data_PCOD9469868
_publ_section_title
;
Structure prediction by ZEFSAII (Michael W. Deem and Ramdas Pophale) SiO2 
 PCOD9469868
Probable space group: C M C M
;
_chemical_formula_sum "Si O2"
_cell_formula_units_Z 80
_cell_length_a 9.932698
_cell_length_b 26.203516
_cell_length_c 15.250272
_cell_angle_alpha 90.000000
_cell_angle_beta 90.000000
_cell_angle_gamma 90.000000
_cell_volume 3969.212861
_symmetry_space_group_name_H-M "C M C M"
_symmetry_group_IT_number 63
_symmetry_cell_setting 'orthorhombic'
loop_
_space_group_symop_operation_xyz
x,y,z
-x,-y,1/2+z
x,-y,-z
-x,y,1/2-z
-x,-y,-z
x,y,1/2-z
-x,y,z
x,-y,1/2+z
1/2+x,1/2+y,z
1/2-x,1/2-y,1/2+z
1/2+x,1/2-y,-z
1/2-x,1/2+y,1/2-z
1/2-x,1/2-y,-z
1/2+x,1/2+y,1/2-z
1/2-x,1/2+y,z
1/2+x,1/2-y,1/2+z
loop_
_atom_site_type_symbol
_atom_site_label
_atom_site_fract_x
_atom_site_fract_y
_atom_site_fract_z
Si Si1 0.653953 0.554417 0.889335
Si Si2 0.655171 0.439201 0.896805
Si Si3 0.651709 0.143278 0.617194
Si Si4 0.153542 0.348742 0.592539
Si Si5 0.653821 0.740028 0.352173
O O1 0.500000 0.562473 0.862063
O O2 0.691877 0.496269 0.866365
O O3 0.750254 0.598300 0.854475
O O4 0.655635 0.558173 0.996277
O O5 0.500000 0.428058 0.870973
O O6 0.758748 0.395476 0.869092
O O7 0.500000 0.135790 0.649953
O O8 0.646234 0.141894 0.511594
O O9 0.693674 0.200669 0.640993
O O10 0.238691 0.297239 0.604813
O O11 0.000000 0.345559 0.625948
O O12 0.648631 0.726360 0.250000
O O13 0.500000 0.735080 0.388243
#
# Coordination Sequence:
#
# PCOD9469868 Si02
#       5
#    16  16  16  16  16
#     4   8  14  25  44  70  97 125 155 189 230 275
#     4   8  14  26  44  68  98 127 155 188 229 279
#     4   9  18  31  48  72  98 123 155 196 240 283
#     4  10  19  30  48  74  99 122 153 197 242 280
#     4  10  21  36  51  66  90 127 164 195 233 284
#
# _framework density 20.155128999999999
#
# number of rings (size 3 to 8) (size 9 to 14) (size 15 to 20)
#    0.000    3.000    0.000    2.400    0.000    2.800 
#    0.000    4.000    0.000    1.200    0.000    5.600 
#    0.000    0.000    0.000    0.000    0.000    0.000 
#
# Total GULP energy -223127.593436 kJ/mol
# GULP energy per Si atom -5578.189836 kJ/mol
# Density = 2.010925 g / cm^3
# Si number density = 20.155129 Si / 1000 Ang^3
#
#
#
# Elastic Constant Matrix: (Units=GPa)
#
#
# Indices 1 2 3 4 5 6 
#
# 1 138.9814 131.3199 15.8284 0.0000 0.0000 0.0000
# 2 131.3199 171.9222 11.4828 0.0000 0.0000 0.0000
# 3 15.8284 11.4828 33.8236 0.0000 0.0000 0.0000
# 4 0.0000 0.0000 0.0000 -38.3436 0.0000 0.0000
# 5 0.0000 0.0000 0.0000 0.0000 -6.6693 0.0000
# 6 0.0000 0.0000 0.0000 0.0000 0.0000 38.0845
#
#
#
# Elastic Compliance Matrix: (Units=1/GPa)
#
#
# Indices 1 2 3 4 5 6 
#
# 1 0.026905 -0.020167 -0.005744 0.000000 0.000000 0.000000
# 2 -0.020167 0.021068 0.002285 0.000000 0.000000 0.000000
# 3 -0.005744 0.002285 0.031477 0.000000 0.000000 0.000000
# 4 0.000000 0.000000 0.000000 -0.026080 0.000000 0.000000
# 5 0.000000 0.000000 0.000000 0.000000 -0.149940 0.000000
# 6 0.000000 0.000000 0.000000 0.000000 0.000000 0.026257
#
#
# Mechanical properties :
#
#
# Convention : Reuss Voigt Hill
#
# Bulk Modulus (GPa) = 31.05754 73.55439 52.30596
# Shear Modulus (GPa) = -405.60734 11.02071 -197.29331
#
# Velocity S-wave (km/s) = -14.20140 2.34090 -9.90454
# Velocity P-wave (km/s) = 15.92054 6.62418 10.23679
#
# Compressibility (1/GPa) = 0.03219830
#
# Stress axis : x y z
#
# Youngs Moduli (GPa) = 37.16814 47.46477 31.76883
#
# Poissons Ratio (x) = 0.95723 0.18248
# Poissons Ratio (y) = 0.74957 -0.07260
# Poissons Ratio (z) = 0.21350 -0.10846
#
# Static dielectric constant tensor:
#      x y z
#    x 1.704960 0.000000 0.000000 
#    y 0.000000 1.689570 0.000000 
#    z 0.000000 0.000000 1.726580 
# 
# From -- ./inp_files/40492.got.cif
#   From: 2010.05.17/outbox.cif.g08.bks.cpg/sg63_21_cif.got.tgz:40492.got - 2010.06.03 15:47:04.
