data_PCOD9469230
_publ_section_title
;
Structure prediction by ZEFSAII (Michael W. Deem and Ramdas Pophale) SiO2 
 PCOD9469230
Probable space group: C M C M
;
_chemical_formula_sum "Si O2"
_cell_formula_units_Z 96
_cell_length_a 7.507502
_cell_length_b 26.151963
_cell_length_c 24.493400
_cell_angle_alpha 90.000000
_cell_angle_beta 90.000000
_cell_angle_gamma 90.000000
_cell_volume 4808.934089
_symmetry_space_group_name_H-M "C M C M"
_symmetry_group_IT_number 63
_symmetry_cell_setting 'orthorhombic'
loop_
_space_group_symop_operation_xyz
x,y,z
-x,-y,1/2+z
x,-y,-z
-x,y,1/2-z
-x,-y,-z
x,y,1/2-z
-x,y,z
x,-y,1/2+z
1/2+x,1/2+y,z
1/2-x,1/2-y,1/2+z
1/2+x,1/2-y,-z
1/2-x,1/2+y,1/2-z
1/2-x,1/2-y,-z
1/2+x,1/2+y,1/2-z
1/2-x,1/2+y,z
1/2+x,1/2-y,1/2+z
loop_
_atom_site_type_symbol
_atom_site_label
_atom_site_fract_x
_atom_site_fract_y
_atom_site_fract_z
Si Si1 0.289632 0.100469 0.635625
Si Si2 0.286924 0.308584 0.561521
Si Si3 0.284747 0.497680 0.062370
Si Si4 0.284438 0.943549 0.250000
Si Si5 0.281436 0.403696 0.631776
Si Si6 0.714237 0.807114 0.436140
Si Si7 0.288237 0.564566 0.250000
O O1 0.500000 0.109194 0.643616
O O2 0.269202 0.053437 0.593904
O O3 0.217773 0.083149 0.694521
O O4 0.216278 0.151392 0.606823
O O5 0.500000 0.306400 0.568015
O O6 0.220784 0.351861 0.602576
O O7 0.217754 0.250953 0.570632
O O8 0.252447 0.323046 0.498532
O O9 0.500000 0.498287 0.061376
O O10 0.226180 0.547254 0.096272
O O11 0.221840 0.500000 0.000000
O O12 0.500000 0.941164 0.250000
O O13 0.238831 0.003523 0.250000
O O14 0.500000 0.403521 0.631897
O O15 0.219452 0.411658 0.693705
O O16 0.500000 0.805486 0.431067
O O17 0.500000 0.573266 0.250000
#
# Coordination Sequence:
#
# PCOD9469230 Si02
#       7
#    16  16  16   8  16  16   8
#     4  10  20  33  48  69  98 129 163 199 237 285
#     4   9  17  32  52  72  96 125 157 195 240 288
#     4  10  19  30  47  72  98 124 156 197 245 291
#     4  10  20  34  49  67  95 133 168 197 236 284
#     4   9  17  29  47  71  95 120 155 198 239 280
#     4   9  18  32  50  72  97 126 158 194 238 286
#     4  10  18  32  51  69  93 125 162 201 240 284
#
# _framework density 19.962845000000002
#
# number of rings (size 3 to 8) (size 9 to 14) (size 15 to 20)
#    0.000    2.500    1.667    1.000    0.000    2.333 
#    0.000    2.500    0.000    5.000    0.000    0.000 
#    0.000    6.667    0.000    0.000    0.000    0.000 
#
# Total GULP energy -267970.194892 kJ/mol
# GULP energy per Si atom -5582.712394 kJ/mol
# Density = 1.991741 g / cm^3
# Si number density = 19.962845 Si / 1000 Ang^3
#
#
#
# Elastic Constant Matrix: (Units=GPa)
#
#
# Indices 1 2 3 4 5 6 
#
# 1 51.4074 -4.1873 -3.9105 0.0000 0.0000 0.0000
# 2 -4.1873 107.2615 65.4550 0.0000 0.0000 0.0000
# 3 -3.9105 65.4550 134.9247 0.0000 0.0000 0.0000
# 4 0.0000 0.0000 0.0000 19.9406 0.0000 0.0000
# 5 0.0000 0.0000 0.0000 0.0000 11.7489 0.0000
# 6 0.0000 0.0000 0.0000 0.0000 0.0000 14.8721
#
#
#
# Elastic Compliance Matrix: (Units=1/GPa)
#
#
# Indices 1 2 3 4 5 6 
#
# 1 0.019522 0.000592 0.000279 0.000000 0.000000 0.000000
# 2 0.000592 0.013262 -0.006416 0.000000 0.000000 0.000000
# 3 0.000279 -0.006416 0.010532 0.000000 0.000000 0.000000
# 4 0.000000 0.000000 0.000000 0.050149 0.000000 0.000000
# 5 0.000000 0.000000 0.000000 0.000000 0.085115 0.000000
# 6 0.000000 0.000000 0.000000 0.000000 0.000000 0.067240
#
#
# Mechanical properties :
#
#
# Convention : Reuss Voigt Hill
#
# Bulk Modulus (GPa) = 31.03232 45.36755 38.19994
# Shear Modulus (GPa) = 18.68097 25.06141 21.87119
#
# Velocity S-wave (km/s) = 3.06238 3.54701 3.31357
# Velocity P-wave (km/s) = 5.29934 6.28891 5.81521
#
# Compressibility (1/GPa) = 0.03222447
#
# Stress axis : x y z
#
# Youngs Moduli (GPa) = 51.22459 75.40553 94.94579
#
# Poissons Ratio (x) = -0.04465 -0.02645
# Poissons Ratio (y) = -0.03033 0.60921
# Poissons Ratio (z) = -0.01427 0.48383
#
# Static dielectric constant tensor:
#      x y z
#    x 1.755590 0.000000 0.000000 
#    y 0.000000 1.683310 0.000000 
#    z 0.000000 0.000000 1.685630 
# 
# From -- ./inp_files/60025.got.cif
#   From: 2010.05.17/outbox.cif.g08.bks.cpg/sg63_31_cif.got.tgz:60025.got - 2010.06.03 15:47:04.
