data_PCOD9469640
_publ_section_title
;
Structure prediction by ZEFSAII (Michael W. Deem and Ramdas Pophale) SiO2 
 PCOD9469640
Probable space group: C M C M
;
_chemical_formula_sum "Si O2"
_cell_formula_units_Z 80
_cell_length_a 24.699215
_cell_length_b 27.440087
_cell_length_c 7.701259
_cell_angle_alpha 90.000000
_cell_angle_beta 90.000000
_cell_angle_gamma 90.000000
_cell_volume 5219.517570
_symmetry_space_group_name_H-M "C M C M"
_symmetry_group_IT_number 63
_symmetry_cell_setting 'orthorhombic'
loop_
_space_group_symop_operation_xyz
x,y,z
-x,-y,1/2+z
x,-y,-z
-x,y,1/2-z
-x,-y,-z
x,y,1/2-z
-x,y,z
x,-y,1/2+z
1/2+x,1/2+y,z
1/2-x,1/2-y,1/2+z
1/2+x,1/2-y,-z
1/2-x,1/2+y,1/2-z
1/2-x,1/2-y,-z
1/2+x,1/2+y,1/2-z
1/2-x,1/2+y,z
1/2+x,1/2-y,1/2+z
loop_
_atom_site_type_symbol
_atom_site_label
_atom_site_fract_x
_atom_site_fract_y
_atom_site_fract_z
Si Si1 0.113778 0.444042 0.541318
Si Si2 0.382175 0.758658 0.536944
Si Si3 0.000000 0.399627 0.537734
Si Si4 0.317217 0.145138 0.043797
Si Si5 0.500000 0.785889 0.961984
Si Si6 0.783727 0.798931 0.455778
O O1 0.124467 0.500000 0.500000
O O2 0.112370 0.440536 0.750000
O O3 0.158440 0.405381 0.476139
O O4 0.054551 0.426518 0.478780
O O5 0.381728 0.758783 0.750000
O O6 0.352700 0.808827 0.478758
O O7 0.444310 0.760680 0.481230
O O8 0.344064 0.713801 0.479245
O O9 0.000000 0.399992 0.750000
O O10 0.000000 0.342844 0.486147
O O11 0.325587 0.145198 0.250000
O O12 0.254089 0.157027 0.016680
O O13 0.500000 0.785812 0.750000
O O14 0.786821 0.803259 0.250000
O O15 0.750000 0.750000 0.500000
#
# Coordination Sequence:
#
# PCOD9469640 Si02
#       6
#    16  16   8  16   8  16
#     4  10  19  29  41  57  75  99 134 170 205 237
#     4   8  13  21  35  55  74  93 122 155 186 221
#     4   9  15  25  40  54  72 102 134 167 201 231
#     4   9  16  27  40  54  72  97 129 161 192 229
#     4   9  12  19  37  56  74  98 127 159 188 217
#     4   9  16  25  38  57  76  95 122 155 191 230
#
# _framework density 15.327087000000001
#
# number of rings (size 3 to 8) (size 9 to 14) (size 15 to 20)
#    0.000    3.000    2.000    2.100    0.000    0.800 
#    0.000    0.000    0.000    0.000    0.000   17.500 
#    0.000    0.000    0.000    0.900    0.000    9.400 
#
# Total GULP energy -222675.892002 kJ/mol
# GULP energy per Si atom -5566.897300 kJ/mol
# Density = 1.529220 g / cm^3
# Si number density = 15.327087 Si / 1000 Ang^3
#
#
#
# Elastic Constant Matrix: (Units=GPa)
#
#
# Indices 1 2 3 4 5 6 
#
# 1 137.7984 79.9786 2.7189 0.0000 0.0000 0.0000
# 2 79.9786 87.4386 5.3074 0.0000 0.0000 0.0000
# 3 2.7189 5.3074 22.0302 0.0000 0.0000 0.0000
# 4 0.0000 0.0000 0.0000 13.4025 0.0000 0.0000
# 5 0.0000 0.0000 0.0000 0.0000 10.2722 0.0000
# 6 0.0000 0.0000 0.0000 0.0000 0.0000 16.4387
#
#
#
# Elastic Compliance Matrix: (Units=1/GPa)
#
#
# Indices 1 2 3 4 5 6 
#
# 1 0.015520 -0.014289 0.001527 0.000000 0.000000 0.000000
# 2 -0.014289 0.024761 -0.004202 0.000000 0.000000 0.000000
# 3 0.001527 -0.004202 0.046216 0.000000 0.000000 0.000000
# 4 0.000000 0.000000 0.000000 0.074613 0.000000 0.000000
# 5 0.000000 0.000000 0.000000 0.000000 0.097350 0.000000
# 6 0.000000 0.000000 0.000000 0.000000 0.000000 0.060832
#
#
# Mechanical properties :
#
#
# Convention : Reuss Voigt Hill
#
# Bulk Modulus (GPa) = 19.02224 47.03079 33.02651
# Shear Modulus (GPa) = 13.48646 18.64017 16.06331
#
# Velocity S-wave (km/s) = 2.96955 3.49113 3.24085
# Velocity P-wave (km/s) = 4.91888 6.85580 5.96647
#
# Compressibility (1/GPa) = 0.05257005
#
# Stress axis : x y z
#
# Youngs Moduli (GPa) = 64.43319 40.38592 21.63753
#
# Poissons Ratio (x) = 0.57705 -0.03304
# Poissons Ratio (y) = 0.92065 0.09092
# Poissons Ratio (z) = -0.09838 0.16970
#
# Static dielectric constant tensor:
#      x y z
#    x 1.546390 0.000000 0.000000 
#    y 0.000000 1.494940 0.000000 
#    z 0.000000 0.000000 1.576890 
# 
# From -- ./inp_files/10653.got.cif
#   From: 2010.05.17/outbox.cif.g08.bks.cpg/sg63_6_cif.got.tgz:10653.got - 2010.06.03 15:47:04.
