data_PCOD9469033
_publ_section_title
;
Structure prediction by ZEFSAII (Michael W. Deem and Ramdas Pophale) SiO2 
 PCOD9469033
Probable space group: C M C M
;
_chemical_formula_sum "Si O2"
_cell_formula_units_Z 80
_cell_length_a 17.835766
_cell_length_b 14.929423
_cell_length_c 17.391690
_cell_angle_alpha 90.000000
_cell_angle_beta 90.000000
_cell_angle_gamma 90.000000
_cell_volume 4631.019128
_symmetry_space_group_name_H-M "C M C M"
_symmetry_group_IT_number 63
_symmetry_cell_setting 'orthorhombic'
loop_
_space_group_symop_operation_xyz
x,y,z
-x,-y,1/2+z
x,-y,-z
-x,y,1/2-z
-x,-y,-z
x,y,1/2-z
-x,y,z
x,-y,1/2+z
1/2+x,1/2+y,z
1/2-x,1/2-y,1/2+z
1/2+x,1/2-y,-z
1/2-x,1/2+y,1/2-z
1/2-x,1/2-y,-z
1/2+x,1/2+y,1/2-z
1/2-x,1/2+y,z
1/2+x,1/2-y,1/2+z
loop_
_atom_site_type_symbol
_atom_site_label
_atom_site_fract_x
_atom_site_fract_y
_atom_site_fract_z
Si Si1 0.821856 0.260956 0.338453
Si Si2 0.719582 0.127327 0.068380
Si Si3 0.415669 0.770877 0.488074
Si Si4 0.749771 0.543196 0.837634
Si Si5 0.638403 0.587803 0.541300
O O1 0.839474 0.236878 0.250000
O O2 0.755112 0.199158 0.372442
O O3 0.888558 0.253276 0.400432
O O4 0.794073 0.363493 0.339566
O O5 0.710790 0.033576 0.112056
O O6 0.645805 0.165253 0.027982
O O7 0.784348 0.112029 0.004710
O O8 0.500000 0.805828 0.490388
O O9 0.410431 0.675939 0.532492
O O10 0.743431 0.512999 0.750000
O O11 0.668268 0.561301 0.875003
O O12 0.605936 0.500000 0.500000
#
# Coordination Sequence:
#
# PCOD9469033 Si02
#       5
#    16  16  16  16  16
#     4  10  19  34  55  78 105 138 185 235 266 305
#     4  10  18  34  53  79 105 139 185 222 266 319
#     4  11  21  34  52  79 116 149 176 212 273 338
#     4  10  18  30  56  81  99 130 182 238 271 302
#     4   9  17  33  57  77 103 134 185 232 263 310
#
# _framework density 17.274813999999999
#
# number of rings (size 3 to 8) (size 9 to 14) (size 15 to 20)
#    0.000    2.000    4.000    1.800    0.000    0.800 
#    0.000    2.000    0.000    6.600    0.000    0.000 
#    0.000    0.000    0.000    0.000    0.000    0.000 
#
# Total GULP energy -223037.437818 kJ/mol
# GULP energy per Si atom -5575.935945 kJ/mol
# Density = 1.723550 g / cm^3
# Si number density = 17.274814 Si / 1000 Ang^3
#
#
#
# Elastic Constant Matrix: (Units=GPa)
#
#
# Indices 1 2 3 4 5 6 
#
# 1 63.4543 20.3240 28.6104 0.0000 0.0000 0.0000
# 2 20.3240 74.9135 18.8059 0.0000 0.0000 0.0000
# 3 28.6104 18.8059 98.1052 0.0000 0.0000 0.0000
# 4 0.0000 0.0000 0.0000 25.1073 0.0000 0.0000
# 5 0.0000 0.0000 0.0000 0.0000 7.9858 0.0000
# 6 0.0000 0.0000 0.0000 0.0000 0.0000 9.7041
#
#
#
# Elastic Compliance Matrix: (Units=1/GPa)
#
#
# Indices 1 2 3 4 5 6 
#
# 1 0.019222 -0.004000 -0.004839 0.000000 0.000000 0.000000
# 2 -0.004000 0.014856 -0.001681 0.000000 0.000000 0.000000
# 3 -0.004839 -0.001681 0.011927 0.000000 0.000000 0.000000
# 4 0.000000 0.000000 0.000000 0.039829 0.000000 0.000000
# 5 0.000000 0.000000 0.000000 0.000000 0.125223 0.000000
# 6 0.000000 0.000000 0.000000 0.000000 0.000000 0.103049
#
#
# Mechanical properties :
#
#
# Convention : Reuss Voigt Hill
#
# Bulk Modulus (GPa) = 40.05743 41.32817 40.69280
# Shear Modulus (GPa) = 14.55738 19.80829 17.18283
#
# Velocity S-wave (km/s) = 2.90607 3.38991 3.15727
# Velocity P-wave (km/s) = 5.87358 6.26880 6.07441
#
# Compressibility (1/GPa) = 0.02496416
#
# Stress axis : x y z
#
# Youngs Moduli (GPa) = 52.02245 67.31267 83.84616
#
# Poissons Ratio (x) = 0.26927 0.40573
# Poissons Ratio (y) = 0.20811 0.14096
# Poissons Ratio (z) = 0.25174 0.11316
#
# Static dielectric constant tensor:
#      x y z
#    x 1.565400 0.000000 0.000000 
#    y 0.000000 1.618160 0.000000 
#    z 0.000000 0.000000 1.616160 
# 
# From -- ./inp_files/35094.got.cif
#   From: 2010.05.17/outbox.cif.g08.bks.cpg/sg63_18_cif.got.tgz:35094.got - 2010.06.03 15:47:04.
