data_PCOD9469262
_publ_section_title
;
Structure prediction by ZEFSAII (Michael W. Deem and Ramdas Pophale) SiO2 
 PCOD9469262
Probable space group: C M C M
;
_chemical_formula_sum "Si O2"
_cell_formula_units_Z 112
_cell_length_a 18.027736
_cell_length_b 18.303567
_cell_length_c 20.113432
_cell_angle_alpha 90.000000
_cell_angle_beta 90.000000
_cell_angle_gamma 90.000000
_cell_volume 6636.866844
_symmetry_space_group_name_H-M "C M C M"
_symmetry_group_IT_number 63
_symmetry_cell_setting 'orthorhombic'
loop_
_space_group_symop_operation_xyz
x,y,z
-x,-y,1/2+z
x,-y,-z
-x,y,1/2-z
-x,-y,-z
x,y,1/2-z
-x,y,z
x,-y,1/2+z
1/2+x,1/2+y,z
1/2-x,1/2-y,1/2+z
1/2+x,1/2-y,-z
1/2-x,1/2+y,1/2-z
1/2-x,1/2-y,-z
1/2+x,1/2+y,1/2-z
1/2-x,1/2+y,z
1/2+x,1/2-y,1/2+z
loop_
_atom_site_type_symbol
_atom_site_label
_atom_site_fract_x
_atom_site_fract_y
_atom_site_fract_z
Si Si1 0.087961 0.990376 0.329932
Si Si2 0.839485 0.132869 0.398316
Si Si3 0.686928 0.352738 0.121915
Si Si4 0.416838 0.706357 0.521963
Si Si5 0.226695 0.417316 0.996250
Si Si6 0.333114 0.788664 0.325798
Si Si7 0.915992 0.639085 0.553093
O O1 0.091278 0.996692 0.250000
O O2 0.137932 0.920411 0.351405
O O3 0.000000 0.983231 0.348267
O O4 0.123815 0.063206 0.362553
O O5 0.885964 0.152471 0.464869
O O6 0.757673 0.115611 0.427752
O O7 0.837683 0.205668 0.353505
O O8 0.631194 0.295368 0.088502
O O9 0.735319 0.377045 0.058128
O O10 0.748251 0.317697 0.169654
O O11 0.500000 0.684647 0.538255
O O12 0.415636 0.785277 0.488106
O O13 0.140017 0.411604 0.012181
O O14 0.252623 0.500000 0.000000
O O15 0.358831 0.791540 0.250000
O O16 0.382388 0.838896 0.375038
O O17 0.000000 0.612345 0.558697
#
# Coordination Sequence:
#
# PCOD9469262 Si02
#       7
#    16  16  16  16  16  16  16
#     4  11  22  33  47  72 108 142 169 206 254 307
#     4  10  19  33  50  75 102 133 172 211 249 307
#     4  10  19  33  50  73  99 133 172 210 244 302
#     4   9  17  30  50  73  99 129 160 206 256 296
#     4  10  18  32  52  74  98 129 164 209 260 299
#     4  10  20  34  53  72  98 137 176 209 247 298
#     4   9  19  33  50  76 102 124 162 212 263 307
#
# _framework density 16.875433000000001
#
# number of rings (size 3 to 8) (size 9 to 14) (size 15 to 20)
#    0.000    2.143    1.429    2.571    0.000    4.571 
#    0.000    2.143    0.000    0.000    0.000    0.000 
#    0.000    1.714    0.000    0.000    0.000    0.000 
#
# Total GULP energy -311899.516565 kJ/mol
# GULP energy per Si atom -5569.634224 kJ/mol
# Density = 1.683702 g / cm^3
# Si number density = 16.875433 Si / 1000 Ang^3
#
#
#
# Elastic Constant Matrix: (Units=GPa)
#
#
# Indices 1 2 3 4 5 6 
#
# 1 102.3537 7.3838 22.1260 0.0000 0.0000 0.0000
# 2 7.3838 21.3893 -6.2493 0.0000 0.0000 0.0000
# 3 22.1260 -6.2493 42.1073 0.0000 0.0000 0.0000
# 4 0.0000 0.0000 0.0000 17.4660 0.0000 0.0000
# 5 0.0000 0.0000 0.0000 0.0000 1.4695 0.0000
# 6 0.0000 0.0000 0.0000 0.0000 0.0000 23.9244
#
#
#
# Elastic Compliance Matrix: (Units=1/GPa)
#
#
# Indices 1 2 3 4 5 6 
#
# 1 0.011742 -0.006121 -0.007078 0.000000 0.000000 0.000000
# 2 -0.006121 0.052063 0.010943 0.000000 0.000000 0.000000
# 3 -0.007078 0.010943 0.029092 0.000000 0.000000 0.000000
# 4 0.000000 0.000000 0.000000 0.057254 0.000000 0.000000
# 5 0.000000 0.000000 0.000000 0.000000 0.680517 0.000000
# 6 0.000000 0.000000 0.000000 0.000000 0.000000 0.041798
#
#
# Mechanical properties :
#
#
# Convention : Reuss Voigt Hill
#
# Bulk Modulus (GPa) = 11.31425 23.59680 17.45553
# Shear Modulus (GPa) = 5.51608 18.07798 11.79703
#
# Velocity S-wave (km/s) = 1.80992 3.27656 2.64685
# Velocity P-wave (km/s) = 3.32969 5.32238 4.43929
#
# Compressibility (1/GPa) = 0.08838410
#
# Stress axis : x y z
#
# Youngs Moduli (GPa) = 85.16588 19.20760 34.37315
#
# Poissons Ratio (x) = 0.11758 0.24331
# Poissons Ratio (y) = 0.52134 -0.37616
# Poissons Ratio (z) = 0.60284 -0.21020
#
# Static dielectric constant tensor:
#      x y z
#    x 1.613560 0.000000 0.000000 
#    y 0.000000 1.568440 0.000000 
#    z 0.000000 0.000000 1.558350 
# 
# From -- ./inp_files/46096.got.cif
#   From: 2010.05.17/outbox.cif.g08.bks.cpg/sg63_24_cif.got.tgz:46096.got - 2010.06.03 15:47:04.
