data_PCOD9469369
_publ_section_title
;
Structure prediction by ZEFSAII (Michael W. Deem and Ramdas Pophale) SiO2 
 PCOD9469369
Probable space group: C M C M
;
_chemical_formula_sum "Si O2"
_cell_formula_units_Z 96
_cell_length_a 12.453883
_cell_length_b 19.925027
_cell_length_c 23.754988
_cell_angle_alpha 90.000000
_cell_angle_beta 90.000000
_cell_angle_gamma 90.000000
_cell_volume 5894.656674
_symmetry_space_group_name_H-M "C M C M"
_symmetry_group_IT_number 63
_symmetry_cell_setting 'orthorhombic'
loop_
_space_group_symop_operation_xyz
x,y,z
-x,-y,1/2+z
x,-y,-z
-x,y,1/2-z
-x,-y,-z
x,y,1/2-z
-x,y,z
x,-y,1/2+z
1/2+x,1/2+y,z
1/2-x,1/2-y,1/2+z
1/2+x,1/2-y,-z
1/2-x,1/2+y,1/2-z
1/2-x,1/2-y,-z
1/2+x,1/2+y,1/2-z
1/2-x,1/2+y,z
1/2+x,1/2-y,1/2+z
loop_
_atom_site_type_symbol
_atom_site_label
_atom_site_fract_x
_atom_site_fract_y
_atom_site_fract_z
Si Si1 0.624398 0.731147 0.685925
Si Si2 0.278983 0.941304 0.929147
Si Si3 0.621064 0.077887 0.543075
Si Si4 0.374039 0.893114 0.686481
Si Si5 0.738999 0.797503 0.080389
Si Si6 0.627976 0.331705 0.969340
O O1 0.649359 0.711248 0.750000
O O2 0.500000 0.713946 0.674316
O O3 0.632215 0.812225 0.682952
O O4 0.702769 0.701341 0.639845
O O5 0.309924 0.923465 0.865681
O O6 0.169901 0.904084 0.947614
O O7 0.294226 0.020759 0.938489
O O8 0.362335 0.911771 0.975977
O O9 0.500000 0.054957 0.554099
O O10 0.647648 0.146598 0.573800
O O11 0.339155 0.912462 0.750000
O O12 0.500000 0.911134 0.680834
O O13 0.686975 0.725063 0.068212
O O14 0.825360 0.815963 0.031601
O O15 0.500000 0.326148 0.967695
#
# Coordination Sequence:
#
# PCOD9469369 Si02
#       6
#    16  16  16  16  16  16
#     4   9  17  30  50  75 100 128 165 207 249 291
#     4  10  18  33  50  72 100 131 166 205 249 295
#     4  10  20  32  51  76 103 134 161 198 255 307
#     4   9  16  27  48  74  96 123 163 209 246 281
#     4  10  19  33  49  74 102 130 163 204 249 297
#     4  10  20  32  50  74  99 131 167 205 247 293
#
# _framework density 16.285937000000001
#
# number of rings (size 3 to 8) (size 9 to 14) (size 15 to 20)
#    0.000    2.333    1.667    4.000    0.000    0.000 
#    0.000    8.333    0.000    4.500    0.000    0.000 
#    0.000    0.000    0.000    0.000    0.000    0.000 
#
# Total GULP energy -267365.288847 kJ/mol
# GULP energy per Si atom -5570.110184 kJ/mol
# Density = 1.624887 g / cm^3
# Si number density = 16.285937 Si / 1000 Ang^3
#
#
#
# Elastic Constant Matrix: (Units=GPa)
#
#
# Indices 1 2 3 4 5 6 
#
# 1 74.8271 16.6235 38.6721 0.0000 0.0000 0.0000
# 2 16.6235 44.9526 17.3638 0.0000 0.0000 0.0000
# 3 38.6721 17.3638 96.8516 0.0000 0.0000 0.0000
# 4 0.0000 0.0000 0.0000 18.9052 0.0000 0.0000
# 5 0.0000 0.0000 0.0000 0.0000 17.9300 0.0000
# 6 0.0000 0.0000 0.0000 0.0000 0.0000 17.1267
#
#
#
# Elastic Compliance Matrix: (Units=1/GPa)
#
#
# Indices 1 2 3 4 5 6 
#
# 1 0.017500 -0.004053 -0.006261 0.000000 0.000000 0.000000
# 2 -0.004053 0.024840 -0.002835 0.000000 0.000000 0.000000
# 3 -0.006261 -0.002835 0.013333 0.000000 0.000000 0.000000
# 4 0.000000 0.000000 0.000000 0.052896 0.000000 0.000000
# 5 0.000000 0.000000 0.000000 0.000000 0.055773 0.000000
# 6 0.000000 0.000000 0.000000 0.000000 0.000000 0.058388
#
#
# Mechanical properties :
#
#
# Convention : Reuss Voigt Hill
#
# Bulk Modulus (GPa) = 34.04265 40.21670 37.12968
# Shear Modulus (GPa) = 19.31843 20.39048 19.85446
#
# Velocity S-wave (km/s) = 3.44787 3.54224 3.49537
# Velocity P-wave (km/s) = 6.06621 6.44032 6.25606
#
# Compressibility (1/GPa) = 0.02937492
#
# Stress axis : x y z
#
# Youngs Moduli (GPa) = 57.14127 40.25835 74.99993
#
# Poissons Ratio (x) = 0.16318 0.46959
# Poissons Ratio (y) = 0.23161 0.21262
# Poissons Ratio (z) = 0.35777 0.11413
#
# Static dielectric constant tensor:
#      x y z
#    x 1.529760 0.000000 0.000000 
#    y 0.000000 1.560780 0.000000 
#    z 0.000000 0.000000 1.544050 
# 
# From -- ./inp_files/61454.got.cif
#   From: 2010.05.17/outbox.cif.g08.bks.cpg/sg63_31_cif.got.tgz:61454.got - 2010.06.03 15:47:04.
