data_PCOD9469789
_publ_section_title
;
Structure prediction by ZEFSAII (Michael W. Deem and Ramdas Pophale) SiO2 
 PCOD9469789
Probable space group: C M C M
;
_chemical_formula_sum "Si O2"
_cell_formula_units_Z 80
_cell_length_a 16.759726
_cell_length_b 16.554081
_cell_length_c 14.987389
_cell_angle_alpha 90.000000
_cell_angle_beta 90.000000
_cell_angle_gamma 90.000000
_cell_volume 4158.129107
_symmetry_space_group_name_H-M "C M C M"
_symmetry_group_IT_number 63
_symmetry_cell_setting 'orthorhombic'
loop_
_space_group_symop_operation_xyz
x,y,z
-x,-y,1/2+z
x,-y,-z
-x,y,1/2-z
-x,-y,-z
x,y,1/2-z
-x,y,z
x,-y,1/2+z
1/2+x,1/2+y,z
1/2-x,1/2-y,1/2+z
1/2+x,1/2-y,-z
1/2-x,1/2+y,1/2-z
1/2-x,1/2-y,-z
1/2+x,1/2+y,1/2-z
1/2-x,1/2+y,z
1/2+x,1/2-y,1/2+z
loop_
_atom_site_type_symbol
_atom_site_label
_atom_site_fract_x
_atom_site_fract_y
_atom_site_fract_z
Si Si1 0.313203 0.178691 0.982424
Si Si2 0.802169 0.113416 0.651134
Si Si3 0.905051 0.723013 0.146242
Si Si4 0.595475 0.710289 0.351266
Si Si5 0.908671 0.030408 0.101507
O O1 0.262579 0.112867 0.928126
O O2 0.374228 0.218141 0.912576
O O3 0.250000 0.250000 0.000000
O O4 0.359625 0.165955 0.075211
O O5 0.766371 0.126196 0.750000
O O6 0.864108 0.188238 0.636574
O O7 0.851737 0.031419 0.650684
O O8 0.894773 0.699010 0.250000
O O9 0.000000 0.728088 0.127687
O O10 0.625657 0.716262 0.250000
O O11 0.500000 0.711645 0.349891
O O12 0.619072 0.622806 0.390450
O O13 0.000000 0.026558 0.135674
O O14 0.909979 0.000000 0.000000
#
# Coordination Sequence:
#
# PCOD9469789 Si02
#       5
#    16  16  16  16  16
#     4  10  19  31  46  67  99 134 165 202 248 295
#     4  10  19  30  46  69 100 136 170 205 245 294
#     4   9  17  29  46  67  91 123 163 205 248 293
#     4  10  20  33  50  72 100 135 170 202 240 291
#     4  10  19  31  48  71 101 137 173 206 244 292
#
# _framework density 19.239421
#
# number of rings (size 3 to 8) (size 9 to 14) (size 15 to 20)
#    0.000    2.200    0.000    4.800    0.000    4.400 
#    0.000    0.000    0.000    0.000    0.000    0.000 
#    0.000   56.000    0.000  106.400    0.000    0.000 
#
# Total GULP energy -223115.333178 kJ/mol
# GULP energy per Si atom -5577.883329 kJ/mol
# Density = 1.919563 g / cm^3
# Si number density = 19.239421 Si / 1000 Ang^3
#
#
#
# Elastic Constant Matrix: (Units=GPa)
#
#
# Indices 1 2 3 4 5 6 
#
# 1 71.0982 19.8528 53.9253 0.0000 0.0000 0.0000
# 2 19.8528 30.8887 8.8843 0.0000 0.0000 0.0000
# 3 53.9253 8.8843 113.7043 0.0000 0.0000 0.0000
# 4 0.0000 0.0000 0.0000 17.5422 0.0000 0.0000
# 5 0.0000 0.0000 0.0000 0.0000 -1.9830 0.0000
# 6 0.0000 0.0000 0.0000 0.0000 0.0000 23.9808
#
#
#
# Elastic Compliance Matrix: (Units=1/GPa)
#
#
# Indices 1 2 3 4 5 6 
#
# 1 0.026721 -0.013840 -0.011591 0.000000 0.000000 0.000000
# 2 -0.013840 0.040287 0.003416 0.000000 0.000000 0.000000
# 3 -0.011591 0.003416 0.014025 0.000000 0.000000 0.000000
# 4 0.000000 0.000000 0.000000 0.057005 0.000000 0.000000
# 5 0.000000 0.000000 0.000000 0.000000 -0.504281 0.000000
# 6 0.000000 0.000000 0.000000 0.000000 0.000000 0.041700
#
#
# Mechanical properties :
#
#
# Convention : Reuss Voigt Hill
#
# Bulk Modulus (GPa) = 27.02532 42.33508 34.68020
# Shear Modulus (GPa) = -18.64447 16.77659 -0.93394
#
# Velocity S-wave (km/s) = -3.11638 2.95615 -0.69748
# Velocity P-wave (km/s) = 1.06220 5.80551 4.17326
#
# Compressibility (1/GPa) = 0.03700234
#
# Stress axis : x y z
#
# Youngs Moduli (GPa) = 37.42317 24.82173 71.30035
#
# Poissons Ratio (x) = 0.34354 0.82647
# Poissons Ratio (y) = 0.51795 -0.24357
# Poissons Ratio (z) = 0.43379 -0.08479
#
# Static dielectric constant tensor:
#      x y z
#    x 1.670300 0.000000 0.000000 
#    y 0.000000 1.633570 0.000000 
#    z 0.000000 0.000000 1.732330 
# 
# From -- ./inp_files/31664.got.cif
#   From: 2010.05.17/outbox.cif.g08.bks.cpg/sg63_16_cif.got.tgz:31664.got - 2010.06.03 15:47:04.
