data_PCOD9469274
_publ_section_title
;
Structure prediction by ZEFSAII (Michael W. Deem and Ramdas Pophale) SiO2 
 PCOD9469274
Probable space group: C M C M
;
_chemical_formula_sum "Si O2"
_cell_formula_units_Z 72
_cell_length_a 12.124955
_cell_length_b 14.852904
_cell_length_c 23.406949
_cell_angle_alpha 90.000000
_cell_angle_beta 90.000000
_cell_angle_gamma 90.000000
_cell_volume 4215.375998
_symmetry_space_group_name_H-M "C M C M"
_symmetry_group_IT_number 63
_symmetry_cell_setting 'orthorhombic'
loop_
_space_group_symop_operation_xyz
x,y,z
-x,-y,1/2+z
x,-y,-z
-x,y,1/2-z
-x,-y,-z
x,y,1/2-z
-x,y,z
x,-y,1/2+z
1/2+x,1/2+y,z
1/2-x,1/2-y,1/2+z
1/2+x,1/2-y,-z
1/2-x,1/2+y,1/2-z
1/2-x,1/2-y,-z
1/2+x,1/2+y,1/2-z
1/2-x,1/2+y,z
1/2+x,1/2-y,1/2+z
loop_
_atom_site_type_symbol
_atom_site_label
_atom_site_fract_x
_atom_site_fract_y
_atom_site_fract_z
Si Si1 0.377289 0.307801 0.750000
Si Si2 0.792615 0.143551 0.750000
Si Si3 0.126778 0.199117 0.628740
Si Si4 0.630423 0.516092 0.567179
Si Si5 0.872840 0.524235 0.250000
Si Si6 0.751297 0.619020 0.349824
O O1 0.500000 0.273226 0.750000
O O2 0.290627 0.227464 0.750000
O O3 0.350395 0.364197 0.806492
O O4 0.860622 0.154726 0.808156
O O5 0.716746 0.055488 0.750000
O O6 0.205329 0.286068 0.625757
O O7 0.000000 0.226890 0.620475
O O8 0.154058 0.119243 0.584849
O O9 0.644934 0.500000 0.500000
O O10 0.500000 0.499873 0.580759
O O11 0.709845 0.450812 0.603184
O O12 0.845775 0.581652 0.306918
O O13 0.000000 0.495063 0.250000
#
# Coordination Sequence:
#
# PCOD9469274 Si02
#       6
#     8   8  16  16   8  16
#     4   9  18  30  48  77 109 134 171 217 267 327
#     4  10  18  32  52  80 105 142 171 213 271 327
#     4  10  20  35  56  80 108 141 180 221 268 327
#     4  10  21  37  57  80 107 144 190 232 268 312
#     4  11  20  32  52  81 112 140 170 216 274 328
#     4  10  20  34  54  79 109 144 179 217 274 321
#
# _framework density 17.080325999999999
#
# number of rings (size 3 to 8) (size 9 to 14) (size 15 to 20)
#    0.000    2.000    2.222    2.667    0.000    0.889 
#    0.000    0.000    0.000    2.667    0.000    0.000 
#    0.000    0.000    0.000    0.000    0.000    0.000 
#
# Total GULP energy -200739.871186 kJ/mol
# GULP energy per Si atom -5576.107533 kJ/mol
# Density = 1.704145 g / cm^3
# Si number density = 17.080326 Si / 1000 Ang^3
#
#
#
# Elastic Constant Matrix: (Units=GPa)
#
#
# Indices 1 2 3 4 5 6 
#
# 1 64.3449 31.4925 28.9866 0.0000 0.0000 0.0000
# 2 31.4925 93.6677 42.7493 0.0000 0.0000 0.0000
# 3 28.9866 42.7493 71.7892 0.0000 0.0000 0.0000
# 4 0.0000 0.0000 0.0000 15.7360 0.0000 0.0000
# 5 0.0000 0.0000 0.0000 0.0000 8.5982 0.0000
# 6 0.0000 0.0000 0.0000 0.0000 0.0000 10.8541
#
#
#
# Elastic Compliance Matrix: (Units=1/GPa)
#
#
# Indices 1 2 3 4 5 6 
#
# 1 0.020132 -0.004200 -0.005628 0.000000 0.000000 0.000000
# 2 -0.004200 0.015537 -0.007556 0.000000 0.000000 0.000000
# 3 -0.005628 -0.007556 0.020701 0.000000 0.000000 0.000000
# 4 0.000000 0.000000 0.000000 0.063548 0.000000 0.000000
# 5 0.000000 0.000000 0.000000 0.000000 0.116303 0.000000
# 6 0.000000 0.000000 0.000000 0.000000 0.000000 0.092131
#
#
# Mechanical properties :
#
#
# Convention : Reuss Voigt Hill
#
# Bulk Modulus (GPa) = 46.29075 48.47321 47.38198
# Shear Modulus (GPa) = 13.50177 15.47588 14.48882
#
# Velocity S-wave (km/s) = 2.81461 3.01336 2.91568
# Velocity P-wave (km/s) = 6.14193 6.36775 6.25586
#
# Compressibility (1/GPa) = 0.02160259
#
# Stress axis : x y z
#
# Youngs Moduli (GPa) = 49.67163 64.36365 48.30602
#
# Poissons Ratio (x) = 0.27035 0.27185
# Poissons Ratio (y) = 0.20864 0.36499
# Poissons Ratio (z) = 0.27953 0.48632
#
# Static dielectric constant tensor:
#      x y z
#    x 1.565010 0.000000 0.000000 
#    y 0.000000 1.594690 0.000000 
#    z 0.000000 0.000000 1.575740 
# 
# From -- ./inp_files/61044.got.cif
#   From: 2010.05.17/outbox.cif.g08.bks.cpg/sg63_31_cif.got.tgz:61044.got - 2010.06.03 15:47:04.
