data_PCOD9469735
_publ_section_title
;
Structure prediction by ZEFSAII (Michael W. Deem and Ramdas Pophale) SiO2 
 PCOD9469735
Probable space group: C M C M
;
_chemical_formula_sum "Si O2"
_cell_formula_units_Z 128
_cell_length_a 29.072973
_cell_length_b 10.358876
_cell_length_c 25.127574
_cell_angle_alpha 90.000000
_cell_angle_beta 90.000000
_cell_angle_gamma 90.000000
_cell_volume 7567.503666
_symmetry_space_group_name_H-M "C M C M"
_symmetry_group_IT_number 63
_symmetry_cell_setting 'orthorhombic'
loop_
_space_group_symop_operation_xyz
x,y,z
-x,-y,1/2+z
x,-y,-z
-x,y,1/2-z
-x,-y,-z
x,y,1/2-z
-x,y,z
x,-y,1/2+z
1/2+x,1/2+y,z
1/2-x,1/2-y,1/2+z
1/2+x,1/2-y,-z
1/2-x,1/2+y,1/2-z
1/2-x,1/2-y,-z
1/2+x,1/2+y,1/2-z
1/2-x,1/2+y,z
1/2+x,1/2-y,1/2+z
loop_
_atom_site_type_symbol
_atom_site_label
_atom_site_fract_x
_atom_site_fract_y
_atom_site_fract_z
Si Si1 0.413649 0.369068 0.814348
Si Si2 0.816501 0.776411 0.810861
Si Si3 0.354437 0.001406 0.840862
Si Si4 0.551051 0.088368 0.814320
Si Si5 0.791219 0.473791 0.938422
Si Si6 0.050897 0.144771 0.814570
Si Si7 0.653605 0.278489 0.189407
Si Si8 0.265785 0.294281 0.111619
O O1 0.412643 0.369694 0.750000
O O2 0.359705 0.363566 0.830034
O O3 0.438491 0.236534 0.829778
O O4 0.441336 0.495313 0.830521
O O5 0.804389 0.810378 0.750000
O O6 0.837666 0.631528 0.812327
O O7 0.772843 0.766336 0.848903
O O8 0.409154 0.003277 0.838778
O O9 0.334759 0.999570 0.900227
O O10 0.336505 0.874463 0.811761
O O11 0.554604 0.079596 0.750000
O O12 0.500000 0.050351 0.829604
O O13 0.754100 0.579090 0.917291
O O14 0.777761 0.324589 0.927513
O O15 0.799766 0.500000 0.000000
O O16 0.049494 0.153256 0.750000
O O17 0.100438 0.206001 0.828471
O O18 0.000000 0.189715 0.832986
O O19 0.658225 0.328897 0.250000
O O20 0.690527 0.333215 0.148005
#
# Coordination Sequence:
#
# PCOD9469735 Si02
#       8
#    16  16  16  16  16  16  16  16
#     4   8  14  24  39  60  90 126 162 192 221 263
#     4   9  16  28  46  70 100 130 155 190 237 292
#     4   9  18  31  46  67  94 129 163 197 237 289
#     4   9  15  24  43  69  96 125 156 192 231 279
#     4  10  21  38  55  70  92 123 162 213 257 293
#     4   9  17  27  39  58  91 135 170 192 219 263
#     4  10  19  30  43  66 102 134 159 191 231 291
#     4  10  21  33  52  76  96 124 162 200 249 305
#
# _framework density 16.914428000000001
#
# number of rings (size 3 to 8) (size 9 to 14) (size 15 to 20)
#    0.000    2.750    0.000    3.000    1.750    2.000 
#    0.000    2.500    0.000    0.375    0.000    0.000 
#    0.000    0.500    0.000    0.250    0.000    0.000 
#
# Total GULP energy -356415.598770 kJ/mol
# GULP energy per Si atom -5568.993731 kJ/mol
# Density = 1.687593 g / cm^3
# Si number density = 16.914428 Si / 1000 Ang^3
#
#
#
# Elastic Constant Matrix: (Units=GPa)
#
#
# Indices 1 2 3 4 5 6 
#
# 1 99.5069 7.4027 33.0002 0.0000 0.0000 0.0000
# 2 7.4027 39.0685 9.8504 0.0000 0.0000 0.0000
# 3 33.0002 9.8504 64.1420 0.0000 0.0000 0.0000
# 4 0.0000 0.0000 0.0000 12.5622 0.0000 0.0000
# 5 0.0000 0.0000 0.0000 0.0000 7.7875 0.0000
# 6 0.0000 0.0000 0.0000 0.0000 0.0000 19.1314
#
#
#
# Elastic Compliance Matrix: (Units=1/GPa)
#
#
# Indices 1 2 3 4 5 6 
#
# 1 0.012138 -0.000755 -0.006129 0.000000 0.000000 0.000000
# 2 -0.000755 0.026674 -0.003708 0.000000 0.000000 0.000000
# 3 -0.006129 -0.003708 0.019313 0.000000 0.000000 0.000000
# 4 0.000000 0.000000 0.000000 0.079604 0.000000 0.000000
# 5 0.000000 0.000000 0.000000 0.000000 0.128411 0.000000
# 6 0.000000 0.000000 0.000000 0.000000 0.000000 0.052270
#
#
# Mechanical properties :
#
#
# Convention : Reuss Voigt Hill
#
# Bulk Modulus (GPa) = 27.06961 33.69155 30.38058
# Shear Modulus (GPa) = 14.20824 18.06049 16.13436
#
# Velocity S-wave (km/s) = 2.90143 3.27120 3.09185
# Velocity P-wave (km/s) = 5.22140 5.85062 5.54494
#
# Compressibility (1/GPa) = 0.03694180
#
# Stress axis : x y z
#
# Youngs Moduli (GPa) = 82.38356 37.48969 51.77802
#
# Poissons Ratio (x) = 0.02829 0.31735
# Poissons Ratio (y) = 0.06217 0.19200
# Poissons Ratio (z) = 0.50494 0.13902
#
# Static dielectric constant tensor:
#      x y z
#    x 1.616980 0.000000 0.000000 
#    y 0.000000 1.615470 0.000000 
#    z 0.000000 0.000000 1.528630 
# 
# From -- ./inp_files/65569.got.cif
#   From: 2010.05.17/outbox.cif.g08.bks.cpg/sg63_33_cif.got.tgz:65569.got - 2010.06.03 15:47:04.
