data_PCOD9469956
_publ_section_title
;
Structure prediction by ZEFSAII (Michael W. Deem and Ramdas Pophale) SiO2 
 PCOD9469956
Probable space group: C M C M
;
_chemical_formula_sum "Si O2"
_cell_formula_units_Z 112
_cell_length_a 13.834300
_cell_length_b 29.768780
_cell_length_c 17.437514
_cell_angle_alpha 90.000000
_cell_angle_beta 90.000000
_cell_angle_gamma 90.000000
_cell_volume 7181.295456
_symmetry_space_group_name_H-M "C M C M"
_symmetry_group_IT_number 63
_symmetry_cell_setting 'orthorhombic'
loop_
_space_group_symop_operation_xyz
x,y,z
-x,-y,1/2+z
x,-y,-z
-x,y,1/2-z
-x,-y,-z
x,y,1/2-z
-x,y,z
x,-y,1/2+z
1/2+x,1/2+y,z
1/2-x,1/2-y,1/2+z
1/2+x,1/2-y,-z
1/2-x,1/2+y,1/2-z
1/2-x,1/2-y,-z
1/2+x,1/2+y,1/2-z
1/2-x,1/2+y,z
1/2+x,1/2-y,1/2+z
loop_
_atom_site_type_symbol
_atom_site_label
_atom_site_fract_x
_atom_site_fract_y
_atom_site_fract_z
Si Si1 0.114957 0.404394 0.089618
Si Si2 0.612080 0.730778 0.575596
Si Si3 0.388437 0.730238 0.391660
Si Si4 0.882698 0.499288 0.161501
Si Si5 0.200644 0.315759 0.839767
Si Si6 0.614973 0.094708 0.407032
Si Si7 0.218451 0.318726 0.159465
O O1 0.145868 0.453648 0.118691
O O2 0.173930 0.365243 0.130753
O O3 0.000000 0.399138 0.106325
O O4 0.127221 0.401301 0.998267
O O5 0.500000 0.721465 0.592300
O O6 0.624593 0.731592 0.483807
O O7 0.641621 0.779040 0.610717
O O8 0.685010 0.695382 0.613780
O O9 0.500000 0.720748 0.374556
O O10 0.312610 0.695022 0.357100
O O11 0.357043 0.778696 0.359120
O O12 0.851845 0.498445 0.250000
O O13 0.852664 0.545534 0.121164
O O14 0.000000 0.499585 0.160221
O O15 0.181277 0.308589 0.750000
O O16 0.169851 0.365204 0.864999
O O17 0.500000 0.099021 0.390410
O O18 0.237050 0.319541 0.250000
#
# Coordination Sequence:
#
# PCOD9469956 Si02
#       7
#    16  16  16  16  16  16  16
#     4  10  19  31  47  67  94 127 159 190 227 274
#     4  10  20  34  50  67  91 123 157 193 231 274
#     4  10  20  34  50  67  91 123 157 193 231 274
#     4   9  17  29  45  67  94 121 152 191 233 275
#     4  11  21  31  47  70  95 123 155 192 232 274
#     4  10  19  31  47  67  94 127 159 190 227 274
#     4  11  21  31  47  70  95 123 155 192 232 274
#
# _framework density 15.596071999999999
#
# number of rings (size 3 to 8) (size 9 to 14) (size 15 to 20)
#    0.000    1.857    0.000    7.286    0.000    9.143 
#    0.000    0.000    0.000    0.000    0.000    1.000 
#    0.000    8.000    0.000    0.000    0.000    0.000 
#
# Total GULP energy -312608.669479 kJ/mol
# GULP energy per Si atom -5582.297669 kJ/mol
# Density = 1.556057 g / cm^3
# Si number density = 15.596072 Si / 1000 Ang^3
#
#
#
# Elastic Constant Matrix: (Units=GPa)
#
#
# Indices 1 2 3 4 5 6 
#
# 1 38.1076 28.3549 3.7998 0.0000 0.0000 0.0000
# 2 28.3549 104.5213 18.7795 0.0000 0.0000 0.0000
# 3 3.7998 18.7795 34.1574 0.0000 0.0000 0.0000
# 4 0.0000 0.0000 0.0000 34.6054 0.0000 0.0000
# 5 0.0000 0.0000 0.0000 0.0000 9.6620 0.0000
# 6 0.0000 0.0000 0.0000 0.0000 0.0000 19.6958
#
#
#
# Elastic Compliance Matrix: (Units=1/GPa)
#
#
# Indices 1 2 3 4 5 6 
#
# 1 0.032937 -0.009184 0.001385 0.000000 0.000000 0.000000
# 2 -0.009184 0.013177 -0.006223 0.000000 0.000000 0.000000
# 3 0.001385 -0.006223 0.032543 0.000000 0.000000 0.000000
# 4 0.000000 0.000000 0.000000 0.028897 0.000000 0.000000
# 5 0.000000 0.000000 0.000000 0.000000 0.103498 0.000000
# 6 0.000000 0.000000 0.000000 0.000000 0.000000 0.050772
#
#
# Mechanical properties :
#
#
# Convention : Reuss Voigt Hill
#
# Bulk Modulus (GPa) = 19.75740 30.96163 25.35951
# Shear Modulus (GPa) = 16.30046 21.18280 18.74163
#
# Velocity S-wave (km/s) = 3.23641 3.68939 3.47030
# Velocity P-wave (km/s) = 5.16347 6.16799 5.68795
#
# Compressibility (1/GPa) = 0.05061394
#
# Stress axis : x y z
#
# Youngs Moduli (GPa) = 30.36099 75.88965 30.72815
#
# Poissons Ratio (x) = 0.69698 -0.04257
# Poissons Ratio (y) = 0.27884 0.19122
# Poissons Ratio (z) = -0.04206 0.47226
#
# Static dielectric constant tensor:
#      x y z
#    x 1.506720 0.000000 0.000000 
#    y 0.000000 1.501010 0.000000 
#    z 0.000000 0.000000 1.525680 
# 
# From -- ./inp_files/32506.got.cif
#   From: 2010.05.17/outbox.cif.g08.bks.cpg/sg63_17_cif.got.tgz:32506.got - 2010.06.03 15:47:04.
