data_PCOD9469027
_publ_section_title
;
Structure prediction by ZEFSAII (Michael W. Deem and Ramdas Pophale) SiO2 
 PCOD9469027
Probable space group: C M C M
;
_chemical_formula_sum "Si O2"
_cell_formula_units_Z 68
_cell_length_a 14.689064
_cell_length_b 7.910422
_cell_length_c 23.856167
_cell_angle_alpha 90.000000
_cell_angle_beta 90.000000
_cell_angle_gamma 90.000000
_cell_volume 2772.007761
_symmetry_space_group_name_H-M "C M C M"
_symmetry_group_IT_number 63
_symmetry_cell_setting 'orthorhombic'
loop_
_space_group_symop_operation_xyz
x,y,z
-x,-y,1/2+z
x,-y,-z
-x,y,1/2-z
-x,-y,-z
x,y,1/2-z
-x,y,z
x,-y,1/2+z
1/2+x,1/2+y,z
1/2-x,1/2-y,1/2+z
1/2+x,1/2-y,-z
1/2-x,1/2+y,1/2-z
1/2-x,1/2-y,-z
1/2+x,1/2+y,1/2-z
1/2-x,1/2+y,z
1/2+x,1/2-y,1/2+z
loop_
_atom_site_type_symbol
_atom_site_label
_atom_site_fract_x
_atom_site_fract_y
_atom_site_fract_z
Si Si1 0.628766 0.030447 0.936956
Si Si2 0.139300 0.559965 0.188422
Si Si3 0.149180 0.045671 0.826305
Si Si4 0.164405 0.076232 0.057322
Si Si5 0.500000 0.390931 0.750000
O O1 0.598090 0.986092 0.872845
O O2 0.725915 0.935490 0.941729
O O3 0.639523 0.231310 0.934276
O O4 0.589605 0.000000 0.000000
O O5 0.104851 0.493261 0.250000
O O6 0.133000 0.762646 0.191906
O O7 0.245753 0.505024 0.184768
O O8 0.132038 0.037293 0.892004
O O9 0.080503 0.916690 0.797567
O O10 0.129932 0.000000 0.000000
#
# Coordination Sequence:
#
# PCOD9469027 Si02
#       5
#    16  16  16  16   4
#     4  10  18  30  54  86 121 147 187 247 295 337
#     4  11  19  35  57  88 113 156 199 240 285 348
#     4  11  22  37  61  85 121 152 197 240 293 345
#     4  10  18  32  53  86 115 153 193 238 290 348
#     4  12  24  40  54  86 120 158 194 240 298 344
#
# _framework density 24.530956
#
# number of rings (size 3 to 8) (size 9 to 14) (size 15 to 20)
#    0.000    1.412    2.353    9.882    0.000    0.000 
#    2.118    0.588    0.000   11.294    0.000    3.294 
#    0.000    0.000    0.000    0.000    0.000    0.000 
#
# Total GULP energy -189279.623168 kJ/mol
# GULP energy per Si atom -5567.047740 kJ/mol
# Density = 2.447512 g / cm^3
# Si number density = 24.530956 Si / 1000 Ang^3
#
#
#
# Elastic Constant Matrix: (Units=GPa)
#
#
# Indices 1 2 3 4 5 6 
#
# 1 87.9355 -15.0699 30.3171 0.0000 0.0000 0.0000
# 2 -15.0699 102.3968 36.2381 0.0000 0.0000 0.0000
# 3 30.3171 36.2381 317.0232 0.0000 0.0000 0.0000
# 4 0.0000 0.0000 0.0000 35.3242 0.0000 0.0000
# 5 0.0000 0.0000 0.0000 0.0000 169.1250 0.0000
# 6 0.0000 0.0000 0.0000 0.0000 0.0000 -29.6038
#
#
#
# Elastic Compliance Matrix: (Units=1/GPa)
#
#
# Indices 1 2 3 4 5 6 
#
# 1 0.012264 0.002314 -0.001437 0.000000 0.000000 0.000000
# 2 0.002314 0.010614 -0.001435 0.000000 0.000000 0.000000
# 3 -0.001437 -0.001435 0.003456 0.000000 0.000000 0.000000
# 4 0.000000 0.000000 0.000000 0.028309 0.000000 0.000000
# 5 0.000000 0.000000 0.000000 0.000000 0.005913 0.000000
# 6 0.000000 0.000000 0.000000 0.000000 0.000000 -0.033779
#
#
# Mechanical properties :
#
#
# Convention : Reuss Voigt Hill
#
# Bulk Modulus (GPa) = 39.65518 67.81400 53.73459
# Shear Modulus (GPa) = 137.74630 65.36043 101.55336
#
# Velocity S-wave (km/s) = 7.50160 5.16739 6.44111
# Velocity P-wave (km/s) = 9.55156 7.95656 8.79031
#
# Compressibility (1/GPa) = 0.02521739
#
# Stress axis : x y z
#
# Youngs Moduli (GPa) = 81.53963 94.21438 289.37151
#
# Poissons Ratio (x) = -0.21797 0.41590
# Poissons Ratio (y) = -0.18865 0.41511
# Poissons Ratio (z) = 0.11719 0.13515
#
# Static dielectric constant tensor:
#      x y z
#    x 1.937190 0.000000 0.000000 
#    y 0.000000 1.900970 0.000000 
#    z 0.000000 0.000000 2.125690 
# 
# From -- ./inp_files/63508.got.cif
#   From: 2010.05.17/outbox.cif.g08.bks.cpg/sg63_32_cif.got.tgz:63508.got - 2010.06.03 15:47:04.
