data_PCOD9469660
_publ_section_title
;
Structure prediction by ZEFSAII (Michael W. Deem and Ramdas Pophale) SiO2 
 PCOD9469660
Probable space group: C M C M
;
_chemical_formula_sum "Si O2"
_cell_formula_units_Z 96
_cell_length_a 19.419604
_cell_length_b 33.619628
_cell_length_c 8.479162
_cell_angle_alpha 90.000000
_cell_angle_beta 90.000000
_cell_angle_gamma 90.000000
_cell_volume 5535.874120
_symmetry_space_group_name_H-M "C M C M"
_symmetry_group_IT_number 63
_symmetry_cell_setting 'orthorhombic'
loop_
_space_group_symop_operation_xyz
x,y,z
-x,-y,1/2+z
x,-y,-z
-x,y,1/2-z
-x,-y,-z
x,y,1/2-z
-x,y,z
x,-y,1/2+z
1/2+x,1/2+y,z
1/2-x,1/2-y,1/2+z
1/2+x,1/2-y,-z
1/2-x,1/2+y,1/2-z
1/2-x,1/2-y,-z
1/2+x,1/2+y,1/2-z
1/2-x,1/2+y,z
1/2+x,1/2-y,1/2+z
loop_
_atom_site_type_symbol
_atom_site_label
_atom_site_fract_x
_atom_site_fract_y
_atom_site_fract_z
Si Si1 0.649795 0.664214 0.061949
Si Si2 0.921935 0.667445 0.442568
Si Si3 0.920159 0.241365 0.939869
Si Si4 0.789200 0.621606 0.441940
Si Si5 0.211588 0.043750 0.061656
Si Si6 0.577687 0.413148 0.438430
O O1 0.644669 0.659725 0.250000
O O2 0.727229 0.651640 0.015030
O O3 0.628469 0.708229 0.013100
O O4 0.599353 0.631685 0.984568
O O5 0.922368 0.666811 0.250000
O O6 0.905484 0.713099 0.487338
O O7 0.862510 0.637768 0.497933
O O8 0.000000 0.658133 0.493691
O O9 0.915075 0.239258 0.750000
O O10 0.000000 0.232960 0.982059
O O11 0.791698 0.620755 0.250000
O O12 0.764583 0.577976 0.494885
O O13 0.213358 0.043439 0.250000
O O14 0.135809 0.058273 0.009573
O O15 0.226729 0.000000 0.000000
O O16 0.579543 0.416817 0.250000
O O17 0.500000 0.421564 0.493495
#
# Coordination Sequence:
#
# PCOD9469660 Si02
#       6
#    16  16  16  16  16  16
#     4  10  19  29  43  65  96 131 162 194 231 271
#     4   8  14  27  48  70  91 118 153 193 236 279
#     4   9  17  28  43  65  92 123 161 201 234 267
#     4   8  16  30  46  67  92 117 151 193 232 274
#     4  10  20  34  52  72  96 123 151 187 230 279
#     4  10  20  33  49  69  94 125 162 200 232 265
#
# _framework density 17.341435000000001
#
# number of rings (size 3 to 8) (size 9 to 14) (size 15 to 20)
#    0.000    2.833    0.000    4.000    0.000    4.667 
#    0.000    0.000    0.000    5.500    0.000    0.000 
#    0.000    0.000    0.000    0.000    0.000    0.667 
#
# Total GULP energy -267597.784595 kJ/mol
# GULP energy per Si atom -5574.953846 kJ/mol
# Density = 1.730196 g / cm^3
# Si number density = 17.341435 Si / 1000 Ang^3
#
#
#
# Elastic Constant Matrix: (Units=GPa)
#
#
# Indices 1 2 3 4 5 6 
#
# 1 115.3833 103.5385 18.2287 0.0000 0.0000 0.0000
# 2 103.5385 132.6847 19.9370 0.0000 0.0000 0.0000
# 3 18.2287 19.9370 20.3917 0.0000 0.0000 0.0000
# 4 0.0000 0.0000 0.0000 15.8892 0.0000 0.0000
# 5 0.0000 0.0000 0.0000 0.0000 11.4149 0.0000
# 6 0.0000 0.0000 0.0000 0.0000 0.0000 8.5950
#
#
#
# Elastic Compliance Matrix: (Units=1/GPa)
#
#
# Indices 1 2 3 4 5 6 
#
# 1 0.029258 -0.022156 -0.004493 0.000000 0.000000 0.000000
# 2 -0.022156 0.025612 -0.005235 0.000000 0.000000 0.000000
# 3 -0.004493 -0.005235 0.058174 0.000000 0.000000 0.000000
# 4 0.000000 0.000000 0.000000 0.062936 0.000000 0.000000
# 5 0.000000 0.000000 0.000000 0.000000 0.087605 0.000000
# 6 0.000000 0.000000 0.000000 0.000000 0.000000 0.116346
#
#
# Mechanical properties :
#
#
# Convention : Reuss Voigt Hill
#
# Bulk Modulus (GPa) = 20.29357 61.31868 40.80612
# Shear Modulus (GPa) = 10.86660 15.63021 13.24840
#
# Velocity S-wave (km/s) = 2.50597 3.00546 2.76701
# Velocity P-wave (km/s) = 4.48340 6.89058 5.81296
#
# Compressibility (1/GPa) = 0.04927670
#
# Stress axis : x y z
#
# Youngs Moduli (GPa) = 34.17852 39.04344 17.18970
#
# Poissons Ratio (x) = 0.86505 0.07723
# Poissons Ratio (y) = 0.75726 0.09000
# Poissons Ratio (z) = 0.15355 0.20441
#
# Static dielectric constant tensor:
#      x y z
#    x 1.589330 0.000000 0.000000 
#    y 0.000000 1.578120 0.000000 
#    z 0.000000 0.000000 1.593180 
# 
# From -- ./inp_files/8570.got.cif
#   From: 2010.05.17/outbox.cif.g08.bks.cpg/sg63_5_cif.got.tgz:8570.got - 2010.06.03 15:47:04.
