data_PCOD9469212
_publ_section_title
;
Structure prediction by ZEFSAII (Michael W. Deem and Ramdas Pophale) SiO2 
 PCOD9469212
Probable space group: C M C M
;
_chemical_formula_sum "Si O2"
_cell_formula_units_Z 60
_cell_length_a 32.220790
_cell_length_b 14.771734
_cell_length_c 5.495561
_cell_angle_alpha 90.000000
_cell_angle_beta 90.000000
_cell_angle_gamma 90.000000
_cell_volume 2615.650392
_symmetry_space_group_name_H-M "C M C M"
_symmetry_group_IT_number 63
_symmetry_cell_setting 'orthorhombic'
loop_
_space_group_symop_operation_xyz
x,y,z
-x,-y,1/2+z
x,-y,-z
-x,y,1/2-z
-x,-y,-z
x,y,1/2-z
-x,y,z
x,-y,1/2+z
1/2+x,1/2+y,z
1/2-x,1/2-y,1/2+z
1/2+x,1/2-y,-z
1/2-x,1/2+y,1/2-z
1/2-x,1/2-y,-z
1/2+x,1/2+y,1/2-z
1/2-x,1/2+y,z
1/2+x,1/2-y,1/2+z
loop_
_atom_site_type_symbol
_atom_site_label
_atom_site_fract_x
_atom_site_fract_y
_atom_site_fract_z
Si Si1 0.454276 0.939899 0.750000
Si Si2 0.863637 0.557878 0.250000
Si Si3 0.199432 0.809964 0.250000
Si Si4 0.909083 0.111139 0.250000
Si Si5 0.767804 0.443882 0.750000
Si Si6 0.212777 0.237095 0.250000
Si Si7 0.623336 0.403467 0.250000
Si Si8 0.000000 0.058530 0.250000
O O1 0.500000 0.892069 0.750000
O O2 0.454407 0.000000 0.500000
O O3 0.408730 0.891115 0.750000
O O4 0.865136 0.500000 0.500000
O O5 0.815673 0.590116 0.250000
O O6 0.188546 0.760192 0.500795
O O7 0.249525 0.808286 0.250000
O O8 0.173266 0.901862 0.250000
O O9 0.764544 0.139041 0.250000
O O10 0.891801 0.144634 0.505261
O O11 0.958218 0.115151 0.250000
O O12 0.762005 0.500000 0.500000
O O13 0.604781 0.495651 0.750000
O O14 0.000000 0.000000 0.500000
#
# Coordination Sequence:
#
# PCOD9469212 Si02
#       8
#     8   8   8   8   8   8   8   4
#     4   8  12  18  29  48  73 100 126 152 188 246
#     4   8  14  23  37  54  81 111 127 166 214 253
#     4  10  21  37  55  66  97 132 171 218 254 302
#     4  10  19  30  48  75 110 135 174 207 258 301
#     4  10  19  33  48  70  96 117 154 200 243 301
#     4  10  21  38  52  71  90 133 173 207 262 317
#     4  10  18  32  45  71  98 134 165 219 250 295
#     4  12  16  30  48  70 110 156 164 206 250 316
#
# _framework density 22.938846000000002
#
# number of rings (size 3 to 8) (size 9 to 14) (size 15 to 20)
#    0.000    2.400    2.667    1.600    0.000    0.000 
#   14.400    0.000    0.000    0.000    0.000    0.000 
#    6.000    0.000   21.333    0.000    0.000    0.000 
#
# Total GULP energy -167021.790957 kJ/mol
# GULP energy per Si atom -5567.393032 kJ/mol
# Density = 2.288664 g / cm^3
# Si number density = 22.938846 Si / 1000 Ang^3
#
#
#
# Elastic Constant Matrix: (Units=GPa)
#
#
# Indices 1 2 3 4 5 6 
#
# 1 125.6044 41.2739 44.5798 0.0000 0.0000 0.0000
# 2 41.2739 47.6569 23.3253 0.0000 0.0000 0.0000
# 3 44.5798 23.3253 246.2142 0.0000 0.0000 0.0000
# 4 0.0000 0.0000 0.0000 15.1118 0.0000 0.0000
# 5 0.0000 0.0000 0.0000 0.0000 39.8151 0.0000
# 6 0.0000 0.0000 0.0000 0.0000 0.0000 17.2746
#
#
#
# Elastic Compliance Matrix: (Units=1/GPa)
#
#
# Indices 1 2 3 4 5 6 
#
# 1 0.011451 -0.009335 -0.001189 0.000000 0.000000 0.000000
# 2 -0.009335 0.029614 -0.001115 0.000000 0.000000 0.000000
# 3 -0.001189 -0.001115 0.004382 0.000000 0.000000 0.000000
# 4 0.000000 0.000000 0.000000 0.066173 0.000000 0.000000
# 5 0.000000 0.000000 0.000000 0.000000 0.025116 0.000000
# 6 0.000000 0.000000 0.000000 0.000000 0.000000 0.057888
#
#
# Mechanical properties :
#
#
# Convention : Reuss Voigt Hill
#
# Bulk Modulus (GPa) = 45.10904 70.87036 57.98970
# Shear Modulus (GPa) = 22.19317 35.12675 28.65996
#
# Velocity S-wave (km/s) = 3.11383 3.91746 3.53853
# Velocity P-wave (km/s) = 5.71275 7.17108 6.48305
#
# Compressibility (1/GPa) = 0.02216851
#
# Stress axis : x y z
#
# Youngs Moduli (GPa) = 87.32745 33.76749 228.18393
#
# Poissons Ratio (x) = 0.31524 0.27130
# Poissons Ratio (y) = 0.81524 0.25448
# Poissons Ratio (z) = 0.10383 0.03766
#
# Static dielectric constant tensor:
#      x y z
#    x 1.876610 0.000000 0.000000 
#    y 0.000000 1.856630 0.000000 
#    z 0.000000 0.000000 1.946770 
# 
# From -- ./inp_files/1127.got.cif
#   From: 2010.05.17/outbox.cif.g08.bks.cpg/sg63_1_cif.got.tgz:1127.got - 2010.06.03 15:47:04.
