data_PCOD9469560
_publ_section_title
;
Structure prediction by ZEFSAII (Michael W. Deem and Ramdas Pophale) SiO2 
 PCOD9469560
Probable space group: C M C M
;
_chemical_formula_sum "Si O2"
_cell_formula_units_Z 88
_cell_length_a 13.292138
_cell_length_b 24.518903
_cell_length_c 11.276821
_cell_angle_alpha 90.000000
_cell_angle_beta 90.000000
_cell_angle_gamma 90.000000
_cell_volume 3675.213421
_symmetry_space_group_name_H-M "C M C M"
_symmetry_group_IT_number 63
_symmetry_cell_setting 'orthorhombic'
loop_
_space_group_symop_operation_xyz
x,y,z
-x,-y,1/2+z
x,-y,-z
-x,y,1/2-z
-x,-y,-z
x,y,1/2-z
-x,y,z
x,-y,1/2+z
1/2+x,1/2+y,z
1/2-x,1/2-y,1/2+z
1/2+x,1/2-y,-z
1/2-x,1/2+y,1/2-z
1/2-x,1/2-y,-z
1/2+x,1/2+y,1/2-z
1/2-x,1/2+y,z
1/2+x,1/2-y,1/2+z
loop_
_atom_site_type_symbol
_atom_site_label
_atom_site_fract_x
_atom_site_fract_y
_atom_site_fract_z
Si Si1 0.826667 0.800239 0.750000
Si Si2 0.656901 0.678281 0.505207
Si Si3 0.391000 0.164527 0.986041
Si Si4 0.175138 0.393560 0.250000
Si Si5 0.832033 0.797290 0.250000
Si Si6 0.889106 0.942523 0.935729
Si Si7 0.773552 0.479843 0.750000
Si Si8 0.859636 0.623119 0.250000
O O1 0.880086 0.801826 0.623186
O O2 0.751759 0.749386 0.750000
O O3 0.755631 0.853854 0.750000
O O4 0.778087 0.690009 0.512445
O O5 0.613171 0.704765 0.624077
O O6 0.637878 0.612826 0.506032
O O7 0.500000 0.192285 0.965393
O O8 0.396459 0.143005 0.121733
O O9 0.380446 0.123020 0.873163
O O10 0.274335 0.355307 0.250000
O O11 0.204794 0.456671 0.250000
O O12 0.000000 0.931211 0.880930
O O13 0.793758 0.958440 0.857790
O O14 0.902204 0.000000 0.000000
O O15 0.870246 0.441766 0.750000
#
# Coordination Sequence:
#
# PCOD9469560 Si02
#       8
#     8  16  16   8   8  16   8   8
#     4  10  18  36  62  86 116 161 212 250 302 368
#     4  10  20  38  59  90 117 162 201 255 304 357
#     4  10  19  37  58  84 119 157 198 244 293 359
#     4  10  23  35  59  88 120 165 194 258 304 371
#     4  10  20  35  60  89 119 159 204 252 316 361
#     4  11  22  37  62  90 121 162 204 251 312 376
#     4  12  21  39  61  83 125 156 202 246 312 358
#     4  10  21  35  61  88 110 161 199 250 295 352
#
# _framework density 23.944189000000001
#
# number of rings (size 3 to 8) (size 9 to 14) (size 15 to 20)
#    0.000    1.636    3.636    3.545    0.000    0.000 
#    0.000    4.091    0.000   26.182    0.000    0.000 
#    0.000    0.000    0.000    0.000    0.000    0.000 
#
# Total GULP energy -245030.547264 kJ/mol
# GULP energy per Si atom -5568.876074 kJ/mol
# Density = 2.388969 g / cm^3
# Si number density = 23.944189 Si / 1000 Ang^3
#
#
#
# Elastic Constant Matrix: (Units=GPa)
#
#
# Indices 1 2 3 4 5 6 
#
# 1 122.1815 21.0990 24.5749 0.0000 0.0000 0.0000
# 2 21.0990 141.6509 48.7865 0.0000 0.0000 0.0000
# 3 24.5749 48.7865 227.4406 0.0000 0.0000 0.0000
# 4 0.0000 0.0000 0.0000 29.7562 0.0000 0.0000
# 5 0.0000 0.0000 0.0000 0.0000 1675.4783 0.0000
# 6 0.0000 0.0000 0.0000 0.0000 0.0000 1.0232
#
#
#
# Elastic Compliance Matrix: (Units=1/GPa)
#
#
# Indices 1 2 3 4 5 6 
#
# 1 0.008502 -0.001026 -0.000699 0.000000 0.000000 0.000000
# 2 -0.001026 0.007747 -0.001551 0.000000 0.000000 0.000000
# 3 -0.000699 -0.001551 0.004805 0.000000 0.000000 0.000000
# 4 0.000000 0.000000 0.000000 0.033606 0.000000 0.000000
# 5 0.000000 0.000000 0.000000 0.000000 0.000597 0.000000
# 6 0.000000 0.000000 0.000000 0.000000 0.000000 0.977328
#
#
# Mechanical properties :
#
#
# Convention : Reuss Voigt Hill
#
# Bulk Modulus (GPa) = 68.95048 75.57708 72.26378
# Shear Modulus (GPa) = 4.78941 367.70571 186.24756
#
# Velocity S-wave (km/s) = 1.41583 12.40569 8.82909
# Velocity P-wave (km/s) = 5.61530 15.38941 11.58373
#
# Compressibility (1/GPa) = 0.01450316
#
# Stress axis : x y z
#
# Youngs Moduli (GPa) = 117.61656 129.09021 208.12126
#
# Poissons Ratio (x) = 0.13242 0.14540
# Poissons Ratio (y) = 0.12065 0.32276
# Poissons Ratio (z) = 0.08217 0.20019
#
# Static dielectric constant tensor:
#      x y z
#    x 1.939500 0.000000 0.000000 
#    y 0.000000 1.949060 0.000000 
#    z 0.000000 0.000000 2.002350 
# 
# From -- ./inp_files/19597.got.cif
#   From: 2010.05.17/outbox.cif.g08.bks.cpg/sg63_10_cif.got.tgz:19597.got - 2010.06.03 15:47:04.
