data_PCOD9469144
_publ_section_title
;
Structure prediction by ZEFSAII (Michael W. Deem and Ramdas Pophale) SiO2 
 PCOD9469144
Probable space group: C M C M
;
_chemical_formula_sum "Si O2"
_cell_formula_units_Z 64
_cell_length_a 7.494706
_cell_length_b 27.983603
_cell_length_c 13.837091
_cell_angle_alpha 90.000000
_cell_angle_beta 90.000000
_cell_angle_gamma 90.000000
_cell_volume 2902.037561
_symmetry_space_group_name_H-M "C M C M"
_symmetry_group_IT_number 63
_symmetry_cell_setting 'orthorhombic'
loop_
_space_group_symop_operation_xyz
x,y,z
-x,-y,1/2+z
x,-y,-z
-x,y,1/2-z
-x,-y,-z
x,y,1/2-z
-x,y,z
x,-y,1/2+z
1/2+x,1/2+y,z
1/2-x,1/2-y,1/2+z
1/2+x,1/2-y,-z
1/2-x,1/2+y,1/2-z
1/2-x,1/2-y,-z
1/2+x,1/2+y,1/2-z
1/2-x,1/2+y,z
1/2+x,1/2-y,1/2+z
loop_
_atom_site_type_symbol
_atom_site_label
_atom_site_fract_x
_atom_site_fract_y
_atom_site_fract_z
Si Si1 0.718381 0.810910 0.250000
Si Si2 0.781963 0.123839 0.359529
Si Si3 0.212368 0.418447 0.250000
Si Si4 0.288064 0.267734 0.605391
Si Si5 0.212767 0.052046 0.529756
O O1 0.500000 0.814175 0.250000
O O2 0.784821 0.864410 0.250000
O O3 0.779800 0.777566 0.163912
O O4 0.731256 0.107584 0.250000
O O5 0.721104 0.178989 0.372262
O O6 0.721830 0.091802 0.451506
O O7 0.000000 0.123745 0.361289
O O8 0.260198 0.439812 0.144645
O O9 0.000000 0.417627 0.250000
O O10 0.500000 0.270605 0.624363
O O11 0.250000 0.250000 0.500000
O O12 0.000000 0.051600 0.516110
O O13 0.283313 0.000000 0.500000
#
# Coordination Sequence:
#
# PCOD9469144 Si02
#       5
#     8  16   8  16  16
#     4   9  18  33  52  75 105 147 183 211 260 327
#     4   9  17  32  56  84 111 143 186 233 281 332
#     4  11  23  39  58  81 117 153 185 227 280 345
#     4  10  18  31  52  77 107 143 182 220 264 322
#     4  10  22  38  61  88 112 143 189 242 286 330
#
# _framework density 22.053471999999999
#
# number of rings (size 3 to 8) (size 9 to 14) (size 15 to 20)
#    0.000    2.250    1.250    1.875    1.750    0.500 
#    0.000    1.875    0.000    1.500    0.000    0.000 
#    0.000    0.000    0.000    0.000    0.000    0.000 
#
# Total GULP energy -178334.877524 kJ/mol
# GULP energy per Si atom -5572.964923 kJ/mol
# Density = 2.200328 g / cm^3
# Si number density = 22.053472 Si / 1000 Ang^3
#
#
#
# Elastic Constant Matrix: (Units=GPa)
#
#
# Indices 1 2 3 4 5 6 
#
# 1 59.9929 5.3964 -11.1475 0.0000 0.0000 0.0000
# 2 5.3964 178.7216 107.5843 0.0000 0.0000 0.0000
# 3 -11.1475 107.5843 225.0122 0.0000 0.0000 0.0000
# 4 0.0000 0.0000 0.0000 34.0198 0.0000 0.0000
# 5 0.0000 0.0000 0.0000 0.0000 8.0656 0.0000
# 6 0.0000 0.0000 0.0000 0.0000 0.0000 -6.4581
#
#
#
# Elastic Compliance Matrix: (Units=1/GPa)
#
#
# Indices 1 2 3 4 5 6 
#
# 1 0.017083 -0.001440 0.001535 0.000000 0.000000 0.000000
# 2 -0.001440 0.007978 -0.003886 0.000000 0.000000 0.000000
# 3 0.001535 -0.003886 0.006378 0.000000 0.000000 0.000000
# 4 0.000000 0.000000 0.000000 0.029395 0.000000 0.000000
# 5 0.000000 0.000000 0.000000 0.000000 0.123984 0.000000
# 6 0.000000 0.000000 0.000000 0.000000 0.000000 -0.154844
#
#
# Mechanical properties :
#
#
# Convention : Reuss Voigt Hill
#
# Bulk Modulus (GPa) = 41.91498 74.15479 58.03489
# Shear Modulus (GPa) = 109.87142 31.25168 70.56155
#
# Velocity S-wave (km/s) = 7.06602 3.76851 5.66261
# Velocity P-wave (km/s) = 9.25304 7.25490 8.31421
#
# Compressibility (1/GPa) = 0.02385782
#
# Stress axis : x y z
#
# Youngs Moduli (GPa) = 58.53675 125.34708 156.78619
#
# Poissons Ratio (x) = 0.18045 -0.24061
# Poissons Ratio (y) = 0.08427 0.60923
# Poissons Ratio (z) = -0.08983 0.48707
#
# Static dielectric constant tensor:
#      x y z
#    x 1.820690 0.000000 0.000000 
#    y 0.000000 1.800360 0.000000 
#    z 0.000000 0.000000 1.776410 
# 
# From -- ./inp_files/16208.got.cif
#   From: 2010.05.17/outbox.cif.g08.bks.cpg/sg63_9_cif.got.tgz:16208.got - 2010.06.03 15:47:04.
