data_PCOD9469497
_publ_section_title
;
Structure prediction by ZEFSAII (Michael W. Deem and Ramdas Pophale) SiO2 
 PCOD9469497
Probable space group: C M C M
;
_chemical_formula_sum "Si O2"
_cell_formula_units_Z 96
_cell_length_a 14.326817
_cell_length_b 16.754542
_cell_length_c 21.863810
_cell_angle_alpha 90.000000
_cell_angle_beta 90.000000
_cell_angle_gamma 90.000000
_cell_volume 5248.172711
_symmetry_space_group_name_H-M "C M C M"
_symmetry_group_IT_number 63
_symmetry_cell_setting 'orthorhombic'
loop_
_space_group_symop_operation_xyz
x,y,z
-x,-y,1/2+z
x,-y,-z
-x,y,1/2-z
-x,-y,-z
x,y,1/2-z
-x,y,z
x,-y,1/2+z
1/2+x,1/2+y,z
1/2-x,1/2-y,1/2+z
1/2+x,1/2-y,-z
1/2-x,1/2+y,1/2-z
1/2-x,1/2-y,-z
1/2+x,1/2+y,1/2-z
1/2-x,1/2+y,z
1/2+x,1/2-y,1/2+z
loop_
_atom_site_type_symbol
_atom_site_label
_atom_site_fract_x
_atom_site_fract_y
_atom_site_fract_z
Si Si1 0.785760 0.912330 0.490168
Si Si2 0.607754 0.232439 0.341095
Si Si3 0.272121 0.165343 0.860201
Si Si4 0.099995 0.643214 0.034857
Si Si5 0.387698 0.903002 0.750000
Si Si6 0.605262 0.722534 0.065644
Si Si7 0.614141 0.913609 0.250000
O O1 0.759503 0.886227 0.420373
O O2 0.688476 0.912435 0.528112
O O3 0.848920 0.844866 0.522714
O O4 0.827875 0.000000 0.500000
O O5 0.500000 0.249434 0.324899
O O6 0.676731 0.304693 0.329031
O O7 0.610970 0.208046 0.411834
O O8 0.638662 0.151797 0.307083
O O9 0.324532 0.246722 0.882327
O O10 0.340307 0.123600 0.811459
O O11 0.000000 0.601876 0.044320
O O12 0.097271 0.697003 0.974527
O O13 0.500000 0.907896 0.750000
O O14 0.356656 0.993350 0.750000
O O15 0.500000 0.700513 0.085274
O O16 0.500000 0.905934 0.250000
#
# Coordination Sequence:
#
# PCOD9469497 Si02
#       7
#    16  16  16  16   8  16   8
#     4  11  22  34  53  84 117 147 187 234 290 338
#     4  10  18  34  60  83 107 146 192 237 278 327
#     4  11  21  38  59  82 112 154 193 229 276 344
#     4   9  17  32  54  77 104 138 179 230 277 328
#     4   9  21  36  54  81 111 141 181 235 291 332
#     4  10  19  36  56  77 110 151 193 230 271 333
#     4  11  25  40  55  85 119 147 180 227 286 344
#
# _framework density 18.292079999999999
#
# number of rings (size 3 to 8) (size 9 to 14) (size 15 to 20)
#    0.000    1.833    3.333    2.000    2.333    1.333 
#    0.000    0.000    0.000    0.000    0.000    2.333 
#    0.000    0.000    0.000    0.000    0.000    0.000 
#
# Total GULP energy -267259.888116 kJ/mol
# GULP energy per Si atom -5567.914336 kJ/mol
# Density = 1.825045 g / cm^3
# Si number density = 18.292080 Si / 1000 Ang^3
#
#
#
# Elastic Constant Matrix: (Units=GPa)
#
#
# Indices 1 2 3 4 5 6 
#
# 1 94.7208 36.8106 30.9480 0.0000 0.0000 0.0000
# 2 36.8106 88.5021 29.6230 0.0000 0.0000 0.0000
# 3 30.9480 29.6230 55.0482 0.0000 0.0000 0.0000
# 4 0.0000 0.0000 0.0000 15.8959 0.0000 0.0000
# 5 0.0000 0.0000 0.0000 0.0000 25.2131 0.0000
# 6 0.0000 0.0000 0.0000 0.0000 0.0000 19.1239
#
#
#
# Elastic Compliance Matrix: (Units=1/GPa)
#
#
# Indices 1 2 3 4 5 6 
#
# 1 0.013943 -0.003873 -0.005754 0.000000 0.000000 0.000000
# 2 -0.003873 0.014857 -0.005818 0.000000 0.000000 0.000000
# 3 -0.005754 -0.005818 0.024532 0.000000 0.000000 0.000000
# 4 0.000000 0.000000 0.000000 0.062909 0.000000 0.000000
# 5 0.000000 0.000000 0.000000 0.000000 0.039662 0.000000
# 6 0.000000 0.000000 0.000000 0.000000 0.000000 0.052290
#
#
# Mechanical properties :
#
#
# Convention : Reuss Voigt Hill
#
# Bulk Modulus (GPa) = 44.56049 48.11492 46.33770
# Shear Modulus (GPa) = 20.27869 21.43921 20.85895
#
# Velocity S-wave (km/s) = 3.33318 3.42723 3.38054
# Velocity P-wave (km/s) = 6.26314 6.48244 6.37373
#
# Compressibility (1/GPa) = 0.02244141
#
# Stress axis : x y z
#
# Youngs Moduli (GPa) = 71.72262 67.30662 40.76366
#
# Poissons Ratio (x) = 0.26068 0.23457
# Poissons Ratio (y) = 0.27779 0.23715
# Poissons Ratio (z) = 0.41271 0.39157
#
# Static dielectric constant tensor:
#      x y z
#    x 1.695240 0.000000 0.000000 
#    y 0.000000 1.624870 0.000000 
#    z 0.000000 0.000000 1.742360 
# 
# From -- ./inp_files/62908.got.cif
#   From: 2010.05.17/outbox.cif.g08.bks.cpg/sg63_32_cif.got.tgz:62908.got - 2010.06.03 15:47:04.
