data_PCOD9469647
_publ_section_title
;
Structure prediction by ZEFSAII (Michael W. Deem and Ramdas Pophale) SiO2 
 PCOD9469647
Probable space group: C M C M
;
_chemical_formula_sum "Si O2"
_cell_formula_units_Z 88
_cell_length_a 20.343867
_cell_length_b 33.307880
_cell_length_c 8.983989
_cell_angle_alpha 90.000000
_cell_angle_beta 90.000000
_cell_angle_gamma 90.000000
_cell_volume 6087.650496
_symmetry_space_group_name_H-M "C M C M"
_symmetry_group_IT_number 63
_symmetry_cell_setting 'orthorhombic'
loop_
_space_group_symop_operation_xyz
x,y,z
-x,-y,1/2+z
x,-y,-z
-x,y,1/2-z
-x,-y,-z
x,y,1/2-z
-x,y,z
x,-y,1/2+z
1/2+x,1/2+y,z
1/2-x,1/2-y,1/2+z
1/2+x,1/2-y,-z
1/2-x,1/2+y,1/2-z
1/2-x,1/2-y,-z
1/2+x,1/2+y,1/2-z
1/2-x,1/2+y,z
1/2+x,1/2-y,1/2+z
loop_
_atom_site_type_symbol
_atom_site_label
_atom_site_fract_x
_atom_site_fract_y
_atom_site_fract_z
Si Si1 0.000000 0.956179 0.571796
Si Si2 0.222259 0.311733 0.921982
Si Si3 0.300478 0.379899 0.071713
Si Si4 0.426667 0.673995 0.928910
Si Si5 0.645711 0.455662 0.570783
Si Si6 0.353647 0.744114 0.078232
O O1 0.928347 0.939782 0.530032
O O2 0.000000 0.959287 0.750000
O O3 0.000000 0.000000 0.500000
O O4 0.208177 0.320620 0.750000
O O5 0.287295 0.283244 0.925646
O O6 0.242541 0.351549 0.010925
O O7 0.165255 0.285208 0.996130
O O8 0.297635 0.383118 0.250000
O O9 0.368284 0.356489 0.030136
O O10 0.304516 0.423330 0.996294
O O11 0.425540 0.677212 0.750000
O O12 0.500000 0.661261 0.975508
O O13 0.407975 0.716960 0.998134
O O14 0.653012 0.500000 0.500000
O O15 0.650487 0.458059 0.750000
O O16 0.370182 0.751166 0.250000
#
# Coordination Sequence:
#
# PCOD9469647 Si02
#       6
#     8  16  16  16  16  16
#     4   8  16  28  40  52  66  88 120 156 192 234
#     4   9  16  27  42  58  76  98 125 157 194 235
#     4  10  19  29  42  59  78 100 129 167 204 239
#     4   9  18  30  41  56  79 106 133 161 197 239
#     4  10  19  31  43  56  73  97 128 163 203 245
#     4   9  16  26  41  59  77  98 125 158 194 232
#
# _framework density 14.455496
#
# number of rings (size 3 to 8) (size 9 to 14) (size 15 to 20)
#    0.000    2.727    0.000    2.182    1.273    6.182 
#    0.000    0.000    0.000    0.000    0.000    0.000 
#    0.000    0.000    0.000    0.000    0.000    0.909 
#
# Total GULP energy -245003.136718 kJ/mol
# GULP energy per Si atom -5568.253107 kJ/mol
# Density = 1.442259 g / cm^3
# Si number density = 14.455496 Si / 1000 Ang^3
#
#
#
# Elastic Constant Matrix: (Units=GPa)
#
#
# Indices 1 2 3 4 5 6 
#
# 1 10.7989 16.8987 7.2394 0.0000 0.0000 0.0000
# 2 16.8987 92.2830 40.2858 0.0000 0.0000 0.0000
# 3 7.2394 40.2858 39.9377 0.0000 0.0000 0.0000
# 4 0.0000 0.0000 0.0000 22.4846 0.0000 0.0000
# 5 0.0000 0.0000 0.0000 0.0000 14.5234 0.0000
# 6 0.0000 0.0000 0.0000 0.0000 0.0000 23.1977
#
#
#
# Elastic Compliance Matrix: (Units=1/GPa)
#
#
# Indices 1 2 3 4 5 6 
#
# 1 0.129809 -0.024120 0.000800 0.000000 0.000000 0.000000
# 2 -0.024120 0.023844 -0.019680 0.000000 0.000000 0.000000
# 3 0.000800 -0.019680 0.044745 0.000000 0.000000 0.000000
# 4 0.000000 0.000000 0.000000 0.044475 0.000000 0.000000
# 5 0.000000 0.000000 0.000000 0.000000 0.068854 0.000000
# 6 0.000000 0.000000 0.000000 0.000000 0.000000 0.043108
#
#
# Mechanical properties :
#
#
# Convention : Reuss Voigt Hill
#
# Bulk Modulus (GPa) = 8.89684 30.20749 19.55217
# Shear Modulus (GPa) = 10.45365 17.28087 13.86726
#
# Velocity S-wave (km/s) = 2.69208 3.46128 3.10063
# Velocity P-wave (km/s) = 3.97883 6.07587 5.13553
#
# Compressibility (1/GPa) = 0.11239942
#
# Stress axis : x y z
#
# Youngs Moduli (GPa) = 7.70360 41.93907 22.34867
#
# Poissons Ratio (x) = 1.01155 -0.01787
# Poissons Ratio (y) = 0.18581 0.43982
# Poissons Ratio (z) = -0.00616 0.82535
#
# Static dielectric constant tensor:
#      x y z
#    x 1.473310 0.000000 0.000000 
#    y 0.000000 1.470210 0.000000 
#    z 0.000000 0.000000 1.477830 
# 
# From -- ./inp_files/6906.got.cif
#   From: 2010.05.17/outbox.cif.g08.bks.cpg/sg63_4_cif.got.tgz:6906.got - 2010.06.03 15:47:04.
