data_PCOD9469974
_publ_section_title
;
Structure prediction by ZEFSAII (Michael W. Deem and Ramdas Pophale) SiO2 
 PCOD9469974
Probable space group: C M C M
;
_chemical_formula_sum "Si O2"
_cell_formula_units_Z 116
_cell_length_a 25.861027
_cell_length_b 29.728340
_cell_length_c 7.496572
_cell_angle_alpha 90.000000
_cell_angle_beta 90.000000
_cell_angle_gamma 90.000000
_cell_volume 5763.405061
_symmetry_space_group_name_H-M "C M C M"
_symmetry_group_IT_number 63
_symmetry_cell_setting 'orthorhombic'
loop_
_space_group_symop_operation_xyz
x,y,z
-x,-y,1/2+z
x,-y,-z
-x,y,1/2-z
-x,-y,-z
x,y,1/2-z
-x,y,z
x,-y,1/2+z
1/2+x,1/2+y,z
1/2-x,1/2-y,1/2+z
1/2+x,1/2-y,-z
1/2-x,1/2+y,1/2-z
1/2-x,1/2-y,-z
1/2+x,1/2+y,1/2-z
1/2-x,1/2+y,z
1/2+x,1/2-y,1/2+z
loop_
_atom_site_type_symbol
_atom_site_label
_atom_site_fract_x
_atom_site_fract_y
_atom_site_fract_z
Si Si1 0.912160 0.854347 0.033286
Si Si2 0.254938 0.551615 0.536353
Si Si3 0.656462 0.103208 0.543554
Si Si4 0.557590 0.052380 0.536014
Si Si5 0.691259 0.298961 0.035240
Si Si6 0.809255 0.697572 0.043877
Si Si7 0.500000 0.330369 0.750000
Si Si8 0.128084 0.948832 0.037162
O O1 0.921375 0.850509 0.250000
O O2 0.856309 0.831516 0.995787
O O3 0.907520 0.907286 0.982170
O O4 0.954952 0.832511 0.908303
O O5 0.240266 0.500000 0.500000
O O6 0.258653 0.558788 0.750000
O O7 0.209528 0.583166 0.464651
O O8 0.313310 0.557449 0.465335
O O9 0.656903 0.088502 0.750000
O O10 0.604245 0.082658 0.464929
O O11 0.659658 0.156751 0.539551
O O12 0.555124 0.058264 0.750000
O O13 0.500000 0.062405 0.465606
O O14 0.568642 0.000000 0.500000
O O15 0.695723 0.297385 0.250000
O O16 0.682418 0.247762 0.969831
O O17 0.747998 0.312810 0.970316
O O18 0.823983 0.698831 0.250000
O O19 0.131334 0.945068 0.250000
O O20 0.111178 0.000000 0.000000
#
# Coordination Sequence:
#
# PCOD9469974 Si02
#       8
#    16  16  16  16  16  16   4  16
#     4  10  22  42  64  84 119 155 191 242 293 333
#     4   9  17  29  45  72 104 142 182 218 274 341
#     4  10  19  31  47  70 110 148 176 224 283 337
#     4   9  18  32  50  70  96 139 191 235 278 323
#     4   9  19  38  60  83 115 151 178 223 286 343
#     4  10  20  32  55  89 116 139 181 225 277 343
#     4  12  26  40  66  94 110 148 210 246 268 342
#     4   9  18  32  54  78 109 146 181 225 286 344
#
# _framework density 20.126992000000001
#
# number of rings (size 3 to 8) (size 9 to 14) (size 15 to 20)
#    0.000    2.483    0.000    1.862    1.931    3.862 
#    0.000    0.345    1.517    0.000    0.000    0.000 
#    0.000    0.000    0.000    0.000    0.000    0.000 
#
# Total GULP energy -322980.025038 kJ/mol
# GULP energy per Si atom -5568.621121 kJ/mol
# Density = 2.008118 g / cm^3
# Si number density = 20.126992 Si / 1000 Ang^3
#
#
#
# Elastic Constant Matrix: (Units=GPa)
#
#
# Indices 1 2 3 4 5 6 
#
# 1 28.0060 20.5725 6.7873 0.0000 0.0000 0.0000
# 2 20.5725 50.2196 -5.0867 0.0000 0.0000 0.0000
# 3 6.7873 -5.0867 65.9582 0.0000 0.0000 0.0000
# 4 0.0000 0.0000 0.0000 20.3020 0.0000 0.0000
# 5 0.0000 0.0000 0.0000 0.0000 1.3947 0.0000
# 6 0.0000 0.0000 0.0000 0.0000 0.0000 19.8377
#
#
#
# Elastic Compliance Matrix: (Units=1/GPa)
#
#
# Indices 1 2 3 4 5 6 
#
# 1 0.054419 -0.023040 -0.007377 0.000000 0.000000 0.000000
# 2 -0.023040 0.029824 0.004671 0.000000 0.000000 0.000000
# 3 -0.007377 0.004671 0.016280 0.000000 0.000000 0.000000
# 4 0.000000 0.000000 0.000000 0.049256 0.000000 0.000000
# 5 0.000000 0.000000 0.000000 0.000000 0.717008 0.000000
# 6 0.000000 0.000000 0.000000 0.000000 0.000000 0.050409
#
#
# Mechanical properties :
#
#
# Convention : Reuss Voigt Hill
#
# Bulk Modulus (GPa) = 20.39489 20.96999 20.68244
# Shear Modulus (GPa) = 5.07597 16.43424 10.75511
#
# Velocity S-wave (km/s) = 1.58980 2.86059 2.31414
# Velocity P-wave (km/s) = 3.67764 4.62084 4.17595
#
# Compressibility (1/GPa) = 0.04903189
#
# Stress axis : x y z
#
# Youngs Moduli (GPa) = 18.37592 33.53003 61.42345
#
# Poissons Ratio (x) = 0.77253 0.45310
# Poissons Ratio (y) = 0.42338 -0.28690
# Poissons Ratio (z) = 0.13555 -0.15662
#
# Static dielectric constant tensor:
#      x y z
#    x 1.709290 0.000000 0.000000 
#    y 0.000000 1.718370 0.000000 
#    z 0.000000 0.000000 1.768640 
# 
# From -- ./inp_files/11216.got.cif
#   From: 2010.05.17/outbox.cif.g08.bks.cpg/sg63_6_cif.got.tgz:11216.got - 2010.06.03 15:47:04.
