data_PCOD9469780
_publ_section_title
;
Structure prediction by ZEFSAII (Michael W. Deem and Ramdas Pophale) SiO2 
 PCOD9469780
Probable space group: C M C M
;
_chemical_formula_sum "Si O2"
_cell_formula_units_Z 104
_cell_length_a 29.044717
_cell_length_b 28.243124
_cell_length_c 9.376269
_cell_angle_alpha 90.000000
_cell_angle_beta 90.000000
_cell_angle_gamma 90.000000
_cell_volume 7691.480451
_symmetry_space_group_name_H-M "C M C M"
_symmetry_group_IT_number 63
_symmetry_cell_setting 'orthorhombic'
loop_
_space_group_symop_operation_xyz
x,y,z
-x,-y,1/2+z
x,-y,-z
-x,y,1/2-z
-x,-y,-z
x,y,1/2-z
-x,y,z
x,-y,1/2+z
1/2+x,1/2+y,z
1/2-x,1/2-y,1/2+z
1/2+x,1/2-y,-z
1/2-x,1/2+y,1/2-z
1/2-x,1/2-y,-z
1/2+x,1/2+y,1/2-z
1/2-x,1/2+y,z
1/2+x,1/2-y,1/2+z
loop_
_atom_site_type_symbol
_atom_site_label
_atom_site_fract_x
_atom_site_fract_y
_atom_site_fract_z
Si Si1 0.178543 0.950335 0.083335
Si Si2 0.785182 0.284762 0.580648
Si Si3 0.209737 0.140560 0.417589
Si Si4 0.000000 0.952325 0.913834
Si Si5 0.358335 0.270105 0.579339
Si Si6 0.424062 0.591254 0.593352
Si Si7 0.445352 0.298185 0.412653
O O1 0.190882 0.956098 0.250000
O O2 0.125690 0.931983 0.078507
O O3 0.204994 0.906617 0.009808
O O4 0.183211 0.000000 0.000000
O O5 0.787729 0.274334 0.750000
O O6 0.750000 0.250000 0.500000
O O7 0.759844 0.335157 0.565398
O O8 0.832777 0.272578 0.503216
O O9 0.202860 0.129628 0.250000
O O10 0.171205 0.181315 0.453556
O O11 0.000000 0.961374 0.750000
O O12 0.955377 0.924573 0.964188
O O13 0.000000 0.000000 0.000000
O O14 0.356091 0.264239 0.750000
O O15 0.410250 0.273969 0.521756
O O16 0.442477 0.576111 0.750000
O O17 0.427196 0.647767 0.592884
O O18 0.440821 0.279430 0.250000
O O19 0.500000 0.297743 0.448739
#
# Coordination Sequence:
#
# PCOD9469780 Si02
#       7
#    16  16  16   8  16  16  16
#     4  11  22  33  47  62  81 109 140 176 218 262
#     4   9  17  29  46  68  89 109 134 169 213 259
#     4   9  18  31  46  65  87 108 136 174 213 257
#     4  12  24  34  46  58  70  94 128 176 226 268
#     4  10  19  30  46  67  89 111 138 175 215 261
#     4  10  20  35  48  60  76 100 136 178 222 264
#     4  10  19  32  48  63  83 111 143 179 221 266
#
# _framework density 13.521454
#
# number of rings (size 3 to 8) (size 9 to 14) (size 15 to 20)
#    0.000    2.000    2.308    3.462    0.000    6.462 
#    0.000    0.000    0.000    0.000    0.000    0.000 
#    0.000    0.000    0.000    0.000    0.000    0.769 
#
# Total GULP energy -289591.573355 kJ/mol
# GULP energy per Si atom -5569.068718 kJ/mol
# Density = 1.349068 g / cm^3
# Si number density = 13.521454 Si / 1000 Ang^3
#
#
#
# Elastic Constant Matrix: (Units=GPa)
#
#
# Indices 1 2 3 4 5 6 
#
# 1 60.2633 39.1349 49.2016 0.0000 0.0000 0.0000
# 2 39.1349 52.8767 49.6139 0.0000 0.0000 0.0000
# 3 49.2016 49.6139 107.9584 0.0000 0.0000 0.0000
# 4 0.0000 0.0000 0.0000 22.0793 0.0000 0.0000
# 5 0.0000 0.0000 0.0000 0.0000 13.9709 0.0000
# 6 0.0000 0.0000 0.0000 0.0000 0.0000 20.4371
#
#
#
# Elastic Compliance Matrix: (Units=1/GPa)
#
#
# Indices 1 2 3 4 5 6 
#
# 1 0.034768 -0.019102 -0.007067 0.000000 0.000000 0.000000
# 2 -0.019102 0.043744 -0.011398 0.000000 0.000000 0.000000
# 3 -0.007067 -0.011398 0.017722 0.000000 0.000000 0.000000
# 4 0.000000 0.000000 0.000000 0.045291 0.000000 0.000000
# 5 0.000000 0.000000 0.000000 0.000000 0.071577 0.000000
# 6 0.000000 0.000000 0.000000 0.000000 0.000000 0.048931
#
#
# Mechanical properties :
#
#
# Convention : Reuss Voigt Hill
#
# Bulk Modulus (GPa) = 47.39118 55.22214 51.30666
# Shear Modulus (GPa) = 14.52649 16.84066 15.68358
#
# Velocity S-wave (km/s) = 3.28125 3.53296 3.40943
# Velocity P-wave (km/s) = 7.03423 7.58759 7.31614
#
# Compressibility (1/GPa) = 0.02110097
#
# Stress axis : x y z
#
# Youngs Moduli (GPa) = 28.76188 22.86051 56.42846
#
# Poissons Ratio (x) = 0.43667 0.39878
# Poissons Ratio (y) = 0.54940 0.64315
# Poissons Ratio (z) = 0.20326 0.26055
#
# Static dielectric constant tensor:
#      x y z
#    x 1.465080 0.000000 0.000000 
#    y 0.000000 1.453840 0.000000 
#    z 0.000000 0.000000 1.457810 
# 
# From -- ./inp_files/13115.got.cif
#   From: 2010.05.17/outbox.cif.g08.bks.cpg/sg63_7_cif.got.tgz:13115.got - 2010.06.03 15:47:04.
