data_PCOD9469312
_publ_section_title
;
Structure prediction by ZEFSAII (Michael W. Deem and Ramdas Pophale) SiO2 
 PCOD9469312
Probable space group: C M C M
;
_chemical_formula_sum "Si O2"
_cell_formula_units_Z 96
_cell_length_a 7.716820
_cell_length_b 26.311629
_cell_length_c 24.406978
_cell_angle_alpha 90.000000
_cell_angle_beta 90.000000
_cell_angle_gamma 90.000000
_cell_volume 4955.644187
_symmetry_space_group_name_H-M "C M C M"
_symmetry_group_IT_number 63
_symmetry_cell_setting 'orthorhombic'
loop_
_space_group_symop_operation_xyz
x,y,z
-x,-y,1/2+z
x,-y,-z
-x,y,1/2-z
-x,-y,-z
x,y,1/2-z
-x,y,z
x,-y,1/2+z
1/2+x,1/2+y,z
1/2-x,1/2-y,1/2+z
1/2+x,1/2-y,-z
1/2-x,1/2+y,1/2-z
1/2-x,1/2-y,-z
1/2+x,1/2+y,1/2-z
1/2-x,1/2+y,z
1/2+x,1/2-y,1/2+z
loop_
_atom_site_type_symbol
_atom_site_label
_atom_site_fract_x
_atom_site_fract_y
_atom_site_fract_z
Si Si1 0.207492 0.346563 0.615260
Si Si2 0.293919 0.652965 0.878957
Si Si3 0.288554 0.556922 0.687091
Si Si4 0.206531 0.690034 0.998613
Si Si5 0.712535 0.751473 0.687046
Si Si6 0.291430 0.441720 0.688151
O O1 0.274596 0.336788 0.553879
O O2 0.271576 0.301438 0.654719
O O3 0.243021 0.400284 0.643328
O O4 0.000000 0.341013 0.612449
O O5 0.500000 0.651953 0.869491
O O6 0.225981 0.599904 0.854745
O O7 0.227141 0.701208 0.844634
O O8 0.267682 0.664007 0.942776
O O9 0.241634 0.569837 0.750000
O O10 0.500000 0.555954 0.685356
O O11 0.230663 0.499165 0.675870
O O12 0.000000 0.686320 0.998644
O O13 0.250000 0.750000 0.000000
O O14 0.766997 0.751798 0.750000
O O15 0.500000 0.751464 0.686537
O O16 0.230704 0.427878 0.750000
O O17 0.500000 0.443199 0.690176
#
# Coordination Sequence:
#
# PCOD9469312 Si02
#       6
#    16  16  16  16  16  16
#     4  10  20  34  51  73 101 136 177 211 249 305
#     4  10  18  32  54  79 103 133 172 212 258 305
#     4   8  15  30  54  81 107 136 172 212 254 307
#     4  11  22  37  54  74 102 138 177 216 256 304
#     4   9  16  27  47  75 102 126 161 208 252 303
#     4   9  18  33  53  79 108 136 169 212 260 304
#
# _framework density 19.371852000000001
#
# number of rings (size 3 to 8) (size 9 to 14) (size 15 to 20)
#    0.000    2.500    1.667    2.500    0.000    4.333 
#    0.000    1.667    0.000    8.000    0.000    0.000 
#    0.000    0.000    0.000    0.000    0.000    0.000 
#
# Total GULP energy -267840.483965 kJ/mol
# GULP energy per Si atom -5580.010083 kJ/mol
# Density = 1.932776 g / cm^3
# Si number density = 19.371852 Si / 1000 Ang^3
#
#
#
# Elastic Constant Matrix: (Units=GPa)
#
#
# Indices 1 2 3 4 5 6 
#
# 1 21.6018 -2.4215 -8.4596 0.0000 0.0000 0.0000
# 2 -2.4215 161.3491 119.0957 0.0000 0.0000 0.0000
# 3 -8.4596 119.0957 185.0713 0.0000 0.0000 0.0000
# 4 0.0000 0.0000 0.0000 27.8527 0.0000 0.0000
# 5 0.0000 0.0000 0.0000 0.0000 19.6996 0.0000
# 6 0.0000 0.0000 0.0000 0.0000 0.0000 15.7666
#
#
#
# Elastic Compliance Matrix: (Units=1/GPa)
#
#
# Indices 1 2 3 4 5 6 
#
# 1 0.047377 -0.001690 0.003253 0.000000 0.000000 0.000000
# 2 -0.001690 0.011865 -0.007713 0.000000 0.000000 0.000000
# 3 0.003253 -0.007713 0.010515 0.000000 0.000000 0.000000
# 4 0.000000 0.000000 0.000000 0.035903 0.000000 0.000000
# 5 0.000000 0.000000 0.000000 0.000000 0.050762 0.000000
# 6 0.000000 0.000000 0.000000 0.000000 0.000000 0.063425
#
#
# Mechanical properties :
#
#
# Convention : Reuss Voigt Hill
#
# Bulk Modulus (GPa) = 17.40398 64.93905 41.17152
# Shear Modulus (GPa) = 19.89647 29.98428 24.94037
#
# Velocity S-wave (km/s) = 3.20829 3.93851 3.59200
# Velocity P-wave (km/s) = 4.76737 7.36734 6.20506
#
# Compressibility (1/GPa) = 0.05745812
#
# Stress axis : x y z
#
# Youngs Moduli (GPa) = 21.10729 84.27902 95.09961
#
# Poissons Ratio (x) = 0.14246 -0.30939
# Poissons Ratio (y) = 0.03568 0.73348
# Poissons Ratio (z) = -0.06867 0.65002
#
# Static dielectric constant tensor:
#      x y z
#    x 1.737870 0.000000 0.000000 
#    y 0.000000 1.662460 0.000000 
#    z 0.000000 0.000000 1.646680 
# 
# From -- ./inp_files/53072.got.cif
#   From: 2010.05.17/outbox.cif.g08.bks.cpg/sg63_27_cif.got.tgz:53072.got - 2010.06.03 15:47:04.
