data_PCOD9469551
_publ_section_title
;
Structure prediction by ZEFSAII (Michael W. Deem and Ramdas Pophale) SiO2 
 PCOD9469551
Probable space group: C M C M
;
_chemical_formula_sum "Si O2"
_cell_formula_units_Z 60
_cell_length_a 32.210429
_cell_length_b 7.091807
_cell_length_c 10.301541
_cell_angle_alpha 90.000000
_cell_angle_beta 90.000000
_cell_angle_gamma 90.000000
_cell_volume 2353.182513
_symmetry_space_group_name_H-M "C M C M"
_symmetry_group_IT_number 63
_symmetry_cell_setting 'orthorhombic'
loop_
_space_group_symop_operation_xyz
x,y,z
-x,-y,1/2+z
x,-y,-z
-x,y,1/2-z
-x,-y,-z
x,y,1/2-z
-x,y,z
x,-y,1/2+z
1/2+x,1/2+y,z
1/2-x,1/2-y,1/2+z
1/2+x,1/2-y,-z
1/2-x,1/2+y,1/2-z
1/2-x,1/2-y,-z
1/2+x,1/2+y,1/2-z
1/2-x,1/2+y,z
1/2+x,1/2-y,1/2+z
loop_
_atom_site_type_symbol
_atom_site_label
_atom_site_fract_x
_atom_site_fract_y
_atom_site_fract_z
Si Si1 0.000000 0.234246 0.027712
Si Si2 0.402272 0.355255 0.250000
Si Si3 0.282445 0.858374 0.750000
Si Si4 0.341477 0.222132 0.472017
Si Si5 0.951897 0.189114 0.250000
Si Si6 0.187657 0.211414 0.250000
Si Si7 0.000000 0.739355 0.250000
O O1 0.040808 0.281708 0.112140
O O2 0.000000 0.340538 0.894229
O O3 0.000000 0.000000 0.000000
O O4 0.378538 0.289331 0.378132
O O5 0.410067 0.578517 0.250000
O O6 0.450758 0.301190 0.250000
O O7 0.300561 0.762331 0.619955
O O8 0.233370 0.877772 0.750000
O O9 0.302829 0.064885 0.750000
O O10 0.334031 0.322591 0.610441
O O11 0.348149 0.000000 0.500000
O O12 0.000000 0.091695 0.250000
#
# Coordination Sequence:
#
# PCOD9469551 Si02
#       7
#     8   8   8  16   8   8   4
#     4   9  13  29  49  77  93 129 201 213 265 329
#     4  11  18  33  56  74 106 143 187 228 278 334
#     4   9  18  34  64  82 108 149 189 227 282 345
#     4   9  20  35  55  81 108 147 182 228 288 337
#     4   8  17  29  54  73  96 138 182 225 262 335
#     4  10  18  36  59  86 110 151 188 228 279 350
#     4  12  18  32  62  76  98 154 196 230 268 340
#
# _framework density 25.497384
#
# number of rings (size 3 to 8) (size 9 to 14) (size 15 to 20)
#    0.800    1.600    3.333    1.600    0.000    0.000 
#    0.000    4.667   23.467    0.000    0.000    0.000 
#    0.000    0.000    0.000    0.000    0.000    0.000 
#
# Total GULP energy -167157.950295 kJ/mol
# GULP energy per Si atom -5571.931676 kJ/mol
# Density = 2.543935 g / cm^3
# Si number density = 25.497384 Si / 1000 Ang^3
#
#
#
# Elastic Constant Matrix: (Units=GPa)
#
#
# Indices 1 2 3 4 5 6 
#
# 1 146.9864 45.9511 66.5637 0.0000 0.0000 0.0000
# 2 45.9511 61.9708 27.4969 0.0000 0.0000 0.0000
# 3 66.5637 27.4969 204.8602 0.0000 0.0000 0.0000
# 4 0.0000 0.0000 0.0000 12.6278 0.0000 0.0000
# 5 0.0000 0.0000 0.0000 0.0000 25.0796 0.0000
# 6 0.0000 0.0000 0.0000 0.0000 0.0000 35.3564
#
#
#
# Elastic Compliance Matrix: (Units=1/GPa)
#
#
# Indices 1 2 3 4 5 6 
#
# 1 0.009819 -0.006236 -0.002353 0.000000 0.000000 0.000000
# 2 -0.006236 0.021120 -0.000808 0.000000 0.000000 0.000000
# 3 -0.002353 -0.000808 0.005755 0.000000 0.000000 0.000000
# 4 0.000000 0.000000 0.000000 0.079190 0.000000 0.000000
# 5 0.000000 0.000000 0.000000 0.000000 0.039873 0.000000
# 6 0.000000 0.000000 0.000000 0.000000 0.000000 0.028283
#
#
# Mechanical properties :
#
#
# Convention : Reuss Voigt Hill
#
# Bulk Modulus (GPa) = 55.87609 77.09341 66.48475
# Shear Modulus (GPa) = 23.94628 32.86650 28.40639
#
# Velocity S-wave (km/s) = 3.06791 3.59418 3.34142
# Velocity P-wave (km/s) = 5.87464 6.89388 6.40457
#
# Compressibility (1/GPa) = 0.01789674
#
# Stress axis : x y z
#
# Youngs Moduli (GPa) = 101.84714 47.34956 173.77696
#
# Poissons Ratio (x) = 0.29529 0.40894
# Poissons Ratio (y) = 0.63515 0.14048
# Poissons Ratio (z) = 0.23967 0.03828
#
# Static dielectric constant tensor:
#      x y z
#    x 2.019370 0.000000 0.000000 
#    y 0.000000 2.306610 0.000000 
#    z 0.000000 0.000000 2.132210 
# 
# From -- ./inp_files/25456.got.cif
#   From: 2010.05.17/outbox.cif.g08.bks.cpg/sg63_13_cif.got.tgz:25456.got - 2010.06.03 15:47:04.
