data_PCOD9469377
_publ_section_title
;
Structure prediction by ZEFSAII (Michael W. Deem and Ramdas Pophale) SiO2 
 PCOD9469377
Probable space group: C M C M
;
_chemical_formula_sum "Si O2"
_cell_formula_units_Z 72
_cell_length_a 13.488973
_cell_length_b 21.656816
_cell_length_c 12.783008
_cell_angle_alpha 90.000000
_cell_angle_beta 90.000000
_cell_angle_gamma 90.000000
_cell_volume 3734.277198
_symmetry_space_group_name_H-M "C M C M"
_symmetry_group_IT_number 63
_symmetry_cell_setting 'orthorhombic'
loop_
_space_group_symop_operation_xyz
x,y,z
-x,-y,1/2+z
x,-y,-z
-x,y,1/2-z
-x,-y,-z
x,y,1/2-z
-x,y,z
x,-y,1/2+z
1/2+x,1/2+y,z
1/2-x,1/2-y,1/2+z
1/2+x,1/2-y,-z
1/2-x,1/2+y,1/2-z
1/2-x,1/2-y,-z
1/2+x,1/2+y,1/2-z
1/2-x,1/2+y,z
1/2+x,1/2-y,1/2+z
loop_
_atom_site_type_symbol
_atom_site_label
_atom_site_fract_x
_atom_site_fract_y
_atom_site_fract_z
Si Si1 0.000000 0.168825 0.092508
Si Si2 0.500000 0.188677 0.868335
Si Si3 0.118425 0.960457 0.133922
Si Si4 0.500000 0.723317 0.633700
Si Si5 0.686951 0.406570 0.578553
Si Si6 0.668313 0.198231 0.465172
O O1 0.903712 0.132103 0.124135
O O2 0.000000 0.237045 0.136108
O O3 0.000000 0.177229 0.965366
O O4 0.500000 0.163620 0.750000
O O5 0.401428 0.176406 0.937657
O O6 0.128747 0.934811 0.250000
O O7 0.000000 0.972061 0.115051
O O8 0.177786 0.025234 0.125945
O O9 0.162364 0.917772 0.044048
O O10 0.500000 0.696692 0.750000
O O11 0.595452 0.766376 0.613964
O O12 0.780866 0.362086 0.583922
O O13 0.750000 0.250000 0.500000
#
# Coordination Sequence:
#
# PCOD9469377 Si02
#       6
#     8   8  16   8  16  16
#     4  10  18  33  52  80 112 147 172 216 268 316
#     4  10  22  36  51  80 114 142 181 223 262 317
#     4  10  21  33  52  81 109 141 178 219 267 315
#     4  10  22  36  51  80 114 142 181 223 262 317
#     4  11  18  36  54  75 114 145 174 214 263 325
#     4  10  20  37  55  79 109 145 180 217 273 320
#
# _framework density 19.280839
#
# number of rings (size 3 to 8) (size 9 to 14) (size 15 to 20)
#    0.000    2.000    6.667    0.667    0.000    4.444 
#    0.000    0.000    0.000   10.667    0.000   12.444 
#    0.000    0.000    0.000    0.000    0.000    0.000 
#
# Total GULP energy -200757.126297 kJ/mol
# GULP energy per Si atom -5576.586842 kJ/mol
# Density = 1.923696 g / cm^3
# Si number density = 19.280839 Si / 1000 Ang^3
#
#
#
# Elastic Constant Matrix: (Units=GPa)
#
#
# Indices 1 2 3 4 5 6 
#
# 1 97.9000 24.5296 4.5434 0.0000 0.0000 0.0000
# 2 24.5296 63.6098 -20.5459 0.0000 0.0000 0.0000
# 3 4.5434 -20.5459 102.2013 0.0000 0.0000 0.0000
# 4 0.0000 0.0000 0.0000 -19.2346 0.0000 0.0000
# 5 0.0000 0.0000 0.0000 0.0000 8.2385 0.0000
# 6 0.0000 0.0000 0.0000 0.0000 0.0000 29.6135
#
#
#
# Elastic Compliance Matrix: (Units=1/GPa)
#
#
# Indices 1 2 3 4 5 6 
#
# 1 0.011519 -0.004927 -0.001503 0.000000 0.000000 0.000000
# 2 -0.004927 0.018920 0.004023 0.000000 0.000000 0.000000
# 3 -0.001503 0.004023 0.010660 0.000000 0.000000 0.000000
# 4 0.000000 0.000000 0.000000 -0.051990 0.000000 0.000000
# 5 0.000000 0.000000 0.000000 0.000000 0.121381 0.000000
# 6 0.000000 0.000000 0.000000 0.000000 0.000000 0.033768
#
#
# Mechanical properties :
#
#
# Convention : Reuss Voigt Hill
#
# Bulk Modulus (GPa) = 27.55989 31.19614 29.37802
# Shear Modulus (GPa) = 31.02345 20.73576 25.87961
#
# Velocity S-wave (km/s) = 4.01562 3.28298 3.66764
# Velocity P-wave (km/s) = 5.98542 5.53042 5.76241
#
# Compressibility (1/GPa) = 0.03628461
#
# Stress axis : x y z
#
# Youngs Moduli (GPa) = 86.81461 52.85349 93.80777
#
# Poissons Ratio (x) = 0.26042 0.14096
# Poissons Ratio (y) = 0.42776 -0.37736
# Poissons Ratio (z) = 0.13045 -0.21261
#
# Static dielectric constant tensor:
#      x y z
#    x 1.660600 0.000000 0.000000 
#    y 0.000000 1.647520 0.000000 
#    z 0.000000 0.000000 1.723860 
# 
# From -- ./inp_files/29655.got.cif
#   From: 2010.05.17/outbox.cif.g08.bks.cpg/sg63_15_cif.got.tgz:29655.got - 2010.06.03 15:47:04.
