data_PCOD9469092
_publ_section_title
;
Structure prediction by ZEFSAII (Michael W. Deem and Ramdas Pophale) SiO2 
 PCOD9469092
Probable space group: C M C M
;
_chemical_formula_sum "Si O2"
_cell_formula_units_Z 96
_cell_length_a 7.491371
_cell_length_b 23.932724
_cell_length_c 26.763755
_cell_angle_alpha 90.000000
_cell_angle_beta 90.000000
_cell_angle_gamma 90.000000
_cell_volume 4798.444583
_symmetry_space_group_name_H-M "C M C M"
_symmetry_group_IT_number 63
_symmetry_cell_setting 'orthorhombic'
loop_
_space_group_symop_operation_xyz
x,y,z
-x,-y,1/2+z
x,-y,-z
-x,y,1/2-z
-x,-y,-z
x,y,1/2-z
-x,y,z
x,-y,1/2+z
1/2+x,1/2+y,z
1/2-x,1/2-y,1/2+z
1/2+x,1/2-y,-z
1/2-x,1/2+y,1/2-z
1/2-x,1/2-y,-z
1/2+x,1/2+y,1/2-z
1/2-x,1/2+y,z
1/2+x,1/2-y,1/2+z
loop_
_atom_site_type_symbol
_atom_site_label
_atom_site_fract_x
_atom_site_fract_y
_atom_site_fract_z
Si Si1 0.296487 0.631134 0.901315
Si Si2 0.281669 0.817635 0.807297
Si Si3 0.781781 0.188716 0.807104
Si Si4 0.787454 0.249217 0.058337
Si Si5 0.788456 0.062585 0.503959
Si Si6 0.299786 0.871283 0.596432
O O1 0.500000 0.611264 0.893920
O O2 0.216100 0.642235 0.846401
O O3 0.296591 0.694727 0.920586
O O4 0.215952 0.595577 0.947233
O O5 0.230788 0.829410 0.750000
O O6 0.500000 0.817785 0.809324
O O7 0.226393 0.753140 0.818626
O O8 0.217075 0.862635 0.848298
O O9 0.730725 0.177429 0.750000
O O10 0.000000 0.188851 0.809281
O O11 0.702749 0.193012 0.079026
O O12 0.000000 0.248677 0.067399
O O13 0.750000 0.250000 0.000000
O O14 0.772020 0.094543 0.451003
O O15 0.000000 0.058599 0.512745
O O16 0.715200 0.000000 0.500000
O O17 0.500000 0.892577 0.603347
#
# Coordination Sequence:
#
# PCOD9469092 Si02
#       6
#    16  16  16  16  16  16
#     4  10  18  31  51  72  97 131 167 205 248 300
#     4   8  14  25  44  73 105 131 158 196 242 295
#     4   8  13  23  43  72 101 127 160 200 239 288
#     4  12  22  31  46  73 106 135 161 197 248 307
#     4  10  22  37  51  69  98 136 173 214 264 305
#     4  11  20  32  53  77 101 132 169 209 248 297
#
# _framework density 20.006484
#
# number of rings (size 3 to 8) (size 9 to 14) (size 15 to 20)
#    0.000    2.167    3.333    3.000    0.000    0.333 
#    0.000    0.000    0.000    4.500    0.000    2.333 
#    0.000    0.000    0.000    0.000    0.000    0.000 
#
# Total GULP energy -267363.334267 kJ/mol
# GULP energy per Si atom -5570.069464 kJ/mol
# Density = 1.996095 g / cm^3
# Si number density = 20.006484 Si / 1000 Ang^3
#
#
#
# Elastic Constant Matrix: (Units=GPa)
#
#
# Indices 1 2 3 4 5 6 
#
# 1 69.7962 -2.8308 0.7349 0.0000 0.0000 0.0000
# 2 -2.8308 94.9312 63.9047 0.0000 0.0000 0.0000
# 3 0.7349 63.9047 185.5737 0.0000 0.0000 0.0000
# 4 0.0000 0.0000 0.0000 9.8125 0.0000 0.0000
# 5 0.0000 0.0000 0.0000 0.0000 8.7905 0.0000
# 6 0.0000 0.0000 0.0000 0.0000 0.0000 122.2582
#
#
#
# Elastic Compliance Matrix: (Units=1/GPa)
#
#
# Indices 1 2 3 4 5 6 
#
# 1 0.014355 0.000607 -0.000266 0.000000 0.000000 0.000000
# 2 0.000607 0.013738 -0.004733 0.000000 0.000000 0.000000
# 3 -0.000266 -0.004733 0.007020 0.000000 0.000000 0.000000
# 4 0.000000 0.000000 0.000000 0.101910 0.000000 0.000000
# 5 0.000000 0.000000 0.000000 0.000000 0.113759 0.000000
# 6 0.000000 0.000000 0.000000 0.000000 0.000000 0.008179
#
#
# Mechanical properties :
#
#
# Convention : Reuss Voigt Hill
#
# Bulk Modulus (GPa) = 37.98160 52.65763 45.31962
# Shear Modulus (GPa) = 18.08170 47.40507 32.74339
#
# Velocity S-wave (km/s) = 3.00958 4.87302 4.04993
# Velocity P-wave (km/s) = 5.57697 7.61834 6.67614
#
# Compressibility (1/GPa) = 0.02632853
#
# Stress axis : x y z
#
# Youngs Moduli (GPa) = 69.66285 72.78856 142.45509
#
# Poissons Ratio (x) = -0.04419 0.03788
# Poissons Ratio (y) = -0.04229 0.67430
# Poissons Ratio (z) = 0.01852 0.34454
#
# Static dielectric constant tensor:
#      x y z
#    x 1.796750 0.000000 0.000000 
#    y 0.000000 1.681970 0.000000 
#    z 0.000000 0.000000 1.822260 
# 
# From -- ./inp_files/67241.got.cif
#   From: 2010.05.17/outbox.cif.g08.bks.cpg/sg63_34_cif.got.tgz:67241.got - 2010.06.03 15:47:04.
