data_PCOD9469599
_publ_section_title
;
Structure prediction by ZEFSAII (Michael W. Deem and Ramdas Pophale) SiO2 
 PCOD9469599
Probable space group: C M C M
;
_chemical_formula_sum "Si O2"
_cell_formula_units_Z 92
_cell_length_a 16.077378
_cell_length_b 20.872744
_cell_length_c 15.173330
_cell_angle_alpha 90.000000
_cell_angle_beta 90.000000
_cell_angle_gamma 90.000000
_cell_volume 5091.850835
_symmetry_space_group_name_H-M "C M C M"
_symmetry_group_IT_number 63
_symmetry_cell_setting 'orthorhombic'
loop_
_space_group_symop_operation_xyz
x,y,z
-x,-y,1/2+z
x,-y,-z
-x,y,1/2-z
-x,-y,-z
x,y,1/2-z
-x,y,z
x,-y,1/2+z
1/2+x,1/2+y,z
1/2-x,1/2-y,1/2+z
1/2+x,1/2-y,-z
1/2-x,1/2+y,1/2-z
1/2-x,1/2-y,-z
1/2+x,1/2+y,1/2-z
1/2-x,1/2+y,z
1/2+x,1/2-y,1/2+z
loop_
_atom_site_type_symbol
_atom_site_label
_atom_site_fract_x
_atom_site_fract_y
_atom_site_fract_z
Si Si1 0.592951 0.640940 0.250000
Si Si2 0.903281 0.217259 0.066746
Si Si3 0.189689 0.468112 0.412159
Si Si4 0.899899 0.656314 0.650606
Si Si5 0.404268 0.413000 0.250000
Si Si6 0.500000 0.500000 0.000000
Si Si7 0.273096 0.470301 0.750000
Si Si8 0.360778 0.605901 0.942753
O O1 0.500000 0.608786 0.250000
O O2 0.596634 0.683748 0.337253
O O3 0.669707 0.592279 0.250000
O O4 0.870298 0.288840 0.083105
O O5 0.000000 0.220533 0.037726
O O6 0.858022 0.169619 0.000643
O O7 0.154655 0.500000 0.500000
O O8 0.129744 0.414308 0.372965
O O9 0.217708 0.518448 0.336950
O O10 0.273318 0.430313 0.439792
O O11 0.870480 0.670935 0.750000
O O12 0.000000 0.659953 0.650801
O O13 0.500000 0.435225 0.250000
O O14 0.341393 0.472655 0.250000
O O15 0.386936 0.378142 0.157938
O O16 0.427648 0.555338 0.981609
#
# Coordination Sequence:
#
# PCOD9469599 Si02
#       8
#     8  16  16  16   8   4   8  16
#     4  10  19  27  50  84 118 149 186 227 284 340
#     4  10  19  34  55  83 112 149 196 239 278 336
#     4  11  22  37  57  83 114 146 189 239 298 348
#     4  10  21  41  63  82 107 144 195 253 305 341
#     4  10  19  30  45  71 110 160 193 211 262 327
#     4  12  20  34  52  84 126 166 194 222 270 342
#     4  10  21  31  48  79 114 149 179 232 277 340
#     4  11  22  33  53  83 122 160 192 228 272 345
#
# _framework density 18.068086999999998
#
# number of rings (size 3 to 8) (size 9 to 14) (size 15 to 20)
#    0.000    1.565    4.348    1.304    2.435    1.043 
#    0.000    0.000    0.000    1.043    0.000    1.217 
#    0.000    0.000    0.000    0.000    0.000    0.000 
#
# Total GULP energy -256119.218896 kJ/mol
# GULP energy per Si atom -5567.809106 kJ/mol
# Density = 1.802696 g / cm^3
# Si number density = 18.068087 Si / 1000 Ang^3
#
#
#
# Elastic Constant Matrix: (Units=GPa)
#
#
# Indices 1 2 3 4 5 6 
#
# 1 5.8387 5.7952 -1.2429 0.0000 0.0000 0.0000
# 2 5.7952 64.8287 23.5170 0.0000 0.0000 0.0000
# 3 -1.2429 23.5170 68.2850 0.0000 0.0000 0.0000
# 4 0.0000 0.0000 0.0000 31.7357 0.0000 0.0000
# 5 0.0000 0.0000 0.0000 0.0000 10.5259 0.0000
# 6 0.0000 0.0000 0.0000 0.0000 0.0000 15.2460
#
#
#
# Elastic Compliance Matrix: (Units=1/GPa)
#
#
# Indices 1 2 3 4 5 6 
#
# 1 0.194805 -0.021370 0.010905 0.000000 0.000000 0.000000
# 2 -0.021370 0.019972 -0.007267 0.000000 0.000000 0.000000
# 3 0.010905 -0.007267 0.017346 0.000000 0.000000 0.000000
# 4 0.000000 0.000000 0.000000 0.031510 0.000000 0.000000
# 5 0.000000 0.000000 0.000000 0.000000 0.095003 0.000000
# 6 0.000000 0.000000 0.000000 0.000000 0.000000 0.065591
#
#
# Mechanical properties :
#
#
# Convention : Reuss Voigt Hill
#
# Bulk Modulus (GPa) = 5.08496 21.67678 13.38087
# Shear Modulus (GPa) = 9.51940 18.89373 14.20656
#
# Velocity S-wave (km/s) = 2.29784 3.23723 2.80711
# Velocity P-wave (km/s) = 3.14015 5.09865 4.23419
#
# Compressibility (1/GPa) = 0.19665853
#
# Stress axis : x y z
#
# Youngs Moduli (GPa) = 5.13335 50.07054 57.65091
#
# Poissons Ratio (x) = 1.07001 -0.62871
# Poissons Ratio (y) = 0.10970 0.41896
# Poissons Ratio (z) = -0.05598 0.36387
#
# Static dielectric constant tensor:
#      x y z
#    x 1.620760 0.000000 0.000000 
#    y 0.000000 1.611060 0.000000 
#    z 0.000000 0.000000 1.664150 
# 
# From -- ./inp_files/34163.got.cif
#   From: 2010.05.17/outbox.cif.g08.bks.cpg/sg63_18_cif.got.tgz:34163.got - 2010.06.03 15:47:04.
