data_PCOD9469213
_publ_section_title
;
Structure prediction by ZEFSAII (Michael W. Deem and Ramdas Pophale) SiO2 
 PCOD9469213
Probable space group: C M C M
;
_chemical_formula_sum "Si O2"
_cell_formula_units_Z 80
_cell_length_a 19.833350
_cell_length_b 34.056531
_cell_length_c 8.715998
_cell_angle_alpha 90.000000
_cell_angle_beta 90.000000
_cell_angle_gamma 90.000000
_cell_volume 5887.265293
_symmetry_space_group_name_H-M "C M C M"
_symmetry_group_IT_number 63
_symmetry_cell_setting 'orthorhombic'
loop_
_space_group_symop_operation_xyz
x,y,z
-x,-y,1/2+z
x,-y,-z
-x,y,1/2-z
-x,-y,-z
x,y,1/2-z
-x,y,z
x,-y,1/2+z
1/2+x,1/2+y,z
1/2-x,1/2-y,1/2+z
1/2+x,1/2-y,-z
1/2-x,1/2+y,1/2-z
1/2-x,1/2-y,-z
1/2+x,1/2+y,1/2-z
1/2-x,1/2+y,z
1/2+x,1/2-y,1/2+z
loop_
_atom_site_type_symbol
_atom_site_label
_atom_site_fract_x
_atom_site_fract_y
_atom_site_fract_z
Si Si1 0.648657 0.768516 0.934383
Si Si2 0.578827 0.457160 0.566307
Si Si3 0.500000 0.751927 0.564038
Si Si4 0.773474 0.189263 0.934506
Si Si5 0.000000 0.164429 0.066560
Si Si6 0.630811 0.620869 0.934444
O O1 0.652437 0.770036 0.750000
O O2 0.570473 0.772373 0.978776
O O3 0.677106 0.725399 0.982043
O O4 0.700273 0.800094 0.001531
O O5 0.595003 0.500000 0.500000
O O6 0.582847 0.457602 0.750000
O O7 0.500000 0.448801 0.524489
O O8 0.625351 0.422924 0.499316
O O9 0.500000 0.746863 0.750000
O O10 0.500000 0.709276 0.487620
O O11 0.770955 0.189906 0.750000
O O12 0.805676 0.147831 0.981644
O O13 0.000000 0.161101 0.250000
O O14 0.065523 0.143450 0.998026
O O15 0.628089 0.619846 0.750000
#
# Coordination Sequence:
#
# PCOD9469213 Si02
#       6
#    16  16   8  16   8  16
#     4   9  17  29  44  60  81 109 140 177 214 253
#     4  10  20  32  45  64  86 110 141 176 214 252
#     4  10  18  32  46  59  81 112 145 177 220 260
#     4   9  18  30  43  60  82 110 140 173 215 255
#     4  12  22  28  39  63  84 106 144 185 216 250
#     4  11  20  32  47  60  82 114 143 178 218 255
#
# _framework density 13.588652
#
# number of rings (size 3 to 8) (size 9 to 14) (size 15 to 20)
#    0.000    2.000    3.000    2.100    0.000    3.200 
#    0.000    0.000    0.000    0.000    0.000    0.000 
#    0.000    0.000    0.000    0.900    0.000   11.600 
#
# Total GULP energy -223061.779393 kJ/mol
# GULP energy per Si atom -5576.544485 kJ/mol
# Density = 1.355772 g / cm^3
# Si number density = 13.588652 Si / 1000 Ang^3
#
#
#
# Elastic Constant Matrix: (Units=GPa)
#
#
# Indices 1 2 3 4 5 6 
#
# 1 103.0876 58.4498 25.3661 0.0000 0.0000 0.0000
# 2 58.4498 104.7556 31.7616 0.0000 0.0000 0.0000
# 3 25.3661 31.7616 29.5218 0.0000 0.0000 0.0000
# 4 0.0000 0.0000 0.0000 21.9036 0.0000 0.0000
# 5 0.0000 0.0000 0.0000 0.0000 19.0448 0.0000
# 6 0.0000 0.0000 0.0000 0.0000 0.0000 24.8726
#
#
#
# Elastic Compliance Matrix: (Units=1/GPa)
#
#
# Indices 1 2 3 4 5 6 
#
# 1 0.014807 -0.006536 -0.005690 0.000000 0.000000 0.000000
# 2 -0.006536 0.017053 -0.012730 0.000000 0.000000 0.000000
# 3 -0.005690 -0.012730 0.052459 0.000000 0.000000 0.000000
# 4 0.000000 0.000000 0.000000 0.045655 0.000000 0.000000
# 5 0.000000 0.000000 0.000000 0.000000 0.052508 0.000000
# 6 0.000000 0.000000 0.000000 0.000000 0.000000 0.040205
#
#
# Mechanical properties :
#
#
# Convention : Reuss Voigt Hill
#
# Bulk Modulus (GPa) = 29.06599 52.05777 40.56188
# Shear Modulus (GPa) = 17.60145 21.28338 19.44241
#
# Velocity S-wave (km/s) = 3.60294 3.96190 3.78667
# Velocity P-wave (km/s) = 6.22451 7.70206 7.00237
#
# Compressibility (1/GPa) = 0.03440447
#
# Stress axis : x y z
#
# Youngs Moduli (GPa) = 67.53709 58.64095 19.06259
#
# Poissons Ratio (x) = 0.38330 0.10847
# Poissons Ratio (y) = 0.44145 0.24268
# Poissons Ratio (z) = 0.38429 0.74653
#
# Static dielectric constant tensor:
#      x y z
#    x 1.443670 0.000000 0.000000 
#    y 0.000000 1.440250 0.000000 
#    z 0.000000 0.000000 1.457710 
# 
# From -- ./inp_files/8933.got.cif
#   From: 2010.05.17/outbox.cif.g08.bks.cpg/sg63_5_cif.got.tgz:8933.got - 2010.06.03 15:47:04.
