data_PCOD9469446
_publ_section_title
;
Structure prediction by ZEFSAII (Michael W. Deem and Ramdas Pophale) SiO2 
 PCOD9469446
Probable space group: C M C M
;
_chemical_formula_sum "Si O2"
_cell_formula_units_Z 80
_cell_length_a 18.606750
_cell_length_b 8.725799
_cell_length_c 24.691449
_cell_angle_alpha 90.000000
_cell_angle_beta 90.000000
_cell_angle_gamma 90.000000
_cell_volume 4008.873056
_symmetry_space_group_name_H-M "C M C M"
_symmetry_group_IT_number 63
_symmetry_cell_setting 'orthorhombic'
loop_
_space_group_symop_operation_xyz
x,y,z
-x,-y,1/2+z
x,-y,-z
-x,y,1/2-z
-x,-y,-z
x,y,1/2-z
-x,y,z
x,-y,1/2+z
1/2+x,1/2+y,z
1/2-x,1/2-y,1/2+z
1/2+x,1/2-y,-z
1/2-x,1/2+y,1/2-z
1/2-x,1/2-y,-z
1/2+x,1/2+y,1/2-z
1/2-x,1/2+y,z
1/2+x,1/2-y,1/2+z
loop_
_atom_site_type_symbol
_atom_site_label
_atom_site_fract_x
_atom_site_fract_y
_atom_site_fract_z
Si Si1 0.080547 0.468407 0.652101
Si Si2 0.684951 0.720723 0.612717
Si Si3 0.313611 0.783989 0.189141
Si Si4 0.179266 0.889022 0.917484
Si Si5 0.081495 0.639124 0.537028
O O1 0.135288 0.567593 0.687827
O O2 0.077094 0.565511 0.596577
O O3 0.000000 0.453709 0.673984
O O4 0.116460 0.308182 0.635555
O O5 0.736839 0.671744 0.662852
O O6 0.736949 0.838863 0.580500
O O7 0.669902 0.569417 0.578548
O O8 0.307246 0.725147 0.250000
O O9 0.341912 0.662518 0.144373
O O10 0.132831 0.784640 0.957412
O O11 0.108323 0.500000 0.500000
O O12 0.000000 0.679067 0.519128
#
# Coordination Sequence:
#
# PCOD9469446 Si02
#       5
#    16  16  16  16  16
#     4  10  20  35  56  80 110 142 176 225 270 314
#     4  10  18  34  52  78 112 136 182 217 266 321
#     4   9  18  34  55  77 104 142 179 213 261 322
#     4   9  18  32  52  75 107 138 179 220 261 315
#     4   9  18  35  56  77 105 144 183 219 270 326
#
# _framework density 19.955734
#
# number of rings (size 3 to 8) (size 9 to 14) (size 15 to 20)
#    1.200    1.400    2.000    0.000    0.000    4.400 
#    0.000    5.000    0.000    3.600    0.000    2.800 
#    0.000    0.000    0.000    0.000    0.000    0.000 
#
# Total GULP energy -222802.963188 kJ/mol
# GULP energy per Si atom -5570.074080 kJ/mol
# Density = 1.991031 g / cm^3
# Si number density = 19.955734 Si / 1000 Ang^3
#
#
#
# Elastic Constant Matrix: (Units=GPa)
#
#
# Indices 1 2 3 4 5 6 
#
# 1 94.8766 34.3697 2.7471 0.0000 0.0000 0.0000
# 2 34.3697 82.3959 3.0644 0.0000 0.0000 0.0000
# 3 2.7471 3.0644 50.7488 0.0000 0.0000 0.0000
# 4 0.0000 0.0000 0.0000 16.1649 0.0000 0.0000
# 5 0.0000 0.0000 0.0000 0.0000 -504.6934 0.0000
# 6 0.0000 0.0000 0.0000 0.0000 0.0000 24.1082
#
#
#
# Elastic Compliance Matrix: (Units=1/GPa)
#
#
# Indices 1 2 3 4 5 6 
#
# 1 0.012423 -0.005168 -0.000360 0.000000 0.000000 0.000000
# 2 -0.005168 0.014314 -0.000585 0.000000 0.000000 0.000000
# 3 -0.000360 -0.000585 0.019760 0.000000 0.000000 0.000000
# 4 0.000000 0.000000 0.000000 0.061862 0.000000 0.000000
# 5 0.000000 0.000000 0.000000 0.000000 -0.001981 0.000000
# 6 0.000000 0.000000 0.000000 0.000000 0.000000 0.041480
#
#
# Mechanical properties :
#
#
# Convention : Reuss Voigt Hill
#
# Bulk Modulus (GPa) = 29.18019 34.26485 31.72252
# Shear Modulus (GPa) = 29.15327 -80.36137 -25.60405
#
# Velocity S-wave (km/s) = 3.82631 -6.35273 -3.58584
# Velocity P-wave (km/s) = 5.84595 6.04995 1.10155
#
# Compressibility (1/GPa) = 0.03426982
#
# Stress axis : x y z
#
# Youngs Moduli (GPa) = 80.49746 69.86076 50.60804
#
# Poissons Ratio (x) = 0.36107 0.01824
# Poissons Ratio (y) = 0.41605 0.02958
# Poissons Ratio (z) = 0.02901 0.04084
#
# Static dielectric constant tensor:
#      x y z
#    x 1.728910 0.000000 0.000000 
#    y 0.000000 1.699400 0.000000 
#    z 0.000000 0.000000 1.746740 
# 
# From -- ./inp_files/69765.got.cif
#   From: 2010.05.17/outbox.cif.g08.bks.cpg/sg63_35_cif.got.tgz:69765.got - 2010.06.03 15:47:04.
