data_PCOD9469811
_publ_section_title
;
Structure prediction by ZEFSAII (Michael W. Deem and Ramdas Pophale) SiO2 
 PCOD9469811
Probable space group: C M C M
;
_chemical_formula_sum "Si O2"
_cell_formula_units_Z 96
_cell_length_a 8.611424
_cell_length_b 28.153123
_cell_length_c 23.502129
_cell_angle_alpha 90.000000
_cell_angle_beta 90.000000
_cell_angle_gamma 90.000000
_cell_volume 5697.820410
_symmetry_space_group_name_H-M "C M C M"
_symmetry_group_IT_number 63
_symmetry_cell_setting 'orthorhombic'
loop_
_space_group_symop_operation_xyz
x,y,z
-x,-y,1/2+z
x,-y,-z
-x,y,1/2-z
-x,-y,-z
x,y,1/2-z
-x,y,z
x,-y,1/2+z
1/2+x,1/2+y,z
1/2-x,1/2-y,1/2+z
1/2+x,1/2-y,-z
1/2-x,1/2+y,1/2-z
1/2-x,1/2-y,-z
1/2+x,1/2+y,1/2-z
1/2-x,1/2+y,z
1/2+x,1/2-y,1/2+z
loop_
_atom_site_type_symbol
_atom_site_label
_atom_site_fract_x
_atom_site_fract_y
_atom_site_fract_z
Si Si1 0.313790 0.508531 0.750000
Si Si2 0.315116 0.394973 0.950231
Si Si3 0.188175 0.119537 0.750000
Si Si4 0.314543 0.035497 0.134224
Si Si5 0.311809 0.642088 0.626119
Si Si6 0.315411 0.053979 0.558630
Si Si7 0.186728 0.801081 0.016403
O O1 0.500000 0.509491 0.750000
O O2 0.259583 0.564073 0.750000
O O3 0.256018 0.481255 0.693885
O O4 0.500000 0.393813 0.944492
O O5 0.242168 0.414935 0.892373
O O6 0.269449 0.430987 0.001050
O O7 0.261678 0.343388 0.973573
O O8 0.233429 0.146103 0.808013
O O9 0.000000 0.117696 0.750000
O O10 0.500000 0.035668 0.139155
O O11 0.270323 0.995231 0.087871
O O12 0.500000 0.636107 0.622852
O O13 0.230944 0.594681 0.603182
O O14 0.269733 0.682672 0.580588
O O15 0.500000 0.053411 0.547842
O O16 0.000000 0.799959 0.014135
O O17 0.250000 0.750000 0.000000
#
# Coordination Sequence:
#
# PCOD9469811 Si02
#       7
#     8  16   8  16  16  16  16
#     4  11  21  33  53  74  99 146 185 208 245 298
#     4  10  21  35  52  74  98 131 174 214 253 308
#     4   9  16  29  51  74 101 134 171 206 243 294
#     4  11  22  34  48  72 107 140 172 212 254 297
#     4   9  17  31  50  75 102 133 171 210 250 307
#     4  10  19  30  46  72 105 137 166 204 254 301
#     4   9  19  34  54  77 101 127 165 216 270 318
#
# _framework density 16.848547
#
# number of rings (size 3 to 8) (size 9 to 14) (size 15 to 20)
#    0.000    2.167    1.667    3.250    0.000    7.333 
#    0.000    0.417    0.000    1.000    0.000    3.500 
#    0.000    0.000    0.000    0.000    0.000    0.000 
#
# Total GULP energy -267632.581641 kJ/mol
# GULP energy per Si atom -5575.678784 kJ/mol
# Density = 1.681020 g / cm^3
# Si number density = 16.848547 Si / 1000 Ang^3
#
#
#
# Elastic Constant Matrix: (Units=GPa)
#
#
# Indices 1 2 3 4 5 6 
#
# 1 17.7724 28.7773 20.2669 0.0000 0.0000 0.0000
# 2 28.7773 113.8520 85.0767 0.0000 0.0000 0.0000
# 3 20.2669 85.0767 95.9943 0.0000 0.0000 0.0000
# 4 0.0000 0.0000 0.0000 12.7831 0.0000 0.0000
# 5 0.0000 0.0000 0.0000 0.0000 17.0107 0.0000
# 6 0.0000 0.0000 0.0000 0.0000 0.0000 23.0052
#
#
#
# Elastic Compliance Matrix: (Units=1/GPa)
#
#
# Indices 1 2 3 4 5 6 
#
# 1 0.095681 -0.026913 0.003651 0.000000 0.000000 0.000000
# 2 -0.026913 0.033577 -0.024076 0.000000 0.000000 0.000000
# 3 0.003651 -0.024076 0.030984 0.000000 0.000000 0.000000
# 4 0.000000 0.000000 0.000000 0.078229 0.000000 0.000000
# 5 0.000000 0.000000 0.000000 0.000000 0.058787 0.000000
# 6 0.000000 0.000000 0.000000 0.000000 0.000000 0.043468
#
#
# Mechanical properties :
#
#
# Convention : Reuss Voigt Hill
#
# Bulk Modulus (GPa) = 15.25158 55.09558 35.17358
# Shear Modulus (GPa) = 10.93475 16.79297 13.86386
#
# Velocity S-wave (km/s) = 2.55032 3.16048 2.87165
# Velocity P-wave (km/s) = 4.21236 6.78894 5.64950
#
# Compressibility (1/GPa) = 0.06556700
#
# Stress axis : x y z
#
# Youngs Moduli (GPa) = 10.45136 29.78230 32.27434
#
# Poissons Ratio (x) = 0.80153 -0.11784
# Poissons Ratio (y) = 0.28128 0.77704
# Poissons Ratio (z) = -0.03816 0.71704
#
# Static dielectric constant tensor:
#      x y z
#    x 1.566410 0.000000 0.000000 
#    y 0.000000 1.557690 0.000000 
#    z 0.000000 0.000000 1.591450 
# 
# From -- ./inp_files/59993.got.cif
#   From: 2010.05.17/outbox.cif.g08.bks.cpg/sg63_30_cif.got.tgz:59993.got - 2010.06.03 15:47:04.
