data_PCOD9469629
_publ_section_title
;
Structure prediction by ZEFSAII (Michael W. Deem and Ramdas Pophale) SiO2 
 PCOD9469629
Probable space group: C M C M
;
_chemical_formula_sum "Si O2"
_cell_formula_units_Z 128
_cell_length_a 16.797937
_cell_length_b 17.882352
_cell_length_c 24.320378
_cell_angle_alpha 90.000000
_cell_angle_beta 90.000000
_cell_angle_gamma 90.000000
_cell_volume 7305.516201
_symmetry_space_group_name_H-M "C M C M"
_symmetry_group_IT_number 63
_symmetry_cell_setting 'orthorhombic'
loop_
_space_group_symop_operation_xyz
x,y,z
-x,-y,1/2+z
x,-y,-z
-x,y,1/2-z
-x,-y,-z
x,y,1/2-z
-x,y,z
x,-y,1/2+z
1/2+x,1/2+y,z
1/2-x,1/2-y,1/2+z
1/2+x,1/2-y,-z
1/2-x,1/2+y,1/2-z
1/2-x,1/2-y,-z
1/2+x,1/2+y,1/2-z
1/2-x,1/2+y,z
1/2+x,1/2-y,1/2+z
loop_
_atom_site_type_symbol
_atom_site_label
_atom_site_fract_x
_atom_site_fract_y
_atom_site_fract_z
Si Si1 0.157043 0.373500 0.132261
Si Si2 0.406450 0.988223 0.689411
Si Si3 0.405725 0.088103 0.513719
Si Si4 0.177435 0.780627 0.813987
Si Si5 0.132645 0.253011 0.688298
Si Si6 0.908169 0.627778 0.397176
Si Si7 0.591525 0.567043 0.183314
Si Si8 0.824442 0.087072 0.685069
O O1 0.102412 0.427492 0.169207
O O2 0.146213 0.287676 0.149446
O O3 0.245796 0.398237 0.149768
O O4 0.139161 0.389227 0.068891
O O5 0.370814 0.976746 0.750000
O O6 0.500000 0.969808 0.693059
O O7 0.370287 0.935036 0.642498
O O8 0.500000 0.102298 0.523565
O O9 0.375745 0.130532 0.458802
O O10 0.397152 0.000000 0.500000
O O11 0.153676 0.768914 0.750000
O O12 0.273408 0.774094 0.814608
O O13 0.144037 0.860847 0.832319
O O14 0.104481 0.274419 0.750000
O O15 0.093630 0.297841 0.638856
O O16 0.125266 0.163820 0.682073
O O17 0.000000 0.604348 0.406254
O O18 0.590167 0.566338 0.250000
O O19 0.500000 0.573709 0.164506
O O20 0.630232 0.487750 0.167532
O O21 0.801912 0.080081 0.750000
#
# Coordination Sequence:
#
# PCOD9469629 Si02
#       8
#    16  16  16  16  16  16  16  16
#     4  11  19  32  52  73 101 140 178 214 261 307
#     4  10  19  28  44  74 105 132 163 200 251 316
#     4  10  20  35  50  69 102 144 182 216 252 304
#     4   9  19  33  49  76 108 133 167 218 268 314
#     4   9  18  33  52  76 107 136 165 210 268 316
#     4  10  20  33  49  73 105 138 175 211 253 307
#     4   9  18  32  50  73 103 140 175 207 256 324
#     4   9  19  34  52  78 107 135 172 217 266 317
#
# _framework density 17.521007000000001
#
# number of rings (size 3 to 8) (size 9 to 14) (size 15 to 20)
#    0.000    2.375    1.250    2.625    1.750    2.250 
#    0.000    5.000    0.000    0.000    0.000    0.000 
#    0.000    4.500    0.000    0.000    0.000    0.000 
#
# Total GULP energy -356700.867134 kJ/mol
# GULP energy per Si atom -5573.451049 kJ/mol
# Density = 1.748113 g / cm^3
# Si number density = 17.521007 Si / 1000 Ang^3
#
#
#
# Elastic Constant Matrix: (Units=GPa)
#
#
# Indices 1 2 3 4 5 6 
#
# 1 26.5614 28.1321 18.6091 0.0000 0.0000 0.0000
# 2 28.1321 114.9268 32.5388 0.0000 0.0000 0.0000
# 3 18.6091 32.5388 115.6330 0.0000 0.0000 0.0000
# 4 0.0000 0.0000 0.0000 6.0771 0.0000 0.0000
# 5 0.0000 0.0000 0.0000 0.0000 17.8522 0.0000
# 6 0.0000 0.0000 0.0000 0.0000 0.0000 21.4098
#
#
#
# Elastic Compliance Matrix: (Units=1/GPa)
#
#
# Indices 1 2 3 4 5 6 
#
# 1 0.053733 -0.011631 -0.005374 0.000000 0.000000 0.000000
# 2 -0.011631 0.011972 -0.001497 0.000000 0.000000 0.000000
# 3 -0.005374 -0.001497 0.009934 0.000000 0.000000 0.000000
# 4 0.000000 0.000000 0.000000 0.164552 0.000000 0.000000
# 5 0.000000 0.000000 0.000000 0.000000 0.056016 0.000000
# 6 0.000000 0.000000 0.000000 0.000000 0.000000 0.046708
#
#
# Mechanical properties :
#
#
# Convention : Reuss Voigt Hill
#
# Bulk Modulus (GPa) = 25.88399 46.18680 36.03539
# Shear Modulus (GPa) = 12.72919 20.92389 16.82654
#
# Velocity S-wave (km/s) = 2.69831 3.45949 3.10234
# Velocity P-wave (km/s) = 4.95106 6.50965 5.78310
#
# Compressibility (1/GPa) = 0.03863392
#
# Stress axis : x y z
#
# Youngs Moduli (GPa) = 18.61055 83.52685 100.66194
#
# Poissons Ratio (x) = 0.97152 0.54099
# Poissons Ratio (y) = 0.21646 0.15070
# Poissons Ratio (z) = 0.10002 0.12505
#
# Static dielectric constant tensor:
#      x y z
#    x 1.622600 0.000000 0.000000 
#    y 0.000000 1.616860 0.000000 
#    z 0.000000 0.000000 1.602150 
# 
# From -- ./inp_files/64760.got.cif
#   From: 2010.05.17/outbox.cif.g08.bks.cpg/sg63_33_cif.got.tgz:64760.got - 2010.06.03 15:47:04.
