data_PCOD9469514
_publ_section_title
;
Structure prediction by ZEFSAII (Michael W. Deem and Ramdas Pophale) SiO2 
 PCOD9469514
Probable space group: C M C M
;
_chemical_formula_sum "Si O2"
_cell_formula_units_Z 72
_cell_length_a 18.022468
_cell_length_b 14.600914
_cell_length_c 14.872878
_cell_angle_alpha 90.000000
_cell_angle_beta 90.000000
_cell_angle_gamma 90.000000
_cell_volume 3913.716124
_symmetry_space_group_name_H-M "C M C M"
_symmetry_group_IT_number 63
_symmetry_cell_setting 'orthorhombic'
loop_
_space_group_symop_operation_xyz
x,y,z
-x,-y,1/2+z
x,-y,-z
-x,y,1/2-z
-x,-y,-z
x,y,1/2-z
-x,y,z
x,-y,1/2+z
1/2+x,1/2+y,z
1/2-x,1/2-y,1/2+z
1/2+x,1/2-y,-z
1/2-x,1/2+y,1/2-z
1/2-x,1/2-y,-z
1/2+x,1/2+y,1/2-z
1/2-x,1/2+y,z
1/2+x,1/2-y,1/2+z
loop_
_atom_site_type_symbol
_atom_site_label
_atom_site_fract_x
_atom_site_fract_y
_atom_site_fract_z
Si Si1 0.375026 0.092125 0.944122
Si Si2 0.801469 0.089581 0.560721
Si Si3 0.418436 0.290992 0.544999
Si Si4 0.356151 0.093623 0.750000
Si Si5 0.300403 0.493069 0.250000
Si Si6 0.864006 0.196693 0.250000
O O1 0.286113 0.114404 0.938368
O O2 0.414028 0.183371 0.977425
O O3 0.399808 0.078752 0.841383
O O4 0.385269 0.000000 0.000000
O O5 0.853673 0.162218 0.512272
O O6 0.826665 0.058720 0.660094
O O7 0.805993 0.000000 0.500000
O O8 0.500000 0.327961 0.522969
O O9 0.405681 0.303385 0.653116
O O10 0.287967 0.023285 0.750000
O O11 0.328126 0.200616 0.750000
O O12 0.318407 0.601238 0.250000
#
# Coordination Sequence:
#
# PCOD9469514 Si02
#       6
#    16  16  16   8   8   8
#     4   9  19  36  58  81 106 139 183 231 271 314
#     4  10  19  35  56  81 107 138 180 224 270 320
#     4  11  22  36  54  80 112 146 182 221 271 324
#     4   8  18  33  55  83 106 135 179 230 268 312
#     4  10  18  35  53  81 110 142 177 221 273 318
#     4  10  19  36  56  78 108 143 185 225 262 314
#
# _framework density 18.396839
#
# number of rings (size 3 to 8) (size 9 to 14) (size 15 to 20)
#    0.000    2.222    2.222    1.000    0.000    0.889 
#    0.000    0.556    0.000    0.000    0.000    0.000 
#    0.000    0.000    0.000    0.000    0.000    0.000 
#
# Total GULP energy -200463.585783 kJ/mol
# GULP energy per Si atom -5568.432938 kJ/mol
# Density = 1.835497 g / cm^3
# Si number density = 18.396839 Si / 1000 Ang^3
#
#
#
# Elastic Constant Matrix: (Units=GPa)
#
#
# Indices 1 2 3 4 5 6 
#
# 1 45.3053 25.6584 16.6318 0.0000 0.0000 0.0000
# 2 25.6584 76.9307 23.5276 0.0000 0.0000 0.0000
# 3 16.6318 23.5276 111.2403 0.0000 0.0000 0.0000
# 4 0.0000 0.0000 0.0000 26.6229 0.0000 0.0000
# 5 0.0000 0.0000 0.0000 0.0000 16.4168 0.0000
# 6 0.0000 0.0000 0.0000 0.0000 0.0000 -11.7554
#
#
#
# Elastic Compliance Matrix: (Units=1/GPa)
#
#
# Indices 1 2 3 4 5 6 
#
# 1 0.027773 -0.008546 -0.002345 0.000000 0.000000 0.000000
# 2 -0.008546 0.016527 -0.002218 0.000000 0.000000 0.000000
# 3 -0.002345 -0.002218 0.009809 0.000000 0.000000 0.000000
# 4 0.000000 0.000000 0.000000 0.037562 0.000000 0.000000
# 5 0.000000 0.000000 0.000000 0.000000 0.060913 0.000000
# 6 0.000000 0.000000 0.000000 0.000000 0.000000 -0.085067
#
#
# Mechanical properties :
#
#
# Convention : Reuss Voigt Hill
#
# Bulk Modulus (GPa) = 35.85220 40.56800 38.21010
# Shear Modulus (GPa) = 48.52836 17.43409 32.98122
#
# Velocity S-wave (km/s) = 5.14159 3.08176 4.23870
# Velocity P-wave (km/s) = 7.40124 5.89597 6.69107
#
# Compressibility (1/GPa) = 0.02789229
#
# Stress axis : x y z
#
# Youngs Moduli (GPa) = 36.00581 60.50593 101.94484
#
# Poissons Ratio (x) = 0.51708 0.23906
# Poissons Ratio (y) = 0.30770 0.22610
# Poissons Ratio (z) = 0.08443 0.13419
#
# Static dielectric constant tensor:
#      x y z
#    x 1.671560 0.000000 0.000000 
#    y 0.000000 1.613090 0.000000 
#    z 0.000000 0.000000 1.624450 
# 
# From -- ./inp_files/33690.got.cif
#   From: 2010.05.17/outbox.cif.g08.bks.cpg/sg63_17_cif.got.tgz:33690.got - 2010.06.03 15:47:04.
