data_PCOD9469543
_publ_section_title
;
Structure prediction by ZEFSAII (Michael W. Deem and Ramdas Pophale) SiO2 
 PCOD9469543
Probable space group: C M C M
;
_chemical_formula_sum "Si O2"
_cell_formula_units_Z 80
_cell_length_a 17.250229
_cell_length_b 14.919973
_cell_length_c 18.911007
_cell_angle_alpha 90.000000
_cell_angle_beta 90.000000
_cell_angle_gamma 90.000000
_cell_volume 4867.181677
_symmetry_space_group_name_H-M "C M C M"
_symmetry_group_IT_number 63
_symmetry_cell_setting 'orthorhombic'
loop_
_space_group_symop_operation_xyz
x,y,z
-x,-y,1/2+z
x,-y,-z
-x,y,1/2-z
-x,-y,-z
x,y,1/2-z
-x,y,z
x,-y,1/2+z
1/2+x,1/2+y,z
1/2-x,1/2-y,1/2+z
1/2+x,1/2-y,-z
1/2-x,1/2+y,1/2-z
1/2-x,1/2-y,-z
1/2+x,1/2+y,1/2-z
1/2-x,1/2+y,z
1/2+x,1/2-y,1/2+z
loop_
_atom_site_type_symbol
_atom_site_label
_atom_site_fract_x
_atom_site_fract_y
_atom_site_fract_z
Si Si1 0.913420 0.693065 0.331104
Si Si2 0.749726 0.389712 0.832818
Si Si3 0.761586 0.053855 0.931522
Si Si4 0.188185 0.737937 0.564077
Si Si5 0.587604 0.331197 0.040369
O O1 0.906789 0.726922 0.250000
O O2 0.842164 0.626198 0.341842
O O3 0.906465 0.771412 0.388578
O O4 0.000000 0.653803 0.338743
O O5 0.731470 0.387309 0.750000
O O6 0.728715 0.483268 0.868905
O O7 0.709238 0.308374 0.874987
O O8 0.704033 0.135945 0.913317
O O9 0.845058 0.095090 0.953339
O O10 0.731519 0.000000 0.000000
O O11 0.250000 0.750000 0.500000
O O12 0.108905 0.767161 0.526094
O O13 0.500000 0.365696 0.034476
#
# Coordination Sequence:
#
# PCOD9469543 Si02
#       5
#    16  16  16  16  16
#     4   9  17  31  51  76 106 136 171 221 274 318
#     4  11  21  34  54  81 109 142 182 223 272 324
#     4  11  19  33  55  79 105 139 179 224 265 317
#     4  10  18  36  54  75 107 144 177 220 265 324
#     4  10  19  33  56  80 106 142 181 222 268 315
#
# _framework density 16.436616999999998
#
# number of rings (size 3 to 8) (size 9 to 14) (size 15 to 20)
#    0.000    1.800    8.000    0.000    0.000    2.000 
#    0.000    1.000    0.000    5.400    0.000    0.000 
#    0.000    0.000    0.000    0.000    0.000    0.000 
#
# Total GULP energy -222751.889608 kJ/mol
# GULP energy per Si atom -5568.797240 kJ/mol
# Density = 1.639921 g / cm^3
# Si number density = 16.436617 Si / 1000 Ang^3
#
#
#
# Elastic Constant Matrix: (Units=GPa)
#
#
# Indices 1 2 3 4 5 6 
#
# 1 60.3179 29.2144 24.8715 0.0000 0.0000 0.0000
# 2 29.2144 113.5677 51.4299 0.0000 0.0000 0.0000
# 3 24.8715 51.4299 94.0253 0.0000 0.0000 0.0000
# 4 0.0000 0.0000 0.0000 25.5168 0.0000 0.0000
# 5 0.0000 0.0000 0.0000 0.0000 16.9908 0.0000
# 6 0.0000 0.0000 0.0000 0.0000 0.0000 12.6293
#
#
#
# Elastic Compliance Matrix: (Units=1/GPa)
#
#
# Indices 1 2 3 4 5 6 
#
# 1 0.019651 -0.003591 -0.003234 0.000000 0.000000 0.000000
# 2 -0.003591 0.012361 -0.005811 0.000000 0.000000 0.000000
# 3 -0.003234 -0.005811 0.014670 0.000000 0.000000 0.000000
# 4 0.000000 0.000000 0.000000 0.039190 0.000000 0.000000
# 5 0.000000 0.000000 0.000000 0.000000 0.058855 0.000000
# 6 0.000000 0.000000 0.000000 0.000000 0.000000 0.079181
#
#
# Mechanical properties :
#
#
# Convention : Reuss Voigt Hill
#
# Bulk Modulus (GPa) = 46.70795 53.21586 49.96190
# Shear Modulus (GPa) = 19.50712 21.85371 20.68041
#
# Velocity S-wave (km/s) = 3.44875 3.65029 3.55095
# Velocity P-wave (km/s) = 6.65862 7.08610 6.87568
#
# Compressibility (1/GPa) = 0.02140963
#
# Stress axis : x y z
#
# Youngs Moduli (GPa) = 50.88674 80.90211 68.16821
#
# Poissons Ratio (x) = 0.29048 0.22047
# Poissons Ratio (y) = 0.18271 0.39614
# Poissons Ratio (z) = 0.16458 0.47014
#
# Static dielectric constant tensor:
#      x y z
#    x 1.579110 0.000000 0.000000 
#    y 0.000000 1.569000 0.000000 
#    z 0.000000 0.000000 1.555690 
# 
# From -- ./inp_files/45391.got.cif
#   From: 2010.05.17/outbox.cif.g08.bks.cpg/sg63_23_cif.got.tgz:45391.got - 2010.06.03 15:47:04.
