data_PCOD9469750
_publ_section_title
;
Structure prediction by ZEFSAII (Michael W. Deem and Ramdas Pophale) SiO2 
 PCOD9469750
Probable space group: C M C M
;
_chemical_formula_sum "Si O2"
_cell_formula_units_Z 72
_cell_length_a 35.398595
_cell_length_b 14.714650
_cell_length_c 7.732965
_cell_angle_alpha 90.000000
_cell_angle_beta 90.000000
_cell_angle_gamma 90.000000
_cell_volume 4027.930848
_symmetry_space_group_name_H-M "C M C M"
_symmetry_group_IT_number 63
_symmetry_cell_setting 'orthorhombic'
loop_
_space_group_symop_operation_xyz
x,y,z
-x,-y,1/2+z
x,-y,-z
-x,y,1/2-z
-x,-y,-z
x,y,1/2-z
-x,y,z
x,-y,1/2+z
1/2+x,1/2+y,z
1/2-x,1/2-y,1/2+z
1/2+x,1/2-y,-z
1/2-x,1/2+y,1/2-z
1/2-x,1/2-y,-z
1/2+x,1/2+y,1/2-z
1/2-x,1/2+y,z
1/2+x,1/2-y,1/2+z
loop_
_atom_site_type_symbol
_atom_site_label
_atom_site_fract_x
_atom_site_fract_y
_atom_site_fract_z
Si Si1 0.844564 0.712350 0.545038
Si Si2 0.227673 0.395074 0.458007
Si Si3 0.312549 0.604079 0.955729
Si Si4 0.917615 0.393099 0.041210
Si Si5 0.500000 0.107129 0.542344
O O1 0.844448 0.693577 0.750000
O O2 0.806043 0.667376 0.473265
O O3 0.841111 0.819840 0.520802
O O4 0.882246 0.664954 0.474630
O O5 0.219207 0.500000 0.500000
O O6 0.229192 0.385551 0.250000
O O7 0.269999 0.375804 0.525396
O O8 0.311237 0.611212 0.750000
O O9 0.321603 0.500000 0.000000
O O10 0.918372 0.385987 0.250000
O O11 0.959020 0.360632 0.977213
O O12 0.912753 0.500000 0.000000
O O13 0.500000 0.118540 0.750000
O O14 0.500000 0.000000 0.500000
#
# Coordination Sequence:
#
# PCOD9469750 Si02
#       5
#    16  16  16  16   8
#     4  10  19  30  44  65  90 115 145 182 218 254
#     4   9  18  30  44  63  88 116 146 179 216 256
#     4  10  20  33  47  62  82 113 149 185 222 259
#     4   9  17  28  44  66  93 121 147 175 209 251
#     4   8  14  26  42  62  89 120 147 170 203 250
#
# _framework density 17.875183
#
# number of rings (size 3 to 8) (size 9 to 14) (size 15 to 20)
#    0.000    2.667    0.000    2.000    0.000    2.667 
#    0.000    0.000    0.000    0.000    0.000    0.778 
#    0.000    0.000    0.000    0.000    0.000    0.000 
#
# Total GULP energy -200680.651944 kJ/mol
# GULP energy per Si atom -5574.462554 kJ/mol
# Density = 1.783450 g / cm^3
# Si number density = 17.875183 Si / 1000 Ang^3
#
#
#
# Elastic Constant Matrix: (Units=GPa)
#
#
# Indices 1 2 3 4 5 6 
#
# 1 123.7320 86.1461 3.9588 0.0000 0.0000 0.0000
# 2 86.1461 81.8043 -10.4091 0.0000 0.0000 0.0000
# 3 3.9588 -10.4091 26.1816 0.0000 0.0000 0.0000
# 4 0.0000 0.0000 0.0000 21.9116 0.0000 0.0000
# 5 0.0000 0.0000 0.0000 0.0000 2.3868 0.0000
# 6 0.0000 0.0000 0.0000 0.0000 0.0000 1.4579
#
#
#
# Elastic Compliance Matrix: (Units=1/GPa)
#
#
# Indices 1 2 3 4 5 6 
#
# 1 0.041567 -0.046948 -0.024950 0.000000 0.000000 0.000000
# 2 -0.046948 0.065901 0.033299 0.000000 0.000000 0.000000
# 3 -0.024950 0.033299 0.055206 0.000000 0.000000 0.000000
# 4 0.000000 0.000000 0.000000 0.045638 0.000000 0.000000
# 5 0.000000 0.000000 0.000000 0.000000 0.418979 0.000000
# 6 0.000000 0.000000 0.000000 0.000000 0.000000 0.685927
#
#
# Mechanical properties :
#
#
# Convention : Reuss Voigt Hill
#
# Bulk Modulus (GPa) = 11.69916 43.45664 27.57790
# Shear Modulus (GPa) = 3.52384 15.28605 9.40494
#
# Velocity S-wave (km/s) = 1.40557 2.92748 2.29627
# Velocity P-wave (km/s) = 3.03205 5.98254 4.74258
#
# Compressibility (1/GPa) = 0.08547621
#
# Stress axis : x y z
#
# Youngs Moduli (GPa) = 24.05771 15.17431 18.11391
#
# Poissons Ratio (x) = 0.71240 0.45195
# Poissons Ratio (y) = 1.12945 -0.60318
# Poissons Ratio (z) = 0.60025 -0.50529
#
# Static dielectric constant tensor:
#      x y z
#    x 1.669530 0.000000 0.000000 
#    y 0.000000 1.570360 0.000000 
#    z 0.000000 0.000000 1.636490 
# 
# From -- ./inp_files/13888.got.cif
#   From: 2010.05.17/outbox.cif.g08.bks.cpg/sg63_7_cif.got.tgz:13888.got - 2010.06.03 15:47:04.
