data_PCOD9469416
_publ_section_title
;
Structure prediction by ZEFSAII (Michael W. Deem and Ramdas Pophale) SiO2 
 PCOD9469416
Probable space group: C M C M
;
_chemical_formula_sum "Si O2"
_cell_formula_units_Z 80
_cell_length_a 7.454095
_cell_length_b 20.394853
_cell_length_c 22.908533
_cell_angle_alpha 90.000000
_cell_angle_beta 90.000000
_cell_angle_gamma 90.000000
_cell_volume 3482.673664
_symmetry_space_group_name_H-M "C M C M"
_symmetry_group_IT_number 63
_symmetry_cell_setting 'orthorhombic'
loop_
_space_group_symop_operation_xyz
x,y,z
-x,-y,1/2+z
x,-y,-z
-x,y,1/2-z
-x,-y,-z
x,y,1/2-z
-x,y,z
x,-y,1/2+z
1/2+x,1/2+y,z
1/2-x,1/2-y,1/2+z
1/2+x,1/2-y,-z
1/2-x,1/2+y,1/2-z
1/2-x,1/2-y,-z
1/2+x,1/2+y,1/2-z
1/2-x,1/2+y,z
1/2+x,1/2-y,1/2+z
loop_
_atom_site_type_symbol
_atom_site_label
_atom_site_fract_x
_atom_site_fract_y
_atom_site_fract_z
Si Si1 0.295799 0.410318 0.948931
Si Si2 0.785645 0.190880 0.250000
Si Si3 0.780889 0.025410 0.629275
Si Si4 0.781071 0.960439 0.750000
Si Si5 0.708905 0.788345 0.879277
Si Si6 0.219156 0.154420 0.932688
O O1 0.500000 0.426697 0.965945
O O2 0.217027 0.476443 0.922047
O O3 0.298552 0.356487 0.897465
O O4 0.217840 0.373641 0.005132
O O5 0.721767 0.115158 0.250000
O O6 0.725791 0.223366 0.189688
O O7 0.000000 0.190185 0.250000
O O8 0.730738 0.099562 0.614726
O O9 0.000000 0.022492 0.628749
O O10 0.722681 0.997476 0.691457
O O11 0.000000 0.959864 0.750000
O O12 0.500000 0.796629 0.893263
O O13 0.781966 0.726681 0.915519
O O14 0.000000 0.158380 0.933893
#
# Coordination Sequence:
#
# PCOD9469416 Si02
#       6
#    16   8  16   8  16  16
#     4  10  18  33  57  81 107 145 188 224 260 311
#     4  11  21  38  59  81 103 136 186 227 265 319
#     4   9  16  29  52  81 107 135 181 235 271 301
#     4   9  16  28  51  81 101 124 172 229 273 307
#     4  11  22  35  53  82 114 144 174 216 276 327
#     4   9  19  32  50  81 115 142 177 226 273 315
#
# _framework density 22.970856000000001
#
# number of rings (size 3 to 8) (size 9 to 14) (size 15 to 20)
#    0.000    2.200    2.000    2.100    0.000    3.200 
#    0.000    4.000    0.000    4.800    0.000    0.000 
#    0.000    0.000    0.000    0.000    0.000    0.000 
#
# Total GULP energy -223580.230108 kJ/mol
# GULP energy per Si atom -5589.505753 kJ/mol
# Density = 2.291857 g / cm^3
# Si number density = 22.970856 Si / 1000 Ang^3
#
#
#
# Elastic Constant Matrix: (Units=GPa)
#
#
# Indices 1 2 3 4 5 6 
#
# 1 77.4014 2.2624 -5.3736 0.0000 0.0000 0.0000
# 2 2.2624 67.9564 -17.0663 0.0000 0.0000 0.0000
# 3 -5.3736 -17.0663 74.9801 0.0000 0.0000 0.0000
# 4 0.0000 0.0000 0.0000 27.2612 0.0000 0.0000
# 5 0.0000 0.0000 0.0000 0.0000 5.8418 0.0000
# 6 0.0000 0.0000 0.0000 0.0000 0.0000 -3.9295
#
#
#
# Elastic Compliance Matrix: (Units=1/GPa)
#
#
# Indices 1 2 3 4 5 6 
#
# 1 0.012987 -0.000211 0.000883 0.000000 0.000000 0.000000
# 2 -0.000211 0.015611 0.003538 0.000000 0.000000 0.000000
# 3 0.000883 0.003538 0.014205 0.000000 0.000000 0.000000
# 4 0.000000 0.000000 0.000000 0.036682 0.000000 0.000000
# 5 0.000000 0.000000 0.000000 0.000000 0.171181 0.000000
# 6 0.000000 0.000000 0.000000 0.000000 0.000000 -0.254485
#
#
# Mechanical properties :
#
#
# Convention : Reuss Voigt Hill
#
# Bulk Modulus (GPa) = 19.52211 19.99809 19.76010
# Shear Modulus (GPa) = 1034.06727 21.86907 527.96817
#
# Velocity S-wave (km/s) = 21.24011 3.08885 15.17701
# Velocity P-wave (km/s) = 24.69899 4.63099 17.76916
#
# Compressibility (1/GPa) = 0.05122397
#
# Stress axis : x y z
#
# Youngs Moduli (GPa) = 76.99944 64.05788 70.39543
#
# Poissons Ratio (x) = 0.01350 -0.06215
# Poissons Ratio (y) = 0.01622 -0.24907
# Poissons Ratio (z) = -0.06798 -0.22664
#
# Static dielectric constant tensor:
#      x y z
#    x 1.903170 0.000000 0.000000 
#    y 0.000000 1.803100 0.000000 
#    z 0.000000 0.000000 1.847670 
# 
# From -- ./inp_files/59528.got.cif
#   From: 2010.05.17/outbox.cif.g08.bks.cpg/sg63_30_cif.got.tgz:59528.got - 2010.06.03 15:47:04.
