data_PCOD9469318
_publ_section_title
;
Structure prediction by ZEFSAII (Michael W. Deem and Ramdas Pophale) SiO2 
 PCOD9469318
Probable space group: C M C M
;
_chemical_formula_sum "Si O2"
_cell_formula_units_Z 80
_cell_length_a 16.191300
_cell_length_b 29.735582
_cell_length_c 7.974846
_cell_angle_alpha 90.000000
_cell_angle_beta 90.000000
_cell_angle_gamma 90.000000
_cell_volume 3839.551243
_symmetry_space_group_name_H-M "C M C M"
_symmetry_group_IT_number 63
_symmetry_cell_setting 'orthorhombic'
loop_
_space_group_symop_operation_xyz
x,y,z
-x,-y,1/2+z
x,-y,-z
-x,y,1/2-z
-x,-y,-z
x,y,1/2-z
-x,y,z
x,-y,1/2+z
1/2+x,1/2+y,z
1/2-x,1/2-y,1/2+z
1/2+x,1/2-y,-z
1/2-x,1/2+y,1/2-z
1/2-x,1/2-y,-z
1/2+x,1/2+y,1/2-z
1/2-x,1/2+y,z
1/2+x,1/2-y,1/2+z
loop_
_atom_site_type_symbol
_atom_site_label
_atom_site_fract_x
_atom_site_fract_y
_atom_site_fract_z
Si Si1 0.331662 0.951573 0.950678
Si Si2 0.408491 0.857833 0.545280
Si Si3 0.589629 0.354062 0.947352
Si Si4 0.749374 0.198050 0.047262
Si Si5 0.358823 0.450198 0.443949
O O1 0.320530 0.950123 0.750000
O O2 0.385963 0.909008 0.001365
O O3 0.240295 0.948154 0.029224
O O4 0.367084 0.000000 0.000000
O O5 0.409085 0.856368 0.750000
O O6 0.500000 0.845242 0.487151
O O7 0.334140 0.826177 0.486796
O O8 0.587074 0.343240 0.750000
O O9 0.500000 0.342211 0.021195
O O10 0.669206 0.327993 0.017459
O O11 0.603520 0.407510 0.962851
O O12 0.749304 0.194196 0.250000
O O13 0.750000 0.250000 0.000000
O O14 0.385477 0.500000 0.500000
O O15 0.378505 0.444858 0.250000
#
# Coordination Sequence:
#
# PCOD9469318 Si02
#       5
#    16  16  16  16  16
#     4  10  18  32  54  81 114 151 191 227 272 328
#     4   9  18  34  57  82 111 148 186 224 272 334
#     4  10  21  39  61  84 113 150 190 232 281 335
#     4  10  21  39  60  83 111 145 185 231 285 337
#     4  11  21  34  56  84 117 153 192 232 277 331
#
# _framework density 20.835768000000002
#
# number of rings (size 3 to 8) (size 9 to 14) (size 15 to 20)
#    0.000    2.000    2.000    3.600    0.000    2.800 
#    0.000    0.000    0.000    4.200    0.000    0.000 
#    0.000    0.000    0.000    0.000    0.000    0.000 
#
# Total GULP energy -223395.260934 kJ/mol
# GULP energy per Si atom -5584.881523 kJ/mol
# Density = 2.078834 g / cm^3
# Si number density = 20.835768 Si / 1000 Ang^3
#
#
#
# Elastic Constant Matrix: (Units=GPa)
#
#
# Indices 1 2 3 4 5 6 
#
# 1 179.8938 96.7699 1.4416 0.0000 0.0000 0.0000
# 2 96.7699 143.8830 -9.3707 0.0000 0.0000 0.0000
# 3 1.4416 -9.3707 20.5536 0.0000 0.0000 0.0000
# 4 0.0000 0.0000 0.0000 30.6365 0.0000 0.0000
# 5 0.0000 0.0000 0.0000 0.0000 2.1554 0.0000
# 6 0.0000 0.0000 0.0000 0.0000 0.0000 -24.7368
#
#
#
# Elastic Compliance Matrix: (Units=1/GPa)
#
#
# Indices 1 2 3 4 5 6 
#
# 1 0.008944 -0.006242 -0.003473 0.000000 0.000000 0.000000
# 2 -0.006242 0.011519 0.005689 0.000000 0.000000 0.000000
# 3 -0.003473 0.005689 0.051491 0.000000 0.000000 0.000000
# 4 0.000000 0.000000 0.000000 0.032641 0.000000 0.000000
# 5 0.000000 0.000000 0.000000 0.000000 0.463948 0.000000
# 6 0.000000 0.000000 0.000000 0.000000 0.000000 -0.040426
#
#
# Mechanical properties :
#
#
# Convention : Reuss Voigt Hill
#
# Bulk Modulus (GPa) = 15.64881 58.00134 36.82507
# Shear Modulus (GPa) = 8.96912 18.64368 13.80640
#
# Velocity S-wave (km/s) = 2.07702 2.99455 2.57695
# Velocity P-wave (km/s) = 3.64402 6.31302 5.15428
#
# Compressibility (1/GPa) = 0.06390263
#
# Stress axis : x y z
#
# Youngs Moduli (GPa) = 111.80330 86.81630 19.42094
#
# Poissons Ratio (x) = 0.54189 0.06745
# Poissons Ratio (y) = 0.69785 -0.11049
# Poissons Ratio (z) = 0.38830 -0.49393
#
# Static dielectric constant tensor:
#      x y z
#    x 1.769300 0.000000 0.000000 
#    y 0.000000 1.725940 0.000000 
#    z 0.000000 0.000000 1.736480 
# 
# From -- ./inp_files/6675.got.cif
#   From: 2010.05.17/outbox.cif.g08.bks.cpg/sg63_4_cif.got.tgz:6675.got - 2010.06.03 15:47:04.
