data_PCOD9469429
_publ_section_title
;
Structure prediction by ZEFSAII (Michael W. Deem and Ramdas Pophale) SiO2 
 PCOD9469429
Probable space group: C M C M
;
_chemical_formula_sum "Si O2"
_cell_formula_units_Z 96
_cell_length_a 8.662858
_cell_length_b 29.628710
_cell_length_c 21.006790
_cell_angle_alpha 90.000000
_cell_angle_beta 90.000000
_cell_angle_gamma 90.000000
_cell_volume 5391.798241
_symmetry_space_group_name_H-M "C M C M"
_symmetry_group_IT_number 63
_symmetry_cell_setting 'orthorhombic'
loop_
_space_group_symop_operation_xyz
x,y,z
-x,-y,1/2+z
x,-y,-z
-x,y,1/2-z
-x,-y,-z
x,y,1/2-z
-x,y,z
x,-y,1/2+z
1/2+x,1/2+y,z
1/2-x,1/2-y,1/2+z
1/2+x,1/2-y,-z
1/2-x,1/2+y,1/2-z
1/2-x,1/2-y,-z
1/2+x,1/2+y,1/2-z
1/2-x,1/2+y,z
1/2+x,1/2-y,1/2+z
loop_
_atom_site_type_symbol
_atom_site_label
_atom_site_fract_x
_atom_site_fract_y
_atom_site_fract_z
Si Si1 0.813794 0.125469 0.378840
Si Si2 0.816508 0.627439 0.978549
Si Si3 0.313427 0.531716 0.560290
Si Si4 0.186103 0.222505 0.177642
Si Si5 0.316304 0.277855 0.439957
Si Si6 0.811956 0.029219 0.321612
O O1 0.738527 0.127754 0.448102
O O2 0.776683 0.170554 0.339746
O O3 0.766977 0.079596 0.343331
O O4 0.000000 0.123991 0.387230
O O5 0.758977 0.580692 0.948403
O O6 0.743711 0.671144 0.945289
O O7 0.000000 0.630482 0.975798
O O8 0.273295 0.500000 0.500000
O O9 0.500000 0.536038 0.560438
O O10 0.263839 0.506349 0.624662
O O11 0.233299 0.232617 0.250000
O O12 0.260865 0.254134 0.124648
O O13 0.000000 0.226866 0.173574
O O14 0.500000 0.277171 0.444065
O O15 0.250000 0.250000 0.500000
O O16 0.758898 0.019495 0.250000
O O17 0.000000 0.028720 0.321129
#
# Coordination Sequence:
#
# PCOD9469429 Si02
#       6
#    16  16  16  16  16  16
#     4  10  18  33  58  87 120 153 187 234 288 349
#     4  12  24  37  57  86 117 152 196 245 293 343
#     4  10  19  35  58  84 113 150 192 236 285 342
#     4  10  21  37  60  91 125 159 193 234 292 358
#     4  12  24  40  62  87 117 155 199 247 296 349
#     4   9  17  31  55  86 116 148 189 233 283 343
#
# _framework density 17.804821
#
# number of rings (size 3 to 8) (size 9 to 14) (size 15 to 20)
#    0.000    1.500    3.333    3.500    0.000    2.667 
#    0.000    0.833    0.000    6.000    0.000    0.000 
#    0.000    0.000    0.000    0.000    0.000    0.000 
#
# Total GULP energy -268191.158699 kJ/mol
# GULP energy per Si atom -5587.315806 kJ/mol
# Density = 1.776430 g / cm^3
# Si number density = 17.804821 Si / 1000 Ang^3
#
#
#
# Elastic Constant Matrix: (Units=GPa)
#
#
# Indices 1 2 3 4 5 6 
#
# 1 52.7600 56.6504 58.3785 0.0000 0.0000 0.0000
# 2 56.6504 161.6266 101.6384 0.0000 0.0000 0.0000
# 3 58.3785 101.6384 181.0685 0.0000 0.0000 0.0000
# 4 0.0000 0.0000 0.0000 21.2150 0.0000 0.0000
# 5 0.0000 0.0000 0.0000 0.0000 21.4777 0.0000
# 6 0.0000 0.0000 0.0000 0.0000 0.0000 23.6532
#
#
#
# Elastic Compliance Matrix: (Units=1/GPa)
#
#
# Indices 1 2 3 4 5 6 
#
# 1 0.035107 -0.008017 -0.006819 0.000000 0.000000 0.000000
# 2 -0.008017 0.011393 -0.003811 0.000000 0.000000 0.000000
# 3 -0.006819 -0.003811 0.009860 0.000000 0.000000 0.000000
# 4 0.000000 0.000000 0.000000 0.047136 0.000000 0.000000
# 5 0.000000 0.000000 0.000000 0.000000 0.046560 0.000000
# 6 0.000000 0.000000 0.000000 0.000000 0.000000 0.042278
#
#
# Mechanical properties :
#
#
# Convention : Reuss Voigt Hill
#
# Bulk Modulus (GPa) = 52.44475 92.08775 72.26625
# Shear Modulus (GPa) = 21.18798 25.18836 23.18817
#
# Velocity S-wave (km/s) = 3.45340 3.76532 3.61273
# Velocity P-wave (km/s) = 6.73948 8.41050 7.62093
#
# Compressibility (1/GPa) = 0.01906769
#
# Stress axis : x y z
#
# Youngs Moduli (GPa) = 28.48451 87.77001 101.41835
#
# Poissons Ratio (x) = 0.70367 0.69153
# Poissons Ratio (y) = 0.22836 0.38646
# Poissons Ratio (z) = 0.19422 0.33446
#
# Static dielectric constant tensor:
#      x y z
#    x 1.602720 0.000000 0.000000 
#    y 0.000000 1.586950 0.000000 
#    z 0.000000 0.000000 1.591240 
# 
# From -- ./inp_files/51266.got.cif
#   From: 2010.05.17/outbox.cif.g08.bks.cpg/sg63_26_cif.got.tgz:51266.got - 2010.06.03 15:47:04.
