data_PCOD9469085
_publ_section_title
;
Structure prediction by ZEFSAII (Michael W. Deem and Ramdas Pophale) SiO2 
 PCOD9469085
Probable space group: C M C M
;
_chemical_formula_sum "Si O2"
_cell_formula_units_Z 96
_cell_length_a 25.383772
_cell_length_b 8.543036
_cell_length_c 22.633561
_cell_angle_alpha 90.000000
_cell_angle_beta 90.000000
_cell_angle_gamma 90.000000
_cell_volume 4908.189056
_symmetry_space_group_name_H-M "C M C M"
_symmetry_group_IT_number 63
_symmetry_cell_setting 'orthorhombic'
loop_
_space_group_symop_operation_xyz
x,y,z
-x,-y,1/2+z
x,-y,-z
-x,y,1/2-z
-x,-y,-z
x,y,1/2-z
-x,y,z
x,-y,1/2+z
1/2+x,1/2+y,z
1/2-x,1/2-y,1/2+z
1/2+x,1/2-y,-z
1/2-x,1/2+y,1/2-z
1/2-x,1/2-y,-z
1/2+x,1/2+y,1/2-z
1/2-x,1/2+y,z
1/2+x,1/2-y,1/2+z
loop_
_atom_site_type_symbol
_atom_site_label
_atom_site_fract_x
_atom_site_fract_y
_atom_site_fract_z
Si Si1 0.000000 0.494955 0.178393
Si Si2 0.742916 0.219199 0.250000
Si Si3 0.388090 0.936720 0.643199
Si Si4 0.712712 0.608458 0.054480
Si Si5 0.883885 0.338617 0.036202
Si Si6 0.320739 0.940703 0.250000
Si Si7 0.500000 0.847143 0.044276
Si Si8 0.197177 0.801787 0.122382
O O1 0.053534 0.590636 0.167538
O O2 0.000000 0.442244 0.250000
O O3 0.000000 0.385924 0.116301
O O4 0.804094 0.262941 0.250000
O O5 0.716356 0.279907 0.189627
O O6 0.733921 0.034442 0.250000
O O7 0.387086 0.084671 0.600440
O O8 0.352234 0.998886 0.695258
O O9 0.358589 0.787331 0.615766
O O10 0.663766 0.716159 0.033619
O O11 0.759291 0.712478 0.082034
O O12 0.695051 0.481568 0.103270
O O13 0.731241 0.500000 0.000000
O O14 0.943348 0.272075 0.027193
O O15 0.875134 0.500000 0.000000
O O16 0.500000 0.000000 0.000000
#
# Coordination Sequence:
#
# PCOD9469085 Si02
#       8
#     8   8  16  16  16   8   8  16
#     4  10  18  34  61  93 117 151 204 263 308 368
#     4  10  20  34  54  74 108 150 194 238 282 352
#     4  10  20  35  57  83 113 148 193 247 299 361
#     4  12  24  38  58  87 123 162 202 252 309 370
#     4  10  20  38  60  86 118 157 201 250 303 359
#     4  10  18  31  50  78 106 143 186 232 288 338
#     4   8  18  36  62  89 122 159 204 255 307 364
#     4  11  23  38  56  84 118 159 204 244 306 368
#
# _framework density 19.559146999999999
#
# number of rings (size 3 to 8) (size 9 to 14) (size 15 to 20)
#    0.000    1.667    0.833    5.500    0.000    1.333 
#    0.000    1.250    0.000    0.000    0.000    0.000 
#    0.000    0.000    0.000    0.000    0.000    0.000 
#
# Total GULP energy -267228.815812 kJ/mol
# GULP energy per Si atom -5567.266996 kJ/mol
# Density = 1.951463 g / cm^3
# Si number density = 19.559147 Si / 1000 Ang^3
#
#
#
# Elastic Constant Matrix: (Units=GPa)
#
#
# Indices 1 2 3 4 5 6 
#
# 1 151.3458 56.7386 18.0742 0.0000 0.0000 0.0000
# 2 56.7386 64.2579 21.0113 0.0000 0.0000 0.0000
# 3 18.0742 21.0113 87.6798 0.0000 0.0000 0.0000
# 4 0.0000 0.0000 0.0000 24.9014 0.0000 0.0000
# 5 0.0000 0.0000 0.0000 0.0000 18.7026 0.0000
# 6 0.0000 0.0000 0.0000 0.0000 0.0000 18.8987
#
#
#
# Elastic Compliance Matrix: (Units=1/GPa)
#
#
# Indices 1 2 3 4 5 6 
#
# 1 0.009877 -0.008740 0.000058 0.000000 0.000000 0.000000
# 2 -0.008740 0.024620 -0.004098 0.000000 0.000000 0.000000
# 3 0.000058 -0.004098 0.012375 0.000000 0.000000 0.000000
# 4 0.000000 0.000000 0.000000 0.040158 0.000000 0.000000
# 5 0.000000 0.000000 0.000000 0.000000 0.053469 0.000000
# 6 0.000000 0.000000 0.000000 0.000000 0.000000 0.052914
#
#
# Mechanical properties :
#
#
# Convention : Reuss Voigt Hill
#
# Bulk Modulus (GPa) = 46.92178 54.99241 50.95709
# Shear Modulus (GPa) = 22.11635 26.33116 24.22376
#
# Velocity S-wave (km/s) = 3.36630 3.67308 3.52303
# Velocity P-wave (km/s) = 6.25708 6.79454 6.53134
#
# Compressibility (1/GPa) = 0.02131207
#
# Stress axis : x y z
#
# Youngs Moduli (GPa) = 101.24384 40.61747 80.80721
#
# Poissons Ratio (x) = 0.35502 -0.00472
# Poissons Ratio (y) = 0.88492 0.33116
# Poissons Ratio (z) = -0.00592 0.16645
#
# Static dielectric constant tensor:
#      x y z
#    x 1.750300 0.000000 0.000000 
#    y 0.000000 1.664370 0.000000 
#    z 0.000000 0.000000 1.714770 
# 
# From -- ./inp_files/65061.got.cif
#   From: 2010.05.17/outbox.cif.g08.bks.cpg/sg63_33_cif.got.tgz:65061.got - 2010.06.03 15:47:04.
