data_PCOD9469431
_publ_section_title
;
Structure prediction by ZEFSAII (Michael W. Deem and Ramdas Pophale) SiO2 
 PCOD9469431
Probable space group: C M C M
;
_chemical_formula_sum "Si O2"
_cell_formula_units_Z 116
_cell_length_a 7.531518
_cell_length_b 29.237402
_cell_length_c 24.015807
_cell_angle_alpha 90.000000
_cell_angle_beta 90.000000
_cell_angle_gamma 90.000000
_cell_volume 5288.329200
_symmetry_space_group_name_H-M "C M C M"
_symmetry_group_IT_number 63
_symmetry_cell_setting 'orthorhombic'
loop_
_space_group_symop_operation_xyz
x,y,z
-x,-y,1/2+z
x,-y,-z
-x,y,1/2-z
-x,-y,-z
x,y,1/2-z
-x,y,z
x,-y,1/2+z
1/2+x,1/2+y,z
1/2-x,1/2-y,1/2+z
1/2+x,1/2-y,-z
1/2-x,1/2+y,1/2-z
1/2-x,1/2-y,-z
1/2+x,1/2+y,1/2-z
1/2-x,1/2+y,z
1/2+x,1/2-y,1/2+z
loop_
_atom_site_type_symbol
_atom_site_label
_atom_site_fract_x
_atom_site_fract_y
_atom_site_fract_z
Si Si1 0.294703 0.234305 0.413830
Si Si2 0.284839 0.153179 0.483836
Si Si3 0.706867 0.583393 0.383938
Si Si4 0.716464 0.892579 0.097976
Si Si5 0.706365 0.010178 0.561621
Si Si6 0.202153 0.690824 0.662908
Si Si7 0.500000 0.717900 0.750000
Si Si8 0.716163 0.334548 0.687085
O O1 0.500000 0.244630 0.424019
O O2 0.222192 0.203136 0.464084
O O3 0.199720 0.280199 0.394625
O O4 0.281000 0.200171 0.360149
O O5 0.500000 0.154458 0.483550
O O6 0.229642 0.116568 0.437048
O O7 0.224040 0.133444 0.542236
O O8 0.500000 0.574922 0.374293
O O9 0.786777 0.534848 0.400573
O O10 0.772596 0.614584 0.332658
O O11 0.500000 0.891756 0.099037
O O12 0.778961 0.944704 0.092020
O O13 0.765380 0.860719 0.149742
O O14 0.500000 0.021494 0.550965
O O15 0.784682 0.000000 0.500000
O O16 0.343755 0.714268 0.702209
O O17 0.000000 0.691027 0.684194
O O18 0.775405 0.323848 0.750000
O O19 0.500000 0.332733 0.686104
#
# Coordination Sequence:
#
# PCOD9469431 Si02
#       8
#    16  16  16  16  16  16   4  16
#     4  10  20  34  55  90 123 154 201 245 293 359
#     4   9  17  34  57  81 122 163 194 237 288 357
#     4  10  19  31  48  82 117 147 189 243 300 357
#     4   9  19  37  60  87 114 157 203 239 300 369
#     4  10  18  33  59  82 109 148 194 236 289 359
#     4  11  24  43  66  89 122 158 202 260 309 353
#     4  12  26  48  68  90 114 152 218 266 306 354
#     4   9  19  34  53  74 108 154 197 238 298 360
#
# _framework density 21.935095
#
# number of rings (size 3 to 8) (size 9 to 14) (size 15 to 20)
#    0.000    2.207    2.069    1.034    0.966    2.207 
#    2.483    0.000    1.517    0.000    0.000    0.000 
#    0.000    0.000    0.000    0.000    0.000    0.000 
#
# Total GULP energy -323369.403793 kJ/mol
# GULP energy per Si atom -5575.334548 kJ/mol
# Density = 2.188517 g / cm^3
# Si number density = 21.935095 Si / 1000 Ang^3
#
#
#
# Elastic Constant Matrix: (Units=GPa)
#
#
# Indices 1 2 3 4 5 6 
#
# 1 78.4641 -0.1265 0.3092 0.0000 0.0000 0.0000
# 2 -0.1265 130.4962 11.4793 0.0000 0.0000 0.0000
# 3 0.3092 11.4793 27.8033 0.0000 0.0000 0.0000
# 4 0.0000 0.0000 0.0000 -3.3239 0.0000 0.0000
# 5 0.0000 0.0000 0.0000 0.0000 26.4439 0.0000
# 6 0.0000 0.0000 0.0000 0.0000 0.0000 -27.0324
#
#
#
# Elastic Compliance Matrix: (Units=1/GPa)
#
#
# Indices 1 2 3 4 5 6 
#
# 1 0.012745 0.000026 -0.000152 0.000000 0.000000 0.000000
# 2 0.000026 0.007952 -0.003283 0.000000 0.000000 0.000000
# 3 -0.000152 -0.003283 0.037324 0.000000 0.000000 0.000000
# 4 0.000000 0.000000 0.000000 -0.300848 0.000000 0.000000
# 5 0.000000 0.000000 0.000000 0.000000 0.037816 0.000000
# 6 0.000000 0.000000 0.000000 0.000000 0.000000 -0.036993
#
#
# Mechanical properties :
#
#
# Convention : Reuss Voigt Hill
#
# Bulk Modulus (GPa) = 19.53069 28.89860 24.21464
# Shear Modulus (GPa) = -22.92362 14.22428 -4.34967
#
# Velocity S-wave (km/s) = -3.23625 2.54927 -1.40971
# Velocity P-wave (km/s) = 2.24528 4.67635 2.90060
#
# Compressibility (1/GPa) = 0.05120148
#
# Stress axis : x y z
#
# Youngs Moduli (GPa) = 78.46018 125.75583 26.79218
#
# Poissons Ratio (x) = -0.00324 0.00408
# Poissons Ratio (y) = -0.00202 0.08797
# Poissons Ratio (z) = 0.01195 0.41291
#
# Static dielectric constant tensor:
#      x y z
#    x 1.806010 0.000000 0.000000 
#    y 0.000000 1.827180 0.000000 
#    z 0.000000 0.000000 1.890490 
# 
# From -- ./inp_files/67476.got.cif
#   From: 2010.05.17/outbox.cif.g08.bks.cpg/sg63_34_cif.got.tgz:67476.got - 2010.06.03 15:47:04.
