data_PCOD9469862
_publ_section_title
;
Structure prediction by ZEFSAII (Michael W. Deem and Ramdas Pophale) SiO2 
 PCOD9469862
Probable space group: C M C M
;
_chemical_formula_sum "Si O2"
_cell_formula_units_Z 80
_cell_length_a 23.997288
_cell_length_b 5.050217
_cell_length_c 37.339266
_cell_angle_alpha 90.000000
_cell_angle_beta 90.000000
_cell_angle_gamma 90.000000
_cell_volume 4525.202096
_symmetry_space_group_name_H-M "C M C M"
_symmetry_group_IT_number 63
_symmetry_cell_setting 'orthorhombic'
loop_
_space_group_symop_operation_xyz
x,y,z
-x,-y,1/2+z
x,-y,-z
-x,y,1/2-z
-x,-y,-z
x,y,1/2-z
-x,y,z
x,-y,1/2+z
1/2+x,1/2+y,z
1/2-x,1/2-y,1/2+z
1/2+x,1/2-y,-z
1/2-x,1/2+y,1/2-z
1/2-x,1/2-y,-z
1/2+x,1/2+y,1/2-z
1/2-x,1/2+y,z
1/2+x,1/2-y,1/2+z
loop_
_atom_site_type_symbol
_atom_site_label
_atom_site_fract_x
_atom_site_fract_y
_atom_site_fract_z
Si Si1 0.209670 0.000000 0.500000
Si Si2 0.120540 0.558581 0.387510
Si Si3 0.287332 0.055156 0.250000
Si Si4 0.000000 0.053448 0.937288
Si Si5 0.000000 0.446788 0.110514
Si Si6 0.788861 0.443359 0.327561
Si Si7 0.621051 0.441764 0.937498
O O1 0.250000 0.750000 0.500000
O O2 0.169503 0.991484 0.534363
O O3 0.058596 0.514413 0.371408
O O4 0.167566 0.500773 0.358644
O O5 0.124790 0.348139 0.420096
O O6 0.125089 0.847451 0.405057
O O7 0.266523 0.357735 0.250000
O O8 0.314924 0.989207 0.287983
O O9 0.059477 0.986953 0.954538
O O10 0.000000 0.856335 0.902628
O O11 0.000000 0.357175 0.924307
O O12 0.761939 0.153383 0.330155
#
# Coordination Sequence:
#
# PCOD9469862 Si02
#       7
#     8  16   8   8   8  16  16
#     4  12  26  39  50  69 102 136 156 188 248 296
#     4  10  19  33  53  74  96 124 161 199 235 282
#     4   8  16  30  44  65  98 127 156 194 234 274
#     4   8  16  33  54  72  88 115 160 204 238 269
#     4   8  16  30  48  72  98 120 148 196 246 276
#     4  10  19  30  48  73  98 127 160 196 237 278
#     4  10  21  36  53  72  95 125 162 201 237 281
#
# _framework density 17.678768000000002
#
# number of rings (size 3 to 8) (size 9 to 14) (size 15 to 20)
#    0.000    2.400    0.000    2.400    0.000    5.200 
#    0.000    0.000    0.000    9.000    0.000    0.000 
#    0.000   19.200    0.000    0.000    0.000    3.200 
#
# Total GULP energy -222961.334682 kJ/mol
# GULP energy per Si atom -5574.033367 kJ/mol
# Density = 1.763853 g / cm^3
# Si number density = 17.678768 Si / 1000 Ang^3
#
#
#
# Elastic Constant Matrix: (Units=GPa)
#
#
# Indices 1 2 3 4 5 6 
#
# 1 106.4363 4.9092 42.2469 0.0000 0.0000 0.0000
# 2 4.9092 76.3138 -5.8467 0.0000 0.0000 0.0000
# 3 42.2469 -5.8467 53.9311 0.0000 0.0000 0.0000
# 4 0.0000 0.0000 0.0000 15.9185 0.0000 0.0000
# 5 0.0000 0.0000 0.0000 0.0000 -9.5378 0.0000
# 6 0.0000 0.0000 0.0000 0.0000 0.0000 23.0342
#
#
#
# Elastic Compliance Matrix: (Units=1/GPa)
#
#
# Indices 1 2 3 4 5 6 
#
# 1 0.013860 -0.001738 -0.011045 0.000000 0.000000 0.000000
# 2 -0.001738 0.013431 0.002817 0.000000 0.000000 0.000000
# 3 -0.011045 0.002817 0.027500 0.000000 0.000000 0.000000
# 4 0.000000 0.000000 0.000000 0.062820 0.000000 0.000000
# 5 0.000000 0.000000 0.000000 0.000000 -0.104846 0.000000
# 6 0.000000 0.000000 0.000000 0.000000 0.000000 0.043414
#
#
# Mechanical properties :
#
#
# Convention : Reuss Voigt Hill
#
# Bulk Modulus (GPa) = 28.68649 35.47776 32.08213
# Shear Modulus (GPa) = 56.99340 18.90777 37.95059
#
# Velocity S-wave (km/s) = 5.68404 3.27390 4.63825
# Velocity P-wave (km/s) = 7.70321 5.86539 6.84625
#
# Compressibility (1/GPa) = 0.03485961
#
# Stress axis : x y z
#
# Youngs Moduli (GPa) = 72.15242 74.45221 36.36377
#
# Poissons Ratio (x) = 0.12938 0.40165
# Poissons Ratio (y) = 0.12539 -0.10245
# Poissons Ratio (z) = 0.79694 -0.20976
#
# Static dielectric constant tensor:
#      x y z
#    x 1.618670 0.000000 0.000000 
#    y 0.000000 1.594530 0.000000 
#    z 0.000000 0.000000 1.595720 
# 
# From -- ./inp_files/74223.got.cif
#   From: 2010.05.17/outbox.cif.g08.bks.cpg/sg63_38_cif.got.tgz:74223.got - 2010.06.03 15:47:04.
