data_PCOD9469123
_publ_section_title
;
Structure prediction by ZEFSAII (Michael W. Deem and Ramdas Pophale) SiO2 
 PCOD9469123
Probable space group: C M C M
;
_chemical_formula_sum "Si O2"
_cell_formula_units_Z 48
_cell_length_a 25.561236
_cell_length_b 9.186494
_cell_length_c 8.492837
_cell_angle_alpha 90.000000
_cell_angle_beta 90.000000
_cell_angle_gamma 90.000000
_cell_volume 1994.272197
_symmetry_space_group_name_H-M "C M C M"
_symmetry_group_IT_number 63
_symmetry_cell_setting 'orthorhombic'
loop_
_space_group_symop_operation_xyz
x,y,z
-x,-y,1/2+z
x,-y,-z
-x,y,1/2-z
-x,-y,-z
x,y,1/2-z
-x,y,z
x,-y,1/2+z
1/2+x,1/2+y,z
1/2-x,1/2-y,1/2+z
1/2+x,1/2-y,-z
1/2-x,1/2+y,1/2-z
1/2-x,1/2-y,-z
1/2+x,1/2+y,1/2-z
1/2-x,1/2+y,z
1/2+x,1/2-y,1/2+z
loop_
_atom_site_type_symbol
_atom_site_label
_atom_site_fract_x
_atom_site_fract_y
_atom_site_fract_z
Si Si1 0.681936 0.000000 0.000000
Si Si2 0.390202 0.233571 0.931718
Si Si3 0.677535 0.561840 0.250000
Si Si4 0.000000 0.332032 0.938630
Si Si5 0.249097 0.672705 0.750000
O O1 0.640959 0.125891 0.047474
O O2 0.719876 0.097392 0.895355
O O3 0.391583 0.167895 0.750000
O O4 0.356508 0.377056 0.895227
O O5 0.448410 0.246037 0.993642
O O6 0.693347 0.394467 0.250000
O O7 0.731558 0.659692 0.250000
O O8 0.000000 0.331784 0.750000
O O9 0.000000 0.500000 0.000000
#
# Coordination Sequence:
#
# PCOD9469123 Si02
#       5
#     8  16   8   8   8
#     4  10  18  31  52  74 114 147 184 226 262 330
#     4   9  19  33  46  76 104 150 176 228 273 336
#     4   8  20  37  56  76 116 153 184 230 270 328
#     4  12  22  28  52  74 114 144 182 219 290 351
#     4  10  20  34  54  76 112 158 188 222 278 314
#
# _framework density 24.068932
#
# number of rings (size 3 to 8) (size 9 to 14) (size 15 to 20)
#    1.000    1.333    3.333    1.500    2.333    5.333 
#    0.000    0.000    3.667    0.000    0.000    0.000 
#    0.000   45.333    0.000    1.000    0.000    0.000 
#
# Total GULP energy -133720.572465 kJ/mol
# GULP energy per Si atom -5571.690519 kJ/mol
# Density = 2.401415 g / cm^3
# Si number density = 24.068932 Si / 1000 Ang^3
#
#
#
# Elastic Constant Matrix: (Units=GPa)
#
#
# Indices 1 2 3 4 5 6 
#
# 1 132.8624 63.8640 12.0598 0.0000 0.0000 0.0000
# 2 63.8640 99.6193 31.7257 0.0000 0.0000 0.0000
# 3 12.0598 31.7257 83.1703 0.0000 0.0000 0.0000
# 4 0.0000 0.0000 0.0000 32.5854 0.0000 0.0000
# 5 0.0000 0.0000 0.0000 0.0000 -769.0731 0.0000
# 6 0.0000 0.0000 0.0000 0.0000 0.0000 2.5381
#
#
#
# Elastic Compliance Matrix: (Units=1/GPa)
#
#
# Indices 1 2 3 4 5 6 
#
# 1 0.010991 -0.007443 0.001245 0.000000 0.000000 0.000000
# 2 -0.007443 0.016466 -0.005202 0.000000 0.000000 0.000000
# 3 0.001245 -0.005202 0.013827 0.000000 0.000000 0.000000
# 4 0.000000 0.000000 0.000000 0.030689 0.000000 0.000000
# 5 0.000000 0.000000 0.000000 0.000000 -0.001300 0.000000
# 6 0.000000 0.000000 0.000000 0.000000 0.000000 0.393993
#
#
# Mechanical properties :
#
#
# Convention : Reuss Voigt Hill
#
# Bulk Modulus (GPa) = 54.09519 58.99457 56.54488
# Shear Modulus (GPa) = 10.12911 -132.92308 -61.39698
#
# Velocity S-wave (km/s) = 2.05366 -7.43948 -5.05610
# Velocity P-wave (km/s) = 5.30540 7.01645 3.24680
#
# Compressibility (1/GPa) = 0.01848593
#
# Stress axis : x y z
#
# Youngs Moduli (GPa) = 90.98232 60.73002 72.32096
#
# Poissons Ratio (x) = 0.45200 -0.09007
# Poissons Ratio (y) = 0.67717 0.37621
# Poissons Ratio (z) = -0.11331 0.31591
#
# Static dielectric constant tensor:
#      x y z
#    x 1.928580 0.000000 0.000000 
#    y 0.000000 1.887000 0.000000 
#    z 0.000000 0.000000 1.995120 
# 
# From -- ./inp_files/11334.got.cif
#   From: 2010.05.17/outbox.cif.g08.bks.cpg/sg63_6_cif.got.tgz:11334.got - 2010.06.03 15:47:04.
