data_PCOD9469005
_publ_section_title
;
Structure prediction by ZEFSAII (Michael W. Deem and Ramdas Pophale) SiO2 
 PCOD9469005
Probable space group: C M C M
;
_chemical_formula_sum "Si O2"
_cell_formula_units_Z 96
_cell_length_a 7.563152
_cell_length_b 25.931919
_cell_length_c 24.501633
_cell_angle_alpha 90.000000
_cell_angle_beta 90.000000
_cell_angle_gamma 90.000000
_cell_volume 4805.432879
_symmetry_space_group_name_H-M "C M C M"
_symmetry_group_IT_number 63
_symmetry_cell_setting 'orthorhombic'
loop_
_space_group_symop_operation_xyz
x,y,z
-x,-y,1/2+z
x,-y,-z
-x,y,1/2-z
-x,-y,-z
x,y,1/2-z
-x,y,z
x,-y,1/2+z
1/2+x,1/2+y,z
1/2-x,1/2-y,1/2+z
1/2+x,1/2-y,-z
1/2-x,1/2+y,1/2-z
1/2-x,1/2-y,-z
1/2+x,1/2+y,1/2-z
1/2-x,1/2+y,z
1/2+x,1/2-y,1/2+z
loop_
_atom_site_type_symbol
_atom_site_label
_atom_site_fract_x
_atom_site_fract_y
_atom_site_fract_z
Si Si1 0.282479 0.859937 0.250000
Si Si2 0.289352 0.483786 0.630626
Si Si3 0.216597 0.108817 0.442151
Si Si4 0.790428 0.521446 0.750000
Si Si5 0.212585 0.773648 0.559473
Si Si6 0.213402 0.082821 0.563901
Si Si7 0.789879 0.683503 0.864713
O O1 0.500000 0.860605 0.250000
O O2 0.221597 0.919560 0.250000
O O3 0.222000 0.831689 0.194998
O O4 0.500000 0.483675 0.622233
O O5 0.223966 0.430391 0.604835
O O6 0.259887 0.492765 0.694458
O O7 0.219420 0.533007 0.596672
O O8 0.277690 0.167732 0.436288
O O9 0.271478 0.086949 0.501261
O O10 0.000000 0.110172 0.442148
O O11 0.000000 0.525753 0.750000
O O12 0.250000 0.750000 0.500000
O O13 0.281955 0.734186 0.605230
O O14 0.000000 0.775500 0.564697
O O15 0.262628 0.134594 0.595938
O O16 0.000000 0.080262 0.563151
O O17 0.000000 0.690960 0.858632
#
# Coordination Sequence:
#
# PCOD9469005 Si02
#       7
#     8  16  16   8  16  16  16
#     4   9  18  33  50  69 101 135 165 207 254 299
#     4  10  20  34  53  77 104 136 175 213 252 309
#     4   9  18  33  51  76 108 138 168 209 258 305
#     4  11  21  35  54  73 101 139 171 213 264 305
#     4  10  19  32  53  77 103 134 171 210 254 306
#     4  10  18  30  52  78 105 134 166 210 259 305
#     4  10  19  32  51  76 103 135 171 209 256 306
#
# _framework density 19.977388999999999
#
# number of rings (size 3 to 8) (size 9 to 14) (size 15 to 20)
#    0.000    2.167    3.333    0.750    0.000    2.000 
#    0.000    2.917    0.000    6.000    0.000    0.000 
#    0.000    0.000    0.000    0.000    0.000    0.000 
#
# Total GULP energy -268031.030138 kJ/mol
# GULP energy per Si atom -5583.979795 kJ/mol
# Density = 1.993192 g / cm^3
# Si number density = 19.977389 Si / 1000 Ang^3
#
#
#
# Elastic Constant Matrix: (Units=GPa)
#
#
# Indices 1 2 3 4 5 6 
#
# 1 42.7398 -0.9480 -3.9653 0.0000 0.0000 0.0000
# 2 -0.9480 181.4245 116.6452 0.0000 0.0000 0.0000
# 3 -3.9653 116.6452 191.5416 0.0000 0.0000 0.0000
# 4 0.0000 0.0000 0.0000 31.7004 0.0000 0.0000
# 5 0.0000 0.0000 0.0000 0.0000 7.1748 0.0000
# 6 0.0000 0.0000 0.0000 0.0000 0.0000 10.2189
#
#
#
# Elastic Compliance Matrix: (Units=1/GPa)
#
#
# Indices 1 2 3 4 5 6 
#
# 1 0.023453 -0.000312 0.000675 0.000000 0.000000 0.000000
# 2 -0.000312 0.009063 -0.005526 0.000000 0.000000 0.000000
# 3 0.000675 -0.005526 0.008600 0.000000 0.000000 0.000000
# 4 0.000000 0.000000 0.000000 0.031545 0.000000 0.000000
# 5 0.000000 0.000000 0.000000 0.000000 0.139377 0.000000
# 6 0.000000 0.000000 0.000000 0.000000 0.000000 0.097858
#
#
# Mechanical properties :
#
#
# Convention : Reuss Voigt Hill
#
# Bulk Modulus (GPa) = 32.47600 71.01887 51.74744
# Shear Modulus (GPa) = 15.12936 30.08376 22.60656
#
# Velocity S-wave (km/s) = 2.75494 3.88479 3.36759
# Velocity P-wave (km/s) = 5.13919 7.46652 6.40938
#
# Compressibility (1/GPa) = 0.03079197
#
# Stress axis : x y z
#
# Youngs Moduli (GPa) = 42.63822 110.33942 116.28221
#
# Poissons Ratio (x) = 0.03439 -0.07853
# Poissons Ratio (y) = 0.01329 0.64253
# Poissons Ratio (z) = -0.02879 0.60969
#
# Static dielectric constant tensor:
#      x y z
#    x 1.759150 0.000000 0.000000 
#    y 0.000000 1.696180 0.000000 
#    z 0.000000 0.000000 1.613680 
# 
# From -- ./inp_files/60082.got.cif
#   From: 2010.05.17/outbox.cif.g08.bks.cpg/sg63_31_cif.got.tgz:60082.got - 2010.06.03 15:47:04.
