data_PCOD9469182
_publ_section_title
;
Structure prediction by ZEFSAII (Michael W. Deem and Ramdas Pophale) SiO2 
 PCOD9469182
Probable space group: C M C M
;
_chemical_formula_sum "Si O2"
_cell_formula_units_Z 80
_cell_length_a 20.689820
_cell_length_b 9.186148
_cell_length_c 19.362073
_cell_angle_alpha 90.000000
_cell_angle_beta 90.000000
_cell_angle_gamma 90.000000
_cell_volume 3679.950727
_symmetry_space_group_name_H-M "C M C M"
_symmetry_group_IT_number 63
_symmetry_cell_setting 'orthorhombic'
loop_
_space_group_symop_operation_xyz
x,y,z
-x,-y,1/2+z
x,-y,-z
-x,y,1/2-z
-x,-y,-z
x,y,1/2-z
-x,y,z
x,-y,1/2+z
1/2+x,1/2+y,z
1/2-x,1/2-y,1/2+z
1/2+x,1/2-y,-z
1/2-x,1/2+y,1/2-z
1/2-x,1/2-y,-z
1/2+x,1/2+y,1/2-z
1/2-x,1/2+y,z
1/2+x,1/2-y,1/2+z
loop_
_atom_site_type_symbol
_atom_site_label
_atom_site_fract_x
_atom_site_fract_y
_atom_site_fract_z
Si Si1 0.657591 0.820225 0.250000
Si Si2 0.761900 0.400760 0.750000
Si Si3 0.574415 0.046687 0.627874
Si Si4 0.301914 0.725522 0.885846
Si Si5 0.183970 0.637328 0.532403
Si Si6 0.928736 0.797483 0.167257
O O1 0.688827 0.660074 0.250000
O O2 0.611668 0.865201 0.312982
O O3 0.720534 0.928987 0.250000
O O4 0.793005 0.338236 0.821501
O O5 0.500000 0.089516 0.623127
O O6 0.615774 0.085795 0.561017
O O7 0.575384 0.872832 0.643400
O O8 0.228500 0.682608 0.903619
O O9 0.362719 0.629741 0.860293
O O10 0.322805 0.765384 0.964597
O O11 0.221265 0.500000 0.500000
O O12 0.927381 0.799008 0.250000
O O13 0.000000 0.852553 0.145220
#
# Coordination Sequence:
#
# PCOD9469182 Si02
#       6
#     8   8  16  16  16  16
#     4  12  21  38  60  96 127 157 215 253 304 360
#     4  12  22  38  64  86 120 163 205 255 301 356
#     4  11  20  33  56  87 125 159 192 253 316 357
#     4  11  21  35  55  79 116 155 194 245 298 363
#     4  11  22  35  51  82 120 154 197 240 300 372
#     4  10  18  31  54  83 115 148 197 254 306 357
#
# _framework density 21.739421
#
# number of rings (size 3 to 8) (size 9 to 14) (size 15 to 20)
#    0.000    1.000    8.000    0.300    0.000    1.200 
#    0.000    0.000    0.000    0.600    0.000   11.200 
#    0.000    0.000    0.000    0.000    0.000    0.000 
#
# Total GULP energy -222701.495245 kJ/mol
# GULP energy per Si atom -5567.537381 kJ/mol
# Density = 2.168994 g / cm^3
# Si number density = 21.739421 Si / 1000 Ang^3
#
#
#
# Elastic Constant Matrix: (Units=GPa)
#
#
# Indices 1 2 3 4 5 6 
#
# 1 148.5825 20.1571 58.1262 0.0000 0.0000 0.0000
# 2 20.1571 16.6632 17.4926 0.0000 0.0000 0.0000
# 3 58.1262 17.4926 129.0701 0.0000 0.0000 0.0000
# 4 0.0000 0.0000 0.0000 18.4418 0.0000 0.0000
# 5 0.0000 0.0000 0.0000 0.0000 13.4736 0.0000
# 6 0.0000 0.0000 0.0000 0.0000 0.0000 20.8720
#
#
#
# Elastic Compliance Matrix: (Units=1/GPa)
#
#
# Indices 1 2 3 4 5 6 
#
# 1 0.008940 -0.007681 -0.002985 0.000000 0.000000 0.000000
# 2 -0.007681 0.076566 -0.006918 0.000000 0.000000 0.000000
# 3 -0.002985 -0.006918 0.010030 0.000000 0.000000 0.000000
# 4 0.000000 0.000000 0.000000 0.054225 0.000000 0.000000
# 5 0.000000 0.000000 0.000000 0.000000 0.074219 0.000000
# 6 0.000000 0.000000 0.000000 0.000000 0.000000 0.047911
#
#
# Mechanical properties :
#
#
# Convention : Reuss Voigt Hill
#
# Bulk Modulus (GPa) = 16.56506 53.98529 35.27518
# Shear Modulus (GPa) = 15.28208 23.79348 19.53778
#
# Velocity S-wave (km/s) = 2.65423 3.31189 3.00113
# Velocity P-wave (km/s) = 4.12669 6.28583 5.31701
#
# Compressibility (1/GPa) = 0.06036801
#
# Stress axis : x y z
#
# Youngs Moduli (GPa) = 111.85576 13.06064 99.70450
#
# Poissons Ratio (x) = 0.10032 0.29763
# Poissons Ratio (y) = 0.85915 0.68973
# Poissons Ratio (z) = 0.33391 0.09035
#
# Static dielectric constant tensor:
#      x y z
#    x 1.847010 0.000000 0.000000 
#    y 0.000000 1.928310 0.000000 
#    z 0.000000 0.000000 1.939920 
# 
# From -- ./inp_files/46862.got.cif
#   From: 2010.05.17/outbox.cif.g08.bks.cpg/sg63_24_cif.got.tgz:46862.got - 2010.06.03 15:47:04.
