data_PCOD9469926
_publ_section_title
;
Structure prediction by ZEFSAII (Michael W. Deem and Ramdas Pophale) SiO2 
 PCOD9469926
Probable space group: C M C M
;
_chemical_formula_sum "Si O2"
_cell_formula_units_Z 96
_cell_length_a 26.237877
_cell_length_b 26.310564
_cell_length_c 8.089699
_cell_angle_alpha 90.000000
_cell_angle_beta 90.000000
_cell_angle_gamma 90.000000
_cell_volume 5584.588947
_symmetry_space_group_name_H-M "C M C M"
_symmetry_group_IT_number 63
_symmetry_cell_setting 'orthorhombic'
loop_
_space_group_symop_operation_xyz
x,y,z
-x,-y,1/2+z
x,-y,-z
-x,y,1/2-z
-x,-y,-z
x,y,1/2-z
-x,y,z
x,-y,1/2+z
1/2+x,1/2+y,z
1/2-x,1/2-y,1/2+z
1/2+x,1/2-y,-z
1/2-x,1/2+y,1/2-z
1/2-x,1/2-y,-z
1/2+x,1/2+y,1/2-z
1/2-x,1/2+y,z
1/2+x,1/2-y,1/2+z
loop_
_atom_site_type_symbol
_atom_site_label
_atom_site_fract_x
_atom_site_fract_y
_atom_site_fract_z
Si Si1 0.668515 0.752471 0.949815
Si Si2 0.756077 0.831262 0.950159
Si Si3 0.444142 0.753167 0.556224
Si Si4 0.243200 0.055496 0.061603
Si Si5 0.630074 0.448394 0.057067
Si Si6 0.057352 0.861046 0.943722
O O1 0.666515 0.752691 0.750000
O O2 0.710393 0.793898 0.003864
O O3 0.611902 0.766983 0.012407
O O4 0.691434 0.697306 0.999546
O O5 0.756623 0.833332 0.750000
O O6 0.746475 0.888561 0.015025
O O7 0.444714 0.767115 0.750000
O O8 0.500000 0.769255 0.485744
O O9 0.442607 0.692288 0.537453
O O10 0.260091 0.058379 0.250000
O O11 0.181936 0.053460 0.047078
O O12 0.261400 0.000000 0.000000
O O13 0.643246 0.450891 0.250000
O O14 0.602586 0.500000 0.000000
O O15 0.596601 0.399923 0.019507
O O16 0.068609 0.851745 0.750000
O O17 0.000000 0.882073 0.954481
#
# Coordination Sequence:
#
# PCOD9469926 Si02
#       6
#    16  16  16  16  16  16
#     4   9  17  29  45  65  89 116 144 175 213 256
#     4   9  18  30  44  64  89 116 144 176 214 255
#     4   9  17  29  45  64  85 110 140 173 209 251
#     4  10  19  31  46  63  85 111 141 175 211 254
#     4  11  21  32  45  59  77 102 135 174 214 254
#     4  10  20  32  44  58  78 105 137 173 212 251
#
# _framework density 17.190163999999999
#
# number of rings (size 3 to 8) (size 9 to 14) (size 15 to 20)
#    0.000    2.333    0.000    4.500    0.000    6.000 
#    0.000    0.000    0.000    0.000    0.000    0.000 
#    0.000    0.667    0.000    0.500    0.000    1.000 
#
# Total GULP energy -267229.334407 kJ/mol
# GULP energy per Si atom -5567.277800 kJ/mol
# Density = 1.715104 g / cm^3
# Si number density = 17.190164 Si / 1000 Ang^3
#
#
#
# Elastic Constant Matrix: (Units=GPa)
#
#
# Indices 1 2 3 4 5 6 
#
# 1 86.2319 19.0472 0.6379 0.0000 0.0000 0.0000
# 2 19.0472 86.3057 2.7178 0.0000 0.0000 0.0000
# 3 0.6379 2.7178 18.4727 0.0000 0.0000 0.0000
# 4 0.0000 0.0000 0.0000 8.4402 0.0000 0.0000
# 5 0.0000 0.0000 0.0000 0.0000 11.3118 0.0000
# 6 0.0000 0.0000 0.0000 0.0000 0.0000 17.9767
#
#
#
# Elastic Compliance Matrix: (Units=1/GPa)
#
#
# Indices 1 2 3 4 5 6 
#
# 1 0.012191 -0.002690 -0.000025 0.000000 0.000000 0.000000
# 2 -0.002690 0.012234 -0.001707 0.000000 0.000000 0.000000
# 3 -0.000025 -0.001707 0.054386 0.000000 0.000000 0.000000
# 4 0.000000 0.000000 0.000000 0.118480 0.000000 0.000000
# 5 0.000000 0.000000 0.000000 0.000000 0.088403 0.000000
# 6 0.000000 0.000000 0.000000 0.000000 0.000000 0.055628
#
#
# Mechanical properties :
#
#
# Convention : Reuss Voigt Hill
#
# Bulk Modulus (GPa) = 14.29246 26.20180 20.24713
# Shear Modulus (GPa) = 13.38729 18.78623 16.08676
#
# Velocity S-wave (km/s) = 2.79368 3.30941 3.06242
# Velocity P-wave (km/s) = 4.32881 5.46611 4.93036
#
# Compressibility (1/GPa) = 0.06996697
#
# Stress axis : x y z
#
# Youngs Moduli (GPa) = 82.02825 81.73891 18.38710
#
# Poissons Ratio (x) = 0.21985 0.00046
# Poissons Ratio (y) = 0.22063 0.03139
# Poissons Ratio (z) = 0.00207 0.13953
#
# Static dielectric constant tensor:
#      x y z
#    x 1.620230 0.000000 0.000000 
#    y 0.000000 1.619290 0.000000 
#    z 0.000000 0.000000 1.630250 
# 
# From -- ./inp_files/10725.got.cif
#   From: 2010.05.17/outbox.cif.g08.bks.cpg/sg63_6_cif.got.tgz:10725.got - 2010.06.03 15:47:04.
