data_PCOD9469393
_publ_section_title
;
Structure prediction by ZEFSAII (Michael W. Deem and Ramdas Pophale) SiO2 
 PCOD9469393
Probable space group: C M C M
;
_chemical_formula_sum "Si O2"
_cell_formula_units_Z 96
_cell_length_a 11.327165
_cell_length_b 20.474557
_cell_length_c 25.202937
_cell_angle_alpha 90.000000
_cell_angle_beta 90.000000
_cell_angle_gamma 90.000000
_cell_volume 5845.032018
_symmetry_space_group_name_H-M "C M C M"
_symmetry_group_IT_number 63
_symmetry_cell_setting 'orthorhombic'
loop_
_space_group_symop_operation_xyz
x,y,z
-x,-y,1/2+z
x,-y,-z
-x,y,1/2-z
-x,-y,-z
x,y,1/2-z
-x,y,z
x,-y,1/2+z
1/2+x,1/2+y,z
1/2-x,1/2-y,1/2+z
1/2+x,1/2-y,-z
1/2-x,1/2+y,1/2-z
1/2-x,1/2-y,-z
1/2+x,1/2+y,1/2-z
1/2-x,1/2+y,z
1/2+x,1/2-y,1/2+z
loop_
_atom_site_type_symbol
_atom_site_label
_atom_site_fract_x
_atom_site_fract_y
_atom_site_fract_z
Si Si1 0.139512 0.061335 0.534269
Si Si2 0.865056 0.854351 0.750000
Si Si3 0.246964 0.320698 0.526085
Si Si4 0.136897 0.012977 0.750000
Si Si5 0.500000 0.892607 0.509875
Si Si6 0.500000 0.985278 0.090281
Si Si7 0.355772 0.362718 0.866582
Si Si8 0.255307 0.510334 0.637920
O O1 0.172536 0.127938 0.505857
O O2 0.000000 0.053719 0.536792
O O3 0.189304 0.000000 0.500000
O O4 0.190384 0.056082 0.592791
O O5 0.866458 0.933569 0.750000
O O6 0.816848 0.837240 0.808157
O O7 0.000000 0.830966 0.750000
O O8 0.250000 0.250000 0.500000
O O9 0.116065 0.350335 0.521108
O O10 0.297426 0.322636 0.585831
O O11 0.204513 0.031548 0.803638
O O12 0.000000 0.034637 0.750000
O O13 0.500000 0.952852 0.550825
O O14 0.500000 0.923312 0.450264
O O15 0.383696 0.989023 0.126462
O O16 0.500000 0.363173 0.869401
O O17 0.309877 0.437607 0.871387
#
# Coordination Sequence:
#
# PCOD9469393 Si02
#       8
#    16   8  16   8   8   8  16  16
#     4  11  20  34  57  82 106 138 184 231 276 328
#     4   7  14  28  51  76 103 137 171 226 282 315
#     4  12  25  36  54  82 114 150 183 235 284 331
#     4   9  18  31  51  82 115 140 180 242 286 317
#     4  11  22  40  52  76 121 154 188 218 281 350
#     4  11  20  35  58  78 112 161 187 218 272 354
#     4  10  18  33  54  81 110 139 185 236 280 326
#     4  11  19  33  54  83 110 148 186 226 284 332
#
# _framework density 16.424205000000001
#
# number of rings (size 3 to 8) (size 9 to 14) (size 15 to 20)
#    0.000    1.500    5.000    3.000    2.333    0.333 
#    0.000    0.000    0.000    1.500    0.000    0.000 
#    0.000    0.000    0.000    0.000    0.000    0.000 
#
# Total GULP energy -267667.571201 kJ/mol
# GULP energy per Si atom -5576.407733 kJ/mol
# Density = 1.638682 g / cm^3
# Si number density = 16.424205 Si / 1000 Ang^3
#
#
#
# Elastic Constant Matrix: (Units=GPa)
#
#
# Indices 1 2 3 4 5 6 
#
# 1 117.5599 14.4341 54.5186 0.0000 0.0000 0.0000
# 2 14.4341 56.3168 40.3189 0.0000 0.0000 0.0000
# 3 54.5186 40.3189 173.5121 0.0000 0.0000 0.0000
# 4 0.0000 0.0000 0.0000 16.6678 0.0000 0.0000
# 5 0.0000 0.0000 0.0000 0.0000 26.8780 0.0000
# 6 0.0000 0.0000 0.0000 0.0000 0.0000 -8.8257
#
#
#
# Elastic Compliance Matrix: (Units=1/GPa)
#
#
# Indices 1 2 3 4 5 6 
#
# 1 0.009964 -0.000375 -0.003044 0.000000 0.000000 0.000000
# 2 -0.000375 0.021314 -0.004835 0.000000 0.000000 0.000000
# 3 -0.003044 -0.004835 0.007843 0.000000 0.000000 0.000000
# 4 0.000000 0.000000 0.000000 0.059996 0.000000 0.000000
# 5 0.000000 0.000000 0.000000 0.000000 0.037205 0.000000
# 6 0.000000 0.000000 0.000000 0.000000 0.000000 -0.113306
#
#
# Mechanical properties :
#
#
# Convention : Reuss Voigt Hill
#
# Bulk Modulus (GPa) = 44.21955 62.88132 53.55043
# Shear Modulus (GPa) = 106.24341 22.81849 64.53095
#
# Velocity S-wave (km/s) = 8.05155 3.73140 6.27499
# Velocity P-wave (km/s) = 10.64981 7.54542 9.22908
#
# Compressibility (1/GPa) = 0.02261443
#
# Stress axis : x y z
#
# Youngs Moduli (GPa) = 100.36340 46.91692 127.50026
#
# Poissons Ratio (x) = 0.01758 0.38806
# Poissons Ratio (y) = 0.03761 0.61647
# Poissons Ratio (z) = 0.30547 0.22685
#
# Static dielectric constant tensor:
#      x y z
#    x 1.573600 0.000000 0.000000 
#    y 0.000000 0.959250 0.000000 
#    z 0.000000 0.000000 1.523300 
# 
# From -- ./inp_files/61585.got.cif
#   From: 2010.05.17/outbox.cif.g08.bks.cpg/sg63_31_cif.got.tgz:61585.got - 2010.06.03 15:47:04.
