data_PCOD9469296
_publ_section_title
;
Structure prediction by ZEFSAII (Michael W. Deem and Ramdas Pophale) SiO2 
 PCOD9469296
Probable space group: C M C M
;
_chemical_formula_sum "Si O2"
_cell_formula_units_Z 80
_cell_length_a 28.838700
_cell_length_b 17.845077
_cell_length_c 8.679690
_cell_angle_alpha 90.000000
_cell_angle_beta 90.000000
_cell_angle_gamma 90.000000
_cell_volume 4466.818641
_symmetry_space_group_name_H-M "C M C M"
_symmetry_group_IT_number 63
_symmetry_cell_setting 'orthorhombic'
loop_
_space_group_symop_operation_xyz
x,y,z
-x,-y,1/2+z
x,-y,-z
-x,y,1/2-z
-x,-y,-z
x,y,1/2-z
-x,y,z
x,-y,1/2+z
1/2+x,1/2+y,z
1/2-x,1/2-y,1/2+z
1/2+x,1/2-y,-z
1/2-x,1/2+y,1/2-z
1/2-x,1/2-y,-z
1/2+x,1/2+y,1/2-z
1/2-x,1/2+y,z
1/2+x,1/2-y,1/2+z
loop_
_atom_site_type_symbol
_atom_site_label
_atom_site_fract_x
_atom_site_fract_y
_atom_site_fract_z
Si Si1 0.056101 0.576898 0.424805
Si Si2 0.711134 0.418081 0.565555
Si Si3 0.215900 0.685458 0.934663
Si Si4 0.553788 0.237581 0.567257
Si Si5 0.144372 0.789751 0.067198
O O1 0.073774 0.500000 0.500000
O O2 0.073238 0.586401 0.250000
O O3 0.064324 0.651304 0.523002
O O4 0.000000 0.570009 0.416875
O O5 0.701116 0.500000 0.500000
O O6 0.712200 0.417411 0.750000
O O7 0.760666 0.389380 0.499600
O O8 0.672508 0.358878 0.506892
O O9 0.216002 0.685429 0.750000
O O10 0.250000 0.750000 0.000000
O O11 0.166886 0.713322 0.998905
O O12 0.558823 0.247535 0.750000
O O13 0.500000 0.251682 0.525067
O O14 0.590696 0.288481 0.478941
O O15 0.150902 0.791321 0.250000
#
# Coordination Sequence:
#
# PCOD9469296 Si02
#       5
#    16  16  16  16  16
#     4   9  16  27  44  66  92 124 163 208 257 307
#     4  11  21  36  57  83 112 142 177 217 265 320
#     4  10  18  32  53  78 106 137 171 209 257 311
#     4  10  20  34  52  75 104 141 185 230 273 318
#     4  11  21  35  55  80 109 143 181 221 267 317
#
# _framework density 17.909838000000001
#
# number of rings (size 3 to 8) (size 9 to 14) (size 15 to 20)
#    0.000    1.800    0.000    9.000    0.000    3.600 
#    0.000    1.000    0.000    0.600    0.000    0.000 
#    0.000    0.000    0.000    0.000    0.000    0.000 
#
# Total GULP energy -223181.516909 kJ/mol
# GULP energy per Si atom -5579.537923 kJ/mol
# Density = 1.786907 g / cm^3
# Si number density = 17.909838 Si / 1000 Ang^3
#
#
#
# Elastic Constant Matrix: (Units=GPa)
#
#
# Indices 1 2 3 4 5 6 
#
# 1 86.5628 39.9598 48.3185 0.0000 0.0000 0.0000
# 2 39.9598 86.8546 42.2897 0.0000 0.0000 0.0000
# 3 48.3185 42.2897 167.3070 0.0000 0.0000 0.0000
# 4 0.0000 0.0000 0.0000 28.9797 0.0000 0.0000
# 5 0.0000 0.0000 0.0000 0.0000 24.8092 0.0000
# 6 0.0000 0.0000 0.0000 0.0000 0.0000 13.4252
#
#
#
# Elastic Compliance Matrix: (Units=1/GPa)
#
#
# Indices 1 2 3 4 5 6 
#
# 1 0.016000 -0.005829 -0.003147 0.000000 0.000000 0.000000
# 2 -0.005829 0.015253 -0.002172 0.000000 0.000000 0.000000
# 3 -0.003147 -0.002172 0.007435 0.000000 0.000000 0.000000
# 4 0.000000 0.000000 0.000000 0.034507 0.000000 0.000000
# 5 0.000000 0.000000 0.000000 0.000000 0.040308 0.000000
# 6 0.000000 0.000000 0.000000 0.000000 0.000000 0.074487
#
#
# Mechanical properties :
#
#
# Convention : Reuss Voigt Hill
#
# Bulk Modulus (GPa) = 61.00823 66.87336 63.94079
# Shear Modulus (GPa) = 23.17507 27.45326 25.31416
#
# Velocity S-wave (km/s) = 3.60110 3.91942 3.76363
# Velocity P-wave (km/s) = 7.17138 7.60937 7.39361
#
# Compressibility (1/GPa) = 0.01639123
#
# Stress axis : x y z
#
# Youngs Moduli (GPa) = 62.50048 65.56211 134.49790
#
# Poissons Ratio (x) = 0.38214 0.42333
# Poissons Ratio (y) = 0.36429 0.29214
# Poissons Ratio (z) = 0.19672 0.14240
#
# Static dielectric constant tensor:
#      x y z
#    x 1.679180 0.000000 0.000000 
#    y 0.000000 1.635450 0.000000 
#    z 0.000000 0.000000 1.602000 
# 
# From -- ./inp_files/12040.got.cif
#   From: 2010.05.17/outbox.cif.g08.bks.cpg/sg63_7_cif.got.tgz:12040.got - 2010.06.03 15:47:04.
