data_PCOD9469725
_publ_section_title
;
Structure prediction by ZEFSAII (Michael W. Deem and Ramdas Pophale) SiO2 
 PCOD9469725
Probable space group: C M C M
;
_chemical_formula_sum "Si O2"
_cell_formula_units_Z 112
_cell_length_a 33.279776
_cell_length_b 32.235035
_cell_length_c 8.853295
_cell_angle_alpha 90.000000
_cell_angle_beta 90.000000
_cell_angle_gamma 90.000000
_cell_volume 9497.591279
_symmetry_space_group_name_H-M "C M C M"
_symmetry_group_IT_number 63
_symmetry_cell_setting 'orthorhombic'
loop_
_space_group_symop_operation_xyz
x,y,z
-x,-y,1/2+z
x,-y,-z
-x,y,1/2-z
-x,-y,-z
x,y,1/2-z
-x,y,z
x,-y,1/2+z
1/2+x,1/2+y,z
1/2-x,1/2-y,1/2+z
1/2+x,1/2-y,-z
1/2-x,1/2+y,1/2-z
1/2-x,1/2-y,-z
1/2+x,1/2+y,1/2-z
1/2-x,1/2+y,z
1/2+x,1/2-y,1/2+z
loop_
_atom_site_type_symbol
_atom_site_label
_atom_site_fract_x
_atom_site_fract_y
_atom_site_fract_z
Si Si1 0.000000 0.082638 0.431386
Si Si2 0.000000 0.174717 0.570645
Si Si3 0.132219 0.884552 0.926821
Si Si4 0.724685 0.211767 0.568376
Si Si5 0.652654 0.746924 0.574360
Si Si6 0.581063 0.455396 0.070115
Si Si7 0.418441 0.700437 0.428469
Si Si8 0.202704 0.839870 0.074837
O O1 0.039485 0.060476 0.496310
O O2 0.000000 0.081437 0.250000
O O3 0.000000 0.130126 0.487496
O O4 0.959937 0.198228 0.518142
O O5 0.000000 0.168195 0.750000
O O6 0.130102 0.895046 0.750000
O O7 0.104149 0.843892 0.951253
O O8 0.114495 0.921677 0.025011
O O9 0.176997 0.871120 0.974505
O O10 0.723914 0.215357 0.750000
O O11 0.750000 0.250000 0.500000
O O12 0.680348 0.217942 0.501724
O O13 0.751616 0.171440 0.530223
O O14 0.645575 0.756011 0.750000
O O15 0.611791 0.735586 0.488552
O O16 0.678648 0.704062 0.567762
O O17 0.576622 0.458022 0.250000
O O18 0.590766 0.500000 0.000000
O O19 0.425523 0.704971 0.250000
O O20 0.202007 0.853097 0.250000
#
# Coordination Sequence:
#
# PCOD9469725 Si02
#       8
#     8   8  16  16  16  16  16  16
#     4  12  23  37  50  62  75  86 110 140 176 220
#     4  12  22  31  45  60  74  92 115 144 180 216
#     4  10  19  30  44  59  74  90 112 138 168 209
#     4   9  15  23  35  52  73  94 116 136 161 193
#     4   9  16  25  37  53  73  93 116 139 165 198
#     4  12  24  37  50  61  74  90 110 139 178 220
#     4  10  19  30  43  56  73  93 115 142 172 208
#     4   8  15  25  37  53  73  94 114 135 161 196
#
# _framework density 11.792463
#
# number of rings (size 3 to 8) (size 9 to 14) (size 15 to 20)
#    0.000    2.000    1.429    5.357    0.000    5.143 
#    0.000    0.000    0.000    0.000    0.000    0.000 
#    0.000    0.000    0.000    0.000    0.000    0.000 
#
# Total GULP energy -312184.136172 kJ/mol
# GULP energy per Si atom -5574.716717 kJ/mol
# Density = 1.176562 g / cm^3
# Si number density = 11.792463 Si / 1000 Ang^3
#
#
#
# Elastic Constant Matrix: (Units=GPa)
#
#
# Indices 1 2 3 4 5 6 
#
# 1 60.5637 32.2418 44.1583 0.0000 0.0000 0.0000
# 2 32.2418 26.4158 26.9336 0.0000 0.0000 0.0000
# 3 44.1583 26.9336 88.7010 0.0000 0.0000 0.0000
# 4 0.0000 0.0000 0.0000 14.1359 0.0000 0.0000
# 5 0.0000 0.0000 0.0000 0.0000 21.0329 0.0000
# 6 0.0000 0.0000 0.0000 0.0000 0.0000 2.7378
#
#
#
# Elastic Compliance Matrix: (Units=1/GPa)
#
#
# Indices 1 2 3 4 5 6 
#
# 1 0.052269 -0.053977 -0.009632 0.000000 0.000000 0.000000
# 2 -0.053977 0.110572 -0.006703 0.000000 0.000000 0.000000
# 3 -0.009632 -0.006703 0.018104 0.000000 0.000000 0.000000
# 4 0.000000 0.000000 0.000000 0.070742 0.000000 0.000000
# 5 0.000000 0.000000 0.000000 0.000000 0.047544 0.000000
# 6 0.000000 0.000000 0.000000 0.000000 0.000000 0.365261
#
#
# Mechanical properties :
#
#
# Convention : Reuss Voigt Hill
#
# Bulk Modulus (GPa) = 24.80023 42.48312 33.64168
# Shear Modulus (GPa) = 6.10831 12.40443 9.25637
#
# Velocity S-wave (km/s) = 2.27840 3.24681 2.80472
# Velocity P-wave (km/s) = 5.29128 7.08234 6.25129
#
# Compressibility (1/GPa) = 0.04032220
#
# Stress axis : x y z
#
# Youngs Moduli (GPa) = 19.13163 9.04388 55.23586
#
# Poissons Ratio (x) = 0.48816 0.53201
# Poissons Ratio (y) = 1.03267 0.37025
# Poissons Ratio (z) = 0.18427 0.06062
#
# Static dielectric constant tensor:
#      x y z
#    x 1.397600 0.000000 0.000000 
#    y 0.000000 1.359070 0.000000 
#    z 0.000000 0.000000 1.392480 
# 
# From -- ./inp_files/15005.got.cif
#   From: 2010.05.17/outbox.cif.g08.bks.cpg/sg63_8_cif.got.tgz:15005.got - 2010.06.03 15:47:04.
