data_PCOD9469336
_publ_section_title
;
Structure prediction by ZEFSAII (Michael W. Deem and Ramdas Pophale) SiO2 
 PCOD9469336
Probable space group: C M C M
;
_chemical_formula_sum "Si O2"
_cell_formula_units_Z 72
_cell_length_a 14.945357
_cell_length_b 20.248614
_cell_length_c 14.282677
_cell_angle_alpha 90.000000
_cell_angle_beta 90.000000
_cell_angle_gamma 90.000000
_cell_volume 4322.263205
_symmetry_space_group_name_H-M "C M C M"
_symmetry_group_IT_number 63
_symmetry_cell_setting 'orthorhombic'
loop_
_space_group_symop_operation_xyz
x,y,z
-x,-y,1/2+z
x,-y,-z
-x,y,1/2-z
-x,-y,-z
x,y,1/2-z
-x,y,z
x,-y,1/2+z
1/2+x,1/2+y,z
1/2-x,1/2-y,1/2+z
1/2+x,1/2-y,-z
1/2-x,1/2+y,1/2-z
1/2-x,1/2-y,-z
1/2+x,1/2+y,1/2-z
1/2-x,1/2+y,z
1/2+x,1/2-y,1/2+z
loop_
_atom_site_type_symbol
_atom_site_label
_atom_site_fract_x
_atom_site_fract_y
_atom_site_fract_z
Si Si1 0.305743 0.006541 0.750000
Si Si2 0.302639 0.631443 0.250000
Si Si3 0.801532 0.432467 0.451087
Si Si4 0.500000 0.963115 0.250000
Si Si5 0.500000 0.270038 0.945845
Si Si6 0.801939 0.186991 0.040554
Si Si7 0.500000 0.339149 0.750000
Si Si8 0.000000 0.387974 0.055081
O O1 0.292224 0.051671 0.658572
O O2 0.412033 0.992184 0.750000
O O3 0.251150 0.937870 0.750000
O O4 0.287113 0.672110 0.152517
O O5 0.409578 0.618635 0.250000
O O6 0.775934 0.500000 0.500000
O O7 0.737894 0.375067 0.486081
O O8 0.904423 0.415174 0.480721
O O9 0.500000 0.914767 0.161264
O O10 0.406702 0.300532 0.980688
O O11 0.500000 0.290696 0.837683
O O12 0.500000 0.190933 0.954809
O O13 0.750000 0.250000 0.000000
#
# Coordination Sequence:
#
# PCOD9469336 Si02
#       8
#     8   8  16   4   8  16   4   8
#     4  10  20  36  56  83 119 150 191 236 290 341
#     4  10  20  38  58  83 115 150 191 236 288 341
#     4  11  21  36  58  86 116 152 192 233 287 344
#     4   8  19  30  52  88 116 145 190 236 278 333
#     4  10  19  35  56  84 113 144 192 239 283 332
#     4  11  22  38  60  86 116 152 191 238 287 342
#     4   8  19  32  56  80 106 141 200 236 270 323
#     4  10  18  32  55  83 117 147 185 237 284 334
#
# _framework density 16.65794
#
# number of rings (size 3 to 8) (size 9 to 14) (size 15 to 20)
#    0.000    1.778    4.444    0.667    0.000    0.889 
#    0.000    2.778    0.000    1.333    0.000    0.000 
#    0.000    0.000    0.000    0.000    0.000    0.000 
#
# Total GULP energy -200469.961242 kJ/mol
# GULP energy per Si atom -5568.610035 kJ/mol
# Density = 1.662003 g / cm^3
# Si number density = 16.657940 Si / 1000 Ang^3
#
#
#
# Elastic Constant Matrix: (Units=GPa)
#
#
# Indices 1 2 3 4 5 6 
#
# 1 116.7571 79.6387 53.5494 0.0000 0.0000 0.0000
# 2 79.6387 146.9075 44.3983 0.0000 0.0000 0.0000
# 3 53.5494 44.3983 90.1172 0.0000 0.0000 0.0000
# 4 0.0000 0.0000 0.0000 13.5154 0.0000 0.0000
# 5 0.0000 0.0000 0.0000 0.0000 25.8435 0.0000
# 6 0.0000 0.0000 0.0000 0.0000 0.0000 36.9914
#
#
#
# Elastic Compliance Matrix: (Units=1/GPa)
#
#
# Indices 1 2 3 4 5 6 
#
# 1 0.016063 -0.006842 -0.006174 0.000000 0.000000 0.000000
# 2 -0.006842 0.010912 -0.001310 0.000000 0.000000 0.000000
# 3 -0.006174 -0.001310 0.015411 0.000000 0.000000 0.000000
# 4 0.000000 0.000000 0.000000 0.073990 0.000000 0.000000
# 5 0.000000 0.000000 0.000000 0.000000 0.038694 0.000000
# 6 0.000000 0.000000 0.000000 0.000000 0.000000 0.027033
#
#
# Mechanical properties :
#
#
# Convention : Reuss Voigt Hill
#
# Bulk Modulus (GPa) = 72.81643 78.77273 75.79458
# Shear Modulus (GPa) = 23.21961 27.01644 25.11802
#
# Velocity S-wave (km/s) = 3.73756 4.03157 3.88734
# Velocity P-wave (km/s) = 7.90148 8.31038 8.10851
#
# Compressibility (1/GPa) = 0.01373316
#
# Stress axis : x y z
#
# Youngs Moduli (GPa) = 62.25322 91.64142 64.88787
#
# Poissons Ratio (x) = 0.62701 0.40064
# Poissons Ratio (y) = 0.42594 0.08503
# Poissons Ratio (z) = 0.38437 0.12009
#
# Static dielectric constant tensor:
#      x y z
#    x 1.588440 0.000000 0.000000 
#    y 0.000000 1.526910 0.000000 
#    z 0.000000 0.000000 1.533740 
# 
# From -- ./inp_files/31545.got.cif
#   From: 2010.05.17/outbox.cif.g08.bks.cpg/sg63_16_cif.got.tgz:31545.got - 2010.06.03 15:47:04.
