data_PCOD9469674
_publ_section_title
;
Structure prediction by ZEFSAII (Michael W. Deem and Ramdas Pophale) SiO2 
 PCOD9469674
Probable space group: C M C M
;
_chemical_formula_sum "Si O2"
_cell_formula_units_Z 96
_cell_length_a 7.454254
_cell_length_b 24.494367
_cell_length_c 26.297678
_cell_angle_alpha 90.000000
_cell_angle_beta 90.000000
_cell_angle_gamma 90.000000
_cell_volume 4801.620265
_symmetry_space_group_name_H-M "C M C M"
_symmetry_group_IT_number 63
_symmetry_cell_setting 'orthorhombic'
loop_
_space_group_symop_operation_xyz
x,y,z
-x,-y,1/2+z
x,-y,-z
-x,y,1/2-z
-x,-y,-z
x,y,1/2-z
-x,y,z
x,-y,1/2+z
1/2+x,1/2+y,z
1/2-x,1/2-y,1/2+z
1/2+x,1/2-y,-z
1/2-x,1/2+y,1/2-z
1/2-x,1/2-y,-z
1/2+x,1/2+y,1/2-z
1/2-x,1/2+y,z
1/2+x,1/2-y,1/2+z
loop_
_atom_site_type_symbol
_atom_site_label
_atom_site_fract_x
_atom_site_fract_y
_atom_site_fract_z
Si Si1 0.715118 0.812965 0.307180
Si Si2 0.214558 0.185944 0.500617
Si Si3 0.780483 0.118270 0.402522
Si Si4 0.218766 0.810754 0.691927
Si Si5 0.780988 0.000718 0.059396
Si Si6 0.786510 0.883838 0.404484
O O1 0.779947 0.825645 0.250000
O O2 0.500000 0.810274 0.304811
O O3 0.776003 0.751388 0.320911
O O4 0.758570 0.856885 0.349849
O O5 0.250000 0.250000 0.500000
O O6 0.278844 0.155543 0.449937
O O7 0.284350 0.156150 0.551253
O O8 0.000000 0.179485 0.500572
O O9 0.721368 0.146094 0.350092
O O10 0.723137 0.056363 0.413304
O O11 0.000000 0.118341 0.402060
O O12 0.273649 0.822372 0.750000
O O13 0.000000 0.810972 0.691443
O O14 0.000000 0.001467 0.059576
O O15 0.719297 0.945222 0.086536
O O16 0.727829 0.000000 0.000000
O O17 0.000000 0.887147 0.411688
#
# Coordination Sequence:
#
# PCOD9469674 Si02
#       6
#    16  16  16  16  16  16
#     4   9  18  33  51  69  93 127 159 187 231 290
#     4  10  19  29  44  68  95 123 155 193 238 286
#     4   9  15  25  43  64  88 121 156 188 229 278
#     4   8  14  25  42  64  87 113 151 195 232 269
#     4   9  15  27  44  63  91 128 160 185 227 287
#     4  10  19  30  47  72  97 121 157 201 240 279
#
# _framework density 19.99325
#
# number of rings (size 3 to 8) (size 9 to 14) (size 15 to 20)
#    0.000    2.833    1.667    2.000    0.000    2.333 
#    0.000    0.833    0.000    4.500    0.000    0.000 
#    0.000    0.000    0.000    0.000    0.000    0.000 
#
# Total GULP energy -267880.411693 kJ/mol
# GULP energy per Si atom -5580.841910 kJ/mol
# Density = 1.994774 g / cm^3
# Si number density = 19.993250 Si / 1000 Ang^3
#
#
#
# Elastic Constant Matrix: (Units=GPa)
#
#
# Indices 1 2 3 4 5 6 
#
# 1 57.2765 4.2333 2.5023 0.0000 0.0000 0.0000
# 2 4.2333 227.3499 142.3628 0.0000 0.0000 0.0000
# 3 2.5023 142.3628 171.9213 0.0000 0.0000 0.0000
# 4 0.0000 0.0000 0.0000 28.6769 0.0000 0.0000
# 5 0.0000 0.0000 0.0000 0.0000 3.7001 0.0000
# 6 0.0000 0.0000 0.0000 0.0000 0.0000 1.4876
#
#
#
# Elastic Compliance Matrix: (Units=1/GPa)
#
#
# Indices 1 2 3 4 5 6 
#
# 1 0.017483 -0.000345 0.000031 0.000000 0.000000 0.000000
# 2 -0.000345 0.009142 -0.007565 0.000000 0.000000 0.000000
# 3 0.000031 -0.007565 0.012081 0.000000 0.000000 0.000000
# 4 0.000000 0.000000 0.000000 0.034871 0.000000 0.000000
# 5 0.000000 0.000000 0.000000 0.000000 0.270264 0.000000
# 6 0.000000 0.000000 0.000000 0.000000 0.000000 0.672232
#
#
# Mechanical properties :
#
#
# Convention : Reuss Voigt Hill
#
# Bulk Modulus (GPa) = 43.57681 83.86049 63.71865
# Shear Modulus (GPa) = 4.81009 27.26954 16.03981
#
# Velocity S-wave (km/s) = 1.55276 3.69716 2.83549
# Velocity P-wave (km/s) = 5.00578 7.76278 6.53141
#
# Compressibility (1/GPa) = 0.02294798
#
# Stress axis : x y z
#
# Youngs Moduli (GPa) = 57.19737 109.38197 82.77560
#
# Poissons Ratio (x) = 0.03776 -0.00260
# Poissons Ratio (y) = 0.01974 0.62623
# Poissons Ratio (z) = -0.00179 0.82752
#
# Static dielectric constant tensor:
#      x y z
#    x 1.795690 0.000000 0.000000 
#    y 0.000000 1.681790 0.000000 
#    z 0.000000 0.000000 1.703240 
# 
# From -- ./inp_files/59842.got.cif
#   From: 2010.05.17/outbox.cif.g08.bks.cpg/sg63_30_cif.got.tgz:59842.got - 2010.06.03 15:47:04.
