data_PCOD9469344
_publ_section_title
;
Structure prediction by ZEFSAII (Michael W. Deem and Ramdas Pophale) SiO2 
 PCOD9469344
Probable space group: C M C M
;
_chemical_formula_sum "Si O2"
_cell_formula_units_Z 84
_cell_length_a 22.022424
_cell_length_b 10.193629
_cell_length_c 21.610119
_cell_angle_alpha 90.000000
_cell_angle_beta 90.000000
_cell_angle_gamma 90.000000
_cell_volume 4851.221469
_symmetry_space_group_name_H-M "C M C M"
_symmetry_group_IT_number 63
_symmetry_cell_setting 'orthorhombic'
loop_
_space_group_symop_operation_xyz
x,y,z
-x,-y,1/2+z
x,-y,-z
-x,y,1/2-z
-x,-y,-z
x,y,1/2-z
-x,y,z
x,-y,1/2+z
1/2+x,1/2+y,z
1/2-x,1/2-y,1/2+z
1/2+x,1/2-y,-z
1/2-x,1/2+y,1/2-z
1/2-x,1/2-y,-z
1/2+x,1/2+y,1/2-z
1/2-x,1/2+y,z
1/2+x,1/2-y,1/2+z
loop_
_atom_site_type_symbol
_atom_site_label
_atom_site_fract_x
_atom_site_fract_y
_atom_site_fract_z
Si Si1 0.390785 0.323355 0.179183
Si Si2 0.834697 0.462316 0.676442
Si Si3 0.500000 0.302972 0.952947
Si Si4 0.400274 0.776766 0.138190
Si Si5 0.000000 0.894011 0.410554
Si Si6 0.696134 0.434221 0.822866
Si Si7 0.000000 0.250369 0.250000
O O1 0.413805 0.337541 0.250000
O O2 0.441774 0.363727 0.131071
O O3 0.334575 0.422954 0.173281
O O4 0.369698 0.174681 0.169945
O O5 0.832076 0.493871 0.750000
O O6 0.869770 0.581169 0.644723
O O7 0.765381 0.442468 0.655176
O O8 0.440397 0.237635 0.923383
O O9 0.500000 0.453441 0.928918
O O10 0.500000 0.310031 0.026722
O O11 0.347168 0.668489 0.142748
O O12 0.446722 0.753150 0.195416
O O13 0.697271 0.395178 0.750000
#
# Coordination Sequence:
#
# PCOD9469344 Si02
#       7
#    16  16   8  16   8  16   4
#     4  10  21  34  57  87 113 144 178 231 286 331
#     4  10  20  34  52  86 122 149 173 226 291 331
#     4  10  24  37  62  77 105 154 191 230 284 322
#     4  11  19  35  55  84 109 148 192 225 270 333
#     4  11  21  42  57  81 111 141 190 241 274 337
#     4  10  18  32  56  83 115 148 183 228 275 330
#     4  10  20  28  52  78 114 136 184 234 256 302
#
# _framework density 17.315227
#
# number of rings (size 3 to 8) (size 9 to 14) (size 15 to 20)
#    0.000    1.714    3.810    1.429    0.000    4.571 
#    0.000    1.905    0.000    6.857    0.000    0.000 
#    0.000    0.000    0.000    0.000    0.000    0.000 
#
# Total GULP energy -233933.881710 kJ/mol
# GULP energy per Si atom -5569.854326 kJ/mol
# Density = 1.727582 g / cm^3
# Si number density = 17.315227 Si / 1000 Ang^3
#
#
#
# Elastic Constant Matrix: (Units=GPa)
#
#
# Indices 1 2 3 4 5 6 
#
# 1 104.6832 22.3820 42.0451 0.0000 0.0000 0.0000
# 2 22.3820 78.2881 23.9096 0.0000 0.0000 0.0000
# 3 42.0451 23.9096 69.5416 0.0000 0.0000 0.0000
# 4 0.0000 0.0000 0.0000 17.9870 0.0000 0.0000
# 5 0.0000 0.0000 0.0000 0.0000 30.1380 0.0000
# 6 0.0000 0.0000 0.0000 0.0000 0.0000 18.4501
#
#
#
# Elastic Compliance Matrix: (Units=1/GPa)
#
#
# Indices 1 2 3 4 5 6 
#
# 1 0.012761 -0.001444 -0.007219 0.000000 0.000000 0.000000
# 2 -0.001444 0.014435 -0.004090 0.000000 0.000000 0.000000
# 3 -0.007219 -0.004090 0.020151 0.000000 0.000000 0.000000
# 4 0.000000 0.000000 0.000000 0.055596 0.000000 0.000000
# 5 0.000000 0.000000 0.000000 0.000000 0.033181 0.000000
# 6 0.000000 0.000000 0.000000 0.000000 0.000000 0.054200
#
#
# Mechanical properties :
#
#
# Convention : Reuss Voigt Hill
#
# Bulk Modulus (GPa) = 45.78486 47.68737 46.73611
# Shear Modulus (GPa) = 22.41054 24.26008 23.33531
#
# Velocity S-wave (km/s) = 3.60150 3.74717 3.67505
# Velocity P-wave (km/s) = 6.61768 6.80604 6.71252
#
# Compressibility (1/GPa) = 0.02184128
#
# Stress axis : x y z
#
# Youngs Moduli (GPa) = 78.36595 69.27492 49.62595
#
# Poissons Ratio (x) = 0.10000 0.35824
# Poissons Ratio (y) = 0.11312 0.20299
# Poissons Ratio (z) = 0.56571 0.28336
#
# Static dielectric constant tensor:
#      x y z
#    x 1.576500 0.000000 0.000000 
#    y 0.000000 1.587460 0.000000 
#    z 0.000000 0.000000 1.568660 
# 
# From -- ./inp_files/57290.got.cif
#   From: 2010.05.17/outbox.cif.g08.bks.cpg/sg63_29_cif.got.tgz:57290.got - 2010.06.03 15:47:04.
