data_PCOD9469235
_publ_section_title
;
Structure prediction by ZEFSAII (Michael W. Deem and Ramdas Pophale) SiO2 
 PCOD9469235
Probable space group: C M C M
;
_chemical_formula_sum "Si O2"
_cell_formula_units_Z 60
_cell_length_a 28.071783
_cell_length_b 15.839784
_cell_length_c 5.511020
_cell_angle_alpha 90.000000
_cell_angle_beta 90.000000
_cell_angle_gamma 90.000000
_cell_volume 2450.480439
_symmetry_space_group_name_H-M "C M C M"
_symmetry_group_IT_number 63
_symmetry_cell_setting 'orthorhombic'
loop_
_space_group_symop_operation_xyz
x,y,z
-x,-y,1/2+z
x,-y,-z
-x,y,1/2-z
-x,-y,-z
x,y,1/2-z
-x,y,z
x,-y,1/2+z
1/2+x,1/2+y,z
1/2-x,1/2-y,1/2+z
1/2+x,1/2-y,-z
1/2-x,1/2+y,1/2-z
1/2-x,1/2-y,-z
1/2+x,1/2+y,1/2-z
1/2-x,1/2+y,z
1/2+x,1/2-y,1/2+z
loop_
_atom_site_type_symbol
_atom_site_label
_atom_site_fract_x
_atom_site_fract_y
_atom_site_fract_z
Si Si1 0.945072 0.327994 0.750000
Si Si2 0.204080 0.675028 0.750000
Si Si3 0.000000 0.945074 0.250000
Si Si4 0.590098 0.180336 0.750000
Si Si5 0.883113 0.497012 0.750000
Si Si6 0.248576 0.863520 0.750000
Si Si7 0.146132 0.088401 0.250000
Si Si8 0.606345 0.601849 0.750000
O O1 0.932236 0.284307 0.496046
O O2 0.911829 0.410557 0.750000
O O3 0.000000 0.350432 0.750000
O O4 0.147115 0.682361 0.750000
O O5 0.225242 0.769612 0.750000
O O6 0.222292 0.632464 0.500669
O O7 0.950698 0.893339 0.250000
O O8 0.000000 0.000000 0.500000
O O9 0.581428 0.077686 0.750000
O O10 0.855259 0.500000 0.500000
O O11 0.202723 0.924137 0.750000
O O12 0.130595 0.132992 0.500767
O O13 0.119049 0.998777 0.250000
#
# Coordination Sequence:
#
# PCOD9469235 Si02
#       8
#     8   8   4   8   8   8   8   8
#     4  10  19  31  51  79 103 138 175 205 244 313
#     4  10  21  38  57  81  95 134 184 234 258 323
#     4  12  16  30  48  84 108 154 168 222 232 306
#     4  10  19  32  52  73 103 130 166 219 267 290
#     4   8  16  27  44  66 101 125 158 199 238 298
#     4  10  21  37  60  77 101 129 189 224 270 302
#     4  10  18  32  51  77 107 140 164 226 251 318
#     4  10  19  30  53  79 118 135 184 194 260 326
#
# _framework density 24.484997
#
# number of rings (size 3 to 8) (size 9 to 14) (size 15 to 20)
#    0.000    2.133    2.667    2.000    0.000    4.800 
#    0.000    0.000   52.800    0.000   13.867    0.000 
#    0.000    0.000    0.000    0.000    0.000    0.000 
#
# Total GULP energy -167624.991771 kJ/mol
# GULP energy per Si atom -5587.499726 kJ/mol
# Density = 2.442927 g / cm^3
# Si number density = 24.484997 Si / 1000 Ang^3
#
#
#
# Elastic Constant Matrix: (Units=GPa)
#
#
# Indices 1 2 3 4 5 6 
#
# 1 144.6195 5.3352 64.7368 0.0000 0.0000 0.0000
# 2 5.3352 61.2415 -0.9015 0.0000 0.0000 0.0000
# 3 64.7368 -0.9015 301.7522 0.0000 0.0000 0.0000
# 4 0.0000 0.0000 0.0000 -16.3330 0.0000 0.0000
# 5 0.0000 0.0000 0.0000 0.0000 46.1207 0.0000
# 6 0.0000 0.0000 0.0000 0.0000 0.0000 14.7817
#
#
#
# Elastic Compliance Matrix: (Units=1/GPa)
#
#
# Indices 1 2 3 4 5 6 
#
# 1 0.007679 -0.000693 -0.001649 0.000000 0.000000 0.000000
# 2 -0.000693 0.016392 0.000198 0.000000 0.000000 0.000000
# 3 -0.001649 0.000198 0.003668 0.000000 0.000000 0.000000
# 4 0.000000 0.000000 0.000000 -0.061226 0.000000 0.000000
# 5 0.000000 0.000000 0.000000 0.000000 0.021682 0.000000
# 6 0.000000 0.000000 0.000000 0.000000 0.000000 0.067651
#
#
# Mechanical properties :
#
#
# Convention : Reuss Voigt Hill
#
# Bulk Modulus (GPa) = 42.64529 71.77268 57.20899
# Shear Modulus (GPa) = 73.57999 38.14339 55.86169
#
# Velocity S-wave (km/s) = 5.48783 3.95121 4.78165
# Velocity P-wave (km/s) = 7.59011 7.08468 7.34175
#
# Compressibility (1/GPa) = 0.02344925
#
# Stress axis : x y z
#
# Youngs Moduli (GPa) = 130.23205 61.00505 272.59649
#
# Poissons Ratio (x) = 0.04229 0.44962
# Poissons Ratio (y) = 0.09028 -0.05389
# Poissons Ratio (z) = 0.21481 -0.01206
#
# Static dielectric constant tensor:
#      x y z
#    x 1.855740 0.000000 0.000000 
#    y 0.000000 2.440480 0.000000 
#    z 0.000000 0.000000 1.848800 
# 
# From -- ./inp_files/984.got.cif
#   From: 2010.05.17/outbox.cif.g08.bks.cpg/sg63_1_cif.got.tgz:984.got - 2010.06.03 15:47:04.
