data_PCOD9469815
_publ_section_title
;
Structure prediction by ZEFSAII (Michael W. Deem and Ramdas Pophale) SiO2 
 PCOD9469815
Probable space group: C M C M
;
_chemical_formula_sum "Si O2"
_cell_formula_units_Z 96
_cell_length_a 15.185084
_cell_length_b 12.127015
_cell_length_c 26.972352
_cell_angle_alpha 90.000000
_cell_angle_beta 90.000000
_cell_angle_gamma 90.000000
_cell_volume 4966.951647
_symmetry_space_group_name_H-M "C M C M"
_symmetry_group_IT_number 63
_symmetry_cell_setting 'orthorhombic'
loop_
_space_group_symop_operation_xyz
x,y,z
-x,-y,1/2+z
x,-y,-z
-x,y,1/2-z
-x,-y,-z
x,y,1/2-z
-x,y,z
x,-y,1/2+z
1/2+x,1/2+y,z
1/2-x,1/2-y,1/2+z
1/2+x,1/2-y,-z
1/2-x,1/2+y,1/2-z
1/2-x,1/2-y,-z
1/2+x,1/2+y,1/2-z
1/2-x,1/2+y,z
1/2+x,1/2-y,1/2+z
loop_
_atom_site_type_symbol
_atom_site_label
_atom_site_fract_x
_atom_site_fract_y
_atom_site_fract_z
Si Si1 0.106253 0.031716 0.391118
Si Si2 0.352703 0.666766 0.544514
Si Si3 0.654982 0.747886 0.063110
Si Si4 0.107555 0.859484 0.306673
Si Si5 0.401684 0.830196 0.626125
Si Si6 0.101955 0.511750 0.944192
O O1 0.143992 0.154330 0.395883
O O2 0.000000 0.038115 0.392294
O O3 0.137963 0.958202 0.437842
O O4 0.132920 0.960056 0.342920
O O5 0.377040 0.693545 0.488432
O O6 0.254421 0.711625 0.554327
O O7 0.408734 0.739969 0.582342
O O8 0.604697 0.861846 0.071527
O O9 0.134811 0.874127 0.250000
O O10 0.139399 0.742836 0.329965
O O11 0.000000 0.855055 0.308079
O O12 0.500000 0.864915 0.642616
O O13 0.357282 0.933539 0.598158
O O14 0.000000 0.474922 0.948814
O O15 0.141312 0.500000 0.000000
#
# Coordination Sequence:
#
# PCOD9469815 Si02
#       6
#    16  16  16  16  16  16
#     4  10  21  35  53  78 103 133 178 224 264 307
#     4  10  21  32  47  70 103 142 176 205 248 300
#     4  11  22  31  48  72 108 141 172 208 252 307
#     4   8  15  31  56  80  99 125 170 225 269 306
#     4   9  17  31  51  75  98 127 172 212 246 298
#     4  10  19  30  47  68 101 141 172 202 244 305
#
# _framework density 19.327750000000002
#
# number of rings (size 3 to 8) (size 9 to 14) (size 15 to 20)
#    0.000    2.333    1.667    2.500    2.333    2.667 
#    0.000    0.000    0.000    5.000    0.000    4.667 
#    0.000    0.000    0.000    0.000    0.000    0.000 
#
# Total GULP energy -267568.331386 kJ/mol
# GULP energy per Si atom -5574.340237 kJ/mol
# Density = 1.928376 g / cm^3
# Si number density = 19.327750 Si / 1000 Ang^3
#
#
#
# Elastic Constant Matrix: (Units=GPa)
#
#
# Indices 1 2 3 4 5 6 
#
# 1 29.9246 -0.8810 0.9887 0.0000 0.0000 0.0000
# 2 -0.8810 152.6183 53.8622 0.0000 0.0000 0.0000
# 3 0.9887 53.8622 99.7743 0.0000 0.0000 0.0000
# 4 0.0000 0.0000 0.0000 17.6838 0.0000 0.0000
# 5 0.0000 0.0000 0.0000 0.0000 13.8252 0.0000
# 6 0.0000 0.0000 0.0000 0.0000 0.0000 24.2644
#
#
#
# Elastic Compliance Matrix: (Units=1/GPa)
#
#
# Indices 1 2 3 4 5 6 
#
# 1 0.033446 0.000383 -0.000538 0.000000 0.000000 0.000000
# 2 0.000383 0.008099 -0.004376 0.000000 0.000000 0.000000
# 3 -0.000538 -0.004376 0.012390 0.000000 0.000000 0.000000
# 4 0.000000 0.000000 0.000000 0.056549 0.000000 0.000000
# 5 0.000000 0.000000 0.000000 0.000000 0.072332 0.000000
# 6 0.000000 0.000000 0.000000 0.000000 0.000000 0.041213
#
#
# Mechanical properties :
#
#
# Convention : Reuss Voigt Hill
#
# Bulk Modulus (GPa) = 22.28496 43.36188 32.82342
# Shear Modulus (GPa) = 20.15734 26.37784 23.26759
#
# Velocity S-wave (km/s) = 3.23293 3.69828 3.47341
# Velocity P-wave (km/s) = 5.04885 6.38123 5.75374
#
# Compressibility (1/GPa) = 0.04487331
#
# Stress axis : x y z
#
# Youngs Moduli (GPa) = 29.89862 123.47441 80.70873
#
# Poissons Ratio (x) = -0.04729 0.04344
# Poissons Ratio (y) = -0.01145 0.35317
# Poissons Ratio (z) = 0.01609 0.54031
#
# Static dielectric constant tensor:
#      x y z
#    x 1.749510 0.000000 0.000000 
#    y 0.000000 1.704490 0.000000 
#    z 0.000000 0.000000 1.678240 
# 
# From -- ./inp_files/63714.got.cif
#   From: 2010.05.17/outbox.cif.g08.bks.cpg/sg63_32_cif.got.tgz:63714.got - 2010.06.03 15:47:04.
