data_PCOD9469748
_publ_section_title
;
Structure prediction by ZEFSAII (Michael W. Deem and Ramdas Pophale) SiO2 
 PCOD9469748
Probable space group: C M C M
;
_chemical_formula_sum "Si O2"
_cell_formula_units_Z 80
_cell_length_a 24.245730
_cell_length_b 26.946812
_cell_length_c 8.751596
_cell_angle_alpha 90.000000
_cell_angle_beta 90.000000
_cell_angle_gamma 90.000000
_cell_volume 5717.812610
_symmetry_space_group_name_H-M "C M C M"
_symmetry_group_IT_number 63
_symmetry_cell_setting 'orthorhombic'
loop_
_space_group_symop_operation_xyz
x,y,z
-x,-y,1/2+z
x,-y,-z
-x,y,1/2-z
-x,-y,-z
x,y,1/2-z
-x,y,z
x,-y,1/2+z
1/2+x,1/2+y,z
1/2-x,1/2-y,1/2+z
1/2+x,1/2-y,-z
1/2-x,1/2+y,1/2-z
1/2-x,1/2-y,-z
1/2+x,1/2+y,1/2-z
1/2-x,1/2+y,z
1/2+x,1/2-y,1/2+z
loop_
_atom_site_type_symbol
_atom_site_label
_atom_site_fract_x
_atom_site_fract_y
_atom_site_fract_z
Si Si1 0.000000 0.398529 0.064394
Si Si2 0.500000 0.782897 0.066365
Si Si3 0.684142 0.142778 0.066686
Si Si4 0.115794 0.554165 0.932951
Si Si5 0.116107 0.743089 0.067054
Si Si6 0.214592 0.795634 0.933236
O O1 0.055626 0.425964 0.013678
O O2 0.000000 0.398691 0.250000
O O3 0.000000 0.340968 0.016759
O O4 0.500000 0.781510 0.250000
O O5 0.555390 0.758350 0.002411
O O6 0.680398 0.137109 0.250000
O O7 0.646277 0.190717 0.025254
O O8 0.747434 0.156929 0.028422
O O9 0.660199 0.094565 0.986590
O O10 0.115103 0.551768 0.750000
O O11 0.126201 0.500000 0.000000
O O12 0.114451 0.745629 0.250000
O O13 0.154386 0.787237 0.002799
O O14 0.212195 0.791708 0.750000
O O15 0.250000 0.750000 0.000000
#
# Coordination Sequence:
#
# PCOD9469748 Si02
#       6
#     8   8  16  16  16  16
#     4   9  19  32  44  60  79 109 149 188 226 262
#     4  11  19  30  46  64  87 116 151 185 221 262
#     4   9  18  31  45  62  83 108 141 180 221 262
#     4  11  21  33  46  61  82 110 148 189 230 267
#     4  10  19  30  44  65  88 112 144 179 219 263
#     4   9  17  29  45  64  85 109 139 176 217 263
#
# _framework density 13.991365
#
# number of rings (size 3 to 8) (size 9 to 14) (size 15 to 20)
#    0.000    2.200    2.000    3.600    0.000    4.000 
#    0.000    1.500    0.000    0.000    0.000    0.000 
#    0.000    0.000    0.000    0.900    0.000   12.000 
#
# Total GULP energy -222986.070171 kJ/mol
# GULP energy per Si atom -5574.651754 kJ/mol
# Density = 1.395952 g / cm^3
# Si number density = 13.991365 Si / 1000 Ang^3
#
#
#
# Elastic Constant Matrix: (Units=GPa)
#
#
# Indices 1 2 3 4 5 6 
#
# 1 124.4596 65.5731 47.3785 0.0000 0.0000 0.0000
# 2 65.5731 72.0955 33.3363 0.0000 0.0000 0.0000
# 3 47.3785 33.3363 45.4875 0.0000 0.0000 0.0000
# 4 0.0000 0.0000 0.0000 18.2614 0.0000 0.0000
# 5 0.0000 0.0000 0.0000 0.0000 23.5382 0.0000
# 6 0.0000 0.0000 0.0000 0.0000 0.0000 12.7045
#
#
#
# Elastic Compliance Matrix: (Units=1/GPa)
#
#
# Indices 1 2 3 4 5 6 
#
# 1 0.018135 -0.011738 -0.010286 0.000000 0.000000 0.000000
# 2 -0.011738 0.028577 -0.008718 0.000000 0.000000 0.000000
# 3 -0.010286 -0.008718 0.039087 0.000000 0.000000 0.000000
# 4 0.000000 0.000000 0.000000 0.054760 0.000000 0.000000
# 5 0.000000 0.000000 0.000000 0.000000 0.042484 0.000000
# 6 0.000000 0.000000 0.000000 0.000000 0.000000 0.078712
#
#
# Mechanical properties :
#
#
# Convention : Reuss Voigt Hill
#
# Bulk Modulus (GPa) = 41.12620 59.40204 50.26412
# Shear Modulus (GPa) = 15.09006 17.28446 16.18726
#
# Velocity S-wave (km/s) = 3.28766 3.51859 3.40508
# Velocity P-wave (km/s) = 6.62340 7.68477 7.17374
#
# Compressibility (1/GPa) = 0.02431540
#
# Stress axis : x y z
#
# Youngs Moduli (GPa) = 55.14312 34.99292 25.58398
#
# Poissons Ratio (x) = 0.41074 0.26317
# Poissons Ratio (y) = 0.64725 0.22303
# Poissons Ratio (z) = 0.56722 0.30506
#
# Static dielectric constant tensor:
#      x y z
#    x 1.458980 0.000000 0.000000 
#    y 0.000000 1.436700 0.000000 
#    z 0.000000 0.000000 1.463100 
# 
# From -- ./inp_files/8076.got.cif
#   From: 2010.05.17/outbox.cif.g08.bks.cpg/sg63_5_cif.got.tgz:8076.got - 2010.06.03 15:47:04.
