data_PCOD9469887
_publ_section_title
;
Structure prediction by ZEFSAII (Michael W. Deem and Ramdas Pophale) SiO2 
 PCOD9469887
Probable space group: C M C M
;
_chemical_formula_sum "Si O2"
_cell_formula_units_Z 80
_cell_length_a 8.402199
_cell_length_b 21.408385
_cell_length_c 18.543466
_cell_angle_alpha 90.000000
_cell_angle_beta 90.000000
_cell_angle_gamma 90.000000
_cell_volume 3335.552510
_symmetry_space_group_name_H-M "C M C M"
_symmetry_group_IT_number 63
_symmetry_cell_setting 'orthorhombic'
loop_
_space_group_symop_operation_xyz
x,y,z
-x,-y,1/2+z
x,-y,-z
-x,y,1/2-z
-x,-y,-z
x,y,1/2-z
-x,y,z
x,-y,1/2+z
1/2+x,1/2+y,z
1/2-x,1/2-y,1/2+z
1/2+x,1/2-y,-z
1/2-x,1/2+y,1/2-z
1/2-x,1/2-y,-z
1/2+x,1/2+y,1/2-z
1/2-x,1/2+y,z
1/2+x,1/2-y,1/2+z
loop_
_atom_site_type_symbol
_atom_site_label
_atom_site_fract_x
_atom_site_fract_y
_atom_site_fract_z
Si Si1 0.179944 0.640454 0.162582
Si Si2 0.690947 0.502596 0.166477
Si Si3 0.000000 0.843965 0.336972
Si Si4 0.175572 0.731975 0.662823
Si Si5 0.170414 0.432067 0.036045
Si Si6 0.500000 0.575552 0.977573
O O1 0.175263 0.645889 0.250000
O O2 0.234928 0.570123 0.149724
O O3 0.292365 0.696823 0.138553
O O4 0.000000 0.649635 0.135938
O O5 0.717419 0.487173 0.250000
O O6 0.500000 0.511366 0.156896
O O7 0.782591 0.452356 0.117334
O O8 0.163148 0.806366 0.353322
O O9 0.000000 0.859071 0.250000
O O10 0.000000 0.900370 0.393875
O O11 0.169119 0.731202 0.750000
O O12 0.000000 0.710714 0.637596
O O13 0.325994 0.401174 0.000293
O O14 0.000000 0.400834 0.030443
O O15 0.158623 0.500000 0.000000
O O16 0.500000 0.500000 0.000000
#
# Coordination Sequence:
#
# PCOD9469887 Si02
#       6
#    16  16   8  16  16   8
#     4   9  15  25  43  72 114 154 182 215 266 330
#     4  10  19  30  49  81 118 151 185 230 282 333
#     4  10  20  34  54  82 112 146 187 229 272 321
#     4   9  16  28  47  74 113 151 181 219 268 327
#     4  10  21  38  58  78 105 141 195 239 284 339
#     4  10  22  40  58  78 106 144 190 237 286 335
#
# _framework density 23.984031999999999
#
# number of rings (size 3 to 8) (size 9 to 14) (size 15 to 20)
#    0.000    2.400    2.000    1.200    0.000    5.200 
#    0.000    0.000    0.000    0.000    0.000    5.600 
#    0.000    0.000    0.000    0.000    0.000    0.400 
#
# Total GULP energy -222901.945882 kJ/mol
# GULP energy per Si atom -5572.548647 kJ/mol
# Density = 2.392944 g / cm^3
# Si number density = 23.984032 Si / 1000 Ang^3
#
#
#
# Elastic Constant Matrix: (Units=GPa)
#
#
# Indices 1 2 3 4 5 6 
#
# 1 238.5477 30.6447 13.1190 0.0000 0.0000 0.0000
# 2 30.6447 70.7508 6.4772 0.0000 0.0000 0.0000
# 3 13.1190 6.4772 98.0966 0.0000 0.0000 0.0000
# 4 0.0000 0.0000 0.0000 29.8598 0.0000 0.0000
# 5 0.0000 0.0000 0.0000 0.0000 9.8878 0.0000
# 6 0.0000 0.0000 0.0000 0.0000 0.0000 10.4711
#
#
#
# Elastic Compliance Matrix: (Units=1/GPa)
#
#
# Indices 1 2 3 4 5 6 
#
# 1 0.004461 -0.001889 -0.000472 0.000000 0.000000 0.000000
# 2 -0.001889 0.015020 -0.000739 0.000000 0.000000 0.000000
# 3 -0.000472 -0.000739 0.010306 0.000000 0.000000 0.000000
# 4 0.000000 0.000000 0.000000 0.033490 0.000000 0.000000
# 5 0.000000 0.000000 0.000000 0.000000 0.101135 0.000000
# 6 0.000000 0.000000 0.000000 0.000000 0.000000 0.095501
#
#
# Mechanical properties :
#
#
# Convention : Reuss Voigt Hill
#
# Bulk Modulus (GPa) = 42.39651 56.43075 49.41363
# Shear Modulus (GPa) = 18.24987 33.85400 26.05193
#
# Velocity S-wave (km/s) = 2.76147 3.76110 3.29936
# Velocity P-wave (km/s) = 5.28043 6.51465 5.92974
#
# Compressibility (1/GPa) = 0.02358684
#
# Stress axis : x y z
#
# Youngs Moduli (GPa) = 224.18347 66.57823 97.03142
#
# Poissons Ratio (x) = 0.12576 0.04578
# Poissons Ratio (y) = 0.42345 0.07172
# Poissons Ratio (z) = 0.10578 0.04921
#
# Static dielectric constant tensor:
#      x y z
#    x 2.000850 0.000000 0.000000 
#    y 0.000000 1.923650 0.000000 
#    z 0.000000 0.000000 1.995470 
# 
# From -- ./inp_files/50917.got.cif
#   From: 2010.05.17/outbox.cif.g08.bks.cpg/sg63_26_cif.got.tgz:50917.got - 2010.06.03 15:47:04.
