data_PCOD9469259
_publ_section_title
;
Structure prediction by ZEFSAII (Michael W. Deem and Ramdas Pophale) SiO2 
 PCOD9469259
Probable space group: C M C M
;
_chemical_formula_sum "Si O2"
_cell_formula_units_Z 56
_cell_length_a 11.217456
_cell_length_b 30.749647
_cell_length_c 8.746052
_cell_angle_alpha 90.000000
_cell_angle_beta 90.000000
_cell_angle_gamma 90.000000
_cell_volume 3016.800312
_symmetry_space_group_name_H-M "C M C M"
_symmetry_group_IT_number 63
_symmetry_cell_setting 'orthorhombic'
loop_
_space_group_symop_operation_xyz
x,y,z
-x,-y,1/2+z
x,-y,-z
-x,y,1/2-z
-x,-y,-z
x,y,1/2-z
-x,y,z
x,-y,1/2+z
1/2+x,1/2+y,z
1/2-x,1/2-y,1/2+z
1/2+x,1/2-y,-z
1/2-x,1/2+y,1/2-z
1/2-x,1/2-y,-z
1/2+x,1/2+y,1/2-z
1/2-x,1/2+y,z
1/2+x,1/2-y,1/2+z
loop_
_atom_site_type_symbol
_atom_site_label
_atom_site_fract_x
_atom_site_fract_y
_atom_site_fract_z
Si Si1 0.640499 0.871817 0.578512
Si Si2 0.000000 0.048883 0.432846
Si Si3 0.244827 0.951730 0.068409
Si Si4 0.142076 0.720487 0.566550
O O1 0.694224 0.873792 0.750000
O O2 0.500000 0.867924 0.595633
O O3 0.662706 0.916098 0.487161
O O4 0.674763 0.828329 0.488307
O O5 0.878899 0.067163 0.500648
O O6 0.000000 0.048345 0.250000
O O7 0.000000 0.000000 0.500000
O O8 0.238002 0.955685 0.250000
O O9 0.265362 0.000000 0.000000
O O10 0.144411 0.723297 0.750000
O O11 0.250000 0.750000 0.500000
O O12 0.000000 0.729397 0.521311
#
# Coordination Sequence:
#
# PCOD9469259 Si02
#       4
#    16   8  16  16
#     4  10  21  38  59  83 113 149 188 233 287 340
#     4  10  18  32  52  74 104 142 184 230 280 330
#     4  11  21  35  55  80 112 149 191 234 281 336
#     4  10  21  39  63  90 120 154 194 241 295 354
#
# _framework density 18.562714
#
# number of rings (size 3 to 8) (size 9 to 14) (size 15 to 20)
#    0.000    1.714    0.000    7.286    0.000    4.000 
#    2.571    0.000    0.000    0.000    0.000    0.000 
#    0.000    0.000    0.000    0.000    0.000    0.000 
#
# Total GULP energy -155952.826227 kJ/mol
# GULP energy per Si atom -5569.743794 kJ/mol
# Density = 1.852046 g / cm^3
# Si number density = 18.562714 Si / 1000 Ang^3
#
#
#
# Elastic Constant Matrix: (Units=GPa)
#
#
# Indices 1 2 3 4 5 6 
#
# 1 53.6604 49.2959 39.6069 0.0000 0.0000 0.0000
# 2 49.2959 119.6327 58.1899 0.0000 0.0000 0.0000
# 3 39.6069 58.1899 165.8148 0.0000 0.0000 0.0000
# 4 0.0000 0.0000 0.0000 30.0459 0.0000 0.0000
# 5 0.0000 0.0000 0.0000 0.0000 31.4041 0.0000
# 6 0.0000 0.0000 0.0000 0.0000 0.0000 28.3140
#
#
#
# Elastic Compliance Matrix: (Units=1/GPa)
#
#
# Indices 1 2 3 4 5 6 
#
# 1 0.031674 -0.011301 -0.003600 0.000000 0.000000 0.000000
# 2 -0.011301 0.014111 -0.002253 0.000000 0.000000 0.000000
# 3 -0.003600 -0.002253 0.007681 0.000000 0.000000 0.000000
# 4 0.000000 0.000000 0.000000 0.033282 0.000000 0.000000
# 5 0.000000 0.000000 0.000000 0.000000 0.031843 0.000000
# 6 0.000000 0.000000 0.000000 0.000000 0.000000 0.035318
#
#
# Mechanical properties :
#
#
# Convention : Reuss Voigt Hill
#
# Bulk Modulus (GPa) = 52.19218 70.36590 61.27904
# Shear Modulus (GPa) = 25.69316 30.75383 28.22350
#
# Velocity S-wave (km/s) = 3.72442 4.07474 3.90351
# Velocity P-wave (km/s) = 6.83175 7.75419 7.30754
#
# Compressibility (1/GPa) = 0.01915996
#
# Stress axis : x y z
#
# Youngs Moduli (GPa) = 31.57116 70.86537 130.18601
#
# Poissons Ratio (x) = 0.80083 0.46868
# Poissons Ratio (y) = 0.35678 0.29328
# Poissons Ratio (z) = 0.11366 0.15965
#
# Static dielectric constant tensor:
#      x y z
#    x 1.786370 0.000000 0.000000 
#    y 0.000000 1.546920 0.000000 
#    z 0.000000 0.000000 1.659400 
# 
# From -- ./inp_files/2824.got.cif
#   From: 2010.05.17/outbox.cif.g08.bks.cpg/sg63_2_cif.got.tgz:2824.got - 2010.06.03 15:47:04.
