data_PCOD9469623
_publ_section_title
;
Structure prediction by ZEFSAII (Michael W. Deem and Ramdas Pophale) SiO2 
 PCOD9469623
Probable space group: C M C M
;
_chemical_formula_sum "Si O2"
_cell_formula_units_Z 104
_cell_length_a 31.626045
_cell_length_b 8.372298
_cell_length_c 24.200804
_cell_angle_alpha 90.000000
_cell_angle_beta 90.000000
_cell_angle_gamma 90.000000
_cell_volume 6407.953579
_symmetry_space_group_name_H-M "C M C M"
_symmetry_group_IT_number 63
_symmetry_cell_setting 'orthorhombic'
loop_
_space_group_symop_operation_xyz
x,y,z
-x,-y,1/2+z
x,-y,-z
-x,y,1/2-z
-x,-y,-z
x,y,1/2-z
-x,y,z
x,-y,1/2+z
1/2+x,1/2+y,z
1/2-x,1/2-y,1/2+z
1/2+x,1/2-y,-z
1/2-x,1/2+y,1/2-z
1/2-x,1/2-y,-z
1/2+x,1/2+y,1/2-z
1/2-x,1/2+y,z
1/2+x,1/2-y,1/2+z
loop_
_atom_site_type_symbol
_atom_site_label
_atom_site_fract_x
_atom_site_fract_y
_atom_site_fract_z
Si Si1 0.608564 0.500000 0.500000
Si Si2 0.201345 0.479522 0.434714
Si Si3 0.632213 0.727561 0.097304
Si Si4 0.952104 0.736656 0.041923
Si Si5 0.048081 0.394676 0.084040
Si Si6 0.731214 0.274365 0.369152
Si Si7 0.806673 0.076275 0.314782
O O1 0.632921 0.611862 0.456538
O O2 0.579650 0.616101 0.537975
O O3 0.203736 0.500000 0.500000
O O4 0.159625 0.382133 0.418928
O O5 0.241157 0.377162 0.412561
O O6 0.203870 0.647013 0.402897
O O7 0.584961 0.788759 0.110330
O O8 0.655168 0.642183 0.148055
O O9 0.941419 0.583923 0.080042
O O10 0.000000 0.788950 0.055158
O O11 0.952688 0.667282 0.979442
O O12 0.000000 0.377056 0.105451
O O13 0.765259 0.180068 0.331689
O O14 0.704104 0.396344 0.333144
O O15 0.814584 0.088880 0.250000
#
# Coordination Sequence:
#
# PCOD9469623 Si02
#       7
#     8  16  16  16  16  16  16
#     4  10  19  28  42  70 110 130 166 204 254 318
#     4  10  20  32  51  72 108 135 165 207 254 320
#     4  10  22  30  48  77 102 142 165 208 255 302
#     4   8  14  25  44  65  93 134 169 205 245 294
#     4   8  15  29  45  66  99 136 174 204 245 300
#     4   9  20  36  53  76  93 134 175 208 263 307
#     4  10  20  37  55  74 100 128 174 221 254 300
#
# _framework density 16.22983
#
# number of rings (size 3 to 8) (size 9 to 14) (size 15 to 20)
#    0.000    2.769    0.000    2.077    6.462    0.615 
#    2.769    0.769    0.000    0.462    0.000    0.000 
#    0.000    1.231    0.000    0.000    0.000    0.000 
#
# Total GULP energy -289762.970955 kJ/mol
# GULP energy per Si atom -5572.364826 kJ/mol
# Density = 1.619289 g / cm^3
# Si number density = 16.229830 Si / 1000 Ang^3
#
#
#
# Elastic Constant Matrix: (Units=GPa)
#
#
# Indices 1 2 3 4 5 6 
#
# 1 81.1225 46.7451 47.4115 0.0000 0.0000 0.0000
# 2 46.7451 93.9582 47.8926 0.0000 0.0000 0.0000
# 3 47.4115 47.8926 96.9493 0.0000 0.0000 0.0000
# 4 0.0000 0.0000 0.0000 10.9434 0.0000 0.0000
# 5 0.0000 0.0000 0.0000 0.0000 6.3604 0.0000
# 6 0.0000 0.0000 0.0000 0.0000 0.0000 87.1822
#
#
#
# Elastic Compliance Matrix: (Units=1/GPa)
#
#
# Indices 1 2 3 4 5 6 
#
# 1 0.019921 -0.006609 -0.006477 0.000000 0.000000 0.000000
# 2 -0.006609 0.016418 -0.004878 0.000000 0.000000 0.000000
# 3 -0.006477 -0.004878 0.015892 0.000000 0.000000 0.000000
# 4 0.000000 0.000000 0.000000 0.091379 0.000000 0.000000
# 5 0.000000 0.000000 0.000000 0.000000 0.157222 0.000000
# 6 0.000000 0.000000 0.000000 0.000000 0.000000 0.011470
#
#
# Mechanical properties :
#
#
# Convention : Reuss Voigt Hill
#
# Bulk Modulus (GPa) = 61.34355 61.79205 61.56780
# Shear Modulus (GPa) = 14.13766 29.56260 21.85013
#
# Velocity S-wave (km/s) = 2.95463 4.27253 3.67317
# Velocity P-wave (km/s) = 7.03695 7.90539 7.48377
#
# Compressibility (1/GPa) = 0.01630163
#
# Stress axis : x y z
#
# Youngs Moduli (GPa) = 50.19823 60.90981 62.92508
#
# Poissons Ratio (x) = 0.40258 0.40757
# Poissons Ratio (y) = 0.33178 0.30695
# Poissons Ratio (z) = 0.32514 0.29712
#
# Static dielectric constant tensor:
#      x y z
#    x 1.570070 0.000000 0.000000 
#    y 0.000000 1.573280 0.000000 
#    z 0.000000 0.000000 1.495480 
# 
# From -- ./inp_files/58542.got.cif
#   From: 2010.05.17/outbox.cif.g08.bks.cpg/sg63_30_cif.got.tgz:58542.got - 2010.06.03 15:47:04.
