data_PCOD9469316
_publ_section_title
;
Structure prediction by ZEFSAII (Michael W. Deem and Ramdas Pophale) SiO2 
 PCOD9469316
Probable space group: C M C M
;
_chemical_formula_sum "Si O2"
_cell_formula_units_Z 104
_cell_length_a 22.751120
_cell_length_b 27.109705
_cell_length_c 7.975509
_cell_angle_alpha 90.000000
_cell_angle_beta 90.000000
_cell_angle_gamma 90.000000
_cell_volume 4919.103748
_symmetry_space_group_name_H-M "C M C M"
_symmetry_group_IT_number 63
_symmetry_cell_setting 'orthorhombic'
loop_
_space_group_symop_operation_xyz
x,y,z
-x,-y,1/2+z
x,-y,-z
-x,y,1/2-z
-x,-y,-z
x,y,1/2-z
-x,y,z
x,-y,1/2+z
1/2+x,1/2+y,z
1/2-x,1/2-y,1/2+z
1/2+x,1/2-y,-z
1/2-x,1/2+y,1/2-z
1/2-x,1/2-y,-z
1/2+x,1/2+y,1/2-z
1/2-x,1/2+y,z
1/2+x,1/2-y,1/2+z
loop_
_atom_site_type_symbol
_atom_site_label
_atom_site_fract_x
_atom_site_fract_y
_atom_site_fract_z
Si Si1 0.781232 0.372199 0.560283
Si Si2 0.433214 0.283942 0.954583
Si Si3 0.683868 0.554982 0.452362
Si Si4 0.625004 0.943254 0.444757
Si Si5 0.500000 0.057917 0.049548
Si Si6 0.064898 0.100543 0.045936
Si Si7 0.314393 0.232017 0.557087
O O1 0.768053 0.355517 0.750000
O O2 0.724315 0.399699 0.486722
O O3 0.829389 0.414801 0.557992
O O4 0.809275 0.326549 0.464636
O O5 0.434515 0.280784 0.750000
O O6 0.500000 0.269165 0.009931
O O7 0.425406 0.341880 0.997839
O O8 0.375456 0.254099 0.017242
O O9 0.703598 0.500000 0.500000
O O10 0.686104 0.557423 0.250000
O O11 0.617882 0.566144 0.511942
O O12 0.641130 0.939532 0.250000
O O13 0.559953 0.921727 0.473968
O O14 0.624173 0.000000 0.500000
O O15 0.500000 0.061694 0.250000
O O16 0.500000 0.000000 0.000000
O O17 0.064874 0.098967 0.250000
O O18 0.000000 0.085783 0.987458
O O19 0.317696 0.245949 0.750000
O O20 0.250000 0.250000 0.500000
#
# Coordination Sequence:
#
# PCOD9469316 Si02
#       7
#    16  16  16  16   8  16  16
#     4  11  23  39  56  78 109 147 193 241 290 342
#     4   8  15  31  56  83 110 144 187 233 279 337
#     4  10  21  35  53  78 109 146 185 230 280 335
#     4  11  21  36  57  82 111 146 187 232 282 339
#     4  10  18  32  54  80 108 142 182 224 272 326
#     4   8  14  28  52  80 108 140 179 220 269 332
#     4  11  22  37  59  86 115 148 189 239 294 354
#
# _framework density 21.142061999999999
#
# number of rings (size 3 to 8) (size 9 to 14) (size 15 to 20)
#    0.000    2.154    0.000    6.231    0.000    5.231 
#    1.385    0.000    0.000    1.385    0.000    4.308 
#    0.000    0.000    0.000    0.000    0.000    0.000 
#
# Total GULP energy -289994.335490 kJ/mol
# GULP energy per Si atom -5576.814144 kJ/mol
# Density = 2.109394 g / cm^3
# Si number density = 21.142062 Si / 1000 Ang^3
#
#
#
# Elastic Constant Matrix: (Units=GPa)
#
#
# Indices 1 2 3 4 5 6 
#
# 1 98.7476 17.3779 -1.7206 0.0000 0.0000 0.0000
# 2 17.3779 36.1548 -4.5730 0.0000 0.0000 0.0000
# 3 -1.7206 -4.5730 42.4865 0.0000 0.0000 0.0000
# 4 0.0000 0.0000 0.0000 18.1730 0.0000 0.0000
# 5 0.0000 0.0000 0.0000 0.0000 16.3381 0.0000
# 6 0.0000 0.0000 0.0000 0.0000 0.0000 32.2589
#
#
#
# Elastic Compliance Matrix: (Units=1/GPa)
#
#
# Indices 1 2 3 4 5 6 
#
# 1 0.011063 -0.005334 -0.000126 0.000000 0.000000 0.000000
# 2 -0.005334 0.030612 0.003079 0.000000 0.000000 0.000000
# 3 -0.000126 0.003079 0.023863 0.000000 0.000000 0.000000
# 4 0.000000 0.000000 0.000000 0.055027 0.000000 0.000000
# 5 0.000000 0.000000 0.000000 0.000000 0.061206 0.000000
# 6 0.000000 0.000000 0.000000 0.000000 0.000000 0.030999
#
#
# Mechanical properties :
#
#
# Convention : Reuss Voigt Hill
#
# Bulk Modulus (GPa) = 16.45360 22.17305 19.31333
# Shear Modulus (GPa) = 21.02688 24.44099 22.73393
#
# Velocity S-wave (km/s) = 3.15707 3.40374 3.28273
# Velocity P-wave (km/s) = 4.59225 5.09487 4.85008
#
# Compressibility (1/GPa) = 0.06077697
#
# Stress axis : x y z
#
# Youngs Moduli (GPa) = 90.38946 32.66710 41.90556
#
# Poissons Ratio (x) = 0.17423 0.00528
# Poissons Ratio (y) = 0.48209 -0.12902
# Poissons Ratio (z) = 0.01139 -0.10058
#
# Static dielectric constant tensor:
#      x y z
#    x 1.827200 0.000000 0.000000 
#    y 0.000000 1.724930 0.000000 
#    z 0.000000 0.000000 1.783240 
# 
# From -- ./inp_files/8832.got.cif
#   From: 2010.05.17/outbox.cif.g08.bks.cpg/sg63_5_cif.got.tgz:8832.got - 2010.06.03 15:47:04.
