data_PCOD9469058
_publ_section_title
;
Structure prediction by ZEFSAII (Michael W. Deem and Ramdas Pophale) SiO2 
 PCOD9469058
Probable space group: C M C M
;
_chemical_formula_sum "Si O2"
_cell_formula_units_Z 96
_cell_length_a 22.519588
_cell_length_b 27.999696
_cell_length_c 9.071891
_cell_angle_alpha 90.000000
_cell_angle_beta 90.000000
_cell_angle_gamma 90.000000
_cell_volume 5720.204830
_symmetry_space_group_name_H-M "C M C M"
_symmetry_group_IT_number 63
_symmetry_cell_setting 'orthorhombic'
loop_
_space_group_symop_operation_xyz
x,y,z
-x,-y,1/2+z
x,-y,-z
-x,y,1/2-z
-x,-y,-z
x,y,1/2-z
-x,y,z
x,-y,1/2+z
1/2+x,1/2+y,z
1/2-x,1/2-y,1/2+z
1/2+x,1/2-y,-z
1/2-x,1/2+y,1/2-z
1/2-x,1/2-y,-z
1/2+x,1/2+y,1/2-z
1/2-x,1/2+y,z
1/2+x,1/2-y,1/2+z
loop_
_atom_site_type_symbol
_atom_site_label
_atom_site_fract_x
_atom_site_fract_y
_atom_site_fract_z
Si Si1 0.681605 0.188874 0.419363
Si Si2 0.192897 0.137546 0.078802
Si Si3 0.379457 0.103433 0.575479
Si Si4 0.242701 0.449077 0.426584
Si Si5 0.000000 0.268864 0.928879
Si Si6 0.380081 0.714675 0.574688
Si Si7 0.500000 0.119216 0.073416
O O1 0.660971 0.179559 0.250000
O O2 0.749179 0.172009 0.429481
O O3 0.643840 0.155692 0.527292
O O4 0.669367 0.244111 0.447934
O O5 0.182754 0.126205 0.250000
O O6 0.212365 0.090560 0.990122
O O7 0.139077 0.167257 0.009580
O O8 0.389140 0.101216 0.750000
O O9 0.324414 0.068770 0.536474
O O10 0.440552 0.095387 0.489978
O O11 0.253319 0.500000 0.500000
O O12 0.247351 0.451286 0.250000
O O13 0.058656 0.239799 0.973541
O O14 0.000000 0.270193 0.750000
O O15 0.000000 0.324477 0.974703
O O16 0.383424 0.705009 0.750000
O O17 0.500000 0.117833 0.250000
#
# Coordination Sequence:
#
# PCOD9469058 Si02
#       7
#    16  16  16  16   8  16   8
#     4   9  17  30  48  69  99 138 174 207 248 304
#     4  10  20  32  49  76 104 132 168 210 258 309
#     4  10  20  32  49  75 103 131 170 218 261 301
#     4  10  21  38  58  78 101 129 164 213 268 317
#     4   9  18  31  49  70  99 142 183 214 244 289
#     4  10  18  31  48  70 102 139 177 211 248 296
#     4  11  19  33  52  70  99 142 185 214 250 301
#
# _framework density 16.782616000000001
#
# number of rings (size 3 to 8) (size 9 to 14) (size 15 to 20)
#    0.000    2.167    1.667    2.250    0.000    3.333 
#    0.000    0.833    0.000    0.000    0.000    0.583 
#    0.000    0.000    0.000    0.000    0.000    0.000 
#
# Total GULP energy -267754.790344 kJ/mol
# GULP energy per Si atom -5578.224799 kJ/mol
# Density = 1.674442 g / cm^3
# Si number density = 16.782616 Si / 1000 Ang^3
#
#
#
# Elastic Constant Matrix: (Units=GPa)
#
#
# Indices 1 2 3 4 5 6 
#
# 1 29.1857 26.4840 15.3089 0.0000 0.0000 0.0000
# 2 26.4840 96.0634 38.9309 0.0000 0.0000 0.0000
# 3 15.3089 38.9309 45.7523 0.0000 0.0000 0.0000
# 4 0.0000 0.0000 0.0000 27.5327 0.0000 0.0000
# 5 0.0000 0.0000 0.0000 0.0000 23.3287 0.0000
# 6 0.0000 0.0000 0.0000 0.0000 0.0000 14.2831
#
#
#
# Elastic Compliance Matrix: (Units=1/GPa)
#
#
# Indices 1 2 3 4 5 6 
#
# 1 0.047202 -0.010093 -0.007206 0.000000 0.000000 0.000000
# 2 -0.010093 0.018047 -0.011979 0.000000 0.000000 0.000000
# 3 -0.007206 -0.011979 0.034461 0.000000 0.000000 0.000000
# 4 0.000000 0.000000 0.000000 0.036320 0.000000 0.000000
# 5 0.000000 0.000000 0.000000 0.000000 0.042866 0.000000
# 6 0.000000 0.000000 0.000000 0.000000 0.000000 0.070013
#
#
# Mechanical properties :
#
#
# Convention : Reuss Voigt Hill
#
# Bulk Modulus (GPa) = 24.29897 36.93880 30.61889
# Shear Modulus (GPa) = 15.56747 19.04742 17.30744
#
# Velocity S-wave (km/s) = 3.04895 3.37256 3.21483
# Velocity P-wave (km/s) = 5.18699 6.10110 5.66252
#
# Compressibility (1/GPa) = 0.04115401
#
# Stress axis : x y z
#
# Youngs Moduli (GPa) = 21.18568 55.41052 29.01819
#
# Poissons Ratio (x) = 0.55926 0.20910
# Poissons Ratio (y) = 0.21383 0.34762
# Poissons Ratio (z) = 0.15266 0.66378
#
# Static dielectric constant tensor:
#      x y z
#    x 1.576480 0.000000 0.000000 
#    y 0.000000 1.546160 0.000000 
#    z 0.000000 0.000000 1.566120 
# 
# From -- ./inp_files/10547.got.cif
#   From: 2010.05.17/outbox.cif.g08.bks.cpg/sg63_6_cif.got.tgz:10547.got - 2010.06.03 15:47:04.
