data_PCOD9469289
_publ_section_title
;
Structure prediction by ZEFSAII (Michael W. Deem and Ramdas Pophale) SiO2 
 PCOD9469289
Probable space group: C M C M
;
_chemical_formula_sum "Si O2"
_cell_formula_units_Z 80
_cell_length_a 18.109921
_cell_length_b 30.587673
_cell_length_c 7.713330
_cell_angle_alpha 90.000000
_cell_angle_beta 90.000000
_cell_angle_gamma 90.000000
_cell_volume 4272.724655
_symmetry_space_group_name_H-M "C M C M"
_symmetry_group_IT_number 63
_symmetry_cell_setting 'orthorhombic'
loop_
_space_group_symop_operation_xyz
x,y,z
-x,-y,1/2+z
x,-y,-z
-x,y,1/2-z
-x,-y,-z
x,y,1/2-z
-x,y,z
x,-y,1/2+z
1/2+x,1/2+y,z
1/2-x,1/2-y,1/2+z
1/2+x,1/2-y,-z
1/2-x,1/2+y,1/2-z
1/2-x,1/2-y,-z
1/2+x,1/2+y,1/2-z
1/2-x,1/2+y,z
1/2+x,1/2-y,1/2+z
loop_
_atom_site_type_symbol
_atom_site_label
_atom_site_fract_x
_atom_site_fract_y
_atom_site_fract_z
Si Si1 0.911896 0.389242 0.250000
Si Si2 0.812526 0.047790 0.957886
Si Si3 0.090043 0.224741 0.948677
Si Si4 0.409762 0.210543 0.750000
Si Si5 0.084542 0.127329 0.538569
Si Si6 0.857082 0.450836 0.945755
O O1 0.883807 0.339375 0.250000
O O2 0.885953 0.415856 0.417804
O O3 0.000000 0.387791 0.250000
O O4 0.802221 0.050805 0.750000
O O5 0.863820 0.087608 0.016246
O O6 0.731990 0.049855 0.043160
O O7 0.844829 0.000000 0.000000
O O8 0.114213 0.231706 0.750000
O O9 0.111341 0.175935 0.009793
O O10 0.000000 0.224186 0.946696
O O11 0.113643 0.262229 0.080679
O O12 0.500000 0.210047 0.750000
O O13 0.083123 0.127348 0.750000
O O14 0.000000 0.121525 0.479729
O O15 0.881256 0.442120 0.750000
O O16 0.879970 0.500000 0.000000
#
# Coordination Sequence:
#
# PCOD9469289 Si02
#       6
#     8  16  16   8  16  16
#     4  11  24  40  60  89 113 133 169 220 283 331
#     4  10  18  32  53  76 109 152 192 226 267 319
#     4   8  14  28  49  73 105 142 179 221 266 313
#     4   9  18  32  52  79 108 135 169 218 268 325
#     4   8  15  28  49  79 111 148 192 234 274 306
#     4  11  21  40  61  81 110 146 183 213 261 334
#
# _framework density 18.723414999999999
#
# number of rings (size 3 to 8) (size 9 to 14) (size 15 to 20)
#    0.000    2.600    2.000    3.000    0.000    2.000 
#    3.600    2.000    0.000    1.200    0.000    0.000 
#    0.000    0.000    0.000    0.000    0.000    0.000 
#
# Total GULP energy -223134.938470 kJ/mol
# GULP energy per Si atom -5578.373462 kJ/mol
# Density = 1.868080 g / cm^3
# Si number density = 18.723415 Si / 1000 Ang^3
#
#
#
# Elastic Constant Matrix: (Units=GPa)
#
#
# Indices 1 2 3 4 5 6 
#
# 1 17.2779 37.8365 14.1873 0.0000 0.0000 0.0000
# 2 37.8365 198.6123 76.3722 0.0000 0.0000 0.0000
# 3 14.1873 76.3722 119.4835 0.0000 0.0000 0.0000
# 4 0.0000 0.0000 0.0000 31.3657 0.0000 0.0000
# 5 0.0000 0.0000 0.0000 0.0000 12.5428 0.0000
# 6 0.0000 0.0000 0.0000 0.0000 0.0000 -173.5433
#
#
#
# Elastic Compliance Matrix: (Units=1/GPa)
#
#
# Indices 1 2 3 4 5 6 
#
# 1 0.099321 -0.019074 0.000399 0.000000 0.000000 0.000000
# 2 -0.019074 0.010339 -0.004344 0.000000 0.000000 0.000000
# 3 0.000399 -0.004344 0.011098 0.000000 0.000000 0.000000
# 4 0.000000 0.000000 0.000000 0.031882 0.000000 0.000000
# 5 0.000000 0.000000 0.000000 0.000000 0.079727 0.000000
# 6 0.000000 0.000000 0.000000 0.000000 0.000000 -0.005762
#
#
# Mechanical properties :
#
#
# Convention : Reuss Voigt Hill
#
# Bulk Modulus (GPa) = 13.38336 65.79619 39.58978
# Shear Modulus (GPa) = 16.80394 -12.12845 2.33774
#
# Velocity S-wave (km/s) = 2.99905 -2.54789 1.11861
# Velocity P-wave (km/s) = 4.37674 5.15381 4.78109
#
# Compressibility (1/GPa) = 0.07471963
#
# Stress axis : x y z
#
# Youngs Moduli (GPa) = 10.06841 96.72154 90.10314
#
# Poissons Ratio (x) = 1.84491 -0.03594
# Poissons Ratio (y) = 0.19205 0.39138
# Poissons Ratio (z) = -0.00402 0.42012
#
# Static dielectric constant tensor:
#      x y z
#    x 1.631700 0.000000 0.000000 
#    y 0.000000 1.647480 0.000000 
#    z 0.000000 0.000000 1.666000 
# 
# From -- ./inp_files/8107.got.cif
#   From: 2010.05.17/outbox.cif.g08.bks.cpg/sg63_5_cif.got.tgz:8107.got - 2010.06.03 15:47:04.
