data_PCOD9469480
_publ_section_title
;
Structure prediction by ZEFSAII (Michael W. Deem and Ramdas Pophale) SiO2 
 PCOD9469480
Probable space group: C M C M
;
_chemical_formula_sum "Si O2"
_cell_formula_units_Z 96
_cell_length_a 8.487034
_cell_length_b 25.779707
_cell_length_c 24.380878
_cell_angle_alpha 90.000000
_cell_angle_beta 90.000000
_cell_angle_gamma 90.000000
_cell_volume 5334.371531
_symmetry_space_group_name_H-M "C M C M"
_symmetry_group_IT_number 63
_symmetry_cell_setting 'orthorhombic'
loop_
_space_group_symop_operation_xyz
x,y,z
-x,-y,1/2+z
x,-y,-z
-x,y,1/2-z
-x,-y,-z
x,y,1/2-z
-x,y,z
x,-y,1/2+z
1/2+x,1/2+y,z
1/2-x,1/2-y,1/2+z
1/2+x,1/2-y,-z
1/2-x,1/2+y,1/2-z
1/2-x,1/2-y,-z
1/2+x,1/2+y,1/2-z
1/2-x,1/2+y,z
1/2+x,1/2-y,1/2+z
loop_
_atom_site_type_symbol
_atom_site_label
_atom_site_fract_x
_atom_site_fract_y
_atom_site_fract_z
Si Si1 0.190330 0.569235 0.135688
Si Si2 0.188298 0.139715 0.559771
Si Si3 0.690250 0.023374 0.558592
Si Si4 0.313600 0.608640 0.250000
Si Si5 0.309738 0.832718 0.940474
Si Si6 0.692313 0.734173 0.632266
Si Si7 0.690395 0.773831 0.750000
O O1 0.240528 0.516091 0.106341
O O2 0.259495 0.579137 0.195351
O O3 0.233929 0.617224 0.095990
O O4 0.000000 0.569418 0.139759
O O5 0.253012 0.081801 0.565768
O O6 0.239360 0.161895 0.500717
O O7 0.244004 0.179738 0.606553
O O8 0.000000 0.137702 0.561684
O O9 0.500000 0.023675 0.557524
O O10 0.743259 0.000000 0.500000
O O11 0.500000 0.614382 0.250000
O O12 0.238185 0.666001 0.250000
O O13 0.500000 0.832447 0.945176
O O14 0.260331 0.781072 0.908124
O O15 0.500000 0.734371 0.633060
O O16 0.745801 0.746785 0.693898
O O17 0.500000 0.772157 0.750000
#
# Coordination Sequence:
#
# PCOD9469480 Si02
#       7
#    16  16  16   8  16  16   8
#     4  10  20  37  62  83 106 147 195 228 264 328
#     4  11  22  34  51  84 121 149 178 226 293 342
#     4  10  20  38  60  81 105 144 196 234 265 324
#     4  12  24  36  55  88 123 141 172 232 294 333
#     4  10  18  34  58  82 108 146 191 229 266 326
#     4   9  19  34  56  82 108 144 191 230 271 334
#     4  10  18  38  63  76 101 151 198 226 258 325
#
# _framework density 17.996497999999999
#
# number of rings (size 3 to 8) (size 9 to 14) (size 15 to 20)
#    0.000    1.833    3.333    1.750    0.000    1.667 
#    0.000    3.333    0.000    1.000    0.000    0.000 
#    0.000    0.000    0.000    0.000    0.000    0.000 
#
# Total GULP energy -268037.657874 kJ/mol
# GULP energy per Si atom -5584.117872 kJ/mol
# Density = 1.795554 g / cm^3
# Si number density = 17.996498 Si / 1000 Ang^3
#
#
#
# Elastic Constant Matrix: (Units=GPa)
#
#
# Indices 1 2 3 4 5 6 
#
# 1 10.4741 20.1520 22.4991 0.0000 0.0000 0.0000
# 2 20.1520 172.5738 101.1755 0.0000 0.0000 0.0000
# 3 22.4991 101.1755 166.1833 0.0000 0.0000 0.0000
# 4 0.0000 0.0000 0.0000 33.7267 0.0000 0.0000
# 5 0.0000 0.0000 0.0000 0.0000 18.4805 0.0000
# 6 0.0000 0.0000 0.0000 0.0000 0.0000 15.5270
#
#
#
# Elastic Compliance Matrix: (Units=1/GPa)
#
#
# Indices 1 2 3 4 5 6 
#
# 1 0.141791 -0.008246 -0.014176 0.000000 0.000000 0.000000
# 2 -0.008246 0.009491 -0.004662 0.000000 0.000000 0.000000
# 3 -0.014176 -0.004662 0.010775 0.000000 0.000000 0.000000
# 4 0.000000 0.000000 0.000000 0.029650 0.000000 0.000000
# 5 0.000000 0.000000 0.000000 0.000000 0.054111 0.000000
# 6 0.000000 0.000000 0.000000 0.000000 0.000000 0.064404
#
#
# Mechanical properties :
#
#
# Convention : Reuss Voigt Hill
#
# Bulk Modulus (GPa) = 9.26884 70.76493 40.01688
# Shear Modulus (GPa) = 12.48900 27.24049 19.86475
#
# Velocity S-wave (km/s) = 2.63719 3.89479 3.32597
# Velocity P-wave (km/s) = 3.79928 7.72222 6.08553
#
# Compressibility (1/GPa) = 0.10788834
#
# Stress axis : x y z
#
# Youngs Moduli (GPa) = 7.05263 105.36837 92.80933
#
# Poissons Ratio (x) = 0.86889 1.31569
# Poissons Ratio (y) = 0.05816 0.43264
# Poissons Ratio (z) = 0.09998 0.49118
#
# Static dielectric constant tensor:
#      x y z
#    x 1.618840 0.000000 0.000000 
#    y 0.000000 1.599770 0.000000 
#    z 0.000000 0.000000 1.600040 
# 
# From -- ./inp_files/60094.got.cif
#   From: 2010.05.17/outbox.cif.g08.bks.cpg/sg63_31_cif.got.tgz:60094.got - 2010.06.03 15:47:04.
