data_PCOD9469579
_publ_section_title
;
Structure prediction by ZEFSAII (Michael W. Deem and Ramdas Pophale) SiO2 
 PCOD9469579
Probable space group: C M C M
;
_chemical_formula_sum "Si O2"
_cell_formula_units_Z 116
_cell_length_a 17.881553
_cell_length_b 23.252152
_cell_length_c 14.938794
_cell_angle_alpha 90.000000
_cell_angle_beta 90.000000
_cell_angle_gamma 90.000000
_cell_volume 6211.320314
_symmetry_space_group_name_H-M "C M C M"
_symmetry_group_IT_number 63
_symmetry_cell_setting 'orthorhombic'
loop_
_space_group_symop_operation_xyz
x,y,z
-x,-y,1/2+z
x,-y,-z
-x,y,1/2-z
-x,-y,-z
x,y,1/2-z
-x,y,z
x,-y,1/2+z
1/2+x,1/2+y,z
1/2-x,1/2-y,1/2+z
1/2+x,1/2-y,-z
1/2-x,1/2+y,1/2-z
1/2-x,1/2-y,-z
1/2+x,1/2+y,1/2-z
1/2-x,1/2+y,z
1/2+x,1/2-y,1/2+z
loop_
_atom_site_type_symbol
_atom_site_label
_atom_site_fract_x
_atom_site_fract_y
_atom_site_fract_z
Si Si1 0.416477 0.566977 0.892512
Si Si2 0.111244 0.934830 0.892683
Si Si3 0.761723 0.624121 0.414566
Si Si4 0.914241 0.241847 0.510514
Si Si5 0.916352 0.650474 0.354487
Si Si6 0.500000 0.612799 0.250000
Si Si7 0.805781 0.245457 0.151126
Si Si8 0.800549 0.845868 0.099440
O O1 0.500000 0.586805 0.867558
O O2 0.408458 0.500148 0.867143
O O3 0.347773 0.603873 0.854688
O O4 0.408865 0.570253 0.001572
O O5 0.198488 0.920052 0.883030
O O6 0.064619 0.892979 0.829227
O O7 0.845366 0.612456 0.382339
O O8 0.737984 0.687622 0.378496
O O9 0.752167 0.628259 0.521612
O O10 0.912566 0.294019 0.581193
O O11 0.870531 0.257491 0.420250
O O12 0.866505 0.190286 0.551494
O O13 0.000000 0.226124 0.493867
O O14 0.908184 0.666908 0.250000
O O15 0.000000 0.625354 0.365172
O O16 0.836429 0.236975 0.250000
O O17 0.748394 0.298758 0.149899
#
# Coordination Sequence:
#
# PCOD9469579 Si02
#       8
#    16  16  16  16  16   4  16  16
#     4  10  18  38  53  74 104 149 183 214 262 322
#     4  10  21  33  55  74 108 144 178 223 268 317
#     4  10  19  35  53  75 101 143 178 224 278 321
#     4  10  19  34  51  76 105 138 181 222 267 321
#     4  10  19  31  52  76 103 132 169 222 274 323
#     4  12  20  34  48  84 114 138 184 228 264 318
#     4  11  21  35  49  74 109 143 182 224 268 330
#     4  10  19  33  54  75 103 143 182 219 261 323
#
# _framework density 18.67558
#
# number of rings (size 3 to 8) (size 9 to 14) (size 15 to 20)
#    0.000    1.793    4.138    2.069    1.931    0.276 
#    2.483    0.000    0.000    0.828    0.000    8.690 
#    0.000    0.000    0.000    0.000    0.000    0.000 
#
# Total GULP energy -323136.223977 kJ/mol
# GULP energy per Si atom -5571.314206 kJ/mol
# Density = 1.863307 g / cm^3
# Si number density = 18.675580 Si / 1000 Ang^3
#
#
#
# Elastic Constant Matrix: (Units=GPa)
#
#
# Indices 1 2 3 4 5 6 
#
# 1 145.4065 9.5793 39.8800 0.0000 0.0000 0.0000
# 2 9.5793 20.4778 7.6900 0.0000 0.0000 0.0000
# 3 39.8800 7.6900 77.1741 0.0000 0.0000 0.0000
# 4 0.0000 0.0000 0.0000 -3.7414 0.0000 0.0000
# 5 0.0000 0.0000 0.0000 0.0000 14.3820 0.0000
# 6 0.0000 0.0000 0.0000 0.0000 0.0000 25.5233
#
#
#
# Elastic Compliance Matrix: (Units=1/GPa)
#
#
# Indices 1 2 3 4 5 6 
#
# 1 0.008117 -0.002308 -0.003964 0.000000 0.000000 0.000000
# 2 -0.002308 0.051388 -0.003928 0.000000 0.000000 0.000000
# 3 -0.003964 -0.003928 0.015398 0.000000 0.000000 0.000000
# 4 0.000000 0.000000 0.000000 -0.267283 0.000000 0.000000
# 5 0.000000 0.000000 0.000000 0.000000 0.069531 0.000000
# 6 0.000000 0.000000 0.000000 0.000000 0.000000 0.039180
#
#
# Mechanical properties :
#
#
# Convention : Reuss Voigt Hill
#
# Bulk Modulus (GPa) = 18.34801 39.70634 29.02717
# Shear Modulus (GPa) = -110.86090 19.62673 -45.61708
#
# Velocity S-wave (km/s) = -7.71299 3.24532 -4.94763
# Velocity P-wave (km/s) = 8.33513 5.94559 4.13064
#
# Compressibility (1/GPa) = 0.05450182
#
# Stress axis : x y z
#
# Youngs Moduli (GPa) = 123.20436 19.45976 64.94491
#
# Poissons Ratio (x) = 0.04492 0.25746
# Poissons Ratio (y) = 0.28438 0.25509
# Poissons Ratio (z) = 0.48842 0.07643
#
# Static dielectric constant tensor:
#      x y z
#    x 1.669200 0.000000 0.000000 
#    y 0.000000 1.667060 0.000000 
#    z 0.000000 0.000000 1.707130 
# 
# From -- ./inp_files/34533.got.cif
#   From: 2010.05.17/outbox.cif.g08.bks.cpg/sg63_18_cif.got.tgz:34533.got - 2010.06.03 15:47:04.
