data_PCOD9469839
_publ_section_title
;
Structure prediction by ZEFSAII (Michael W. Deem and Ramdas Pophale) SiO2 
 PCOD9469839
Probable space group: C M C M
;
_chemical_formula_sum "Si O2"
_cell_formula_units_Z 112
_cell_length_a 28.302520
_cell_length_b 15.152786
_cell_length_c 13.984453
_cell_angle_alpha 90.000000
_cell_angle_beta 90.000000
_cell_angle_gamma 90.000000
_cell_volume 5997.400886
_symmetry_space_group_name_H-M "C M C M"
_symmetry_group_IT_number 63
_symmetry_cell_setting 'orthorhombic'
loop_
_space_group_symop_operation_xyz
x,y,z
-x,-y,1/2+z
x,-y,-z
-x,y,1/2-z
-x,-y,-z
x,y,1/2-z
-x,y,z
x,-y,1/2+z
1/2+x,1/2+y,z
1/2-x,1/2-y,1/2+z
1/2+x,1/2-y,-z
1/2-x,1/2+y,1/2-z
1/2-x,1/2-y,-z
1/2+x,1/2+y,1/2-z
1/2-x,1/2+y,z
1/2+x,1/2-y,1/2+z
loop_
_atom_site_type_symbol
_atom_site_label
_atom_site_fract_x
_atom_site_fract_y
_atom_site_fract_z
Si Si1 0.782584 0.877393 0.861577
Si Si2 0.142724 0.719017 0.639264
Si Si3 0.798830 0.922373 0.136058
Si Si4 0.945754 0.974997 0.643066
Si Si5 0.892247 0.840882 0.139595
Si Si6 0.944356 0.204961 0.039444
Si Si7 0.791673 0.602998 0.518884
O O1 0.768876 0.883018 0.750000
O O2 0.823602 0.805359 0.869339
O O3 0.802401 0.974124 0.891624
O O4 0.736570 0.859799 0.926655
O O5 0.146072 0.688977 0.750000
O O6 0.089295 0.742729 0.611414
O O7 0.163522 0.652400 0.560729
O O8 0.802990 0.920089 0.250000
O O9 0.839436 0.856687 0.100381
O O10 0.748035 0.891853 0.101450
O O11 0.940923 0.935318 0.750000
O O12 0.937485 0.898311 0.567689
O O13 0.000000 0.005827 0.632617
O O14 0.912916 0.059541 0.640075
O O15 0.892463 0.809783 0.250000
O O16 0.923844 0.785214 0.067277
O O17 0.000000 0.223853 0.046435
O O18 0.801623 0.500000 0.500000
#
# Coordination Sequence:
#
# PCOD9469839 Si02
#       7
#    16  16  16  16  16  16  16
#     4   9  18  31  50  78 111 142 170 204 247 301
#     4  11  22  36  55  78 103 132 169 213 261 312
#     4   9  17  30  48  73 105 141 177 209 244 291
#     4   9  17  29  45  67  97 135 178 218 253 293
#     4  10  19  30  47  72 106 147 185 215 246 296
#     4  11  22  34  49  71 101 137 178 225 273 314
#     4  10  20  35  55  77 104 135 169 209 257 310
#
# _framework density 18.674757
#
# number of rings (size 3 to 8) (size 9 to 14) (size 15 to 20)
#    0.000    2.143    0.000    3.857    0.000    8.000 
#    0.000    2.143    0.000    0.429    0.000    0.000 
#    0.000    0.000    0.000    0.000    0.000    0.000 
#
# Total GULP energy -312611.495039 kJ/mol
# GULP energy per Si atom -5582.348126 kJ/mol
# Density = 1.863225 g / cm^3
# Si number density = 18.674757 Si / 1000 Ang^3
#
#
#
# Elastic Constant Matrix: (Units=GPa)
#
#
# Indices 1 2 3 4 5 6 
#
# 1 79.4190 24.8739 24.0217 0.0000 0.0000 0.0000
# 2 24.8739 17.7957 13.9414 0.0000 0.0000 0.0000
# 3 24.0217 13.9414 94.3407 0.0000 0.0000 0.0000
# 4 0.0000 0.0000 0.0000 16.6318 0.0000 0.0000
# 5 0.0000 0.0000 0.0000 0.0000 19.3605 0.0000
# 6 0.0000 0.0000 0.0000 0.0000 0.0000 20.4634
#
#
#
# Elastic Compliance Matrix: (Units=1/GPa)
#
#
# Indices 1 2 3 4 5 6 
#
# 1 0.022520 -0.030518 -0.001224 0.000000 0.000000 0.000000
# 2 -0.030518 0.104907 -0.007732 0.000000 0.000000 0.000000
# 3 -0.001224 -0.007732 0.012054 0.000000 0.000000 0.000000
# 4 0.000000 0.000000 0.000000 0.060126 0.000000 0.000000
# 5 0.000000 0.000000 0.000000 0.000000 0.051652 0.000000
# 6 0.000000 0.000000 0.000000 0.000000 0.000000 0.048868
#
#
# Mechanical properties :
#
#
# Convention : Reuss Voigt Hill
#
# Bulk Modulus (GPa) = 16.52013 35.24771 25.88392
# Shear Modulus (GPa) = 12.52343 19.87239 16.19791
#
# Velocity S-wave (km/s) = 2.59242 3.26564 2.94831
# Velocity P-wave (km/s) = 4.22212 5.75628 5.04782
#
# Compressibility (1/GPa) = 0.06053221
#
# Stress axis : x y z
#
# Youngs Moduli (GPa) = 44.40527 9.53228 82.95811
#
# Poissons Ratio (x) = 0.29090 0.10157
# Poissons Ratio (y) = 1.35515 0.64145
# Poissons Ratio (z) = 0.05437 0.07371
#
# Static dielectric constant tensor:
#      x y z
#    x 1.650470 0.000000 0.000000 
#    y 0.000000 1.652640 0.000000 
#    z 0.000000 0.000000 1.712720 
# 
# From -- ./inp_files/37978.got.cif
#   From: 2010.05.17/outbox.cif.g08.bks.cpg/sg63_19_cif.got.tgz:37978.got - 2010.06.03 15:47:04.
