data_PCOD9469462
_publ_section_title
;
Structure prediction by ZEFSAII (Michael W. Deem and Ramdas Pophale) SiO2 
 PCOD9469462
Probable space group: C M C M
;
_chemical_formula_sum "Si O2"
_cell_formula_units_Z 68
_cell_length_a 14.844385
_cell_length_b 24.460679
_cell_length_c 10.789251
_cell_angle_alpha 90.000000
_cell_angle_beta 90.000000
_cell_angle_gamma 90.000000
_cell_volume 3917.617351
_symmetry_space_group_name_H-M "C M C M"
_symmetry_group_IT_number 63
_symmetry_cell_setting 'orthorhombic'
loop_
_space_group_symop_operation_xyz
x,y,z
-x,-y,1/2+z
x,-y,-z
-x,y,1/2-z
-x,-y,-z
x,y,1/2-z
-x,y,z
x,-y,1/2+z
1/2+x,1/2+y,z
1/2-x,1/2-y,1/2+z
1/2+x,1/2-y,-z
1/2-x,1/2+y,1/2-z
1/2-x,1/2-y,-z
1/2+x,1/2+y,1/2-z
1/2-x,1/2+y,z
1/2+x,1/2-y,1/2+z
loop_
_atom_site_type_symbol
_atom_site_label
_atom_site_fract_x
_atom_site_fract_y
_atom_site_fract_z
Si Si1 0.724711 0.675394 0.750000
Si Si2 0.000000 0.386046 0.250000
Si Si3 0.000000 0.429773 0.610304
Si Si4 0.848389 0.774349 0.011268
Si Si5 0.000000 0.683313 0.007144
Si Si6 0.808073 0.444362 0.250000
Si Si7 0.343232 0.000000 0.000000
Si Si8 0.892336 0.234276 0.250000
O O1 0.662638 0.688222 0.630801
O O2 0.755786 0.613016 0.750000
O O3 0.817355 0.714865 0.750000
O O4 0.000000 0.349001 0.375026
O O5 0.912546 0.424562 0.250000
O O6 0.000000 0.364899 0.605181
O O7 0.911122 0.452084 0.543419
O O8 0.000000 0.450488 0.750000
O O9 0.750000 0.750000 0.000000
O O10 0.873958 0.798146 0.876894
O O11 0.915711 0.723292 0.023728
O O12 0.792943 0.478453 0.376926
O O13 0.000000 0.247791 0.250000
#
# Coordination Sequence:
#
# PCOD9469462 Si02
#       8
#     8   4   8  16   8   8   8   8
#     4  10  24  37  52  78 119 161 198 247 293 344
#     4  12  18  30  58  80 104 168 194 222 278 366
#     4  11  22  33  48  83 115 151 195 242 290 343
#     4  10  21  35  51  83 116 158 208 238 273 355
#     4  12  21  32  58  79 124 165 197 223 302 339
#     4  12  22  38  56  77 115 155 210 244 299 343
#     4  11  22  36  54  78 110 155 208 249 276 356
#     4  10  18  34  56  77 106 156 201 230 275 348
#
# _framework density 17.357489999999999
#
# number of rings (size 3 to 8) (size 9 to 14) (size 15 to 20)
#    0.000    1.176    4.706    4.235    2.471    0.000 
#    0.000    1.176    0.000    0.000    0.000    0.000 
#    0.000    3.765    0.000    0.000    0.000    0.000 
#
# Total GULP energy -189401.400517 kJ/mol
# GULP energy per Si atom -5570.629427 kJ/mol
# Density = 1.731798 g / cm^3
# Si number density = 17.357490 Si / 1000 Ang^3
#
#
#
# Elastic Constant Matrix: (Units=GPa)
#
#
# Indices 1 2 3 4 5 6 
#
# 1 69.3538 27.3333 26.7712 0.0000 0.0000 0.0000
# 2 27.3333 77.2542 53.3529 0.0000 0.0000 0.0000
# 3 26.7712 53.3529 182.5760 0.0000 0.0000 0.0000
# 4 0.0000 0.0000 0.0000 26.7225 0.0000 0.0000
# 5 0.0000 0.0000 0.0000 0.0000 26.1039 0.0000
# 6 0.0000 0.0000 0.0000 0.0000 0.0000 9.2809
#
#
#
# Elastic Compliance Matrix: (Units=1/GPa)
#
#
# Indices 1 2 3 4 5 6 
#
# 1 0.016876 -0.005340 -0.000914 0.000000 0.000000 0.000000
# 2 -0.005340 0.017907 -0.004450 0.000000 0.000000 0.000000
# 3 -0.000914 -0.004450 0.006912 0.000000 0.000000 0.000000
# 4 0.000000 0.000000 0.000000 0.037422 0.000000 0.000000
# 5 0.000000 0.000000 0.000000 0.000000 0.038308 0.000000
# 6 0.000000 0.000000 0.000000 0.000000 0.000000 0.107748
#
#
# Mechanical properties :
#
#
# Convention : Reuss Voigt Hill
#
# Bulk Modulus (GPa) = 49.29236 60.45542 54.87389
# Shear Modulus (GPa) = 19.73620 27.20323 23.46971
#
# Velocity S-wave (km/s) = 3.37566 3.96312 3.68113
# Velocity P-wave (km/s) = 6.60708 7.47309 7.05338
#
# Compressibility (1/GPa) = 0.02028712
#
# Stress axis : x y z
#
# Youngs Moduli (GPa) = 59.25532 55.84550 144.68546
#
# Poissons Ratio (x) = 0.29819 0.13227
# Poissons Ratio (y) = 0.31640 0.64382
# Poissons Ratio (z) = 0.05417 0.24850
#
# Static dielectric constant tensor:
#      x y z
#    x 1.590660 0.000000 0.000000 
#    y 0.000000 1.576160 0.000000 
#    z 0.000000 0.000000 1.719190 
# 
# From -- ./inp_files/19231.got.cif
#   From: 2010.05.17/outbox.cif.g08.bks.cpg/sg63_10_cif.got.tgz:19231.got - 2010.06.03 15:47:04.
