data_PCOD9469023
_publ_section_title
;
Structure prediction by ZEFSAII (Michael W. Deem and Ramdas Pophale) SiO2 
 PCOD9469023
Probable space group: C M C M
;
_chemical_formula_sum "Si O2"
_cell_formula_units_Z 60
_cell_length_a 11.916506
_cell_length_b 18.972657
_cell_length_c 14.875237
_cell_angle_alpha 90.000000
_cell_angle_beta 90.000000
_cell_angle_gamma 90.000000
_cell_volume 3363.109325
_symmetry_space_group_name_H-M "C M C M"
_symmetry_group_IT_number 63
_symmetry_cell_setting 'orthorhombic'
loop_
_space_group_symop_operation_xyz
x,y,z
-x,-y,1/2+z
x,-y,-z
-x,y,1/2-z
-x,-y,-z
x,y,1/2-z
-x,y,z
x,-y,1/2+z
1/2+x,1/2+y,z
1/2-x,1/2-y,1/2+z
1/2+x,1/2-y,-z
1/2-x,1/2+y,1/2-z
1/2-x,1/2-y,-z
1/2+x,1/2+y,1/2-z
1/2-x,1/2+y,z
1/2+x,1/2-y,1/2+z
loop_
_atom_site_type_symbol
_atom_site_label
_atom_site_fract_x
_atom_site_fract_y
_atom_site_fract_z
Si Si1 0.182180 0.653560 0.557301
Si Si2 0.130067 0.179406 0.431956
Si Si3 0.500000 0.878624 0.750000
Si Si4 0.500000 0.926923 0.947532
Si Si5 0.746986 0.815124 0.750000
Si Si6 0.633183 0.164238 0.750000
O O1 0.143903 0.735476 0.561800
O O2 0.308105 0.650871 0.520508
O O3 0.106618 0.615583 0.484203
O O4 0.158889 0.624881 0.657011
O O5 0.195400 0.156896 0.341389
O O6 0.000000 0.161855 0.426399
O O7 0.500000 0.925432 0.840155
O O8 0.614394 0.831556 0.750000
O O9 0.500000 0.000000 0.000000
O O10 0.784311 0.732457 0.750000
O O11 0.500000 0.184867 0.750000
#
# Coordination Sequence:
#
# PCOD9469023 Si02
#       6
#    16  16   4   8   8   8
#     4  10  19  33  51  82 112 150 190 232 277 348
#     4  10  18  31  55  81 118 145 179 234 303 345
#     4  12  24  38  54  92 116 134 202 248 280 344
#     4  12  24  40  58  78 122 160 190 238 281 327
#     4  10  18  30  53  82 117 141 176 238 296 352
#     4  10  18  31  54  80 117 156 189 224 293 363
#
# _framework density 17.840634000000001
#
# number of rings (size 3 to 8) (size 9 to 14) (size 15 to 20)
#    0.000    1.600    5.333    2.800    0.000    1.067 
#    0.000    0.000    0.000    0.800    0.000    0.000 
#    0.000    0.000    0.000    0.000    0.000    0.000 
#
# Total GULP energy -167166.422713 kJ/mol
# GULP energy per Si atom -5572.214090 kJ/mol
# Density = 1.780003 g / cm^3
# Si number density = 17.840634 Si / 1000 Ang^3
#
#
#
# Elastic Constant Matrix: (Units=GPa)
#
#
# Indices 1 2 3 4 5 6 
#
# 1 166.6455 16.9725 62.1243 0.0000 0.0000 0.0000
# 2 16.9725 21.5660 24.5680 0.0000 0.0000 0.0000
# 3 62.1243 24.5680 171.6535 0.0000 0.0000 0.0000
# 4 0.0000 0.0000 0.0000 12.1152 0.0000 0.0000
# 5 0.0000 0.0000 0.0000 0.0000 29.4484 0.0000
# 6 0.0000 0.0000 0.0000 0.0000 0.0000 -6.3448
#
#
#
# Elastic Compliance Matrix: (Units=1/GPa)
#
#
# Indices 1 2 3 4 5 6 
#
# 1 0.007115 -0.003185 -0.002119 0.000000 0.000000 0.000000
# 2 -0.003185 0.056829 -0.006981 0.000000 0.000000 0.000000
# 3 -0.002119 -0.006981 0.007592 0.000000 0.000000 0.000000
# 4 0.000000 0.000000 0.000000 0.082541 0.000000 0.000000
# 5 0.000000 0.000000 0.000000 0.000000 0.033958 0.000000
# 6 0.000000 0.000000 0.000000 0.000000 0.000000 -0.157610
#
#
# Mechanical properties :
#
#
# Convention : Reuss Voigt Hill
#
# Bulk Modulus (GPa) = 21.29255 63.02161 42.15708
# Shear Modulus (GPa) = 70.77129 24.12379 47.44754
#
# Velocity S-wave (km/s) = 6.30513 3.68119 5.16265
# Velocity P-wave (km/s) = 8.06021 7.31230 7.69535
#
# Compressibility (1/GPa) = 0.04696479
#
# Stress axis : x y z
#
# Youngs Moduli (GPa) = 140.54389 17.59676 131.72137
#
# Poissons Ratio (x) = 0.05605 0.27914
# Poissons Ratio (y) = 0.44770 0.91951
# Poissons Ratio (z) = 0.29784 0.12284
#
# Static dielectric constant tensor:
#      x y z
#    x 1.612960 0.000000 0.000000 
#    y 0.000000 1.603360 0.000000 
#    z 0.000000 0.000000 1.682200 
# 
# From -- ./inp_files/29379.got.cif
#   From: 2010.05.17/outbox.cif.g08.bks.cpg/sg63_15_cif.got.tgz:29379.got - 2010.06.03 15:47:04.
