data_PCOD9469561
_publ_section_title
;
Structure prediction by ZEFSAII (Michael W. Deem and Ramdas Pophale) SiO2 
 PCOD9469561
Probable space group: C M C M
;
_chemical_formula_sum "Si O2"
_cell_formula_units_Z 112
_cell_length_a 15.330259
_cell_length_b 23.134429
_cell_length_c 14.524615
_cell_angle_alpha 90.000000
_cell_angle_beta 90.000000
_cell_angle_gamma 90.000000
_cell_volume 5151.253308
_symmetry_space_group_name_H-M "C M C M"
_symmetry_group_IT_number 63
_symmetry_cell_setting 'orthorhombic'
loop_
_space_group_symop_operation_xyz
x,y,z
-x,-y,1/2+z
x,-y,-z
-x,y,1/2-z
-x,-y,-z
x,y,1/2-z
-x,y,z
x,-y,1/2+z
1/2+x,1/2+y,z
1/2-x,1/2-y,1/2+z
1/2+x,1/2-y,-z
1/2-x,1/2+y,1/2-z
1/2-x,1/2-y,-z
1/2+x,1/2+y,1/2-z
1/2-x,1/2+y,z
1/2+x,1/2-y,1/2+z
loop_
_atom_site_type_symbol
_atom_site_label
_atom_site_fract_x
_atom_site_fract_y
_atom_site_fract_z
Si Si1 0.401821 0.808363 0.499456
Si Si2 0.599064 0.316666 0.550631
Si Si3 0.273104 0.145344 0.357620
Si Si4 0.285111 0.016216 0.392131
Si Si5 0.139189 0.861523 0.352420
Si Si6 0.344307 0.893343 0.349832
Si Si7 0.592711 0.492273 0.110655
O O1 0.500000 0.804227 0.536281
O O2 0.386822 0.751752 0.436688
O O3 0.331105 0.812466 0.579884
O O4 0.392778 0.864125 0.434241
O O5 0.500000 0.332580 0.576821
O O6 0.674930 0.351615 0.601600
O O7 0.609552 0.326034 0.440812
O O8 0.273038 0.159187 0.250000
O O9 0.313381 0.081341 0.373595
O O10 0.281478 0.000000 0.500000
O O11 0.339417 0.962903 0.352381
O O12 0.185313 0.015373 0.355783
O O13 0.119010 0.838990 0.250000
O O14 0.243396 0.872395 0.358384
O O15 0.097035 0.924709 0.364853
O O16 0.378069 0.874815 0.250000
O O17 0.500000 0.516567 0.143470
O O18 0.593095 0.500000 0.000000
#
# Coordination Sequence:
#
# PCOD9469561 Si02
#       7
#    16  16  16  16  16  16  16
#     4  11  25  46  69  93 126 172 224 278 334 384
#     4  11  24  43  66  96 135 174 218 265 321 394
#     4  12  25  43  67  96 134 174 217 271 336 394
#     4  10  18  36  62  89 128 172 214 265 328 394
#     4  10  20  35  60  91 125 167 213 260 318 388
#     4  10  20  38  65  95 126 163 215 270 325 385
#     4   9  17  29  49  81 122 164 206 253 307 376
#
# _framework density 21.742281999999999
#
# number of rings (size 3 to 8) (size 9 to 14) (size 15 to 20)
#    0.000    1.571    2.857    3.000    0.000    5.429 
#    0.000    4.286    0.000    1.714    0.000    0.000 
#    0.000    0.000    0.000    0.000    0.000    0.000 
#
# Total GULP energy -312769.807005 kJ/mol
# GULP energy per Si atom -5585.175125 kJ/mol
# Density = 2.169280 g / cm^3
# Si number density = 21.742282 Si / 1000 Ang^3
#
#
#
# Elastic Constant Matrix: (Units=GPa)
#
#
# Indices 1 2 3 4 5 6 
#
# 1 52.2713 10.1748 24.0424 0.0000 0.0000 0.0000
# 2 10.1748 68.6680 3.9721 0.0000 0.0000 0.0000
# 3 24.0424 3.9721 127.1101 0.0000 0.0000 0.0000
# 4 0.0000 0.0000 0.0000 4.3253 0.0000 0.0000
# 5 0.0000 0.0000 0.0000 0.0000 19.4619 0.0000
# 6 0.0000 0.0000 0.0000 0.0000 0.0000 23.1711
#
#
#
# Elastic Compliance Matrix: (Units=1/GPa)
#
#
# Indices 1 2 3 4 5 6 
#
# 1 0.021539 -0.002961 -0.003981 0.000000 0.000000 0.000000
# 2 -0.002961 0.014996 0.000091 0.000000 0.000000 0.000000
# 3 -0.003981 0.000091 0.008617 0.000000 0.000000 0.000000
# 4 0.000000 0.000000 0.000000 0.231195 0.000000 0.000000
# 5 0.000000 0.000000 0.000000 0.000000 0.051382 0.000000
# 6 0.000000 0.000000 0.000000 0.000000 0.000000 0.043157
#
#
# Mechanical properties :
#
#
# Convention : Reuss Voigt Hill
#
# Bulk Modulus (GPa) = 31.79637 36.04755 33.92196
# Shear Modulus (GPa) = 12.65589 23.38234 18.01912
#
# Velocity S-wave (km/s) = 2.41526 3.28294 2.88194
# Velocity P-wave (km/s) = 4.73645 5.56648 5.16815
#
# Compressibility (1/GPa) = 0.03145014
#
# Stress axis : x y z
#
# Youngs Moduli (GPa) = 46.42818 66.68317 116.04422
#
# Poissons Ratio (x) = 0.19746 0.46202
# Poissons Ratio (y) = 0.13748 -0.01061
# Poissons Ratio (z) = 0.18485 -0.00610
#
# Static dielectric constant tensor:
#      x y z
#    x 1.801360 0.000000 0.000000 
#    y 0.000000 1.803950 0.000000 
#    z 0.000000 0.000000 1.791410 
# 
# From -- ./inp_files/32283.got.cif
#   From: 2010.05.17/outbox.cif.g08.bks.cpg/sg63_17_cif.got.tgz:32283.got - 2010.06.03 15:47:04.
