data_PCOD9469641
_publ_section_title
;
Structure prediction by ZEFSAII (Michael W. Deem and Ramdas Pophale) SiO2 
 PCOD9469641
Probable space group: C M C M
;
_chemical_formula_sum "Si O2"
_cell_formula_units_Z 96
_cell_length_a 28.494567
_cell_length_b 29.549107
_cell_length_c 8.977076
_cell_angle_alpha 90.000000
_cell_angle_beta 90.000000
_cell_angle_gamma 90.000000
_cell_volume 7558.599327
_symmetry_space_group_name_H-M "C M C M"
_symmetry_group_IT_number 63
_symmetry_cell_setting 'orthorhombic'
loop_
_space_group_symop_operation_xyz
x,y,z
-x,-y,1/2+z
x,-y,-z
-x,y,1/2-z
-x,-y,-z
x,y,1/2-z
-x,y,z
x,-y,1/2+z
1/2+x,1/2+y,z
1/2-x,1/2-y,1/2+z
1/2+x,1/2-y,-z
1/2-x,1/2+y,1/2-z
1/2-x,1/2-y,-z
1/2+x,1/2+y,1/2-z
1/2-x,1/2+y,z
1/2+x,1/2-y,1/2+z
loop_
_atom_site_type_symbol
_atom_site_label
_atom_site_fract_x
_atom_site_fract_y
_atom_site_fract_z
Si Si1 0.096978 0.279792 0.073024
Si Si2 0.599489 0.048804 0.429457
Si Si3 0.000000 0.590971 0.069685
Si Si4 0.759943 0.321284 0.578125
Si Si5 0.821146 0.771677 0.421885
Si Si6 0.842780 0.371194 0.073007
Si Si7 0.000000 0.303628 0.570817
O O1 0.091901 0.274518 0.250000
O O2 0.122744 0.328191 0.045694
O O3 0.131580 0.241801 0.007331
O O4 0.046991 0.281382 0.993150
O O5 0.600798 0.046730 0.250000
O O6 0.547486 0.065895 0.477392
O O7 0.635936 0.085926 0.488882
O O8 0.608411 0.000000 0.500000
O O9 0.000000 0.591246 0.250000
O O10 0.000000 0.643388 0.022368
O O11 0.754123 0.334612 0.750000
O O12 0.789699 0.274292 0.576680
O O13 0.710649 0.309306 0.501626
O O14 0.792102 0.356522 0.489142
O O15 0.830201 0.783068 0.250000
O O16 0.841002 0.378772 0.250000
O O17 0.000000 0.302217 0.750000
#
# Coordination Sequence:
#
# PCOD9469641 Si02
#       7
#    16  16   8  16  16  16   8
#     4  10  19  29  41  58  78  99 126 159 194 232
#     4  11  21  34  46  59  75  96 125 163 206 249
#     4   9  19  32  46  58  71  93 125 163 205 248
#     4   9  16  26  41  59  78  98 119 148 185 227
#     4   9  16  26  40  58  78 100 122 148 183 226
#     4  10  19  30  43  59  76  97 123 155 194 239
#     4  11  19  30  44  58  75 100 132 164 200 242
#
# _framework density 12.700766
#
# number of rings (size 3 to 8) (size 9 to 14) (size 15 to 20)
#    0.000    2.167    1.667    3.000    0.000    5.333 
#    0.000    1.250    0.000    0.000    0.000    0.000 
#    0.000    0.000    0.000    0.000    0.000    0.000 
#
# Total GULP energy -267673.793933 kJ/mol
# GULP energy per Si atom -5576.537374 kJ/mol
# Density = 1.267186 g / cm^3
# Si number density = 12.700766 Si / 1000 Ang^3
#
#
#
# Elastic Constant Matrix: (Units=GPa)
#
#
# Indices 1 2 3 4 5 6 
#
# 1 98.7664 52.4457 60.8610 0.0000 0.0000 0.0000
# 2 52.4457 48.3771 34.3589 0.0000 0.0000 0.0000
# 3 60.8610 34.3589 82.7155 0.0000 0.0000 0.0000
# 4 0.0000 0.0000 0.0000 16.9965 0.0000 0.0000
# 5 0.0000 0.0000 0.0000 0.0000 23.1965 0.0000
# 6 0.0000 0.0000 0.0000 0.0000 0.0000 10.3264
#
#
#
# Elastic Compliance Matrix: (Units=1/GPa)
#
#
# Indices 1 2 3 4 5 6 
#
# 1 0.030913 -0.024623 -0.012518 0.000000 0.000000 0.000000
# 2 -0.024623 0.048933 -0.002209 0.000000 0.000000 0.000000
# 3 -0.012518 -0.002209 0.022218 0.000000 0.000000 0.000000
# 4 0.000000 0.000000 0.000000 0.058836 0.000000 0.000000
# 5 0.000000 0.000000 0.000000 0.000000 0.043110 0.000000
# 6 0.000000 0.000000 0.000000 0.000000 0.000000 0.096839
#
#
# Mechanical properties :
#
#
# Convention : Reuss Voigt Hill
#
# Bulk Modulus (GPa) = 42.79865 58.35448 50.57657
# Shear Modulus (GPa) = 12.90867 15.58345 14.24606
#
# Velocity S-wave (km/s) = 3.19151 3.50661 3.35277
# Velocity P-wave (km/s) = 6.88127 7.90193 7.40920
#
# Compressibility (1/GPa) = 0.02336522
#
# Stress axis : x y z
#
# Youngs Moduli (GPa) = 32.34854 20.43591 45.00928
#
# Poissons Ratio (x) = 0.50319 0.56341
# Poissons Ratio (y) = 0.79651 0.09943
# Poissons Ratio (z) = 0.40493 0.04515
#
# Static dielectric constant tensor:
#      x y z
#    x 1.404060 0.000000 0.000000 
#    y 0.000000 1.385080 0.000000 
#    z 0.000000 0.000000 1.420770 
# 
# From -- ./inp_files/10789.got.cif
#   From: 2010.05.17/outbox.cif.g08.bks.cpg/sg63_6_cif.got.tgz:10789.got - 2010.06.03 15:47:04.
