data_PCOD9469467
_publ_section_title
;
Structure prediction by ZEFSAII (Michael W. Deem and Ramdas Pophale) SiO2 
 PCOD9469467
Probable space group: C M C M
;
_chemical_formula_sum "Si O2"
_cell_formula_units_Z 80
_cell_length_a 25.969254
_cell_length_b 14.249987
_cell_length_c 10.475073
_cell_angle_alpha 90.000000
_cell_angle_beta 90.000000
_cell_angle_gamma 90.000000
_cell_volume 3876.421561
_symmetry_space_group_name_H-M "C M C M"
_symmetry_group_IT_number 63
_symmetry_cell_setting 'orthorhombic'
loop_
_space_group_symop_operation_xyz
x,y,z
-x,-y,1/2+z
x,-y,-z
-x,y,1/2-z
-x,-y,-z
x,y,1/2-z
-x,y,z
x,-y,1/2+z
1/2+x,1/2+y,z
1/2-x,1/2-y,1/2+z
1/2+x,1/2-y,-z
1/2-x,1/2+y,1/2-z
1/2-x,1/2-y,-z
1/2+x,1/2+y,1/2-z
1/2-x,1/2+y,z
1/2+x,1/2-y,1/2+z
loop_
_atom_site_type_symbol
_atom_site_label
_atom_site_fract_x
_atom_site_fract_y
_atom_site_fract_z
Si Si1 0.184378 0.909959 0.250000
Si Si2 0.340359 0.887413 0.992135
Si Si3 0.611019 0.389361 0.017459
Si Si4 0.442502 0.787464 0.598242
Si Si5 0.718253 0.141622 0.750000
Si Si6 0.655251 0.374886 0.750000
Si Si7 0.225302 0.679376 0.250000
O O1 0.158743 0.875631 0.115302
O O2 0.244728 0.948512 0.250000
O O3 0.156612 0.013577 0.250000
O O4 0.396529 0.844309 0.968414
O O5 0.303945 0.856277 0.874688
O O6 0.314465 0.852559 0.123454
O O7 0.342891 0.000000 0.000000
O O8 0.566596 0.322835 0.071674
O O9 0.599059 0.500000 0.000000
O O10 0.627173 0.348230 0.880155
O O11 0.437408 0.803157 0.750000
O O12 0.500000 0.815248 0.558096
O O13 0.770941 0.205864 0.750000
O O14 0.713786 0.338894 0.750000
#
# Coordination Sequence:
#
# PCOD9469467 Si02
#       7
#     8  16  16  16   8   8   8
#     4  10  18  34  56  89 130 173 204 235 301 392
#     4  12  25  43  67  98 134 173 222 273 322 380
#     4  10  20  37  63  96 133 170 212 262 318 390
#     4  11  24  45  70  91 121 171 225 277 335 394
#     4  12  24  38  66  97 136 174 213 266 315 377
#     4  10  20  32  56  91 134 165 198 249 309 372
#     4  12  22  40  62  95 134 176 215 252 317 393
#
# _framework density 20.637588999999998
#
# number of rings (size 3 to 8) (size 9 to 14) (size 15 to 20)
#    0.000    1.000    2.000    6.000    0.000    2.400 
#    0.000    2.000    0.000    0.000    0.000    0.000 
#    0.000    0.000    0.000    0.000    0.000    0.000 
#
# Total GULP energy -223289.401788 kJ/mol
# GULP energy per Si atom -5582.235045 kJ/mol
# Density = 2.059062 g / cm^3
# Si number density = 20.637589 Si / 1000 Ang^3
#
#
#
# Elastic Constant Matrix: (Units=GPa)
#
#
# Indices 1 2 3 4 5 6 
#
# 1 123.3957 36.6417 64.6817 0.0000 0.0000 0.0000
# 2 36.6417 97.1810 28.5335 0.0000 0.0000 0.0000
# 3 64.6817 28.5335 160.3127 0.0000 0.0000 0.0000
# 4 0.0000 0.0000 0.0000 16.9010 0.0000 0.0000
# 5 0.0000 0.0000 0.0000 0.0000 24.8136 0.0000
# 6 0.0000 0.0000 0.0000 0.0000 0.0000 15.6722
#
#
#
# Elastic Compliance Matrix: (Units=1/GPa)
#
#
# Indices 1 2 3 4 5 6 
#
# 1 0.011057 -0.003017 -0.003924 0.000000 0.000000 0.000000
# 2 -0.003017 0.011681 -0.000862 0.000000 0.000000 0.000000
# 3 -0.003924 -0.000862 0.007974 0.000000 0.000000 0.000000
# 4 0.000000 0.000000 0.000000 0.059168 0.000000 0.000000
# 5 0.000000 0.000000 0.000000 0.000000 0.040300 0.000000
# 6 0.000000 0.000000 0.000000 0.000000 0.000000 0.063807
#
#
# Mechanical properties :
#
#
# Convention : Reuss Voigt Hill
#
# Bulk Modulus (GPa) = 66.19705 71.17814 68.68759
# Shear Modulus (GPa) = 23.29606 28.21286 25.75446
#
# Velocity S-wave (km/s) = 3.36343 3.70139 3.53645
# Velocity P-wave (km/s) = 6.87235 7.26853 7.07321
#
# Compressibility (1/GPa) = 0.01510641
#
# Stress axis : x y z
#
# Youngs Moduli (GPa) = 90.44215 85.61228 125.39983
#
# Poissons Ratio (x) = 0.25827 0.49209
# Poissons Ratio (y) = 0.27284 0.10807
# Poissons Ratio (z) = 0.35491 0.07378
#
# Static dielectric constant tensor:
#      x y z
#    x 1.753840 0.000000 0.000000 
#    y 0.000000 2.048040 0.000000 
#    z 0.000000 0.000000 1.765650 
# 
# From -- ./inp_files/23737.got.cif
#   From: 2010.05.17/outbox.cif.g08.bks.cpg/sg63_12_cif.got.tgz:23737.got - 2010.06.03 15:47:04.
