data_PCOD9469837
_publ_section_title
;
Structure prediction by ZEFSAII (Michael W. Deem and Ramdas Pophale) SiO2 
 PCOD9469837
Probable space group: C M C M
;
_chemical_formula_sum "Si O2"
_cell_formula_units_Z 80
_cell_length_a 27.949507
_cell_length_b 18.155085
_cell_length_c 8.977508
_cell_angle_alpha 90.000000
_cell_angle_beta 90.000000
_cell_angle_gamma 90.000000
_cell_volume 4555.418059
_symmetry_space_group_name_H-M "C M C M"
_symmetry_group_IT_number 63
_symmetry_cell_setting 'orthorhombic'
loop_
_space_group_symop_operation_xyz
x,y,z
-x,-y,1/2+z
x,-y,-z
-x,y,1/2-z
-x,-y,-z
x,y,1/2-z
-x,y,z
x,-y,1/2+z
1/2+x,1/2+y,z
1/2-x,1/2-y,1/2+z
1/2+x,1/2-y,-z
1/2-x,1/2+y,1/2-z
1/2-x,1/2-y,-z
1/2+x,1/2+y,1/2-z
1/2-x,1/2+y,z
1/2+x,1/2-y,1/2+z
loop_
_atom_site_type_symbol
_atom_site_label
_atom_site_fract_x
_atom_site_fract_y
_atom_site_fract_z
Si Si1 0.553689 0.262968 0.071026
Si Si2 0.413851 0.574017 0.573147
Si Si3 0.817628 0.873389 0.927289
Si Si4 0.790017 0.578512 0.071473
Si Si5 0.149399 0.291590 0.427128
O O1 0.560205 0.256518 0.250000
O O2 0.500000 0.238866 0.033337
O O3 0.559586 0.349841 0.033982
O O4 0.595841 0.220209 0.988388
O O5 0.433573 0.500000 0.500000
O O6 0.414531 0.566035 0.750000
O O7 0.359614 0.586238 0.516124
O O8 0.825212 0.884857 0.750000
O O9 0.765005 0.901183 0.967001
O O10 0.823538 0.786087 0.956612
O O11 0.793681 0.575324 0.250000
O O12 0.801835 0.500000 0.000000
O O13 0.823831 0.642241 0.008147
O O14 0.148967 0.303332 0.250000
#
# Coordination Sequence:
#
# PCOD9469837 Si02
#       5
#    16  16  16  16  16
#     4   9  19  36  55  74  98 132 173 214 258 307
#     4  10  19  30  47  72 104 140 175 212 253 297
#     4   9  19  34  52  75 104 139 176 210 246 294
#     4  11  22  35  52  76 106 139 173 209 252 300
#     4  10  20  35  55  79 105 133 169 212 256 303
#
# _framework density 17.561506000000001
#
# number of rings (size 3 to 8) (size 9 to 14) (size 15 to 20)
#    0.000    2.200    0.000    3.000    0.000    5.600 
#    0.000    0.000    0.000    0.600    0.000    0.000 
#    0.000    0.000    0.000    0.000    0.000    0.000 
#
# Total GULP energy -223379.268911 kJ/mol
# GULP energy per Si atom -5584.481723 kJ/mol
# Density = 1.752153 g / cm^3
# Si number density = 17.561506 Si / 1000 Ang^3
#
#
#
# Elastic Constant Matrix: (Units=GPa)
#
#
# Indices 1 2 3 4 5 6 
#
# 1 61.5875 17.8799 21.6932 0.0000 0.0000 0.0000
# 2 17.8799 56.6689 25.6437 0.0000 0.0000 0.0000
# 3 21.6932 25.6437 36.4332 0.0000 0.0000 0.0000
# 4 0.0000 0.0000 0.0000 31.4882 0.0000 0.0000
# 5 0.0000 0.0000 0.0000 0.0000 22.9929 0.0000
# 6 0.0000 0.0000 0.0000 0.0000 0.0000 2.0102
#
#
#
# Elastic Compliance Matrix: (Units=1/GPa)
#
#
# Indices 1 2 3 4 5 6 
#
# 1 0.020621 -0.001394 -0.011297 0.000000 0.000000 0.000000
# 2 -0.001394 0.025988 -0.017462 0.000000 0.000000 0.000000
# 3 -0.011297 -0.017462 0.046464 0.000000 0.000000 0.000000
# 4 0.000000 0.000000 0.000000 0.031758 0.000000 0.000000
# 5 0.000000 0.000000 0.000000 0.000000 0.043492 0.000000
# 6 0.000000 0.000000 0.000000 0.000000 0.000000 0.497454
#
#
# Mechanical properties :
#
#
# Convention : Reuss Voigt Hill
#
# Bulk Modulus (GPa) = 30.51768 31.68035 31.09901
# Shear Modulus (GPa) = 6.78421 17.26312 12.02366
#
# Velocity S-wave (km/s) = 1.96761 3.13870 2.61944
# Velocity P-wave (km/s) = 4.75156 5.58695 5.18611
#
# Compressibility (1/GPa) = 0.03276789
#
# Stress axis : x y z
#
# Youngs Moduli (GPa) = 48.49433 38.47931 21.52184
#
# Poissons Ratio (x) = 0.05365 0.24313
# Poissons Ratio (y) = 0.06761 0.37581
# Poissons Ratio (z) = 0.54784 0.67191
#
# Static dielectric constant tensor:
#      x y z
#    x 1.580240 0.000000 0.000000 
#    y 0.000000 1.586110 0.000000 
#    z 0.000000 0.000000 1.580970 
# 
# From -- ./inp_files/11965.got.cif
#   From: 2010.05.17/outbox.cif.g08.bks.cpg/sg63_6_cif.got.tgz:11965.got - 2010.06.03 15:47:04.
