data_PCOD9469993
_publ_section_title
;
Structure prediction by ZEFSAII (Michael W. Deem and Ramdas Pophale) SiO2 
 PCOD9469993
Probable space group: C M C M
;
_chemical_formula_sum "Si O2"
_cell_formula_units_Z 96
_cell_length_a 20.230683
_cell_length_b 19.575380
_cell_length_c 14.934727
_cell_angle_alpha 90.000000
_cell_angle_beta 90.000000
_cell_angle_gamma 90.000000
_cell_volume 5914.499981
_symmetry_space_group_name_H-M "C M C M"
_symmetry_group_IT_number 63
_symmetry_cell_setting 'orthorhombic'
loop_
_space_group_symop_operation_xyz
x,y,z
-x,-y,1/2+z
x,-y,-z
-x,y,1/2-z
-x,-y,-z
x,y,1/2-z
-x,y,z
x,-y,1/2+z
1/2+x,1/2+y,z
1/2-x,1/2-y,1/2+z
1/2+x,1/2-y,-z
1/2-x,1/2+y,1/2-z
1/2-x,1/2-y,-z
1/2+x,1/2+y,1/2-z
1/2-x,1/2+y,z
1/2+x,1/2-y,1/2+z
loop_
_atom_site_type_symbol
_atom_site_label
_atom_site_fract_x
_atom_site_fract_y
_atom_site_fract_z
Si Si1 0.622002 0.483057 0.851582
Si Si2 0.759455 0.930655 0.978782
Si Si3 0.428340 0.341489 0.894263
Si Si4 0.927411 0.133406 0.893284
Si Si5 0.222169 0.807706 0.645454
Si Si6 0.213725 0.837395 0.149164
O O1 0.647840 0.491255 0.750000
O O2 0.678808 0.462059 0.921896
O O3 0.574861 0.417625 0.854168
O O4 0.586303 0.552773 0.878802
O O5 0.743358 0.866126 0.914900
O O6 0.773772 0.894363 0.073743
O O7 0.718433 0.000000 0.000000
O O8 0.500000 0.310019 0.869927
O O9 0.357761 0.308565 0.868415
O O10 0.426571 0.350451 0.001346
O O11 0.865365 0.171727 0.851214
O O12 0.000000 0.150071 0.858123
O O13 0.234094 0.822292 0.750000
O O14 0.250619 0.733086 0.624669
O O15 0.234312 0.857242 0.250000
#
# Coordination Sequence:
#
# PCOD9469993 Si02
#       6
#    16  16  16  16  16  16
#     4  11  19  29  45  68  99 135 167 199 240 282
#     4  11  19  32  50  72  95 128 166 210 244 284
#     4  10  19  31  48  69  95 128 164 201 245 298
#     4  11  21  32  46  68 100 138 172 203 238 283
#     4  10  21  35  52  71  97 134 169 203 250 302
#     4  11  22  35  50  68  96 137 174 207 248 291
#
# _framework density 16.231296
#
# number of rings (size 3 to 8) (size 9 to 14) (size 15 to 20)
#    0.000    1.333    5.000    4.000    0.000    5.333 
#    0.000    0.000    0.000    0.000    0.000    0.000 
#    0.000    2.667    0.000    7.333    0.000    0.000 
#
# Total GULP energy -267279.116815 kJ/mol
# GULP energy per Si atom -5568.314934 kJ/mol
# Density = 1.619435 g / cm^3
# Si number density = 16.231296 Si / 1000 Ang^3
#
#
#
# Elastic Constant Matrix: (Units=GPa)
#
#
# Indices 1 2 3 4 5 6 
#
# 1 64.2754 48.6809 -0.4622 0.0000 0.0000 0.0000
# 2 48.6809 97.2671 38.9383 0.0000 0.0000 0.0000
# 3 -0.4622 38.9383 108.6003 0.0000 0.0000 0.0000
# 4 0.0000 0.0000 0.0000 164.6082 0.0000 0.0000
# 5 0.0000 0.0000 0.0000 0.0000 6.0151 0.0000
# 6 0.0000 0.0000 0.0000 0.0000 0.0000 19.1213
#
#
#
# Elastic Compliance Matrix: (Units=1/GPa)
#
#
# Indices 1 2 3 4 5 6 
#
# 1 0.028065 -0.016456 0.006020 0.000000 0.000000 0.000000
# 2 -0.016456 0.021653 -0.007834 0.000000 0.000000 0.000000
# 3 0.006020 -0.007834 0.012042 0.000000 0.000000 0.000000
# 4 0.000000 0.000000 0.000000 0.006075 0.000000 0.000000
# 5 0.000000 0.000000 0.000000 0.000000 0.166250 0.000000
# 6 0.000000 0.000000 0.000000 0.000000 0.000000 0.052298
#
#
# Mechanical properties :
#
#
# Convention : Reuss Voigt Hill
#
# Bulk Modulus (GPa) = 39.65051 49.38409 44.51730
# Shear Modulus (GPa) = 15.09076 50.14797 32.61937
#
# Velocity S-wave (km/s) = 3.05246 5.56443 4.48779
# Velocity P-wave (km/s) = 6.07493 8.47202 7.37157
#
# Compressibility (1/GPa) = 0.02522035
#
# Stress axis : x y z
#
# Youngs Moduli (GPa) = 35.63210 46.18335 83.03986
#
# Poissons Ratio (x) = 0.75998 -0.49987
# Poissons Ratio (y) = 0.58635 0.65050
# Poissons Ratio (z) = -0.21449 0.36178
#
# Static dielectric constant tensor:
#      x y z
#    x 1.566840 0.000000 0.000000 
#    y 0.000000 1.557790 0.000000 
#    z 0.000000 0.000000 1.619470 
# 
# From -- ./inp_files/35753.got.cif
#   From: 2010.05.17/outbox.cif.g08.bks.cpg/sg63_18_cif.got.tgz:35753.got - 2010.06.03 15:47:04.
