data_PCOD9469649
_publ_section_title
;
Structure prediction by ZEFSAII (Michael W. Deem and Ramdas Pophale) SiO2 
 PCOD9469649
Probable space group: C M C M
;
_chemical_formula_sum "Si O2"
_cell_formula_units_Z 96
_cell_length_a 7.452190
_cell_length_b 24.025627
_cell_length_c 28.253165
_cell_angle_alpha 90.000000
_cell_angle_beta 90.000000
_cell_angle_gamma 90.000000
_cell_volume 5058.546601
_symmetry_space_group_name_H-M "C M C M"
_symmetry_group_IT_number 63
_symmetry_cell_setting 'orthorhombic'
loop_
_space_group_symop_operation_xyz
x,y,z
-x,-y,1/2+z
x,-y,-z
-x,y,1/2-z
-x,-y,-z
x,y,1/2-z
-x,y,z
x,-y,1/2+z
1/2+x,1/2+y,z
1/2-x,1/2-y,1/2+z
1/2+x,1/2-y,-z
1/2-x,1/2+y,1/2-z
1/2-x,1/2-y,-z
1/2+x,1/2+y,1/2-z
1/2-x,1/2+y,z
1/2+x,1/2-y,1/2+z
loop_
_atom_site_type_symbol
_atom_site_label
_atom_site_fract_x
_atom_site_fract_y
_atom_site_fract_z
Si Si1 0.717447 0.145159 0.648585
Si Si2 0.219212 0.483443 0.355037
Si Si3 0.709387 0.719052 0.940095
Si Si4 0.209521 0.645274 0.750000
Si Si5 0.209093 0.510129 0.750000
Si Si6 0.719768 0.962412 0.545128
Si Si7 0.795867 0.337043 0.964286
O O1 0.500000 0.144152 0.649628
O O2 0.773280 0.081316 0.640014
O O3 0.774684 0.186964 0.608448
O O4 0.785923 0.163308 0.700080
O O5 0.280709 0.504888 0.302735
O O6 0.273467 0.514503 0.403170
O O7 0.000000 0.484668 0.353359
O O8 0.500000 0.723646 0.953425
O O9 0.783482 0.782040 0.939332
O O10 0.796727 0.681863 0.980981
O O11 0.214604 0.577726 0.750000
O O12 0.000000 0.661232 0.750000
O O13 0.000000 0.493040 0.750000
O O14 0.500000 0.963142 0.543876
O O15 0.782506 0.898551 0.539986
O O16 0.776594 0.000000 0.500000
O O17 0.000000 0.342429 0.946512
#
# Coordination Sequence:
#
# PCOD9469649 Si02
#       7
#    16  16  16   8   8  16  16
#     4   9  15  26  45  66  86 108 136 169 206 243
#     4   8  13  21  38  63  85 104 130 167 207 246
#     4  10  19  29  42  60  83 111 141 170 201 241
#     4   7  12  22  39  64  87 105 131 169 204 237
#     4   7  10  18  32  56  87 107 123 159 208 245
#     4   9  15  23  39  62  82 101 131 170 208 245
#     4   9  18  31  44  59  81 109 139 169 202 243
#
# _framework density 18.977782999999999
#
# number of rings (size 3 to 8) (size 9 to 14) (size 15 to 20)
#    0.000    3.333    0.000    3.500    0.000    3.333 
#    0.000    0.417    0.000    5.500    0.000    3.500 
#    0.000    0.000    0.000    0.000    0.000    0.000 
#
# Total GULP energy -267205.874872 kJ/mol
# GULP energy per Si atom -5566.789060 kJ/mol
# Density = 1.893459 g / cm^3
# Si number density = 18.977783 Si / 1000 Ang^3
#
#
#
# Elastic Constant Matrix: (Units=GPa)
#
#
# Indices 1 2 3 4 5 6 
#
# 1 57.3875 3.7060 1.5860 0.0000 0.0000 0.0000
# 2 3.7060 131.2240 100.4269 0.0000 0.0000 0.0000
# 3 1.5860 100.4269 177.5226 0.0000 0.0000 0.0000
# 4 0.0000 0.0000 0.0000 29.1594 0.0000 0.0000
# 5 0.0000 0.0000 0.0000 0.0000 3.5915 0.0000
# 6 0.0000 0.0000 0.0000 0.0000 0.0000 7.7596
#
#
#
# Elastic Compliance Matrix: (Units=1/GPa)
#
#
# Indices 1 2 3 4 5 6 
#
# 1 0.017462 -0.000659 0.000217 0.000000 0.000000 0.000000
# 2 -0.000659 0.013464 -0.007611 0.000000 0.000000 0.000000
# 3 0.000217 -0.007611 0.009937 0.000000 0.000000 0.000000
# 4 0.000000 0.000000 0.000000 0.034294 0.000000 0.000000
# 5 0.000000 0.000000 0.000000 0.000000 0.278433 0.000000
# 6 0.000000 0.000000 0.000000 0.000000 0.000000 0.128872
#
#
# Mechanical properties :
#
#
# Convention : Reuss Voigt Hill
#
# Bulk Modulus (GPa) = 40.39362 64.17465 52.28413
# Shear Modulus (GPa) = 9.86543 25.46313 17.66428
#
# Velocity S-wave (km/s) = 2.28248 3.66694 3.05419
# Velocity P-wave (km/s) = 5.31763 7.19845 6.32830
#
# Compressibility (1/GPa) = 0.02475639
#
# Stress axis : x y z
#
# Youngs Moduli (GPa) = 57.26728 74.27368 100.63772
#
# Poissons Ratio (x) = 0.04896 -0.02183
# Poissons Ratio (y) = 0.03775 0.76593
# Poissons Ratio (z) = -0.01242 0.56528
#
# Static dielectric constant tensor:
#      x y z
#    x 1.996180 0.000000 0.000000 
#    y 0.000000 1.641130 0.000000 
#    z 0.000000 0.000000 1.675690 
# 
# From -- ./inp_files/67276.got.cif
#   From: 2010.05.17/outbox.cif.g08.bks.cpg/sg63_34_cif.got.tgz:67276.got - 2010.06.03 15:47:04.
