data_PCOD9469310
_publ_section_title
;
Structure prediction by ZEFSAII (Michael W. Deem and Ramdas Pophale) SiO2 
 PCOD9469310
Probable space group: C M C M
;
_chemical_formula_sum "Si O2"
_cell_formula_units_Z 104
_cell_length_a 21.417639
_cell_length_b 26.461558
_cell_length_c 8.959317
_cell_angle_alpha 90.000000
_cell_angle_beta 90.000000
_cell_angle_gamma 90.000000
_cell_volume 5077.640020
_symmetry_space_group_name_H-M "C M C M"
_symmetry_group_IT_number 63
_symmetry_cell_setting 'orthorhombic'
loop_
_space_group_symop_operation_xyz
x,y,z
-x,-y,1/2+z
x,-y,-z
-x,y,1/2-z
-x,-y,-z
x,y,1/2-z
-x,y,z
x,-y,1/2+z
1/2+x,1/2+y,z
1/2-x,1/2-y,1/2+z
1/2+x,1/2-y,-z
1/2-x,1/2+y,1/2-z
1/2-x,1/2-y,-z
1/2+x,1/2+y,1/2-z
1/2-x,1/2+y,z
1/2+x,1/2-y,1/2+z
loop_
_atom_site_type_symbol
_atom_site_label
_atom_site_fract_x
_atom_site_fract_y
_atom_site_fract_z
Si Si1 0.880507 0.445367 0.923691
Si Si2 0.129246 0.052783 0.575118
Si Si3 0.207775 0.292078 0.424459
Si Si4 0.234280 0.405225 0.420147
Si Si5 0.428349 0.765594 0.070379
Si Si6 0.500000 0.943248 0.072542
Si Si7 0.425642 0.657990 0.578836
O O1 0.894970 0.450330 0.750000
O O2 0.873778 0.500000 0.000000
O O3 0.815838 0.419145 0.956653
O O4 0.937447 0.418594 0.009592
O O5 0.112523 0.049888 0.750000
O O6 0.203374 0.062524 0.563591
O O7 0.099850 0.105057 0.516241
O O8 0.111781 0.000000 0.500000
O O9 0.203342 0.279410 0.250000
O O10 0.250000 0.250000 0.500000
O O11 0.243240 0.345455 0.435340
O O12 0.134997 0.295184 0.478385
O O13 0.209679 0.414109 0.250000
O O14 0.431472 0.768579 0.250000
O O15 0.500000 0.778509 0.016760
O O16 0.414323 0.708196 0.016851
O O17 0.500000 0.946026 0.250000
O O18 0.500000 0.000000 0.000000
O O19 0.401283 0.664602 0.750000
O O20 0.500000 0.652878 0.587854
#
# Coordination Sequence:
#
# PCOD9469310 Si02
#       7
#    16  16  16  16  16   8  16
#     4  11  21  35  55  79 108 140 179 225 270 322
#     4  10  21  35  52  75 107 143 182 229 273 327
#     4  10  21  37  58  82 111 145 186 233 281 338
#     4  10  21  37  53  76 107 142 185 228 277 330
#     4   9  18  34  56  83 113 143 180 227 276 329
#     4  10  18  32  54  78 104 138 176 214 260 314
#     4   9  18  34  56  81 109 143 180 219 270 329
#
# _framework density 20.481957000000001
#
# number of rings (size 3 to 8) (size 9 to 14) (size 15 to 20)
#    0.000    2.154    0.000    4.385    0.000    5.231 
#    1.385    0.000    0.000    0.000    0.000    0.000 
#    0.000    0.000    0.000    0.000    0.000    0.000 
#
# Total GULP energy -289962.402258 kJ/mol
# GULP energy per Si atom -5576.200043 kJ/mol
# Density = 2.043534 g / cm^3
# Si number density = 20.481957 Si / 1000 Ang^3
#
#
#
# Elastic Constant Matrix: (Units=GPa)
#
#
# Indices 1 2 3 4 5 6 
#
# 1 23.9178 -2.1681 4.8904 0.0000 0.0000 0.0000
# 2 -2.1681 25.1671 0.0945 0.0000 0.0000 0.0000
# 3 4.8904 0.0945 58.4275 0.0000 0.0000 0.0000
# 4 0.0000 0.0000 0.0000 21.7226 0.0000 0.0000
# 5 0.0000 0.0000 0.0000 0.0000 27.0750 0.0000
# 6 0.0000 0.0000 0.0000 0.0000 0.0000 31.1047
#
#
#
# Elastic Compliance Matrix: (Units=1/GPa)
#
#
# Indices 1 2 3 4 5 6 
#
# 1 0.042881 0.003708 -0.003595 0.000000 0.000000 0.000000
# 2 0.003708 0.040055 -0.000375 0.000000 0.000000 0.000000
# 3 -0.003595 -0.000375 0.017417 0.000000 0.000000 0.000000
# 4 0.000000 0.000000 0.000000 0.046035 0.000000 0.000000
# 5 0.000000 0.000000 0.000000 0.000000 0.036934 0.000000
# 6 0.000000 0.000000 0.000000 0.000000 0.000000 0.032150
#
#
# Mechanical properties :
#
#
# Convention : Reuss Voigt Hill
#
# Bulk Modulus (GPa) = 10.01724 12.57176 11.29450
# Shear Modulus (GPa) = 20.05832 22.96017 21.50924
#
# Velocity S-wave (km/s) = 3.13280 3.35176 3.24413
# Velocity P-wave (km/s) = 4.24114 4.59677 4.42253
#
# Compressibility (1/GPa) = 0.09982787
#
# Stress axis : x y z
#
# Youngs Moduli (GPa) = 23.32030 24.96554 57.41600
#
# Poissons Ratio (x) = -0.09256 0.20642
# Poissons Ratio (y) = -0.08646 0.02154
# Poissons Ratio (z) = 0.08384 0.00936
#
# Static dielectric constant tensor:
#      x y z
#    x 1.817350 0.000000 0.000000 
#    y 0.000000 1.772700 0.000000 
#    z 0.000000 0.000000 1.719460 
# 
# From -- ./inp_files/8761.got.cif
#   From: 2010.05.17/outbox.cif.g08.bks.cpg/sg63_5_cif.got.tgz:8761.got - 2010.06.03 15:47:04.
