data_PCOD9469254
_publ_section_title
;
Structure prediction by ZEFSAII (Michael W. Deem and Ramdas Pophale) SiO2 
 PCOD9469254
Probable space group: C M C M
;
_chemical_formula_sum "Si O2"
_cell_formula_units_Z 80
_cell_length_a 19.486329
_cell_length_b 15.349808
_cell_length_c 15.469324
_cell_angle_alpha 90.000000
_cell_angle_beta 90.000000
_cell_angle_gamma 90.000000
_cell_volume 4627.051294
_symmetry_space_group_name_H-M "C M C M"
_symmetry_group_IT_number 63
_symmetry_cell_setting 'orthorhombic'
loop_
_space_group_symop_operation_xyz
x,y,z
-x,-y,1/2+z
x,-y,-z
-x,y,1/2-z
-x,-y,-z
x,y,1/2-z
-x,y,z
x,-y,1/2+z
1/2+x,1/2+y,z
1/2-x,1/2-y,1/2+z
1/2+x,1/2-y,-z
1/2-x,1/2+y,1/2-z
1/2-x,1/2-y,-z
1/2+x,1/2+y,1/2-z
1/2-x,1/2+y,z
1/2+x,1/2-y,1/2+z
loop_
_atom_site_type_symbol
_atom_site_label
_atom_site_fract_x
_atom_site_fract_y
_atom_site_fract_z
Si Si1 0.500000 0.307682 0.647089
Si Si2 0.268052 0.394838 0.843471
Si Si3 0.239329 0.350366 0.473836
Si Si4 0.360779 0.778995 0.151383
Si Si5 0.148505 0.928532 0.347269
Si Si6 0.000000 0.011551 0.602355
O O1 0.500000 0.295087 0.750000
O O2 0.568562 0.260291 0.614593
O O3 0.500000 0.411587 0.635100
O O4 0.230997 0.400302 0.750000
O O5 0.309968 0.304440 0.843689
O O6 0.322166 0.473346 0.845343
O O7 0.229346 0.399324 0.935040
O O8 0.250000 0.250000 0.500000
O O9 0.175348 0.350134 0.408694
O O10 0.306423 0.381212 0.420581
O O11 0.369933 0.810434 0.250000
O O12 0.158835 0.891366 0.250000
O O13 0.068332 0.938011 0.368265
O O14 0.000000 0.000000 0.500000
#
# Coordination Sequence:
#
# PCOD9469254 Si02
#       6
#     8  16  16  16  16   8
#     4  10  18  32  52  74 101 138 175 209 257 310
#     4   9  17  30  49  71  98 131 171 211 256 304
#     4  10  20  32  47  68 102 137 176 211 257 304
#     4   9  17  30  49  72 100 135 172 213 254 300
#     4  11  21  34  51  76 106 140 177 215 258 308
#     4  12  22  30  52  78 114 142 173 209 255 310
#
# _framework density 17.289629999999999
#
# number of rings (size 3 to 8) (size 9 to 14) (size 15 to 20)
#    0.000    2.000    2.000    3.300    2.800    0.800 
#    0.000    0.000    0.000    0.000    0.000    3.500 
#    0.000    3.200    0.000    8.000    0.000    0.400 
#
# Total GULP energy -222749.842676 kJ/mol
# GULP energy per Si atom -5568.746067 kJ/mol
# Density = 1.725028 g / cm^3
# Si number density = 17.289630 Si / 1000 Ang^3
#
#
#
# Elastic Constant Matrix: (Units=GPa)
#
#
# Indices 1 2 3 4 5 6 
#
# 1 83.4073 25.2304 48.5819 0.0000 0.0000 0.0000
# 2 25.2304 26.3635 30.6075 0.0000 0.0000 0.0000
# 3 48.5819 30.6075 136.6179 0.0000 0.0000 0.0000
# 4 0.0000 0.0000 0.0000 30.1567 0.0000 0.0000
# 5 0.0000 0.0000 0.0000 0.0000 10.7875 0.0000
# 6 0.0000 0.0000 0.0000 0.0000 0.0000 24.8617
#
#
#
# Elastic Compliance Matrix: (Units=1/GPa)
#
#
# Indices 1 2 3 4 5 6 
#
# 1 0.017992 -0.013233 -0.003433 0.000000 0.000000 0.000000
# 2 -0.013233 0.060998 -0.008960 0.000000 0.000000 0.000000
# 3 -0.003433 -0.008960 0.010548 0.000000 0.000000 0.000000
# 4 0.000000 0.000000 0.000000 0.033160 0.000000 0.000000
# 5 0.000000 0.000000 0.000000 0.000000 0.092700 0.000000
# 6 0.000000 0.000000 0.000000 0.000000 0.000000 0.040223
#
#
# Mechanical properties :
#
#
# Convention : Reuss Voigt Hill
#
# Bulk Modulus (GPa) = 26.11966 50.58093 38.35029
# Shear Modulus (GPa) = 15.64287 22.62576 19.13432
#
# Velocity S-wave (km/s) = 3.01118 3.62143 3.33031
# Velocity P-wave (km/s) = 5.21819 6.84141 6.08418
#
# Compressibility (1/GPa) = 0.03828534
#
# Stress axis : x y z
#
# Youngs Moduli (GPa) = 55.58020 16.39407 94.80408
#
# Poissons Ratio (x) = 0.21693 0.32551
# Poissons Ratio (y) = 0.73547 0.84947
# Poissons Ratio (z) = 0.19083 0.14689
#
# Static dielectric constant tensor:
#      x y z
#    x 1.595900 0.000000 0.000000 
#    y 0.000000 1.583510 0.000000 
#    z 0.000000 0.000000 1.691330 
# 
# From -- ./inp_files/33897.got.cif
#   From: 2010.05.17/outbox.cif.g08.bks.cpg/sg63_17_cif.got.tgz:33897.got - 2010.06.03 15:47:04.
