data_PCOD9469486
_publ_section_title
;
Structure prediction by ZEFSAII (Michael W. Deem and Ramdas Pophale) SiO2 
 PCOD9469486
Probable space group: C M C M
;
_chemical_formula_sum "Si O2"
_cell_formula_units_Z 116
_cell_length_a 7.678092
_cell_length_b 25.966065
_cell_length_c 28.729281
_cell_angle_alpha 90.000000
_cell_angle_beta 90.000000
_cell_angle_gamma 90.000000
_cell_volume 5727.752040
_symmetry_space_group_name_H-M "C M C M"
_symmetry_group_IT_number 63
_symmetry_cell_setting 'orthorhombic'
loop_
_space_group_symop_operation_xyz
x,y,z
-x,-y,1/2+z
x,-y,-z
-x,y,1/2-z
-x,-y,-z
x,y,1/2-z
-x,y,z
x,-y,1/2+z
1/2+x,1/2+y,z
1/2-x,1/2-y,1/2+z
1/2+x,1/2-y,-z
1/2-x,1/2+y,1/2-z
1/2-x,1/2-y,-z
1/2+x,1/2+y,1/2-z
1/2-x,1/2+y,z
1/2+x,1/2-y,1/2+z
loop_
_atom_site_type_symbol
_atom_site_label
_atom_site_fract_x
_atom_site_fract_y
_atom_site_fract_z
Si Si1 0.709168 0.048063 0.409073
Si Si2 0.211888 0.237041 0.304163
Si Si3 0.786985 0.327489 0.128855
Si Si4 0.805536 0.914904 0.490813
Si Si5 0.296996 0.876075 0.827649
Si Si6 0.707145 0.196607 0.524367
Si Si7 0.000000 0.897255 0.750000
Si Si8 0.302769 0.061328 0.609756
O O1 0.500000 0.043261 0.411706
O O2 0.770474 0.055510 0.461703
O O3 0.746920 0.096574 0.376443
O O4 0.778151 0.995154 0.386215
O O5 0.264015 0.236325 0.250000
O O6 0.266627 0.288626 0.330777
O O7 0.281432 0.185796 0.328694
O O8 0.000000 0.234125 0.305047
O O9 0.735033 0.305468 0.078324
O O10 0.723925 0.386606 0.131239
O O11 0.000000 0.329217 0.129224
O O12 0.785446 0.853917 0.499831
O O13 0.690707 0.928154 0.445970
O O14 0.000000 0.926138 0.474897
O O15 0.500000 0.889068 0.816311
O O16 0.154811 0.893987 0.790225
O O17 0.500000 0.189949 0.523706
O O18 0.750000 0.250000 0.500000
O O19 0.500000 0.058063 0.628196
#
# Coordination Sequence:
#
# PCOD9469486 Si02
#       8
#    16  16  16  16  16  16   4  16
#     4  10  22  37  58  86 117 153 199 247 293 356
#     4  10  18  34  58  86 116 149 190 239 295 356
#     4   8  17  32  56  80 107 149 192 231 288 350
#     4  11  22  34  53  82 115 155 201 241 291 351
#     4  11  23  39  62  93 120 153 196 240 300 368
#     4  10  20  35  51  75 113 154 192 236 285 345
#     4  12  22  44  64  86 122 160 186 248 306 356
#     4   9  18  38  59  79 114 158 199 245 294 344
#
# _framework density 20.252272999999999
#
# number of rings (size 3 to 8) (size 9 to 14) (size 15 to 20)
#    0.000    2.069    1.379    3.103    2.897    2.207 
#    0.000    2.759    1.517    0.000    0.000    0.000 
#    0.000    0.000    0.000    0.000    0.000    0.000 
#
# Total GULP energy -323110.460929 kJ/mol
# GULP energy per Si atom -5570.870016 kJ/mol
# Density = 2.020618 g / cm^3
# Si number density = 20.252273 Si / 1000 Ang^3
#
#
#
# Elastic Constant Matrix: (Units=GPa)
#
#
# Indices 1 2 3 4 5 6 
#
# 1 73.1452 -5.7103 6.7185 0.0000 0.0000 0.0000
# 2 -5.7103 142.5950 50.5538 0.0000 0.0000 0.0000
# 3 6.7185 50.5538 47.1066 0.0000 0.0000 0.0000
# 4 0.0000 0.0000 0.0000 4.1739 0.0000 0.0000
# 5 0.0000 0.0000 0.0000 0.0000 18.0538 0.0000
# 6 0.0000 0.0000 0.0000 0.0000 0.0000 12.1353
#
#
#
# Elastic Compliance Matrix: (Units=1/GPa)
#
#
# Indices 1 2 3 4 5 6 
#
# 1 0.014225 0.002081 -0.004262 0.000000 0.000000 0.000000
# 2 0.002081 0.011624 -0.012771 0.000000 0.000000 0.000000
# 3 -0.004262 -0.012771 0.035542 0.000000 0.000000 0.000000
# 4 0.000000 0.000000 0.000000 0.239582 0.000000 0.000000
# 5 0.000000 0.000000 0.000000 0.000000 0.055390 0.000000
# 6 0.000000 0.000000 0.000000 0.000000 0.000000 0.082404
#
#
# Mechanical properties :
#
#
# Convention : Reuss Voigt Hill
#
# Bulk Modulus (GPa) = 31.75955 40.66343 36.21149
# Shear Modulus (GPa) = 10.43475 20.95826 15.69650
#
# Velocity S-wave (km/s) = 2.27235 3.22041 2.78699
# Velocity P-wave (km/s) = 4.75403 5.82667 5.31747
#
# Compressibility (1/GPa) = 0.03148659
#
# Stress axis : x y z
#
# Youngs Moduli (GPa) = 70.29732 86.02916 28.13556
#
# Poissons Ratio (x) = -0.17899 0.11990
# Poissons Ratio (y) = -0.14625 0.35933
# Poissons Ratio (z) = 0.29958 1.09871
#
# Static dielectric constant tensor:
#      x y z
#    x 1.767410 0.000000 0.000000 
#    y 0.000000 1.754980 0.000000 
#    z 0.000000 0.000000 1.659290 
# 
# From -- ./inp_files/72064.got.cif
#   From: 2010.05.17/outbox.cif.g08.bks.cpg/sg63_37_cif.got.tgz:72064.got - 2010.06.03 15:47:04.
