data_PCOD9469373
_publ_section_title
;
Structure prediction by ZEFSAII (Michael W. Deem and Ramdas Pophale) SiO2 
 PCOD9469373
Probable space group: C M C M
;
_chemical_formula_sum "Si O2"
_cell_formula_units_Z 96
_cell_length_a 17.762768
_cell_length_b 18.601195
_cell_length_c 18.477588
_cell_angle_alpha 90.000000
_cell_angle_beta 90.000000
_cell_angle_gamma 90.000000
_cell_volume 6105.156039
_symmetry_space_group_name_H-M "C M C M"
_symmetry_group_IT_number 63
_symmetry_cell_setting 'orthorhombic'
loop_
_space_group_symop_operation_xyz
x,y,z
-x,-y,1/2+z
x,-y,-z
-x,y,1/2-z
-x,-y,-z
x,y,1/2-z
-x,y,z
x,-y,1/2+z
1/2+x,1/2+y,z
1/2-x,1/2-y,1/2+z
1/2+x,1/2-y,-z
1/2-x,1/2+y,1/2-z
1/2-x,1/2-y,-z
1/2+x,1/2+y,1/2-z
1/2-x,1/2+y,z
1/2+x,1/2-y,1/2+z
loop_
_atom_site_type_symbol
_atom_site_label
_atom_site_fract_x
_atom_site_fract_y
_atom_site_fract_z
Si Si1 0.088350 0.464893 0.079936
Si Si2 0.285805 0.949826 0.833226
Si Si3 0.290292 0.665235 0.065249
Si Si4 0.693603 0.827386 0.418909
Si Si5 0.085491 0.917228 0.475304
Si Si6 0.681346 0.410376 0.166858
O O1 0.140230 0.515663 0.130052
O O2 0.125553 0.385003 0.081994
O O3 0.000000 0.462863 0.099735
O O4 0.094393 0.500000 0.000000
O O5 0.301175 0.933043 0.750000
O O6 0.251783 0.882036 0.874947
O O7 0.222515 0.012328 0.836809
O O8 0.318086 0.742784 0.092748
O O9 0.231360 0.669933 0.998532
O O10 0.360814 0.624863 0.029927
O O11 0.755032 0.855096 0.361044
O O12 0.116789 0.909444 0.393728
O O13 0.000000 0.891793 0.479226
O O14 0.088591 0.000000 0.500000
O O15 0.658711 0.397010 0.250000
#
# Coordination Sequence:
#
# PCOD9469373 Si02
#       6
#    16  16  16  16  16  16
#     4  10  19  33  54  78 107 139 175 219 265 313
#     4  10  19  32  53  75 100 137 175 213 259 309
#     4  10  18  33  51  76 104 135 175 217 256 308
#     4   9  19  31  53  77 101 135 174 217 261 302
#     4  10  19  31  51  75 103 136 169 211 257 303
#     4   9  18  32  51  75  99 131 174 214 252 304
#
# _framework density 15.724413
#
# number of rings (size 3 to 8) (size 9 to 14) (size 15 to 20)
#    0.000    2.333    3.333    0.000    0.000    2.000 
#    0.000    0.000    0.000    0.500    0.000    4.667 
#    0.000    0.000    0.000    0.000    0.000    0.000 
#
# Total GULP energy -267349.983053 kJ/mol
# GULP energy per Si atom -5569.791314 kJ/mol
# Density = 1.568862 g / cm^3
# Si number density = 15.724413 Si / 1000 Ang^3
#
#
#
# Elastic Constant Matrix: (Units=GPa)
#
#
# Indices 1 2 3 4 5 6 
#
# 1 114.6056 53.5783 54.1562 0.0000 0.0000 0.0000
# 2 53.5783 112.9442 50.2357 0.0000 0.0000 0.0000
# 3 54.1562 50.2357 107.5604 0.0000 0.0000 0.0000
# 4 0.0000 0.0000 0.0000 8.3531 0.0000 0.0000
# 5 0.0000 0.0000 0.0000 0.0000 10.8411 0.0000
# 6 0.0000 0.0000 0.0000 0.0000 0.0000 12.6899
#
#
#
# Elastic Compliance Matrix: (Units=1/GPa)
#
#
# Indices 1 2 3 4 5 6 
#
# 1 0.012756 -0.004032 -0.004539 0.000000 0.000000 0.000000
# 2 -0.004032 0.012450 -0.003785 0.000000 0.000000 0.000000
# 3 -0.004539 -0.003785 0.013350 0.000000 0.000000 0.000000
# 4 0.000000 0.000000 0.000000 0.119716 0.000000 0.000000
# 5 0.000000 0.000000 0.000000 0.000000 0.092241 0.000000
# 6 0.000000 0.000000 0.000000 0.000000 0.000000 0.078803
#
#
# Mechanical properties :
#
#
# Convention : Reuss Voigt Hill
#
# Bulk Modulus (GPa) = 72.23346 72.33893 72.28620
# Shear Modulus (GPa) = 13.94148 18.18616 16.06382
#
# Velocity S-wave (km/s) = 2.98084 3.40451 3.19969
# Velocity P-wave (km/s) = 7.60816 7.84591 7.72795
#
# Compressibility (1/GPa) = 0.01384400
#
# Stress axis : x y z
#
# Youngs Moduli (GPa) = 78.39747 80.32167 74.90534
#
# Poissons Ratio (x) = 0.32385 0.34001
# Poissons Ratio (y) = 0.31610 0.28349
# Poissons Ratio (z) = 0.35586 0.30399
#
# Static dielectric constant tensor:
#      x y z
#    x 1.506550 0.000000 0.000000 
#    y 0.000000 1.529210 0.000000 
#    z 0.000000 0.000000 1.513100 
# 
# From -- ./inp_files/45721.got.cif
#   From: 2010.05.17/outbox.cif.g08.bks.cpg/sg63_23_cif.got.tgz:45721.got - 2010.06.03 15:47:04.
