data_PCOD9469754
_publ_section_title
;
Structure prediction by ZEFSAII (Michael W. Deem and Ramdas Pophale) SiO2 
 PCOD9469754
Probable space group: C M C M
;
_chemical_formula_sum "Si O2"
_cell_formula_units_Z 100
_cell_length_a 25.654164
_cell_length_b 32.546571
_cell_length_c 7.657361
_cell_angle_alpha 90.000000
_cell_angle_beta 90.000000
_cell_angle_gamma 90.000000
_cell_volume 6393.552390
_symmetry_space_group_name_H-M "C M C M"
_symmetry_group_IT_number 63
_symmetry_cell_setting 'orthorhombic'
loop_
_space_group_symop_operation_xyz
x,y,z
-x,-y,1/2+z
x,-y,-z
-x,y,1/2-z
-x,-y,-z
x,y,1/2-z
-x,y,z
x,-y,1/2+z
1/2+x,1/2+y,z
1/2-x,1/2-y,1/2+z
1/2+x,1/2-y,-z
1/2-x,1/2+y,1/2-z
1/2-x,1/2-y,-z
1/2+x,1/2+y,1/2-z
1/2-x,1/2+y,z
1/2+x,1/2-y,1/2+z
loop_
_atom_site_type_symbol
_atom_site_label
_atom_site_fract_x
_atom_site_fract_y
_atom_site_fract_z
Si Si1 0.556865 0.833899 0.456845
Si Si2 0.056951 0.762571 0.461990
Si Si3 0.722321 0.807910 0.456675
Si Si4 0.343668 0.883896 0.553664
Si Si5 0.085932 0.546948 0.550933
Si Si6 0.830804 0.775625 0.046239
Si Si7 0.500000 0.066534 0.250000
O O1 0.560245 0.842854 0.250000
O O2 0.500000 0.847782 0.523433
O O3 0.558782 0.785094 0.482294
O O4 0.604744 0.855233 0.548280
O O5 0.057828 0.763346 0.250000
O O6 0.111166 0.781881 0.527303
O O7 0.000000 0.778911 0.518053
O O8 0.722472 0.799546 0.250000
O O9 0.700858 0.853482 0.484352
O O10 0.780552 0.799428 0.527462
O O11 0.684650 0.772679 0.534142
O O12 0.330551 0.895390 0.750000
O O13 0.362849 0.924406 0.455541
O O14 0.097117 0.500000 0.500000
O O15 0.065015 0.548136 0.750000
O O16 0.045531 0.562925 0.405206
O O17 0.833721 0.786810 0.250000
#
# Coordination Sequence:
#
# PCOD9469754 Si02
#       7
#    16  16  16  16  16  16   4
#     4  10  20  30  40  59  82 109 140 180 230 279
#     4   9  16  27  42  60  83 112 141 179 225 278
#     4  10  19  30  45  63  85 115 150 193 234 281
#     4  12  23  36  48  66  89 116 155 194 243 285
#     4  12  25  41  58  77  98 125 159 199 245 302
#     4   9  17  29  44  64  86 114 150 186 234 284
#     4  12  24  44  58  82  96 130 154 204 244 306
#
# _framework density 15.640757000000001
#
# number of rings (size 3 to 8) (size 9 to 14) (size 15 to 20)
#    0.000    1.600    3.200    2.880    1.120    1.600 
#    0.000    0.000    0.000    0.000    0.000    0.000 
#    0.000    0.000    0.000    0.000    0.000    0.800 
#
# Total GULP energy -278361.699243 kJ/mol
# GULP energy per Si atom -5567.233985 kJ/mol
# Density = 1.560516 g / cm^3
# Si number density = 15.640757 Si / 1000 Ang^3
#
#
#
# Elastic Constant Matrix: (Units=GPa)
#
#
# Indices 1 2 3 4 5 6 
#
# 1 121.3284 34.6170 7.7330 0.0000 0.0000 0.0000
# 2 34.6170 52.2605 5.1240 0.0000 0.0000 0.0000
# 3 7.7330 5.1240 72.4150 0.0000 0.0000 0.0000
# 4 0.0000 0.0000 0.0000 10.4312 0.0000 0.0000
# 5 0.0000 0.0000 0.0000 0.0000 11.8388 0.0000
# 6 0.0000 0.0000 0.0000 0.0000 0.0000 7.2368
#
#
#
# Elastic Compliance Matrix: (Units=1/GPa)
#
#
# Indices 1 2 3 4 5 6 
#
# 1 0.010190 -0.006689 -0.000615 0.000000 0.000000 0.000000
# 2 -0.006689 0.023660 -0.000960 0.000000 0.000000 0.000000
# 3 -0.000615 -0.000960 0.013943 0.000000 0.000000 0.000000
# 4 0.000000 0.000000 0.000000 0.095866 0.000000 0.000000
# 5 0.000000 0.000000 0.000000 0.000000 0.084468 0.000000
# 6 0.000000 0.000000 0.000000 0.000000 0.000000 0.138182
#
#
# Mechanical properties :
#
#
# Convention : Reuss Voigt Hill
#
# Bulk Modulus (GPa) = 31.98494 37.88352 34.93423
# Shear Modulus (GPa) = 12.71429 19.13670 15.92550
#
# Velocity S-wave (km/s) = 2.85422 3.50167 3.19439
# Velocity P-wave (km/s) = 5.59967 6.37358 5.99912
#
# Compressibility (1/GPa) = 0.03126471
#
# Stress axis : x y z
#
# Youngs Moduli (GPa) = 98.13655 42.26534 71.72127
#
# Poissons Ratio (x) = 0.28273 0.04410
# Poissons Ratio (y) = 0.65648 0.06884
# Poissons Ratio (z) = 0.06034 0.04057
#
# Static dielectric constant tensor:
#      x y z
#    x 1.576300 0.000000 0.000000 
#    y 0.000000 1.521790 0.000000 
#    z 0.000000 0.000000 1.574880 
# 
# From -- ./inp_files/13308.got.cif
#   From: 2010.05.17/outbox.cif.g08.bks.cpg/sg63_7_cif.got.tgz:13308.got - 2010.06.03 15:47:04.
