data_PCOD9469845
_publ_section_title
;
Structure prediction by ZEFSAII (Michael W. Deem and Ramdas Pophale) SiO2 
 PCOD9469845
Probable space group: C M C M
;
_chemical_formula_sum "Si O2"
_cell_formula_units_Z 96
_cell_length_a 32.041408
_cell_length_b 19.591370
_cell_length_c 9.130062
_cell_angle_alpha 90.000000
_cell_angle_beta 90.000000
_cell_angle_gamma 90.000000
_cell_volume 5731.260195
_symmetry_space_group_name_H-M "C M C M"
_symmetry_group_IT_number 63
_symmetry_cell_setting 'orthorhombic'
loop_
_space_group_symop_operation_xyz
x,y,z
-x,-y,1/2+z
x,-y,-z
-x,y,1/2-z
-x,-y,-z
x,y,1/2-z
-x,y,z
x,-y,1/2+z
1/2+x,1/2+y,z
1/2-x,1/2-y,1/2+z
1/2+x,1/2-y,-z
1/2-x,1/2+y,1/2-z
1/2-x,1/2-y,-z
1/2+x,1/2+y,1/2-z
1/2-x,1/2+y,z
1/2+x,1/2-y,1/2+z
loop_
_atom_site_type_symbol
_atom_site_label
_atom_site_fract_x
_atom_site_fract_y
_atom_site_fract_z
Si Si1 0.795317 0.572996 0.574318
Si Si2 0.954242 0.332857 0.921175
Si Si3 0.699566 0.426243 0.074408
Si Si4 0.369824 0.828774 0.074567
Si Si5 0.453553 0.332804 0.078821
Si Si6 0.631113 0.331956 0.924984
O O1 0.802469 0.500000 0.500000
O O2 0.798361 0.565256 0.750000
O O3 0.747617 0.594579 0.542464
O O4 0.830008 0.627327 0.526443
O O5 0.950949 0.350910 0.750000
O O6 0.954458 0.250003 0.929106
O O7 0.000000 0.355878 0.975820
O O8 0.913097 0.355177 0.006204
O O9 0.694602 0.430993 0.250000
O O10 0.693379 0.500000 0.000000
O O11 0.666829 0.374095 0.005826
O O12 0.373002 0.832876 0.250000
O O13 0.364648 0.748644 0.038177
O O14 0.447178 0.350478 0.250000
O O15 0.500000 0.356562 0.034084
O O16 0.414492 0.355133 0.982016
O O17 0.634029 0.339674 0.750000
#
# Coordination Sequence:
#
# PCOD9469845 Si02
#       6
#    16  16  16  16  16  16
#     4   9  19  35  52  70  93 124 161 199 239 284
#     4   8  14  25  42  66  95 125 158 194 231 275
#     4  10  20  35  53  70  92 124 161 198 237 284
#     4   9  18  31  47  71 101 127 155 195 240 282
#     4   8  14  26  44  66  94 127 160 193 230 274
#     4  10  19  30  47  73 102 128 156 193 236 281
#
# _framework density 16.750242
#
# number of rings (size 3 to 8) (size 9 to 14) (size 15 to 20)
#    0.000    3.000    0.000    2.000    0.000    3.333 
#    0.000    3.333    0.000    1.000    0.000    0.000 
#    0.000    0.000    0.000    0.000    0.000    0.000 
#
# Total GULP energy -267320.243348 kJ/mol
# GULP energy per Si atom -5569.171736 kJ/mol
# Density = 1.671212 g / cm^3
# Si number density = 16.750242 Si / 1000 Ang^3
#
#
#
# Elastic Constant Matrix: (Units=GPa)
#
#
# Indices 1 2 3 4 5 6 
#
# 1 187.2306 75.9273 71.7143 0.0000 0.0000 0.0000
# 2 75.9273 43.2663 34.7557 0.0000 0.0000 0.0000
# 3 71.7143 34.7557 47.5526 0.0000 0.0000 0.0000
# 4 0.0000 0.0000 0.0000 19.9690 0.0000 0.0000
# 5 0.0000 0.0000 0.0000 0.0000 30.4440 0.0000
# 6 0.0000 0.0000 0.0000 0.0000 0.0000 -10.6590
#
#
#
# Elastic Compliance Matrix: (Units=1/GPa)
#
#
# Indices 1 2 3 4 5 6 
#
# 1 0.020776 -0.027346 -0.011346 0.000000 0.000000 0.000000
# 2 -0.027346 0.091971 -0.025981 0.000000 0.000000 0.000000
# 3 -0.011346 -0.025981 0.057130 0.000000 0.000000 0.000000
# 4 0.000000 0.000000 0.000000 0.050078 0.000000 0.000000
# 5 0.000000 0.000000 0.000000 0.000000 0.032847 0.000000
# 6 0.000000 0.000000 0.000000 0.000000 0.000000 -0.093818
#
#
# Mechanical properties :
#
#
# Convention : Reuss Voigt Hill
#
# Bulk Modulus (GPa) = 24.67190 71.42713 48.04951
# Shear Modulus (GPa) = 16.56500 14.32762 15.44631
#
# Velocity S-wave (km/s) = 3.14815 2.92784 3.03999
# Velocity P-wave (km/s) = 5.28921 7.35967 6.40860
#
# Compressibility (1/GPa) = 0.04053195
#
# Stress axis : x y z
#
# Youngs Moduli (GPa) = 48.13177 10.87294 17.50395
#
# Poissons Ratio (x) = 0.29733 0.19860
# Poissons Ratio (y) = 1.31619 0.45477
# Poissons Ratio (z) = 0.54611 0.28249
#
# Static dielectric constant tensor:
#      x y z
#    x 1.582870 0.000000 0.000000 
#    y 0.000000 1.543340 0.000000 
#    z 0.000000 0.000000 1.557790 
# 
# From -- ./inp_files/12366.got.cif
#   From: 2010.05.17/outbox.cif.g08.bks.cpg/sg63_7_cif.got.tgz:12366.got - 2010.06.03 15:47:04.
