data_PCOD9469121
_publ_section_title
;
Structure prediction by ZEFSAII (Michael W. Deem and Ramdas Pophale) SiO2 
 PCOD9469121
Probable space group: C M C M
;
_chemical_formula_sum "Si O2"
_cell_formula_units_Z 96
_cell_length_a 7.788018
_cell_length_b 26.578421
_cell_length_c 24.061788
_cell_angle_alpha 90.000000
_cell_angle_beta 90.000000
_cell_angle_gamma 90.000000
_cell_volume 4980.627005
_symmetry_space_group_name_H-M "C M C M"
_symmetry_group_IT_number 63
_symmetry_cell_setting 'orthorhombic'
loop_
_space_group_symop_operation_xyz
x,y,z
-x,-y,1/2+z
x,-y,-z
-x,y,1/2-z
-x,-y,-z
x,y,1/2-z
-x,y,z
x,-y,1/2+z
1/2+x,1/2+y,z
1/2-x,1/2-y,1/2+z
1/2+x,1/2-y,-z
1/2-x,1/2+y,1/2-z
1/2-x,1/2-y,-z
1/2+x,1/2+y,1/2-z
1/2-x,1/2+y,z
1/2+x,1/2-y,1/2+z
loop_
_atom_site_type_symbol
_atom_site_label
_atom_site_fract_x
_atom_site_fract_y
_atom_site_fract_z
Si Si1 0.795202 0.192554 0.432578
Si Si2 0.697706 0.405550 0.880570
Si Si3 0.290015 0.502710 0.685091
Si Si4 0.696318 0.598154 0.616630
Si Si5 0.303280 0.059618 0.498992
Si Si6 0.798185 0.304734 0.440881
O O1 0.724344 0.150164 0.390439
O O2 0.726539 0.249370 0.426428
O O3 0.771017 0.179497 0.498123
O O4 0.000000 0.193127 0.423073
O O5 0.500000 0.399555 0.862019
O O6 0.773332 0.450893 0.843651
O O7 0.705432 0.425707 0.943484
O O8 0.249455 0.502989 0.750000
O O9 0.500000 0.502768 0.678894
O O10 0.227210 0.554154 0.655513
O O11 0.500000 0.605101 0.633869
O O12 0.709945 0.575900 0.554723
O O13 0.771697 0.653662 0.606641
O O14 0.500000 0.080125 0.498522
O O15 0.315641 0.000000 0.500000
O O16 0.000000 0.298630 0.449397
#
# Coordination Sequence:
#
# PCOD9469121 Si02
#       6
#    16  16  16  16  16  16
#     4   9  18  30  46  71 102 135 168 197 238 297
#     4  10  18  31  52  73  97 129 163 202 245 294
#     4   9  19  34  52  74  96 123 166 215 255 292
#     4  11  20  31  50  73  99 132 168 203 246 296
#     4  11  21  30  44  72 106 132 157 193 247 306
#     4  10  19  30  45  70 105 138 165 198 240 292
#
# _framework density 19.274681999999999
#
# number of rings (size 3 to 8) (size 9 to 14) (size 15 to 20)
#    0.000    2.000    3.333    1.500    0.000    1.333 
#    0.000    0.000    0.000    5.500    0.000    2.333 
#    0.000    0.000    0.000    0.000    0.000    0.000 
#
# Total GULP energy -267378.817575 kJ/mol
# GULP energy per Si atom -5570.392033 kJ/mol
# Density = 1.923081 g / cm^3
# Si number density = 19.274682 Si / 1000 Ang^3
#
#
#
# Elastic Constant Matrix: (Units=GPa)
#
#
# Indices 1 2 3 4 5 6 
#
# 1 30.7999 -0.7397 -9.9563 0.0000 0.0000 0.0000
# 2 -0.7397 172.0173 63.7257 0.0000 0.0000 0.0000
# 3 -9.9563 63.7257 89.0744 0.0000 0.0000 0.0000
# 4 0.0000 0.0000 0.0000 12.7096 0.0000 0.0000
# 5 0.0000 0.0000 0.0000 0.0000 -3.1301 0.0000
# 6 0.0000 0.0000 0.0000 0.0000 0.0000 18.3430
#
#
#
# Elastic Compliance Matrix: (Units=1/GPa)
#
#
# Indices 1 2 3 4 5 6 
#
# 1 0.034054 -0.001719 0.005037 0.000000 0.000000 0.000000
# 2 -0.001719 0.007997 -0.005913 0.000000 0.000000 0.000000
# 3 0.005037 -0.005913 0.016020 0.000000 0.000000 0.000000
# 4 0.000000 0.000000 0.000000 0.078681 0.000000 0.000000
# 5 0.000000 0.000000 0.000000 0.000000 -0.319482 0.000000
# 6 0.000000 0.000000 0.000000 0.000000 0.000000 0.054517
#
#
# Mechanical properties :
#
#
# Convention : Reuss Voigt Hill
#
# Bulk Modulus (GPa) = 18.91111 44.21677 31.56394
# Shear Modulus (GPa) = -47.44027 21.50864 -12.96582
#
# Velocity S-wave (km/s) = -4.96650 3.34413 -2.59643
# Velocity P-wave (km/s) = 4.80162 6.15639 2.72448
#
# Compressibility (1/GPa) = 0.05287897
#
# Stress axis : x y z
#
# Youngs Moduli (GPa) = 29.36475 125.05417 62.42248
#
# Poissons Ratio (x) = 0.21502 -0.31439
# Poissons Ratio (y) = 0.05049 0.36911
# Poissons Ratio (z) = -0.14790 0.73945
#
# Static dielectric constant tensor:
#      x y z
#    x 1.743860 0.000000 0.000000 
#    y 0.000000 1.780060 0.000000 
#    z 0.000000 0.000000 1.612430 
# 
# From -- ./inp_files/60242.got.cif
#   From: 2010.05.17/outbox.cif.g08.bks.cpg/sg63_31_cif.got.tgz:60242.got - 2010.06.03 15:47:04.
