data_PCOD9469332
_publ_section_title
;
Structure prediction by ZEFSAII (Michael W. Deem and Ramdas Pophale) SiO2 
 PCOD9469332
Probable space group: C M C M
;
_chemical_formula_sum "Si O2"
_cell_formula_units_Z 96
_cell_length_a 28.940184
_cell_length_b 20.461888
_cell_length_c 9.496980
_cell_angle_alpha 90.000000
_cell_angle_beta 90.000000
_cell_angle_gamma 90.000000
_cell_volume 5623.834279
_symmetry_space_group_name_H-M "C M C M"
_symmetry_group_IT_number 63
_symmetry_cell_setting 'orthorhombic'
loop_
_space_group_symop_operation_xyz
x,y,z
-x,-y,1/2+z
x,-y,-z
-x,y,1/2-z
-x,-y,-z
x,y,1/2-z
-x,y,z
x,-y,1/2+z
1/2+x,1/2+y,z
1/2-x,1/2-y,1/2+z
1/2+x,1/2-y,-z
1/2-x,1/2+y,1/2-z
1/2-x,1/2-y,-z
1/2+x,1/2+y,1/2-z
1/2-x,1/2+y,z
1/2+x,1/2-y,1/2+z
loop_
_atom_site_type_symbol
_atom_site_label
_atom_site_fract_x
_atom_site_fract_y
_atom_site_fract_z
Si Si1 0.868026 0.931511 0.920680
Si Si2 0.805218 0.693804 0.915216
Si Si3 0.055096 0.560439 0.091002
Si Si4 0.086192 0.683601 0.917210
Si Si5 0.280011 0.343875 0.917684
Si Si6 0.052566 0.828801 0.579144
O O1 0.869614 0.939521 0.750000
O O2 0.819633 0.895531 0.955865
O O3 0.910023 0.883127 0.962883
O O4 0.871640 0.000000 0.000000
O O5 0.794607 0.686190 0.750000
O O6 0.858745 0.678326 0.936653
O O7 0.798642 0.770722 0.949787
O O8 0.768742 0.652013 0.003617
O O9 0.073874 0.561781 0.250000
O O10 0.000000 0.551233 0.101446
O O11 0.074137 0.500000 0.000000
O O12 0.063459 0.627356 0.008693
O O13 0.075982 0.675486 0.750000
O O14 0.069038 0.755854 0.959714
O O15 0.273148 0.347799 0.750000
O O16 0.052285 0.829602 0.750000
O O17 0.000000 0.840942 0.530887
#
# Coordination Sequence:
#
# PCOD9469332 Si02
#       6
#    16  16  16  16  16  16
#     4  10  20  35  53  75 105 141 181 223 266 315
#     4   9  17  30  52  79 104 128 165 213 259 310
#     4  10  21  36  53  75 105 140 176 213 256 311
#     4  10  18  32  55  82 107 136 174 219 264 313
#     4   9  17  32  51  73 102 134 169 211 257 310
#     4   9  17  31  53  78 104 138 180 221 265 318
#
# _framework density 17.070204
#
# number of rings (size 3 to 8) (size 9 to 14) (size 15 to 20)
#    0.000    2.500    1.667    1.000    0.000    3.333 
#    0.000    1.667    0.000    3.000    0.000    0.000 
#    0.000    0.000    0.000    0.000    0.000    0.000 
#
# Total GULP energy -267536.560438 kJ/mol
# GULP energy per Si atom -5573.678342 kJ/mol
# Density = 1.703135 g / cm^3
# Si number density = 17.070204 Si / 1000 Ang^3
#
#
#
# Elastic Constant Matrix: (Units=GPa)
#
#
# Indices 1 2 3 4 5 6 
#
# 1 74.2100 50.4946 36.8262 0.0000 0.0000 0.0000
# 2 50.4946 127.9632 52.5917 0.0000 0.0000 0.0000
# 3 36.8262 52.5917 48.2203 0.0000 0.0000 0.0000
# 4 0.0000 0.0000 0.0000 26.8990 0.0000 0.0000
# 5 0.0000 0.0000 0.0000 0.0000 23.3244 0.0000
# 6 0.0000 0.0000 0.0000 0.0000 0.0000 22.7003
#
#
#
# Elastic Compliance Matrix: (Units=1/GPa)
#
#
# Indices 1 2 3 4 5 6 
#
# 1 0.022434 -0.003282 -0.013553 0.000000 0.000000 0.000000
# 2 -0.003282 0.014644 -0.013465 0.000000 0.000000 0.000000
# 3 -0.013553 -0.013465 0.045774 0.000000 0.000000 0.000000
# 4 0.000000 0.000000 0.000000 0.037176 0.000000 0.000000
# 5 0.000000 0.000000 0.000000 0.000000 0.042874 0.000000
# 6 0.000000 0.000000 0.000000 0.000000 0.000000 0.044052
#
#
# Mechanical properties :
#
#
# Convention : Reuss Voigt Hill
#
# Bulk Modulus (GPa) = 44.94028 58.91314 51.92671
# Shear Modulus (GPa) = 18.18364 21.95015 20.06690
#
# Velocity S-wave (km/s) = 3.26732 3.58980 3.43235
# Velocity P-wave (km/s) = 6.37321 7.19510 6.79659
#
# Compressibility (1/GPa) = 0.02225175
#
# Stress axis : x y z
#
# Youngs Moduli (GPa) = 44.57422 68.28832 21.84634
#
# Poissons Ratio (x) = 0.22415 0.29609
# Poissons Ratio (y) = 0.14631 0.29415
# Poissons Ratio (z) = 0.60414 0.91947
#
# Static dielectric constant tensor:
#      x y z
#    x 1.585440 0.000000 0.000000 
#    y 0.000000 1.556770 0.000000 
#    z 0.000000 0.000000 1.577970 
# 
# From -- ./inp_files/12363.got.cif
#   From: 2010.05.17/outbox.cif.g08.bks.cpg/sg63_7_cif.got.tgz:12363.got - 2010.06.03 15:47:04.
