data_PCOD9469775
_publ_section_title
;
Structure prediction by ZEFSAII (Michael W. Deem and Ramdas Pophale) SiO2 
 PCOD9469775
Probable space group: C M C M
;
_chemical_formula_sum "Si O2"
_cell_formula_units_Z 96
_cell_length_a 8.630805
_cell_length_b 28.011001
_cell_length_c 24.613339
_cell_angle_alpha 90.000000
_cell_angle_beta 90.000000
_cell_angle_gamma 90.000000
_cell_volume 5950.458995
_symmetry_space_group_name_H-M "C M C M"
_symmetry_group_IT_number 63
_symmetry_cell_setting 'orthorhombic'
loop_
_space_group_symop_operation_xyz
x,y,z
-x,-y,1/2+z
x,-y,-z
-x,y,1/2-z
-x,-y,-z
x,y,1/2-z
-x,y,z
x,-y,1/2+z
1/2+x,1/2+y,z
1/2-x,1/2-y,1/2+z
1/2+x,1/2-y,-z
1/2-x,1/2+y,1/2-z
1/2-x,1/2-y,-z
1/2+x,1/2+y,1/2-z
1/2-x,1/2+y,z
1/2+x,1/2-y,1/2+z
loop_
_atom_site_type_symbol
_atom_site_label
_atom_site_fract_x
_atom_site_fract_y
_atom_site_fract_z
Si Si1 0.815887 0.520009 0.418630
Si Si2 0.184194 0.928932 0.022767
Si Si3 0.312593 0.271835 0.581005
Si Si4 0.814891 0.675029 0.976237
Si Si5 0.811550 0.177109 0.189377
Si Si6 0.186796 0.066094 0.187736
O O1 0.758105 0.467826 0.436874
O O2 0.741526 0.556255 0.462522
O O3 0.763095 0.534394 0.358595
O O4 0.000000 0.522381 0.423734
O O5 0.236735 0.875426 0.035270
O O6 0.000000 0.933243 0.024614
O O7 0.500000 0.276198 0.577609
O O8 0.240243 0.305291 0.534658
O O9 0.273198 0.217330 0.565869
O O10 0.260890 0.289466 0.640123
O O11 0.000000 0.669346 0.976347
O O12 0.758408 0.190640 0.250000
O O13 0.769173 0.121781 0.179379
O O14 0.000000 0.178256 0.190142
O O15 0.227647 0.053414 0.250000
O O16 0.000000 0.063125 0.182957
#
# Coordination Sequence:
#
# PCOD9469775 Si02
#       6
#    16  16  16  16  16  16
#     4  11  21  33  50  73  99 123 154 200 247 287
#     4  11  21  34  51  69  93 127 163 196 240 297
#     4   9  17  29  47  70  96 126 157 191 234 283
#     4  10  19  30  45  69  98 125 156 196 238 279
#     4   8  14  26  46  70  93 120 155 190 223 267
#     4   9  17  30  49  73 101 132 163 192 227 280
#
# _framework density 16.133209999999998
#
# number of rings (size 3 to 8) (size 9 to 14) (size 15 to 20)
#    0.000    2.333    0.000    6.500    0.000    2.333 
#    0.000    0.000    0.000    2.500    0.000    2.333 
#    0.000    0.000    0.000    0.000    0.000    0.000 
#
# Total GULP energy -267768.101496 kJ/mol
# GULP energy per Si atom -5578.502115 kJ/mol
# Density = 1.609649 g / cm^3
# Si number density = 16.133210 Si / 1000 Ang^3
#
#
#
# Elastic Constant Matrix: (Units=GPa)
#
#
# Indices 1 2 3 4 5 6 
#
# 1 32.6899 9.5976 19.5980 0.0000 0.0000 0.0000
# 2 9.5976 70.6553 52.3277 0.0000 0.0000 0.0000
# 3 19.5980 52.3277 121.3316 0.0000 0.0000 0.0000
# 4 0.0000 0.0000 0.0000 19.4234 0.0000 0.0000
# 5 0.0000 0.0000 0.0000 0.0000 14.8119 0.0000
# 6 0.0000 0.0000 0.0000 0.0000 0.0000 20.2155
#
#
#
# Elastic Compliance Matrix: (Units=1/GPa)
#
#
# Indices 1 2 3 4 5 6 
#
# 1 0.033902 -0.000807 -0.005128 0.000000 0.000000 0.000000
# 2 -0.000807 0.020815 -0.008846 0.000000 0.000000 0.000000
# 3 -0.005128 -0.008846 0.012885 0.000000 0.000000 0.000000
# 4 0.000000 0.000000 0.000000 0.051484 0.000000 0.000000
# 5 0.000000 0.000000 0.000000 0.000000 0.067513 0.000000
# 6 0.000000 0.000000 0.000000 0.000000 0.000000 0.049467
#
#
# Mechanical properties :
#
#
# Convention : Reuss Voigt Hill
#
# Bulk Modulus (GPa) = 26.28923 43.08038 34.68480
# Shear Modulus (GPa) = 17.96565 20.43374 19.19970
#
# Velocity S-wave (km/s) = 3.34066 3.56274 3.45349
# Velocity P-wave (km/s) = 5.58663 6.60947 6.11946
#
# Compressibility (1/GPa) = 0.03803839
#
# Stress axis : x y z
#
# Youngs Moduli (GPa) = 29.49711 48.04308 77.60715
#
# Poissons Ratio (x) = 0.03879 0.39794
# Poissons Ratio (y) = 0.02382 0.68655
# Poissons Ratio (z) = 0.15125 0.42501
#
# Static dielectric constant tensor:
#      x y z
#    x 1.541240 0.000000 0.000000 
#    y 0.000000 1.527030 0.000000 
#    z 0.000000 0.000000 1.533740 
# 
# From -- ./inp_files/60258.got.cif
#   From: 2010.05.17/outbox.cif.g08.bks.cpg/sg63_31_cif.got.tgz:60258.got - 2010.06.03 15:47:04.
