data_PCOD9469719
_publ_section_title
;
Structure prediction by ZEFSAII (Michael W. Deem and Ramdas Pophale) SiO2 
 PCOD9469719
Probable space group: C M C M
;
_chemical_formula_sum "Si O2"
_cell_formula_units_Z 100
_cell_length_a 7.281800
_cell_length_b 28.914668
_cell_length_c 22.463187
_cell_angle_alpha 90.000000
_cell_angle_beta 90.000000
_cell_angle_gamma 90.000000
_cell_volume 4729.642655
_symmetry_space_group_name_H-M "C M C M"
_symmetry_group_IT_number 63
_symmetry_cell_setting 'orthorhombic'
loop_
_space_group_symop_operation_xyz
x,y,z
-x,-y,1/2+z
x,-y,-z
-x,y,1/2-z
-x,-y,-z
x,y,1/2-z
-x,y,z
x,-y,1/2+z
1/2+x,1/2+y,z
1/2-x,1/2-y,1/2+z
1/2+x,1/2-y,-z
1/2-x,1/2+y,1/2-z
1/2-x,1/2-y,-z
1/2+x,1/2+y,1/2-z
1/2-x,1/2+y,z
1/2+x,1/2-y,1/2+z
loop_
_atom_site_type_symbol
_atom_site_label
_atom_site_fract_x
_atom_site_fract_y
_atom_site_fract_z
Si Si1 0.778370 0.319204 0.977734
Si Si2 0.275322 0.342207 0.181553
Si Si3 0.000000 0.561657 0.250000
Si Si4 0.210411 0.072977 0.478530
Si Si5 0.289082 0.263785 0.098093
Si Si6 0.777606 0.034094 0.352182
Si Si7 0.222603 0.066562 0.611490
O O1 0.715354 0.296959 0.039991
O O2 0.000000 0.318366 0.978368
O O3 0.716307 0.371584 0.972252
O O4 0.712113 0.284771 0.925506
O O5 0.221224 0.346368 0.250000
O O6 0.500000 0.341885 0.179672
O O7 0.210741 0.294711 0.150939
O O8 0.215518 0.386381 0.142938
O O9 0.839031 0.558991 0.197945
O O10 0.281722 0.051050 0.417934
O O11 0.290493 0.062148 0.543535
O O12 0.000000 0.056772 0.481081
O O13 0.500000 0.254208 0.114087
O O14 0.000000 0.040378 0.346111
O O15 0.736564 0.979128 0.350884
O O16 0.000000 0.069487 0.607932
#
# Coordination Sequence:
#
# PCOD9469719 Si02
#       7
#    16  16   4  16  16  16  16
#     4  10  19  29  51  79 112 143 185 241 295 341
#     4   9  16  27  51  80 108 145 191 233 282 350
#     4  12  26  44  62  86 116 164 208 248 288 358
#     4  10  19  36  61  87 114 150 190 244 302 356
#     4   9  17  32  49  75 109 146 188 234 285 346
#     4  10  23  41  63  87 119 157 199 247 299 355
#     4   9  17  33  58  87 116 149 190 240 295 357
#
# _framework density 21.143246000000001
#
# number of rings (size 3 to 8) (size 9 to 14) (size 15 to 20)
#    0.000    2.400    1.600    1.200    2.240    2.560 
#    1.440    0.800    1.760    0.480    0.000    0.000 
#    0.000    0.000    0.000    0.000    0.000    0.000 
#
# Total GULP energy -278594.890361 kJ/mol
# GULP energy per Si atom -5571.897807 kJ/mol
# Density = 2.109512 g / cm^3
# Si number density = 21.143246 Si / 1000 Ang^3
#
#
#
# Elastic Constant Matrix: (Units=GPa)
#
#
# Indices 1 2 3 4 5 6 
#
# 1 105.7705 -8.8707 9.7454 0.0000 0.0000 0.0000
# 2 -8.8707 42.6276 -8.3803 0.0000 0.0000 0.0000
# 3 9.7454 -8.3803 106.7414 0.0000 0.0000 0.0000
# 4 0.0000 0.0000 0.0000 -7.5123 0.0000 0.0000
# 5 0.0000 0.0000 0.0000 0.0000 -8.8626 0.0000
# 6 0.0000 0.0000 0.0000 0.0000 0.0000 3.9992
#
#
#
# Elastic Compliance Matrix: (Units=1/GPa)
#
#
# Indices 1 2 3 4 5 6 
#
# 1 0.009679 0.001869 -0.000737 0.000000 0.000000 0.000000
# 2 0.001869 0.024188 0.001728 0.000000 0.000000 0.000000
# 3 -0.000737 0.001728 0.009571 0.000000 0.000000 0.000000
# 4 0.000000 0.000000 0.000000 -0.133116 0.000000 0.000000
# 5 0.000000 0.000000 0.000000 0.000000 -0.112833 0.000000
# 6 0.000000 0.000000 0.000000 0.000000 0.000000 0.250051
#
#
# Mechanical properties :
#
#
# Convention : Reuss Voigt Hill
#
# Bulk Modulus (GPa) = 20.34186 26.68092 23.51139
# Shear Modulus (GPa) = 85.90270 15.03452 50.46861
#
# Velocity S-wave (km/s) = 6.38100 2.66950 4.89098
# Velocity P-wave (km/s) = 7.99571 4.70618 6.56047
#
# Compressibility (1/GPa) = 0.04915972
#
# Stress axis : x y z
#
# Youngs Moduli (GPa) = 103.31531 41.34319 104.47781
#
# Poissons Ratio (x) = -0.07728 0.07699
# Poissons Ratio (y) = -0.19313 -0.18057
# Poissons Ratio (z) = 0.07614 -0.07145
#
# Static dielectric constant tensor:
#      x y z
#    x 1.804600 0.000000 0.000000 
#    y 0.000000 1.742320 0.000000 
#    z 0.000000 0.000000 1.731640 
# 
# From -- ./inp_files/51662.got.cif
#   From: 2010.05.17/outbox.cif.g08.bks.cpg/sg63_26_cif.got.tgz:51662.got - 2010.06.03 15:47:04.
