data_PCOD9469997
_publ_section_title
;
Structure prediction by ZEFSAII (Michael W. Deem and Ramdas Pophale) SiO2 
 PCOD9469997
Probable space group: C M C M
;
_chemical_formula_sum "Si O2"
_cell_formula_units_Z 96
_cell_length_a 19.306221
_cell_length_b 29.824243
_cell_length_c 7.701201
_cell_angle_alpha 90.000000
_cell_angle_beta 90.000000
_cell_angle_gamma 90.000000
_cell_volume 4434.300912
_symmetry_space_group_name_H-M "C M C M"
_symmetry_group_IT_number 63
_symmetry_cell_setting 'orthorhombic'
loop_
_space_group_symop_operation_xyz
x,y,z
-x,-y,1/2+z
x,-y,-z
-x,y,1/2-z
-x,-y,-z
x,y,1/2-z
-x,y,z
x,-y,1/2+z
1/2+x,1/2+y,z
1/2-x,1/2-y,1/2+z
1/2+x,1/2-y,-z
1/2-x,1/2+y,1/2-z
1/2-x,1/2-y,-z
1/2+x,1/2+y,1/2-z
1/2-x,1/2+y,z
1/2+x,1/2-y,1/2+z
loop_
_atom_site_type_symbol
_atom_site_label
_atom_site_fract_x
_atom_site_fract_y
_atom_site_fract_z
Si Si1 0.393089 0.951371 0.949183
Si Si2 0.074205 0.356427 0.961253
Si Si3 0.810990 0.291957 0.053786
Si Si4 0.183942 0.851210 0.459854
Si Si5 0.079210 0.219957 0.042406
Si Si6 0.768516 0.050124 0.957567
O O1 0.410031 0.947223 0.750000
O O2 0.424773 0.907161 0.028379
O O3 0.310148 0.949392 0.973174
O O4 0.417399 0.000000 0.000000
O O5 0.084522 0.354366 0.750000
O O6 0.000000 0.335101 0.998096
O O7 0.135960 0.332640 0.055713
O O8 0.792383 0.277255 0.250000
O O9 0.742893 0.315699 0.973980
O O10 0.860998 0.253867 0.970767
O O11 0.190036 0.851456 0.250000
O O12 0.110753 0.829338 0.509595
O O13 0.196361 0.902904 0.517725
O O14 0.076966 0.228041 0.250000
O O15 0.000000 0.224907 0.977038
O O16 0.765026 0.052132 0.750000
O O17 0.797611 0.000000 0.000000
#
# Coordination Sequence:
#
# PCOD9469997 Si02
#       6
#    16  16  16  16  16  16
#     4  10  19  31  48  69  98 137 180 226 276 324
#     4  10  21  34  48  71 104 142 185 230 275 324
#     4  10  20  37  57  80 110 144 185 228 270 321
#     4  10  21  36  58  86 113 144 184 228 271 325
#     4  10  22  38  57  83 114 148 185 225 274 331
#     4  10  19  33  54  82 112 140 179 224 274 328
#
# _framework density 21.64941
#
# number of rings (size 3 to 8) (size 9 to 14) (size 15 to 20)
#    0.000    2.000    1.667    3.000    0.000    5.000 
#    0.000    0.000    0.000    0.500    0.000    0.000 
#    0.000    0.000    0.000    0.000    0.000    0.000 
#
# Total GULP energy -267536.305556 kJ/mol
# GULP energy per Si atom -5573.673032 kJ/mol
# Density = 2.160014 g / cm^3
# Si number density = 21.649410 Si / 1000 Ang^3
#
#
#
# Elastic Constant Matrix: (Units=GPa)
#
#
# Indices 1 2 3 4 5 6 
#
# 1 84.3343 73.9877 0.8625 0.0000 0.0000 0.0000
# 2 73.9877 148.3626 -1.8047 0.0000 0.0000 0.0000
# 3 0.8625 -1.8047 33.3503 0.0000 0.0000 0.0000
# 4 0.0000 0.0000 0.0000 21.6003 0.0000 0.0000
# 5 0.0000 0.0000 0.0000 0.0000 42.0674 0.0000
# 6 0.0000 0.0000 0.0000 0.0000 0.0000 -263.7664
#
#
#
# Elastic Compliance Matrix: (Units=1/GPa)
#
#
# Indices 1 2 3 4 5 6 
#
# 1 0.021122 -0.010547 -0.001117 0.000000 0.000000 0.000000
# 2 -0.010547 0.012011 0.000923 0.000000 0.000000 0.000000
# 3 -0.001117 0.000923 0.030064 0.000000 0.000000 0.000000
# 4 0.000000 0.000000 0.000000 0.046296 0.000000 0.000000
# 5 0.000000 0.000000 0.000000 0.000000 0.023771 0.000000
# 6 0.000000 0.000000 0.000000 0.000000 0.000000 -0.003791
#
#
# Mechanical properties :
#
#
# Convention : Reuss Voigt Hill
#
# Bulk Modulus (GPa) = 23.97262 45.79314 34.88288
# Shear Modulus (GPa) = 30.32871 -27.15297 1.58787
#
# Velocity S-wave (km/s) = 3.74692 -3.54533 0.85734
# Velocity P-wave (km/s) = 5.46044 2.10687 4.13856
#
# Compressibility (1/GPa) = 0.04171426
#
# Stress axis : x y z
#
# Youngs Moduli (GPa) = 47.34371 83.25523 33.26282
#
# Poissons Ratio (x) = 0.87810 0.03715
# Poissons Ratio (y) = 0.49934 -0.03069
# Poissons Ratio (z) = 0.05288 -0.07682
#
# Static dielectric constant tensor:
#      x y z
#    x 1.726220 0.000000 0.000000 
#    y 0.000000 1.918360 0.000000 
#    z 0.000000 0.000000 1.820150 
# 
# From -- ./inp_files/8647.got.cif
#   From: 2010.05.17/outbox.cif.g08.bks.cpg/sg63_5_cif.got.tgz:8647.got - 2010.06.03 15:47:04.
