data_PCOD9469763
_publ_section_title
;
Structure prediction by ZEFSAII (Michael W. Deem and Ramdas Pophale) SiO2 
 PCOD9469763
Probable space group: C M C M
;
_chemical_formula_sum "Si O2"
_cell_formula_units_Z 96
_cell_length_a 22.104294
_cell_length_b 21.869452
_cell_length_c 9.222678
_cell_angle_alpha 90.000000
_cell_angle_beta 90.000000
_cell_angle_gamma 90.000000
_cell_volume 4458.323674
_symmetry_space_group_name_H-M "C M C M"
_symmetry_group_IT_number 63
_symmetry_cell_setting 'orthorhombic'
loop_
_space_group_symop_operation_xyz
x,y,z
-x,-y,1/2+z
x,-y,-z
-x,y,1/2-z
-x,-y,-z
x,y,1/2-z
-x,y,z
x,-y,1/2+z
1/2+x,1/2+y,z
1/2-x,1/2-y,1/2+z
1/2+x,1/2-y,-z
1/2-x,1/2+y,1/2-z
1/2-x,1/2-y,-z
1/2+x,1/2+y,1/2-z
1/2-x,1/2+y,z
1/2+x,1/2-y,1/2+z
loop_
_atom_site_type_symbol
_atom_site_label
_atom_site_fract_x
_atom_site_fract_y
_atom_site_fract_z
Si Si1 0.927503 0.309874 0.083495
Si Si2 0.403188 0.560749 0.915575
Si Si3 0.926575 0.559363 0.920079
Si Si4 0.744644 0.437355 0.417763
Si Si5 0.243110 0.185497 0.415550
Si Si6 0.098978 0.179155 0.414761
O O1 0.903728 0.307484 0.250000
O O2 0.907344 0.374534 0.019229
O O3 0.912243 0.245293 0.014283
O O4 0.000000 0.312445 0.092108
O O5 0.422828 0.558780 0.750000
O O6 0.329227 0.562435 0.916315
O O7 0.421659 0.500000 0.000000
O O8 0.424090 0.621969 0.995455
O O9 0.912349 0.557088 0.750000
O O10 0.000000 0.557738 0.930154
O O11 0.902786 0.500000 0.000000
O O12 0.762072 0.500000 0.500000
O O13 0.764468 0.437836 0.250000
O O14 0.765040 0.374671 0.496994
O O15 0.267082 0.189297 0.250000
O O16 0.250000 0.250000 0.500000
O O17 0.171176 0.174567 0.404014
O O18 0.074219 0.178718 0.250000
#
# Coordination Sequence:
#
# PCOD9469763 Si02
#       6
#    16  16  16  16  16  16
#     4   8  14  26  45  67  89 114 144 178 219 267
#     4   9  16  26  42  64  89 115 144 181 221 260
#     4   8  13  22  38  60  84 109 138 172 208 246
#     4   9  16  27  44  66  90 115 145 183 225 266
#     4  10  19  30  45  66  91 119 151 186 224 266
#     4   9  17  29  46  67  89 115 147 182 221 265
#
# _framework density 21.532755999999999
#
# number of rings (size 3 to 8) (size 9 to 14) (size 15 to 20)
#    0.000    3.167    0.000    2.500    0.000    4.667 
#    0.000    0.833    0.000    3.000    0.000    2.333 
#    0.000    0.000    0.000    0.000    0.000    0.000 
#
# Total GULP energy -267657.129798 kJ/mol
# GULP energy per Si atom -5576.190204 kJ/mol
# Density = 2.148375 g / cm^3
# Si number density = 21.532756 Si / 1000 Ang^3
#
#
#
# Elastic Constant Matrix: (Units=GPa)
#
#
# Indices 1 2 3 4 5 6 
#
# 1 55.4677 2.6779 -0.6613 0.0000 0.0000 0.0000
# 2 2.6779 279.2977 122.8056 0.0000 0.0000 0.0000
# 3 -0.6613 122.8056 140.7926 0.0000 0.0000 0.0000
# 4 0.0000 0.0000 0.0000 35.9968 0.0000 0.0000
# 5 0.0000 0.0000 0.0000 0.0000 -9.5215 0.0000
# 6 0.0000 0.0000 0.0000 0.0000 0.0000 15.5629
#
#
#
# Elastic Compliance Matrix: (Units=1/GPa)
#
#
# Indices 1 2 3 4 5 6 
#
# 1 0.018050 -0.000341 0.000382 0.000000 0.000000 0.000000
# 2 -0.000341 0.005814 -0.005073 0.000000 0.000000 0.000000
# 3 0.000382 -0.005073 0.011529 0.000000 0.000000 0.000000
# 4 0.000000 0.000000 0.000000 0.027780 0.000000 0.000000
# 5 0.000000 0.000000 0.000000 0.000000 -0.105026 0.000000
# 6 0.000000 0.000000 0.000000 0.000000 0.000000 0.064255
#
#
# Mechanical properties :
#
#
# Convention : Reuss Voigt Hill
#
# Bulk Modulus (GPa) = 39.47971 80.57803 60.02887
# Shear Modulus (GPa) = 122.21998 31.79003 77.00501
#
# Velocity S-wave (km/s) = 7.54210 3.84651 5.98660
# Velocity P-wave (km/s) = 9.70664 7.56504 8.70197
#
# Compressibility (1/GPa) = 0.02532947
#
# Stress axis : x y z
#
# Youngs Moduli (GPa) = 55.40304 171.99008 86.73464
#
# Poissons Ratio (x) = 0.05868 -0.03317
# Poissons Ratio (y) = 0.01890 0.44001
# Poissons Ratio (z) = -0.02118 0.87252
#
# Static dielectric constant tensor:
#      x y z
#    x 1.848820 0.000000 0.000000 
#    y 0.000000 1.795770 0.000000 
#    z 0.000000 0.000000 1.754040 
# 
# From -- ./inp_files/12395.got.cif
#   From: 2010.05.17/outbox.cif.g08.bks.cpg/sg63_7_cif.got.tgz:12395.got - 2010.06.03 15:47:04.
