data_PCOD9469168
_publ_section_title
;
Structure prediction by ZEFSAII (Michael W. Deem and Ramdas Pophale) SiO2 
 PCOD9469168
Probable space group: C M C M
;
_chemical_formula_sum "Si O2"
_cell_formula_units_Z 80
_cell_length_a 13.528364
_cell_length_b 19.276856
_cell_length_c 19.096567
_cell_angle_alpha 90.000000
_cell_angle_beta 90.000000
_cell_angle_gamma 90.000000
_cell_volume 4980.085330
_symmetry_space_group_name_H-M "C M C M"
_symmetry_group_IT_number 63
_symmetry_cell_setting 'orthorhombic'
loop_
_space_group_symop_operation_xyz
x,y,z
-x,-y,1/2+z
x,-y,-z
-x,y,1/2-z
-x,-y,-z
x,y,1/2-z
-x,y,z
x,-y,1/2+z
1/2+x,1/2+y,z
1/2-x,1/2-y,1/2+z
1/2+x,1/2-y,-z
1/2-x,1/2+y,1/2-z
1/2-x,1/2-y,-z
1/2+x,1/2+y,1/2-z
1/2-x,1/2+y,z
1/2+x,1/2-y,1/2+z
loop_
_atom_site_type_symbol
_atom_site_label
_atom_site_fract_x
_atom_site_fract_y
_atom_site_fract_z
Si Si1 0.383624 0.353071 0.330190
Si Si2 0.115647 0.933341 0.949269
Si Si3 0.229297 0.822253 0.463252
Si Si4 0.383711 0.943050 0.438089
Si Si5 0.769834 0.998367 0.169116
O O1 0.370029 0.329551 0.250000
O O2 0.500000 0.351170 0.346827
O O3 0.318878 0.312599 0.386736
O O4 0.344204 0.432257 0.333881
O O5 0.000000 0.930817 0.932904
O O6 0.179941 0.944135 0.879742
O O7 0.151084 0.866844 0.991906
O O8 0.132625 0.000000 0.000000
O O9 0.250000 0.750000 0.500000
O O10 0.324623 0.872758 0.456990
O O11 0.500000 0.931075 0.428211
O O12 0.330042 0.973723 0.369323
O O13 0.371465 0.000000 0.500000
O O14 0.755840 0.017333 0.250000
#
# Coordination Sequence:
#
# PCOD9469168 Si02
#       5
#    16  16  16  16  16
#     4   9  17  31  53  80 106 133 171 218 265 314
#     4  11  19  33  56  81 106 132 171 222 270 313
#     4  11  21  34  52  79 111 145 178 214 263 320
#     4  10  19  35  55  74 102 140 185 225 255 302
#     4  10  18  31  53  82 109 134 170 220 275 319
#
# _framework density 16.063981999999999
#
# number of rings (size 3 to 8) (size 9 to 14) (size 15 to 20)
#    0.000    1.800    6.000    1.200    0.000    3.200 
#    0.000    1.000    0.000    0.000    0.000    2.800 
#    0.000    0.000    0.000    0.000    0.000    0.000 
#
# Total GULP energy -223084.731776 kJ/mol
# GULP energy per Si atom -5577.118294 kJ/mol
# Density = 1.602742 g / cm^3
# Si number density = 16.063982 Si / 1000 Ang^3
#
#
#
# Elastic Constant Matrix: (Units=GPa)
#
#
# Indices 1 2 3 4 5 6 
#
# 1 127.0766 32.1046 55.8646 0.0000 0.0000 0.0000
# 2 32.1046 63.0804 39.0206 0.0000 0.0000 0.0000
# 3 55.8646 39.0206 121.6565 0.0000 0.0000 0.0000
# 4 0.0000 0.0000 0.0000 20.4952 0.0000 0.0000
# 5 0.0000 0.0000 0.0000 0.0000 22.5225 0.0000
# 6 0.0000 0.0000 0.0000 0.0000 0.0000 7.9529
#
#
#
# Elastic Compliance Matrix: (Units=1/GPa)
#
#
# Indices 1 2 3 4 5 6 
#
# 1 0.010262 -0.002879 -0.003789 0.000000 0.000000 0.000000
# 2 -0.002879 0.020584 -0.005280 0.000000 0.000000 0.000000
# 3 -0.003789 -0.005280 0.011653 0.000000 0.000000 0.000000
# 4 0.000000 0.000000 0.000000 0.048792 0.000000 0.000000
# 5 0.000000 0.000000 0.000000 0.000000 0.044400 0.000000
# 6 0.000000 0.000000 0.000000 0.000000 0.000000 0.125740
#
#
# Mechanical properties :
#
#
# Convention : Reuss Voigt Hill
#
# Bulk Modulus (GPa) = 53.75374 62.86589 58.30982
# Shear Modulus (GPa) = 17.15092 22.51571 19.83331
#
# Velocity S-wave (km/s) = 3.27106 3.74789 3.51756
# Velocity P-wave (km/s) = 6.91385 7.61240 7.27152
#
# Compressibility (1/GPa) = 0.01860336
#
# Stress axis : x y z
#
# Youngs Moduli (GPa) = 97.44357 48.58051 85.81217
#
# Poissons Ratio (x) = 0.13987 0.32514
# Poissons Ratio (y) = 0.28056 0.45311
# Poissons Ratio (z) = 0.36921 0.25652
#
# Static dielectric constant tensor:
#      x y z
#    x 1.536230 0.000000 0.000000 
#    y 0.000000 1.510410 0.000000 
#    z 0.000000 0.000000 1.564240 
# 
# From -- ./inp_files/43960.got.cif
#   From: 2010.05.17/outbox.cif.g08.bks.cpg/sg63_22_cif.got.tgz:43960.got - 2010.06.03 15:47:04.
