data_PCOD9469770
_publ_section_title
;
Structure prediction by ZEFSAII (Michael W. Deem and Ramdas Pophale) SiO2 
 PCOD9469770
Probable space group: C M C M
;
_chemical_formula_sum "Si O2"
_cell_formula_units_Z 80
_cell_length_a 28.178445
_cell_length_b 18.310739
_cell_length_c 7.833383
_cell_angle_alpha 90.000000
_cell_angle_beta 90.000000
_cell_angle_gamma 90.000000
_cell_volume 4041.776149
_symmetry_space_group_name_H-M "C M C M"
_symmetry_group_IT_number 63
_symmetry_cell_setting 'orthorhombic'
loop_
_space_group_symop_operation_xyz
x,y,z
-x,-y,1/2+z
x,-y,-z
-x,y,1/2-z
-x,-y,-z
x,y,1/2-z
-x,y,z
x,-y,1/2+z
1/2+x,1/2+y,z
1/2-x,1/2-y,1/2+z
1/2+x,1/2-y,-z
1/2-x,1/2+y,1/2-z
1/2-x,1/2-y,-z
1/2+x,1/2+y,1/2-z
1/2-x,1/2+y,z
1/2+x,1/2-y,1/2+z
loop_
_atom_site_type_symbol
_atom_site_label
_atom_site_fract_x
_atom_site_fract_y
_atom_site_fract_z
Si Si1 0.783537 0.580539 0.544781
Si Si2 0.051539 0.239171 0.040865
Si Si3 0.575872 0.580089 0.444522
Si Si4 0.845406 0.717232 0.957526
Si Si5 0.820574 0.880065 0.048572
O O1 0.801019 0.500000 0.500000
O O2 0.781435 0.586712 0.750000
O O3 0.816723 0.646451 0.483355
O O4 0.729495 0.590546 0.481438
O O5 0.052465 0.238363 0.250000
O O6 0.056867 0.155370 0.975592
O O7 0.099311 0.280912 0.988958
O O8 0.000000 0.267908 0.988796
O O9 0.560696 0.500000 0.500000
O O10 0.561620 0.585277 0.250000
O O11 0.632938 0.586649 0.461162
O O12 0.844003 0.719636 0.750000
O O13 0.822612 0.792770 0.021693
O O14 0.824646 0.895978 0.250000
#
# Coordination Sequence:
#
# PCOD9469770 Si02
#       5
#    16  16  16  16  16
#     4  10  21  33  47  70  97 126 157 190 229 274
#     4   8  15  29  49  69  88 116 154 194 236 279
#     4  10  19  30  45  67  97 128 159 193 228 269
#     4   9  18  33  51  71  95 121 154 194 232 273
#     4  10  19  31  48  70  96 127 161 189 223 272
#
# _framework density 19.793278000000001
#
# number of rings (size 3 to 8) (size 9 to 14) (size 15 to 20)
#    0.000    2.600    0.000    3.600    0.000    4.400 
#    0.000    0.000    0.000   15.000    0.000    0.000 
#    0.000    0.000    0.000    0.000    0.000    0.000 
#
# Total GULP energy -223165.542931 kJ/mol
# GULP energy per Si atom -5579.138573 kJ/mol
# Density = 1.974823 g / cm^3
# Si number density = 19.793278 Si / 1000 Ang^3
#
#
#
# Elastic Constant Matrix: (Units=GPa)
#
#
# Indices 1 2 3 4 5 6 
#
# 1 91.3088 26.3556 -2.3773 0.0000 0.0000 0.0000
# 2 26.3556 72.2036 -8.2359 0.0000 0.0000 0.0000
# 3 -2.3773 -8.2359 20.1260 0.0000 0.0000 0.0000
# 4 0.0000 0.0000 0.0000 23.9976 0.0000 0.0000
# 5 0.0000 0.0000 0.0000 0.0000 2.0892 0.0000
# 6 0.0000 0.0000 0.0000 0.0000 0.0000 -5.0390
#
#
#
# Elastic Compliance Matrix: (Units=1/GPa)
#
#
# Indices 1 2 3 4 5 6 
#
# 1 0.012245 -0.004515 -0.000401 0.000000 0.000000 0.000000
# 2 -0.004515 0.016193 0.006093 0.000000 0.000000 0.000000
# 3 -0.000401 0.006093 0.052133 0.000000 0.000000 0.000000
# 4 0.000000 0.000000 0.000000 0.041671 0.000000 0.000000
# 5 0.000000 0.000000 0.000000 0.000000 0.478662 0.000000
# 6 0.000000 0.000000 0.000000 0.000000 0.000000 -0.198452
#
#
# Mechanical properties :
#
#
# Convention : Reuss Voigt Hill
#
# Bulk Modulus (GPa) = 12.05937 23.90260 17.98098
# Shear Modulus (GPa) = 11.68935 15.40262 13.54598
#
# Velocity S-wave (km/s) = 2.43280 2.79260 2.61889
# Velocity P-wave (km/s) = 3.74129 4.74347 4.27187
#
# Compressibility (1/GPa) = 0.08292310
#
# Stress axis : x y z
#
# Youngs Moduli (GPa) = 81.66793 61.75546 19.18176
#
# Poissons Ratio (x) = 0.27885 0.00770
# Poissons Ratio (y) = 0.36876 -0.11687
# Poissons Ratio (z) = 0.03278 -0.37628
#
# Static dielectric constant tensor:
#      x y z
#    x 1.716700 0.000000 0.000000 
#    y 0.000000 1.686010 0.000000 
#    z 0.000000 0.000000 1.692900 
# 
# From -- ./inp_files/11991.got.cif
#   From: 2010.05.17/outbox.cif.g08.bks.cpg/sg63_6_cif.got.tgz:11991.got - 2010.06.03 15:47:04.
