data_PCOD9469382
_publ_section_title
;
Structure prediction by ZEFSAII (Michael W. Deem and Ramdas Pophale) SiO2 
 PCOD9469382
Probable space group: C M C M
;
_chemical_formula_sum "Si O2"
_cell_formula_units_Z 116
_cell_length_a 17.177947
_cell_length_b 25.777552
_cell_length_c 14.533220
_cell_angle_alpha 90.000000
_cell_angle_beta 90.000000
_cell_angle_gamma 90.000000
_cell_volume 6435.388616
_symmetry_space_group_name_H-M "C M C M"
_symmetry_group_IT_number 63
_symmetry_cell_setting 'orthorhombic'
loop_
_space_group_symop_operation_xyz
x,y,z
-x,-y,1/2+z
x,-y,-z
-x,y,1/2-z
-x,-y,-z
x,y,1/2-z
-x,y,z
x,-y,1/2+z
1/2+x,1/2+y,z
1/2-x,1/2-y,1/2+z
1/2+x,1/2-y,-z
1/2-x,1/2+y,1/2-z
1/2-x,1/2-y,-z
1/2+x,1/2+y,1/2-z
1/2-x,1/2+y,z
1/2+x,1/2-y,1/2+z
loop_
_atom_site_type_symbol
_atom_site_label
_atom_site_fract_x
_atom_site_fract_y
_atom_site_fract_z
Si Si1 0.626810 0.817382 0.587432
Si Si2 0.246743 0.477942 0.141335
Si Si3 0.257075 0.729469 0.646282
Si Si4 0.350834 0.652651 0.985691
Si Si5 0.914488 0.065476 0.642013
Si Si6 0.085844 0.250291 0.412972
Si Si7 0.000000 0.684451 0.250000
Si Si8 0.283129 0.083009 0.461797
O O1 0.702511 0.783059 0.614975
O O2 0.590418 0.789133 0.499445
O O3 0.567471 0.815336 0.670316
O O4 0.651568 0.875628 0.563514
O O5 0.230363 0.469441 0.250000
O O6 0.340222 0.471659 0.127130
O O7 0.219057 0.533746 0.105368
O O8 0.211558 0.436994 0.067789
O O9 0.281520 0.716704 0.750000
O O10 0.290735 0.686401 0.576786
O O11 0.164164 0.735701 0.642109
O O12 0.401274 0.616804 0.918252
O O13 0.399938 0.692896 0.045291
O O14 0.298488 0.613621 0.044925
O O15 0.912276 0.079538 0.750000
O O16 0.000000 0.042916 0.622138
O O17 0.000000 0.253668 0.369933
#
# Coordination Sequence:
#
# PCOD9469382 Si02
#       8
#    16  16  16  16  16  16   4  16
#     4  11  21  39  57  88 117 147 195 248 303 341
#     4   9  20  35  58  86 110 151 204 242 300 368
#     4  11  21  35  56  80 116 161 196 233 278 350
#     4  10  18  33  53  81 110 156 193 232 293 341
#     4   9  17  31  49  78 115 147 189 249 293 340
#     4  11  21  36  54  80 122 156 193 239 282 337
#     4  12  24  36  64  98 112 148 196 256 304 344
#     4  10  19  37  59  83 116 147 196 247 295 361
#
# _framework density 18.025328999999999
#
# number of rings (size 3 to 8) (size 9 to 14) (size 15 to 20)
#    0.000    1.793    4.138    1.655    0.966    0.828 
#    0.000    6.207    0.000    1.655    0.000    0.000 
#    0.000    0.000    0.000    0.000    0.000    0.000 
#
# Total GULP energy -322887.750796 kJ/mol
# GULP energy per Si atom -5567.030186 kJ/mol
# Density = 1.798430 g / cm^3
# Si number density = 18.025329 Si / 1000 Ang^3
#
#
#
# Elastic Constant Matrix: (Units=GPa)
#
#
# Indices 1 2 3 4 5 6 
#
# 1 80.1557 12.7379 18.0313 0.0000 0.0000 0.0000
# 2 12.7379 68.4827 11.7163 0.0000 0.0000 0.0000
# 3 18.0313 11.7163 70.6585 0.0000 0.0000 0.0000
# 4 0.0000 0.0000 0.0000 5.5640 0.0000 0.0000
# 5 0.0000 0.0000 0.0000 0.0000 33.2485 0.0000
# 6 0.0000 0.0000 0.0000 0.0000 0.0000 -2.9259
#
#
#
# Elastic Compliance Matrix: (Units=1/GPa)
#
#
# Indices 1 2 3 4 5 6 
#
# 1 0.013490 -0.001976 -0.003115 0.000000 0.000000 0.000000
# 2 -0.001976 0.015318 -0.002036 0.000000 0.000000 0.000000
# 3 -0.003115 -0.002036 0.015285 0.000000 0.000000 0.000000
# 4 0.000000 0.000000 0.000000 0.179727 0.000000 0.000000
# 5 0.000000 0.000000 0.000000 0.000000 0.030077 0.000000
# 6 0.000000 0.000000 0.000000 0.000000 0.000000 -0.341781
#
#
# Mechanical properties :
#
#
# Convention : Reuss Voigt Hill
#
# Bulk Modulus (GPa) = 33.51227 33.80753 33.65990
# Shear Modulus (GPa) = -78.51328 18.96476 -29.77426
#
# Velocity S-wave (km/s) = -6.60695 3.24715 -4.06864
# Velocity P-wave (km/s) = 6.29049 5.73193 1.83238
#
# Compressibility (1/GPa) = 0.02983981
#
# Stress axis : x y z
#
# Youngs Moduli (GPa) = 74.12630 65.28223 65.42360
#
# Poissons Ratio (x) = 0.12902 0.20379
# Poissons Ratio (y) = 0.14650 0.13318
# Poissons Ratio (z) = 0.23090 0.13289
#
# Static dielectric constant tensor:
#      x y z
#    x 1.636870 0.000000 0.000000 
#    y 0.000000 1.607860 0.000000 
#    z 0.000000 0.000000 1.629820 
# 
# From -- ./inp_files/34416.got.cif
#   From: 2010.05.17/outbox.cif.g08.bks.cpg/sg63_18_cif.got.tgz:34416.got - 2010.06.03 15:47:04.
