data_PCOD9469613
_publ_section_title
;
Structure prediction by ZEFSAII (Michael W. Deem and Ramdas Pophale) SiO2 
 PCOD9469613
Probable space group: C M C M
;
_chemical_formula_sum "Si O2"
_cell_formula_units_Z 96
_cell_length_a 7.447595
_cell_length_b 24.380396
_cell_length_c 27.316215
_cell_angle_alpha 90.000000
_cell_angle_beta 90.000000
_cell_angle_gamma 90.000000
_cell_volume 4959.950353
_symmetry_space_group_name_H-M "C M C M"
_symmetry_group_IT_number 63
_symmetry_cell_setting 'orthorhombic'
loop_
_space_group_symop_operation_xyz
x,y,z
-x,-y,1/2+z
x,-y,-z
-x,y,1/2-z
-x,-y,-z
x,y,1/2-z
-x,y,z
x,-y,1/2+z
1/2+x,1/2+y,z
1/2-x,1/2-y,1/2+z
1/2+x,1/2-y,-z
1/2-x,1/2+y,1/2-z
1/2-x,1/2-y,-z
1/2+x,1/2+y,1/2-z
1/2-x,1/2+y,z
1/2+x,1/2-y,1/2+z
loop_
_atom_site_type_symbol
_atom_site_label
_atom_site_fract_x
_atom_site_fract_y
_atom_site_fract_z
Si Si1 0.702623 0.256557 0.370839
Si Si2 0.720359 0.350281 0.434066
Si Si3 0.219385 0.024228 0.947157
Si Si4 0.782296 0.920753 0.890771
Si Si5 0.710085 0.655664 0.304695
Si Si6 0.216317 0.820909 0.959290
O O1 0.500000 0.266282 0.354396
O O2 0.782484 0.314740 0.387568
O O3 0.782136 0.214801 0.331375
O O4 0.703365 0.222498 0.421795
O O5 0.500000 0.349340 0.433666
O O6 0.776228 0.413541 0.437134
O O7 0.776461 0.321188 0.484836
O O8 0.000000 0.024970 0.948033
O O9 0.277394 0.981282 0.905421
O O10 0.274533 0.000000 0.000000
O O11 0.713906 0.889733 0.842318
O O12 0.742461 0.880306 0.936061
O O13 0.000000 0.922364 0.887416
O O14 0.786796 0.656436 0.250000
O O15 0.500000 0.642677 0.300445
O O16 0.000000 0.814151 0.957660
#
# Coordination Sequence:
#
# PCOD9469613 Si02
#       6
#    16  16  16  16  16  16
#     4  10  19  28  40  64  94 118 143 178 221 263
#     4   9  16  24  37  61  94 125 149 173 207 255
#     4   9  13  20  37  62  91 121 145 168 207 258
#     4   8  13  22  40  65  87 107 139 182 218 250
#     4   9  18  33  51  67  82 105 143 190 231 265
#     4   9  15  26  42  61  88 121 154 180 202 241
#
# _framework density 19.355034
#
# number of rings (size 3 to 8) (size 9 to 14) (size 15 to 20)
#    0.000    3.000    1.667    2.000    0.000    0.333 
#    0.000    0.833    0.000    1.000    0.000   23.333 
#    0.000    0.000    0.000    0.000    0.000    0.000 
#
# Total GULP energy -267521.747133 kJ/mol
# GULP energy per Si atom -5573.369732 kJ/mol
# Density = 1.931098 g / cm^3
# Si number density = 19.355034 Si / 1000 Ang^3
#
#
#
# Elastic Constant Matrix: (Units=GPa)
#
#
# Indices 1 2 3 4 5 6 
#
# 1 53.5403 -4.8806 1.8311 0.0000 0.0000 0.0000
# 2 -4.8806 100.7565 45.9716 0.0000 0.0000 0.0000
# 3 1.8311 45.9716 119.0688 0.0000 0.0000 0.0000
# 4 0.0000 0.0000 0.0000 12.1923 0.0000 0.0000
# 5 0.0000 0.0000 0.0000 0.0000 -25.5919 0.0000
# 6 0.0000 0.0000 0.0000 0.0000 0.0000 8.5722
#
#
#
# Elastic Compliance Matrix: (Units=1/GPa)
#
#
# Indices 1 2 3 4 5 6 
#
# 1 0.018820 0.001267 -0.000779 0.000000 0.000000 0.000000
# 2 0.001267 0.012132 -0.004704 0.000000 0.000000 0.000000
# 3 -0.000779 -0.004704 0.010227 0.000000 0.000000 0.000000
# 4 0.000000 0.000000 0.000000 0.082019 0.000000 0.000000
# 5 0.000000 0.000000 0.000000 0.000000 -0.039075 0.000000
# 6 0.000000 0.000000 0.000000 0.000000 0.000000 0.116656
#
#
# Mechanical properties :
#
#
# Convention : Reuss Voigt Hill
#
# Bulk Modulus (GPa) = 30.53644 39.91220 35.22432
# Shear Modulus (GPa) = 22.71431 14.39742 18.55586
#
# Velocity S-wave (km/s) = 3.42944 2.73034 3.09966
# Velocity P-wave (km/s) = 5.61184 5.53222 5.57217
#
# Compressibility (1/GPa) = 0.03274776
#
# Stress axis : x y z
#
# Youngs Moduli (GPa) = 53.13599 82.42383 97.78471
#
# Poissons Ratio (x) = -0.10442 0.07613
# Poissons Ratio (y) = -0.06731 0.45995
# Poissons Ratio (z) = 0.04137 0.38770
#
# Static dielectric constant tensor:
#      x y z
#    x 1.760850 0.000000 0.000000 
#    y 0.000000 1.701080 0.000000 
#    z 0.000000 0.000000 1.665360 
# 
# From -- ./inp_files/67263.got.cif
#   From: 2010.05.17/outbox.cif.g08.bks.cpg/sg63_34_cif.got.tgz:67263.got - 2010.06.03 15:47:04.
