data_PCOD9469731
_publ_section_title
;
Structure prediction by ZEFSAII (Michael W. Deem and Ramdas Pophale) SiO2 
 PCOD9469731
Probable space group: C M C M
;
_chemical_formula_sum "Si O2"
_cell_formula_units_Z 80
_cell_length_a 20.126037
_cell_length_b 26.040186
_cell_length_c 8.744566
_cell_angle_alpha 90.000000
_cell_angle_beta 90.000000
_cell_angle_gamma 90.000000
_cell_volume 4582.902404
_symmetry_space_group_name_H-M "C M C M"
_symmetry_group_IT_number 63
_symmetry_cell_setting 'orthorhombic'
loop_
_space_group_symop_operation_xyz
x,y,z
-x,-y,1/2+z
x,-y,-z
-x,y,1/2-z
-x,-y,-z
x,y,1/2-z
-x,y,z
x,-y,1/2+z
1/2+x,1/2+y,z
1/2-x,1/2-y,1/2+z
1/2+x,1/2-y,-z
1/2-x,1/2+y,1/2-z
1/2-x,1/2-y,-z
1/2+x,1/2+y,1/2-z
1/2-x,1/2+y,z
1/2+x,1/2-y,1/2+z
loop_
_atom_site_type_symbol
_atom_site_label
_atom_site_fract_x
_atom_site_fract_y
_atom_site_fract_z
Si Si1 0.855900 0.258918 0.432631
Si Si2 0.247614 0.168673 0.434239
Si Si3 0.000000 0.366018 0.078067
Si Si4 0.755043 0.945916 0.569146
Si Si5 0.000000 0.736595 0.074522
Si Si6 0.388974 0.950475 0.427629
O O1 0.859091 0.263963 0.250000
O O2 0.808675 0.210608 0.472312
O O3 0.816578 0.309021 0.496865
O O4 0.929755 0.249303 0.496384
O O5 0.255488 0.167361 0.250000
O O6 0.224682 0.111541 0.484507
O O7 0.936166 0.401914 0.067001
O O8 0.000000 0.341989 0.250000
O O9 0.000000 0.324749 0.946486
O O10 0.765169 0.948666 0.750000
O O11 0.677177 0.944378 0.526137
O O12 0.781093 0.000000 0.500000
O O13 0.000000 0.752670 0.250000
O O14 0.371372 0.959627 0.250000
O O15 0.423836 0.000000 0.500000
#
# Coordination Sequence:
#
# PCOD9469731 Si02
#       6
#    16  16   8  16   8  16
#     4  10  20  35  55  76 101 133 168 207 252 299
#     4   9  19  35  54  77 103 132 167 207 250 297
#     4  10  21  33  45  62  86 121 163 202 241 286
#     4  10  19  31  47  69  96 124 157 196 240 288
#     4  12  24  35  49  72 100 129 164 204 248 296
#     4  10  19  30  43  61  87 121 161 200 238 279
#
# _framework density 17.456187
#
# number of rings (size 3 to 8) (size 9 to 14) (size 15 to 20)
#    0.000    2.000    0.000    5.400    0.000    7.200 
#    0.000    0.000    0.000    0.000    0.000    0.700 
#    0.000    0.000    0.000    0.000    0.000    0.000 
#
# Total GULP energy -222914.121744 kJ/mol
# GULP energy per Si atom -5572.853044 kJ/mol
# Density = 1.741646 g / cm^3
# Si number density = 17.456187 Si / 1000 Ang^3
#
#
#
# Elastic Constant Matrix: (Units=GPa)
#
#
# Indices 1 2 3 4 5 6 
#
# 1 77.3798 25.8758 21.6561 0.0000 0.0000 0.0000
# 2 25.8758 116.6619 25.4076 0.0000 0.0000 0.0000
# 3 21.6561 25.4076 36.7699 0.0000 0.0000 0.0000
# 4 0.0000 0.0000 0.0000 24.4697 0.0000 0.0000
# 5 0.0000 0.0000 0.0000 0.0000 45.0184 0.0000
# 6 0.0000 0.0000 0.0000 0.0000 0.0000 20.8852
#
#
#
# Elastic Compliance Matrix: (Units=1/GPa)
#
#
# Indices 1 2 3 4 5 6 
#
# 1 0.015767 -0.001736 -0.008087 0.000000 0.000000 0.000000
# 2 -0.001736 0.010281 -0.006082 0.000000 0.000000 0.000000
# 3 -0.008087 -0.006082 0.036161 0.000000 0.000000 0.000000
# 4 0.000000 0.000000 0.000000 0.040867 0.000000 0.000000
# 5 0.000000 0.000000 0.000000 0.000000 0.022213 0.000000
# 6 0.000000 0.000000 0.000000 0.000000 0.000000 0.047881
#
#
# Mechanical properties :
#
#
# Convention : Reuss Voigt Hill
#
# Bulk Modulus (GPa) = 32.89388 41.85451 37.37420
# Shear Modulus (GPa) = 23.24359 28.59948 25.92154
#
# Velocity S-wave (km/s) = 3.65298 4.05205 3.85768
# Velocity P-wave (km/s) = 6.05615 6.77651 6.42643
#
# Compressibility (1/GPa) = 0.03040079
#
# Stress axis : x y z
#
# Youngs Moduli (GPa) = 63.42377 97.26306 27.65376
#
# Poissons Ratio (x) = 0.16885 0.22363
# Poissons Ratio (y) = 0.11010 0.16819
# Poissons Ratio (z) = 0.51288 0.59155
#
# Static dielectric constant tensor:
#      x y z
#    x 1.584030 0.000000 0.000000 
#    y 0.000000 1.676370 0.000000 
#    z 0.000000 0.000000 1.610820 
# 
# From -- ./inp_files/6498.got.cif
#   From: 2010.05.17/outbox.cif.g08.bks.cpg/sg63_4_cif.got.tgz:6498.got - 2010.06.03 15:47:04.
