data_PCOD9469969
_publ_section_title
;
Structure prediction by ZEFSAII (Michael W. Deem and Ramdas Pophale) SiO2 
 PCOD9469969
Probable space group: C M C M
;
_chemical_formula_sum "Si O2"
_cell_formula_units_Z 80
_cell_length_a 7.469463
_cell_length_b 29.452742
_cell_length_c 16.441170
_cell_angle_alpha 90.000000
_cell_angle_beta 90.000000
_cell_angle_gamma 90.000000
_cell_volume 3616.994375
_symmetry_space_group_name_H-M "C M C M"
_symmetry_group_IT_number 63
_symmetry_cell_setting 'orthorhombic'
loop_
_space_group_symop_operation_xyz
x,y,z
-x,-y,1/2+z
x,-y,-z
-x,y,1/2-z
-x,-y,-z
x,y,1/2-z
-x,y,z
x,-y,1/2+z
1/2+x,1/2+y,z
1/2-x,1/2-y,1/2+z
1/2+x,1/2-y,-z
1/2-x,1/2+y,1/2-z
1/2-x,1/2-y,-z
1/2+x,1/2+y,1/2-z
1/2-x,1/2+y,z
1/2+x,1/2-y,1/2+z
loop_
_atom_site_type_symbol
_atom_site_label
_atom_site_fract_x
_atom_site_fract_y
_atom_site_fract_z
Si Si1 0.782023 0.502092 0.750000
Si Si2 0.213487 0.733740 0.406875
Si Si3 0.298271 0.862398 0.567748
Si Si4 0.208706 0.829044 0.105758
Si Si5 0.214361 0.394848 0.250000
Si Si6 0.219146 0.534599 0.427278
O O1 0.721575 0.553962 0.750000
O O2 0.727686 0.480898 0.836481
O O3 0.000000 0.500650 0.750000
O O4 0.250000 0.750000 0.500000
O O5 0.286292 0.683009 0.391444
O O6 0.272182 0.779728 0.361736
O O7 0.000000 0.728864 0.396012
O O8 0.500000 0.867889 0.601364
O O9 0.307280 0.846011 0.474406
O O10 0.219175 0.912923 0.565236
O O11 0.224330 0.867230 0.172378
O O12 0.000000 0.823799 0.083000
O O13 0.000000 0.395949 0.250000
O O14 0.276387 0.500000 0.500000
O O15 0.000000 0.534569 0.431629
#
# Coordination Sequence:
#
# PCOD9469969 Si02
#       6
#     8  16  16  16   8  16
#     4   9  18  31  48  73  99 123 159 209 260 299
#     4   8  15  27  44  67  93 121 152 189 233 283
#     4   9  16  29  50  73  96 125 162 198 236 289
#     4  10  19  31  47  70 100 129 159 198 245 293
#     4  11  21  33  50  69  93 127 165 205 248 295
#     4   9  16  27  46  73 101 126 159 208 255 291
#
# _framework density 22.117812000000001
#
# number of rings (size 3 to 8) (size 9 to 14) (size 15 to 20)
#    0.000    2.800    0.000    2.100    0.000    4.000 
#    0.000    1.000    0.000   11.400    0.000    0.000 
#    0.000    0.000    0.000    0.000    0.000    0.000 
#
# Total GULP energy -222744.597667 kJ/mol
# GULP energy per Si atom -5568.614942 kJ/mol
# Density = 2.206747 g / cm^3
# Si number density = 22.117812 Si / 1000 Ang^3
#
#
#
# Elastic Constant Matrix: (Units=GPa)
#
#
# Indices 1 2 3 4 5 6 
#
# 1 72.1328 8.0663 -1.7808 0.0000 0.0000 0.0000
# 2 8.0663 280.9614 72.0027 0.0000 0.0000 0.0000
# 3 -1.7808 72.0027 76.4829 0.0000 0.0000 0.0000
# 4 0.0000 0.0000 0.0000 14.8402 0.0000 0.0000
# 5 0.0000 0.0000 0.0000 0.0000 1.0620 0.0000
# 6 0.0000 0.0000 0.0000 0.0000 0.0000 -27.8951
#
#
#
# Elastic Compliance Matrix: (Units=1/GPa)
#
#
# Indices 1 2 3 4 5 6 
#
# 1 0.013957 -0.000638 0.000926 0.000000 0.000000 0.000000
# 2 -0.000638 0.004720 -0.004458 0.000000 0.000000 0.000000
# 3 0.000926 -0.004458 0.017294 0.000000 0.000000 0.000000
# 4 0.000000 0.000000 0.000000 0.067385 0.000000 0.000000
# 5 0.000000 0.000000 0.000000 0.000000 0.941610 0.000000
# 6 0.000000 0.000000 0.000000 0.000000 0.000000 -0.035849
#
#
# Mechanical properties :
#
#
# Convention : Reuss Voigt Hill
#
# Bulk Modulus (GPa) = 36.19313 65.12818 50.66066
# Shear Modulus (GPa) = 4.87012 21.02068 12.94540
#
# Velocity S-wave (km/s) = 1.48549 3.08619 2.42191
# Velocity P-wave (km/s) = 4.39790 6.49688 5.54757
#
# Compressibility (1/GPa) = 0.02762955
#
# Stress axis : x y z
#
# Youngs Moduli (GPa) = 71.64610 211.85966 57.82462
#
# Poissons Ratio (x) = 0.13514 -0.05352
# Poissons Ratio (y) = 0.04570 0.25781
# Poissons Ratio (z) = -0.06631 0.94457
#
# Static dielectric constant tensor:
#      x y z
#    x 2.246520 0.000000 0.000000 
#    y 0.000000 1.876670 0.000000 
#    z 0.000000 0.000000 1.802660 
# 
# From -- ./inp_files/40629.got.cif
#   From: 2010.05.17/outbox.cif.g08.bks.cpg/sg63_21_cif.got.tgz:40629.got - 2010.06.03 15:47:04.
