data_PCOD9469721
_publ_section_title
;
Structure prediction by ZEFSAII (Michael W. Deem and Ramdas Pophale) SiO2 
 PCOD9469721
Probable space group: C M C M
;
_chemical_formula_sum "Si O2"
_cell_formula_units_Z 96
_cell_length_a 14.668959
_cell_length_b 14.837724
_cell_length_c 24.189728
_cell_angle_alpha 90.000000
_cell_angle_beta 90.000000
_cell_angle_gamma 90.000000
_cell_volume 5264.990212
_symmetry_space_group_name_H-M "C M C M"
_symmetry_group_IT_number 63
_symmetry_cell_setting 'orthorhombic'
loop_
_space_group_symop_operation_xyz
x,y,z
-x,-y,1/2+z
x,-y,-z
-x,y,1/2-z
-x,-y,-z
x,y,1/2-z
-x,y,z
x,-y,1/2+z
1/2+x,1/2+y,z
1/2-x,1/2-y,1/2+z
1/2+x,1/2-y,-z
1/2-x,1/2+y,1/2-z
1/2-x,1/2-y,-z
1/2+x,1/2+y,1/2-z
1/2-x,1/2+y,z
1/2+x,1/2-y,1/2+z
loop_
_atom_site_type_symbol
_atom_site_label
_atom_site_fract_x
_atom_site_fract_y
_atom_site_fract_z
Si Si1 0.684198 0.433609 0.132128
Si Si2 0.500000 0.505982 0.315783
Si Si3 0.104566 0.867266 0.483450
Si Si4 0.604754 0.153399 0.507700
Si Si5 0.244608 0.104989 0.423228
Si Si6 0.000000 0.215881 0.316570
Si Si7 0.679245 0.792575 0.124999
O O1 0.591619 0.457564 0.163670
O O2 0.653111 0.394239 0.072835
O O3 0.739216 0.525462 0.120668
O O4 0.751467 0.358392 0.156544
O O5 0.500000 0.507473 0.250000
O O6 0.500000 0.610652 0.334940
O O7 0.107298 0.759042 0.490313
O O8 0.157983 0.905583 0.535947
O O9 0.000000 0.895854 0.482885
O O10 0.500000 0.123261 0.507483
O O11 0.668318 0.103388 0.463531
O O12 0.645422 0.155190 0.569522
O O13 0.231499 0.202260 0.394905
O O14 0.909781 0.262061 0.341470
O O15 0.000000 0.219766 0.250000
#
# Coordination Sequence:
#
# PCOD9469721 Si02
#       7
#    16   8  16  16  16   8  16
#     4  12  22  35  62  88 121 155 197 248 300 362
#     4  11  26  44  64  91 114 148 207 274 315 347
#     4  10  19  29  52  84 117 155 191 229 290 354
#     4  10  19  34  54  80 128 164 195 235 280 366
#     4  11  21  34  52  90 126 161 189 239 290 367
#     4  11  24  46  69  83 111 159 210 259 311 352
#     4  11  21  39  59  90 120 158 201 245 302 350
#
# _framework density 18.233651999999999
#
# number of rings (size 3 to 8) (size 9 to 14) (size 15 to 20)
#    0.000    1.167    6.667    1.500    2.333    1.333 
#    1.500    0.833    0.000    0.000    0.000    1.167 
#    0.000    0.000    0.000    0.000    0.000    0.000 
#
# Total GULP energy -268212.963709 kJ/mol
# GULP energy per Si atom -5587.770077 kJ/mol
# Density = 1.819215 g / cm^3
# Si number density = 18.233652 Si / 1000 Ang^3
#
#
#
# Elastic Constant Matrix: (Units=GPa)
#
#
# Indices 1 2 3 4 5 6 
#
# 1 142.7526 57.5851 31.8725 0.0000 0.0000 0.0000
# 2 57.5851 66.7736 21.3601 0.0000 0.0000 0.0000
# 3 31.8725 21.3601 44.4159 0.0000 0.0000 0.0000
# 4 0.0000 0.0000 0.0000 8.1222 0.0000 0.0000
# 5 0.0000 0.0000 0.0000 0.0000 4.9681 0.0000
# 6 0.0000 0.0000 0.0000 0.0000 0.0000 21.4247
#
#
#
# Elastic Compliance Matrix: (Units=1/GPa)
#
#
# Indices 1 2 3 4 5 6 
#
# 1 0.011328 -0.008472 -0.004054 0.000000 0.000000 0.000000
# 2 -0.008472 0.024035 -0.005479 0.000000 0.000000 0.000000
# 3 -0.004054 -0.005479 0.028059 0.000000 0.000000 0.000000
# 4 0.000000 0.000000 0.000000 0.123119 0.000000 0.000000
# 5 0.000000 0.000000 0.000000 0.000000 0.201285 0.000000
# 6 0.000000 0.000000 0.000000 0.000000 0.000000 0.046675
#
#
# Mechanical properties :
#
#
# Convention : Reuss Voigt Hill
#
# Bulk Modulus (GPa) = 36.48270 52.84196 44.66233
# Shear Modulus (GPa) = 10.42426 16.44462 13.43444
#
# Velocity S-wave (km/s) = 2.39363 3.00639 2.71734
# Velocity P-wave (km/s) = 5.26224 6.41051 5.86454
#
# Compressibility (1/GPa) = 0.02741025
#
# Stress axis : x y z
#
# Youngs Moduli (GPa) = 88.27700 41.60591 35.63930
#
# Poissons Ratio (x) = 0.35249 0.14450
# Poissons Ratio (y) = 0.74790 0.19527
# Poissons Ratio (z) = 0.35792 0.22797
#
# Static dielectric constant tensor:
#      x y z
#    x 1.635640 0.000000 0.000000 
#    y 0.000000 1.668960 0.000000 
#    z 0.000000 0.000000 1.590270 
# 
# From -- ./inp_files/54267.got.cif
#   From: 2010.05.17/outbox.cif.g08.bks.cpg/sg63_28_cif.got.tgz:54267.got - 2010.06.03 15:47:04.
