data_PCOD9469468
_publ_section_title
;
Structure prediction by ZEFSAII (Michael W. Deem and Ramdas Pophale) SiO2 
 PCOD9469468
Probable space group: C M C M
;
_chemical_formula_sum "Si O2"
_cell_formula_units_Z 68
_cell_length_a 16.337626
_cell_length_b 8.423538
_cell_length_c 23.634949
_cell_angle_alpha 90.000000
_cell_angle_beta 90.000000
_cell_angle_gamma 90.000000
_cell_volume 3252.656180
_symmetry_space_group_name_H-M "C M C M"
_symmetry_group_IT_number 63
_symmetry_cell_setting 'orthorhombic'
loop_
_space_group_symop_operation_xyz
x,y,z
-x,-y,1/2+z
x,-y,-z
-x,y,1/2-z
-x,-y,-z
x,y,1/2-z
-x,y,z
x,-y,1/2+z
1/2+x,1/2+y,z
1/2-x,1/2-y,1/2+z
1/2+x,1/2-y,-z
1/2-x,1/2+y,1/2-z
1/2-x,1/2-y,-z
1/2+x,1/2+y,1/2-z
1/2-x,1/2+y,z
1/2+x,1/2-y,1/2+z
loop_
_atom_site_type_symbol
_atom_site_label
_atom_site_fract_x
_atom_site_fract_y
_atom_site_fract_z
Si Si1 0.662677 0.119126 0.250000
Si Si2 0.000000 0.004912 0.432936
Si Si3 0.901202 0.018048 0.750000
Si Si4 0.500000 0.089724 0.250000
Si Si5 0.000000 0.656268 0.120442
Si Si6 0.657142 0.371078 0.870020
Si Si7 0.177155 0.503987 0.371350
O O1 0.632430 0.300548 0.250000
O O2 0.584243 0.998202 0.250000
O O3 0.698645 0.083249 0.310233
O O4 0.000000 0.826204 0.408291
O O5 0.000000 0.000000 0.500000
O O6 0.920436 0.092155 0.409088
O O7 0.868550 0.940061 0.691928
O O8 0.000000 0.010582 0.750000
O O9 0.500000 0.173694 0.188979
O O10 0.912021 0.570165 0.108971
O O11 0.737404 0.448454 0.900166
O O12 0.670643 0.183364 0.865640
#
# Coordination Sequence:
#
# PCOD9469468 Si02
#       7
#     8   8   8   4   8  16  16
#     4  10  18  34  56  97 137 179 207 252 315 382
#     4  12  27  48  69  93 128 170 219 279 335 394
#     4  12  22  36  65  99 139 183 218 260 323 387
#     4   8  14  28  58  88 122 158 202 240 304 366
#     4  10  21  41  67  99 131 172 213 266 328 391
#     4  12  24  43  65 101 135 173 220 266 326 390
#     4  11  23  40  68 100 137 175 216 270 323 392
#
# _framework density 20.905992000000001
#
# number of rings (size 3 to 8) (size 9 to 14) (size 15 to 20)
#    0.000    0.941    1.765    7.765    0.000    0.000 
#    2.118    7.059    0.000    0.000    0.000    0.000 
#    0.000    0.000    0.000    0.000    0.000    0.000 
#
# Total GULP energy -189522.615855 kJ/mol
# GULP energy per Si atom -5574.194584 kJ/mol
# Density = 2.085841 g / cm^3
# Si number density = 20.905992 Si / 1000 Ang^3
#
#
#
# Elastic Constant Matrix: (Units=GPa)
#
#
# Indices 1 2 3 4 5 6 
#
# 1 202.4364 68.3212 20.9473 0.0000 0.0000 0.0000
# 2 68.3212 164.5299 15.4019 0.0000 0.0000 0.0000
# 3 20.9473 15.4019 51.4893 0.0000 0.0000 0.0000
# 4 0.0000 0.0000 0.0000 0.3643 0.0000 0.0000
# 5 0.0000 0.0000 0.0000 0.0000 -4.5744 0.0000
# 6 0.0000 0.0000 0.0000 0.0000 0.0000 36.2450
#
#
#
# Elastic Compliance Matrix: (Units=1/GPa)
#
#
# Indices 1 2 3 4 5 6 
#
# 1 0.005888 -0.002285 -0.001712 0.000000 0.000000 0.000000
# 2 -0.002285 0.007140 -0.001206 0.000000 0.000000 0.000000
# 3 -0.001712 -0.001206 0.020479 0.000000 0.000000 0.000000
# 4 0.000000 0.000000 0.000000 2.744906 0.000000 0.000000
# 5 0.000000 0.000000 0.000000 0.000000 -0.218606 0.000000
# 6 0.000000 0.000000 0.000000 0.000000 0.000000 0.027590
#
#
# Mechanical properties :
#
#
# Convention : Reuss Voigt Hill
#
# Bulk Modulus (GPa) = 43.28885 69.75516 56.52201
# Shear Modulus (GPa) = 1.91902 27.32599 14.62250
#
# Velocity S-wave (km/s) = 0.95912 3.61929 2.64756
# Velocity P-wave (km/s) = 4.68806 7.13472 6.03665
#
# Compressibility (1/GPa) = 0.02310064
#
# Stress axis : x y z
#
# Youngs Moduli (GPa) = 169.83494 140.06425 48.83098
#
# Poissons Ratio (x) = 0.32001 0.08360
# Poissons Ratio (y) = 0.38803 0.05890
# Poissons Ratio (z) = 0.29076 0.16894
#
# Static dielectric constant tensor:
#      x y z
#    x 1.881090 0.000000 0.000000 
#    y 0.000000 1.765360 0.000000 
#    z 0.000000 0.000000 1.763400 
# 
# From -- ./inp_files/63566.got.cif
#   From: 2010.05.17/outbox.cif.g08.bks.cpg/sg63_32_cif.got.tgz:63566.got - 2010.06.03 15:47:04.
