data_PCOD9469861
_publ_section_title
;
Structure prediction by ZEFSAII (Michael W. Deem and Ramdas Pophale) SiO2 
 PCOD9469861
Probable space group: C M C M
;
_chemical_formula_sum "Si O2"
_cell_formula_units_Z 116
_cell_length_a 26.041394
_cell_length_b 25.982342
_cell_length_c 10.471713
_cell_angle_alpha 90.000000
_cell_angle_beta 90.000000
_cell_angle_gamma 90.000000
_cell_volume 7085.332805
_symmetry_space_group_name_H-M "C M C M"
_symmetry_group_IT_number 63
_symmetry_cell_setting 'orthorhombic'
loop_
_space_group_symop_operation_xyz
x,y,z
-x,-y,1/2+z
x,-y,-z
-x,y,1/2-z
-x,-y,-z
x,y,1/2-z
-x,y,z
x,-y,1/2+z
1/2+x,1/2+y,z
1/2-x,1/2-y,1/2+z
1/2+x,1/2-y,-z
1/2-x,1/2+y,1/2-z
1/2-x,1/2-y,-z
1/2+x,1/2+y,1/2-z
1/2-x,1/2+y,z
1/2+x,1/2-y,1/2+z
loop_
_atom_site_type_symbol
_atom_site_label
_atom_site_fract_x
_atom_site_fract_y
_atom_site_fract_z
Si Si1 0.587196 0.043116 0.896522
Si Si2 0.919682 0.347904 0.514873
Si Si3 0.633612 0.698191 0.893666
Si Si4 0.813071 0.689883 0.395257
Si Si5 0.288572 0.039283 0.608355
Si Si6 0.939157 0.762457 0.895289
Si Si7 0.761321 0.848706 0.103826
Si Si8 0.500000 0.842841 0.750000
O O1 0.571702 0.031329 0.750000
O O2 0.649563 0.045359 0.898792
O O3 0.569056 0.099337 0.940842
O O4 0.571121 0.000000 0.000000
O O5 0.860539 0.346169 0.561515
O O6 0.928154 0.297405 0.428523
O O7 0.955507 0.342800 0.637906
O O8 0.611890 0.692953 0.750000
O O9 0.664178 0.752560 0.896466
O O10 0.677645 0.655911 0.914529
O O11 0.591154 0.703478 0.002007
O O12 0.797357 0.677698 0.250000
O O13 0.768226 0.683828 0.497521
O O14 0.277036 0.018994 0.750000
O O15 0.260924 0.093928 0.594101
O O16 0.272411 0.000000 0.500000
O O17 0.922954 0.772844 0.750000
O O18 0.000000 0.770413 0.906470
O O19 0.750830 0.830514 0.250000
#
# Coordination Sequence:
#
# PCOD9469861 Si02
#       8
#    16  16  16  16  16  16  16   4
#     4  10  21  36  56  75  95 124 165 215 269 321
#     4  11  21  36  55  72  95 128 167 213 266 303
#     4   9  20  33  49  73 103 134 166 200 245 297
#     4  10  19  30  48  73  97 126 165 199 246 303
#     4   9  18  32  50  74  99 129 165 203 248 302
#     4  10  21  35  54  75 100 132 171 209 246 293
#     4  10  19  33  50  73 104 134 161 200 249 302
#     4  12  24  36  56  76  98 124 170 228 262 312
#
# _framework density 16.371849000000001
#
# number of rings (size 3 to 8) (size 9 to 14) (size 15 to 20)
#    0.000    2.069    2.759    0.828    1.931    3.586 
#    0.000    0.345    0.000    0.000    0.000    0.000 
#    0.000    0.552    0.000    1.241    0.000    2.207 
#
# Total GULP energy -323019.823991 kJ/mol
# GULP energy per Si atom -5569.307310 kJ/mol
# Density = 1.633459 g / cm^3
# Si number density = 16.371849 Si / 1000 Ang^3
#
#
#
# Elastic Constant Matrix: (Units=GPa)
#
#
# Indices 1 2 3 4 5 6 
#
# 1 51.9242 8.4399 53.1199 0.0000 0.0000 0.0000
# 2 8.4399 14.3250 19.9342 0.0000 0.0000 0.0000
# 3 53.1199 19.9342 137.1745 0.0000 0.0000 0.0000
# 4 0.0000 0.0000 0.0000 13.3429 0.0000 0.0000
# 5 0.0000 0.0000 0.0000 0.0000 32.4401 0.0000
# 6 0.0000 0.0000 0.0000 0.0000 0.0000 4.1568
#
#
#
# Elastic Compliance Matrix: (Units=1/GPa)
#
#
# Indices 1 2 3 4 5 6 
#
# 1 0.031940 -0.002014 -0.012076 0.000000 0.000000 0.000000
# 2 -0.002014 0.087630 -0.011955 0.000000 0.000000 0.000000
# 3 -0.012076 -0.011955 0.013704 0.000000 0.000000 0.000000
# 4 0.000000 0.000000 0.000000 0.074946 0.000000 0.000000
# 5 0.000000 0.000000 0.000000 0.000000 0.030826 0.000000
# 6 0.000000 0.000000 0.000000 0.000000 0.000000 0.240571
#
#
# Mechanical properties :
#
#
# Convention : Reuss Voigt Hill
#
# Bulk Modulus (GPa) = 12.31755 40.71243 26.51499
# Shear Modulus (GPa) = 8.94828 18.11661 13.53245
#
# Velocity S-wave (km/s) = 2.34041 3.33013 2.87813
# Velocity P-wave (km/s) = 3.85270 6.30140 5.22259
#
# Compressibility (1/GPa) = 0.08118501
#
# Stress axis : x y z
#
# Youngs Moduli (GPa) = 31.30845 11.41164 72.97361
#
# Poissons Ratio (x) = 0.02298 0.88123
# Poissons Ratio (y) = 0.06305 0.87237
# Poissons Ratio (z) = 0.37808 0.13642
#
# Static dielectric constant tensor:
#      x y z
#    x 1.555670 0.000000 0.000000 
#    y 0.000000 1.541690 0.000000 
#    z 0.000000 0.000000 1.564810 
# 
# From -- ./inp_files/11168.got.cif
#   From: 2010.05.17/outbox.cif.g08.bks.cpg/sg63_6_cif.got.tgz:11168.got - 2010.06.03 15:47:04.
