data_PCOD9469938
_publ_section_title
;
Structure prediction by ZEFSAII (Michael W. Deem and Ramdas Pophale) SiO2 
 PCOD9469938
Probable space group: C M C M
;
_chemical_formula_sum "Si O2"
_cell_formula_units_Z 96
_cell_length_a 22.222179
_cell_length_b 17.118009
_cell_length_c 16.040294
_cell_angle_alpha 90.000000
_cell_angle_beta 90.000000
_cell_angle_gamma 90.000000
_cell_volume 6101.719178
_symmetry_space_group_name_H-M "C M C M"
_symmetry_group_IT_number 63
_symmetry_cell_setting 'orthorhombic'
loop_
_space_group_symop_operation_xyz
x,y,z
-x,-y,1/2+z
x,-y,-z
-x,y,1/2-z
-x,-y,-z
x,y,1/2-z
-x,y,z
x,-y,1/2+z
1/2+x,1/2+y,z
1/2-x,1/2-y,1/2+z
1/2+x,1/2-y,-z
1/2-x,1/2+y,1/2-z
1/2-x,1/2-y,-z
1/2+x,1/2+y,1/2-z
1/2-x,1/2+y,z
1/2+x,1/2-y,1/2+z
loop_
_atom_site_type_symbol
_atom_site_label
_atom_site_fract_x
_atom_site_fract_y
_atom_site_fract_z
Si Si1 0.927941 0.748110 0.250000
Si Si2 0.152639 0.825383 0.562561
Si Si3 0.774888 0.407498 0.998090
Si Si4 0.726455 0.198315 0.845125
Si Si5 0.651040 0.780560 0.904107
Si Si6 0.573024 0.431069 0.250000
Si Si7 0.572264 0.466974 0.908388
O O1 0.899140 0.712316 0.333514
O O2 0.910049 0.840326 0.250000
O O3 0.000000 0.742641 0.250000
O O4 0.210364 0.878203 0.536978
O O5 0.176874 0.762126 0.628057
O O6 0.132899 0.777043 0.480219
O O7 0.102323 0.882528 0.597528
O O8 0.824927 0.361311 0.943836
O O9 0.780069 0.500000 0.000000
O O10 0.778887 0.372729 0.090938
O O11 0.721474 0.175228 0.750000
O O12 0.790499 0.239822 0.862618
O O13 0.500000 0.432762 0.250000
O O14 0.592997 0.476075 0.166309
O O15 0.500000 0.461619 0.903928
O O16 0.587969 0.500000 0.000000
#
# Coordination Sequence:
#
# PCOD9469938 Si02
#       7
#     8  16  16  16  16   8  16
#     4  11  20  32  51  70  95 129 169 202 236 294
#     4   9  18  30  50  70  97 136 166 191 236 296
#     4   9  18  33  50  72 101 127 160 204 250 294
#     4   9  17  32  50  70  99 131 158 199 247 285
#     4   9  18  33  49  69 100 128 156 205 245 283
#     4   9  20  32  43  68  99 129 164 200 234 270
#     4  10  19  31  46  68 103 136 163 201 236 271
#
# _framework density 15.733271
#
# number of rings (size 3 to 8) (size 9 to 14) (size 15 to 20)
#    0.000    2.667    0.833    3.500    1.167    3.333 
#    1.500    0.000    0.000    0.500    0.000    0.000 
#    0.000    0.000    0.000    0.000    0.000    0.000 
#
# Total GULP energy -267595.112568 kJ/mol
# GULP energy per Si atom -5574.898179 kJ/mol
# Density = 1.569746 g / cm^3
# Si number density = 15.733271 Si / 1000 Ang^3
#
#
#
# Elastic Constant Matrix: (Units=GPa)
#
#
# Indices 1 2 3 4 5 6 
#
# 1 36.4557 23.3704 31.2038 0.0000 0.0000 0.0000
# 2 23.3704 114.2811 47.8727 0.0000 0.0000 0.0000
# 3 31.2038 47.8727 116.8542 0.0000 0.0000 0.0000
# 4 0.0000 0.0000 0.0000 9.1661 0.0000 0.0000
# 5 0.0000 0.0000 0.0000 0.0000 13.1858 0.0000
# 6 0.0000 0.0000 0.0000 0.0000 0.0000 21.3388
#
#
#
# Elastic Compliance Matrix: (Units=1/GPa)
#
#
# Indices 1 2 3 4 5 6 
#
# 1 0.037120 -0.004151 -0.008212 0.000000 0.000000 0.000000
# 2 -0.004151 0.011027 -0.003409 0.000000 0.000000 0.000000
# 3 -0.008212 -0.003409 0.012147 0.000000 0.000000 0.000000
# 4 0.000000 0.000000 0.000000 0.109098 0.000000 0.000000
# 5 0.000000 0.000000 0.000000 0.000000 0.075839 0.000000
# 6 0.000000 0.000000 0.000000 0.000000 0.000000 0.046863
#
#
# Mechanical properties :
#
#
# Convention : Reuss Voigt Hill
#
# Bulk Modulus (GPa) = 34.78161 52.49831 43.63996
# Shear Modulus (GPa) = 15.00498 19.74774 17.37636
#
# Velocity S-wave (km/s) = 3.09157 3.54666 3.32691
# Velocity P-wave (km/s) = 5.90752 7.08604 6.52345
#
# Compressibility (1/GPa) = 0.02875082
#
# Stress axis : x y z
#
# Youngs Moduli (GPa) = 26.93934 90.68329 82.32398
#
# Poissons Ratio (x) = 0.37644 0.67602
# Poissons Ratio (y) = 0.11183 0.28066
# Poissons Ratio (z) = 0.22122 0.30916
#
# Static dielectric constant tensor:
#      x y z
#    x 1.521770 0.000000 0.000000 
#    y 0.000000 1.501550 0.000000 
#    z 0.000000 0.000000 1.535250 
# 
# From -- ./inp_files/36828.got.cif
#   From: 2010.05.17/outbox.cif.g08.bks.cpg/sg63_19_cif.got.tgz:36828.got - 2010.06.03 15:47:04.
