data_PCOD9469484
_publ_section_title
;
Structure prediction by ZEFSAII (Michael W. Deem and Ramdas Pophale) SiO2 
 PCOD9469484
Probable space group: C M C M
;
_chemical_formula_sum "Si O2"
_cell_formula_units_Z 80
_cell_length_a 27.586370
_cell_length_b 8.483776
_cell_length_c 15.492249
_cell_angle_alpha 90.000000
_cell_angle_beta 90.000000
_cell_angle_gamma 90.000000
_cell_volume 3625.753030
_symmetry_space_group_name_H-M "C M C M"
_symmetry_group_IT_number 63
_symmetry_cell_setting 'orthorhombic'
loop_
_space_group_symop_operation_xyz
x,y,z
-x,-y,1/2+z
x,-y,-z
-x,y,1/2-z
-x,-y,-z
x,y,1/2-z
-x,y,z
x,-y,1/2+z
1/2+x,1/2+y,z
1/2-x,1/2-y,1/2+z
1/2+x,1/2-y,-z
1/2-x,1/2+y,1/2-z
1/2-x,1/2-y,-z
1/2+x,1/2+y,1/2-z
1/2-x,1/2+y,z
1/2+x,1/2-y,1/2+z
loop_
_atom_site_type_symbol
_atom_site_label
_atom_site_fract_x
_atom_site_fract_y
_atom_site_fract_z
Si Si1 0.297770 0.408064 0.155192
Si Si2 0.395231 0.944369 0.400105
Si Si3 0.500000 0.562472 0.401650
Si Si4 0.000000 0.442874 0.099392
Si Si5 0.605445 0.434642 0.901767
Si Si6 0.204259 0.578413 0.406186
O O1 0.294154 0.334606 0.250000
O O2 0.348286 0.497191 0.146027
O O3 0.252448 0.521941 0.141415
O O4 0.296411 0.266208 0.087351
O O5 0.391510 0.755045 0.399708
O O6 0.396830 0.000000 0.500000
O O7 0.447889 0.991272 0.362035
O O8 0.346252 0.020598 0.363686
O O9 0.500000 0.500000 0.500000
O O10 0.447478 0.515824 0.365036
O O11 0.500000 0.752646 0.402175
O O12 0.000000 0.500000 0.000000
O O13 0.607543 0.500000 0.000000
O O14 0.206065 0.500000 0.500000
#
# Coordination Sequence:
#
# PCOD9469484 Si02
#       6
#    16  16   8   8  16  16
#     4  12  25  40  58  85 116 150 191 244 303 357
#     4   9  17  30  53  84 113 143 182 228 277 326
#     4   8  16  28  51  84 113 145 186 230 275 326
#     4   8  14  26  46  78 115 141 171 224 278 322
#     4  10  18  34  58  85 116 150 190 233 278 337
#     4  11  22  39  60  84 112 150 196 240 290 354
#
# _framework density 22.064382999999999
#
# number of rings (size 3 to 8) (size 9 to 14) (size 15 to 20)
#    0.000    2.000    0.000    5.400    0.000    1.600 
#    0.000    1.500    0.000    0.000    0.000    4.900 
#    0.000    0.000    0.000    0.000    0.000    0.000 
#
# Total GULP energy -223267.473475 kJ/mol
# GULP energy per Si atom -5581.686837 kJ/mol
# Density = 2.201416 g / cm^3
# Si number density = 22.064383 Si / 1000 Ang^3
#
#
#
# Elastic Constant Matrix: (Units=GPa)
#
#
# Indices 1 2 3 4 5 6 
#
# 1 257.3007 52.1579 15.0248 0.0000 0.0000 0.0000
# 2 52.1579 75.3408 -5.1799 0.0000 0.0000 0.0000
# 3 15.0248 -5.1799 38.8745 0.0000 0.0000 0.0000
# 4 0.0000 0.0000 0.0000 9.0797 0.0000 0.0000
# 5 0.0000 0.0000 0.0000 0.0000 -22.0985 0.0000
# 6 0.0000 0.0000 0.0000 0.0000 0.0000 26.1919
#
#
#
# Elastic Compliance Matrix: (Units=1/GPa)
#
#
# Indices 1 2 3 4 5 6 
#
# 1 0.004713 -0.003419 -0.002277 0.000000 0.000000 0.000000
# 2 -0.003419 0.015876 0.003437 0.000000 0.000000 0.000000
# 3 -0.002277 0.003437 0.027062 0.000000 0.000000 0.000000
# 4 0.000000 0.000000 0.000000 0.110136 0.000000 0.000000
# 5 0.000000 0.000000 0.000000 0.000000 -0.045252 0.000000
# 6 0.000000 0.000000 0.000000 0.000000 0.000000 0.038180
#
#
# Mechanical properties :
#
#
# Convention : Reuss Voigt Hill
#
# Bulk Modulus (GPa) = 23.18441 55.05797 39.12119
# Shear Modulus (GPa) = 29.47938 23.26882 26.37410
#
# Velocity S-wave (km/s) = 3.65918 3.25096 3.46110
# Velocity P-wave (km/s) = 5.32759 6.25293 5.80872
#
# Compressibility (1/GPa) = 0.04313243
#
# Stress axis : x y z
#
# Youngs Moduli (GPa) = 212.19998 62.98710 36.95253
#
# Poissons Ratio (x) = 0.21535 0.08414
# Poissons Ratio (y) = 0.72551 -0.12700
# Poissons Ratio (z) = 0.48317 -0.21648
#
# Static dielectric constant tensor:
#      x y z
#    x 1.878310 0.000000 0.000000 
#    y 0.000000 1.766970 0.000000 
#    z 0.000000 0.000000 1.986820 
# 
# From -- ./inp_files/48872.got.cif
#   From: 2010.05.17/outbox.cif.g08.bks.cpg/sg63_25_cif.got.tgz:48872.got - 2010.06.03 15:47:04.
