data_PCOD9469065
_publ_section_title
;
Structure prediction by ZEFSAII (Michael W. Deem and Ramdas Pophale) SiO2 
 PCOD9469065
Probable space group: C M C M
;
_chemical_formula_sum "Si O2"
_cell_formula_units_Z 80
_cell_length_a 24.095567
_cell_length_b 23.058354
_cell_length_c 8.687993
_cell_angle_alpha 90.000000
_cell_angle_beta 90.000000
_cell_angle_gamma 90.000000
_cell_volume 4827.084651
_symmetry_space_group_name_H-M "C M C M"
_symmetry_group_IT_number 63
_symmetry_cell_setting 'orthorhombic'
loop_
_space_group_symop_operation_xyz
x,y,z
-x,-y,1/2+z
x,-y,-z
-x,y,1/2-z
-x,-y,-z
x,y,1/2-z
-x,y,z
x,-y,1/2+z
1/2+x,1/2+y,z
1/2-x,1/2-y,1/2+z
1/2+x,1/2-y,-z
1/2-x,1/2+y,1/2-z
1/2-x,1/2-y,-z
1/2+x,1/2+y,1/2-z
1/2-x,1/2+y,z
1/2+x,1/2-y,1/2+z
loop_
_atom_site_type_symbol
_atom_site_label
_atom_site_fract_x
_atom_site_fract_y
_atom_site_fract_z
Si Si1 0.335408 0.935298 0.432123
Si Si2 0.394238 0.434576 0.434199
Si Si3 0.000000 0.131528 0.432025
Si Si4 0.721062 0.434354 0.566033
Si Si5 0.000000 0.256868 0.568427
Si Si6 0.938343 0.369599 0.932760
O O1 0.327410 0.939814 0.250000
O O2 0.279449 0.909272 0.507899
O O3 0.389065 0.897725 0.473793
O O4 0.343585 0.000000 0.500000
O O5 0.400124 0.500000 0.500000
O O6 0.392668 0.437195 0.250000
O O7 0.445863 0.397430 0.492699
O O8 0.335965 0.409508 0.497972
O O9 0.000000 0.199769 0.468726
O O10 0.000000 0.120734 0.250000
O O11 0.722091 0.500000 0.500000
O O12 0.718912 0.564598 0.250000
O O13 0.948308 0.300774 0.540846
O O14 0.000000 0.241643 0.750000
O O15 0.928835 0.377953 0.750000
O O16 0.000000 0.394868 0.968563
#
# Coordination Sequence:
#
# PCOD9469065 Si02
#       6
#    16  16   8  16   8  16
#     4  11  20  30  48  74 104 137 173 207 249 300
#     4  11  21  35  53  77 108 136 166 203 250 297
#     4  12  23  35  54  79 104 132 169 206 246 298
#     4  10  18  31  49  71 102 136 169 202 245 298
#     4   8  18  37  56  73  96 130 169 210 257 300
#     4   8  17  34  53  72  98 131 168 211 257 299
#
# _framework density 16.573149999999998
#
# number of rings (size 3 to 8) (size 9 to 14) (size 15 to 20)
#    0.600    1.400    0.000    9.000    0.000    1.600 
#    0.000    0.000    0.000    1.200    0.000    0.000 
#    0.000    0.000    0.000    0.000    0.000    0.000 
#
# Total GULP energy -222896.352418 kJ/mol
# GULP energy per Si atom -5572.408810 kJ/mol
# Density = 1.653543 g / cm^3
# Si number density = 16.573150 Si / 1000 Ang^3
#
#
#
# Elastic Constant Matrix: (Units=GPa)
#
#
# Indices 1 2 3 4 5 6 
#
# 1 138.3278 38.9271 69.8000 0.0000 0.0000 0.0000
# 2 38.9271 41.7807 33.7264 0.0000 0.0000 0.0000
# 3 69.8000 33.7264 164.5263 0.0000 0.0000 0.0000
# 4 0.0000 0.0000 0.0000 24.2953 0.0000 0.0000
# 5 0.0000 0.0000 0.0000 0.0000 37.8876 0.0000
# 6 0.0000 0.0000 0.0000 0.0000 0.0000 -5.3814
#
#
#
# Elastic Compliance Matrix: (Units=1/GPa)
#
#
# Indices 1 2 3 4 5 6 
#
# 1 0.010949 -0.007731 -0.003060 0.000000 0.000000 0.000000
# 2 -0.007731 0.034139 -0.003718 0.000000 0.000000 0.000000
# 3 -0.003060 -0.003718 0.008139 0.000000 0.000000 0.000000
# 4 0.000000 0.000000 0.000000 0.041160 0.000000 0.000000
# 5 0.000000 0.000000 0.000000 0.000000 0.026394 0.000000
# 6 0.000000 0.000000 0.000000 0.000000 0.000000 -0.185826
#
#
# Mechanical properties :
#
#
# Convention : Reuss Voigt Hill
#
# Bulk Modulus (GPa) = 41.30959 69.94911 55.62935
# Shear Modulus (GPa) = -178.84239 24.83905 -77.00167
#
# Velocity S-wave (km/s) = -10.39929 3.87557 -6.82368
# Velocity P-wave (km/s) = 10.91851 7.89460 5.33335
#
# Compressibility (1/GPa) = 0.02420746
#
# Stress axis : x y z
#
# Youngs Moduli (GPa) = 91.33255 29.29208 122.87065
#
# Poissons Ratio (x) = 0.22645 0.37603
# Poissons Ratio (y) = 0.70608 0.45688
# Poissons Ratio (z) = 0.27951 0.10892
#
# Static dielectric constant tensor:
#      x y z
#    x 1.595740 0.000000 0.000000 
#    y 0.000000 1.542280 0.000000 
#    z 0.000000 0.000000 1.551430 
# 
# From -- ./inp_files/10096.got.cif
#   From: 2010.05.17/outbox.cif.g08.bks.cpg/sg63_6_cif.got.tgz:10096.got - 2010.06.03 15:47:04.
