data_PCOD9469711
_publ_section_title
;
Structure prediction by ZEFSAII (Michael W. Deem and Ramdas Pophale) SiO2 
 PCOD9469711
Probable space group: C M C M
;
_chemical_formula_sum "Si O2"
_cell_formula_units_Z 40
_cell_length_a 5.672718
_cell_length_b 17.844879
_cell_length_c 13.948692
_cell_angle_alpha 90.000000
_cell_angle_beta 90.000000
_cell_angle_gamma 90.000000
_cell_volume 1412.011673
_symmetry_space_group_name_H-M "C M C M"
_symmetry_group_IT_number 63
_symmetry_cell_setting 'orthorhombic'
loop_
_space_group_symop_operation_xyz
x,y,z
-x,-y,1/2+z
x,-y,-z
-x,y,1/2-z
-x,-y,-z
x,y,1/2-z
-x,y,z
x,-y,1/2+z
1/2+x,1/2+y,z
1/2-x,1/2-y,1/2+z
1/2+x,1/2-y,-z
1/2-x,1/2+y,1/2-z
1/2-x,1/2-y,-z
1/2+x,1/2+y,1/2-z
1/2-x,1/2+y,z
1/2+x,1/2-y,1/2+z
loop_
_atom_site_type_symbol
_atom_site_label
_atom_site_fract_x
_atom_site_fract_y
_atom_site_fract_z
Si Si1 0.500000 0.357901 0.351234
Si Si2 0.000000 0.704156 0.451792
Si Si3 0.748634 0.504204 0.385141
Si Si4 0.000000 0.208136 0.367173
O O1 0.500000 0.317698 0.250000
O O2 0.500000 0.292576 0.425877
O O3 0.711700 0.417446 0.356720
O O4 0.244355 0.674701 0.404033
O O5 0.000000 0.713692 0.567908
O O6 0.750574 0.500000 0.500000
O O7 0.500000 0.540430 0.354546
O O8 0.000000 0.532035 0.352325
O O9 0.000000 0.215665 0.250000
#
# Coordination Sequence:
#
# PCOD9469711 Si02
#       4
#     8   8  16   8
#     4  10  19  29  48  77 104 126 161 211 253 294
#     4  10  22  33  53  80 103 134 174 215 263 306
#     4   8  16  30  45  63  92 128 157 189 238 292
#     4  10  20  38  53  71 104 142 173 210 260 318
#
# _framework density 28.328378000000001
#
# number of rings (size 3 to 8) (size 9 to 14) (size 15 to 20)
#    1.200    1.600    0.000    1.800    2.800    0.800 
#    0.000    0.000    0.000    4.800    0.000    0.000 
#    0.000    0.000    0.000    0.000    0.000    0.000 
#
# Total GULP energy -111453.881740 kJ/mol
# GULP energy per Si atom -5572.694087 kJ/mol
# Density = 2.826390 g / cm^3
# Si number density = 28.328378 Si / 1000 Ang^3
#
#
#
# Elastic Constant Matrix: (Units=GPa)
#
#
# Indices 1 2 3 4 5 6 
#
# 1 340.5799 50.1935 16.7530 0.0000 0.0000 0.0000
# 2 50.1935 78.1214 4.2278 0.0000 0.0000 0.0000
# 3 16.7530 4.2278 232.3282 0.0000 0.0000 0.0000
# 4 0.0000 0.0000 0.0000 -6.6939 0.0000 0.0000
# 5 0.0000 0.0000 0.0000 0.0000 37.2496 0.0000
# 6 0.0000 0.0000 0.0000 0.0000 0.0000 56.1829
#
#
#
# Elastic Compliance Matrix: (Units=1/GPa)
#
#
# Indices 1 2 3 4 5 6 
#
# 1 0.003252 -0.002079 -0.000197 0.000000 0.000000 0.000000
# 2 -0.002079 0.014142 -0.000107 0.000000 0.000000 0.000000
# 3 -0.000197 -0.000107 0.004320 0.000000 0.000000 0.000000
# 4 0.000000 0.000000 0.000000 -0.149390 0.000000 0.000000
# 5 0.000000 0.000000 0.000000 0.000000 0.026846 0.000000
# 6 0.000000 0.000000 0.000000 0.000000 0.000000 0.017799
#
#
# Mechanical properties :
#
#
# Convention : Reuss Voigt Hill
#
# Bulk Modulus (GPa) = 59.00179 88.15311 73.57745
# Shear Modulus (GPa) = -68.85657 56.00474 -6.42591
#
# Velocity S-wave (km/s) = -4.93552 4.45115 -1.50774
# Velocity P-wave (km/s) = 3.40677 7.58966 4.79566
#
# Compressibility (1/GPa) = 0.01694864
#
# Stress axis : x y z
#
# Youngs Moduli (GPa) = 307.48138 70.71068 231.46038
#
# Poissons Ratio (x) = 0.14700 0.04552
# Poissons Ratio (y) = 0.63923 0.02487
# Poissons Ratio (z) = 0.06048 0.00760
#
# Static dielectric constant tensor:
#      x y z
#    x 2.354340 0.000000 0.000000 
#    y 0.000000 2.120180 0.000000 
#    z 0.000000 0.000000 2.364520 
# 
# From -- ./inp_files/26270.got.cif
#   From: 2010.05.17/outbox.cif.g08.bks.cpg/sg63_14_cif.got.tgz:26270.got - 2010.06.03 15:47:04.
