data_PCOD9469232
_publ_section_title
;
Structure prediction by ZEFSAII (Michael W. Deem and Ramdas Pophale) SiO2 
 PCOD9469232
Probable space group: C M C M
;
_chemical_formula_sum "Si O2"
_cell_formula_units_Z 96
_cell_length_a 22.140259
_cell_length_b 12.962083
_cell_length_c 13.748751
_cell_angle_alpha 90.000000
_cell_angle_beta 90.000000
_cell_angle_gamma 90.000000
_cell_volume 3945.669836
_symmetry_space_group_name_H-M "C M C M"
_symmetry_group_IT_number 63
_symmetry_cell_setting 'orthorhombic'
loop_
_space_group_symop_operation_xyz
x,y,z
-x,-y,1/2+z
x,-y,-z
-x,y,1/2-z
-x,-y,-z
x,y,1/2-z
-x,y,z
x,-y,1/2+z
1/2+x,1/2+y,z
1/2-x,1/2-y,1/2+z
1/2+x,1/2-y,-z
1/2-x,1/2+y,1/2-z
1/2-x,1/2-y,-z
1/2+x,1/2+y,1/2-z
1/2-x,1/2+y,z
1/2+x,1/2-y,1/2+z
loop_
_atom_site_type_symbol
_atom_site_label
_atom_site_fract_x
_atom_site_fract_y
_atom_site_fract_z
Si Si1 0.366562 0.844796 0.631266
Si Si2 0.430036 0.240066 0.869007
Si Si3 0.703998 0.639746 0.868789
Si Si4 0.625677 0.551321 0.142237
Si Si5 0.500000 0.209034 0.132978
Si Si6 0.834187 0.571772 0.868447
Si Si7 0.000000 0.952086 0.393729
O O1 0.366372 0.843686 0.750000
O O2 0.329396 0.744018 0.600195
O O3 0.436493 0.837726 0.600089
O O4 0.338056 0.953063 0.600226
O O5 0.431532 0.247817 0.750000
O O6 0.500000 0.241880 0.900464
O O7 0.392415 0.339861 0.904924
O O8 0.393214 0.137707 0.893947
O O9 0.701702 0.640216 0.750000
O O10 0.669310 0.535663 0.899776
O O11 0.773226 0.629232 0.899424
O O12 0.650630 0.576445 0.250000
O O13 0.561346 0.494444 0.151274
O O14 0.500000 0.199272 0.250000
O O15 0.500000 0.330014 0.110365
O O16 0.832488 0.569984 0.750000
O O17 0.000000 0.000000 0.500000
#
# Coordination Sequence:
#
# PCOD9469232 Si02
#       7
#    16  16  16  16   8  16   8
#     4   9  17  27  43  66  98 135 165 202 249 295
#     4   9  17  27  43  66  98 135 165 202 249 295
#     4   9  17  27  43  66  98 135 165 202 249 295
#     4  10  18  32  51  72 101 134 167 203 250 304
#     4  10  18  32  51  72 101 134 167 203 250 304
#     4   9  18  27  39  69 106 134 169 207 244 293
#     4  12  22  32  49  78 106 128 163 213 256 290
#
# _framework density 24.330469999999998
#
# number of rings (size 3 to 8) (size 9 to 14) (size 15 to 20)
#    0.000    2.500    2.500    0.750    3.500    0.000 
#    0.000    0.000    0.000    0.000    0.000    7.000 
#    0.000    0.000    0.000    0.000    0.000    0.000 
#
# Total GULP energy -268574.873159 kJ/mol
# GULP energy per Si atom -5595.309857 kJ/mol
# Density = 2.427509 g / cm^3
# Si number density = 24.330470 Si / 1000 Ang^3
#
#
#
# Elastic Constant Matrix: (Units=GPa)
#
#
# Indices 1 2 3 4 5 6 
#
# 1 135.0219 103.3997 27.3568 0.0000 0.0000 0.0000
# 2 103.3997 164.3481 24.2303 0.0000 0.0000 0.0000
# 3 27.3568 24.2303 85.4982 0.0000 0.0000 0.0000
# 4 0.0000 0.0000 0.0000 18.7212 0.0000 0.0000
# 5 0.0000 0.0000 0.0000 0.0000 14.4528 0.0000
# 6 0.0000 0.0000 0.0000 0.0000 0.0000 13.6354
#
#
#
# Elastic Compliance Matrix: (Units=1/GPa)
#
#
# Indices 1 2 3 4 5 6 
#
# 1 0.014668 -0.008908 -0.002169 0.000000 0.000000 0.000000
# 2 -0.008908 0.011761 -0.000483 0.000000 0.000000 0.000000
# 3 -0.002169 -0.000483 0.012527 0.000000 0.000000 0.000000
# 4 0.000000 0.000000 0.000000 0.053415 0.000000 0.000000
# 5 0.000000 0.000000 0.000000 0.000000 0.069191 0.000000
# 6 0.000000 0.000000 0.000000 0.000000 0.000000 0.073339
#
#
# Mechanical properties :
#
#
# Convention : Reuss Voigt Hill
#
# Bulk Modulus (GPa) = 63.14743 77.20463 70.17603
# Shear Modulus (GPa) = 18.98994 24.68731 21.83862
#
# Velocity S-wave (km/s) = 2.79677 3.18884 2.99922
# Velocity P-wave (km/s) = 6.03653 6.73489 6.39525
#
# Compressibility (1/GPa) = 0.01583596
#
# Stress axis : x y z
#
# Youngs Moduli (GPa) = 68.17723 85.03010 79.82905
#
# Poissons Ratio (x) = 0.75749 0.17311
# Poissons Ratio (y) = 0.60735 0.03852
# Poissons Ratio (z) = 0.14784 0.04103
#
# Static dielectric constant tensor:
#      x y z
#    x 1.866280 0.000000 0.000000 
#    y 0.000000 1.855550 0.000000 
#    z 0.000000 0.000000 1.991440 
# 
# From -- ./inp_files/48084.got.cif
#   From: 2010.05.17/outbox.cif.g08.bks.cpg/sg63_25_cif.got.tgz:48084.got - 2010.06.03 15:47:04.
