data_PCOD9469407
_publ_section_title
;
Structure prediction by ZEFSAII (Michael W. Deem and Ramdas Pophale) SiO2 
 PCOD9469407
Probable space group: C M C M
;
_chemical_formula_sum "Si O2"
_cell_formula_units_Z 96
_cell_length_a 7.910175
_cell_length_b 24.422114
_cell_length_c 25.977195
_cell_angle_alpha 90.000000
_cell_angle_beta 90.000000
_cell_angle_gamma 90.000000
_cell_volume 5018.357543
_symmetry_space_group_name_H-M "C M C M"
_symmetry_group_IT_number 63
_symmetry_cell_setting 'orthorhombic'
loop_
_space_group_symop_operation_xyz
x,y,z
-x,-y,1/2+z
x,-y,-z
-x,y,1/2-z
-x,-y,-z
x,y,1/2-z
-x,y,z
x,-y,1/2+z
1/2+x,1/2+y,z
1/2-x,1/2-y,1/2+z
1/2+x,1/2-y,-z
1/2-x,1/2+y,1/2-z
1/2-x,1/2-y,-z
1/2+x,1/2+y,1/2-z
1/2-x,1/2+y,z
1/2+x,1/2-y,1/2+z
loop_
_atom_site_type_symbol
_atom_site_label
_atom_site_fract_x
_atom_site_fract_y
_atom_site_fract_z
Si Si1 0.704449 0.683064 0.691382
Si Si2 0.800502 0.381824 0.408124
Si Si3 0.293238 0.191525 0.308604
Si Si4 0.302310 0.116300 0.100144
Si Si5 0.805555 0.812712 0.505334
Si Si6 0.793228 0.498774 0.940222
O O1 0.756631 0.670060 0.750000
O O2 0.500000 0.681941 0.689937
O O3 0.770572 0.642636 0.648082
O O4 0.757818 0.745780 0.680040
O O5 0.716155 0.343607 0.451158
O O6 0.741042 0.444398 0.414084
O O7 0.000000 0.381123 0.419677
O O8 0.243281 0.178267 0.250000
O O9 0.500000 0.191590 0.309783
O O10 0.229781 0.149533 0.351494
O O11 0.500000 0.107628 0.111981
O O12 0.291604 0.154124 0.049501
O O13 0.230055 0.056666 0.086610
O O14 0.750000 0.750000 0.500000
O O15 0.000000 0.813745 0.520896
O O16 0.000000 0.496821 0.939864
O O17 0.741714 0.500000 0.000000
#
# Coordination Sequence:
#
# PCOD9469407 Si02
#       6
#    16  16  16  16  16  16
#     4   9  18  34  54  77 108 143 178 224 280 329
#     4  11  21  35  55  79 108 142 182 225 270 323
#     4   8  15  29  52  79 102 129 171 219 266 316
#     4  10  18  33  56  78 104 140 179 220 267 320
#     4  12  24  36  52  78 109 138 174 221 274 328
#     4   9  17  32  52  75 108 145 177 214 271 323
#
# _framework density 19.129764000000002
#
# number of rings (size 3 to 8) (size 9 to 14) (size 15 to 20)
#    0.000    2.167    1.667    4.000    0.000    1.667 
#    0.000    3.333    0.000    4.500    0.000    0.000 
#    0.000    0.000    0.000    0.000    0.000    0.000 
#
# Total GULP energy -267952.371255 kJ/mol
# GULP energy per Si atom -5582.341068 kJ/mol
# Density = 1.908622 g / cm^3
# Si number density = 19.129764 Si / 1000 Ang^3
#
#
#
# Elastic Constant Matrix: (Units=GPa)
#
#
# Indices 1 2 3 4 5 6 
#
# 1 21.1825 -0.0920 -6.9716 0.0000 0.0000 0.0000
# 2 -0.0920 182.7936 100.3270 0.0000 0.0000 0.0000
# 3 -6.9716 100.3270 129.6195 0.0000 0.0000 0.0000
# 4 0.0000 0.0000 0.0000 20.1980 0.0000 0.0000
# 5 0.0000 0.0000 0.0000 0.0000 18.3967 0.0000
# 6 0.0000 0.0000 0.0000 0.0000 0.0000 14.1169
#
#
#
# Elastic Compliance Matrix: (Units=1/GPa)
#
#
# Indices 1 2 3 4 5 6 
#
# 1 0.048686 -0.002456 0.004520 0.000000 0.000000 0.000000
# 2 -0.002456 0.009635 -0.007590 0.000000 0.000000 0.000000
# 3 0.004520 -0.007590 0.013833 0.000000 0.000000 0.000000
# 4 0.000000 0.000000 0.000000 0.049510 0.000000 0.000000
# 5 0.000000 0.000000 0.000000 0.000000 0.054357 0.000000
# 6 0.000000 0.000000 0.000000 0.000000 0.000000 0.070837
#
#
# Mechanical properties :
#
#
# Convention : Reuss Voigt Hill
#
# Bulk Modulus (GPa) = 16.36639 57.79139 37.07889
# Shear Modulus (GPa) = 17.96770 26.56447 22.26609
#
# Velocity S-wave (km/s) = 3.06805 3.73050 3.41537
# Velocity P-wave (km/s) = 4.59615 6.98794 5.91421
#
# Compressibility (1/GPa) = 0.06110081
#
# Stress axis : x y z
#
# Youngs Moduli (GPa) = 20.53990 103.78725 72.29326
#
# Poissons Ratio (x) = 0.25491 -0.32674
# Poissons Ratio (y) = 0.05045 0.54869
# Poissons Ratio (z) = -0.09283 0.78772
#
# Static dielectric constant tensor:
#      x y z
#    x 1.720820 0.000000 0.000000 
#    y 0.000000 1.634210 0.000000 
#    z 0.000000 0.000000 1.610000 
# 
# From -- ./inp_files/66959.got.cif
#   From: 2010.05.17/outbox.cif.g08.bks.cpg/sg63_34_cif.got.tgz:66959.got - 2010.06.03 15:47:04.
