data_PCOD9469267
_publ_section_title
;
Structure prediction by ZEFSAII (Michael W. Deem and Ramdas Pophale) SiO2 
 PCOD9469267
Probable space group: C M C M
;
_chemical_formula_sum "Si O2"
_cell_formula_units_Z 88
_cell_length_a 17.623544
_cell_length_b 29.427677
_cell_length_c 9.001991
_cell_angle_alpha 90.000000
_cell_angle_beta 90.000000
_cell_angle_gamma 90.000000
_cell_volume 4668.612216
_symmetry_space_group_name_H-M "C M C M"
_symmetry_group_IT_number 63
_symmetry_cell_setting 'orthorhombic'
loop_
_space_group_symop_operation_xyz
x,y,z
-x,-y,1/2+z
x,-y,-z
-x,y,1/2-z
-x,-y,-z
x,y,1/2-z
-x,y,z
x,-y,1/2+z
1/2+x,1/2+y,z
1/2-x,1/2-y,1/2+z
1/2+x,1/2-y,-z
1/2-x,1/2+y,1/2-z
1/2-x,1/2-y,-z
1/2+x,1/2+y,1/2-z
1/2-x,1/2+y,z
1/2+x,1/2-y,1/2+z
loop_
_atom_site_type_symbol
_atom_site_label
_atom_site_fract_x
_atom_site_fract_y
_atom_site_fract_z
Si Si1 0.500000 0.549729 0.929794
Si Si2 0.785078 0.451594 0.427927
Si Si3 0.091025 0.207589 0.927198
Si Si4 0.090581 0.605330 0.424556
Si Si5 0.644783 0.610081 0.930354
Si Si6 0.092352 0.301058 0.419773
O O1 0.500000 0.545864 0.750000
O O2 0.573988 0.578522 0.974609
O O3 0.500000 0.500000 0.000000
O O4 0.767411 0.500000 0.500000
O O5 0.784532 0.455381 0.250000
O O6 0.864975 0.432957 0.485913
O O7 0.721944 0.414615 0.474528
O O8 0.102192 0.213049 0.750000
O O9 0.132187 0.161791 0.980248
O O10 0.000000 0.201437 0.949428
O O11 0.116205 0.253342 0.009185
O O12 0.107095 0.601861 0.250000
O O13 0.114392 0.654764 0.486501
O O14 0.000000 0.601347 0.444831
O O15 0.643401 0.611871 0.750000
O O16 0.118387 0.305639 0.250000
O O17 0.000000 0.300255 0.419531
#
# Coordination Sequence:
#
# PCOD9469267 Si02
#       6
#     8  16  16  16  16  16
#     4  10  18  32  52  76 106 144 190 234 271 314
#     4  11  23  39  58  81 111 145 181 226 280 329
#     4   9  15  28  52  79 108 147 190 226 261 310
#     4  10  21  39  62  85 107 137 180 225 272 333
#     4   9  18  33  54  79 109 147 189 228 268 317
#     4   9  17  30  51  82 116 144 173 218 274 326
#
# _framework density 18.849284999999998
#
# number of rings (size 3 to 8) (size 9 to 14) (size 15 to 20)
#    0.000    2.364    0.909    2.182    0.000    3.636 
#    0.000    4.545    0.000    0.000    0.000    0.000 
#    0.000    0.000    0.000    0.000    0.000    0.000 
#
# Total GULP energy -245575.331916 kJ/mol
# GULP energy per Si atom -5581.257544 kJ/mol
# Density = 1.880638 g / cm^3
# Si number density = 18.849285 Si / 1000 Ang^3
#
#
#
# Elastic Constant Matrix: (Units=GPa)
#
#
# Indices 1 2 3 4 5 6 
#
# 1 32.9260 15.0113 28.1666 0.0000 0.0000 0.0000
# 2 15.0113 25.1601 10.1320 0.0000 0.0000 0.0000
# 3 28.1666 10.1320 52.7767 0.0000 0.0000 0.0000
# 4 0.0000 0.0000 0.0000 31.9052 0.0000 0.0000
# 5 0.0000 0.0000 0.0000 0.0000 11.3890 0.0000
# 6 0.0000 0.0000 0.0000 0.0000 0.0000 8.4833
#
#
#
# Elastic Compliance Matrix: (Units=1/GPa)
#
#
# Indices 1 2 3 4 5 6 
#
# 1 0.071836 -0.029718 -0.032633 0.000000 0.000000 0.000000
# 2 -0.029718 0.055370 0.005231 0.000000 0.000000 0.000000
# 3 -0.032633 0.005231 0.035360 0.000000 0.000000 0.000000
# 4 0.000000 0.000000 0.000000 0.031343 0.000000 0.000000
# 5 0.000000 0.000000 0.000000 0.000000 0.087804 0.000000
# 6 0.000000 0.000000 0.000000 0.000000 0.000000 0.117878
#
#
# Mechanical properties :
#
#
# Convention : Reuss Voigt Hill
#
# Bulk Modulus (GPa) = 20.69362 24.16473 22.42918
# Shear Modulus (GPa) = 9.43502 14.19237 11.81370
#
# Velocity S-wave (km/s) = 2.23973 2.74695 2.50620
# Velocity P-wave (km/s) = 4.20604 4.78631 4.50553
#
# Compressibility (1/GPa) = 0.04832408
#
# Stress axis : x y z
#
# Youngs Moduli (GPa) = 13.92056 18.06036 28.28069
#
# Poissons Ratio (x) = 0.53672 0.92289
# Poissons Ratio (y) = 0.41369 -0.14792
# Poissons Ratio (z) = 0.45427 -0.09447
#
# Static dielectric constant tensor:
#      x y z
#    x 1.661720 0.000000 0.000000 
#    y 0.000000 1.633500 0.000000 
#    z 0.000000 0.000000 1.631010 
# 
# From -- ./inp_files/6846.got.cif
#   From: 2010.05.17/outbox.cif.g08.bks.cpg/sg63_4_cif.got.tgz:6846.got - 2010.06.03 15:47:04.
