data_PCOD9469031
_publ_section_title
;
Structure prediction by ZEFSAII (Michael W. Deem and Ramdas Pophale) SiO2 
 PCOD9469031
Probable space group: C M C M
;
_chemical_formula_sum "Si O2"
_cell_formula_units_Z 96
_cell_length_a 23.436619
_cell_length_b 22.592262
_cell_length_c 9.167838
_cell_angle_alpha 90.000000
_cell_angle_beta 90.000000
_cell_angle_gamma 90.000000
_cell_volume 4854.244043
_symmetry_space_group_name_H-M "C M C M"
_symmetry_group_IT_number 63
_symmetry_cell_setting 'orthorhombic'
loop_
_space_group_symop_operation_xyz
x,y,z
-x,-y,1/2+z
x,-y,-z
-x,y,1/2-z
-x,-y,-z
x,y,1/2-z
-x,y,z
x,-y,1/2+z
1/2+x,1/2+y,z
1/2-x,1/2-y,1/2+z
1/2+x,1/2-y,-z
1/2-x,1/2+y,1/2-z
1/2-x,1/2-y,-z
1/2+x,1/2+y,1/2-z
1/2-x,1/2+y,z
1/2+x,1/2-y,1/2+z
loop_
_atom_site_type_symbol
_atom_site_label
_atom_site_fract_x
_atom_site_fract_y
_atom_site_fract_z
Si Si1 0.874547 0.762511 0.920291
Si Si2 0.666864 0.152295 0.424755
Si Si3 0.000000 0.097697 0.577073
Si Si4 0.500000 0.722742 0.420247
Si Si5 0.115186 0.901823 0.575149
Si Si6 0.759746 0.058685 0.075085
Si Si7 0.434247 0.063340 0.074472
O O1 0.859904 0.758817 0.750000
O O2 0.940949 0.743617 0.940125
O O3 0.874636 0.831985 0.959358
O O4 0.836645 0.717376 0.009218
O O5 0.665857 0.156941 0.250000
O O6 0.722991 0.115745 0.467758
O O7 0.612265 0.112274 0.469523
O O8 0.940994 0.075246 0.506648
O O9 0.000000 0.090711 0.750000
O O10 0.000000 0.166866 0.527757
O O11 0.500000 0.700688 0.250000
O O12 0.106142 0.905765 0.750000
O O13 0.174021 0.933297 0.535889
O O14 0.755886 0.053060 0.250000
O O15 0.736390 0.000000 0.000000
O O16 0.430129 0.056475 0.250000
O O17 0.500000 0.080113 0.039909
O O18 0.422847 0.000000 0.000000
#
# Coordination Sequence:
#
# PCOD9469031 Si02
#       7
#    16  16   8   8  16  16  16
#     4   9  18  32  52  78 107 145 185 220 263 326
#     4  10  21  34  50  77 111 143 180 228 279 321
#     4  10  18  30  55  89 114 135 172 218 263 318
#     4   8  16  32  50  73 112 153 184 216 265 322
#     4   9  19  38  59  79 112 150 179 215 273 332
#     4  10  22  40  60  80 105 143 186 230 278 329
#     4   9  18  32  48  68  98 137 179 226 275 316
#
# _framework density 19.776508
#
# number of rings (size 3 to 8) (size 9 to 14) (size 15 to 20)
#    0.000    2.667    0.000    2.250    1.167    5.333 
#    0.000    0.417    0.000    0.000    0.000    0.000 
#    0.000    0.000    0.000    0.000    0.000    0.000 
#
# Total GULP energy -267776.191367 kJ/mol
# GULP energy per Si atom -5578.670653 kJ/mol
# Density = 1.973150 g / cm^3
# Si number density = 19.776508 Si / 1000 Ang^3
#
#
#
# Elastic Constant Matrix: (Units=GPa)
#
#
# Indices 1 2 3 4 5 6 
#
# 1 78.5333 25.8030 31.3935 0.0000 0.0000 0.0000
# 2 25.8030 63.8860 23.7908 0.0000 0.0000 0.0000
# 3 31.3935 23.7908 21.9743 0.0000 0.0000 0.0000
# 4 0.0000 0.0000 0.0000 15.7590 0.0000 0.0000
# 5 0.0000 0.0000 0.0000 0.0000 16.7465 0.0000
# 6 0.0000 0.0000 0.0000 0.0000 0.0000 23.7881
#
#
#
# Elastic Compliance Matrix: (Units=1/GPa)
#
#
# Indices 1 2 3 4 5 6 
#
# 1 0.031323 0.006725 -0.052029 0.000000 0.000000 0.000000
# 2 0.006725 0.027671 -0.039565 0.000000 0.000000 0.000000
# 3 -0.052029 -0.039565 0.162674 0.000000 0.000000 0.000000
# 4 0.000000 0.000000 0.000000 0.063456 0.000000 0.000000
# 5 0.000000 0.000000 0.000000 0.000000 0.059714 0.000000
# 6 0.000000 0.000000 0.000000 0.000000 0.000000 0.042038
#
#
# Mechanical properties :
#
#
# Convention : Reuss Voigt Hill
#
# Bulk Modulus (GPa) = 19.25732 36.26315 27.76023
# Shear Modulus (GPa) = 8.71195 16.81916 12.76555
#
# Velocity S-wave (km/s) = 2.10113 2.91943 2.54341
# Velocity P-wave (km/s) = 3.95537 5.45347 4.76368
#
# Compressibility (1/GPa) = 0.05192830
#
# Stress axis : x y z
#
# Youngs Moduli (GPa) = 31.92583 36.13923 6.14724
#
# Poissons Ratio (x) = -0.24302 0.31984
# Poissons Ratio (y) = -0.21469 0.24322
# Poissons Ratio (z) = 1.66108 1.42985
#
# Static dielectric constant tensor:
#      x y z
#    x 1.732260 0.000000 0.000000 
#    y 0.000000 1.680840 0.000000 
#    z 0.000000 0.000000 1.659580 
# 
# From -- ./inp_files/10558.got.cif
#   From: 2010.05.17/outbox.cif.g08.bks.cpg/sg63_6_cif.got.tgz:10558.got - 2010.06.03 15:47:04.
