data_PCOD9469847
_publ_section_title
;
Structure prediction by ZEFSAII (Michael W. Deem and Ramdas Pophale) SiO2 
 PCOD9469847
Probable space group: C M C M
;
_chemical_formula_sum "Si O2"
_cell_formula_units_Z 120
_cell_length_a 18.372399
_cell_length_b 31.219998
_cell_length_c 12.338729
_cell_angle_alpha 90.000000
_cell_angle_beta 90.000000
_cell_angle_gamma 90.000000
_cell_volume 7077.325421
_symmetry_space_group_name_H-M "C M C M"
_symmetry_group_IT_number 63
_symmetry_cell_setting 'orthorhombic'
loop_
_space_group_symop_operation_xyz
x,y,z
-x,-y,1/2+z
x,-y,-z
-x,y,1/2-z
-x,-y,-z
x,y,1/2-z
-x,y,z
x,-y,1/2+z
1/2+x,1/2+y,z
1/2-x,1/2-y,1/2+z
1/2+x,1/2-y,-z
1/2-x,1/2+y,1/2-z
1/2-x,1/2-y,-z
1/2+x,1/2+y,1/2-z
1/2-x,1/2+y,z
1/2+x,1/2-y,1/2+z
loop_
_atom_site_type_symbol
_atom_site_label
_atom_site_fract_x
_atom_site_fract_y
_atom_site_fract_z
Si Si1 0.226880 0.079354 0.618579
Si Si2 0.776418 0.296953 0.868753
Si Si3 0.085752 0.711928 0.629483
Si Si4 0.917034 0.555387 0.378323
Si Si5 0.852703 0.219346 0.969001
Si Si6 0.417291 0.631483 0.619697
Si Si7 0.150014 0.366348 0.503858
Si Si8 0.702156 0.000000 0.000000
O O1 0.234519 0.078376 0.750000
O O2 0.146061 0.097281 0.591652
O O3 0.285015 0.111455 0.563274
O O4 0.248189 0.034008 0.564682
O O5 0.743098 0.298170 0.750000
O O6 0.825213 0.254162 0.881395
O O7 0.718328 0.295510 0.965145
O O8 0.821877 0.339558 0.892754
O O9 0.117347 0.717053 0.750000
O O10 0.102744 0.752585 0.555055
O O11 0.116092 0.669510 0.573377
O O12 0.000000 0.707444 0.637036
O O13 0.909391 0.564335 0.250000
O O14 0.903875 0.597462 0.451543
O O15 0.853271 0.523457 0.416855
O O16 0.000000 0.539389 0.395294
O O17 0.893866 0.178189 0.924068
O O18 0.417643 0.633943 0.750000
O O19 0.500000 0.620986 0.583976
#
# Coordination Sequence:
#
# PCOD9469847 Si02
#       8
#    16  16  16  16  16  16  16   8
#     4  10  20  36  57  80 103 130 167 212 260 314
#     4  10  19  30  47  73 103 136 177 217 254 295
#     4  10  20  32  47  70 103 143 181 216 255 299
#     4  10  20  34  53  78 108 139 171 210 253 302
#     4  10  19  32  48  72 102 140 176 216 259 297
#     4  10  20  35  56  80 104 133 171 216 265 313
#     4  10  19  33  51  75 102 138 177 214 253 295
#     4  10  21  36  57  80 106 134 168 202 261 316
#
# _framework density 16.955558
#
# number of rings (size 3 to 8) (size 9 to 14) (size 15 to 20)
#    0.000    2.000    1.333    3.000    0.000    0.000 
#    0.000    0.333    0.000   12.800    0.000    0.000 
#    0.000    0.000    0.000    0.000    0.000    0.000 
#
# Total GULP energy -334403.548861 kJ/mol
# GULP energy per Si atom -5573.392481 kJ/mol
# Density = 1.691697 g / cm^3
# Si number density = 16.955558 Si / 1000 Ang^3
#
#
#
# Elastic Constant Matrix: (Units=GPa)
#
#
# Indices 1 2 3 4 5 6 
#
# 1 98.8281 53.4760 28.8494 0.0000 0.0000 0.0000
# 2 53.4760 103.7004 30.1218 0.0000 0.0000 0.0000
# 3 28.8494 30.1218 68.9925 0.0000 0.0000 0.0000
# 4 0.0000 0.0000 0.0000 -1.9784 0.0000 0.0000
# 5 0.0000 0.0000 0.0000 0.0000 13.4677 0.0000
# 6 0.0000 0.0000 0.0000 0.0000 0.0000 16.9662
#
#
#
# Elastic Compliance Matrix: (Units=1/GPa)
#
#
# Indices 1 2 3 4 5 6 
#
# 1 0.014640 -0.006609 -0.003236 0.000000 0.000000 0.000000
# 2 -0.006609 0.014028 -0.003361 0.000000 0.000000 0.000000
# 3 -0.003236 -0.003361 0.017315 0.000000 0.000000 0.000000
# 4 0.000000 0.000000 0.000000 -0.505449 0.000000 0.000000
# 5 0.000000 0.000000 0.000000 0.000000 0.074252 0.000000
# 6 0.000000 0.000000 0.000000 0.000000 0.000000 0.058941
#
#
# Mechanical properties :
#
#
# Convention : Reuss Voigt Hill
#
# Bulk Modulus (GPa) = 51.09885 55.15729 53.12807
# Shear Modulus (GPa) = -17.04513 16.29600 -0.37457
#
# Velocity S-wave (km/s) = -3.17406 3.10353 -0.47052
# Velocity P-wave (km/s) = 4.09506 6.74119 5.57733
#
# Compressibility (1/GPa) = 0.01956991
#
# Stress axis : x y z
#
# Youngs Moduli (GPa) = 68.30819 71.28784 57.75432
#
# Poissons Ratio (x) = 0.47117 0.18689
# Poissons Ratio (y) = 0.45147 0.19409
# Poissons Ratio (z) = 0.22104 0.23958
#
# Static dielectric constant tensor:
#      x y z
#    x 1.588050 0.000000 0.000000 
#    y 0.000000 1.570260 0.000000 
#    z 0.000000 0.000000 1.568190 
# 
# From -- ./inp_files/23242.got.cif
#   From: 2010.05.17/outbox.cif.g08.bks.cpg/sg63_12_cif.got.tgz:23242.got - 2010.06.03 15:47:04.
