data_PCOD9469805
_publ_section_title
;
Structure prediction by ZEFSAII (Michael W. Deem and Ramdas Pophale) SiO2 
 PCOD9469805
Probable space group: C M C M
;
_chemical_formula_sum "Si O2"
_cell_formula_units_Z 112
_cell_length_a 12.311123
_cell_length_b 28.848803
_cell_length_c 19.010802
_cell_angle_alpha 90.000000
_cell_angle_beta 90.000000
_cell_angle_gamma 90.000000
_cell_volume 6751.898531
_symmetry_space_group_name_H-M "C M C M"
_symmetry_group_IT_number 63
_symmetry_cell_setting 'orthorhombic'
loop_
_space_group_symop_operation_xyz
x,y,z
-x,-y,1/2+z
x,-y,-z
-x,y,1/2-z
-x,-y,-z
x,y,1/2-z
-x,y,z
x,-y,1/2+z
1/2+x,1/2+y,z
1/2-x,1/2-y,1/2+z
1/2+x,1/2-y,-z
1/2-x,1/2+y,1/2-z
1/2-x,1/2-y,-z
1/2+x,1/2+y,1/2-z
1/2-x,1/2+y,z
1/2+x,1/2-y,1/2+z
loop_
_atom_site_type_symbol
_atom_site_label
_atom_site_fract_x
_atom_site_fract_y
_atom_site_fract_z
Si Si1 0.131223 0.043936 0.416645
Si Si2 0.218729 0.206001 0.429952
Si Si3 0.130692 0.871587 0.671705
Si Si4 0.742283 0.355913 0.166628
Si Si5 0.875854 0.695229 0.947087
Si Si6 0.132000 0.937273 0.077325
Si Si7 0.626884 0.739168 0.671964
O O1 0.169458 0.078819 0.356889
O O2 0.159442 0.064094 0.493848
O O3 0.000000 0.043164 0.416805
O O4 0.162083 0.990605 0.404601
O O5 0.164865 0.166973 0.383398
O O6 0.136027 0.248595 0.443001
O O7 0.278886 0.184722 0.497672
O O8 0.312695 0.231173 0.385705
O O9 0.171064 0.861683 0.750000
O O10 0.000000 0.872876 0.673819
O O11 0.763330 0.364744 0.250000
O O12 0.842442 0.331747 0.124483
O O13 0.696019 0.400364 0.124870
O O14 0.652233 0.315100 0.162672
O O15 0.000000 0.683881 0.966898
O O16 0.000000 0.931274 0.084904
O O17 0.668206 0.751604 0.750000
O O18 0.500000 0.747305 0.668589
#
# Coordination Sequence:
#
# PCOD9469805 Si02
#       7
#    16  16  16  16  16  16  16
#     4   8  16  29  45  69  99 130 161 192 231 280
#     4  10  19  32  50  70  92 124 165 197 231 283
#     4  10  19  30  46  71 103 133 157 185 226 279
#     4  10  20  31  46  70  96 126 162 195 238 293
#     4  10  21  35  50  69  93 122 159 205 246 280
#     4   9  16  29  49  71  99 131 160 194 236 282
#     4   9  17  29  44  66  97 126 155 195 235 272
#
# _framework density 16.587927000000001
#
# number of rings (size 3 to 8) (size 9 to 14) (size 15 to 20)
#    0.000    2.571    0.000    3.429    0.000    2.286 
#    0.000    5.714    0.000    0.000    0.000    9.000 
#    0.000    0.000    0.000    0.000    0.000    0.000 
#
# Total GULP energy -311769.819378 kJ/mol
# GULP energy per Si atom -5567.318203 kJ/mol
# Density = 1.655017 g / cm^3
# Si number density = 16.587927 Si / 1000 Ang^3
#
#
#
# Elastic Constant Matrix: (Units=GPa)
#
#
# Indices 1 2 3 4 5 6 
#
# 1 35.6922 13.7845 21.0726 0.0000 0.0000 0.0000
# 2 13.7845 65.5590 36.4860 0.0000 0.0000 0.0000
# 3 21.0726 36.4860 84.2155 0.0000 0.0000 0.0000
# 4 0.0000 0.0000 0.0000 26.5127 0.0000 0.0000
# 5 0.0000 0.0000 0.0000 0.0000 19.3749 0.0000
# 6 0.0000 0.0000 0.0000 0.0000 0.0000 7.4521
#
#
#
# Elastic Compliance Matrix: (Units=1/GPa)
#
#
# Indices 1 2 3 4 5 6 
#
# 1 0.033351 -0.003120 -0.006993 0.000000 0.000000 0.000000
# 2 -0.003120 0.020392 -0.008054 0.000000 0.000000 0.000000
# 3 -0.006993 -0.008054 0.017113 0.000000 0.000000 0.000000
# 4 0.000000 0.000000 0.000000 0.037718 0.000000 0.000000
# 5 0.000000 0.000000 0.000000 0.000000 0.051613 0.000000
# 6 0.000000 0.000000 0.000000 0.000000 0.000000 0.134191
#
#
# Mechanical properties :
#
#
# Convention : Reuss Voigt Hill
#
# Bulk Modulus (GPa) = 28.96758 36.46143 32.71450
# Shear Modulus (GPa) = 14.61046 18.27618 16.44332
#
# Velocity S-wave (km/s) = 2.97103 3.32290 3.15188
# Velocity P-wave (km/s) = 5.41020 6.06223 5.74548
#
# Compressibility (1/GPa) = 0.03452135
#
# Stress axis : x y z
#
# Youngs Moduli (GPa) = 29.98388 49.03933 58.43345
#
# Poissons Ratio (x) = 0.15302 0.40864
# Poissons Ratio (y) = 0.09356 0.47061
# Poissons Ratio (z) = 0.20969 0.39496
#
# Static dielectric constant tensor:
#      x y z
#    x 1.531950 0.000000 0.000000 
#    y 0.000000 1.560310 0.000000 
#    z 0.000000 0.000000 1.610330 
# 
# From -- ./inp_files/53372.got.cif
#   From: 2010.05.17/outbox.cif.g08.bks.cpg/sg63_27_cif.got.tgz:53372.got - 2010.06.03 15:47:04.
