data_PCOD9469074
_publ_section_title
;
Structure prediction by ZEFSAII (Michael W. Deem and Ramdas Pophale) SiO2 
 PCOD9469074
Probable space group: C M C M
;
_chemical_formula_sum "Si O2"
_cell_formula_units_Z 80
_cell_length_a 8.627842
_cell_length_b 26.911865
_cell_length_c 19.201911
_cell_angle_alpha 90.000000
_cell_angle_beta 90.000000
_cell_angle_gamma 90.000000
_cell_volume 4458.517045
_symmetry_space_group_name_H-M "C M C M"
_symmetry_group_IT_number 63
_symmetry_cell_setting 'orthorhombic'
loop_
_space_group_symop_operation_xyz
x,y,z
-x,-y,1/2+z
x,-y,-z
-x,y,1/2-z
-x,-y,-z
x,y,1/2-z
-x,y,z
x,-y,1/2+z
1/2+x,1/2+y,z
1/2-x,1/2-y,1/2+z
1/2+x,1/2-y,-z
1/2-x,1/2+y,1/2-z
1/2-x,1/2-y,-z
1/2+x,1/2+y,1/2-z
1/2-x,1/2+y,z
1/2+x,1/2-y,1/2+z
loop_
_atom_site_type_symbol
_atom_site_label
_atom_site_fract_x
_atom_site_fract_y
_atom_site_fract_z
Si Si1 0.686433 0.855053 0.924055
Si Si2 0.684858 0.748433 0.420914
Si Si3 0.188843 0.552586 0.170018
Si Si4 0.183304 0.148903 0.580407
Si Si5 0.816342 0.441052 0.166546
O O1 0.500000 0.852810 0.925210
O O2 0.750513 0.803499 0.892290
O O3 0.737502 0.902853 0.879892
O O4 0.746432 0.858906 0.003211
O O5 0.500000 0.747749 0.422112
O O6 0.750000 0.750000 0.500000
O O7 0.744848 0.800015 0.389147
O O8 0.238717 0.560434 0.250000
O O9 0.235286 0.497052 0.147233
O O10 0.000000 0.552177 0.170546
O O11 0.226247 0.101912 0.627169
O O12 0.000000 0.155265 0.574124
O O13 0.799606 0.436902 0.250000
O O14 0.000000 0.436272 0.150515
#
# Coordination Sequence:
#
# PCOD9469074 Si02
#       5
#    16  16  16  16  16
#     4  10  18  31  53  78 103 131 166 207 251 299
#     4  10  18  31  50  72 100 132 167 206 252 299
#     4   8  16  32  54  77 100 130 167 205 247 297
#     4  11  21  33  50  74 104 134 168 207 248 297
#     4   9  18  35  56  75  98 130 168 208 250 296
#
# _framework density 17.943186000000001
#
# number of rings (size 3 to 8) (size 9 to 14) (size 15 to 20)
#    0.000    2.400    0.000    7.800    0.000    1.200 
#    0.000    7.000    0.000    8.400    0.000    0.000 
#    0.000    0.000    0.000    0.000    0.000    0.000 
#
# Total GULP energy -223056.506989 kJ/mol
# GULP energy per Si atom -5576.412675 kJ/mol
# Density = 1.790235 g / cm^3
# Si number density = 17.943186 Si / 1000 Ang^3
#
#
#
# Elastic Constant Matrix: (Units=GPa)
#
#
# Indices 1 2 3 4 5 6 
#
# 1 99.9221 57.5964 24.1402 0.0000 0.0000 0.0000
# 2 57.5964 184.9115 51.3428 0.0000 0.0000 0.0000
# 3 24.1402 51.3428 25.3770 0.0000 0.0000 0.0000
# 4 0.0000 0.0000 0.0000 -109.1053 0.0000 0.0000
# 5 0.0000 0.0000 0.0000 0.0000 8.8697 0.0000
# 6 0.0000 0.0000 0.0000 0.0000 0.0000 29.7038
#
#
#
# Elastic Compliance Matrix: (Units=1/GPa)
#
#
# Indices 1 2 3 4 5 6 
#
# 1 0.013156 -0.001422 -0.009639 0.000000 0.000000 0.000000
# 2 -0.001422 0.012494 -0.023925 0.000000 0.000000 0.000000
# 3 -0.009639 -0.023925 0.096981 0.000000 0.000000 0.000000
# 4 0.000000 0.000000 0.000000 -0.009165 0.000000 0.000000
# 5 0.000000 0.000000 0.000000 0.000000 0.112744 0.000000
# 6 0.000000 0.000000 0.000000 0.000000 0.000000 0.033666
#
#
# Mechanical properties :
#
#
# Convention : Reuss Voigt Hill
#
# Bulk Modulus (GPa) = 18.99008 64.04105 41.51557
# Shear Modulus (GPa) = 14.39270 -2.29762 6.04754
#
# Velocity S-wave (km/s) = 2.83526 -1.13282 1.83785
# Velocity P-wave (km/s) = 4.61786 5.83588 5.26223
#
# Compressibility (1/GPa) = 0.05265906
#
# Stress axis : x y z
#
# Youngs Moduli (GPa) = 76.01229 80.03877 10.31135
#
# Poissons Ratio (x) = 0.11378 0.09939
# Poissons Ratio (y) = 0.10805 0.24670
# Poissons Ratio (z) = 0.73265 1.91497
#
# Static dielectric constant tensor:
#      x y z
#    x 1.607750 0.000000 0.000000 
#    y 0.000000 1.652790 0.000000 
#    z 0.000000 0.000000 1.598550 
# 
# From -- ./inp_files/40453.got.cif
#   From: 2010.05.17/outbox.cif.g08.bks.cpg/sg63_21_cif.got.tgz:40453.got - 2010.06.03 15:47:04.
