data_PCOD9469375
_publ_section_title
;
Structure prediction by ZEFSAII (Michael W. Deem and Ramdas Pophale) SiO2 
 PCOD9469375
Probable space group: C M C M
;
_chemical_formula_sum "Si O2"
_cell_formula_units_Z 80
_cell_length_a 7.992316
_cell_length_b 20.739218
_cell_length_c 28.209253
_cell_angle_alpha 90.000000
_cell_angle_beta 90.000000
_cell_angle_gamma 90.000000
_cell_volume 4675.807350
_symmetry_space_group_name_H-M "C M C M"
_symmetry_group_IT_number 63
_symmetry_cell_setting 'orthorhombic'
loop_
_space_group_symop_operation_xyz
x,y,z
-x,-y,1/2+z
x,-y,-z
-x,y,1/2-z
-x,-y,-z
x,y,1/2-z
-x,y,z
x,-y,1/2+z
1/2+x,1/2+y,z
1/2-x,1/2-y,1/2+z
1/2+x,1/2-y,-z
1/2-x,1/2+y,1/2-z
1/2-x,1/2-y,-z
1/2+x,1/2+y,1/2-z
1/2-x,1/2+y,z
1/2+x,1/2-y,1/2+z
loop_
_atom_site_type_symbol
_atom_site_label
_atom_site_fract_x
_atom_site_fract_y
_atom_site_fract_z
Si Si1 0.000000 0.642133 0.695427
Si Si2 0.000000 0.485627 0.696392
Si Si3 0.192621 0.311478 0.029864
Si Si4 0.199880 0.935069 0.973854
Si Si5 0.693056 0.515075 0.369764
Si Si6 0.811151 0.139440 0.628953
O O1 0.000000 0.563900 0.697552
O O2 0.833652 0.659722 0.665650
O O3 0.000000 0.665270 0.750000
O O4 0.832336 0.466953 0.668438
O O5 0.000000 0.461774 0.750000
O O6 0.290243 0.325359 0.078587
O O7 0.000000 0.303591 0.043317
O O8 0.250000 0.250000 0.000000
O O9 0.214092 0.373480 0.996284
O O10 0.224391 0.946523 0.918230
O O11 0.000000 0.928420 0.982371
O O12 0.256834 0.000000 0.000000
O O13 0.500000 0.525684 0.354887
O O14 0.708974 0.437935 0.379773
O O15 0.000000 0.149280 0.647189
#
# Coordination Sequence:
#
# PCOD9469375 Si02
#       6
#     8   8  16  16  16  16
#     4   9  18  32  49  77 107 139 183 226 274 321
#     4   9  18  30  46  72 108 138 176 228 271 319
#     4  12  24  36  52  78 114 150 183 225 276 333
#     4  10  19  33  53  78 108 143 181 220 262 325
#     4   9  18  30  50  76 105 140 178 220 266 319
#     4  10  18  33  52  75 109 145 177 220 272 321
#
# _framework density 17.109345999999999
#
# number of rings (size 3 to 8) (size 9 to 14) (size 15 to 20)
#    0.000    2.000    3.000    1.800    1.400    1.200 
#    0.000    4.000    0.000    0.000    0.000    1.400 
#    0.000    0.000    0.000    0.000    0.000    0.000 
#
# Total GULP energy -223128.910733 kJ/mol
# GULP energy per Si atom -5578.222768 kJ/mol
# Density = 1.707040 g / cm^3
# Si number density = 17.109346 Si / 1000 Ang^3
#
#
#
# Elastic Constant Matrix: (Units=GPa)
#
#
# Indices 1 2 3 4 5 6 
#
# 1 111.8227 19.0852 71.9818 0.0000 0.0000 0.0000
# 2 19.0852 50.3694 26.0224 0.0000 0.0000 0.0000
# 3 71.9818 26.0224 113.5850 0.0000 0.0000 0.0000
# 4 0.0000 0.0000 0.0000 10.7435 0.0000 0.0000
# 5 0.0000 0.0000 0.0000 0.0000 23.3891 0.0000
# 6 0.0000 0.0000 0.0000 0.0000 0.0000 18.2868
#
#
#
# Elastic Compliance Matrix: (Units=1/GPa)
#
#
# Indices 1 2 3 4 5 6 
#
# 1 0.015139 -0.000884 -0.009391 0.000000 0.000000 0.000000
# 2 -0.000884 0.022570 -0.004610 0.000000 0.000000 0.000000
# 3 -0.009391 -0.004610 0.015812 0.000000 0.000000 0.000000
# 4 0.000000 0.000000 0.000000 0.093079 0.000000 0.000000
# 5 0.000000 0.000000 0.000000 0.000000 0.042755 0.000000
# 6 0.000000 0.000000 0.000000 0.000000 0.000000 0.054684
#
#
# Mechanical properties :
#
#
# Convention : Reuss Voigt Hill
#
# Bulk Modulus (GPa) = 42.10744 56.66176 49.38460
# Shear Modulus (GPa) = 17.74761 21.06307 19.40534
#
# Velocity S-wave (km/s) = 3.22422 3.51249 3.37144
# Velocity P-wave (km/s) = 6.20685 7.04553 6.63944
#
# Compressibility (1/GPa) = 0.02374877
#
# Stress axis : x y z
#
# Youngs Moduli (GPa) = 66.05440 44.30598 63.24388
#
# Poissons Ratio (x) = 0.03918 0.59395
# Poissons Ratio (y) = 0.05842 0.29158
# Poissons Ratio (z) = 0.62034 0.20427
#
# Static dielectric constant tensor:
#      x y z
#    x 1.603620 0.000000 0.000000 
#    y 0.000000 1.552640 0.000000 
#    z 0.000000 0.000000 1.583500 
# 
# From -- ./inp_files/66677.got.cif
#   From: 2010.05.17/outbox.cif.g08.bks.cpg/sg63_34_cif.got.tgz:66677.got - 2010.06.03 15:47:04.
