data_PCOD9469814
_publ_section_title
;
Structure prediction by ZEFSAII (Michael W. Deem and Ramdas Pophale) SiO2 
 PCOD9469814
Probable space group: C M C M
;
_chemical_formula_sum "Si O2"
_cell_formula_units_Z 88
_cell_length_a 23.338360
_cell_length_b 6.295712
_cell_length_c 26.285787
_cell_angle_alpha 90.000000
_cell_angle_beta 90.000000
_cell_angle_gamma 90.000000
_cell_volume 3862.212560
_symmetry_space_group_name_H-M "C M C M"
_symmetry_group_IT_number 63
_symmetry_cell_setting 'orthorhombic'
loop_
_space_group_symop_operation_xyz
x,y,z
-x,-y,1/2+z
x,-y,-z
-x,y,1/2-z
-x,-y,-z
x,y,1/2-z
-x,y,z
x,-y,1/2+z
1/2+x,1/2+y,z
1/2-x,1/2-y,1/2+z
1/2+x,1/2-y,-z
1/2-x,1/2+y,1/2-z
1/2-x,1/2-y,-z
1/2+x,1/2+y,1/2-z
1/2-x,1/2+y,z
1/2+x,1/2-y,1/2+z
loop_
_atom_site_type_symbol
_atom_site_label
_atom_site_fract_x
_atom_site_fract_y
_atom_site_fract_z
Si Si1 0.627728 0.828618 0.627477
Si Si2 0.567357 0.476048 0.810582
Si Si3 0.168977 0.957609 0.944981
Si Si4 0.935257 0.641222 0.550813
Si Si5 0.729773 0.596038 0.250000
Si Si6 0.172248 0.737091 0.848286
O O1 0.590558 0.698647 0.667853
O O2 0.657385 0.667706 0.588007
O O3 0.588250 0.979532 0.593158
O O4 0.672294 0.983643 0.656214
O O5 0.576612 0.456568 0.750000
O O6 0.500000 0.453288 0.820185
O O7 0.605459 0.306596 0.841056
O O8 0.108783 0.835662 0.955775
O O9 0.196966 0.800411 0.903330
O O10 0.196365 0.000000 0.000000
O O11 0.935235 0.500000 0.500000
O O12 0.000000 0.714123 0.561058
O O13 0.742598 0.340422 0.250000
O O14 0.698452 0.625158 0.196198
#
# Coordination Sequence:
#
# PCOD9469814 Si02
#       6
#    16  16  16  16   8  16
#     4  10  21  34  57  80 128 169 235 269 339 385
#     4  10  21  36  58  88 132 180 226 273 333 400
#     4  10  20  36  58  88 127 171 220 270 336 404
#     4  10  19  30  46  78 123 175 234 282 322 378
#     4  12  30  52  85 108 139 172 228 294 366 430
#     4  10  24  41  66  98 133 174 230 284 345 414
#
# _framework density 22.784869
#
# number of rings (size 3 to 8) (size 9 to 14) (size 15 to 20)
#    0.000    1.818    2.727    0.545    6.364    8.364 
#    0.000    1.818    0.000    1.091    0.000    0.000 
#    0.000    0.000    0.000    0.000    0.000    0.000 
#
# Total GULP energy -245413.813283 kJ/mol
# GULP energy per Si atom -5577.586666 kJ/mol
# Density = 2.273301 g / cm^3
# Si number density = 22.784869 Si / 1000 Ang^3
#
#
#
# Elastic Constant Matrix: (Units=GPa)
#
#
# Indices 1 2 3 4 5 6 
#
# 1 35.4631 14.3754 7.4477 0.0000 0.0000 0.0000
# 2 14.3754 111.4054 17.0793 0.0000 0.0000 0.0000
# 3 7.4477 17.0793 110.2514 0.0000 0.0000 0.0000
# 4 0.0000 0.0000 0.0000 36.1455 0.0000 0.0000
# 5 0.0000 0.0000 0.0000 0.0000 3.8449 0.0000
# 6 0.0000 0.0000 0.0000 0.0000 0.0000 10.2433
#
#
#
# Elastic Compliance Matrix: (Units=1/GPa)
#
#
# Indices 1 2 3 4 5 6 
#
# 1 0.029983 -0.003645 -0.001461 0.000000 0.000000 0.000000
# 2 -0.003645 0.009638 -0.001247 0.000000 0.000000 0.000000
# 3 -0.001461 -0.001247 0.009362 0.000000 0.000000 0.000000
# 4 0.000000 0.000000 0.000000 0.027666 0.000000 0.000000
# 5 0.000000 0.000000 0.000000 0.000000 0.260086 0.000000
# 6 0.000000 0.000000 0.000000 0.000000 0.000000 0.097625
#
#
# Mechanical properties :
#
#
# Convention : Reuss Voigt Hill
#
# Bulk Modulus (GPa) = 27.56537 37.21387 32.38962
# Shear Modulus (GPa) = 10.88952 24.59455 17.74203
#
# Velocity S-wave (km/s) = 2.18853 3.28902 2.79350
# Velocity P-wave (km/s) = 4.30239 5.54903 4.96499
#
# Compressibility (1/GPa) = 0.03627740
#
# Stress axis : x y z
#
# Youngs Moduli (GPa) = 33.35270 103.75927 106.81476
#
# Poissons Ratio (x) = 0.37819 0.15603
# Poissons Ratio (y) = 0.12157 0.13317
# Poissons Ratio (z) = 0.04872 0.12936
#
# Static dielectric constant tensor:
#      x y z
#    x 1.915200 0.000000 0.000000 
#    y 0.000000 1.866850 0.000000 
#    z 0.000000 0.000000 1.869030 
# 
# From -- ./inp_files/71048.got.cif
#   From: 2010.05.17/outbox.cif.g08.bks.cpg/sg63_36_cif.got.tgz:71048.got - 2010.06.03 15:47:04.
