data_PCOD9469243
_publ_section_title
;
Structure prediction by ZEFSAII (Michael W. Deem and Ramdas Pophale) SiO2 
 PCOD9469243
Probable space group: C M C M
;
_chemical_formula_sum "Si O2"
_cell_formula_units_Z 96
_cell_length_a 26.123698
_cell_length_b 26.107289
_cell_length_c 8.617754
_cell_angle_alpha 90.000000
_cell_angle_beta 90.000000
_cell_angle_gamma 90.000000
_cell_volume 5877.471392
_symmetry_space_group_name_H-M "C M C M"
_symmetry_group_IT_number 63
_symmetry_cell_setting 'orthorhombic'
loop_
_space_group_symop_operation_xyz
x,y,z
-x,-y,1/2+z
x,-y,-z
-x,y,1/2-z
-x,-y,-z
x,y,1/2-z
-x,y,z
x,-y,1/2+z
1/2+x,1/2+y,z
1/2-x,1/2-y,1/2+z
1/2+x,1/2-y,-z
1/2-x,1/2+y,1/2-z
1/2-x,1/2-y,-z
1/2+x,1/2+y,1/2-z
1/2-x,1/2+y,z
1/2+x,1/2-y,1/2+z
loop_
_atom_site_type_symbol
_atom_site_label
_atom_site_fract_x
_atom_site_fract_y
_atom_site_fract_z
Si Si1 0.807658 0.641834 0.562911
Si Si2 0.000000 0.442183 0.063145
Si Si3 0.192210 0.251061 0.935599
Si Si4 0.607355 0.442273 0.934736
Si Si5 0.687996 0.362416 0.062625
Si Si6 0.388127 0.057633 0.937714
Si Si7 0.000000 0.941940 0.064647
O O1 0.808053 0.644015 0.750000
O O2 0.829097 0.695959 0.501570
O O3 0.748109 0.634366 0.516908
O O4 0.843122 0.595153 0.510225
O O5 0.944486 0.421199 0.014944
O O6 0.000000 0.442983 0.250000
O O7 0.000000 0.500000 0.000000
O O8 0.193611 0.253554 0.750000
O O9 0.169688 0.195436 0.978310
O O10 0.250000 0.250000 0.000000
O O11 0.603544 0.445456 0.750000
O O12 0.614557 0.500000 0.000000
O O13 0.653459 0.405642 0.985861
O O14 0.553697 0.420522 0.002373
O O15 0.685447 0.367733 0.250000
O O16 0.386744 0.055370 0.750000
O O17 0.382386 0.000000 0.000000
O O18 0.000000 0.942187 0.250000
O O19 0.000000 0.000000 0.000000
#
# Coordination Sequence:
#
# PCOD9469243 Si02
#       7
#    16   8  16  16  16  16   8
#     4   9  18  31  47  68  96 125 156 193 236 284
#     4   8  14  26  44  63  86 117 156 193 229 271
#     4   9  17  30  49  69  91 120 157 195 232 276
#     4  11  21  33  50  72  97 125 157 192 231 278
#     4   9  18  32  47  67  94 123 155 192 232 277
#     4   9  17  29  45  67  93 123 156 194 236 279
#     4  10  18  32  52  71  94 123 156 193 229 271
#
# _framework density 16.333555
#
# number of rings (size 3 to 8) (size 9 to 14) (size 15 to 20)
#    0.000    2.667    0.000    4.750    0.000    4.667 
#    0.000    1.667    0.000    1.000    0.000    3.500 
#    0.000    0.000    0.000    0.000    0.000    0.000 
#
# Total GULP energy -267202.936963 kJ/mol
# GULP energy per Si atom -5566.727853 kJ/mol
# Density = 1.629638 g / cm^3
# Si number density = 16.333555 Si / 1000 Ang^3
#
#
#
# Elastic Constant Matrix: (Units=GPa)
#
#
# Indices 1 2 3 4 5 6 
#
# 1 106.1815 68.4622 34.8220 0.0000 0.0000 0.0000
# 2 68.4622 108.0794 32.5816 0.0000 0.0000 0.0000
# 3 34.8220 32.5816 53.6398 0.0000 0.0000 0.0000
# 4 0.0000 0.0000 0.0000 26.2006 0.0000 0.0000
# 5 0.0000 0.0000 0.0000 0.0000 19.5832 0.0000
# 6 0.0000 0.0000 0.0000 0.0000 0.0000 -1.5720
#
#
#
# Elastic Compliance Matrix: (Units=1/GPa)
#
#
# Indices 1 2 3 4 5 6 
#
# 1 0.017175 -0.009204 -0.005559 0.000000 0.000000 0.000000
# 2 -0.009204 0.016258 -0.003901 0.000000 0.000000 0.000000
# 3 -0.005559 -0.003901 0.024621 0.000000 0.000000 0.000000
# 4 0.000000 0.000000 0.000000 0.038167 0.000000 0.000000
# 5 0.000000 0.000000 0.000000 0.000000 0.051064 0.000000
# 6 0.000000 0.000000 0.000000 0.000000 0.000000 -0.636152
#
#
# Mechanical properties :
#
#
# Convention : Reuss Voigt Hill
#
# Bulk Modulus (GPa) = 48.24550 59.95914 54.10232
# Shear Modulus (GPa) = -11.24532 17.64470 3.19969
#
# Velocity S-wave (km/s) = -2.62674 3.29032 1.40115
# Velocity P-wave (km/s) = 4.51687 7.15708 5.98439
#
# Compressibility (1/GPa) = 0.02072732
#
# Stress axis : x y z
#
# Youngs Moduli (GPa) = 58.22346 61.50699 40.61519
#
# Poissons Ratio (x) = 0.56608 0.22580
# Poissons Ratio (y) = 0.53586 0.15843
# Poissons Ratio (z) = 0.32369 0.23992
#
# Static dielectric constant tensor:
#      x y z
#    x 1.570890 0.000000 0.000000 
#    y 0.000000 1.520540 0.000000 
#    z 0.000000 0.000000 1.550750 
# 
# From -- ./inp_files/10763.got.cif
#   From: 2010.05.17/outbox.cif.g08.bks.cpg/sg63_6_cif.got.tgz:10763.got - 2010.06.03 15:47:04.
