data_PCOD9469656
_publ_section_title
;
Structure prediction by ZEFSAII (Michael W. Deem and Ramdas Pophale) SiO2 
 PCOD9469656
Probable space group: C M C M
;
_chemical_formula_sum "Si O2"
_cell_formula_units_Z 96
_cell_length_a 7.547956
_cell_length_b 24.942107
_cell_length_c 27.109552
_cell_angle_alpha 90.000000
_cell_angle_beta 90.000000
_cell_angle_gamma 90.000000
_cell_volume 5103.696477
_symmetry_space_group_name_H-M "C M C M"
_symmetry_group_IT_number 63
_symmetry_cell_setting 'orthorhombic'
loop_
_space_group_symop_operation_xyz
x,y,z
-x,-y,1/2+z
x,-y,-z
-x,y,1/2-z
-x,-y,-z
x,y,1/2-z
-x,y,z
x,-y,1/2+z
1/2+x,1/2+y,z
1/2-x,1/2-y,1/2+z
1/2+x,1/2-y,-z
1/2-x,1/2+y,1/2-z
1/2-x,1/2-y,-z
1/2+x,1/2+y,1/2-z
1/2-x,1/2+y,z
1/2+x,1/2-y,1/2+z
loop_
_atom_site_type_symbol
_atom_site_label
_atom_site_fract_x
_atom_site_fract_y
_atom_site_fract_z
Si Si1 0.716361 0.007806 0.617064
Si Si2 0.214523 0.577484 0.038051
Si Si3 0.295582 0.332489 0.883040
Si Si4 0.290957 0.920718 0.805241
Si Si5 0.216489 0.611891 0.569957
Si Si6 0.786420 0.733208 0.943204
O O1 0.500000 0.007593 0.618760
O O2 0.766777 0.975972 0.567090
O O3 0.780651 0.970195 0.661783
O O4 0.772447 0.069483 0.611796
O O5 0.279262 0.626621 0.071229
O O6 0.000000 0.578641 0.038332
O O7 0.271086 0.586464 0.982400
O O8 0.500000 0.322543 0.871584
O O9 0.224374 0.365936 0.836639
O O10 0.217015 0.277402 0.904412
O O11 0.217106 0.917102 0.750000
O O12 0.500000 0.930863 0.801091
O O13 0.276974 0.673358 0.569597
O O14 0.000000 0.613254 0.570672
O O15 0.000000 0.732995 0.939409
O O16 0.750000 0.750000 0.000000
#
# Coordination Sequence:
#
# PCOD9469656 Si02
#       6
#    16  16  16  16  16  16
#     4   8  14  24  42  68  90 108 141 188 230 267
#     4   9  15  25  43  64  88 120 154 183 214 260
#     4  10  19  29  43  67  96 123 152 186 224 264
#     4   9  18  33  53  72  86 107 146 194 238 278
#     4   9  15  24  41  64  91 122 151 182 220 260
#     4  10  19  29  43  64  93 129 162 185 212 260
#
# _framework density 18.809894
#
# number of rings (size 3 to 8) (size 9 to 14) (size 15 to 20)
#    0.000    2.833    1.667    2.000    0.000    3.000 
#    0.000    0.000    0.000   13.000    0.000    4.667 
#    0.000    0.000    0.000    0.000    0.000    0.000 
#
# Total GULP energy -267411.136105 kJ/mol
# GULP energy per Si atom -5571.065336 kJ/mol
# Density = 1.876708 g / cm^3
# Si number density = 18.809894 Si / 1000 Ang^3
#
#
#
# Elastic Constant Matrix: (Units=GPa)
#
#
# Indices 1 2 3 4 5 6 
#
# 1 41.3137 6.6990 3.3359 0.0000 0.0000 0.0000
# 2 6.6990 177.3791 84.8294 0.0000 0.0000 0.0000
# 3 3.3359 84.8294 119.2556 0.0000 0.0000 0.0000
# 4 0.0000 0.0000 0.0000 8.4290 0.0000 0.0000
# 5 0.0000 0.0000 0.0000 0.0000 4.7044 0.0000
# 6 0.0000 0.0000 0.0000 0.0000 0.0000 11.2819
#
#
#
# Elastic Compliance Matrix: (Units=1/GPa)
#
#
# Indices 1 2 3 4 5 6 
#
# 1 0.024354 -0.000900 -0.000041 0.000000 0.000000 0.000000
# 2 -0.000900 0.008578 -0.006076 0.000000 0.000000 0.000000
# 3 -0.000041 -0.006076 0.012709 0.000000 0.000000 0.000000
# 4 0.000000 0.000000 0.000000 0.118638 0.000000 0.000000
# 5 0.000000 0.000000 0.000000 0.000000 0.212566 0.000000
# 6 0.000000 0.000000 0.000000 0.000000 0.000000 0.088638
#
#
# Mechanical properties :
#
#
# Convention : Reuss Voigt Hill
#
# Bulk Modulus (GPa) = 31.63975 58.63078 45.13527
# Shear Modulus (GPa) = 10.20300 21.08866 15.64583
#
# Velocity S-wave (km/s) = 2.33153 3.35199 2.88720
# Velocity P-wave (km/s) = 4.90972 6.79845 5.92977
#
# Compressibility (1/GPa) = 0.03160581
#
# Stress axis : x y z
#
# Youngs Moduli (GPa) = 41.06046 116.58379 78.68652
#
# Poissons Ratio (x) = 0.10495 0.00322
# Poissons Ratio (y) = 0.03696 0.47812
# Poissons Ratio (z) = 0.00168 0.70839
#
# Static dielectric constant tensor:
#      x y z
#    x 1.717690 0.000000 0.000000 
#    y 0.000000 1.689300 0.000000 
#    z 0.000000 0.000000 1.637530 
# 
# From -- ./inp_files/67189.got.cif
#   From: 2010.05.17/outbox.cif.g08.bks.cpg/sg63_34_cif.got.tgz:67189.got - 2010.06.03 15:47:04.
