data_PCOD9469698
_publ_section_title
;
Structure prediction by ZEFSAII (Michael W. Deem and Ramdas Pophale) SiO2 
 PCOD9469698
Probable space group: C M C M
;
_chemical_formula_sum "Si O2"
_cell_formula_units_Z 112
_cell_length_a 25.442349
_cell_length_b 17.844213
_cell_length_c 14.838117
_cell_angle_alpha 90.000000
_cell_angle_beta 90.000000
_cell_angle_gamma 90.000000
_cell_volume 6736.485751
_symmetry_space_group_name_H-M "C M C M"
_symmetry_group_IT_number 63
_symmetry_cell_setting 'orthorhombic'
loop_
_space_group_symop_operation_xyz
x,y,z
-x,-y,1/2+z
x,-y,-z
-x,y,1/2-z
-x,-y,-z
x,y,1/2-z
-x,y,z
x,-y,1/2+z
1/2+x,1/2+y,z
1/2-x,1/2-y,1/2+z
1/2+x,1/2-y,-z
1/2-x,1/2+y,1/2-z
1/2-x,1/2-y,-z
1/2+x,1/2+y,1/2-z
1/2-x,1/2+y,z
1/2+x,1/2-y,1/2+z
loop_
_atom_site_type_symbol
_atom_site_label
_atom_site_fract_x
_atom_site_fract_y
_atom_site_fract_z
Si Si1 0.654892 0.729049 0.854752
Si Si2 0.097001 0.006621 0.853980
Si Si3 0.211503 0.056212 0.354407
Si Si4 0.436823 0.654840 0.952616
Si Si5 0.559710 0.345611 0.847414
Si Si6 0.250486 0.888082 0.148340
Si Si7 0.777315 0.672269 0.027184
O O1 0.656357 0.746233 0.750000
O O2 0.597399 0.705595 0.886620
O O3 0.695413 0.657828 0.867587
O O4 0.675726 0.800084 0.910223
O O5 0.102629 0.036192 0.750000
O O6 0.078284 0.070649 0.921253
O O7 0.152316 0.967935 0.879450
O O8 0.058490 0.936061 0.850511
O O9 0.210925 0.082487 0.250000
O O10 0.238228 0.117216 0.418379
O O11 0.241123 0.976638 0.357349
O O12 0.500000 0.662507 0.947478
O O13 0.418114 0.674233 0.054578
O O14 0.585087 0.325999 0.750000
O O15 0.500000 0.317330 0.845604
O O16 0.267171 0.868686 0.250000
O O17 0.289311 0.865242 0.068599
O O18 0.750000 0.750000 0.000000
#
# Coordination Sequence:
#
# PCOD9469698 Si02
#       7
#    16  16  16  16  16  16  16
#     4  10  20  35  49  70 104 134 168 215 261 306
#     4  10  19  29  46  70  96 124 167 219 259 298
#     4  10  19  32  51  74  97 130 172 216 263 311
#     4  11  21  32  51  73  97 137 179 214 258 306
#     4   9  19  32  42  59  89 122 163 216 260 293
#     4   9  18  33  51  72  97 126 165 216 263 305
#     4  10  21  32  48  70  96 139 169 207 254 315
#
# _framework density 16.625879000000001
#
# number of rings (size 3 to 8) (size 9 to 14) (size 15 to 20)
#    0.000    2.143    1.429    2.143    4.000    4.571 
#    0.000    0.714    0.000    0.000    0.000    0.000 
#    0.000    2.286    0.000    3.429    0.000    0.000 
#
# Total GULP energy -311936.191941 kJ/mol
# GULP energy per Si atom -5570.289142 kJ/mol
# Density = 1.658804 g / cm^3
# Si number density = 16.625879 Si / 1000 Ang^3
#
#
#
# Elastic Constant Matrix: (Units=GPa)
#
#
# Indices 1 2 3 4 5 6 
#
# 1 49.1469 27.0541 36.5304 0.0000 0.0000 0.0000
# 2 27.0541 46.1639 39.9236 0.0000 0.0000 0.0000
# 3 36.5304 39.9236 107.0763 0.0000 0.0000 0.0000
# 4 0.0000 0.0000 0.0000 29.3779 0.0000 0.0000
# 5 0.0000 0.0000 0.0000 0.0000 20.5221 0.0000
# 6 0.0000 0.0000 0.0000 0.0000 0.0000 17.6038
#
#
#
# Elastic Compliance Matrix: (Units=1/GPa)
#
#
# Indices 1 2 3 4 5 6 
#
# 1 0.032347 -0.013893 -0.005856 0.000000 0.000000 0.000000
# 2 -0.013893 0.037938 -0.009405 0.000000 0.000000 0.000000
# 3 -0.005856 -0.009405 0.014844 0.000000 0.000000 0.000000
# 4 0.000000 0.000000 0.000000 0.034039 0.000000 0.000000
# 5 0.000000 0.000000 0.000000 0.000000 0.048728 0.000000
# 6 0.000000 0.000000 0.000000 0.000000 0.000000 0.056806
#
#
# Mechanical properties :
#
#
# Convention : Reuss Voigt Hill
#
# Bulk Modulus (GPa) = 37.28446 45.48925 41.38686
# Shear Modulus (GPa) = 17.12620 20.09267 18.60943
#
# Velocity S-wave (km/s) = 3.21299 3.48015 3.34923
# Velocity P-wave (km/s) = 6.01985 6.60064 6.31693
#
# Compressibility (1/GPa) = 0.02682083
#
# Stress axis : x y z
#
# Youngs Moduli (GPa) = 30.91450 26.35891 67.36846
#
# Poissons Ratio (x) = 0.36620 0.39449
# Poissons Ratio (y) = 0.42949 0.63363
# Poissons Ratio (z) = 0.18103 0.24792
#
# Static dielectric constant tensor:
#      x y z
#    x 1.576690 0.000000 0.000000 
#    y 0.000000 1.547960 0.000000 
#    z 0.000000 0.000000 1.652390 
# 
# From -- ./inp_files/38707.got.cif
#   From: 2010.05.17/outbox.cif.g08.bks.cpg/sg63_20_cif.got.tgz:38707.got - 2010.06.03 15:47:04.
