data_PCOD9469308
_publ_section_title
;
Structure prediction by ZEFSAII (Michael W. Deem and Ramdas Pophale) SiO2 
 PCOD9469308
Probable space group: C M C M
;
_chemical_formula_sum "Si O2"
_cell_formula_units_Z 96
_cell_length_a 7.327857
_cell_length_b 20.390437
_cell_length_c 27.992594
_cell_angle_alpha 90.000000
_cell_angle_beta 90.000000
_cell_angle_gamma 90.000000
_cell_volume 4182.603191
_symmetry_space_group_name_H-M "C M C M"
_symmetry_group_IT_number 63
_symmetry_cell_setting 'orthorhombic'
loop_
_space_group_symop_operation_xyz
x,y,z
-x,-y,1/2+z
x,-y,-z
-x,y,1/2-z
-x,-y,-z
x,y,1/2-z
-x,y,z
x,-y,1/2+z
1/2+x,1/2+y,z
1/2-x,1/2-y,1/2+z
1/2+x,1/2-y,-z
1/2-x,1/2+y,1/2-z
1/2-x,1/2-y,-z
1/2+x,1/2+y,1/2-z
1/2-x,1/2+y,z
1/2+x,1/2-y,1/2+z
loop_
_atom_site_type_symbol
_atom_site_label
_atom_site_fract_x
_atom_site_fract_y
_atom_site_fract_z
Si Si1 0.791933 0.178086 0.878964
Si Si2 0.708519 0.078091 0.173197
Si Si3 0.720356 0.553740 0.065760
Si Si4 0.277398 0.593448 0.962867
Si Si5 0.776255 0.720841 0.302377
Si Si6 0.721198 0.066705 0.696400
O O1 0.711485 0.151294 0.928463
O O2 0.710368 0.235601 0.846652
O O3 0.793146 0.115401 0.843658
O O4 0.000000 0.197782 0.889627
O O5 0.500000 0.076539 0.190537
O O6 0.710809 0.080179 0.115797
O O7 0.785964 0.145849 0.192424
O O8 0.786508 0.007789 0.187954
O O9 0.500000 0.554485 0.067496
O O10 0.776224 0.477780 0.058185
O O11 0.777040 0.592962 0.018279
O O12 0.500000 0.594190 0.961784
O O13 0.723406 0.746477 0.250000
O O14 0.000000 0.721819 0.303930
O O15 0.770936 0.087309 0.750000
O O16 0.500000 0.067420 0.692522
#
# Coordination Sequence:
#
# PCOD9469308 Si02
#       6
#    16  16  16  16  16  16
#     4  10  18  32  54  76  94 121 167 211 239 276
#     4  10  19  32  49  71  98 129 163 197 237 288
#     4   9  16  30  50  72  99 129 160 195 244 295
#     4   8  15  28  49  74  99 126 156 197 248 294
#     4   9  18  32  50  71  97 130 164 199 242 289
#     4  10  20  32  47  69  98 128 157 196 247 294
#
# _framework density 22.952214000000001
#
# number of rings (size 3 to 8) (size 9 to 14) (size 15 to 20)
#    0.000    2.667    1.667    2.000    0.000    3.000 
#    0.000    4.167    0.000    2.500    0.000    0.000 
#    0.000    0.000    0.000    0.000    0.000    0.000 
#
# Total GULP energy -268106.884875 kJ/mol
# GULP energy per Si atom -5585.560102 kJ/mol
# Density = 2.289997 g / cm^3
# Si number density = 22.952214 Si / 1000 Ang^3
#
#
#
# Elastic Constant Matrix: (Units=GPa)
#
#
# Indices 1 2 3 4 5 6 
#
# 1 93.0612 -6.0878 -6.9394 0.0000 0.0000 0.0000
# 2 -6.0878 62.4166 -3.7591 0.0000 0.0000 0.0000
# 3 -6.9394 -3.7591 105.9634 0.0000 0.0000 0.0000
# 4 0.0000 0.0000 0.0000 -0.8392 0.0000 0.0000
# 5 0.0000 0.0000 0.0000 0.0000 10.4271 0.0000
# 6 0.0000 0.0000 0.0000 0.0000 0.0000 -3.7578
#
#
#
# Elastic Compliance Matrix: (Units=1/GPa)
#
#
# Indices 1 2 3 4 5 6 
#
# 1 0.010874 0.001106 0.000751 0.000000 0.000000 0.000000
# 2 0.001106 0.016168 0.000646 0.000000 0.000000 0.000000
# 3 0.000751 0.000646 0.009509 0.000000 0.000000 0.000000
# 4 0.000000 0.000000 0.000000 -1.191564 0.000000 0.000000
# 5 0.000000 0.000000 0.000000 0.000000 0.095904 0.000000
# 6 0.000000 0.000000 0.000000 0.000000 0.000000 -0.266113
#
#
# Mechanical properties :
#
#
# Convention : Reuss Voigt Hill
#
# Bulk Modulus (GPa) = 24.06284 25.31874 24.69079
# Shear Modulus (GPa) = -3.79831 19.71452 7.95811
#
# Velocity S-wave (km/s) = -1.28782 2.93394 1.86408
# Velocity P-wave (km/s) = 2.88017 4.74683 3.92605
#
# Compressibility (1/GPa) = 0.04155785
#
# Stress axis : x y z
#
# Youngs Moduli (GPa) = 91.96265 61.85000 105.15977
#
# Poissons Ratio (x) = -0.06840 -0.07901
# Poissons Ratio (y) = -0.10170 -0.06793
# Poissons Ratio (z) = -0.06910 -0.03996
#
# Static dielectric constant tensor:
#      x y z
#    x 1.868630 0.000000 0.000000 
#    y 0.000000 1.830120 0.000000 
#    z 0.000000 0.000000 1.863560 
# 
# From -- ./inp_files/61495.got.cif
#   From: 2010.05.17/outbox.cif.g08.bks.cpg/sg63_31_cif.got.tgz:61495.got - 2010.06.03 15:47:04.
