data_PCOD9469351
_publ_section_title
;
Structure prediction by ZEFSAII (Michael W. Deem and Ramdas Pophale) SiO2 
 PCOD9469351
Probable space group: C M C M
;
_chemical_formula_sum "Si O2"
_cell_formula_units_Z 72
_cell_length_a 20.200123
_cell_length_b 20.218666
_cell_length_c 8.670145
_cell_angle_alpha 90.000000
_cell_angle_beta 90.000000
_cell_angle_gamma 90.000000
_cell_volume 3541.056633
_symmetry_space_group_name_H-M "C M C M"
_symmetry_group_IT_number 63
_symmetry_cell_setting 'orthorhombic'
loop_
_space_group_symop_operation_xyz
x,y,z
-x,-y,1/2+z
x,-y,-z
-x,y,1/2-z
-x,-y,-z
x,y,1/2-z
-x,y,z
x,-y,1/2+z
1/2+x,1/2+y,z
1/2-x,1/2-y,1/2+z
1/2+x,1/2-y,-z
1/2-x,1/2+y,1/2-z
1/2-x,1/2-y,-z
1/2+x,1/2+y,1/2-z
1/2-x,1/2+y,z
1/2+x,1/2-y,1/2+z
loop_
_atom_site_type_symbol
_atom_site_label
_atom_site_fract_x
_atom_site_fract_y
_atom_site_fract_z
Si Si1 0.805224 0.299296 0.064140
Si Si2 0.419316 0.568543 0.573493
Si Si3 0.000000 0.574495 0.564711
Si Si4 0.074885 0.208051 0.435054
Si Si5 0.359185 0.925798 0.934469
O O1 0.801638 0.303651 0.250000
O O2 0.873732 0.263461 0.017024
O O3 0.805803 0.372448 0.992106
O O4 0.750000 0.250000 0.000000
O O5 0.395647 0.500000 0.500000
O O6 0.398199 0.572697 0.750000
O O7 0.500000 0.566374 0.569731
O O8 0.401137 0.635534 0.486374
O O9 0.000000 0.500000 0.500000
O O10 0.930096 0.599755 0.501273
O O11 0.000000 0.577296 0.750000
O O12 0.072030 0.208797 0.250000
O O13 0.000000 0.218543 0.494260
O O14 0.362278 0.070982 0.250000
O O15 0.348321 0.000000 0.000000
#
# Coordination Sequence:
#
# PCOD9469351 Si02
#       5
#    16  16   8  16  16
#     4  11  24  42  63  88 123 165 205 252 311 375
#     4   9  16  27  47  76 110 146 184 233 286 338
#     4  10  18  32  56  90 128 162 201 252 311 370
#     4   9  19  36  58  84 113 150 195 243 299 361
#     4  11  22  39  63  93 126 164 209 260 316 378
#
# _framework density 20.332913000000001
#
# number of rings (size 3 to 8) (size 9 to 14) (size 15 to 20)
#    0.000    2.000    0.000    5.667    1.556    4.444 
#    0.000    1.111    0.000    5.333    0.000    0.000 
#    0.000    0.000    0.000    0.000    0.000    0.000 
#
# Total GULP energy -200966.773314 kJ/mol
# GULP energy per Si atom -5582.410370 kJ/mol
# Density = 2.028663 g / cm^3
# Si number density = 20.332913 Si / 1000 Ang^3
#
#
#
# Elastic Constant Matrix: (Units=GPa)
#
#
# Indices 1 2 3 4 5 6 
#
# 1 52.9118 64.6843 38.8849 0.0000 0.0000 0.0000
# 2 64.6843 154.8962 43.6731 0.0000 0.0000 0.0000
# 3 38.8849 43.6731 97.0288 0.0000 0.0000 0.0000
# 4 0.0000 0.0000 0.0000 30.7343 0.0000 0.0000
# 5 0.0000 0.0000 0.0000 0.0000 22.1473 0.0000
# 6 0.0000 0.0000 0.0000 0.0000 0.0000 29.2453
#
#
#
# Elastic Compliance Matrix: (Units=1/GPa)
#
#
# Indices 1 2 3 4 5 6 
#
# 1 0.047921 -0.016719 -0.011680 0.000000 0.000000 0.000000
# 2 -0.016719 0.013227 0.000747 0.000000 0.000000 0.000000
# 3 -0.011680 0.000747 0.014651 0.000000 0.000000 0.000000
# 4 0.000000 0.000000 0.000000 0.032537 0.000000 0.000000
# 5 0.000000 0.000000 0.000000 0.000000 0.045152 0.000000
# 6 0.000000 0.000000 0.000000 0.000000 0.000000 0.034194
#
#
# Mechanical properties :
#
#
# Convention : Reuss Voigt Hill
#
# Bulk Modulus (GPa) = 48.79063 66.59128 57.69096
# Shear Modulus (GPa) = 20.01460 26.93167 23.47313
#
# Velocity S-wave (km/s) = 3.14083 3.64337 3.40139
# Velocity P-wave (km/s) = 6.09927 7.10777 6.62274
#
# Compressibility (1/GPa) = 0.02049574
#
# Stress axis : x y z
#
# Youngs Moduli (GPa) = 20.86752 75.60188 68.25531
#
# Poissons Ratio (x) = 1.26397 0.79719
# Poissons Ratio (y) = 0.34888 -0.05096
# Poissons Ratio (z) = 0.24372 -0.05644
#
# Static dielectric constant tensor:
#      x y z
#    x 1.794640 0.000000 0.000000 
#    y 0.000000 1.720010 0.000000 
#    z 0.000000 0.000000 1.679720 
# 
# From -- ./inp_files/9861.got.cif
#   From: 2010.05.17/outbox.cif.g08.bks.cpg/sg63_5_cif.got.tgz:9861.got - 2010.06.03 15:47:04.
