data_PCOD9469569
_publ_section_title
;
Structure prediction by ZEFSAII (Michael W. Deem and Ramdas Pophale) SiO2 
 PCOD9469569
Probable space group: C M C M
;
_chemical_formula_sum "Si O2"
_cell_formula_units_Z 104
_cell_length_a 18.723587
_cell_length_b 11.185684
_cell_length_c 25.835311
_cell_angle_alpha 90.000000
_cell_angle_beta 90.000000
_cell_angle_gamma 90.000000
_cell_volume 5410.847489
_symmetry_space_group_name_H-M "C M C M"
_symmetry_group_IT_number 63
_symmetry_cell_setting 'orthorhombic'
loop_
_space_group_symop_operation_xyz
x,y,z
-x,-y,1/2+z
x,-y,-z
-x,y,1/2-z
-x,-y,-z
x,y,1/2-z
-x,y,z
x,-y,1/2+z
1/2+x,1/2+y,z
1/2-x,1/2-y,1/2+z
1/2+x,1/2-y,-z
1/2-x,1/2+y,1/2-z
1/2-x,1/2-y,-z
1/2+x,1/2+y,1/2-z
1/2-x,1/2+y,z
1/2+x,1/2-y,1/2+z
loop_
_atom_site_type_symbol
_atom_site_label
_atom_site_fract_x
_atom_site_fract_y
_atom_site_fract_z
Si Si1 0.639073 0.433598 0.366737
Si Si2 0.000000 0.465895 0.688329
Si Si3 0.864936 0.367833 0.307600
Si Si4 0.765451 0.253099 0.388453
Si Si5 0.500000 0.284271 0.129241
Si Si6 0.745672 0.431886 0.805024
Si Si7 0.856191 0.105589 0.039728
Si Si8 0.000000 0.145459 0.508521
O O1 0.706299 0.357132 0.390062
O O2 0.572560 0.350668 0.353406
O O3 0.670570 0.507250 0.318739
O O4 0.618433 0.530505 0.410033
O O5 0.932494 0.551256 0.679088
O O6 0.000000 0.431883 0.750000
O O7 0.000000 0.349296 0.652123
O O8 0.877605 0.313112 0.250000
O O9 0.836011 0.287312 0.354477
O O10 0.800380 0.460503 0.301963
O O11 0.731526 0.151213 0.352150
O O12 0.793545 0.193385 0.441042
O O13 0.500000 0.304323 0.066805
O O14 0.745677 0.366518 0.750000
O O15 0.923960 0.177219 0.017041
O O16 0.833973 0.000000 0.000000
O O17 0.000000 0.000000 0.500000
#
# Coordination Sequence:
#
# PCOD9469569 Si02
#       8
#    16   8  16  16   8  16  16   8
#     4  10  20  33  54  83 104 142 183 226 272 327
#     4  10  22  35  54  84 114 145 176 209 264 327
#     4   9  18  35  54  77 112 149 178 212 261 326
#     4  10  20  32  56  82 108 142 185 222 275 327
#     4  12  20  36  61  77 109 142 180 231 270 330
#     4   9  18  33  52  78 111 140 178 223 265 322
#     4  10  19  36  55  79 106 135 186 231 277 325
#     4  10  18  37  59  76  98 145 187 217 291 330
#
# _framework density 19.220648000000001
#
# number of rings (size 3 to 8) (size 9 to 14) (size 15 to 20)
#    0.000    2.154    3.077    1.385    0.000    2.462 
#    0.000    0.769    0.000    0.923    0.000    0.000 
#    0.000    0.000    0.000    0.000    0.000    0.000 
#
# Total GULP energy -289541.875739 kJ/mol
# GULP energy per Si atom -5568.112995 kJ/mol
# Density = 1.917690 g / cm^3
# Si number density = 19.220648 Si / 1000 Ang^3
#
#
#
# Elastic Constant Matrix: (Units=GPa)
#
#
# Indices 1 2 3 4 5 6 
#
# 1 69.2439 13.2020 20.6780 0.0000 0.0000 0.0000
# 2 13.2020 47.5927 10.7377 0.0000 0.0000 0.0000
# 3 20.6780 10.7377 62.2827 0.0000 0.0000 0.0000
# 4 0.0000 0.0000 0.0000 28.5554 0.0000 0.0000
# 5 0.0000 0.0000 0.0000 0.0000 22.1756 0.0000
# 6 0.0000 0.0000 0.0000 0.0000 0.0000 13.8576
#
#
#
# Elastic Compliance Matrix: (Units=1/GPa)
#
#
# Indices 1 2 3 4 5 6 
#
# 1 0.016570 -0.003491 -0.004900 0.000000 0.000000 0.000000
# 2 -0.003491 0.022598 -0.002737 0.000000 0.000000 0.000000
# 3 -0.004900 -0.002737 0.018154 0.000000 0.000000 0.000000
# 4 0.000000 0.000000 0.000000 0.035020 0.000000 0.000000
# 5 0.000000 0.000000 0.000000 0.000000 0.045095 0.000000
# 6 0.000000 0.000000 0.000000 0.000000 0.000000 0.072163
#
#
# Mechanical properties :
#
#
# Convention : Reuss Voigt Hill
#
# Bulk Modulus (GPa) = 28.51659 29.81718 29.16689
# Shear Modulus (GPa) = 20.53022 21.88449 21.20736
#
# Velocity S-wave (km/s) = 3.27178 3.37796 3.32530
# Velocity P-wave (km/s) = 5.39827 5.54626 5.47277
#
# Compressibility (1/GPa) = 0.03506731
#
# Stress axis : x y z
#
# Youngs Moduli (GPa) = 60.34843 44.25261 55.08337
#
# Poissons Ratio (x) = 0.15449 0.26988
# Poissons Ratio (y) = 0.21069 0.15075
# Poissons Ratio (z) = 0.29568 0.12111
#
# Static dielectric constant tensor:
#      x y z
#    x 1.751470 0.000000 0.000000 
#    y 0.000000 1.678310 0.000000 
#    z 0.000000 0.000000 1.756950 
# 
# From -- ./inp_files/70005.got.cif
#   From: 2010.05.17/outbox.cif.g08.bks.cpg/sg63_36_cif.got.tgz:70005.got - 2010.06.03 15:47:04.
