data_PCOD9469004
_publ_section_title
;
Structure prediction by ZEFSAII (Michael W. Deem and Ramdas Pophale) SiO2 
 PCOD9469004
Probable space group: C M C M
;
_chemical_formula_sum "Si O2"
_cell_formula_units_Z 80
_cell_length_a 7.765696
_cell_length_b 18.567611
_cell_length_c 27.322575
_cell_angle_alpha 90.000000
_cell_angle_beta 90.000000
_cell_angle_gamma 90.000000
_cell_volume 3939.653632
_symmetry_space_group_name_H-M "C M C M"
_symmetry_group_IT_number 63
_symmetry_cell_setting 'orthorhombic'
loop_
_space_group_symop_operation_xyz
x,y,z
-x,-y,1/2+z
x,-y,-z
-x,y,1/2-z
-x,-y,-z
x,y,1/2-z
-x,y,z
x,-y,1/2+z
1/2+x,1/2+y,z
1/2-x,1/2-y,1/2+z
1/2+x,1/2-y,-z
1/2-x,1/2+y,1/2-z
1/2-x,1/2-y,-z
1/2+x,1/2+y,1/2-z
1/2-x,1/2+y,z
1/2+x,1/2-y,1/2+z
loop_
_atom_site_type_symbol
_atom_site_label
_atom_site_fract_x
_atom_site_fract_y
_atom_site_fract_z
Si Si1 0.294935 0.460665 0.250000
Si Si2 0.210820 0.457601 0.548723
Si Si3 0.207660 0.707144 0.049040
Si Si4 0.703706 0.045398 0.856506
Si Si5 0.289172 0.292314 0.250000
Si Si6 0.296763 0.712638 0.644644
O O1 0.500000 0.462491 0.250000
O O2 0.235423 0.488837 0.197191
O O3 0.238937 0.376669 0.250000
O O4 0.264760 0.500000 0.500000
O O5 0.268989 0.375064 0.547154
O O6 0.267578 0.497673 0.598251
O O7 0.000000 0.457447 0.549041
O O8 0.276095 0.748665 0.096931
O O9 0.000000 0.704872 0.052255
O O10 0.250000 0.750000 0.000000
O O11 0.500000 0.054112 0.862230
O O12 0.779391 0.126085 0.858454
O O13 0.500000 0.290028 0.250000
O O14 0.227661 0.262926 0.302179
O O15 0.500000 0.728548 0.645497
#
# Coordination Sequence:
#
# PCOD9469004 Si02
#       6
#     8  16  16  16   8  16
#     4   9  17  31  50  73 105 137 165 203 248 290
#     4   9  18  32  49  71 101 134 166 205 253 299
#     4  10  20  34  51  72  98 130 169 209 251 300
#     4  10  18  30  52  78 102 131 169 206 242 295
#     4   7  12  25  44  65  89 119 151 185 232 286
#     4   9  17  30  49  72  98 128 163 204 251 298
#
# _framework density 20.306353999999999
#
# number of rings (size 3 to 8) (size 9 to 14) (size 15 to 20)
#    0.000    2.800    0.000    3.300    0.000    2.400 
#    0.000    3.000    0.000   10.200    0.000    0.000 
#    0.000    0.000    0.000    0.000    0.000    0.000 
#
# Total GULP energy -223010.697847 kJ/mol
# GULP energy per Si atom -5575.267446 kJ/mol
# Density = 2.026014 g / cm^3
# Si number density = 20.306354 Si / 1000 Ang^3
#
#
#
# Elastic Constant Matrix: (Units=GPa)
#
#
# Indices 1 2 3 4 5 6 
#
# 1 26.8281 -6.4941 3.2601 0.0000 0.0000 0.0000
# 2 -6.4941 96.4551 101.3131 0.0000 0.0000 0.0000
# 3 3.2601 101.3131 260.5371 0.0000 0.0000 0.0000
# 4 0.0000 0.0000 0.0000 34.5710 0.0000 0.0000
# 5 0.0000 0.0000 0.0000 0.0000 19.7634 0.0000
# 6 0.0000 0.0000 0.0000 0.0000 0.0000 0.8884
#
#
#
# Elastic Compliance Matrix: (Units=1/GPa)
#
#
# Indices 1 2 3 4 5 6 
#
# 1 0.038863 0.005287 -0.002542 0.000000 0.000000 0.000000
# 2 0.005287 0.018245 -0.007161 0.000000 0.000000 0.000000
# 3 -0.002542 -0.007161 0.006655 0.000000 0.000000 0.000000
# 4 0.000000 0.000000 0.000000 0.028926 0.000000 0.000000
# 5 0.000000 0.000000 0.000000 0.000000 0.050598 0.000000
# 6 0.000000 0.000000 0.000000 0.000000 0.000000 1.125672
#
#
# Mechanical properties :
#
#
# Convention : Reuss Voigt Hill
#
# Bulk Modulus (GPa) = 18.20500 64.44206 41.32353
# Shear Modulus (GPa) = 3.85772 30.09398 16.97585
#
# Velocity S-wave (km/s) = 1.37981 3.85385 2.89448
# Velocity P-wave (km/s) = 3.39458 7.18378 5.61827
#
# Compressibility (1/GPa) = 0.05492996
#
# Stress axis : x y z
#
# Youngs Moduli (GPa) = 25.73145 54.80915 150.27022
#
# Poissons Ratio (x) = -0.28976 0.38200
# Poissons Ratio (y) = -0.13603 1.07609
# Poissons Ratio (z) = 0.06541 0.39249
#
# Static dielectric constant tensor:
#      x y z
#    x 1.767640 0.000000 0.000000 
#    y 0.000000 1.685150 0.000000 
#    z 0.000000 0.000000 1.760820 
# 
# From -- ./inp_files/66669.got.cif
#   From: 2010.05.17/outbox.cif.g08.bks.cpg/sg63_34_cif.got.tgz:66669.got - 2010.06.03 15:47:04.
