data_PCOD9469131
_publ_section_title
;
Structure prediction by ZEFSAII (Michael W. Deem and Ramdas Pophale) SiO2 
 PCOD9469131
Probable space group: C M C M
;
_chemical_formula_sum "Si O2"
_cell_formula_units_Z 104
_cell_length_a 14.295538
_cell_length_b 17.710709
_cell_length_c 24.215510
_cell_angle_alpha 90.000000
_cell_angle_beta 90.000000
_cell_angle_gamma 90.000000
_cell_volume 6130.982433
_symmetry_space_group_name_H-M "C M C M"
_symmetry_group_IT_number 63
_symmetry_cell_setting 'orthorhombic'
loop_
_space_group_symop_operation_xyz
x,y,z
-x,-y,1/2+z
x,-y,-z
-x,y,1/2-z
-x,-y,-z
x,y,1/2-z
-x,y,z
x,-y,1/2+z
1/2+x,1/2+y,z
1/2-x,1/2-y,1/2+z
1/2+x,1/2-y,-z
1/2-x,1/2+y,1/2-z
1/2-x,1/2-y,-z
1/2+x,1/2+y,1/2-z
1/2-x,1/2+y,z
1/2+x,1/2-y,1/2+z
loop_
_atom_site_type_symbol
_atom_site_label
_atom_site_fract_x
_atom_site_fract_y
_atom_site_fract_z
Si Si1 0.110767 0.740463 0.451771
Si Si2 0.607889 0.120454 0.143117
Si Si3 0.605467 0.976626 0.435942
Si Si4 0.211926 0.329570 0.443049
Si Si5 0.608647 0.645991 0.250000
Si Si6 0.109798 0.725512 0.840314
Si Si7 0.610628 0.096349 0.750000
Si Si8 0.210189 0.565232 0.250000
O O1 0.122172 0.693799 0.394908
O O2 0.154420 0.690696 0.501473
O O3 0.178655 0.812912 0.450579
O O4 0.000000 0.753365 0.460338
O O5 0.500000 0.120755 0.161947
O O6 0.671633 0.107661 0.195866
O O7 0.619123 0.048881 0.102410
O O8 0.500000 0.946247 0.424696
O O9 0.682893 0.913598 0.426700
O O10 0.607790 0.000000 0.500000
O O11 0.172586 0.276828 0.394329
O O12 0.500000 0.624309 0.250000
O O13 0.625233 0.701297 0.197706
O O14 0.678691 0.576282 0.250000
O O15 0.127050 0.651094 0.802545
O O16 0.000000 0.724379 0.855358
O O17 0.500000 0.075644 0.750000
O O18 0.671160 0.020346 0.750000
#
# Coordination Sequence:
#
# PCOD9469131 Si02
#       8
#    16  16  16  16   8  16   8   8
#     4  10  21  34  47  72 104 131 163 202 241 291
#     4  10  20  33  50  76 106 129 158 200 252 301
#     4  10  18  31  52  76 101 127 159 207 254 295
#     4  11  19  30  53  76  94 131 167 200 247 295
#     4   9  20  35  49  69 100 133 168 208 240 281
#     4   9  17  32  53  74  95 122 164 209 247 286
#     4   9  18  31  49  77 102 119 150 206 258 291
#     4  12  20  30  50  76 106 132 158 196 252 302
#
# _framework density 16.963023
#
# number of rings (size 3 to 8) (size 9 to 14) (size 15 to 20)
#    0.000    2.000    1.538    4.846    0.000    2.462 
#    0.000    0.000    0.000    4.154    0.000    3.231 
#    0.000    0.000    0.000    0.000    0.000    0.000 
#
# Total GULP energy -290088.629583 kJ/mol
# GULP energy per Si atom -5578.627492 kJ/mol
# Density = 1.692441 g / cm^3
# Si number density = 16.963023 Si / 1000 Ang^3
#
#
#
# Elastic Constant Matrix: (Units=GPa)
#
#
# Indices 1 2 3 4 5 6 
#
# 1 109.8480 48.2602 24.5010 0.0000 0.0000 0.0000
# 2 48.2602 54.4554 -7.6263 0.0000 0.0000 0.0000
# 3 24.5010 -7.6263 66.6682 0.0000 0.0000 0.0000
# 4 0.0000 0.0000 0.0000 2.8038 0.0000 0.0000
# 5 0.0000 0.0000 0.0000 0.0000 17.5117 0.0000
# 6 0.0000 0.0000 0.0000 0.0000 0.0000 25.3908
#
#
#
# Elastic Compliance Matrix: (Units=1/GPa)
#
#
# Indices 1 2 3 4 5 6 
#
# 1 0.019164 -0.018262 -0.009132 0.000000 0.000000 0.000000
# 2 -0.018262 0.036066 0.010837 0.000000 0.000000 0.000000
# 3 -0.009132 0.010837 0.019595 0.000000 0.000000 0.000000
# 4 0.000000 0.000000 0.000000 0.356657 0.000000 0.000000
# 5 0.000000 0.000000 0.000000 0.000000 0.057105 0.000000
# 6 0.000000 0.000000 0.000000 0.000000 0.000000 0.039384
#
#
# Mechanical properties :
#
#
# Convention : Reuss Voigt Hill
#
# Bulk Modulus (GPa) = 23.97443 40.13793 32.05618
# Shear Modulus (GPa) = 8.69582 20.19702 14.44642
#
# Velocity S-wave (km/s) = 2.26660 3.45432 2.92146
# Velocity P-wave (km/s) = 4.58410 6.29469 5.50623
#
# Compressibility (1/GPa) = 0.04171110
#
# Stress axis : x y z
#
# Youngs Moduli (GPa) = 52.18234 27.72692 51.03258
#
# Poissons Ratio (x) = 0.50636 0.46602
# Poissons Ratio (y) = 0.95297 -0.55305
# Poissons Ratio (z) = 0.47652 -0.30048
#
# Static dielectric constant tensor:
#      x y z
#    x 1.565080 0.000000 0.000000 
#    y 0.000000 1.571810 0.000000 
#    z 0.000000 0.000000 1.587960 
# 
# From -- ./inp_files/63172.got.cif
#   From: 2010.05.17/outbox.cif.g08.bks.cpg/sg63_32_cif.got.tgz:63172.got - 2010.06.03 15:47:04.
