data_PCOD9469090
_publ_section_title
;
Structure prediction by ZEFSAII (Michael W. Deem and Ramdas Pophale) SiO2 
 PCOD9469090
Probable space group: C M C M
;
_chemical_formula_sum "Si O2"
_cell_formula_units_Z 80
_cell_length_a 7.331849
_cell_length_b 25.422788
_cell_length_c 19.622028
_cell_angle_alpha 90.000000
_cell_angle_beta 90.000000
_cell_angle_gamma 90.000000
_cell_volume 3657.468370
_symmetry_space_group_name_H-M "C M C M"
_symmetry_group_IT_number 63
_symmetry_cell_setting 'orthorhombic'
loop_
_space_group_symop_operation_xyz
x,y,z
-x,-y,1/2+z
x,-y,-z
-x,y,1/2-z
-x,-y,-z
x,y,1/2-z
-x,y,z
x,-y,1/2+z
1/2+x,1/2+y,z
1/2-x,1/2-y,1/2+z
1/2+x,1/2-y,-z
1/2-x,1/2+y,1/2-z
1/2-x,1/2-y,-z
1/2+x,1/2+y,1/2-z
1/2-x,1/2+y,z
1/2+x,1/2-y,1/2+z
loop_
_atom_site_type_symbol
_atom_site_label
_atom_site_fract_x
_atom_site_fract_y
_atom_site_fract_z
Si Si1 0.221967 0.469031 0.067978
Si Si2 0.776968 0.651800 0.944380
Si Si3 0.222599 0.443710 0.828089
Si Si4 0.780794 0.662838 0.097911
Si Si5 0.785011 0.270860 0.326509
O O1 0.279244 0.408567 0.067102
O O2 0.278740 0.503646 0.132523
O O3 0.000000 0.468355 0.067177
O O4 0.278790 0.500000 0.000000
O O5 0.712155 0.689669 0.884093
O O6 0.000000 0.652968 0.944508
O O7 0.717778 0.669350 0.019973
O O8 0.281641 0.441705 0.750000
O O9 0.282038 0.392181 0.869769
O O10 0.000000 0.443093 0.828166
O O11 0.733424 0.711888 0.145179
O O12 0.000000 0.660040 0.095453
O O13 0.709652 0.275763 0.250000
O O14 0.000000 0.282214 0.321841
#
# Coordination Sequence:
#
# PCOD9469090 Si02
#       5
#    16  16  16  16  16
#     4   9  14  24  41  63  92 122 147 180 232 283
#     4   9  17  29  47  68  93 126 160 193 234 282
#     4   9  16  24  39  67  96 118 147 191 237 278
#     4  10  18  31  51  72  94 122 159 200 236 275
#     4  10  21  34  46  66  98 130 159 193 234 281
#
# _framework density 21.873052999999999
#
# number of rings (size 3 to 8) (size 9 to 14) (size 15 to 20)
#    0.000    2.600    2.000    1.200    0.000    2.000 
#    0.000    4.000    0.000    0.000    0.000    4.200 
#    0.000    0.000    0.000    0.000    0.000    0.000 
#
# Total GULP energy -223525.247910 kJ/mol
# GULP energy per Si atom -5588.131198 kJ/mol
# Density = 2.182327 g / cm^3
# Si number density = 21.873053 Si / 1000 Ang^3
#
#
#
# Elastic Constant Matrix: (Units=GPa)
#
#
# Indices 1 2 3 4 5 6 
#
# 1 84.5670 -10.6788 4.9745 0.0000 0.0000 0.0000
# 2 -10.6788 41.2816 43.0044 0.0000 0.0000 0.0000
# 3 4.9745 43.0044 201.2596 0.0000 0.0000 0.0000
# 4 0.0000 0.0000 0.0000 35.4251 0.0000 0.0000
# 5 0.0000 0.0000 0.0000 0.0000 -8.3161 0.0000
# 6 0.0000 0.0000 0.0000 0.0000 0.0000 1.6120
#
#
#
# Elastic Compliance Matrix: (Units=1/GPa)
#
#
# Indices 1 2 3 4 5 6 
#
# 1 0.012477 0.004565 -0.001284 0.000000 0.000000 0.000000
# 2 0.004565 0.032830 -0.007128 0.000000 0.000000 0.000000
# 3 -0.001284 -0.007128 0.006523 0.000000 0.000000 0.000000
# 4 0.000000 0.000000 0.000000 0.028229 0.000000 0.000000
# 5 0.000000 0.000000 0.000000 0.000000 -0.120248 0.000000
# 6 0.000000 0.000000 0.000000 0.000000 0.000000 0.620362
#
#
# Mechanical properties :
#
#
# Convention : Reuss Voigt Hill
#
# Bulk Modulus (GPa) = 22.65669 44.63424 33.64547
# Shear Modulus (GPa) = 8.29768 25.06472 16.68120
#
# Velocity S-wave (km/s) = 1.94982 3.38881 2.76458
# Velocity P-wave (km/s) = 3.93063 5.98017 5.06025
#
# Compressibility (1/GPa) = 0.04413707
#
# Stress axis : x y z
#
# Youngs Moduli (GPa) = 80.14803 30.45988 153.29222
#
# Poissons Ratio (x) = -0.13905 0.19680
# Poissons Ratio (y) = -0.36587 1.09264
# Poissons Ratio (z) = 0.10289 0.21711
#
# Static dielectric constant tensor:
#      x y z
#    x 1.890090 0.000000 0.000000 
#    y 0.000000 1.734100 0.000000 
#    z 0.000000 0.000000 1.765990 
# 
# From -- ./inp_files/30023.got.cif
#   From: 2010.05.17/outbox.cif.g08.bks.cpg/sg63_16_cif.got.tgz:30023.got - 2010.06.03 15:47:04.
