data_PCOD9469795
_publ_section_title
;
Structure prediction by ZEFSAII (Michael W. Deem and Ramdas Pophale) SiO2 
 PCOD9469795
Probable space group: C M C M
;
_chemical_formula_sum "Si O2"
_cell_formula_units_Z 80
_cell_length_a 8.922311
_cell_length_b 31.852460
_cell_length_c 14.050032
_cell_angle_alpha 90.000000
_cell_angle_beta 90.000000
_cell_angle_gamma 90.000000
_cell_volume 3992.984731
_symmetry_space_group_name_H-M "C M C M"
_symmetry_group_IT_number 63
_symmetry_cell_setting 'orthorhombic'
loop_
_space_group_symop_operation_xyz
x,y,z
-x,-y,1/2+z
x,-y,-z
-x,y,1/2-z
-x,-y,-z
x,y,1/2-z
-x,y,z
x,-y,1/2+z
1/2+x,1/2+y,z
1/2-x,1/2-y,1/2+z
1/2+x,1/2-y,-z
1/2-x,1/2+y,1/2-z
1/2-x,1/2-y,-z
1/2+x,1/2+y,1/2-z
1/2-x,1/2+y,z
1/2+x,1/2-y,1/2+z
loop_
_atom_site_type_symbol
_atom_site_label
_atom_site_fract_x
_atom_site_fract_y
_atom_site_fract_z
Si Si1 0.669761 0.514507 0.109885
Si Si2 0.318282 0.577402 0.647492
Si Si3 0.319988 0.810654 0.548487
Si Si4 0.680861 0.722839 0.858020
Si Si5 0.178629 0.597419 0.445176
O O1 0.500000 0.521887 0.142006
O O2 0.728838 0.471568 0.154222
O O3 0.663939 0.500000 0.000000
O O4 0.758200 0.557865 0.113029
O O5 0.284553 0.597863 0.750000
O O6 0.500000 0.578102 0.635175
O O7 0.242292 0.594786 0.553026
O O8 0.500000 0.809755 0.537788
O O9 0.279070 0.770994 0.614064
O O10 0.248929 0.804139 0.444029
O O11 0.278915 0.856110 0.590087
O O12 0.729202 0.713100 0.750000
O O13 0.500000 0.718919 0.861090
O O14 0.000000 0.593891 0.447926
#
# Coordination Sequence:
#
# PCOD9469795 Si02
#       5
#    16  16  16  16  16
#     4   8  15  29  47  64  85 118 155 188 224 265
#     4   9  18  32  48  66  91 124 160 197 236 276
#     4   9  19  34  50  72 102 130 156 194 246 295
#     4   9  18  34  55  74  93 124 165 202 237 286
#     4  10  19  30  46  69  96 124 153 188 234 285
#
# _framework density 20.035136999999999
#
# number of rings (size 3 to 8) (size 9 to 14) (size 15 to 20)
#    0.000    3.000    0.000    1.800    0.000    6.800 
#    0.000    5.000    0.000    1.200    0.000    0.000 
#    0.000    0.000    0.000    0.000    0.000    0.000 
#
# Total GULP energy -222821.808776 kJ/mol
# GULP energy per Si atom -5570.545219 kJ/mol
# Density = 1.998954 g / cm^3
# Si number density = 20.035137 Si / 1000 Ang^3
#
#
#
# Elastic Constant Matrix: (Units=GPa)
#
#
# Indices 1 2 3 4 5 6 
#
# 1 17.1651 20.8922 -7.0481 0.0000 0.0000 0.0000
# 2 20.8922 96.1793 -22.0354 0.0000 0.0000 0.0000
# 3 -7.0481 -22.0354 45.7121 0.0000 0.0000 0.0000
# 4 0.0000 0.0000 0.0000 1.9289 0.0000 0.0000
# 5 0.0000 0.0000 0.0000 0.0000 -52.7750 0.0000
# 6 0.0000 0.0000 0.0000 0.0000 0.0000 23.4477
#
#
#
# Elastic Compliance Matrix: (Units=1/GPa)
#
#
# Indices 1 2 3 4 5 6 
#
# 1 0.079993 -0.016357 0.004449 0.000000 0.000000 0.000000
# 2 -0.016357 0.015033 0.004725 0.000000 0.000000 0.000000
# 3 0.004449 0.004725 0.024839 0.000000 0.000000 0.000000
# 4 0.000000 0.000000 0.000000 0.518423 0.000000 0.000000
# 5 0.000000 0.000000 0.000000 0.000000 -0.018948 0.000000
# 6 0.000000 0.000000 0.000000 0.000000 0.000000 0.042648
#
#
# Mechanical properties :
#
#
# Convention : Reuss Voigt Hill
#
# Bulk Modulus (GPa) = 9.47887 15.85267 12.66577
# Shear Modulus (GPa) = 7.02720 5.67017 6.34869
#
# Velocity S-wave (km/s) = 1.87485 1.68412 1.78204
# Velocity P-wave (km/s) = 3.07053 3.42218 3.25111
#
# Compressibility (1/GPa) = 0.10549785
#
# Stress axis : x y z
#
# Youngs Moduli (GPa) = 12.50112 66.52148 40.25855
#
# Poissons Ratio (x) = 1.08809 -0.17910
# Poissons Ratio (y) = 0.20448 -0.19020
# Poissons Ratio (z) = -0.05561 -0.31428
#
# Static dielectric constant tensor:
#      x y z
#    x 1.675510 0.000000 0.000000 
#    y 0.000000 1.751220 0.000000 
#    z 0.000000 0.000000 1.788310 
# 
# From -- ./inp_files/40691.got.cif
#   From: 2010.05.17/outbox.cif.g08.bks.cpg/sg63_21_cif.got.tgz:40691.got - 2010.06.03 15:47:04.
