data_PCOD9469990
_publ_section_title
;
Structure prediction by ZEFSAII (Michael W. Deem and Ramdas Pophale) SiO2 
 PCOD9469990
Probable space group: C M C M
;
_chemical_formula_sum "Si O2"
_cell_formula_units_Z 112
_cell_length_a 20.810368
_cell_length_b 16.345746
_cell_length_c 19.341197
_cell_angle_alpha 90.000000
_cell_angle_beta 90.000000
_cell_angle_gamma 90.000000
_cell_volume 6579.120710
_symmetry_space_group_name_H-M "C M C M"
_symmetry_group_IT_number 63
_symmetry_cell_setting 'orthorhombic'
loop_
_space_group_symop_operation_xyz
x,y,z
-x,-y,1/2+z
x,-y,-z
-x,y,1/2-z
-x,-y,-z
x,y,1/2-z
-x,y,z
x,-y,1/2+z
1/2+x,1/2+y,z
1/2-x,1/2-y,1/2+z
1/2+x,1/2-y,-z
1/2-x,1/2+y,1/2-z
1/2-x,1/2-y,-z
1/2+x,1/2+y,1/2-z
1/2-x,1/2+y,z
1/2+x,1/2-y,1/2+z
loop_
_atom_site_type_symbol
_atom_site_label
_atom_site_fract_x
_atom_site_fract_y
_atom_site_fract_z
Si Si1 0.337878 0.477356 0.830913
Si Si2 0.576171 0.752178 0.949707
Si Si3 0.076754 0.064031 0.940276
Si Si4 0.179701 0.665741 0.961014
Si Si5 0.768569 0.609496 0.827062
Si Si6 0.171515 0.263333 0.670500
Si Si7 0.727625 0.653135 0.080412
O O1 0.354122 0.459728 0.750000
O O2 0.388500 0.536339 0.869800
O O3 0.270384 0.525590 0.830638
O O4 0.325882 0.400708 0.881703
O O5 0.500000 0.762770 0.952241
O O6 0.591892 0.656278 0.965174
O O7 0.607313 0.761182 0.874166
O O8 0.614044 0.815956 0.998416
O O9 0.000000 0.060122 0.930269
O O10 0.095076 0.000000 0.000000
O O11 0.181193 0.618234 0.888938
O O12 0.201802 0.757863 0.941395
O O13 0.233329 0.625388 0.011837
O O14 0.795728 0.620777 0.750000
O O15 0.713444 0.679668 0.836214
O O16 0.158514 0.276953 0.750000
O O17 0.217765 0.331263 0.637878
#
# Coordination Sequence:
#
# PCOD9469990 Si02
#       7
#    16  16  16  16  16  16  16
#     4  11  21  31  47  74 100 129 164 203 246 302
#     4  10  19  31  48  69  93 127 171 206 235 283
#     4  10  21  33  46  66  98 138 171 200 233 278
#     4   9  18  33  48  70  93 129 162 204 253 290
#     4   9  18  30  47  71 100 125 155 202 257 305
#     4   9  16  30  46  67  97 124 153 201 253 295
#     4   9  18  29  49  70  95 125 161 200 243 295
#
# _framework density 17.023551000000001
#
# number of rings (size 3 to 8) (size 9 to 14) (size 15 to 20)
#    0.000    2.429    1.429    2.143    2.000    1.143 
#    0.000    1.429    0.000    0.429    0.000    8.000 
#    0.000    4.571    0.000    0.000    0.000    0.571 
#
# Total GULP energy -311770.501210 kJ/mol
# GULP energy per Si atom -5567.330379 kJ/mol
# Density = 1.698480 g / cm^3
# Si number density = 17.023551 Si / 1000 Ang^3
#
#
#
# Elastic Constant Matrix: (Units=GPa)
#
#
# Indices 1 2 3 4 5 6 
#
# 1 41.1027 -3.9748 34.2496 0.0000 0.0000 0.0000
# 2 -3.9748 11.6029 12.7579 0.0000 0.0000 0.0000
# 3 34.2496 12.7579 119.9207 0.0000 0.0000 0.0000
# 4 0.0000 0.0000 0.0000 15.5912 0.0000 0.0000
# 5 0.0000 0.0000 0.0000 0.0000 18.4200 0.0000
# 6 0.0000 0.0000 0.0000 0.0000 0.0000 17.7404
#
#
#
# Elastic Compliance Matrix: (Units=1/GPa)
#
#
# Indices 1 2 3 4 5 6 
#
# 1 0.038977 0.028983 -0.014215 0.000000 0.000000 0.000000
# 2 0.028983 0.119153 -0.020954 0.000000 0.000000 0.000000
# 3 -0.014215 -0.020954 0.014628 0.000000 0.000000 0.000000
# 4 0.000000 0.000000 0.000000 0.064139 0.000000 0.000000
# 5 0.000000 0.000000 0.000000 0.000000 0.054289 0.000000
# 6 0.000000 0.000000 0.000000 0.000000 0.000000 0.056369
#
#
# Mechanical properties :
#
#
# Convention : Reuss Voigt Hill
#
# Bulk Modulus (GPa) = 6.23496 28.74353 17.48924
# Shear Modulus (GPa) = 12.09512 18.98988 15.54250
#
# Velocity S-wave (km/s) = 2.66840 3.34354 3.02487
# Velocity P-wave (km/s) = 3.62827 5.64154 4.74295
#
# Compressibility (1/GPa) = 0.16038590
#
# Stress axis : x y z
#
# Youngs Moduli (GPa) = 25.65595 8.39255 68.36207
#
# Poissons Ratio (x) = -0.24324 0.97179
# Poissons Ratio (y) = -0.74358 1.43245
# Poissons Ratio (z) = 0.36471 0.17586
#
# Static dielectric constant tensor:
#      x y z
#    x 1.560970 0.000000 0.000000 
#    y 0.000000 1.618730 0.000000 
#    z 0.000000 0.000000 1.606230 
# 
# From -- ./inp_files/47345.got.cif
#   From: 2010.05.17/outbox.cif.g08.bks.cpg/sg63_24_cif.got.tgz:47345.got - 2010.06.03 15:47:04.
