data_PCOD9469105
_publ_section_title
;
Structure prediction by ZEFSAII (Michael W. Deem and Ramdas Pophale) SiO2 
 PCOD9469105
Probable space group: C M C M
;
_chemical_formula_sum "Si O2"
_cell_formula_units_Z 96
_cell_length_a 18.245028
_cell_length_b 13.558726
_cell_length_c 14.698989
_cell_angle_alpha 90.000000
_cell_angle_beta 90.000000
_cell_angle_gamma 90.000000
_cell_volume 3636.226132
_symmetry_space_group_name_H-M "C M C M"
_symmetry_group_IT_number 63
_symmetry_cell_setting 'orthorhombic'
loop_
_space_group_symop_operation_xyz
x,y,z
-x,-y,1/2+z
x,-y,-z
-x,y,1/2-z
-x,-y,-z
x,y,1/2-z
-x,y,z
x,-y,1/2+z
1/2+x,1/2+y,z
1/2-x,1/2-y,1/2+z
1/2+x,1/2-y,-z
1/2-x,1/2+y,1/2-z
1/2-x,1/2-y,-z
1/2+x,1/2+y,1/2-z
1/2-x,1/2+y,z
1/2+x,1/2-y,1/2+z
loop_
_atom_site_type_symbol
_atom_site_label
_atom_site_fract_x
_atom_site_fract_y
_atom_site_fract_z
Si Si1 0.419150 0.381230 0.387005
Si Si2 0.395798 0.815917 0.349638
Si Si3 0.235430 0.182530 0.910591
Si Si4 0.893484 0.898634 0.898169
Si Si5 0.261393 0.033066 0.140315
Si Si6 0.578619 0.966476 0.861219
O O1 0.500000 0.341109 0.363868
O O2 0.346941 0.314487 0.367247
O O3 0.411607 0.395998 0.495375
O O4 0.416267 0.496142 0.355148
O O5 0.421212 0.838273 0.250000
O O6 0.308035 0.805012 0.351179
O O7 0.423320 0.707251 0.370183
O O8 0.415950 0.919232 0.397519
O O9 0.242637 0.063410 0.919335
O O10 0.250000 0.250000 0.000000
O O11 0.807065 0.897942 0.877270
O O12 0.262629 0.009645 0.250000
O O13 0.341122 0.075148 0.114648
O O14 0.577816 0.961759 0.750000
O O15 0.500000 0.924966 0.891601
#
# Coordination Sequence:
#
# PCOD9469105 Si02
#       6
#    16  16  16  16  16  16
#     4  10  21  35  53  78 111 145 176 220 269 319
#     4  10  19  31  52  79 104 131 174 226 268 309
#     4  10  18  34  52  75  97 137 183 214 255 316
#     4  10  18  31  51  75 106 137 178 210 263 314
#     4   9  18  31  49  72 101 138 175 213 262 321
#     4   8  15  28  45  69 100 129 160 205 260 309
#
# _framework density 26.400998999999999
#
# number of rings (size 3 to 8) (size 9 to 14) (size 15 to 20)
#    0.000    2.500    1.667    3.000    0.000    1.333 
#    0.000    0.000    0.000   28.000    0.000    7.000 
#    0.000    0.000    0.000    0.000    0.000    0.000 
#
# Total GULP energy -267345.549973 kJ/mol
# GULP energy per Si atom -5569.698958 kJ/mol
# Density = 2.634091 g / cm^3
# Si number density = 26.400999 Si / 1000 Ang^3
#
#
#
# Elastic Constant Matrix: (Units=GPa)
#
#
# Indices 1 2 3 4 5 6 
#
# 1 299.6357 10.6890 10.0055 0.0000 0.0000 0.0000
# 2 10.6890 89.7850 -3.8047 0.0000 0.0000 0.0000
# 3 10.0055 -3.8047 74.9494 0.0000 0.0000 0.0000
# 4 0.0000 0.0000 0.0000 13.9698 0.0000 0.0000
# 5 0.0000 0.0000 0.0000 0.0000 26.8258 0.0000
# 6 0.0000 0.0000 0.0000 0.0000 0.0000 -20.9749
#
#
#
# Elastic Compliance Matrix: (Units=1/GPa)
#
#
# Indices 1 2 3 4 5 6 
#
# 1 0.003368 -0.000421 -0.000471 0.000000 0.000000 0.000000
# 2 -0.000421 0.011214 0.000625 0.000000 0.000000 0.000000
# 3 -0.000471 0.000625 0.013437 0.000000 0.000000 0.000000
# 4 0.000000 0.000000 0.000000 0.071583 0.000000 0.000000
# 5 0.000000 0.000000 0.000000 0.000000 0.037277 0.000000
# 6 0.000000 0.000000 0.000000 0.000000 0.000000 -0.047676
#
#
# Mechanical properties :
#
#
# Convention : Reuss Voigt Hill
#
# Bulk Modulus (GPa) = 36.38152 55.34998 45.86575
# Shear Modulus (GPa) = 50.55677 33.79618 42.17648
#
# Velocity S-wave (km/s) = 4.38077 3.58174 4.00125
# Velocity P-wave (km/s) = 6.27682 6.17380 6.22552
#
# Compressibility (1/GPa) = 0.02748648
#
# Stress axis : x y z
#
# Youngs Moduli (GPa) = 296.90067 89.17154 74.42161
#
# Poissons Ratio (x) = 0.03754 0.03505
# Poissons Ratio (y) = 0.12498 -0.04655
# Poissons Ratio (z) = 0.13984 -0.05577
#
# Static dielectric constant tensor:
#      x y z
#    x 2.137340 0.000000 0.000000 
#    y 0.000000 2.142990 0.000000 
#    z 0.000000 0.000000 2.059220 
# 
# From -- ./inp_files/45781.got.cif
#   From: 2010.05.17/outbox.cif.g08.bks.cpg/sg63_23_cif.got.tgz:45781.got - 2010.06.03 15:47:04.
