data_PCOD9469664
_publ_section_title
;
Structure prediction by ZEFSAII (Michael W. Deem and Ramdas Pophale) SiO2 
 PCOD9469664
Probable space group: C M C M
;
_chemical_formula_sum "Si O2"
_cell_formula_units_Z 96
_cell_length_a 23.199425
_cell_length_b 26.776941
_cell_length_c 8.992167
_cell_angle_alpha 90.000000
_cell_angle_beta 90.000000
_cell_angle_gamma 90.000000
_cell_volume 5586.020775
_symmetry_space_group_name_H-M "C M C M"
_symmetry_group_IT_number 63
_symmetry_cell_setting 'orthorhombic'
loop_
_space_group_symop_operation_xyz
x,y,z
-x,-y,1/2+z
x,-y,-z
-x,y,1/2-z
-x,-y,-z
x,y,1/2-z
-x,y,z
x,-y,1/2+z
1/2+x,1/2+y,z
1/2-x,1/2-y,1/2+z
1/2+x,1/2-y,-z
1/2-x,1/2+y,1/2-z
1/2-x,1/2-y,-z
1/2+x,1/2+y,1/2-z
1/2-x,1/2+y,z
1/2+x,1/2-y,1/2+z
loop_
_atom_site_type_symbol
_atom_site_label
_atom_site_fract_x
_atom_site_fract_y
_atom_site_fract_z
Si Si1 0.762729 0.300568 0.082641
Si Si2 0.144118 0.860807 0.082783
Si Si3 0.930865 0.776740 0.575467
Si Si4 0.669894 0.885816 0.573719
Si Si5 0.567211 0.837592 0.429167
Si Si6 0.784405 0.054093 0.428852
O O1 0.786747 0.294433 0.250000
O O2 0.702536 0.329007 0.095192
O O3 0.750000 0.250000 0.000000
O O4 0.802163 0.333902 0.978202
O O5 0.125788 0.875376 0.250000
O O6 0.099202 0.822424 0.009070
O O7 0.165948 0.908490 0.988777
O O8 0.915264 0.780209 0.750000
O O9 0.916418 0.719784 0.524664
O O10 0.000000 0.780836 0.563680
O O11 0.662878 0.889177 0.750000
O O12 0.607813 0.880685 0.496123
O O13 0.719934 0.925351 0.528861
O O14 0.571424 0.838613 0.250000
O O15 0.500000 0.844500 0.469011
O O16 0.786654 0.052649 0.250000
O O17 0.792080 0.000000 0.500000
#
# Coordination Sequence:
#
# PCOD9469664 Si02
#       6
#    16  16  16  16  16  16
#     4  10  19  29  43  66  97 130 162 199 242 291
#     4  10  20  32  48  72  99 128 164 203 245 294
#     4   9  18  32  49  71 102 139 174 205 239 282
#     4  10  20  32  48  72  99 128 162 202 249 298
#     4   9  18  32  50  73 103 140 176 207 242 286
#     4  10  21  37  56  76  98 125 160 205 257 307
#
# _framework density 17.185758
#
# number of rings (size 3 to 8) (size 9 to 14) (size 15 to 20)
#    0.000    2.333    0.000    4.000    0.000    8.000 
#    0.000    1.667    0.000    1.000    0.000    0.000 
#    0.000    0.000    0.000    0.000    0.000    0.000 
#
# Total GULP energy -267367.005704 kJ/mol
# GULP energy per Si atom -5570.145952 kJ/mol
# Density = 1.714664 g / cm^3
# Si number density = 17.185758 Si / 1000 Ang^3
#
#
#
# Elastic Constant Matrix: (Units=GPa)
#
#
# Indices 1 2 3 4 5 6 
#
# 1 41.6612 3.5060 10.6489 0.0000 0.0000 0.0000
# 2 3.5060 44.2227 21.2712 0.0000 0.0000 0.0000
# 3 10.6489 21.2712 44.6553 0.0000 0.0000 0.0000
# 4 0.0000 0.0000 0.0000 25.4132 0.0000 0.0000
# 5 0.0000 0.0000 0.0000 0.0000 28.0796 0.0000
# 6 0.0000 0.0000 0.0000 0.0000 0.0000 25.0436
#
#
#
# Elastic Compliance Matrix: (Units=1/GPa)
#
#
# Indices 1 2 3 4 5 6 
#
# 1 0.025608 0.001177 -0.006667 0.000000 0.000000 0.000000
# 2 0.001177 0.029388 -0.014279 0.000000 0.000000 0.000000
# 3 -0.006667 -0.014279 0.030786 0.000000 0.000000 0.000000
# 4 0.000000 0.000000 0.000000 0.039350 0.000000 0.000000
# 5 0.000000 0.000000 0.000000 0.000000 0.035613 0.000000
# 6 0.000000 0.000000 0.000000 0.000000 0.000000 0.039930
#
#
# Mechanical properties :
#
#
# Convention : Reuss Voigt Hill
#
# Bulk Modulus (GPa) = 21.62538 22.37684 22.00111
# Shear Modulus (GPa) = 19.55962 22.04814 20.80388
#
# Velocity S-wave (km/s) = 3.37728 3.58569 3.48304
# Velocity P-wave (km/s) = 5.27434 5.49470 5.38565
#
# Compressibility (1/GPa) = 0.04624196
#
# Stress axis : x y z
#
# Youngs Moduli (GPa) = 39.04982 34.02760 32.48277
#
# Poissons Ratio (x) = -0.04004 0.21657
# Poissons Ratio (y) = -0.04595 0.46383
# Poissons Ratio (z) = 0.26036 0.48589
#
# Static dielectric constant tensor:
#      x y z
#    x 1.604080 0.000000 0.000000 
#    y 0.000000 1.553590 0.000000 
#    z 0.000000 0.000000 1.604780 
# 
# From -- ./inp_files/10452.got.cif
#   From: 2010.05.17/outbox.cif.g08.bks.cpg/sg63_6_cif.got.tgz:10452.got - 2010.06.03 15:47:04.
