data_PCOD9469769
_publ_section_title
;
Structure prediction by ZEFSAII (Michael W. Deem and Ramdas Pophale) SiO2 
 PCOD9469769
Probable space group: C M C M
;
_chemical_formula_sum "Si O2"
_cell_formula_units_Z 80
_cell_length_a 28.405741
_cell_length_b 18.229235
_cell_length_c 7.628081
_cell_angle_alpha 90.000000
_cell_angle_beta 90.000000
_cell_angle_gamma 90.000000
_cell_volume 3949.934214
_symmetry_space_group_name_H-M "C M C M"
_symmetry_group_IT_number 63
_symmetry_cell_setting 'orthorhombic'
loop_
_space_group_symop_operation_xyz
x,y,z
-x,-y,1/2+z
x,-y,-z
-x,y,1/2-z
-x,-y,-z
x,y,1/2-z
-x,y,z
x,-y,1/2+z
1/2+x,1/2+y,z
1/2-x,1/2-y,1/2+z
1/2+x,1/2-y,-z
1/2-x,1/2+y,1/2-z
1/2-x,1/2-y,-z
1/2+x,1/2+y,1/2-z
1/2-x,1/2+y,z
1/2+x,1/2-y,1/2+z
loop_
_atom_site_type_symbol
_atom_site_label
_atom_site_fract_x
_atom_site_fract_y
_atom_site_fract_z
Si Si1 0.185230 0.881634 0.543214
Si Si2 0.917505 0.919788 0.959059
Si Si3 0.846668 0.279094 0.536839
Si Si4 0.949373 0.761252 0.044929
Si Si5 0.212149 0.418671 0.539587
O O1 0.185298 0.898443 0.750000
O O2 0.136473 0.914516 0.470976
O O3 0.180856 0.794065 0.520148
O O4 0.234506 0.909905 0.468914
O O5 0.916827 0.910269 0.750000
O O6 0.944057 0.849344 0.032784
O O7 0.936832 0.000000 0.000000
O O8 0.847541 0.278109 0.750000
O O9 0.900555 0.271025 0.472220
O O10 0.820691 0.352490 0.476393
O O11 0.950202 0.741373 0.250000
O O12 0.000000 0.739954 0.967273
O O13 0.194479 0.500000 0.500000
O O14 0.214517 0.410716 0.750000
#
# Coordination Sequence:
#
# PCOD9469769 Si02
#       5
#    16  16  16  16  16
#     4   9  18  31  47  69  96 126 157 186 220 266
#     4  10  19  30  45  67  96 126 155 187 223 266
#     4   9  18  32  50  71  93 119 154 193 229 270
#     4   9  18  33  51  68  87 116 154 194 236 277
#     4  10  20  32  47  70  98 125 154 187 225 271
#
# _framework density 20.253501
#
# number of rings (size 3 to 8) (size 9 to 14) (size 15 to 20)
#    0.000    2.600    0.000    1.800    0.000    3.200 
#    0.000    0.000    0.000    0.600    0.000    0.000 
#    0.000    0.000    0.000    0.000    0.000    0.000 
#
# Total GULP energy -223237.788111 kJ/mol
# GULP energy per Si atom -5580.944703 kJ/mol
# Density = 2.020740 g / cm^3
# Si number density = 20.253501 Si / 1000 Ang^3
#
#
#
# Elastic Constant Matrix: (Units=GPa)
#
#
# Indices 1 2 3 4 5 6 
#
# 1 86.0572 24.2166 -1.1037 0.0000 0.0000 0.0000
# 2 24.2166 73.2926 -19.7668 0.0000 0.0000 0.0000
# 3 -1.1037 -19.7668 42.3890 0.0000 0.0000 0.0000
# 4 0.0000 0.0000 0.0000 18.2812 0.0000 0.0000
# 5 0.0000 0.0000 0.0000 0.0000 1.3703 0.0000
# 6 0.0000 0.0000 0.0000 0.0000 0.0000 -3.5293
#
#
#
# Elastic Compliance Matrix: (Units=1/GPa)
#
#
# Indices 1 2 3 4 5 6 
#
# 1 0.012943 -0.004788 -0.001896 0.000000 0.000000 0.000000
# 2 -0.004788 0.017378 0.007979 0.000000 0.000000 0.000000
# 3 -0.001896 0.007979 0.027262 0.000000 0.000000 0.000000
# 4 0.000000 0.000000 0.000000 0.054701 0.000000 0.000000
# 5 0.000000 0.000000 0.000000 0.000000 0.729742 0.000000
# 6 0.000000 0.000000 0.000000 0.000000 0.000000 -0.283345
#
#
# Mechanical properties :
#
#
# Convention : Reuss Voigt Hill
#
# Bulk Modulus (GPa) = 16.61838 23.15901 19.88869
# Shear Modulus (GPa) = 8.67831 16.45063 12.56447
#
# Velocity S-wave (km/s) = 2.07223 2.85307 2.49341
# Velocity P-wave (km/s) = 3.73477 4.72363 4.25801
#
# Compressibility (1/GPa) = 0.06017435
#
# Stress axis : x y z
#
# Youngs Moduli (GPa) = 77.26086 57.54477 36.68051
#
# Poissons Ratio (x) = 0.27551 0.06953
# Poissons Ratio (y) = 0.36991 -0.29267
# Poissons Ratio (z) = 0.14646 -0.45915
#
# Static dielectric constant tensor:
#      x y z
#    x 1.766430 0.000000 0.000000 
#    y 0.000000 1.681230 0.000000 
#    z 0.000000 0.000000 1.741920 
# 
# From -- ./inp_files/11966.got.cif
#   From: 2010.05.17/outbox.cif.g08.bks.cpg/sg63_6_cif.got.tgz:11966.got - 2010.06.03 15:47:04.
