data_PCOD9469379
_publ_section_title
;
Structure prediction by ZEFSAII (Michael W. Deem and Ramdas Pophale) SiO2 
 PCOD9469379
Probable space group: C M C M
;
_chemical_formula_sum "Si O2"
_cell_formula_units_Z 116
_cell_length_a 27.123682
_cell_length_b 8.779874
_cell_length_c 27.813117
_cell_angle_alpha 90.000000
_cell_angle_beta 90.000000
_cell_angle_gamma 90.000000
_cell_volume 6623.485504
_symmetry_space_group_name_H-M "C M C M"
_symmetry_group_IT_number 63
_symmetry_cell_setting 'orthorhombic'
loop_
_space_group_symop_operation_xyz
x,y,z
-x,-y,1/2+z
x,-y,-z
-x,y,1/2-z
-x,-y,-z
x,y,1/2-z
-x,y,z
x,-y,1/2+z
1/2+x,1/2+y,z
1/2-x,1/2-y,1/2+z
1/2+x,1/2-y,-z
1/2-x,1/2+y,1/2-z
1/2-x,1/2-y,-z
1/2+x,1/2+y,1/2-z
1/2-x,1/2+y,z
1/2+x,1/2-y,1/2+z
loop_
_atom_site_type_symbol
_atom_site_label
_atom_site_fract_x
_atom_site_fract_y
_atom_site_fract_z
Si Si1 0.941699 0.654335 0.574856
Si Si2 0.214551 0.696868 0.191928
Si Si3 0.415571 0.306461 0.669927
Si Si4 0.686396 0.142706 0.691640
Si Si5 0.385716 0.348306 0.193075
Si Si6 0.060055 0.167123 0.983805
Si Si7 0.440516 0.828003 0.886818
Si Si8 0.500000 0.244571 0.750000
O O1 0.934030 0.781191 0.615652
O O2 0.922322 0.711144 0.523576
O O3 0.923399 0.494707 0.596169
O O4 0.000000 0.630725 0.567895
O O5 0.217787 0.688201 0.250000
O O6 0.267943 0.752085 0.175162
O O7 0.197345 0.530072 0.175508
O O8 0.171675 0.818776 0.181368
O O9 0.365637 0.209819 0.675860
O O10 0.403378 0.482237 0.680801
O O11 0.456750 0.251503 0.707678
O O12 0.685976 0.142785 0.750000
O O13 0.392354 0.323276 0.250000
O O14 0.416850 0.228175 0.162378
O O15 0.000000 0.168158 0.984956
O O16 0.073559 0.213758 0.929984
O O17 0.076216 0.000000 0.000000
O O18 0.500000 0.828780 0.881732
#
# Coordination Sequence:
#
# PCOD9469379 Si02
#       8
#    16  16  16  16  16  16  16   4
#     4  10  20  34  50  73 101 138 179 224 268 317
#     4   9  19  33  53  75 100 129 178 228 272 316
#     4  12  22  35  52  74 107 149 188 219 265 321
#     4  10  18  33  53  75  99 135 175 226 273 316
#     4  11  22  35  50  74 107 143 183 219 266 316
#     4   9  17  32  53  74  95 128 175 227 270 315
#     4  10  21  34  50  73 104 139 178 221 272 322
#     4  12  24  36  48  74 112 156 192 218 258 320
#
# _framework density 17.513437
#
# number of rings (size 3 to 8) (size 9 to 14) (size 15 to 20)
#    0.000    1.793    2.069    2.897    0.966    5.241 
#    1.241    0.000    0.000    0.828    0.000    0.966 
#    0.000    0.000    0.000    0.000    0.000    0.000 
#
# Total GULP energy -323045.296438 kJ/mol
# GULP energy per Si atom -5569.746490 kJ/mol
# Density = 1.747358 g / cm^3
# Si number density = 17.513437 Si / 1000 Ang^3
#
#
#
# Elastic Constant Matrix: (Units=GPa)
#
#
# Indices 1 2 3 4 5 6 
#
# 1 67.5948 19.1434 0.9162 0.0000 0.0000 0.0000
# 2 19.1434 73.2521 14.0232 0.0000 0.0000 0.0000
# 3 0.9162 14.0232 30.0197 0.0000 0.0000 0.0000
# 4 0.0000 0.0000 0.0000 22.2088 0.0000 0.0000
# 5 0.0000 0.0000 0.0000 0.0000 6.6126 0.0000
# 6 0.0000 0.0000 0.0000 0.0000 0.0000 19.3681
#
#
#
# Elastic Compliance Matrix: (Units=1/GPa)
#
#
# Indices 1 2 3 4 5 6 
#
# 1 0.016047 -0.004503 0.001614 0.000000 0.000000 0.000000
# 2 -0.004503 0.016256 -0.007456 0.000000 0.000000 0.000000
# 3 0.001614 -0.007456 0.036745 0.000000 0.000000 0.000000
# 4 0.000000 0.000000 0.000000 0.045027 0.000000 0.000000
# 5 0.000000 0.000000 0.000000 0.000000 0.151226 0.000000
# 6 0.000000 0.000000 0.000000 0.000000 0.000000 0.051631
#
#
# Mechanical properties :
#
#
# Convention : Reuss Voigt Hill
#
# Bulk Modulus (GPa) = 20.67921 26.55915 23.61918
# Shear Modulus (GPa) = 14.13458 18.75683 16.44571
#
# Velocity S-wave (km/s) = 2.84398 3.27616 3.06769
# Velocity P-wave (km/s) = 4.75579 5.43221 5.10522
#
# Compressibility (1/GPa) = 0.04835774
#
# Stress axis : x y z
#
# Youngs Moduli (GPa) = 62.31556 61.51738 27.21445
#
# Poissons Ratio (x) = 0.27699 -0.04391
# Poissons Ratio (y) = 0.28059 0.20291
# Poissons Ratio (z) = -0.10055 0.45868
#
# Static dielectric constant tensor:
#      x y z
#    x 1.583050 0.000000 0.000000 
#    y 0.000000 1.639210 0.000000 
#    z 0.000000 0.000000 1.593570 
# 
# From -- ./inp_files/70736.got.cif
#   From: 2010.05.17/outbox.cif.g08.bks.cpg/sg63_36_cif.got.tgz:70736.got - 2010.06.03 15:47:04.
