data_PCOD9469627
_publ_section_title
;
Structure prediction by ZEFSAII (Michael W. Deem and Ramdas Pophale) SiO2 
 PCOD9469627
Probable space group: C M C M
;
_chemical_formula_sum "Si O2"
_cell_formula_units_Z 112
_cell_length_a 30.986532
_cell_length_b 15.310663
_cell_length_c 15.686874
_cell_angle_alpha 90.000000
_cell_angle_beta 90.000000
_cell_angle_gamma 90.000000
_cell_volume 7442.234985
_symmetry_space_group_name_H-M "C M C M"
_symmetry_group_IT_number 63
_symmetry_cell_setting 'orthorhombic'
loop_
_space_group_symop_operation_xyz
x,y,z
-x,-y,1/2+z
x,-y,-z
-x,y,1/2-z
-x,-y,-z
x,y,1/2-z
-x,y,z
x,-y,1/2+z
1/2+x,1/2+y,z
1/2-x,1/2-y,1/2+z
1/2+x,1/2-y,-z
1/2-x,1/2+y,1/2-z
1/2-x,1/2-y,-z
1/2+x,1/2+y,1/2-z
1/2-x,1/2+y,z
1/2+x,1/2-y,1/2+z
loop_
_atom_site_type_symbol
_atom_site_label
_atom_site_fract_x
_atom_site_fract_y
_atom_site_fract_z
Si Si1 0.294818 0.904732 0.987978
Si Si2 0.824624 0.230044 0.906766
Si Si3 0.410872 0.644951 0.845550
Si Si4 0.117162 0.941891 0.847463
Si Si5 0.298842 0.627725 0.422307
Si Si6 0.952016 0.104259 0.018705
Si Si7 0.730642 0.803667 0.342754
O O1 0.321072 0.830887 0.936600
O O2 0.247729 0.913177 0.942955
O O3 0.284939 0.863766 0.080286
O O4 0.314552 0.000000 0.000000
O O5 0.868559 0.203432 0.861421
O O6 0.782027 0.209711 0.851872
O O7 0.817803 0.170506 0.991249
O O8 0.428798 0.661522 0.750000
O O9 0.396419 0.543236 0.847366
O O10 0.440713 0.651720 0.929548
O O11 0.115124 0.910360 0.750000
O O12 0.165477 0.935057 0.883530
O O13 0.085153 0.888459 0.909925
O O14 0.290102 0.708797 0.359446
O O15 0.000000 0.129307 0.048462
O O16 0.953066 0.000000 0.000000
O O17 0.719552 0.837919 0.250000
#
# Coordination Sequence:
#
# PCOD9469627 Si02
#       7
#    16  16  16  16  16  16  16
#     4   9  19  30  44  61  85 119 152 186 228 265
#     4   9  17  30  43  59  83 116 146 182 224 259
#     4  10  19  29  45  66  88 118 153 183 216 260
#     4  10  19  28  44  67  87 115 153 186 219 262
#     4   9  17  28  44  60  84 116 147 183 218 256
#     4   9  18  31  45  61  88 120 146 180 221 260
#     4   9  17  29  42  60  85 113 148 186 224 257
#
# _framework density 15.049242
#
# number of rings (size 3 to 8) (size 9 to 14) (size 15 to 20)
#    0.000    2.714    1.429    2.571    4.000    0.571 
#    0.000    6.429    0.000    0.000    0.000    0.000 
#    0.000    0.571    0.000    0.000    1.714    0.000 
#
# Total GULP energy -311858.284310 kJ/mol
# GULP energy per Si atom -5568.897934 kJ/mol
# Density = 1.501499 g / cm^3
# Si number density = 15.049242 Si / 1000 Ang^3
#
#
#
# Elastic Constant Matrix: (Units=GPa)
#
#
# Indices 1 2 3 4 5 6 
#
# 1 35.4639 -3.6649 21.7445 0.0000 0.0000 0.0000
# 2 -3.6649 34.2867 7.4242 0.0000 0.0000 0.0000
# 3 21.7445 7.4242 89.3798 0.0000 0.0000 0.0000
# 4 0.0000 0.0000 0.0000 10.7544 0.0000 0.0000
# 5 0.0000 0.0000 0.0000 0.0000 8.2627 0.0000
# 6 0.0000 0.0000 0.0000 0.0000 0.0000 8.6480
#
#
#
# Elastic Compliance Matrix: (Units=1/GPa)
#
#
# Indices 1 2 3 4 5 6 
#
# 1 0.034147 0.005549 -0.008768 0.000000 0.000000 0.000000
# 2 0.005549 0.030602 -0.003892 0.000000 0.000000 0.000000
# 3 -0.008768 -0.003892 0.013645 0.000000 0.000000 0.000000
# 4 0.000000 0.000000 0.000000 0.092986 0.000000 0.000000
# 5 0.000000 0.000000 0.000000 0.000000 0.121026 0.000000
# 6 0.000000 0.000000 0.000000 0.000000 0.000000 0.115634
#
#
# Mechanical properties :
#
#
# Convention : Reuss Voigt Hill
#
# Bulk Modulus (GPa) = 15.58341 23.34866 19.46603
# Shear Modulus (GPa) = 11.27009 14.44145 12.85577
#
# Velocity S-wave (km/s) = 2.73954 3.10112 2.92592
# Velocity P-wave (km/s) = 4.51488 5.32646 4.93737
#
# Compressibility (1/GPa) = 0.06417080
#
# Stress axis : x y z
#
# Youngs Moduli (GPa) = 29.28484 32.67799 73.28875
#
# Poissons Ratio (x) = -0.18132 0.64262
# Poissons Ratio (y) = -0.16249 0.28522
# Poissons Ratio (z) = 0.25678 0.12718
#
# Static dielectric constant tensor:
#      x y z
#    x 1.494110 0.000000 0.000000 
#    y 0.000000 1.491660 0.000000 
#    z 0.000000 0.000000 1.536570 
# 
# From -- ./inp_files/38690.got.cif
#   From: 2010.05.17/outbox.cif.g08.bks.cpg/sg63_20_cif.got.tgz:38690.got - 2010.06.03 15:47:04.
