data_PCOD9469222
_publ_section_title
;
Structure prediction by ZEFSAII (Michael W. Deem and Ramdas Pophale) SiO2 
 PCOD9469222
Probable space group: C M C M
;
_chemical_formula_sum "Si O2"
_cell_formula_units_Z 80
_cell_length_a 22.600738
_cell_length_b 23.900040
_cell_length_c 10.148482
_cell_angle_alpha 90.000000
_cell_angle_beta 90.000000
_cell_angle_gamma 90.000000
_cell_volume 5481.789243
_symmetry_space_group_name_H-M "C M C M"
_symmetry_group_IT_number 63
_symmetry_cell_setting 'orthorhombic'
loop_
_space_group_symop_operation_xyz
x,y,z
-x,-y,1/2+z
x,-y,-z
-x,y,1/2-z
-x,-y,-z
x,y,1/2-z
-x,y,z
x,-y,1/2+z
1/2+x,1/2+y,z
1/2-x,1/2-y,1/2+z
1/2+x,1/2-y,-z
1/2-x,1/2+y,1/2-z
1/2-x,1/2-y,-z
1/2+x,1/2+y,1/2-z
1/2-x,1/2+y,z
1/2+x,1/2-y,1/2+z
loop_
_atom_site_type_symbol
_atom_site_label
_atom_site_fract_x
_atom_site_fract_y
_atom_site_fract_z
Si Si1 0.777313 0.500000 0.500000
Si Si2 0.696660 0.729524 0.593500
Si Si3 0.628847 0.168185 0.495703
Si Si4 0.363258 0.007338 0.750000
Si Si5 0.069175 0.373930 0.250000
Si Si6 0.746542 0.385091 0.407495
Si Si7 0.429796 0.894500 0.750000
O O1 0.821131 0.498591 0.624548
O O2 0.739255 0.443906 0.480588
O O3 0.708641 0.739178 0.750000
O O4 0.750000 0.750000 0.500000
O O5 0.642326 0.768511 0.550268
O O6 0.696747 0.662568 0.574070
O O7 0.587564 0.161125 0.621907
O O8 0.691757 0.140530 0.537718
O O9 0.600125 0.133833 0.376910
O O10 0.413120 0.959784 0.750000
O O11 0.393434 0.068234 0.750000
O O12 0.000000 0.386966 0.250000
O O13 0.752638 0.394006 0.250000
O O14 0.500000 0.886418 0.750000
#
# Coordination Sequence:
#
# PCOD9469222 Si02
#       7
#     8  16  16   8   8  16   8
#     4  12  18  30  49  66  92 128 157 198 230 274
#     4   9  19  31  50  70  89 117 152 196 246 295
#     4  11  19  35  48  66  91 118 161 208 244 282
#     4  12  21  34  44  60  96 128 168 206 239 264
#     4  12  23  36  50  63  89 137 175 202 243 280
#     4  10  18  32  49  68  91 123 156 187 239 295
#     4  12  23  32  46  67  89 121 169 216 243 264
#
# _framework density 14.593775000000001
#
# number of rings (size 3 to 8) (size 9 to 14) (size 15 to 20)
#    0.000    1.200    7.000    0.900    1.400    0.000 
#    0.000    3.000    0.000    0.000    0.000    0.000 
#    0.000    0.000    0.000    5.400    0.000    0.000 
#
# Total GULP energy -222942.700294 kJ/mol
# GULP energy per Si atom -5573.567507 kJ/mol
# Density = 1.456056 g / cm^3
# Si number density = 14.593775 Si / 1000 Ang^3
#
#
#
# Elastic Constant Matrix: (Units=GPa)
#
#
# Indices 1 2 3 4 5 6 
#
# 1 32.5035 40.4323 22.8363 0.0000 0.0000 0.0000
# 2 40.4323 129.3492 44.3921 0.0000 0.0000 0.0000
# 3 22.8363 44.3921 114.0626 0.0000 0.0000 0.0000
# 4 0.0000 0.0000 0.0000 23.5333 0.0000 0.0000
# 5 0.0000 0.0000 0.0000 0.0000 32.7254 0.0000
# 6 0.0000 0.0000 0.0000 0.0000 0.0000 15.6694
#
#
#
# Elastic Compliance Matrix: (Units=1/GPa)
#
#
# Indices 1 2 3 4 5 6 
#
# 1 0.052486 -0.014773 -0.004759 0.000000 0.000000 0.000000
# 2 -0.014773 0.013081 -0.002133 0.000000 0.000000 0.000000
# 3 -0.004759 -0.002133 0.010550 0.000000 0.000000 0.000000
# 4 0.000000 0.000000 0.000000 0.042493 0.000000 0.000000
# 5 0.000000 0.000000 0.000000 0.000000 0.030557 0.000000
# 6 0.000000 0.000000 0.000000 0.000000 0.000000 0.063819
#
#
# Mechanical properties :
#
#
# Convention : Reuss Voigt Hill
#
# Bulk Modulus (GPa) = 30.49980 54.58187 42.54084
# Shear Modulus (GPa) = 18.70944 25.60260 22.15602
#
# Velocity S-wave (km/s) = 3.58441 4.19304 3.90061
# Velocity P-wave (km/s) = 6.17051 7.80539 7.03560
#
# Compressibility (1/GPa) = 0.03278710
#
# Stress axis : x y z
#
# Youngs Moduli (GPa) = 19.05271 76.44712 94.78596
#
# Poissons Ratio (x) = 1.12936 0.45105
# Poissons Ratio (y) = 0.28147 0.20221
# Poissons Ratio (z) = 0.09066 0.16308
#
# Static dielectric constant tensor:
#      x y z
#    x 1.448950 0.000000 0.000000 
#    y 0.000000 1.523280 0.000000 
#    z 0.000000 0.000000 1.506510 
# 
# From -- ./inp_files/8498.got.cif
#   From: 2010.05.17/outbox.cif.g08.bks.cpg/sg63_5_cif.got.tgz:8498.got - 2010.06.03 15:47:04.
