data_PCOD9469939
_publ_section_title
;
Structure prediction by ZEFSAII (Michael W. Deem and Ramdas Pophale) SiO2 
 PCOD9469939
Probable space group: C M C M
;
_chemical_formula_sum "Si O2"
_cell_formula_units_Z 96
_cell_length_a 19.739930
_cell_length_b 30.537979
_cell_length_c 7.792001
_cell_angle_alpha 90.000000
_cell_angle_beta 90.000000
_cell_angle_gamma 90.000000
_cell_volume 4697.155091
_symmetry_space_group_name_H-M "C M C M"
_symmetry_group_IT_number 63
_symmetry_cell_setting 'orthorhombic'
loop_
_space_group_symop_operation_xyz
x,y,z
-x,-y,1/2+z
x,-y,-z
-x,y,1/2-z
-x,-y,-z
x,y,1/2-z
-x,y,z
x,-y,1/2+z
1/2+x,1/2+y,z
1/2-x,1/2-y,1/2+z
1/2+x,1/2-y,-z
1/2-x,1/2+y,1/2-z
1/2-x,1/2-y,-z
1/2+x,1/2+y,1/2-z
1/2-x,1/2+y,z
1/2+x,1/2-y,1/2+z
loop_
_atom_site_type_symbol
_atom_site_label
_atom_site_fract_x
_atom_site_fract_y
_atom_site_fract_z
Si Si1 0.274663 0.798377 0.045714
Si Si2 0.212603 0.454690 0.455327
Si Si3 0.423983 0.167583 0.454110
Si Si4 0.071779 0.433029 0.451469
Si Si5 0.922551 0.949999 0.456900
Si Si6 0.811942 0.119991 0.540419
O O1 0.275846 0.803314 0.250000
O O2 0.217113 0.833041 0.981404
O O3 0.250000 0.750000 0.000000
O O4 0.352868 0.807829 0.990794
O O5 0.247082 0.500000 0.500000
O O6 0.209192 0.451445 0.250000
O O7 0.137768 0.453809 0.532494
O O8 0.252224 0.412653 0.513489
O O9 0.426151 0.161709 0.250000
O O10 0.500000 0.185737 0.503957
O O11 0.419869 0.119448 0.537244
O O12 0.069907 0.444347 0.250000
O O13 0.000000 0.445007 0.531314
O O14 0.921931 0.948003 0.250000
O O15 0.877723 0.908251 0.516543
O O16 0.000000 0.945820 0.518517
O O17 0.900415 0.000000 0.500000
O O18 0.816820 0.122149 0.750000
#
# Coordination Sequence:
#
# PCOD9469939 Si02
#       6
#    16  16  16  16  16  16
#     4  11  22  39  60  83 111 145 185 234 288 341
#     4  10  19  31  46  70 101 138 177 217 262 314
#     4  10  20  35  57  84 110 139 181 228 273 328
#     4   9  17  31  50  70  98 140 181 215 261 316
#     4   9  17  31  53  80 109 143 181 219 266 327
#     4   9  18  34  53  74 105 141 179 221 270 329
#
# _framework density 20.437904
#
# number of rings (size 3 to 8) (size 9 to 14) (size 15 to 20)
#    0.000    2.333    1.667    1.500    0.000    2.000 
#    0.000    2.500    0.000    3.000    0.000    0.000 
#    0.000    0.000    0.000    0.000    0.000    0.000 
#
# Total GULP energy -267294.292005 kJ/mol
# GULP energy per Si atom -5568.631083 kJ/mol
# Density = 2.039139 g / cm^3
# Si number density = 20.437904 Si / 1000 Ang^3
#
#
#
# Elastic Constant Matrix: (Units=GPa)
#
#
# Indices 1 2 3 4 5 6 
#
# 1 166.6967 74.3141 7.8427 0.0000 0.0000 0.0000
# 2 74.3141 146.3564 -4.1056 0.0000 0.0000 0.0000
# 3 7.8427 -4.1056 36.2905 0.0000 0.0000 0.0000
# 4 0.0000 0.0000 0.0000 17.6810 0.0000 0.0000
# 5 0.0000 0.0000 0.0000 0.0000 34.2048 0.0000
# 6 0.0000 0.0000 0.0000 0.0000 0.0000 55.4507
#
#
#
# Elastic Compliance Matrix: (Units=1/GPa)
#
#
# Indices 1 2 3 4 5 6 
#
# 1 0.007922 -0.004083 -0.002174 0.000000 0.000000 0.000000
# 2 -0.004083 0.008959 0.001896 0.000000 0.000000 0.000000
# 3 -0.002174 0.001896 0.028240 0.000000 0.000000 0.000000
# 4 0.000000 0.000000 0.000000 0.056558 0.000000 0.000000
# 5 0.000000 0.000000 0.000000 0.000000 0.029236 0.000000
# 6 0.000000 0.000000 0.000000 0.000000 0.000000 0.018034
#
#
# Mechanical properties :
#
#
# Convention : Reuss Voigt Hill
#
# Bulk Modulus (GPa) = 27.47389 56.16066 41.81728
# Shear Modulus (GPa) = 29.44594 39.55348 34.49971
#
# Velocity S-wave (km/s) = 3.79984 4.40398 4.11302
# Velocity P-wave (km/s) = 5.72045 7.30742 6.56208
#
# Compressibility (1/GPa) = 0.03639820
#
# Stress axis : x y z
#
# Youngs Moduli (GPa) = 126.23858 111.61808 35.41109
#
# Poissons Ratio (x) = 0.45576 0.07698
# Poissons Ratio (y) = 0.51546 -0.06714
# Poissons Ratio (z) = 0.27443 -0.21163
#
# Static dielectric constant tensor:
#      x y z
#    x 1.803440 0.000000 0.000000 
#    y 0.000000 1.666240 0.000000 
#    z 0.000000 0.000000 1.738930 
# 
# From -- ./inp_files/8631.got.cif
#   From: 2010.05.17/outbox.cif.g08.bks.cpg/sg63_5_cif.got.tgz:8631.got - 2010.06.03 15:47:04.
