data_PCOD9469073
_publ_section_title
;
Structure prediction by ZEFSAII (Michael W. Deem and Ramdas Pophale) SiO2 
 PCOD9469073
Probable space group: C M C M
;
_chemical_formula_sum "Si O2"
_cell_formula_units_Z 72
_cell_length_a 14.510001
_cell_length_b 30.654904
_cell_length_c 9.497316
_cell_angle_alpha 90.000000
_cell_angle_beta 90.000000
_cell_angle_gamma 90.000000
_cell_volume 4224.431683
_symmetry_space_group_name_H-M "C M C M"
_symmetry_group_IT_number 63
_symmetry_cell_setting 'orthorhombic'
loop_
_space_group_symop_operation_xyz
x,y,z
-x,-y,1/2+z
x,-y,-z
-x,y,1/2-z
-x,-y,-z
x,y,1/2-z
-x,y,z
x,-y,1/2+z
1/2+x,1/2+y,z
1/2-x,1/2-y,1/2+z
1/2+x,1/2-y,-z
1/2-x,1/2+y,1/2-z
1/2-x,1/2-y,-z
1/2+x,1/2+y,1/2-z
1/2-x,1/2+y,z
1/2+x,1/2-y,1/2+z
loop_
_atom_site_type_symbol
_atom_site_label
_atom_site_fract_x
_atom_site_fract_y
_atom_site_fract_z
Si Si1 0.500000 0.747906 0.083824
Si Si2 0.289642 0.861126 0.094976
Si Si3 0.182671 0.460206 0.083968
Si Si4 0.000000 0.436834 0.909924
Si Si5 0.000000 0.655615 0.981897
Si Si6 0.199803 0.211698 0.084110
O O1 0.500000 0.762234 0.250000
O O2 0.500000 0.792416 0.992279
O O3 0.591345 0.719765 0.061452
O O4 0.257920 0.846833 0.250000
O O5 0.271256 0.912534 0.077755
O O6 0.400697 0.853130 0.091053
O O7 0.240046 0.832917 0.977187
O O8 0.168638 0.470056 0.250000
O O9 0.229447 0.500000 0.000000
O O10 0.087774 0.452327 0.998682
O O11 0.000000 0.453276 0.750000
O O12 0.000000 0.383870 0.906206
O O13 0.218203 0.215018 0.250000
O O14 0.250000 0.250000 0.000000
#
# Coordination Sequence:
#
# PCOD9469073 Si02
#       6
#     8  16  16   8   8  16
#     4  10  20  36  53  71 102 143 175 205 257 313
#     4  10  20  35  53  75 103 138 174 213 260 306
#     4  10  20  33  50  70  98 135 172 211 261 313
#     4  10  20  31  44  68 102 135 177 219 254 299
#     4  10  18  31  50  71 103 144 177 208 251 310
#     4  11  22  36  54  76 103 137 175 214 255 304
#
# _framework density 17.043711999999999
#
# number of rings (size 3 to 8) (size 9 to 14) (size 15 to 20)
#    0.000    1.778    2.222    3.000    0.000    8.000 
#    0.000    2.222    0.000    0.000    0.000    0.778 
#    0.000    0.000    0.000    0.000    0.000    0.000 
#
# Total GULP energy -200570.757769 kJ/mol
# GULP energy per Si atom -5571.409938 kJ/mol
# Density = 1.700492 g / cm^3
# Si number density = 17.043712 Si / 1000 Ang^3
#
#
#
# Elastic Constant Matrix: (Units=GPa)
#
#
# Indices 1 2 3 4 5 6 
#
# 1 67.7722 33.8497 41.7600 0.0000 0.0000 0.0000
# 2 33.8497 111.0809 61.7584 0.0000 0.0000 0.0000
# 3 41.7600 61.7584 133.4278 0.0000 0.0000 0.0000
# 4 0.0000 0.0000 0.0000 28.3636 0.0000 0.0000
# 5 0.0000 0.0000 0.0000 0.0000 3.5053 0.0000
# 6 0.0000 0.0000 0.0000 0.0000 0.0000 17.1976
#
#
#
# Elastic Compliance Matrix: (Units=1/GPa)
#
#
# Indices 1 2 3 4 5 6 
#
# 1 0.019177 -0.003375 -0.004440 0.000000 0.000000 0.000000
# 2 -0.003375 0.012716 -0.004829 0.000000 0.000000 0.000000
# 3 -0.004440 -0.004829 0.011119 0.000000 0.000000 0.000000
# 4 0.000000 0.000000 0.000000 0.035256 0.000000 0.000000
# 5 0.000000 0.000000 0.000000 0.000000 0.285282 0.000000
# 6 0.000000 0.000000 0.000000 0.000000 0.000000 0.058148
#
#
# Mechanical properties :
#
#
# Convention : Reuss Voigt Hill
#
# Bulk Modulus (GPa) = 56.42172 65.22414 60.82293
# Shear Modulus (GPa) = 11.04009 21.47415 16.25712
#
# Velocity S-wave (km/s) = 2.54786 3.55342 3.09179
# Velocity P-wave (km/s) = 6.46772 7.42883 6.96488
#
# Compressibility (1/GPa) = 0.01772367
#
# Stress axis : x y z
#
# Youngs Moduli (GPa) = 52.14633 78.64088 89.93236
#
# Poissons Ratio (x) = 0.26545 0.39926
# Poissons Ratio (y) = 0.17602 0.43431
# Poissons Ratio (z) = 0.23151 0.37978
#
# Static dielectric constant tensor:
#      x y z
#    x 1.557600 0.000000 0.000000 
#    y 0.000000 1.626990 0.000000 
#    z 0.000000 0.000000 1.576810 
# 
# From -- ./inp_files/4994.got.cif
#   From: 2010.05.17/outbox.cif.g08.bks.cpg/sg63_3_cif.got.tgz:4994.got - 2010.06.03 15:47:04.
