data_PCOD9469461
_publ_section_title
;
Structure prediction by ZEFSAII (Michael W. Deem and Ramdas Pophale) SiO2 
 PCOD9469461
Probable space group: C M C M
;
_chemical_formula_sum "Si O2"
_cell_formula_units_Z 68
_cell_length_a 17.033943
_cell_length_b 9.784235
_cell_length_c 16.073864
_cell_angle_alpha 90.000000
_cell_angle_beta 90.000000
_cell_angle_gamma 90.000000
_cell_volume 2678.936098
_symmetry_space_group_name_H-M "C M C M"
_symmetry_group_IT_number 63
_symmetry_cell_setting 'orthorhombic'
loop_
_space_group_symop_operation_xyz
x,y,z
-x,-y,1/2+z
x,-y,-z
-x,y,1/2-z
-x,-y,-z
x,y,1/2-z
-x,y,z
x,-y,1/2+z
1/2+x,1/2+y,z
1/2-x,1/2-y,1/2+z
1/2+x,1/2-y,-z
1/2-x,1/2+y,1/2-z
1/2-x,1/2-y,-z
1/2+x,1/2+y,1/2-z
1/2-x,1/2+y,z
1/2+x,1/2-y,1/2+z
loop_
_atom_site_type_symbol
_atom_site_label
_atom_site_fract_x
_atom_site_fract_y
_atom_site_fract_z
Si Si1 0.117682 0.391032 0.096757
Si Si2 0.913548 0.317443 0.848680
Si Si3 0.500000 0.835194 0.250000
Si Si4 0.586358 0.394256 0.924753
Si Si5 0.790101 0.075797 0.653916
O O1 0.092159 0.549019 0.093371
O O2 0.069360 0.342175 0.178091
O O3 0.098047 0.258865 0.041376
O O4 0.211240 0.404137 0.102667
O O5 0.909845 0.363900 0.750000
O O6 0.846548 0.205845 0.857715
O O7 0.000000 0.254760 0.858762
O O8 0.500000 0.408278 0.884122
O O9 0.658662 0.442113 0.867984
O O10 0.588263 0.500000 0.000000
O O11 0.766446 0.067122 0.750000
#
# Coordination Sequence:
#
# PCOD9469461 Si02
#       5
#    16  16   4  16  16
#     4  12  21  39  65  91 128 161 211 256 320 387
#     4  10  18  34  55  88 123 154 191 250 315 369
#     4  12  20  36  66 102 120 164 206 266 316 396
#     4  11  26  45  63  90 132 178 218 258 313 383
#     4  11  24  37  64 100 128 154 207 273 324 365
#
# _framework density 25.383210999999999
#
# number of rings (size 3 to 8) (size 9 to 14) (size 15 to 20)
#    0.000    0.941    4.706    2.118    1.647    4.235 
#    0.000    1.176    0.000    4.235    0.000    0.000 
#    0.000    0.000    0.000    0.000    0.000    0.000 
#
# Total GULP energy -189682.317254 kJ/mol
# GULP energy per Si atom -5578.891684 kJ/mol
# Density = 2.532544 g / cm^3
# Si number density = 25.383211 Si / 1000 Ang^3
#
#
#
# Elastic Constant Matrix: (Units=GPa)
#
#
# Indices 1 2 3 4 5 6 
#
# 1 198.3147 41.0437 -7.0360 0.0000 0.0000 0.0000
# 2 41.0437 152.1626 32.2765 0.0000 0.0000 0.0000
# 3 -7.0360 32.2765 25.6722 0.0000 0.0000 0.0000
# 4 0.0000 0.0000 0.0000 24.7246 0.0000 0.0000
# 5 0.0000 0.0000 0.0000 0.0000 -4.2937 0.0000
# 6 0.0000 0.0000 0.0000 0.0000 0.0000 42.1667
#
#
#
# Elastic Compliance Matrix: (Units=1/GPa)
#
#
# Indices 1 2 3 4 5 6 
#
# 1 0.005744 -0.002568 0.004804 0.000000 0.000000 0.000000
# 2 -0.002568 0.010110 -0.013415 0.000000 0.000000 0.000000
# 3 0.004804 -0.013415 0.057135 0.000000 0.000000 0.000000
# 4 0.000000 0.000000 0.000000 0.040445 0.000000 0.000000
# 5 0.000000 0.000000 0.000000 0.000000 -0.232899 0.000000
# 6 0.000000 0.000000 0.000000 0.000000 0.000000 0.023715
#
#
# Mechanical properties :
#
#
# Convention : Reuss Voigt Hill
#
# Bulk Modulus (GPa) = 19.75105 56.52420 38.13763
# Shear Modulus (GPa) = -88.47763 33.17722 -27.65021
#
# Velocity S-wave (km/s) = -5.91037 3.61924 -3.30405
# Velocity P-wave (km/s) = 6.22724 6.30729 0.70830
#
# Compressibility (1/GPa) = 0.05063022
#
# Stress axis : x y z
#
# Youngs Moduli (GPa) = 174.08013 98.90889 17.50225
#
# Poissons Ratio (x) = 0.25404 -0.08407
# Poissons Ratio (y) = 0.44711 0.23480
# Poissons Ratio (z) = -0.83620 1.32688
#
# Static dielectric constant tensor:
#      x y z
#    x 1.903220 0.000000 0.000000 
#    y 0.000000 2.078130 0.000000 
#    z 0.000000 0.000000 2.106990 
# 
# From -- ./inp_files/55125.got.cif
#   From: 2010.05.17/outbox.cif.g08.bks.cpg/sg63_28_cif.got.tgz:55125.got - 2010.06.03 15:47:04.
