data_PCOD9469846
_publ_section_title
;
Structure prediction by ZEFSAII (Michael W. Deem and Ramdas Pophale) SiO2 
 PCOD9469846
Probable space group: C M C M
;
_chemical_formula_sum "Si O2"
_cell_formula_units_Z 96
_cell_length_a 24.468740
_cell_length_b 26.272680
_cell_length_c 7.711315
_cell_angle_alpha 90.000000
_cell_angle_beta 90.000000
_cell_angle_gamma 90.000000
_cell_volume 4957.291149
_symmetry_space_group_name_H-M "C M C M"
_symmetry_group_IT_number 63
_symmetry_cell_setting 'orthorhombic'
loop_
_space_group_symop_operation_xyz
x,y,z
-x,-y,1/2+z
x,-y,-z
-x,y,1/2-z
-x,-y,-z
x,y,1/2-z
-x,y,z
x,-y,1/2+z
1/2+x,1/2+y,z
1/2-x,1/2-y,1/2+z
1/2+x,1/2-y,-z
1/2-x,1/2+y,1/2-z
1/2-x,1/2-y,-z
1/2+x,1/2+y,1/2-z
1/2-x,1/2+y,z
1/2+x,1/2-y,1/2+z
loop_
_atom_site_type_symbol
_atom_site_label
_atom_site_fract_x
_atom_site_fract_y
_atom_site_fract_z
Si Si1 0.616941 0.345889 0.456791
Si Si2 0.188722 0.558163 0.458547
Si Si3 0.117706 0.652520 0.037539
Si Si4 0.812433 0.057920 0.455709
Si Si5 0.000000 0.809621 0.462386
Si Si6 0.500000 0.809417 0.538384
Si Si7 0.313623 0.749425 0.541663
O O1 0.613946 0.338976 0.250000
O O2 0.644308 0.400247 0.486578
O O3 0.555530 0.336790 0.522455
O O4 0.656445 0.301224 0.525552
O O5 0.173983 0.500000 0.500000
O O6 0.190678 0.562589 0.250000
O O7 0.146026 0.600326 0.521373
O O8 0.250725 0.567409 0.525630
O O9 0.117285 0.652123 0.250000
O O10 0.055651 0.663121 0.981883
O O11 0.155032 0.700092 0.981189
O O12 0.808916 0.061763 0.250000
O O13 0.827505 0.000000 0.500000
O O14 0.000000 0.750068 0.513204
O O15 0.000000 0.810173 0.250000
O O16 0.500000 0.809329 0.750000
O O17 0.318371 0.749359 0.750000
O O18 0.250000 0.750000 0.500000
#
# Coordination Sequence:
#
# PCOD9469846 Si02
#       7
#    16  16  16  16   8   8  16
#     4  10  19  32  52  77 103 130 165 208 255 303
#     4   9  18  32  50  72  99 131 166 206 249 295
#     4   9  16  28  47  72  99 128 166 206 243 288
#     4  10  20  35  54  75 102 134 169 207 251 301
#     4   9  16  30  50  75 102 132 167 206 249 296
#     4   9  14  26  49  73  97 130 170 206 239 284
#     4  10  19  30  47  73 103 130 161 205 254 302
#
# _framework density 19.365414000000001
#
# number of rings (size 3 to 8) (size 9 to 14) (size 15 to 20)
#    0.000    2.500    1.667    1.500    0.000    2.667 
#    0.000    2.083    0.000    0.000    0.000    1.750 
#    0.000    0.000    0.000    0.000    0.000    0.000 
#
# Total GULP energy -267868.743412 kJ/mol
# GULP energy per Si atom -5580.598821 kJ/mol
# Density = 1.932134 g / cm^3
# Si number density = 19.365414 Si / 1000 Ang^3
#
#
#
# Elastic Constant Matrix: (Units=GPa)
#
#
# Indices 1 2 3 4 5 6 
#
# 1 213.3424 139.6598 7.4520 0.0000 0.0000 0.0000
# 2 139.6598 171.3023 1.3909 0.0000 0.0000 0.0000
# 3 7.4520 1.3909 28.7700 0.0000 0.0000 0.0000
# 4 0.0000 0.0000 0.0000 13.4586 0.0000 0.0000
# 5 0.0000 0.0000 0.0000 0.0000 9.5872 0.0000
# 6 0.0000 0.0000 0.0000 0.0000 0.0000 27.3549
#
#
#
# Elastic Compliance Matrix: (Units=1/GPa)
#
#
# Indices 1 2 3 4 5 6 
#
# 1 0.010195 -0.008293 -0.002240 0.000000 0.000000 0.000000
# 2 -0.008293 0.012586 0.001540 0.000000 0.000000 0.000000
# 3 -0.002240 0.001540 0.035264 0.000000 0.000000 0.000000
# 4 0.000000 0.000000 0.000000 0.074302 0.000000 0.000000
# 5 0.000000 0.000000 0.000000 0.000000 0.104306 0.000000
# 6 0.000000 0.000000 0.000000 0.000000 0.000000 0.036557
#
#
# Mechanical properties :
#
#
# Convention : Reuss Voigt Hill
#
# Bulk Modulus (GPa) = 24.96345 78.93556 51.94951
# Shear Modulus (GPa) = 16.41774 27.74093 22.07933
#
# Velocity S-wave (km/s) = 2.91484 3.78894 3.38026
# Velocity P-wave (km/s) = 4.92413 7.74539 6.48992
#
# Compressibility (1/GPa) = 0.04005856
#
# Stress axis : x y z
#
# Youngs Moduli (GPa) = 98.09210 79.45050 28.35745
#
# Poissons Ratio (x) = 0.65890 0.06351
# Poissons Ratio (y) = 0.81350 -0.04366
# Poissons Ratio (z) = 0.21969 -0.12232
#
# Static dielectric constant tensor:
#      x y z
#    x 1.671850 0.000000 0.000000 
#    y 0.000000 1.632680 0.000000 
#    z 0.000000 0.000000 1.726260 
# 
# From -- ./inp_files/10541.got.cif
#   From: 2010.05.17/outbox.cif.g08.bks.cpg/sg63_6_cif.got.tgz:10541.got - 2010.06.03 15:47:04.
