data_PCOD9469654
_publ_section_title
;
Structure prediction by ZEFSAII (Michael W. Deem and Ramdas Pophale) SiO2 
 PCOD9469654
Probable space group: C M C M
;
_chemical_formula_sum "Si O2"
_cell_formula_units_Z 80
_cell_length_a 28.051230
_cell_length_b 19.806636
_cell_length_c 8.810212
_cell_angle_alpha 90.000000
_cell_angle_beta 90.000000
_cell_angle_gamma 90.000000
_cell_volume 4894.958210
_symmetry_space_group_name_H-M "C M C M"
_symmetry_group_IT_number 63
_symmetry_cell_setting 'orthorhombic'
loop_
_space_group_symop_operation_xyz
x,y,z
-x,-y,1/2+z
x,-y,-z
-x,y,1/2-z
-x,-y,-z
x,y,1/2-z
-x,y,z
x,-y,1/2+z
1/2+x,1/2+y,z
1/2-x,1/2-y,1/2+z
1/2+x,1/2-y,-z
1/2-x,1/2+y,1/2-z
1/2-x,1/2-y,-z
1/2+x,1/2+y,1/2-z
1/2-x,1/2+y,z
1/2+x,1/2-y,1/2+z
loop_
_atom_site_type_symbol
_atom_site_label
_atom_site_fract_x
_atom_site_fract_y
_atom_site_fract_z
Si Si1 0.689950 0.066542 0.079006
Si Si2 0.701800 0.285183 0.430471
Si Si3 0.696695 0.431447 0.578800
Si Si4 0.363586 0.821413 0.428558
Si Si5 0.444844 0.074243 0.932233
O O1 0.671090 0.078148 0.250000
O O2 0.746322 0.058729 0.092729
O O3 0.678776 0.126229 0.964300
O O4 0.670058 0.000000 0.000000
O O5 0.707142 0.282380 0.250000
O O6 0.750000 0.250000 0.500000
O O7 0.693556 0.361637 0.487034
O O8 0.654886 0.243648 0.482575
O O9 0.677977 0.500000 0.500000
O O10 0.677521 0.423761 0.750000
O O11 0.367825 0.807003 0.250000
O O12 0.409612 0.865062 0.480562
O O13 0.439848 0.068986 0.750000
O O14 0.500000 0.090270 0.968239
O O15 0.435060 0.000000 0.000000
#
# Coordination Sequence:
#
# PCOD9469654 Si02
#       5
#    16  16  16  16  16
#     4  10  19  29  43  63  91 124 162 205 244 290
#     4  12  23  35  50  70  99 132 168 211 255 301
#     4  10  20  34  50  68  93 128 165 203 244 291
#     4  11  21  32  49  70  96 129 167 210 255 303
#     4   9  19  35  53  74 101 134 172 215 261 307
#
# _framework density 16.343347000000001
#
# number of rings (size 3 to 8) (size 9 to 14) (size 15 to 20)
#    0.000    1.600    2.000    4.200    0.000    4.800 
#    0.000    0.000    0.000    0.000    0.000    0.000 
#    0.000    0.800    0.000    2.200    0.000    3.200 
#
# Total GULP energy -222868.464964 kJ/mol
# GULP energy per Si atom -5571.711624 kJ/mol
# Density = 1.630615 g / cm^3
# Si number density = 16.343347 Si / 1000 Ang^3
#
#
#
# Elastic Constant Matrix: (Units=GPa)
#
#
# Indices 1 2 3 4 5 6 
#
# 1 59.8859 37.5313 31.3855 0.0000 0.0000 0.0000
# 2 37.5313 135.1151 59.6934 0.0000 0.0000 0.0000
# 3 31.3855 59.6934 101.7342 0.0000 0.0000 0.0000
# 4 0.0000 0.0000 0.0000 26.8104 0.0000 0.0000
# 5 0.0000 0.0000 0.0000 0.0000 11.0353 0.0000
# 6 0.0000 0.0000 0.0000 0.0000 0.0000 1.7358
#
#
#
# Elastic Compliance Matrix: (Units=1/GPa)
#
#
# Indices 1 2 3 4 5 6 
#
# 1 0.021481 -0.004103 -0.004220 0.000000 0.000000 0.000000
# 2 -0.004103 0.010775 -0.005056 0.000000 0.000000 0.000000
# 3 -0.004220 -0.005056 0.014098 0.000000 0.000000 0.000000
# 4 0.000000 0.000000 0.000000 0.037299 0.000000 0.000000
# 5 0.000000 0.000000 0.000000 0.000000 0.090619 0.000000
# 6 0.000000 0.000000 0.000000 0.000000 0.000000 0.576093
#
#
# Mechanical properties :
#
#
# Convention : Reuss Voigt Hill
#
# Bulk Modulus (GPa) = 51.02985 61.55061 56.29023
# Shear Modulus (GPa) = 6.38037 19.12465 12.75251
#
# Velocity S-wave (km/s) = 1.97799 3.42450 2.79639
# Velocity P-wave (km/s) = 6.04218 7.30609 6.70399
#
# Compressibility (1/GPa) = 0.01959637
#
# Stress axis : x y z
#
# Youngs Moduli (GPa) = 46.55252 92.81095 70.93078
#
# Poissons Ratio (x) = 0.38076 0.29931
# Poissons Ratio (y) = 0.19099 0.35866
# Poissons Ratio (z) = 0.19644 0.46929
#
# Static dielectric constant tensor:
#      x y z
#    x 1.564820 0.000000 0.000000 
#    y 0.000000 1.405630 0.000000 
#    z 0.000000 0.000000 1.579980 
# 
# From -- ./inp_files/14030.got.cif
#   From: 2010.05.17/outbox.cif.g08.bks.cpg/sg63_8_cif.got.tgz:14030.got - 2010.06.03 15:47:04.
