data_PCOD9469081
_publ_section_title
;
Structure prediction by ZEFSAII (Michael W. Deem and Ramdas Pophale) SiO2 
 PCOD9469081
Probable space group: C M C M
;
_chemical_formula_sum "Si O2"
_cell_formula_units_Z 128
_cell_length_a 11.427619
_cell_length_b 22.619103
_cell_length_c 26.555525
_cell_angle_alpha 90.000000
_cell_angle_beta 90.000000
_cell_angle_gamma 90.000000
_cell_volume 6864.138257
_symmetry_space_group_name_H-M "C M C M"
_symmetry_group_IT_number 63
_symmetry_cell_setting 'orthorhombic'
loop_
_space_group_symop_operation_xyz
x,y,z
-x,-y,1/2+z
x,-y,-z
-x,y,1/2-z
-x,-y,-z
x,y,1/2-z
-x,y,z
x,-y,1/2+z
1/2+x,1/2+y,z
1/2-x,1/2-y,1/2+z
1/2+x,1/2-y,-z
1/2-x,1/2+y,1/2-z
1/2-x,1/2-y,-z
1/2+x,1/2+y,1/2-z
1/2-x,1/2+y,z
1/2+x,1/2-y,1/2+z
loop_
_atom_site_type_symbol
_atom_site_label
_atom_site_fract_x
_atom_site_fract_y
_atom_site_fract_z
Si Si1 0.271494 0.681585 0.387802
Si Si2 0.135832 0.911770 0.808296
Si Si3 0.128236 0.213062 0.491307
Si Si4 0.860358 0.306442 0.132745
Si Si5 0.728246 0.493676 0.382293
Si Si6 0.765796 0.114637 0.551070
Si Si7 0.860958 0.415383 0.304263
Si Si8 0.863663 0.591848 0.446741
O O1 0.302457 0.639281 0.341222
O O2 0.361288 0.684753 0.435412
O O3 0.279927 0.748621 0.368928
O O4 0.159820 0.652782 0.415714
O O5 0.178094 0.918349 0.750000
O O6 0.148159 0.970260 0.843126
O O7 0.000000 0.895936 0.805602
O O8 0.250000 0.250000 0.500000
O O9 0.137776 0.160444 0.531399
O O10 0.000000 0.243225 0.495239
O O11 0.823210 0.347853 0.085991
O O12 0.835427 0.347979 0.180404
O O13 0.000000 0.292604 0.131138
O O14 0.683236 0.441503 0.418879
O O15 0.817598 0.459443 0.346404
O O16 0.794517 0.541493 0.416379
O O17 0.693507 0.095635 0.501765
O O18 0.809855 0.430129 0.250000
O O19 0.000000 0.419946 0.302427
O O20 0.000000 0.579010 0.449847
#
# Coordination Sequence:
#
# PCOD9469081 Si02
#       8
#    16  16  16  16  16  16  16  16
#     4  10  21  36  54  80 113 146 181 234 286 332
#     4  10  21  37  58  80 103 140 187 233 283 337
#     4  11  22  36  56  83 117 155 191 229 282 343
#     4  10  18  31  50  74 106 141 179 229 283 334
#     4  10  20  35  54  77 110 140 182 231 284 329
#     4  10  21  34  51  80 111 147 185 226 278 335
#     4   9  18  31  50  76 103 134 174 226 288 342
#     4  10  21  35  53  80 113 152 194 232 274 338
#
# _framework density 18.647642999999999
#
# number of rings (size 3 to 8) (size 9 to 14) (size 15 to 20)
#    0.000    2.000    1.250    2.625    0.000    5.000 
#    0.000    1.250    0.000    7.875    0.000    0.000 
#    0.000    0.000    0.000    0.000    0.000    0.000 
#
# Total GULP energy -356374.831063 kJ/mol
# GULP energy per Si atom -5568.356735 kJ/mol
# Density = 1.860520 g / cm^3
# Si number density = 18.647643 Si / 1000 Ang^3
#
#
#
# Elastic Constant Matrix: (Units=GPa)
#
#
# Indices 1 2 3 4 5 6 
#
# 1 45.4024 3.8613 24.0948 0.0000 0.0000 0.0000
# 2 3.8613 81.6792 32.2230 0.0000 0.0000 0.0000
# 3 24.0948 32.2230 103.7004 0.0000 0.0000 0.0000
# 4 0.0000 0.0000 0.0000 649.5371 0.0000 0.0000
# 5 0.0000 0.0000 0.0000 0.0000 9.4629 0.0000
# 6 0.0000 0.0000 0.0000 0.0000 0.0000 17.4107
#
#
#
# Elastic Compliance Matrix: (Units=1/GPa)
#
#
# Indices 1 2 3 4 5 6 
#
# 1 0.025239 0.001277 -0.006261 0.000000 0.000000 0.000000
# 2 0.001277 0.014018 -0.004653 0.000000 0.000000 0.000000
# 3 -0.006261 -0.004653 0.012544 0.000000 0.000000 0.000000
# 4 0.000000 0.000000 0.000000 0.001540 0.000000 0.000000
# 5 0.000000 0.000000 0.000000 0.000000 0.105676 0.000000
# 6 0.000000 0.000000 0.000000 0.000000 0.000000 0.057436
#
#
# Mechanical properties :
#
#
# Convention : Reuss Voigt Hill
#
# Bulk Modulus (GPa) = 30.74316 39.01557 34.87937
# Shear Modulus (GPa) = 20.27827 146.65564 83.46696
#
# Velocity S-wave (km/s) = 3.30122 8.87786 6.69755
# Velocity P-wave (km/s) = 5.57251 11.22749 8.86311
#
# Compressibility (1/GPa) = 0.03252756
#
# Stress axis : x y z
#
# Youngs Moduli (GPa) = 39.62058 71.33621 79.72160
#
# Poissons Ratio (x) = -0.09109 0.49915
# Poissons Ratio (y) = -0.05059 0.37091
# Poissons Ratio (z) = 0.24807 0.33190
#
# Static dielectric constant tensor:
#      x y z
#    x 1.641730 0.000000 0.000000 
#    y 0.000000 1.692830 0.000000 
#    z 0.000000 0.000000 1.674070 
# 
# From -- ./inp_files/62029.got.cif
#   From: 2010.05.17/outbox.cif.g08.bks.cpg/sg63_32_cif.got.tgz:62029.got - 2010.06.03 15:47:04.
