data_PCOD9469327
_publ_section_title
;
Structure prediction by ZEFSAII (Michael W. Deem and Ramdas Pophale) SiO2 
 PCOD9469327
Probable space group: C M C M
;
_chemical_formula_sum "Si O2"
_cell_formula_units_Z 96
_cell_length_a 7.637038
_cell_length_b 25.619214
_cell_length_c 24.422996
_cell_angle_alpha 90.000000
_cell_angle_beta 90.000000
_cell_angle_gamma 90.000000
_cell_volume 4778.479105
_symmetry_space_group_name_H-M "C M C M"
_symmetry_group_IT_number 63
_symmetry_cell_setting 'orthorhombic'
loop_
_space_group_symop_operation_xyz
x,y,z
-x,-y,1/2+z
x,-y,-z
-x,y,1/2-z
-x,-y,-z
x,y,1/2-z
-x,y,z
x,-y,1/2+z
1/2+x,1/2+y,z
1/2-x,1/2-y,1/2+z
1/2+x,1/2-y,-z
1/2-x,1/2+y,1/2-z
1/2-x,1/2-y,-z
1/2+x,1/2+y,1/2-z
1/2-x,1/2+y,z
1/2+x,1/2-y,1/2+z
loop_
_atom_site_type_symbol
_atom_site_label
_atom_site_fract_x
_atom_site_fract_y
_atom_site_fract_z
Si Si1 0.199465 0.602288 0.750000
Si Si2 0.713721 0.828062 0.057208
Si Si3 0.206437 0.763765 0.635963
Si Si4 0.285654 0.926901 0.131204
Si Si5 0.288738 0.141903 0.062887
Si Si6 0.286147 0.977276 0.941039
Si Si7 0.193902 0.217254 0.750000
O O1 0.278183 0.583683 0.692594
O O2 0.190970 0.665189 0.750000
O O3 0.000000 0.582090 0.750000
O O4 0.500000 0.826866 0.055949
O O5 0.774709 0.777440 0.090595
O O6 0.765695 0.879481 0.091221
O O7 0.773615 0.833120 0.994628
O O8 0.237560 0.821233 0.612871
O O9 0.281478 0.750779 0.695348
O O10 0.000000 0.754690 0.640850
O O11 0.500000 0.925713 0.131835
O O12 0.231274 0.981789 0.105282
O O13 0.500000 0.140566 0.060737
O O14 0.227396 0.082145 0.066646
O O15 0.500000 0.976620 0.941245
O O16 0.232580 0.000000 0.000000
O O17 0.000000 0.194932 0.750000
#
# Coordination Sequence:
#
# PCOD9469327 Si02
#       7
#     8  16  16  16  16  16   8
#     4  10  18  32  55  78 107 137 172 220 270 329
#     4   9  16  28  51  79 108 139 178 223 267 318
#     4  11  22  37  55  77 108 147 183 217 270 337
#     4   9  15  26  48  79 105 135 180 223 267 319
#     4  10  19  32  52  82 114 144 181 230 272 310
#     4   9  15  26  48  77 108 141 179 225 270 311
#     4  12  24  38  57  80 105 135 178 230 274 319
#
# _framework density 20.090073
#
# number of rings (size 3 to 8) (size 9 to 14) (size 15 to 20)
#    0.000    2.167    3.333    1.750    0.000    0.000 
#    0.000    1.667    0.000    4.500    0.000    0.000 
#    0.000    0.000    0.000    0.000    0.000    0.000 
#
# Total GULP energy -268048.379224 kJ/mol
# GULP energy per Si atom -5584.341234 kJ/mol
# Density = 2.004435 g / cm^3
# Si number density = 20.090073 Si / 1000 Ang^3
#
#
#
# Elastic Constant Matrix: (Units=GPa)
#
#
# Indices 1 2 3 4 5 6 
#
# 1 43.0470 -3.2278 -0.8486 0.0000 0.0000 0.0000
# 2 -3.2278 141.3746 74.2681 0.0000 0.0000 0.0000
# 3 -0.8486 74.2681 154.2398 0.0000 0.0000 0.0000
# 4 0.0000 0.0000 0.0000 35.2760 0.0000 0.0000
# 5 0.0000 0.0000 0.0000 0.0000 -6.9282 0.0000
# 6 0.0000 0.0000 0.0000 0.0000 0.0000 -2.7229
#
#
#
# Elastic Compliance Matrix: (Units=1/GPa)
#
#
# Indices 1 2 3 4 5 6 
#
# 1 0.023274 0.000621 -0.000171 0.000000 0.000000 0.000000
# 2 0.000621 0.009485 -0.004564 0.000000 0.000000 0.000000
# 3 -0.000171 -0.004564 0.008680 0.000000 0.000000 0.000000
# 4 0.000000 0.000000 0.000000 0.028348 0.000000 0.000000
# 5 0.000000 0.000000 0.000000 0.000000 -0.144337 0.000000
# 6 0.000000 0.000000 0.000000 0.000000 0.000000 -0.367255
#
#
# Mechanical properties :
#
#
# Convention : Reuss Voigt Hill
#
# Bulk Modulus (GPa) = 30.11008 53.22721 41.66864
# Shear Modulus (GPa) = -11.83408 23.02294 5.59443
#
# Velocity S-wave (km/s) = -2.42967 3.38891 1.67054
# Velocity P-wave (km/s) = 2.67376 6.47030 4.95044
#
# Compressibility (1/GPa) = 0.03321147
#
# Stress axis : x y z
#
# Youngs Moduli (GPa) = 42.96710 105.42907 115.20799
#
# Poissons Ratio (x) = -0.06550 0.01971
# Poissons Ratio (y) = -0.02669 0.52578
# Poissons Ratio (z) = 0.00735 0.48115
#
# Static dielectric constant tensor:
#      x y z
#    x 1.790960 0.000000 0.000000 
#    y 0.000000 1.679580 0.000000 
#    z 0.000000 0.000000 1.689000 
# 
# From -- ./inp_files/60033.got.cif
#   From: 2010.05.17/outbox.cif.g08.bks.cpg/sg63_31_cif.got.tgz:60033.got - 2010.06.03 15:47:04.
