data_PCOD9469352
_publ_section_title
;
Structure prediction by ZEFSAII (Michael W. Deem and Ramdas Pophale) SiO2 
 PCOD9469352
Probable space group: C M C M
;
_chemical_formula_sum "Si O2"
_cell_formula_units_Z 96
_cell_length_a 22.212560
_cell_length_b 12.531481
_cell_length_c 14.630073
_cell_angle_alpha 90.000000
_cell_angle_beta 90.000000
_cell_angle_gamma 90.000000
_cell_volume 4072.372603
_symmetry_space_group_name_H-M "C M C M"
_symmetry_group_IT_number 63
_symmetry_cell_setting 'orthorhombic'
loop_
_space_group_symop_operation_xyz
x,y,z
-x,-y,1/2+z
x,-y,-z
-x,y,1/2-z
-x,-y,-z
x,y,1/2-z
-x,y,z
x,-y,1/2+z
1/2+x,1/2+y,z
1/2-x,1/2-y,1/2+z
1/2+x,1/2-y,-z
1/2-x,1/2+y,1/2-z
1/2-x,1/2-y,-z
1/2+x,1/2+y,1/2-z
1/2-x,1/2+y,z
1/2+x,1/2-y,1/2+z
loop_
_atom_site_type_symbol
_atom_site_label
_atom_site_fract_x
_atom_site_fract_y
_atom_site_fract_z
Si Si1 0.678129 0.204775 0.893502
Si Si2 0.000000 0.216437 0.639074
Si Si3 0.070148 0.142853 0.360912
Si Si4 0.383305 0.414158 0.360231
Si Si5 0.368089 0.012263 0.112306
Si Si6 0.500000 0.963803 0.895906
Si Si7 0.699967 0.778601 0.894567
O O1 0.613173 0.260324 0.889085
O O2 0.732660 0.275870 0.855137
O O3 0.671970 0.086299 0.855082
O O4 0.697852 0.194128 0.998499
O O5 0.941045 0.153766 0.608546
O O6 0.000000 0.218087 0.750000
O O7 0.000000 0.336116 0.605469
O O8 0.068445 0.141286 0.250000
O O9 0.000000 0.146764 0.391076
O O10 0.104622 0.034775 0.391966
O O11 0.383921 0.418081 0.250000
O O12 0.326840 0.340736 0.385615
O O13 0.436729 0.999604 0.144545
O O14 0.342346 0.126819 0.142619
O O15 0.369824 0.000000 0.000000
O O16 0.500000 0.000000 0.000000
#
# Coordination Sequence:
#
# PCOD9469352 Si02
#       7
#    16   8  16  16  16   8  16
#     4  10  23  38  60  85 119 158 193 239 300 356
#     4  10  18  34  57  87 118 150 198 245 290 345
#     4  10  22  42  62  85 120 159 197 246 305 358
#     4  10  20  37  61  86 117 155 197 246 297 347
#     4   9  19  35  54  83 113 149 186 231 291 340
#     4  10  18  32  57  80 116 153 188 238 292 345
#     4  10  21  39  60  86 118 152 198 247 287 349
#
# _framework density 23.573481000000001
#
# number of rings (size 3 to 8) (size 9 to 14) (size 15 to 20)
#    0.000    2.167    2.500    0.000    3.500    1.333 
#    3.000    2.500    0.000    0.000    0.000    0.000 
#    0.000    0.000    0.000    0.000    0.000    0.000 
#
# Total GULP energy -268076.839016 kJ/mol
# GULP energy per Si atom -5584.934146 kJ/mol
# Density = 2.351983 g / cm^3
# Si number density = 23.573481 Si / 1000 Ang^3
#
#
#
# Elastic Constant Matrix: (Units=GPa)
#
#
# Indices 1 2 3 4 5 6 
#
# 1 144.6183 48.5371 0.6733 0.0000 0.0000 0.0000
# 2 48.5371 94.5633 -8.9001 0.0000 0.0000 0.0000
# 3 0.6733 -8.9001 69.1808 0.0000 0.0000 0.0000
# 4 0.0000 0.0000 0.0000 13.5987 0.0000 0.0000
# 5 0.0000 0.0000 0.0000 0.0000 -12.5452 0.0000
# 6 0.0000 0.0000 0.0000 0.0000 0.0000 16.3590
#
#
#
# Elastic Compliance Matrix: (Units=1/GPa)
#
#
# Indices 1 2 3 4 5 6 
#
# 1 0.008382 -0.004363 -0.000643 0.000000 0.000000 0.000000
# 2 -0.004363 0.012975 0.001712 0.000000 0.000000 0.000000
# 3 -0.000643 0.001712 0.014681 0.000000 0.000000 0.000000
# 4 0.000000 0.000000 0.000000 0.073537 0.000000 0.000000
# 5 0.000000 0.000000 0.000000 0.000000 -0.079712 0.000000
# 6 0.000000 0.000000 0.000000 0.000000 0.000000 0.061128
#
#
# Mechanical properties :
#
#
# Convention : Reuss Voigt Hill
#
# Bulk Modulus (GPa) = 33.95484 43.22035 38.58760
# Shear Modulus (GPa) = 46.55638 21.35264 33.95451
#
# Velocity S-wave (km/s) = 4.44886 3.01290 3.79934
# Velocity P-wave (km/s) = 6.38944 5.52065 5.97086
#
# Compressibility (1/GPa) = 0.02945088
#
# Stress axis : x y z
#
# Youngs Moduli (GPa) = 119.30335 77.06925 68.11366
#
# Poissons Ratio (x) = 0.33624 0.04379
# Poissons Ratio (y) = 0.52049 -0.11659
# Poissons Ratio (z) = 0.07669 -0.13192
#
# Static dielectric constant tensor:
#      x y z
#    x 1.889080 0.000000 0.000000 
#    y 0.000000 1.854960 0.000000 
#    z 0.000000 0.000000 1.934610 
# 
# From -- ./inp_files/57534.got.cif
#   From: 2010.05.17/outbox.cif.g08.bks.cpg/sg63_29_cif.got.tgz:57534.got - 2010.06.03 15:47:04.
