data_PCOD9469196
_publ_section_title
;
Structure prediction by ZEFSAII (Michael W. Deem and Ramdas Pophale) SiO2 
 PCOD9469196
Probable space group: C M C M
;
_chemical_formula_sum "Si O2"
_cell_formula_units_Z 80
_cell_length_a 25.862176
_cell_length_b 9.579195
_cell_length_c 19.133001
_cell_angle_alpha 90.000000
_cell_angle_beta 90.000000
_cell_angle_gamma 90.000000
_cell_volume 4739.987225
_symmetry_space_group_name_H-M "C M C M"
_symmetry_group_IT_number 63
_symmetry_cell_setting 'orthorhombic'
loop_
_space_group_symop_operation_xyz
x,y,z
-x,-y,1/2+z
x,-y,-z
-x,y,1/2-z
-x,-y,-z
x,y,1/2-z
-x,y,z
x,-y,1/2+z
1/2+x,1/2+y,z
1/2-x,1/2-y,1/2+z
1/2+x,1/2-y,-z
1/2-x,1/2+y,1/2-z
1/2-x,1/2-y,-z
1/2+x,1/2+y,1/2-z
1/2-x,1/2+y,z
1/2+x,1/2-y,1/2+z
loop_
_atom_site_type_symbol
_atom_site_label
_atom_site_fract_x
_atom_site_fract_y
_atom_site_fract_z
Si Si1 0.363594 0.196032 0.436123
Si Si2 0.560556 0.443059 0.079093
Si Si3 0.718706 0.434794 0.422477
Si Si4 0.159264 0.393210 0.405543
Si Si5 0.357831 0.386500 0.832122
O O1 0.412734 0.291535 0.419594
O O2 0.313601 0.291300 0.419409
O O3 0.359554 0.161700 0.518579
O O4 0.362478 0.048959 0.396626
O O5 0.500000 0.439876 0.095255
O O6 0.593052 0.541962 0.130477
O O7 0.567376 0.500000 0.000000
O O8 0.712742 0.500000 0.500000
O O9 0.778708 0.408458 0.408973
O O10 0.691836 0.541320 0.368862
O O11 0.143714 0.277208 0.349914
O O12 0.357910 0.411949 0.750000
#
# Coordination Sequence:
#
# PCOD9469196 Si02
#       5
#    16  16  16  16  16
#     4  10  18  31  55  86 108 138 184 238 278 313
#     4  10  20  39  62  82 104 138 192 244 281 330
#     4  11  18  33  57  82 110 154 198 225 259 326
#     4  11  19  31  54  85 116 146 178 225 280 331
#     4  11  23  37  53  79 116 150 185 229 284 340
#
# _framework density 16.877683000000001
#
# number of rings (size 3 to 8) (size 9 to 14) (size 15 to 20)
#    0.000    1.400    6.000    3.000    0.000    1.200 
#    0.000    7.000    0.000    0.000    0.000    0.000 
#    0.000    0.000    0.000    0.000    0.000    0.000 
#
# Total GULP energy -223344.206079 kJ/mol
# GULP energy per Si atom -5583.605152 kJ/mol
# Density = 1.683927 g / cm^3
# Si number density = 16.877683 Si / 1000 Ang^3
#
#
#
# Elastic Constant Matrix: (Units=GPa)
#
#
# Indices 1 2 3 4 5 6 
#
# 1 114.0144 57.8787 57.3498 0.0000 0.0000 0.0000
# 2 57.8787 142.6267 45.1208 0.0000 0.0000 0.0000
# 3 57.3498 45.1208 102.5339 0.0000 0.0000 0.0000
# 4 0.0000 0.0000 0.0000 17.7827 0.0000 0.0000
# 5 0.0000 0.0000 0.0000 0.0000 -1.5356 0.0000
# 6 0.0000 0.0000 0.0000 0.0000 0.0000 6.0526
#
#
#
# Elastic Compliance Matrix: (Units=1/GPa)
#
#
# Indices 1 2 3 4 5 6 
#
# 1 0.013650 -0.003629 -0.006038 0.000000 0.000000 0.000000
# 2 -0.003629 0.009110 -0.001979 0.000000 0.000000 0.000000
# 3 -0.006038 -0.001979 0.014001 0.000000 0.000000 0.000000
# 4 0.000000 0.000000 0.000000 0.056234 0.000000 0.000000
# 5 0.000000 0.000000 0.000000 0.000000 -0.651224 0.000000
# 6 0.000000 0.000000 0.000000 0.000000 0.000000 0.165217
#
#
# Mechanical properties :
#
#
# Convention : Reuss Voigt Hill
#
# Bulk Modulus (GPa) = 74.24464 75.54152 74.89308
# Shear Modulus (GPa) = -13.69003 17.71501 2.01249
#
# Velocity S-wave (km/s) = -2.85113 3.24329 1.09315
# Velocity P-wave (km/s) = 5.76600 7.67337 6.78702
#
# Compressibility (1/GPa) = 0.01346899
#
# Stress axis : x y z
#
# Youngs Moduli (GPa) = 73.25874 109.76753 71.42393
#
# Poissons Ratio (x) = 0.39837 0.43125
# Poissons Ratio (y) = 0.26587 0.14135
# Poissons Ratio (z) = 0.44233 0.21724
#
# Static dielectric constant tensor:
#      x y z
#    x 1.553150 0.000000 0.000000 
#    y 0.000000 1.587860 0.000000 
#    z 0.000000 0.000000 1.550520 
# 
# From -- ./inp_files/48785.got.cif
#   From: 2010.05.17/outbox.cif.g08.bks.cpg/sg63_25_cif.got.tgz:48785.got - 2010.06.03 15:47:04.
