data_PCOD9469511
_publ_section_title
;
Structure prediction by ZEFSAII (Michael W. Deem and Ramdas Pophale) SiO2 
 PCOD9469511
Probable space group: C M C M
;
_chemical_formula_sum "Si O2"
_cell_formula_units_Z 64
_cell_length_a 19.122680
_cell_length_b 7.558126
_cell_length_c 23.261196
_cell_angle_alpha 90.000000
_cell_angle_beta 90.000000
_cell_angle_gamma 90.000000
_cell_volume 3361.978455
_symmetry_space_group_name_H-M "C M C M"
_symmetry_group_IT_number 63
_symmetry_cell_setting 'orthorhombic'
loop_
_space_group_symop_operation_xyz
x,y,z
-x,-y,1/2+z
x,-y,-z
-x,y,1/2-z
-x,-y,-z
x,y,1/2-z
-x,y,z
x,-y,1/2+z
1/2+x,1/2+y,z
1/2-x,1/2-y,1/2+z
1/2+x,1/2-y,-z
1/2-x,1/2+y,1/2-z
1/2-x,1/2-y,-z
1/2+x,1/2+y,1/2-z
1/2-x,1/2+y,z
1/2+x,1/2-y,1/2+z
loop_
_atom_site_type_symbol
_atom_site_label
_atom_site_fract_x
_atom_site_fract_y
_atom_site_fract_z
Si Si1 0.821890 0.341893 0.875115
Si Si2 0.773563 0.587145 0.250000
Si Si3 0.633912 0.732808 0.250000
Si Si4 0.081304 0.682086 0.874124
Si Si5 0.177479 0.970257 0.932132
O O1 0.797558 0.322652 0.809143
O O2 0.881642 0.490697 0.877796
O O3 0.842245 0.153924 0.901260
O O4 0.753950 0.413384 0.909239
O O5 0.689515 0.573693 0.250000
O O6 0.813130 0.400156 0.250000
O O7 0.590968 0.747833 0.191451
O O8 0.000000 0.672968 0.888612
O O9 0.123980 0.816833 0.914157
O O10 0.179567 0.000000 0.000000
#
# Coordination Sequence:
#
# PCOD9469511 Si02
#       5
#    16   8   8  16  16
#     4  11  22  40  67  95 124 162 210 268 312 374
#     4  10  18  34  63  99 115 152 210 259 311 371
#     4  10  19  36  63  91 126 158 202 261 324 379
#     4  11  25  41  61  94 131 165 205 262 327 377
#     4  12  24  40  67  94 122 167 222 260 305 378
#
# _framework density 19.03641
#
# number of rings (size 3 to 8) (size 9 to 14) (size 15 to 20)
#    0.000    1.000    5.000    2.625    0.000    1.500 
#    0.000    1.250    0.000    3.000    0.000    0.000 
#    0.000    0.000    0.000    0.000    0.000    0.000 
#
# Total GULP energy -178904.753145 kJ/mol
# GULP energy per Si atom -5590.773536 kJ/mol
# Density = 1.899308 g / cm^3
# Si number density = 19.036410 Si / 1000 Ang^3
#
#
#
# Elastic Constant Matrix: (Units=GPa)
#
#
# Indices 1 2 3 4 5 6 
#
# 1 118.3164 22.3186 6.2865 0.0000 0.0000 0.0000
# 2 22.3186 83.8887 17.2665 0.0000 0.0000 0.0000
# 3 6.2865 17.2665 62.8460 0.0000 0.0000 0.0000
# 4 0.0000 0.0000 0.0000 14.2935 0.0000 0.0000
# 5 0.0000 0.0000 0.0000 0.0000 -2.0048 0.0000
# 6 0.0000 0.0000 0.0000 0.0000 0.0000 25.4667
#
#
#
# Elastic Compliance Matrix: (Units=1/GPa)
#
#
# Indices 1 2 3 4 5 6 
#
# 1 0.008902 -0.002316 -0.000254 0.000000 0.000000 0.000000
# 2 -0.002316 0.013238 -0.003405 0.000000 0.000000 0.000000
# 3 -0.000254 -0.003405 0.016873 0.000000 0.000000 0.000000
# 4 0.000000 0.000000 0.000000 0.069962 0.000000 0.000000
# 5 0.000000 0.000000 0.000000 0.000000 -0.498809 0.000000
# 6 0.000000 0.000000 0.000000 0.000000 0.000000 0.039267
#
#
# Mechanical properties :
#
#
# Convention : Reuss Voigt Hill
#
# Bulk Modulus (GPa) = 36.95254 39.64381 38.29818
# Shear Modulus (GPa) = -15.17012 22.16306 3.49647
#
# Velocity S-wave (km/s) = -2.82600 3.41581 1.35673
# Velocity P-wave (km/s) = 2.96736 6.03551 4.75566
#
# Compressibility (1/GPa) = 0.02706174
#
# Stress axis : x y z
#
# Youngs Moduli (GPa) = 112.33026 75.54201 59.26659
#
# Poissons Ratio (x) = 0.17497 0.01506
# Poissons Ratio (y) = 0.26017 0.20182
# Poissons Ratio (z) = 0.02855 0.25724
#
# Static dielectric constant tensor:
#      x y z
#    x 1.634620 0.000000 0.000000 
#    y 0.000000 1.693660 0.000000 
#    z 0.000000 0.000000 1.656200 
# 
# From -- ./inp_files/55069.got.cif
#   From: 2010.05.17/outbox.cif.g08.bks.cpg/sg63_28_cif.got.tgz:55069.got - 2010.06.03 15:47:04.
