data_PCOD9469072
_publ_section_title
;
Structure prediction by ZEFSAII (Michael W. Deem and Ramdas Pophale) SiO2 
 PCOD9469072
Probable space group: C M C M
;
_chemical_formula_sum "Si O2"
_cell_formula_units_Z 112
_cell_length_a 13.918900
_cell_length_b 32.865790
_cell_length_c 15.634362
_cell_angle_alpha 90.000000
_cell_angle_beta 90.000000
_cell_angle_gamma 90.000000
_cell_volume 7152.027144
_symmetry_space_group_name_H-M "C M C M"
_symmetry_group_IT_number 63
_symmetry_cell_setting 'orthorhombic'
loop_
_space_group_symop_operation_xyz
x,y,z
-x,-y,1/2+z
x,-y,-z
-x,y,1/2-z
-x,-y,-z
x,y,1/2-z
-x,y,z
x,-y,1/2+z
1/2+x,1/2+y,z
1/2-x,1/2-y,1/2+z
1/2+x,1/2-y,-z
1/2-x,1/2+y,1/2-z
1/2-x,1/2-y,-z
1/2+x,1/2+y,1/2-z
1/2-x,1/2+y,z
1/2+x,1/2-y,1/2+z
loop_
_atom_site_type_symbol
_atom_site_label
_atom_site_fract_x
_atom_site_fract_y
_atom_site_fract_z
Si Si1 0.696481 0.891149 0.905132
Si Si2 0.883090 0.403421 0.094825
Si Si3 0.717283 0.268014 0.846608
Si Si4 0.606007 0.195204 0.419424
Si Si5 0.383605 0.056125 0.250000
Si Si6 0.889162 0.850135 0.646516
Si Si7 0.892238 0.313436 0.123318
Si Si8 0.884046 0.539189 0.750000
O O1 0.642240 0.848375 0.885407
O O2 0.660905 0.922795 0.834127
O O3 0.809042 0.879571 0.894871
O O4 0.666228 0.904526 0.001252
O O5 0.860592 0.359687 0.138235
O O6 0.853920 0.437926 0.162671
O O7 0.000000 0.404379 0.082118
O O8 0.744867 0.278787 0.750000
O O9 0.813645 0.271690 0.900423
O O10 0.642888 0.303506 0.874241
O O11 0.672591 0.223582 0.847688
O O12 0.500000 0.204984 0.387016
O O13 0.602575 0.189792 0.520894
O O14 0.500000 0.060702 0.250000
O O15 0.359792 0.008238 0.250000
O O16 0.883749 0.854629 0.750000
O O17 0.000000 0.856984 0.621258
O O18 0.000000 0.308049 0.156592
O O19 0.000000 0.542318 0.750000
#
# Coordination Sequence:
#
# PCOD9469072 Si02
#       8
#    16  16  16  16   8  16  16   8
#     4  10  18  31  49  75  97 129 163 189 235 291
#     4   9  18  33  50  70  99 129 161 199 237 282
#     4  10  19  27  41  68  93 120 159 196 236 276
#     4   9  18  31  44  62  94 129 157 189 229 276
#     4  11  20  30  49  76 103 127 156 186 233 301
#     4   9  17  30  45  68 103 129 155 201 244 280
#     4   9  17  29  46  63  84 122 164 198 230 268
#     4   9  20  34  48  72 101 129 157 194 242 283
#
# _framework density 15.659896
#
# number of rings (size 3 to 8) (size 9 to 14) (size 15 to 20)
#    0.000    2.571    0.714    3.000    2.000    1.714 
#    0.000    2.143    0.000    0.000    0.000    3.500 
#    0.000    0.000    0.000    0.000    0.000    0.000 
#
# Total GULP energy -311920.850718 kJ/mol
# GULP energy per Si atom -5570.015191 kJ/mol
# Density = 1.562425 g / cm^3
# Si number density = 15.659896 Si / 1000 Ang^3
#
#
#
# Elastic Constant Matrix: (Units=GPa)
#
#
# Indices 1 2 3 4 5 6 
#
# 1 99.0379 43.4793 40.7836 0.0000 0.0000 0.0000
# 2 43.4793 94.3434 49.9369 0.0000 0.0000 0.0000
# 3 40.7836 49.9369 69.3291 0.0000 0.0000 0.0000
# 4 0.0000 0.0000 0.0000 22.4718 0.0000 0.0000
# 5 0.0000 0.0000 0.0000 0.0000 13.4692 0.0000
# 6 0.0000 0.0000 0.0000 0.0000 0.0000 16.7771
#
#
#
# Elastic Compliance Matrix: (Units=1/GPa)
#
#
# Indices 1 2 3 4 5 6 
#
# 1 0.013959 -0.003372 -0.005782 0.000000 0.000000 0.000000
# 2 -0.003372 0.017946 -0.010942 0.000000 0.000000 0.000000
# 3 -0.005782 -0.010942 0.025707 0.000000 0.000000 0.000000
# 4 0.000000 0.000000 0.000000 0.044500 0.000000 0.000000
# 5 0.000000 0.000000 0.000000 0.000000 0.074243 0.000000
# 6 0.000000 0.000000 0.000000 0.000000 0.000000 0.059605
#
#
# Mechanical properties :
#
#
# Convention : Reuss Voigt Hill
#
# Bulk Modulus (GPa) = 57.41310 59.01221 58.21265
# Shear Modulus (GPa) = 17.73306 19.11101 18.42203
#
# Velocity S-wave (km/s) = 3.36875 3.49718 3.43356
# Velocity P-wave (km/s) = 7.20232 7.35340 7.27825
#
# Compressibility (1/GPa) = 0.01741763
#
# Stress axis : x y z
#
# Youngs Moduli (GPa) = 71.63909 55.72410 38.90006
#
# Poissons Ratio (x) = 0.18793 0.22493
# Poissons Ratio (y) = 0.24160 0.42565
# Poissons Ratio (z) = 0.41424 0.60974
#
# Static dielectric constant tensor:
#      x y z
#    x 1.519680 0.000000 0.000000 
#    y 0.000000 1.522730 0.000000 
#    z 0.000000 0.000000 1.537100 
# 
# From -- ./inp_files/44775.got.cif
#   From: 2010.05.17/outbox.cif.g08.bks.cpg/sg63_23_cif.got.tgz:44775.got - 2010.06.03 15:47:04.
