data_PCOD9469953
_publ_section_title
;
Structure prediction by ZEFSAII (Michael W. Deem and Ramdas Pophale) SiO2 
 PCOD9469953
Probable space group: C M C M
;
_chemical_formula_sum "Si O2"
_cell_formula_units_Z 112
_cell_length_a 7.385913
_cell_length_b 30.458431
_cell_length_c 21.310528
_cell_angle_alpha 90.000000
_cell_angle_beta 90.000000
_cell_angle_gamma 90.000000
_cell_volume 4794.087161
_symmetry_space_group_name_H-M "C M C M"
_symmetry_group_IT_number 63
_symmetry_cell_setting 'orthorhombic'
loop_
_space_group_symop_operation_xyz
x,y,z
-x,-y,1/2+z
x,-y,-z
-x,y,1/2-z
-x,-y,-z
x,y,1/2-z
-x,y,z
x,-y,1/2+z
1/2+x,1/2+y,z
1/2-x,1/2-y,1/2+z
1/2+x,1/2-y,-z
1/2-x,1/2+y,1/2-z
1/2-x,1/2-y,-z
1/2+x,1/2+y,1/2-z
1/2-x,1/2+y,z
1/2+x,1/2-y,1/2+z
loop_
_atom_site_type_symbol
_atom_site_label
_atom_site_fract_x
_atom_site_fract_y
_atom_site_fract_z
Si Si1 0.721047 0.665139 0.382128
Si Si2 0.793636 0.158406 0.862216
Si Si3 0.279218 0.574719 0.321928
Si Si4 0.220878 0.065058 0.680336
Si Si5 0.283280 0.697968 0.989535
Si Si6 0.220279 0.002934 0.073736
Si Si7 0.289849 0.249103 0.681021
O O1 0.500000 0.666111 0.377663
O O2 0.777739 0.624069 0.340690
O O3 0.772397 0.665431 0.454693
O O4 0.788169 0.713072 0.361714
O O5 0.718006 0.115260 0.829909
O O6 0.709148 0.177834 0.925513
O O7 0.796667 0.201668 0.820155
O O8 0.000000 0.145636 0.877373
O O9 0.222340 0.563637 0.250000
O O10 0.500000 0.573062 0.320865
O O11 0.225022 0.543773 0.380807
O O12 0.279847 0.049535 0.750000
O O13 0.274342 0.037806 0.618600
O O14 0.000000 0.062629 0.682387
O O15 0.500000 0.696027 0.986548
O O16 0.250000 0.750000 0.000000
O O17 0.000000 0.003999 0.070775
O O18 0.279682 0.000000 0.000000
O O19 0.282764 0.268433 0.750000
O O20 0.500000 0.242265 0.664681
#
# Coordination Sequence:
#
# PCOD9469953 Si02
#       7
#    16  16  16  16  16  16  16
#     4   9  17  28  43  62  88 118 152 194 238 279
#     4  10  20  31  47  69  95 127 162 194 234 287
#     4   9  16  26  41  60  83 115 154 192 234 284
#     4   9  17  29  43  60  88 124 156 188 232 282
#     4  10  19  31  47  67  92 126 162 197 239 284
#     4   9  17  26  39  60  87 118 153 192 232 279
#     4  10  19  31  47  67  93 125 160 198 238 279
#
# _framework density 23.362110000000001
#
# number of rings (size 3 to 8) (size 9 to 14) (size 15 to 20)
#    0.000    2.571    1.429    1.286    2.000    4.286 
#    0.000    0.000    0.000    0.000    0.000    0.000 
#    0.000    2.857    0.000    3.000    0.000    1.429 
#
# Total GULP energy -312113.085896 kJ/mol
# GULP energy per Si atom -5573.447962 kJ/mol
# Density = 2.330894 g / cm^3
# Si number density = 23.362110 Si / 1000 Ang^3
#
#
#
# Elastic Constant Matrix: (Units=GPa)
#
#
# Indices 1 2 3 4 5 6 
#
# 1 71.2031 -14.5866 8.6083 0.0000 0.0000 0.0000
# 2 -14.5866 102.3291 76.3461 0.0000 0.0000 0.0000
# 3 8.6083 76.3461 216.2231 0.0000 0.0000 0.0000
# 4 0.0000 0.0000 0.0000 34.7335 0.0000 0.0000
# 5 0.0000 0.0000 0.0000 0.0000 -7.6314 0.0000
# 6 0.0000 0.0000 0.0000 0.0000 0.0000 4.1066
#
#
#
# Elastic Compliance Matrix: (Units=1/GPa)
#
#
# Indices 1 2 3 4 5 6 
#
# 1 0.014984 0.003504 -0.001834 0.000000 0.000000 0.000000
# 2 0.003504 0.014087 -0.005113 0.000000 0.000000 0.000000
# 3 -0.001834 -0.005113 0.006503 0.000000 0.000000 0.000000
# 4 0.000000 0.000000 0.000000 0.028791 0.000000 0.000000
# 5 0.000000 0.000000 0.000000 0.000000 -0.131037 0.000000
# 6 0.000000 0.000000 0.000000 0.000000 0.000000 0.243511
#
#
# Mechanical properties :
#
#
# Convention : Reuss Voigt Hill
#
# Bulk Modulus (GPa) = 34.85802 58.94342 46.90072
# Shear Modulus (GPa) = 25.86823 27.53424 26.70124
#
# Velocity S-wave (km/s) = 3.33118 3.43678 3.38439
# Velocity P-wave (km/s) = 5.45425 6.40576 5.94906
#
# Compressibility (1/GPa) = 0.02868780
#
# Stress axis : x y z
#
# Youngs Moduli (GPa) = 66.73846 70.98772 153.76658
#
# Poissons Ratio (x) = -0.24874 0.28197
# Poissons Ratio (y) = -0.23385 0.78628
# Poissons Ratio (z) = 0.12238 0.36299
#
# Static dielectric constant tensor:
#      x y z
#    x 1.934810 0.000000 0.000000 
#    y 0.000000 1.934060 0.000000 
#    z 0.000000 0.000000 1.902930 
# 
# From -- ./inp_files/62122.got.cif
#   From: 2010.05.17/outbox.cif.g08.bks.cpg/sg63_32_cif.got.tgz:62122.got - 2010.06.03 15:47:04.
