data_PCOD9469427
_publ_section_title
;
Structure prediction by ZEFSAII (Michael W. Deem and Ramdas Pophale) SiO2 
 PCOD9469427
Probable space group: C M C M
;
_chemical_formula_sum "Si O2"
_cell_formula_units_Z 88
_cell_length_a 21.058174
_cell_length_b 10.643299
_cell_length_c 20.822244
_cell_angle_alpha 90.000000
_cell_angle_beta 90.000000
_cell_angle_gamma 90.000000
_cell_volume 4666.857112
_symmetry_space_group_name_H-M "C M C M"
_symmetry_group_IT_number 63
_symmetry_cell_setting 'orthorhombic'
loop_
_space_group_symop_operation_xyz
x,y,z
-x,-y,1/2+z
x,-y,-z
-x,y,1/2-z
-x,-y,-z
x,y,1/2-z
-x,y,z
x,-y,1/2+z
1/2+x,1/2+y,z
1/2-x,1/2-y,1/2+z
1/2+x,1/2-y,-z
1/2-x,1/2+y,1/2-z
1/2-x,1/2-y,-z
1/2+x,1/2+y,1/2-z
1/2-x,1/2+y,z
1/2+x,1/2-y,1/2+z
loop_
_atom_site_type_symbol
_atom_site_label
_atom_site_fract_x
_atom_site_fract_y
_atom_site_fract_z
Si Si1 0.107154 0.500000 0.000000
Si Si2 0.330013 0.413040 0.563871
Si Si3 0.809228 0.345924 0.590207
Si Si4 0.072035 0.290385 0.405698
Si Si5 0.825237 0.587556 0.679001
Si Si6 0.179140 0.882211 0.175020
O O1 0.151565 0.391481 0.970749
O O2 0.070164 0.580300 0.947098
O O3 0.324533 0.500000 0.500000
O O4 0.264549 0.332906 0.569989
O O5 0.391716 0.324870 0.559819
O O6 0.332542 0.496172 0.629802
O O7 0.815198 0.466748 0.635497
O O8 0.841115 0.232872 0.629351
O O9 0.120405 0.323444 0.348225
O O10 0.000000 0.257706 0.387957
O O11 0.842521 0.546392 0.750000
O O12 0.754851 0.645271 0.680384
O O13 0.156698 0.890879 0.250000
#
# Coordination Sequence:
#
# PCOD9469427 Si02
#       6
#     8  16  16  16  16  16
#     4  10  21  36  60  86 109 142 192 244 296 336
#     4  11  22  35  56  85 117 151 191 235 293 354
#     4  10  18  33  58  84 113 142 179 241 297 350
#     4  11  23  38  55  78 112 153 192 231 277 340
#     4   9  19  33  52  80 108 141 184 229 282 337
#     4  10  20  34  56  86 118 148 183 238 298 352
#
# _framework density 18.856373000000001
#
# number of rings (size 3 to 8) (size 9 to 14) (size 15 to 20)
#    0.000    1.818    2.727    1.909    0.000    3.636 
#    0.000    0.000    0.000    1.091    0.000    0.000 
#    0.000    0.000    0.000    0.000    0.000    0.000 
#
# Total GULP energy -244954.923995 kJ/mol
# GULP energy per Si atom -5567.157364 kJ/mol
# Density = 1.881345 g / cm^3
# Si number density = 18.856373 Si / 1000 Ang^3
#
#
#
# Elastic Constant Matrix: (Units=GPa)
#
#
# Indices 1 2 3 4 5 6 
#
# 1 75.6607 20.6569 22.7284 0.0000 0.0000 0.0000
# 2 20.6569 47.0181 9.8561 0.0000 0.0000 0.0000
# 3 22.7284 9.8561 64.7980 0.0000 0.0000 0.0000
# 4 0.0000 0.0000 0.0000 18.5151 0.0000 0.0000
# 5 0.0000 0.0000 0.0000 0.0000 7.3005 0.0000
# 6 0.0000 0.0000 0.0000 0.0000 0.0000 14.4367
#
#
#
# Elastic Compliance Matrix: (Units=1/GPa)
#
#
# Indices 1 2 3 4 5 6 
#
# 1 0.016343 -0.006175 -0.004793 0.000000 0.000000 0.000000
# 2 -0.006175 0.024302 -0.001530 0.000000 0.000000 0.000000
# 3 -0.004793 -0.001530 0.017347 0.000000 0.000000 0.000000
# 4 0.000000 0.000000 0.000000 0.054010 0.000000 0.000000
# 5 0.000000 0.000000 0.000000 0.000000 0.136978 0.000000
# 6 0.000000 0.000000 0.000000 0.000000 0.000000 0.069268
#
#
# Mechanical properties :
#
#
# Convention : Reuss Voigt Hill
#
# Bulk Modulus (GPa) = 30.30855 32.66217 31.48536
# Shear Modulus (GPa) = 14.11462 16.99948 15.55705
#
# Velocity S-wave (km/s) = 2.73890 3.00580 2.87545
# Velocity P-wave (km/s) = 5.10983 5.42269 5.26858
#
# Compressibility (1/GPa) = 0.03299399
#
# Stress axis : x y z
#
# Youngs Moduli (GPa) = 61.18941 41.14848 57.64827
#
# Poissons Ratio (x) = 0.25410 0.27631
# Poissons Ratio (y) = 0.37786 0.08823
# Poissons Ratio (z) = 0.29328 0.06298
#
# Static dielectric constant tensor:
#      x y z
#    x 1.646250 0.000000 0.000000 
#    y 0.000000 1.698360 0.000000 
#    z 0.000000 0.000000 1.955850 
# 
# From -- ./inp_files/55424.got.cif
#   From: 2010.05.17/outbox.cif.g08.bks.cpg/sg63_28_cif.got.tgz:55424.got - 2010.06.03 15:47:04.
