data_PCOD9469504
_publ_section_title
;
Structure prediction by ZEFSAII (Michael W. Deem and Ramdas Pophale) SiO2 
 PCOD9469504
Probable space group: C M C M
;
_chemical_formula_sum "Si O2"
_cell_formula_units_Z 104
_cell_length_a 14.242229
_cell_length_b 20.011999
_cell_length_c 16.260868
_cell_angle_alpha 90.000000
_cell_angle_beta 90.000000
_cell_angle_gamma 90.000000
_cell_volume 4634.598976
_symmetry_space_group_name_H-M "C M C M"
_symmetry_group_IT_number 63
_symmetry_cell_setting 'orthorhombic'
loop_
_space_group_symop_operation_xyz
x,y,z
-x,-y,1/2+z
x,-y,-z
-x,y,1/2-z
-x,-y,-z
x,y,1/2-z
-x,y,z
x,-y,1/2+z
1/2+x,1/2+y,z
1/2-x,1/2-y,1/2+z
1/2+x,1/2-y,-z
1/2-x,1/2+y,1/2-z
1/2-x,1/2-y,-z
1/2+x,1/2+y,1/2-z
1/2-x,1/2+y,z
1/2+x,1/2-y,1/2+z
loop_
_atom_site_type_symbol
_atom_site_label
_atom_site_fract_x
_atom_site_fract_y
_atom_site_fract_z
Si Si1 0.847093 0.000000 0.750000
Si Si2 0.385473 0.722570 0.590654
Si Si3 0.614527 0.277430 0.909346
Si Si4 0.606280 0.649617 0.750000
Si Si5 0.106280 0.850383 0.750000
Si Si6 0.886888 0.369758 0.153915
Si Si7 0.113112 0.630242 0.153915
Si Si8 0.285600 1.000000 0.092184
O O1 0.898489 0.929524 0.750000
O O2 0.787892 0.000000 0.666233
O O3 0.898489 0.070476 0.750000
O O4 0.500000 0.717461 0.587719
O O5 0.350794 0.703931 0.500000
O O6 0.350418 0.676834 0.665610
O O7 0.362835 0.799034 0.612721
O O8 0.500000 0.282539 0.912281
O O9 0.649582 0.323166 0.834390
O O10 0.637165 0.200966 0.887279
O O11 0.500000 0.677780 0.750000
O O12 0.000000 0.822220 0.750000
O O13 0.856419 0.371090 0.250000
O O14 0.846321 0.433275 0.106801
O O15 0.000000 0.374149 0.153807
O O16 0.143581 0.628910 0.250000
O O17 0.153679 0.566725 0.106801
O O18 0.000000 0.625850 0.153807
O O19 0.245961 0.000000 0.000000
#
# Coordination Sequence:
#
# PCOD9469504 Si02
#       8
#     8  16  16   8   8  16  16  16
#     4  12  27  44  59  80 114 150 198 246 291 348
#     4   9  17  32  59  93 120 142 180 236 291 343
#     4   9  17  32  59  93 120 142 180 236 291 343
#     4  10  21  41  66  87 108 141 187 246 306 352
#     4  10  21  41  66  87 108 141 187 246 306 352
#     4  10  18  34  61  91 122 157 195 231 273 330
#     4  10  18  34  61  91 122 157 195 231 273 330
#     4  12  25  40  56  81 123 167 198 229 277 331
#
# _framework density 22.439914000000002
#
# number of rings (size 3 to 8) (size 9 to 14) (size 15 to 20)
#    0.000    1.846    3.077    1.615    0.000    4.923 
#    0.000    3.077    0.000    8.308    0.000    0.000 
#    0.000    0.000    0.000    0.000    0.000    0.000 
#
# Total GULP energy -290890.260164 kJ/mol
# GULP energy per Si atom -5594.043465 kJ/mol
# Density = 2.238884 g / cm^3
# Si number density = 22.439914 Si / 1000 Ang^3
#
#
#
# Elastic Constant Matrix: (Units=GPa)
#
#
# Indices 1 2 3 4 5 6 
#
# 1 50.1069 4.9055 33.6065 0.0000 0.0000 0.0000
# 2 4.9055 136.6312 72.7270 0.0000 0.0000 0.0000
# 3 33.6065 72.7270 235.9137 0.0000 0.0000 0.0000
# 4 0.0000 0.0000 0.0000 4.0883 0.0000 0.0000
# 5 0.0000 0.0000 0.0000 0.0000 -1.8510 0.0000
# 6 0.0000 0.0000 0.0000 0.0000 0.0000 -49.8334
#
#
#
# Elastic Compliance Matrix: (Units=1/GPa)
#
#
# Indices 1 2 3 4 5 6 
#
# 1 0.022193 0.001060 -0.003488 0.000000 0.000000 0.000000
# 2 0.001060 0.008806 -0.002866 0.000000 0.000000 0.000000
# 3 -0.003488 -0.002866 0.005619 0.000000 0.000000 0.000000
# 4 0.000000 0.000000 0.000000 0.244599 0.000000 0.000000
# 5 0.000000 0.000000 0.000000 0.000000 -0.540242 0.000000
# 6 0.000000 0.000000 0.000000 0.000000 0.000000 -0.020067
#
#
# Mechanical properties :
#
#
# Convention : Reuss Voigt Hill
#
# Bulk Modulus (GPa) = 38.41651 71.68111 55.04881
# Shear Modulus (GPa) = -19.24359 11.24162 -4.00099
#
# Velocity S-wave (km/s) = -2.93159 2.24065 -1.33673
# Velocity P-wave (km/s) = 2.38703 6.22149 4.71195
#
# Compressibility (1/GPa) = 0.02603048
#
# Stress axis : x y z
#
# Youngs Moduli (GPa) = 45.05905 113.55452 177.96111
#
# Poissons Ratio (x) = -0.12036 0.62077
# Poissons Ratio (y) = -0.04776 0.51000
# Poissons Ratio (z) = 0.15718 0.32542
#
# Static dielectric constant tensor:
#      x y z
#    x 1.860170 0.000000 0.000000 
#    y 0.000000 1.760340 0.000000 
#    z 0.000000 0.000000 1.850880 
# 
# From -- ./inp_files/34215.got.cif
#   From: 2010.05.17/outbox.cif.g08.bks.cpg/sg63_18_cif.got.tgz:34215.got - 2010.06.03 15:47:04.
