data_PCOD9469475
_publ_section_title
;
Structure prediction by ZEFSAII (Michael W. Deem and Ramdas Pophale) SiO2 
 PCOD9469475
Probable space group: C M C M
;
_chemical_formula_sum "Si O2"
_cell_formula_units_Z 104
_cell_length_a 9.607154
_cell_length_b 21.533971
_cell_length_c 26.711729
_cell_angle_alpha 90.000000
_cell_angle_beta 90.000000
_cell_angle_gamma 90.000000
_cell_volume 5526.127187
_symmetry_space_group_name_H-M "C M C M"
_symmetry_group_IT_number 63
_symmetry_cell_setting 'orthorhombic'
loop_
_space_group_symop_operation_xyz
x,y,z
-x,-y,1/2+z
x,-y,-z
-x,y,1/2-z
-x,-y,-z
x,y,1/2-z
-x,y,z
x,-y,1/2+z
1/2+x,1/2+y,z
1/2-x,1/2-y,1/2+z
1/2+x,1/2-y,-z
1/2-x,1/2+y,1/2-z
1/2-x,1/2-y,-z
1/2+x,1/2+y,1/2-z
1/2-x,1/2+y,z
1/2+x,1/2-y,1/2+z
loop_
_atom_site_type_symbol
_atom_site_label
_atom_site_fract_x
_atom_site_fract_y
_atom_site_fract_z
Si Si1 0.348146 0.917823 0.916646
Si Si2 0.331896 0.660379 0.250000
Si Si3 0.344690 0.958683 0.349663
Si Si4 0.164199 0.531917 0.250000
Si Si5 0.230676 0.000000 0.500000
Si Si6 0.156252 0.102536 0.575401
Si Si7 0.332643 0.781641 0.453974
Si Si8 0.834348 0.186834 0.136009
O O1 0.500000 0.887395 0.916955
O O2 0.240596 0.870940 0.891377
O O3 0.353077 0.980003 0.883783
O O4 0.314341 0.946703 0.970543
O O5 0.500000 0.654570 0.250000
O O6 0.258233 0.593051 0.250000
O O7 0.294221 0.690931 0.195413
O O8 0.500000 0.929391 0.349915
O O9 0.225834 0.915818 0.372088
O O10 0.311356 0.987553 0.296662
O O11 0.000000 0.550645 0.250000
O O12 0.151575 0.960000 0.458252
O O13 0.262300 0.151504 0.551772
O O14 0.000000 0.127543 0.579144
O O15 0.500000 0.783304 0.462655
O O16 0.250000 0.750000 0.500000
O O17 0.308360 0.744653 0.401464
O O18 0.000000 0.176000 0.135366
#
# Coordination Sequence:
#
# PCOD9469475 Si02
#       8
#    16   8  16   8   8  16  16  16
#     4  10  19  32  54  82 113 148 189 236 286 341
#     4  10  20  36  59  88 119 153 194 242 294 353
#     4   9  19  34  54  81 115 149 184 229 285 344
#     4  10  18  34  57  86 119 153 190 234 288 347
#     4  10  22  36  54  82 116 150 190 234 292 352
#     4  11  23  39  58  82 113 150 191 237 289 348
#     4  11  24  42  62  85 117 157 202 250 301 359
#     4  10  22  38  58  85 118 153 193 242 298 357
#
# _framework density 18.819689
#
# number of rings (size 3 to 8) (size 9 to 14) (size 15 to 20)
#    0.000    1.846    1.538    2.308    0.000    9.231 
#    0.000    0.769    0.000    2.769    0.000    0.000 
#    0.000    0.000    0.000    0.000    0.000    0.000 
#
# Total GULP energy -289685.946029 kJ/mol
# GULP energy per Si atom -5570.883577 kJ/mol
# Density = 1.877685 g / cm^3
# Si number density = 18.819689 Si / 1000 Ang^3
#
#
#
# Elastic Constant Matrix: (Units=GPa)
#
#
# Indices 1 2 3 4 5 6 
#
# 1 86.0180 39.7483 52.9408 0.0000 0.0000 0.0000
# 2 39.7483 57.6356 33.4407 0.0000 0.0000 0.0000
# 3 52.9408 33.4407 143.0824 0.0000 0.0000 0.0000
# 4 0.0000 0.0000 0.0000 -22.4359 0.0000 0.0000
# 5 0.0000 0.0000 0.0000 0.0000 9.4054 0.0000
# 6 0.0000 0.0000 0.0000 0.0000 0.0000 23.5949
#
#
#
# Elastic Compliance Matrix: (Units=1/GPa)
#
#
# Indices 1 2 3 4 5 6 
#
# 1 0.019460 -0.010693 -0.004701 0.000000 0.000000 0.000000
# 2 -0.010693 0.025948 -0.002108 0.000000 0.000000 0.000000
# 3 -0.004701 -0.002108 0.009221 0.000000 0.000000 0.000000
# 4 0.000000 0.000000 0.000000 -0.044572 0.000000 0.000000
# 5 0.000000 0.000000 0.000000 0.000000 0.106322 0.000000
# 6 0.000000 0.000000 0.000000 0.000000 0.000000 0.042382
#
#
# Mechanical properties :
#
#
# Convention : Reuss Voigt Hill
#
# Bulk Modulus (GPa) = 50.95601 59.88839 55.42220
# Shear Modulus (GPa) = 24.96172 12.81998 18.89085
#
# Velocity S-wave (km/s) = 3.64588 2.61281 3.17169
# Velocity P-wave (km/s) = 6.69760 6.40263 6.55178
#
# Compressibility (1/GPa) = 0.01962477
#
# Stress axis : x y z
#
# Youngs Moduli (GPa) = 51.38764 38.53882 108.44710
#
# Poissons Ratio (x) = 0.41209 0.50982
# Poissons Ratio (y) = 0.54948 0.22861
# Poissons Ratio (z) = 0.24158 0.08124
#
# Static dielectric constant tensor:
#      x y z
#    x 1.661490 0.000000 0.000000 
#    y 0.000000 1.633020 0.000000 
#    z 0.000000 0.000000 1.822520 
# 
# From -- ./inp_files/67125.got.cif
#   From: 2010.05.17/outbox.cif.g08.bks.cpg/sg63_34_cif.got.tgz:67125.got - 2010.06.03 15:47:04.
