data_PCOD9469011
_publ_section_title
;
Structure prediction by ZEFSAII (Michael W. Deem and Ramdas Pophale) SiO2 
 PCOD9469011
Probable space group: C M C M
;
_chemical_formula_sum "Si O2"
_cell_formula_units_Z 80
_cell_length_a 20.371656
_cell_length_b 14.426278
_cell_length_c 14.093441
_cell_angle_alpha 90.000000
_cell_angle_beta 90.000000
_cell_angle_gamma 90.000000
_cell_volume 4141.881530
_symmetry_space_group_name_H-M "C M C M"
_symmetry_group_IT_number 63
_symmetry_cell_setting 'orthorhombic'
loop_
_space_group_symop_operation_xyz
x,y,z
-x,-y,1/2+z
x,-y,-z
-x,y,1/2-z
-x,-y,-z
x,y,1/2-z
-x,y,z
x,-y,1/2+z
1/2+x,1/2+y,z
1/2-x,1/2-y,1/2+z
1/2+x,1/2-y,-z
1/2-x,1/2+y,1/2-z
1/2-x,1/2-y,-z
1/2+x,1/2+y,1/2-z
1/2-x,1/2+y,z
1/2+x,1/2-y,1/2+z
loop_
_atom_site_type_symbol
_atom_site_label
_atom_site_fract_x
_atom_site_fract_y
_atom_site_fract_z
Si Si1 0.820993 0.182026 0.458328
Si Si2 0.922544 0.720704 0.857290
Si Si3 0.425484 0.006699 0.865575
Si Si4 0.285424 0.052312 0.140455
Si Si5 0.761094 0.840338 0.358853
O O1 0.892242 0.193697 0.414461
O O2 0.769285 0.106733 0.419071
O O3 0.822808 0.172241 0.571387
O O4 0.790518 0.276974 0.415480
O O5 0.894284 0.721728 0.750000
O O6 0.914995 0.614462 0.893868
O O7 0.000000 0.732900 0.851416
O O8 0.424436 0.007005 0.750000
O O9 0.500000 0.977840 0.893266
O O10 0.361315 0.947389 0.894428
O O11 0.283881 0.085443 0.250000
O O12 0.263831 0.945208 0.141118
O O13 0.770648 0.811818 0.250000
#
# Coordination Sequence:
#
# PCOD9469011 Si02
#       5
#    16  16  16  16  16
#     4  11  20  32  55  81 107 138 182 225 270 324
#     4   9  16  29  52  81 111 140 177 228 275 310
#     4   8  14  26  47  76 111 146 175 213 265 314
#     4  10  18  30  52  80 111 139 173 221 271 320
#     4  10  21  35  50  75 108 140 177 224 270 316
#
# _framework density 19.314893999999999
#
# number of rings (size 3 to 8) (size 9 to 14) (size 15 to 20)
#    0.000    2.400    2.000    3.600    0.000    0.000 
#    0.000    0.000    0.000   10.200    0.000    2.800 
#    0.000    0.000    0.000    0.000    0.000    0.000 
#
# Total GULP energy -222797.722511 kJ/mol
# GULP energy per Si atom -5569.943063 kJ/mol
# Density = 1.927093 g / cm^3
# Si number density = 19.314894 Si / 1000 Ang^3
#
#
#
# Elastic Constant Matrix: (Units=GPa)
#
#
# Indices 1 2 3 4 5 6 
#
# 1 52.3309 12.0692 -3.4904 0.0000 0.0000 0.0000
# 2 12.0692 61.2525 0.6079 0.0000 0.0000 0.0000
# 3 -3.4904 0.6079 75.5763 0.0000 0.0000 0.0000
# 4 0.0000 0.0000 0.0000 14.7063 0.0000 0.0000
# 5 0.0000 0.0000 0.0000 0.0000 10.0829 0.0000
# 6 0.0000 0.0000 0.0000 0.0000 0.0000 29.6734
#
#
#
# Elastic Compliance Matrix: (Units=1/GPa)
#
#
# Indices 1 2 3 4 5 6 
#
# 1 0.020088 -0.003968 0.000960 0.000000 0.000000 0.000000
# 2 -0.003968 0.017111 -0.000321 0.000000 0.000000 0.000000
# 3 0.000960 -0.000321 0.013279 0.000000 0.000000 0.000000
# 4 0.000000 0.000000 0.000000 0.067998 0.000000 0.000000
# 5 0.000000 0.000000 0.000000 0.000000 0.099178 0.000000
# 6 0.000000 0.000000 0.000000 0.000000 0.000000 0.033700
#
#
# Mechanical properties :
#
#
# Convention : Reuss Voigt Hill
#
# Bulk Modulus (GPa) = 22.82072 23.05923 22.93997
# Shear Modulus (GPa) = 18.34064 22.89071 20.61567
#
# Velocity S-wave (km/s) = 3.08484 3.44631 3.27057
# Velocity P-wave (km/s) = 4.95268 5.27262 5.11515
#
# Compressibility (1/GPa) = 0.04381983
#
# Stress axis : x y z
#
# Youngs Moduli (GPa) = 49.78027 58.44242 75.30933
#
# Poissons Ratio (x) = 0.23188 -0.07227
# Poissons Ratio (y) = 0.19751 0.02416
# Poissons Ratio (z) = -0.04777 0.01875
#
# Static dielectric constant tensor:
#      x y z
#    x 1.836040 0.000000 0.000000 
#    y 0.000000 1.674660 0.000000 
#    z 0.000000 0.000000 1.787040 
# 
# From -- ./inp_files/35082.got.cif
#   From: 2010.05.17/outbox.cif.g08.bks.cpg/sg63_18_cif.got.tgz:35082.got - 2010.06.03 15:47:04.
