data_PCOD9469400
_publ_section_title
;
Structure prediction by ZEFSAII (Michael W. Deem and Ramdas Pophale) SiO2 
 PCOD9469400
Probable space group: C M C M
;
_chemical_formula_sum "Si O2"
_cell_formula_units_Z 80
_cell_length_a 7.464617
_cell_length_b 20.863596
_cell_length_c 23.747705
_cell_angle_alpha 90.000000
_cell_angle_beta 90.000000
_cell_angle_gamma 90.000000
_cell_volume 3698.437972
_symmetry_space_group_name_H-M "C M C M"
_symmetry_group_IT_number 63
_symmetry_cell_setting 'orthorhombic'
loop_
_space_group_symop_operation_xyz
x,y,z
-x,-y,1/2+z
x,-y,-z
-x,y,1/2-z
-x,-y,-z
x,y,1/2-z
-x,y,z
x,-y,1/2+z
1/2+x,1/2+y,z
1/2-x,1/2-y,1/2+z
1/2+x,1/2-y,-z
1/2-x,1/2+y,1/2-z
1/2-x,1/2-y,-z
1/2+x,1/2+y,1/2-z
1/2-x,1/2+y,z
1/2+x,1/2-y,1/2+z
loop_
_atom_site_type_symbol
_atom_site_label
_atom_site_fract_x
_atom_site_fract_y
_atom_site_fract_z
Si Si1 0.217171 0.180215 0.250000
Si Si2 0.219519 0.005045 0.565048
Si Si3 0.787696 0.832568 0.250000
Si Si4 0.780855 0.133856 0.628168
Si Si5 0.705348 0.384009 0.635107
Si Si6 0.787373 0.738173 0.434830
O O1 0.265125 0.255471 0.250000
O O2 0.282171 0.144615 0.306732
O O3 0.000000 0.179236 0.250000
O O4 0.274475 0.071848 0.593216
O O5 0.000000 0.003069 0.564245
O O6 0.276698 0.000000 0.500000
O O7 0.282846 0.946037 0.603882
O O8 0.717788 0.863058 0.307532
O O9 0.000000 0.844262 0.250000
O O10 0.723076 0.199686 0.598956
O O11 0.000000 0.133869 0.627956
O O12 0.500000 0.401155 0.648879
O O13 0.706220 0.326301 0.590240
O O14 0.750000 0.750000 0.500000
O O15 0.000000 0.732582 0.426519
#
# Coordination Sequence:
#
# PCOD9469400 Si02
#       6
#     8  16   8  16  16  16
#     4  10  20  33  51  79 113 141 172 218 272 326
#     4   9  17  31  51  76 108 141 177 224 271 315
#     4  10  18  33  55  79 105 135 182 232 264 310
#     4   9  18  31  52  79 103 136 178 223 268 310
#     4  10  20  34  54  79 108 143 179 219 272 326
#     4  11  21  34  54  79 107 139 182 226 270 320
#
# _framework density 21.630754
#
# number of rings (size 3 to 8) (size 9 to 14) (size 15 to 20)
#    0.000    2.200    2.000    1.800    0.000    4.000 
#    0.000    4.000    0.000    7.800    0.000    1.400 
#    0.000    0.000    0.000    0.000    0.000    0.000 
#
# Total GULP energy -223477.390684 kJ/mol
# GULP energy per Si atom -5586.934767 kJ/mol
# Density = 2.158152 g / cm^3
# Si number density = 21.630754 Si / 1000 Ang^3
#
#
#
# Elastic Constant Matrix: (Units=GPa)
#
#
# Indices 1 2 3 4 5 6 
#
# 1 64.8330 -4.7983 -2.5454 0.0000 0.0000 0.0000
# 2 -4.7983 78.0486 -6.9676 0.0000 0.0000 0.0000
# 3 -2.5454 -6.9676 102.3806 0.0000 0.0000 0.0000
# 4 0.0000 0.0000 0.0000 43.5249 0.0000 0.0000
# 5 0.0000 0.0000 0.0000 0.0000 6.3431 0.0000
# 6 0.0000 0.0000 0.0000 0.0000 0.0000 6.4818
#
#
#
# Elastic Compliance Matrix: (Units=1/GPa)
#
#
# Indices 1 2 3 4 5 6 
#
# 1 0.015516 0.000994 0.000453 0.000000 0.000000 0.000000
# 2 0.000994 0.012955 0.000906 0.000000 0.000000 0.000000
# 3 0.000453 0.000906 0.009840 0.000000 0.000000 0.000000
# 4 0.000000 0.000000 0.000000 0.022975 0.000000 0.000000
# 5 0.000000 0.000000 0.000000 0.000000 0.157653 0.000000
# 6 0.000000 0.000000 0.000000 0.000000 0.000000 0.154278
#
#
# Mechanical properties :
#
#
# Convention : Reuss Voigt Hill
#
# Bulk Modulus (GPa) = 23.24558 24.07106 23.65832
# Shear Modulus (GPa) = 13.06001 28.57486 20.81744
#
# Velocity S-wave (km/s) = 2.45984 3.63854 3.10562
# Velocity P-wave (km/s) = 4.34023 5.36696 4.88067
#
# Compressibility (1/GPa) = 0.04301893
#
# Stress axis : x y z
#
# Youngs Moduli (GPa) = 64.45109 77.19280 101.62159
#
# Poissons Ratio (x) = -0.07676 -0.04608
# Poissons Ratio (y) = -0.06409 -0.09211
# Poissons Ratio (z) = -0.02922 -0.06996
#
# Static dielectric constant tensor:
#      x y z
#    x 1.905660 0.000000 0.000000 
#    y 0.000000 1.733280 0.000000 
#    z 0.000000 0.000000 1.833890 
# 
# From -- ./inp_files/59499.got.cif
#   From: 2010.05.17/outbox.cif.g08.bks.cpg/sg63_30_cif.got.tgz:59499.got - 2010.06.03 15:47:04.
