data_PCOD9469130
_publ_section_title
;
Structure prediction by ZEFSAII (Michael W. Deem and Ramdas Pophale) SiO2 
 PCOD9469130
Probable space group: C M C M
;
_chemical_formula_sum "Si O2"
_cell_formula_units_Z 112
_cell_length_a 25.930483
_cell_length_b 25.662190
_cell_length_c 7.323873
_cell_angle_alpha 90.000000
_cell_angle_beta 90.000000
_cell_angle_gamma 90.000000
_cell_volume 4873.546647
_symmetry_space_group_name_H-M "C M C M"
_symmetry_group_IT_number 63
_symmetry_cell_setting 'orthorhombic'
loop_
_space_group_symop_operation_xyz
x,y,z
-x,-y,1/2+z
x,-y,-z
-x,y,1/2-z
-x,-y,-z
x,y,1/2-z
-x,y,z
x,-y,1/2+z
1/2+x,1/2+y,z
1/2-x,1/2-y,1/2+z
1/2+x,1/2-y,-z
1/2-x,1/2+y,1/2-z
1/2-x,1/2-y,-z
1/2+x,1/2+y,1/2-z
1/2-x,1/2+y,z
1/2+x,1/2-y,1/2+z
loop_
_atom_site_type_symbol
_atom_site_label
_atom_site_fract_x
_atom_site_fract_y
_atom_site_fract_z
Si Si1 0.834757 0.054720 0.532742
Si Si2 0.054420 0.929184 0.030112
Si Si3 0.839376 0.755502 0.028500
Si Si4 0.655057 0.133297 0.960905
Si Si5 0.731693 0.651334 0.526253
Si Si6 0.940703 0.561792 0.968059
Si Si7 0.055025 0.805969 0.030568
O O1 0.838841 0.061214 0.750000
O O2 0.892166 0.050568 0.454053
O O3 0.808296 0.107125 0.468663
O O4 0.806739 0.000000 0.500000
O O5 0.053818 0.936769 0.250000
O O6 0.055581 0.867387 0.999192
O O7 0.000000 0.948107 0.954942
O O8 0.837037 0.754571 0.250000
O O9 0.790996 0.792078 0.968980
O O10 0.891641 0.783222 0.965197
O O11 0.847934 0.696212 0.967311
O O12 0.658389 0.116389 0.750000
O O13 0.713026 0.129862 0.039606
O O14 0.605676 0.100462 0.034922
O O15 0.734142 0.653511 0.750000
O O16 0.943053 0.569197 0.750000
O O17 0.000000 0.571666 0.036142
O O18 0.929444 0.500000 0.000000
O O19 0.055255 0.798628 0.250000
O O20 0.000000 0.784572 0.963052
#
# Coordination Sequence:
#
# PCOD9469130 Si02
#       7
#    16  16  16  16  16  16  16
#     4  10  19  32  49  70  95 126 164 207 249 289
#     4   8  13  24  44  66  88 120 160 196 233 279
#     4  10  18  31  52  76 100 131 171 211 244 286
#     4  10  21  35  52  76 104 133 162 198 250 306
#     4   9  18  34  52  69  97 136 172 205 246 296
#     4   9  19  37  59  80 104 135 168 204 252 310
#     4   8  13  23  43  70  95 122 160 201 236 272
#
# _framework density 22.981209
#
# number of rings (size 3 to 8) (size 9 to 14) (size 15 to 20)
#    0.000    2.857    1.429    1.286    0.000    2.000 
#    0.000    1.429    0.000    0.000    0.000    2.000 
#    0.000    0.000    0.000    0.000    0.000    0.000 
#
# Total GULP energy -311963.362154 kJ/mol
# GULP energy per Si atom -5570.774324 kJ/mol
# Density = 2.292890 g / cm^3
# Si number density = 22.981209 Si / 1000 Ang^3
#
#
#
# Elastic Constant Matrix: (Units=GPa)
#
#
# Indices 1 2 3 4 5 6 
#
# 1 191.2337 97.2109 6.3288 0.0000 0.0000 0.0000
# 2 97.2109 130.3397 -3.3678 0.0000 0.0000 0.0000
# 3 6.3288 -3.3678 90.1842 0.0000 0.0000 0.0000
# 4 0.0000 0.0000 0.0000 12.5207 0.0000 0.0000
# 5 0.0000 0.0000 0.0000 0.0000 -68.0782 0.0000
# 6 0.0000 0.0000 0.0000 0.0000 0.0000 43.8378
#
#
#
# Elastic Compliance Matrix: (Units=1/GPa)
#
#
# Indices 1 2 3 4 5 6 
#
# 1 0.008484 -0.006349 -0.000833 0.000000 0.000000 0.000000
# 2 -0.006349 0.012431 0.000910 0.000000 0.000000 0.000000
# 3 -0.000833 0.000910 0.011181 0.000000 0.000000 0.000000
# 4 0.000000 0.000000 0.000000 0.079867 0.000000 0.000000
# 5 0.000000 0.000000 0.000000 0.000000 -0.014689 0.000000
# 6 0.000000 0.000000 0.000000 0.000000 0.000000 0.022811
#
#
# Mechanical properties :
#
#
# Convention : Reuss Voigt Hill
#
# Bulk Modulus (GPa) = 51.14484 68.01126 59.57805
# Shear Modulus (GPa) = 35.93299 18.42846 27.18072
#
# Velocity S-wave (km/s) = 3.95850 2.83484 3.44283
# Velocity P-wave (km/s) = 6.57240 6.35403 6.46413
#
# Compressibility (1/GPa) = 0.01955232
#
# Stress axis : x y z
#
# Youngs Moduli (GPa) = 117.86371 80.44203 89.43896
#
# Poissons Ratio (x) = 0.51076 0.07446
# Poissons Ratio (y) = 0.74836 -0.08137
# Poissons Ratio (z) = 0.09812 -0.07319
#
# Static dielectric constant tensor:
#      x y z
#    x 1.923060 0.000000 0.000000 
#    y 0.000000 1.854920 0.000000 
#    z 0.000000 0.000000 1.884230 
# 
# From -- ./inp_files/25177.got.cif
#   From: 2010.05.17/outbox.cif.g08.bks.cpg/sg63_13_cif.got.tgz:25177.got - 2010.06.03 15:47:04.
