data_PCOD9469099
_publ_section_title
;
Structure prediction by ZEFSAII (Michael W. Deem and Ramdas Pophale) SiO2 
 PCOD9469099
Probable space group: C M C M
;
_chemical_formula_sum "Si O2"
_cell_formula_units_Z 80
_cell_length_a 25.950766
_cell_length_b 21.007906
_cell_length_c 8.622104
_cell_angle_alpha 90.000000
_cell_angle_beta 90.000000
_cell_angle_gamma 90.000000
_cell_volume 4700.523239
_symmetry_space_group_name_H-M "C M C M"
_symmetry_group_IT_number 63
_symmetry_cell_setting 'orthorhombic'
loop_
_space_group_symop_operation_xyz
x,y,z
-x,-y,1/2+z
x,-y,-z
-x,y,1/2-z
-x,-y,-z
x,y,1/2-z
-x,y,z
x,-y,1/2+z
1/2+x,1/2+y,z
1/2-x,1/2-y,1/2+z
1/2+x,1/2-y,-z
1/2-x,1/2+y,1/2-z
1/2-x,1/2-y,-z
1/2+x,1/2+y,1/2-z
1/2-x,1/2+y,z
1/2+x,1/2-y,1/2+z
loop_
_atom_site_type_symbol
_atom_site_label
_atom_site_fract_x
_atom_site_fract_y
_atom_site_fract_z
Si Si1 0.613450 0.385534 0.935450
Si Si2 0.888507 0.258726 0.938181
Si Si3 0.500000 0.380387 0.937095
Si Si4 0.219662 0.067412 0.566182
Si Si5 0.000000 0.737191 0.435162
Si Si6 0.220385 0.311577 0.935784
O O1 0.619292 0.389223 0.750000
O O2 0.555667 0.409727 0.977313
O O3 0.616932 0.311433 0.987576
O O4 0.660569 0.421331 0.014207
O O5 0.888603 0.250567 0.750000
O O6 0.944040 0.286677 0.988734
O O7 0.839529 0.301576 0.978241
O O8 0.500000 0.371272 0.750000
O O9 0.500000 0.311558 0.018536
O O10 0.222072 0.067249 0.750000
O O11 0.253434 0.125472 0.501777
O O12 0.237463 0.000000 0.500000
O O13 0.000000 0.730904 0.250000
O O14 0.224682 0.312258 0.750000
O O15 0.250000 0.250000 0.000000
#
# Coordination Sequence:
#
# PCOD9469099 Si02
#       6
#    16  16   8  16   8  16
#     4  10  18  31  51  74 103 136 174 216 261 309
#     4   9  17  29  49  76 106 137 172 210 255 305
#     4   8  16  28  45  71 100 133 170 213 258 303
#     4  12  25  40  55  74 102 138 179 222 271 319
#     4   8  14  26  44  71 104 135 166 207 252 301
#     4  11  21  34  54  81 109 140 177 217 260 311
#
# _framework density 17.019383000000001
#
# number of rings (size 3 to 8) (size 9 to 14) (size 15 to 20)
#    0.000    2.000    2.000    3.000    0.000    1.600 
#    0.000    0.500    0.000    0.000    0.000    0.700 
#    0.000    0.000    0.000    0.000    0.000    0.000 
#
# Total GULP energy -223050.904633 kJ/mol
# GULP energy per Si atom -5576.272616 kJ/mol
# Density = 1.698065 g / cm^3
# Si number density = 17.019383 Si / 1000 Ang^3
#
#
#
# Elastic Constant Matrix: (Units=GPa)
#
#
# Indices 1 2 3 4 5 6 
#
# 1 145.6339 61.0004 41.4563 0.0000 0.0000 0.0000
# 2 61.0004 93.4609 29.1252 0.0000 0.0000 0.0000
# 3 41.4563 29.1252 55.3308 0.0000 0.0000 0.0000
# 4 0.0000 0.0000 0.0000 21.1706 0.0000 0.0000
# 5 0.0000 0.0000 0.0000 0.0000 19.7320 0.0000
# 6 0.0000 0.0000 0.0000 0.0000 0.0000 12.5218
#
#
#
# Elastic Compliance Matrix: (Units=1/GPa)
#
#
# Indices 1 2 3 4 5 6 
#
# 1 0.010534 -0.005283 -0.005112 0.000000 0.000000 0.000000
# 2 -0.005283 0.015448 -0.004174 0.000000 0.000000 0.000000
# 3 -0.005112 -0.004174 0.024100 0.000000 0.000000 0.000000
# 4 0.000000 0.000000 0.000000 0.047235 0.000000 0.000000
# 5 0.000000 0.000000 0.000000 0.000000 0.050679 0.000000
# 6 0.000000 0.000000 0.000000 0.000000 0.000000 0.079861
#
#
# Mechanical properties :
#
#
# Convention : Reuss Voigt Hill
#
# Bulk Modulus (GPa) = 47.74182 61.95439 54.84810
# Shear Modulus (GPa) = 18.94101 21.54110 20.24105
#
# Velocity S-wave (km/s) = 3.33965 3.56150 3.45236
# Velocity P-wave (km/s) = 6.55617 7.30710 6.94179
#
# Compressibility (1/GPa) = 0.02094600
#
# Stress axis : x y z
#
# Youngs Moduli (GPa) = 94.92677 64.73266 41.49305
#
# Poissons Ratio (x) = 0.34195 0.21212
# Poissons Ratio (y) = 0.50145 0.17318
# Poissons Ratio (z) = 0.48529 0.27018
#
# Static dielectric constant tensor:
#      x y z
#    x 1.642130 0.000000 0.000000 
#    y 0.000000 1.533420 0.000000 
#    z 0.000000 0.000000 1.566420 
# 
# From -- ./inp_files/12106.got.cif
#   From: 2010.05.17/outbox.cif.g08.bks.cpg/sg63_7_cif.got.tgz:12106.got - 2010.06.03 15:47:04.
