data_PCOD9469760
_publ_section_title
;
Structure prediction by ZEFSAII (Michael W. Deem and Ramdas Pophale) SiO2 
 PCOD9469760
Probable space group: C M C M
;
_chemical_formula_sum "Si O2"
_cell_formula_units_Z 112
_cell_length_a 14.059242
_cell_length_b 30.261381
_cell_length_c 14.946739
_cell_angle_alpha 90.000000
_cell_angle_beta 90.000000
_cell_angle_gamma 90.000000
_cell_volume 6359.121178
_symmetry_space_group_name_H-M "C M C M"
_symmetry_group_IT_number 63
_symmetry_cell_setting 'orthorhombic'
loop_
_space_group_symop_operation_xyz
x,y,z
-x,-y,1/2+z
x,-y,-z
-x,y,1/2-z
-x,-y,-z
x,y,1/2-z
-x,y,z
x,-y,1/2+z
1/2+x,1/2+y,z
1/2-x,1/2-y,1/2+z
1/2+x,1/2-y,-z
1/2-x,1/2+y,1/2-z
1/2-x,1/2-y,-z
1/2+x,1/2+y,1/2-z
1/2-x,1/2+y,z
1/2+x,1/2-y,1/2+z
loop_
_atom_site_type_symbol
_atom_site_label
_atom_site_fract_x
_atom_site_fract_y
_atom_site_fract_z
Si Si1 0.113583 0.290988 0.033533
Si Si2 0.236613 0.839003 0.356148
Si Si3 0.391357 0.487739 0.603555
Si Si4 0.390259 0.607990 0.358099
Si Si5 0.607868 0.582572 0.646663
Si Si6 0.887139 0.249707 0.850767
Si Si7 0.884339 0.796038 0.646777
O O1 0.172001 0.328276 0.084510
O O2 0.138912 0.244836 0.083714
O O3 0.000000 0.297360 0.041713
O O4 0.137817 0.283495 0.929585
O O5 0.260870 0.844561 0.250000
O O6 0.178134 0.881127 0.392125
O O7 0.168475 0.796140 0.361777
O O8 0.395353 0.500000 0.500000
O O9 0.500000 0.484203 0.639694
O O10 0.346809 0.439403 0.615905
O O11 0.352087 0.532805 0.645106
O O12 0.392563 0.609328 0.250000
O O13 0.500000 0.607011 0.390997
O O14 0.349114 0.655728 0.384722
O O15 0.598020 0.595755 0.750000
O O16 0.500000 0.582433 0.607778
O O17 0.870165 0.266351 0.750000
O O18 0.000000 0.240393 0.859705
O O19 0.855138 0.787516 0.750000
O O20 0.000000 0.799042 0.647960
#
# Coordination Sequence:
#
# PCOD9469760 Si02
#       7
#    16  16  16  16  16  16  16
#     4  10  19  30  46  67  92 123 155 191 235 275
#     4  10  19  30  45  65  90 121 157 195 232 272
#     4   9  16  24  36  57  82 108 143 184 222 261
#     4   8  13  22  35  50  72 104 139 174 212 256
#     4   9  17  29  44  62  88 124 160 190 224 269
#     4   9  18  32  47  62  82 112 153 195 230 269
#     4   8  14  24  38  58  84 114 148 182 219 267
#
# _framework density 17.612496
#
# number of rings (size 3 to 8) (size 9 to 14) (size 15 to 20)
#    0.000    3.000    0.000    2.571    0.000    5.429 
#    0.000    4.286    0.000    0.000    0.000    1.000 
#    0.000    1.714    0.000    2.571    0.000   38.000 
#
# Total GULP energy -312035.541930 kJ/mol
# GULP energy per Si atom -5572.063249 kJ/mol
# Density = 1.757241 g / cm^3
# Si number density = 17.612496 Si / 1000 Ang^3
#
#
#
# Elastic Constant Matrix: (Units=GPa)
#
#
# Indices 1 2 3 4 5 6 
#
# 1 53.4176 31.8665 15.2884 0.0000 0.0000 0.0000
# 2 31.8665 96.6605 23.6387 0.0000 0.0000 0.0000
# 3 15.2884 23.6387 63.6331 0.0000 0.0000 0.0000
# 4 0.0000 0.0000 0.0000 11.1645 0.0000 0.0000
# 5 0.0000 0.0000 0.0000 0.0000 7.0163 0.0000
# 6 0.0000 0.0000 0.0000 0.0000 0.0000 10.2817
#
#
#
# Elastic Compliance Matrix: (Units=1/GPa)
#
#
# Indices 1 2 3 4 5 6 
#
# 1 0.023843 -0.007105 -0.003089 0.000000 0.000000 0.000000
# 2 -0.007105 0.013496 -0.003307 0.000000 0.000000 0.000000
# 3 -0.003089 -0.003307 0.017686 0.000000 0.000000 0.000000
# 4 0.000000 0.000000 0.000000 0.089570 0.000000 0.000000
# 5 0.000000 0.000000 0.000000 0.000000 0.142526 0.000000
# 6 0.000000 0.000000 0.000000 0.000000 0.000000 0.097260
#
#
# Mechanical properties :
#
#
# Convention : Reuss Voigt Hill
#
# Bulk Modulus (GPa) = 35.68418 39.47759 37.58089
# Shear Modulus (GPa) = 11.88427 15.22032 13.55229
#
# Velocity S-wave (km/s) = 2.60044 2.94288 2.77694
# Velocity P-wave (km/s) = 5.41489 5.83186 5.62724
#
# Compressibility (1/GPa) = 0.02802362
#
# Stress axis : x y z
#
# Youngs Moduli (GPa) = 41.94091 74.09333 56.54300
#
# Poissons Ratio (x) = 0.52643 0.17467
# Poissons Ratio (y) = 0.29799 0.18697
# Poissons Ratio (z) = 0.12956 0.24500
#
# Static dielectric constant tensor:
#      x y z
#    x 1.606410 0.000000 0.000000 
#    y 0.000000 1.631370 0.000000 
#    z 0.000000 0.000000 1.689420 
# 
# From -- ./inp_files/32535.got.cif
#   From: 2010.05.17/outbox.cif.g08.bks.cpg/sg63_17_cif.got.tgz:32535.got - 2010.06.03 15:47:04.
