data_PCOD9469825
_publ_section_title
;
Structure prediction by ZEFSAII (Michael W. Deem and Ramdas Pophale) SiO2 
 PCOD9469825
Probable space group: C M C M
;
_chemical_formula_sum "Si O2"
_cell_formula_units_Z 96
_cell_length_a 8.858948
_cell_length_b 24.402377
_cell_length_c 26.300062
_cell_angle_alpha 90.000000
_cell_angle_beta 90.000000
_cell_angle_gamma 90.000000
_cell_volume 5685.531332
_symmetry_space_group_name_H-M "C M C M"
_symmetry_group_IT_number 63
_symmetry_cell_setting 'orthorhombic'
loop_
_space_group_symop_operation_xyz
x,y,z
-x,-y,1/2+z
x,-y,-z
-x,y,1/2-z
-x,-y,-z
x,y,1/2-z
-x,y,z
x,-y,1/2+z
1/2+x,1/2+y,z
1/2-x,1/2-y,1/2+z
1/2+x,1/2-y,-z
1/2-x,1/2+y,1/2-z
1/2-x,1/2-y,-z
1/2+x,1/2+y,1/2-z
1/2-x,1/2+y,z
1/2+x,1/2-y,1/2+z
loop_
_atom_site_type_symbol
_atom_site_label
_atom_site_fract_x
_atom_site_fract_y
_atom_site_fract_z
Si Si1 0.177814 0.881397 0.069686
Si Si2 0.173943 0.668472 0.116278
Si Si3 0.818334 0.083991 0.191435
Si Si4 0.179070 0.735270 0.555100
Si Si5 0.681150 0.494123 0.108535
Si Si6 0.326521 0.074466 0.030227
O O1 0.268628 0.825135 0.071724
O O2 0.215542 0.929550 0.109783
O O3 0.000000 0.869352 0.072305
O O4 0.218901 0.908887 0.015685
O O5 0.245598 0.636182 0.163550
O O6 0.264283 0.720678 0.096160
O O7 0.176621 0.624629 0.070148
O O8 0.000000 0.682945 0.126294
O O9 0.771719 0.079217 0.250000
O O10 0.000000 0.089578 0.189592
O O11 0.780008 0.029993 0.158138
O O12 0.250000 0.750000 0.500000
O O13 0.000000 0.737328 0.549762
O O14 0.500000 0.499225 0.100104
O O15 0.767275 0.522508 0.061624
O O16 0.500000 0.067427 0.013201
#
# Coordination Sequence:
#
# PCOD9469825 Si02
#       6
#    16  16  16  16  16  16
#     4  11  21  32  48  70 103 144 178 213 256 310
#     4  10  20  34  52  77 107 138 175 219 263 311
#     4   9  18  35  59  82 104 133 171 218 269 317
#     4  12  23  35  52  74 104 143 182 219 260 314
#     4   9  19  33  49  73 103 135 173 214 261 314
#     4  10  19  30  47  71 102 138 174 214 256 306
#
# _framework density 16.884965999999999
#
# number of rings (size 3 to 8) (size 9 to 14) (size 15 to 20)
#    0.000    1.833    1.667    3.500    0.000    5.000 
#    0.000    0.000    0.000    1.000    0.000    2.333 
#    0.000    0.000    0.000    0.000    0.000    0.000 
#
# Total GULP energy -267922.760530 kJ/mol
# GULP energy per Si atom -5581.724178 kJ/mol
# Density = 1.684654 g / cm^3
# Si number density = 16.884966 Si / 1000 Ang^3
#
#
#
# Elastic Constant Matrix: (Units=GPa)
#
#
# Indices 1 2 3 4 5 6 
#
# 1 82.5902 59.5230 34.3120 0.0000 0.0000 0.0000
# 2 59.5230 140.7611 46.4841 0.0000 0.0000 0.0000
# 3 34.3120 46.4841 82.2815 0.0000 0.0000 0.0000
# 4 0.0000 0.0000 0.0000 9.9735 0.0000 0.0000
# 5 0.0000 0.0000 0.0000 0.0000 17.4176 0.0000
# 6 0.0000 0.0000 0.0000 0.0000 0.0000 28.2047
#
#
#
# Elastic Compliance Matrix: (Units=1/GPa)
#
#
# Indices 1 2 3 4 5 6 
#
# 1 0.018446 -0.006466 -0.004039 0.000000 0.000000 0.000000
# 2 -0.006466 0.011000 -0.003518 0.000000 0.000000 0.000000
# 3 -0.004039 -0.003518 0.015825 0.000000 0.000000 0.000000
# 4 0.000000 0.000000 0.000000 0.100265 0.000000 0.000000
# 5 0.000000 0.000000 0.000000 0.000000 0.057413 0.000000
# 6 0.000000 0.000000 0.000000 0.000000 0.000000 0.035455
#
#
# Mechanical properties :
#
#
# Convention : Reuss Voigt Hill
#
# Bulk Modulus (GPa) = 58.05571 65.14122 61.59847
# Shear Modulus (GPa) = 18.36922 22.14010 20.25466
#
# Velocity S-wave (km/s) = 3.30192 3.62502 3.46723
# Velocity P-wave (km/s) = 6.99961 7.49561 7.25186
#
# Compressibility (1/GPa) = 0.01722483
#
# Stress axis : x y z
#
# Youngs Moduli (GPa) = 54.21103 90.90526 63.19033
#
# Poissons Ratio (x) = 0.58784 0.25523
# Poissons Ratio (y) = 0.35056 0.22231
# Poissons Ratio (z) = 0.21896 0.31981
#
# Static dielectric constant tensor:
#      x y z
#    x 1.570050 0.000000 0.000000 
#    y 0.000000 1.589760 0.000000 
#    z 0.000000 0.000000 1.551010 
# 
# From -- ./inp_files/59970.got.cif
#   From: 2010.05.17/outbox.cif.g08.bks.cpg/sg63_30_cif.got.tgz:59970.got - 2010.06.03 15:47:04.
