data_PCOD9469309
_publ_section_title
;
Structure prediction by ZEFSAII (Michael W. Deem and Ramdas Pophale) SiO2 
 PCOD9469309
Probable space group: C M C M
;
_chemical_formula_sum "Si O2"
_cell_formula_units_Z 112
_cell_length_a 13.316955
_cell_length_b 20.910924
_cell_length_c 23.048056
_cell_angle_alpha 90.000000
_cell_angle_beta 90.000000
_cell_angle_gamma 90.000000
_cell_volume 6418.188326
_symmetry_space_group_name_H-M "C M C M"
_symmetry_group_IT_number 63
_symmetry_cell_setting 'orthorhombic'
loop_
_space_group_symop_operation_xyz
x,y,z
-x,-y,1/2+z
x,-y,-z
-x,y,1/2-z
-x,-y,-z
x,y,1/2-z
-x,y,z
x,-y,1/2+z
1/2+x,1/2+y,z
1/2-x,1/2-y,1/2+z
1/2+x,1/2-y,-z
1/2-x,1/2+y,1/2-z
1/2-x,1/2-y,-z
1/2+x,1/2+y,1/2-z
1/2-x,1/2+y,z
1/2+x,1/2-y,1/2+z
loop_
_atom_site_type_symbol
_atom_site_label
_atom_site_fract_x
_atom_site_fract_y
_atom_site_fract_z
Si Si1 0.115025 0.991919 0.930248
Si Si2 0.112824 0.390804 0.012740
Si Si3 0.735904 0.628922 0.085428
Si Si4 0.118504 0.412418 0.819415
Si Si5 0.309530 0.954212 0.126127
Si Si6 0.617349 0.168364 0.685003
Si Si7 0.884486 0.747292 0.571946
O O1 0.142938 0.919838 0.910697
O O2 0.000000 0.007548 0.916509
O O3 0.196934 0.033752 0.896324
O O4 0.127049 0.000000 0.000000
O O5 0.128854 0.435632 0.068246
O O6 0.127045 0.317523 0.034674
O O7 0.000000 0.397945 0.990722
O O8 0.192012 0.402729 0.962709
O O9 0.804278 0.631151 0.143261
O O10 0.693835 0.696200 0.063102
O O11 0.133985 0.407892 0.750000
O O12 0.146108 0.483841 0.841901
O O13 0.000000 0.399559 0.830911
O O14 0.318247 0.892898 0.167315
O O15 0.637882 0.189632 0.750000
O O16 0.500000 0.147905 0.681130
O O17 0.629171 0.223566 0.637981
O O18 0.000000 0.769002 0.563720
#
# Coordination Sequence:
#
# PCOD9469309 Si02
#       7
#    16  16  16  16  16  16  16
#     4  10  20  34  49  71 103 137 172 203 239 295
#     4  10  19  32  51  79 104 125 158 210 263 307
#     4  11  20  33  52  73 102 137 171 203 249 301
#     4  10  21  34  50  74 102 134 168 203 247 299
#     4  10  18  32  54  77 101 130 163 205 254 304
#     4   9  17  31  54  80 103 129 164 211 260 301
#     4   9  19  33  50  74 103 131 168 209 250 299
#
# _framework density 17.450407999999999
#
# number of rings (size 3 to 8) (size 9 to 14) (size 15 to 20)
#    0.000    2.143    1.429    3.857    0.000    1.714 
#    0.000    2.143    0.000   17.571    0.000    0.000 
#    0.000    0.000    0.000    0.000    0.000    0.000 
#
# Total GULP energy -312264.463262 kJ/mol
# GULP energy per Si atom -5576.151130 kJ/mol
# Density = 1.741069 g / cm^3
# Si number density = 17.450408 Si / 1000 Ang^3
#
#
#
# Elastic Constant Matrix: (Units=GPa)
#
#
# Indices 1 2 3 4 5 6 
#
# 1 82.1629 15.2236 11.2378 0.0000 0.0000 0.0000
# 2 15.2236 20.8263 -15.7851 0.0000 0.0000 0.0000
# 3 11.2378 -15.7851 50.8982 0.0000 0.0000 0.0000
# 4 0.0000 0.0000 0.0000 5.8893 0.0000 0.0000
# 5 0.0000 0.0000 0.0000 0.0000 27.0173 0.0000
# 6 0.0000 0.0000 0.0000 0.0000 0.0000 24.0887
#
#
#
# Elastic Compliance Matrix: (Units=1/GPa)
#
#
# Indices 1 2 3 4 5 6 
#
# 1 0.017328 -0.020349 -0.010137 0.000000 0.000000 0.000000
# 2 -0.020349 0.086669 0.031372 0.000000 0.000000 0.000000
# 3 -0.010137 0.031372 0.031614 0.000000 0.000000 0.000000
# 4 0.000000 0.000000 0.000000 0.169800 0.000000 0.000000
# 5 0.000000 0.000000 0.000000 0.000000 0.037013 0.000000
# 6 0.000000 0.000000 0.000000 0.000000 0.000000 0.041513
#
#
# Mechanical properties :
#
#
# Convention : Reuss Voigt Hill
#
# Bulk Modulus (GPa) = 7.27897 19.47111 13.37504
# Shear Modulus (GPa) = 11.68331 20.94645 16.31488
#
# Velocity S-wave (km/s) = 2.59031 3.46835 3.06098
# Velocity P-wave (km/s) = 3.62306 5.21742 4.49155
#
# Compressibility (1/GPa) = 0.13738207
#
# Stress axis : x y z
#
# Youngs Moduli (GPa) = 57.71065 11.53817 31.63114
#
# Poissons Ratio (x) = 0.23479 0.32064
# Poissons Ratio (y) = 1.17437 -0.99232
# Poissons Ratio (z) = 0.58500 -0.36197
#
# Static dielectric constant tensor:
#      x y z
#    x 1.586040 0.000000 0.000000 
#    y 0.000000 1.598780 0.000000 
#    z 0.000000 0.000000 1.595810 
# 
# From -- ./inp_files/61770.got.cif
#   From: 2010.05.17/outbox.cif.g08.bks.cpg/sg63_31_cif.got.tgz:61770.got - 2010.06.03 15:47:04.
