data_PCOD9469207
_publ_section_title
;
Structure prediction by ZEFSAII (Michael W. Deem and Ramdas Pophale) SiO2 
 PCOD9469207
Probable space group: C M C M
;
_chemical_formula_sum "Si O2"
_cell_formula_units_Z 96
_cell_length_a 18.084893
_cell_length_b 14.168084
_cell_length_c 21.350831
_cell_angle_alpha 90.000000
_cell_angle_beta 90.000000
_cell_angle_gamma 90.000000
_cell_volume 5470.686771
_symmetry_space_group_name_H-M "C M C M"
_symmetry_group_IT_number 63
_symmetry_cell_setting 'orthorhombic'
loop_
_space_group_symop_operation_xyz
x,y,z
-x,-y,1/2+z
x,-y,-z
-x,y,1/2-z
-x,-y,-z
x,y,1/2-z
-x,y,z
x,-y,1/2+z
1/2+x,1/2+y,z
1/2-x,1/2-y,1/2+z
1/2+x,1/2-y,-z
1/2-x,1/2+y,1/2-z
1/2-x,1/2-y,-z
1/2+x,1/2+y,1/2-z
1/2-x,1/2+y,z
1/2+x,1/2-y,1/2+z
loop_
_atom_site_type_symbol
_atom_site_label
_atom_site_fract_x
_atom_site_fract_y
_atom_site_fract_z
Si Si1 0.149343 0.500000 0.500000
Si Si2 0.817912 0.798072 0.114870
Si Si3 0.266078 0.493699 0.888095
Si Si4 0.843836 0.794837 0.613725
Si Si5 0.347859 0.332431 0.750000
Si Si6 0.691132 0.270401 0.250000
Si Si7 0.415053 0.206546 0.493989
Si Si8 0.233818 0.010407 0.750000
O O1 0.202937 0.499447 0.560263
O O2 0.102561 0.404388 0.500476
O O3 0.815123 0.911353 0.110189
O O4 0.731803 0.766390 0.112976
O O5 0.847715 0.763351 0.182672
O O6 0.861493 0.751231 0.058288
O O7 0.315664 0.401270 0.898802
O O8 0.232027 0.487320 0.817725
O O9 0.877465 0.795246 0.683966
O O10 0.895863 0.755719 0.559975
O O11 0.261502 0.299042 0.750000
O O12 0.340996 0.446272 0.750000
O O13 0.721314 0.377942 0.250000
O O14 0.500000 0.221946 0.477298
#
# Coordination Sequence:
#
# PCOD9469207 Si02
#       8
#     8  16  16  16   8   8  16   8
#     4  12  21  36  54  76 105 142 180 218 261 316
#     4  10  18  35  56  82 106 137 177 221 265 313
#     4  10  18  31  60  86 106 130 174 223 270 310
#     4  10  18  35  56  82 106 137 177 221 265 313
#     4   8  16  28  53  80 105 130 169 219 267 309
#     4   8  16  28  53  80 105 130 169 219 267 309
#     4  12  25  38  51  75 111 148 181 216 261 314
#     4   8  16  28  46  88 116 122 150 224 280 312
#
# _framework density 17.548071
#
# number of rings (size 3 to 8) (size 9 to 14) (size 15 to 20)
#    0.000    2.000    3.333    1.750    0.000    0.000 
#    0.000    2.500    0.000    0.000    0.000   10.500 
#    0.000    0.000    0.000    0.000    0.000    0.000 
#
# Total GULP energy -267462.905887 kJ/mol
# GULP energy per Si atom -5572.143873 kJ/mol
# Density = 1.750813 g / cm^3
# Si number density = 17.548071 Si / 1000 Ang^3
#
#
#
# Elastic Constant Matrix: (Units=GPa)
#
#
# Indices 1 2 3 4 5 6 
#
# 1 12.3639 -4.8897 -1.7811 0.0000 0.0000 0.0000
# 2 -4.8897 107.3041 3.0772 0.0000 0.0000 0.0000
# 3 -1.7811 3.0772 89.8242 0.0000 0.0000 0.0000
# 4 0.0000 0.0000 0.0000 24.3523 0.0000 0.0000
# 5 0.0000 0.0000 0.0000 0.0000 1.7700 0.0000
# 6 0.0000 0.0000 0.0000 0.0000 0.0000 6.6525
#
#
#
# Elastic Compliance Matrix: (Units=1/GPa)
#
#
# Indices 1 2 3 4 5 6 
#
# 1 0.082569 0.003719 0.001510 0.000000 0.000000 0.000000
# 2 0.003719 0.009496 -0.000252 0.000000 0.000000 0.000000
# 3 0.001510 -0.000252 0.011171 0.000000 0.000000 0.000000
# 4 0.000000 0.000000 0.000000 0.041064 0.000000 0.000000
# 5 0.000000 0.000000 0.000000 0.000000 0.564980 0.000000
# 6 0.000000 0.000000 0.000000 0.000000 0.000000 0.150320
#
#
# Mechanical properties :
#
#
# Convention : Reuss Voigt Hill
#
# Bulk Modulus (GPa) = 8.83461 22.47832 15.65647
# Shear Modulus (GPa) = 5.63459 20.76068 13.19764
#
# Velocity S-wave (km/s) = 1.79386 3.44332 2.74539
# Velocity P-wave (km/s) = 3.05549 5.35219 4.35786
#
# Compressibility (1/GPa) = 0.11319117
#
# Stress axis : x y z
#
# Youngs Moduli (GPa) = 12.11112 105.30743 89.51417
#
# Poissons Ratio (x) = -0.39166 -0.13515
# Poissons Ratio (y) = -0.04504 0.02252
# Poissons Ratio (z) = -0.01829 0.02649
#
# Static dielectric constant tensor:
#      x y z
#    x 1.536600 0.000000 0.000000 
#    y 0.000000 1.620790 0.000000 
#    z 0.000000 0.000000 1.657130 
# 
# From -- ./inp_files/54288.got.cif
#   From: 2010.05.17/outbox.cif.g08.bks.cpg/sg63_28_cif.got.tgz:54288.got - 2010.06.03 15:47:04.
