data_PCOD9469772
_publ_section_title
;
Structure prediction by ZEFSAII (Michael W. Deem and Ramdas Pophale) SiO2 
 PCOD9469772
Probable space group: C M C M
;
_chemical_formula_sum "Si O2"
_cell_formula_units_Z 96
_cell_length_a 8.524648
_cell_length_b 23.902616
_cell_length_c 26.829940
_cell_angle_alpha 90.000000
_cell_angle_beta 90.000000
_cell_angle_gamma 90.000000
_cell_volume 5466.905806
_symmetry_space_group_name_H-M "C M C M"
_symmetry_group_IT_number 63
_symmetry_cell_setting 'orthorhombic'
loop_
_space_group_symop_operation_xyz
x,y,z
-x,-y,1/2+z
x,-y,-z
-x,y,1/2-z
-x,-y,-z
x,y,1/2-z
-x,y,z
x,-y,1/2+z
1/2+x,1/2+y,z
1/2-x,1/2-y,1/2+z
1/2+x,1/2-y,-z
1/2-x,1/2+y,1/2-z
1/2-x,1/2-y,-z
1/2+x,1/2+y,1/2-z
1/2-x,1/2+y,z
1/2+x,1/2-y,1/2+z
loop_
_atom_site_type_symbol
_atom_site_label
_atom_site_fract_x
_atom_site_fract_y
_atom_site_fract_z
Si Si1 0.324241 0.226318 0.192970
Si Si2 0.321011 0.645881 0.120744
Si Si3 0.188004 0.927207 0.307207
Si Si4 0.186563 0.323541 0.141330
Si Si5 0.311796 0.053090 0.306911
Si Si6 0.186870 0.741935 0.444546
O O1 0.326785 0.211473 0.250000
O O2 0.500000 0.214703 0.172454
O O3 0.193761 0.191677 0.164593
O O4 0.280768 0.290283 0.184300
O O5 0.500000 0.634353 0.107200
O O6 0.244551 0.592609 0.147951
O O7 0.236843 0.680616 0.076611
O O8 0.233986 0.911293 0.250000
O O9 0.264975 0.887284 0.348653
O O10 0.000000 0.923830 0.310751
O O11 0.242621 0.991175 0.313452
O O12 0.242205 0.290422 0.091643
O O13 0.000000 0.317853 0.145678
O O14 0.265817 0.071975 0.250000
O O15 0.500000 0.051540 0.307661
O O16 0.250000 0.750000 0.500000
O O17 0.000000 0.746631 0.443768
#
# Coordination Sequence:
#
# PCOD9469772 Si02
#       6
#    16  16  16  16  16  16
#     4  10  19  30  45  68 100 136 171 210 257 307
#     4  11  21  33  51  76 104 136 174 214 260 313
#     4  10  20  34  52  76 108 146 184 220 259 305
#     4  11  21  33  51  76 104 136 174 214 260 313
#     4  10  20  34  52  76 108 146 184 220 259 305
#     4  11  22  39  60  81 105 133 170 218 271 321
#
# _framework density 17.560207999999999
#
# number of rings (size 3 to 8) (size 9 to 14) (size 15 to 20)
#    0.000    1.500    0.000    9.000    0.000    7.333 
#    0.000    0.000    0.000    1.000    0.000    7.000 
#    0.000    0.000    0.000    0.000    0.000    0.000 
#
# Total GULP energy -267600.145873 kJ/mol
# GULP energy per Si atom -5575.003039 kJ/mol
# Density = 1.752024 g / cm^3
# Si number density = 17.560208 Si / 1000 Ang^3
#
#
#
# Elastic Constant Matrix: (Units=GPa)
#
#
# Indices 1 2 3 4 5 6 
#
# 1 103.3084 24.3765 32.2012 0.0000 0.0000 0.0000
# 2 24.3765 93.9630 43.5557 0.0000 0.0000 0.0000
# 3 32.2012 43.5557 87.2262 0.0000 0.0000 0.0000
# 4 0.0000 0.0000 0.0000 22.5443 0.0000 0.0000
# 5 0.0000 0.0000 0.0000 0.0000 24.3637 0.0000
# 6 0.0000 0.0000 0.0000 0.0000 0.0000 30.5036
#
#
#
# Elastic Compliance Matrix: (Units=1/GPa)
#
#
# Indices 1 2 3 4 5 6 
#
# 1 0.011054 -0.001270 -0.003446 0.000000 0.000000 0.000000
# 2 -0.001270 0.013994 -0.006519 0.000000 0.000000 0.000000
# 3 -0.003446 -0.006519 0.015992 0.000000 0.000000 0.000000
# 4 0.000000 0.000000 0.000000 0.044357 0.000000 0.000000
# 5 0.000000 0.000000 0.000000 0.000000 0.041045 0.000000
# 6 0.000000 0.000000 0.000000 0.000000 0.000000 0.032783
#
#
# Mechanical properties :
#
#
# Convention : Reuss Voigt Hill
#
# Bulk Modulus (GPa) = 53.85421 53.86271 53.85846
# Shear Modulus (GPa) = 26.61213 27.77327 27.19270
#
# Velocity S-wave (km/s) = 3.89714 3.98125 3.93942
# Velocity P-wave (km/s) = 7.14039 7.20233 7.17143
#
# Compressibility (1/GPa) = 0.01856865
#
# Stress axis : x y z
#
# Youngs Moduli (GPa) = 90.46748 71.46071 62.53165
#
# Poissons Ratio (x) = 0.09076 0.21552
# Poissons Ratio (y) = 0.11490 0.40763
# Poissons Ratio (z) = 0.31180 0.46584
#
# Static dielectric constant tensor:
#      x y z
#    x 1.603170 0.000000 0.000000 
#    y 0.000000 1.623590 0.000000 
#    z 0.000000 0.000000 1.608480 
# 
# From -- ./inp_files/67239.got.cif
#   From: 2010.05.17/outbox.cif.g08.bks.cpg/sg63_34_cif.got.tgz:67239.got - 2010.06.03 15:47:04.
