data_PCOD9469322
_publ_section_title
;
Structure prediction by ZEFSAII (Michael W. Deem and Ramdas Pophale) SiO2 
 PCOD9469322
Probable space group: C M C M
;
_chemical_formula_sum "Si O2"
_cell_formula_units_Z 72
_cell_length_a 21.966377
_cell_length_b 19.599381
_cell_length_c 8.727158
_cell_angle_alpha 90.000000
_cell_angle_beta 90.000000
_cell_angle_gamma 90.000000
_cell_volume 3757.280573
_symmetry_space_group_name_H-M "C M C M"
_symmetry_group_IT_number 63
_symmetry_cell_setting 'orthorhombic'
loop_
_space_group_symop_operation_xyz
x,y,z
-x,-y,1/2+z
x,-y,-z
-x,y,1/2-z
-x,-y,-z
x,y,1/2-z
-x,y,z
x,-y,1/2+z
1/2+x,1/2+y,z
1/2-x,1/2-y,1/2+z
1/2+x,1/2-y,-z
1/2-x,1/2+y,1/2-z
1/2-x,1/2-y,-z
1/2+x,1/2+y,1/2-z
1/2-x,1/2+y,z
1/2+x,1/2-y,1/2+z
loop_
_atom_site_type_symbol
_atom_site_label
_atom_site_fract_x
_atom_site_fract_y
_atom_site_fract_z
Si Si1 0.870877 0.314859 0.570266
Si Si2 0.879979 0.163862 0.065805
Si Si3 0.571394 0.933331 0.079059
Si Si4 0.000000 0.076868 0.064792
Si Si5 0.252794 0.672654 0.933445
O O1 0.862525 0.303247 0.750000
O O2 0.884876 0.242234 0.491371
O O3 0.922411 0.368240 0.529065
O O4 0.810976 0.352296 0.500807
O O5 0.875784 0.163701 0.250000
O O6 0.938768 0.118930 0.020005
O O7 0.815202 0.140045 0.995315
O O8 0.596309 0.920122 0.250000
O O9 0.500000 0.946453 0.097189
O O10 0.599361 0.000000 0.000000
O O11 0.000000 0.073288 0.250000
O O12 0.000000 0.000000 0.000000
O O13 0.252691 0.673616 0.750000
O O14 0.250000 0.750000 0.000000
#
# Coordination Sequence:
#
# PCOD9469322 Si02
#       5
#    16  16  16   8  16
#     4  11  21  34  56  86 115 148 189 235 279 332
#     4  10  20  37  58  84 113 147 187 232 286 341
#     4  10  21  37  55  77 111 151 186 226 274 327
#     4  10  24  42  62  84 115 152 189 236 292 346
#     4  10  18  32  54  82 112 146 183 232 287 336
#
# _framework density 19.162794999999999
#
# number of rings (size 3 to 8) (size 9 to 14) (size 15 to 20)
#    0.000    1.778    0.000    8.000    1.556    3.111 
#    0.000    1.111    0.000    2.667    0.000    0.000 
#    0.000    0.000    0.000    0.000    0.000    0.000 
#
# Total GULP energy -200617.241566 kJ/mol
# GULP energy per Si atom -5572.701155 kJ/mol
# Density = 1.911918 g / cm^3
# Si number density = 19.162795 Si / 1000 Ang^3
#
#
#
# Elastic Constant Matrix: (Units=GPa)
#
#
# Indices 1 2 3 4 5 6 
#
# 1 111.6429 42.3964 47.2093 0.0000 0.0000 0.0000
# 2 42.3964 78.4349 26.6914 0.0000 0.0000 0.0000
# 3 47.2093 26.6914 125.6387 0.0000 0.0000 0.0000
# 4 0.0000 0.0000 0.0000 26.4246 0.0000 0.0000
# 5 0.0000 0.0000 0.0000 0.0000 27.8087 0.0000
# 6 0.0000 0.0000 0.0000 0.0000 0.0000 -1.6638
#
#
#
# Elastic Compliance Matrix: (Units=1/GPa)
#
#
# Indices 1 2 3 4 5 6 
#
# 1 0.012578 -0.005595 -0.003538 0.000000 0.000000 0.000000
# 2 -0.005595 0.016232 -0.001346 0.000000 0.000000 0.000000
# 3 -0.003538 -0.001346 0.009575 0.000000 0.000000 0.000000
# 4 0.000000 0.000000 0.000000 0.037844 0.000000 0.000000
# 5 0.000000 0.000000 0.000000 0.000000 0.035960 0.000000
# 6 0.000000 0.000000 0.000000 0.000000 0.000000 -0.601020
#
#
# Mechanical properties :
#
#
# Convention : Reuss Voigt Hill
#
# Bulk Modulus (GPa) = 57.38197 60.92340 59.15269
# Shear Modulus (GPa) = -10.82095 23.80850 6.49378
#
# Velocity S-wave (km/s) = -2.37889 3.52864 1.84285
# Velocity P-wave (km/s) = 4.73962 6.96156 5.95514
#
# Compressibility (1/GPa) = 0.01742708
#
# Stress axis : x y z
#
# Youngs Moduli (GPa) = 79.50638 61.60805 104.44369
#
# Poissons Ratio (x) = 0.34468 0.36947
# Poissons Ratio (y) = 0.44482 0.14059
# Poissons Ratio (z) = 0.28125 0.08293
#
# Static dielectric constant tensor:
#      x y z
#    x 1.831790 0.000000 0.000000 
#    y 0.000000 1.661140 0.000000 
#    z 0.000000 0.000000 1.686750 
# 
# From -- ./inp_files/7870.got.cif
#   From: 2010.05.17/outbox.cif.g08.bks.cpg/sg63_4_cif.got.tgz:7870.got - 2010.06.03 15:47:04.
