data_PCOD9469662
_publ_section_title
;
Structure prediction by ZEFSAII (Michael W. Deem and Ramdas Pophale) SiO2 
 PCOD9469662
Probable space group: C M C M
;
_chemical_formula_sum "Si O2"
_cell_formula_units_Z 112
_cell_length_a 15.365565
_cell_length_b 22.544946
_cell_length_c 14.072835
_cell_angle_alpha 90.000000
_cell_angle_beta 90.000000
_cell_angle_gamma 90.000000
_cell_volume 4875.052862
_symmetry_space_group_name_H-M "C M C M"
_symmetry_group_IT_number 63
_symmetry_cell_setting 'orthorhombic'
loop_
_space_group_symop_operation_xyz
x,y,z
-x,-y,1/2+z
x,-y,-z
-x,y,1/2-z
-x,-y,-z
x,y,1/2-z
-x,y,z
x,-y,1/2+z
1/2+x,1/2+y,z
1/2-x,1/2-y,1/2+z
1/2+x,1/2-y,-z
1/2-x,1/2+y,1/2-z
1/2-x,1/2-y,-z
1/2+x,1/2+y,1/2-z
1/2-x,1/2+y,z
1/2+x,1/2-y,1/2+z
loop_
_atom_site_type_symbol
_atom_site_label
_atom_site_fract_x
_atom_site_fract_y
_atom_site_fract_z
Si Si1 0.603205 0.705182 0.643675
Si Si2 0.895120 0.722349 0.972987
Si Si3 0.142950 0.607908 0.856927
Si Si4 0.600703 0.340641 0.864200
Si Si5 0.211479 0.046834 0.133635
Si Si6 0.346399 0.578175 0.642898
Si Si7 0.406230 0.024086 0.134921
O O1 0.641422 0.706391 0.750000
O O2 0.500000 0.714681 0.651050
O O3 0.638991 0.756155 0.575350
O O4 0.614620 0.638860 0.601737
O O5 0.866163 0.660518 0.930687
O O6 0.872778 0.776933 0.904095
O O7 0.000000 0.719584 0.977618
O O8 0.113582 0.625875 0.750000
O O9 0.243976 0.591543 0.850459
O O10 0.096299 0.546523 0.882944
O O11 0.603508 0.339004 0.750000
O O12 0.500000 0.351671 0.892007
O O13 0.662739 0.393908 0.895539
O O14 0.214061 0.043632 0.250000
O O15 0.156637 0.988481 0.103585
O O16 0.312248 0.047061 0.100050
O O17 0.384611 0.574606 0.750000
O O18 0.405019 0.031377 0.250000
O O19 0.500000 0.048518 0.101393
#
# Coordination Sequence:
#
# PCOD9469662 Si02
#       7
#    16  16  16  16  16  16  16
#     4   9  18  32  47  63  87 121 164 211 246 274
#     4  10  19  29  43  66  96 130 163 190 230 294
#     4   9  16  26  43  69 100 128 153 188 236 292
#     4   9  17  28  42  64  98 136 167 195 232 286
#     4   8  14  25  41  62  90 123 160 201 240 283
#     4   8  15  28  45  65  88 118 159 201 239 279
#     4   8  13  22  39  65  96 127 157 194 241 285
#
# _framework density 22.97411
#
# number of rings (size 3 to 8) (size 9 to 14) (size 15 to 20)
#    0.000    3.286    0.000    2.571    0.000    2.571 
#    0.000    3.571    0.000    2.571    0.000    1.000 
#    0.000   21.714    0.000    3.429    0.000    2.000 
#
# Total GULP energy -312585.677381 kJ/mol
# GULP energy per Si atom -5581.887096 kJ/mol
# Density = 2.292182 g / cm^3
# Si number density = 22.974110 Si / 1000 Ang^3
#
#
#
# Elastic Constant Matrix: (Units=GPa)
#
#
# Indices 1 2 3 4 5 6 
#
# 1 54.5950 23.6372 15.1447 0.0000 0.0000 0.0000
# 2 23.6372 55.2959 23.6412 0.0000 0.0000 0.0000
# 3 15.1447 23.6412 81.0133 0.0000 0.0000 0.0000
# 4 0.0000 0.0000 0.0000 116.4495 0.0000 0.0000
# 5 0.0000 0.0000 0.0000 0.0000 9.0619 0.0000
# 6 0.0000 0.0000 0.0000 0.0000 0.0000 29.0975
#
#
#
# Elastic Compliance Matrix: (Units=1/GPa)
#
#
# Indices 1 2 3 4 5 6 
#
# 1 0.022659 -0.008998 -0.001610 0.000000 0.000000 0.000000
# 2 -0.008998 0.024235 -0.005390 0.000000 0.000000 0.000000
# 3 -0.001610 -0.005390 0.014218 0.000000 0.000000 0.000000
# 4 0.000000 0.000000 0.000000 0.008587 0.000000 0.000000
# 5 0.000000 0.000000 0.000000 0.000000 0.110352 0.000000
# 6 0.000000 0.000000 0.000000 0.000000 0.000000 0.034367
#
#
# Mechanical properties :
#
#
# Convention : Reuss Voigt Hill
#
# Bulk Modulus (GPa) = 34.34569 35.08336 34.71453
# Shear Modulus (GPa) = 19.52215 39.48719 29.50467
#
# Velocity S-wave (km/s) = 2.91820 4.15030 3.58754
# Velocity P-wave (km/s) = 5.13193 6.18633 5.68363
#
# Compressibility (1/GPa) = 0.02911573
#
# Stress axis : x y z
#
# Youngs Moduli (GPa) = 44.13281 41.26225 70.33509
#
# Poissons Ratio (x) = 0.37126 0.11326
# Poissons Ratio (y) = 0.39708 0.37913
# Poissons Ratio (z) = 0.07106 0.22242
#
# Static dielectric constant tensor:
#      x y z
#    x 1.842630 0.000000 0.000000 
#    y 0.000000 1.838410 0.000000 
#    z 0.000000 0.000000 1.953700 
# 
# From -- ./inp_files/32269.got.cif
#   From: 2010.05.17/outbox.cif.g08.bks.cpg/sg63_17_cif.got.tgz:32269.got - 2010.06.03 15:47:04.
