data_PCOD9469626
_publ_section_title
;
Structure prediction by ZEFSAII (Michael W. Deem and Ramdas Pophale) SiO2 
 PCOD9469626
Probable space group: C M C M
;
_chemical_formula_sum "Si O2"
_cell_formula_units_Z 56
_cell_length_a 5.737122
_cell_length_b 13.875244
_cell_length_c 25.719599
_cell_angle_alpha 90.000000
_cell_angle_beta 90.000000
_cell_angle_gamma 90.000000
_cell_volume 2047.382126
_symmetry_space_group_name_H-M "C M C M"
_symmetry_group_IT_number 63
_symmetry_cell_setting 'orthorhombic'
loop_
_space_group_symop_operation_xyz
x,y,z
-x,-y,1/2+z
x,-y,-z
-x,y,1/2-z
-x,-y,-z
x,y,1/2-z
-x,y,z
x,-y,1/2+z
1/2+x,1/2+y,z
1/2-x,1/2-y,1/2+z
1/2+x,1/2-y,-z
1/2-x,1/2+y,1/2-z
1/2-x,1/2-y,-z
1/2+x,1/2+y,1/2-z
1/2-x,1/2+y,z
1/2+x,1/2-y,1/2+z
loop_
_atom_site_type_symbol
_atom_site_label
_atom_site_fract_x
_atom_site_fract_y
_atom_site_fract_z
Si Si1 0.500000 0.133117 0.192688
Si Si2 0.000000 0.003904 0.937955
Si Si3 0.751869 0.826706 0.311429
Si Si4 0.500000 0.226032 0.447493
Si Si5 0.500000 0.717610 0.067870
Si Si6 0.500000 0.987195 0.911502
O O1 0.500000 0.088221 0.250000
O O2 0.711572 0.210297 0.189102
O O3 0.500000 0.059690 0.145782
O O4 0.000000 0.894216 0.916768
O O5 0.742855 0.040120 0.922680
O O6 0.000000 0.000000 0.000000
O O7 0.745845 0.852961 0.250000
O O8 0.500000 0.851264 0.334003
O O9 0.000000 0.867712 0.331167
O O10 0.500000 0.271674 0.504611
O O11 0.259824 0.253029 0.419085
O O12 0.500000 0.108969 0.449391
#
# Coordination Sequence:
#
# PCOD9469626 Si02
#       6
#     8   8  16   8   8   8
#     4   8  16  25  37  56  82 108 133 162 207 259
#     4  10  20  32  43  60  85 116 149 183 221 257
#     4   7  11  18  28  41  61  89 118 144 174 219
#     4   8  14  25  40  62  80 102 137 165 204 246
#     4   8  14  26  43  57  79 107 133 172 209 245
#     4  10  19  28  44  63  86 115 141 174 214 267
#
# _framework density 27.352004000000001
#
# number of rings (size 3 to 8) (size 9 to 14) (size 15 to 20)
#    0.857    2.857    0.000    0.429    2.000    0.000 
#    0.000    0.000    0.000    0.000    0.000    0.000 
#    0.000    2.286    0.000    0.000    0.000    0.000 
#
# Total GULP energy -156347.190538 kJ/mol
# GULP energy per Si atom -5583.828233 kJ/mol
# Density = 2.728975 g / cm^3
# Si number density = 27.352004 Si / 1000 Ang^3
#
#
#
# Elastic Constant Matrix: (Units=GPa)
#
#
# Indices 1 2 3 4 5 6 
#
# 1 377.1220 24.1285 56.0858 0.0000 0.0000 0.0000
# 2 24.1285 109.1054 -16.2523 0.0000 0.0000 0.0000
# 3 56.0858 -16.2523 126.9873 0.0000 0.0000 0.0000
# 4 0.0000 0.0000 0.0000 26.9614 0.0000 0.0000
# 5 0.0000 0.0000 0.0000 0.0000 51.3236 0.0000
# 6 0.0000 0.0000 0.0000 0.0000 0.0000 8.1060
#
#
#
# Elastic Compliance Matrix: (Units=1/GPa)
#
#
# Indices 1 2 3 4 5 6 
#
# 1 0.002914 -0.000852 -0.001396 0.000000 0.000000 0.000000
# 2 -0.000852 0.009593 0.001604 0.000000 0.000000 0.000000
# 3 -0.001396 0.001604 0.008697 0.000000 0.000000 0.000000
# 4 0.000000 0.000000 0.000000 0.037090 0.000000 0.000000
# 5 0.000000 0.000000 0.000000 0.000000 0.019484 0.000000
# 6 0.000000 0.000000 0.000000 0.000000 0.000000 0.123365
#
#
# Mechanical properties :
#
#
# Convention : Reuss Voigt Hill
#
# Bulk Modulus (GPa) = 50.21324 82.34873 66.28099
# Shear Modulus (GPa) = 23.91551 53.89504 38.90527
#
# Velocity S-wave (km/s) = 2.96017 4.44376 3.77555
# Velocity P-wave (km/s) = 5.48466 7.51676 6.57963
#
# Compressibility (1/GPa) = 0.01991507
#
# Stress axis : x y z
#
# Youngs Moduli (GPa) = 343.19315 104.24372 114.98634
#
# Poissons Ratio (x) = 0.08885 0.16052
# Poissons Ratio (y) = 0.29252 -0.18446
# Poissons Ratio (z) = 0.47910 -0.16723
#
# Static dielectric constant tensor:
#      x y z
#    x 2.188390 0.000000 0.000000 
#    y 0.000000 2.075030 0.000000 
#    z 0.000000 0.000000 2.241000 
# 
# From -- ./inp_files/65936.got.cif
#   From: 2010.05.17/outbox.cif.g08.bks.cpg/sg63_33_cif.got.tgz:65936.got - 2010.06.03 15:47:04.
