data_PCOD9469342
_publ_section_title
;
Structure prediction by ZEFSAII (Michael W. Deem and Ramdas Pophale) SiO2 
 PCOD9469342
Probable space group: C M C M
;
_chemical_formula_sum "Si O2"
_cell_formula_units_Z 88
_cell_length_a 33.464857
_cell_length_b 5.497248
_cell_length_c 22.638419
_cell_angle_alpha 90.000000
_cell_angle_beta 90.000000
_cell_angle_gamma 90.000000
_cell_volume 4164.668108
_symmetry_space_group_name_H-M "C M C M"
_symmetry_group_IT_number 63
_symmetry_cell_setting 'orthorhombic'
loop_
_space_group_symop_operation_xyz
x,y,z
-x,-y,1/2+z
x,-y,-z
-x,y,1/2-z
-x,-y,-z
x,y,1/2-z
-x,y,z
x,-y,1/2+z
1/2+x,1/2+y,z
1/2-x,1/2-y,1/2+z
1/2+x,1/2-y,-z
1/2-x,1/2+y,1/2-z
1/2-x,1/2-y,-z
1/2+x,1/2+y,1/2-z
1/2-x,1/2+y,z
1/2+x,1/2-y,1/2+z
loop_
_atom_site_type_symbol
_atom_site_label
_atom_site_fract_x
_atom_site_fract_y
_atom_site_fract_z
Si Si1 0.112718 0.757171 0.750000
Si Si2 0.224658 0.234100 0.380279
Si Si3 0.426648 0.744623 0.121908
Si Si4 0.109867 0.257204 0.750000
Si Si5 0.648845 0.750153 0.463083
Si Si6 0.044275 0.255480 0.853558
Si Si7 0.224758 0.705605 0.750000
O O1 0.084974 0.756695 0.691747
O O2 0.135059 0.501929 0.750000
O O3 0.134974 0.012411 0.750000
O O4 0.253307 0.472037 0.385581
O O5 0.190875 0.250616 0.429377
O O6 0.205776 0.255325 0.314519
O O7 0.386314 0.747866 0.084926
O O8 0.449812 0.493854 0.110788
O O9 0.450325 0.993831 0.111198
O O10 0.080053 0.256816 0.805756
O O11 0.645804 0.500000 0.500000
O O12 0.645412 0.000000 0.500000
O O13 0.000000 0.253368 0.826301
O O14 0.242507 0.429594 0.750000
#
# Coordination Sequence:
#
# PCOD9469342 Si02
#       7
#     8  16  16   8  16  16   8
#     4   8  16  31  53  80 109 145 183 226 283 341
#     4  10  21  39  64  93 121 150 189 232 278 340
#     4  10  21  37  56  83 116 147 188 235 286 348
#     4   8  15  26  46  81 117 143 171 220 289 353
#     4  12  26  42  61  83 114 158 196 238 290 328
#     4  10  18  32  56  83 113 147 185 233 287 345
#     4   8  16  33  58  89 122 150 177 222 283 334
#
# _framework density 21.130134000000002
#
# number of rings (size 3 to 8) (size 9 to 14) (size 15 to 20)
#    0.000    2.182    0.000    3.000    0.000    2.909 
#    0.000    5.455    0.000   26.182    0.000    0.000 
#    0.000    0.000    0.000    0.000    0.000    0.000 
#
# Total GULP energy -245272.138286 kJ/mol
# GULP energy per Si atom -5574.366779 kJ/mol
# Density = 2.108204 g / cm^3
# Si number density = 21.130134 Si / 1000 Ang^3
#
#
#
# Elastic Constant Matrix: (Units=GPa)
#
#
# Indices 1 2 3 4 5 6 
#
# 1 71.5046 39.5416 40.8361 0.0000 0.0000 0.0000
# 2 39.5416 241.3865 29.3613 0.0000 0.0000 0.0000
# 3 40.8361 29.3613 65.7846 0.0000 0.0000 0.0000
# 4 0.0000 0.0000 0.0000 18.3226 0.0000 0.0000
# 5 0.0000 0.0000 0.0000 0.0000 0.4561 0.0000
# 6 0.0000 0.0000 0.0000 0.0000 0.0000 36.6582
#
#
#
# Elastic Compliance Matrix: (Units=1/GPa)
#
#
# Indices 1 2 3 4 5 6 
#
# 1 0.022642 -0.002114 -0.013112 0.000000 0.000000 0.000000
# 2 -0.002114 0.004578 -0.000731 0.000000 0.000000 0.000000
# 3 -0.013112 -0.000731 0.023666 0.000000 0.000000 0.000000
# 4 0.000000 0.000000 0.000000 0.054577 0.000000 0.000000
# 5 0.000000 0.000000 0.000000 0.000000 2.192361 0.000000
# 6 0.000000 0.000000 0.000000 0.000000 0.000000 0.027279
#
#
# Mechanical properties :
#
#
# Convention : Reuss Voigt Hill
#
# Bulk Modulus (GPa) = 52.70583 66.46152 59.58367
# Shear Modulus (GPa) = 2.11565 29.01651 15.56608
#
# Velocity S-wave (km/s) = 1.00171 3.70973 2.71712
# Velocity P-wave (km/s) = 5.13181 7.06195 6.17279
#
# Compressibility (1/GPa) = 0.01897323
#
# Stress axis : x y z
#
# Youngs Moduli (GPa) = 44.16514 218.43792 42.25389
#
# Poissons Ratio (x) = 0.46182 0.55402
# Poissons Ratio (y) = 0.09337 0.03088
# Poissons Ratio (z) = 0.57908 0.15965
#
# Static dielectric constant tensor:
#      x y z
#    x 1.732100 0.000000 0.000000 
#    y 0.000000 1.865640 0.000000 
#    z 0.000000 0.000000 2.334600 
# 
# From -- ./inp_files/65730.got.cif
#   From: 2010.05.17/outbox.cif.g08.bks.cpg/sg63_33_cif.got.tgz:65730.got - 2010.06.03 15:47:04.
