data_PCOD9469884
_publ_section_title
;
Structure prediction by ZEFSAII (Michael W. Deem and Ramdas Pophale) SiO2 
 PCOD9469884
Probable space group: C M C M
;
_chemical_formula_sum "Si O2"
_cell_formula_units_Z 96
_cell_length_a 17.436598
_cell_length_b 12.445290
_cell_length_c 23.730357
_cell_angle_alpha 90.000000
_cell_angle_beta 90.000000
_cell_angle_gamma 90.000000
_cell_volume 5149.570970
_symmetry_space_group_name_H-M "C M C M"
_symmetry_group_IT_number 63
_symmetry_cell_setting 'orthorhombic'
loop_
_space_group_symop_operation_xyz
x,y,z
-x,-y,1/2+z
x,-y,-z
-x,y,1/2-z
-x,-y,-z
x,y,1/2-z
-x,y,z
x,-y,1/2+z
1/2+x,1/2+y,z
1/2-x,1/2-y,1/2+z
1/2+x,1/2-y,-z
1/2-x,1/2+y,1/2-z
1/2-x,1/2-y,-z
1/2+x,1/2+y,1/2-z
1/2-x,1/2+y,z
1/2+x,1/2-y,1/2+z
loop_
_atom_site_type_symbol
_atom_site_label
_atom_site_fract_x
_atom_site_fract_y
_atom_site_fract_z
Si Si1 0.294916 0.578713 0.136513
Si Si2 0.086529 0.337113 0.986495
Si Si3 0.779617 0.426227 0.446771
Si Si4 0.317762 0.247052 0.108642
Si Si5 0.590552 0.414800 0.185171
Si Si6 0.416174 0.604444 0.039070
O O1 0.237249 0.489703 0.110610
O O2 0.242364 0.682459 0.148123
O O3 0.353724 0.518845 0.178191
O O4 0.350168 0.609740 0.084678
O O5 0.133932 0.337627 0.928532
O O6 0.000000 0.376132 0.980838
O O7 0.134522 0.394564 0.035719
O O8 0.083980 0.211269 0.002179
O O9 0.754394 0.500000 0.500000
O O10 0.730518 0.318392 0.436409
O O11 0.373873 0.325765 0.143054
O O12 0.594925 0.378616 0.250000
O O13 0.500000 0.434085 0.172542
O O14 0.500000 0.598237 0.067294
O O15 0.409823 0.500000 0.000000
#
# Coordination Sequence:
#
# PCOD9469884 Si02
#       6
#    16  16  16  16  16  16
#     4  11  20  34  58  80 108 141 182 226 274 327
#     4  11  21  32  48  76 115 153 182 208 250 316
#     4  11  20  33  51  76 113 152 180 214 258 311
#     4  11  21  35  57  83 109 143 185 227 275 330
#     4  10  23  42  61  82 107 136 180 241 297 339
#     4  10  19  30  49  78 110 144 180 217 259 313
#
# _framework density 18.642330000000001
#
# number of rings (size 3 to 8) (size 9 to 14) (size 15 to 20)
#    0.000    1.333    3.333    5.000    0.000    2.333 
#    0.000    0.000    0.000    0.500    0.000    0.000 
#    0.000   10.667    0.000    0.000    0.000    0.000 
#
# Total GULP energy -267608.741105 kJ/mol
# GULP energy per Si atom -5575.182106 kJ/mol
# Density = 1.859990 g / cm^3
# Si number density = 18.642330 Si / 1000 Ang^3
#
#
#
# Elastic Constant Matrix: (Units=GPa)
#
#
# Indices 1 2 3 4 5 6 
#
# 1 143.0122 38.3290 27.4258 0.0000 0.0000 0.0000
# 2 38.3290 63.0748 8.3714 0.0000 0.0000 0.0000
# 3 27.4258 8.3714 46.0292 0.0000 0.0000 0.0000
# 4 0.0000 0.0000 0.0000 15.0973 0.0000 0.0000
# 5 0.0000 0.0000 0.0000 0.0000 23.7127 0.0000
# 6 0.0000 0.0000 0.0000 0.0000 0.0000 26.8745
#
#
#
# Elastic Compliance Matrix: (Units=1/GPa)
#
#
# Indices 1 2 3 4 5 6 
#
# 1 0.009207 -0.004987 -0.004579 0.000000 0.000000 0.000000
# 2 -0.004987 0.018948 -0.000474 0.000000 0.000000 0.000000
# 3 -0.004579 -0.000474 0.024540 0.000000 0.000000 0.000000
# 4 0.000000 0.000000 0.000000 0.066237 0.000000 0.000000
# 5 0.000000 0.000000 0.000000 0.000000 0.042172 0.000000
# 6 0.000000 0.000000 0.000000 0.000000 0.000000 0.037210
#
#
# Mechanical properties :
#
#
# Convention : Reuss Voigt Hill
#
# Bulk Modulus (GPa) = 30.66205 44.48539 37.57372
# Shear Modulus (GPa) = 21.80873 25.00290 23.40582
#
# Velocity S-wave (km/s) = 3.42402 3.66620 3.54718
# Velocity P-wave (km/s) = 5.66702 6.46805 6.08074
#
# Compressibility (1/GPa) = 0.03261360
#
# Stress axis : x y z
#
# Youngs Moduli (GPa) = 108.61108 52.77659 40.74991
#
# Poissons Ratio (x) = 0.26321 0.18659
# Poissons Ratio (y) = 0.54167 0.01933
# Poissons Ratio (z) = 0.49732 0.02504
#
# Static dielectric constant tensor:
#      x y z
#    x 1.706550 0.000000 0.000000 
#    y 0.000000 1.720180 0.000000 
#    z 0.000000 0.000000 1.625570 
# 
# From -- ./inp_files/63674.got.cif
#   From: 2010.05.17/outbox.cif.g08.bks.cpg/sg63_32_cif.got.tgz:63674.got - 2010.06.03 15:47:04.
