data_PCOD9469971
_publ_section_title
;
Structure prediction by ZEFSAII (Michael W. Deem and Ramdas Pophale) SiO2 
 PCOD9469971
Probable space group: C M C M
;
_chemical_formula_sum "Si O2"
_cell_formula_units_Z 80
_cell_length_a 7.608493
_cell_length_b 20.081008
_cell_length_c 25.764507
_cell_angle_alpha 90.000000
_cell_angle_beta 90.000000
_cell_angle_gamma 90.000000
_cell_volume 3936.461346
_symmetry_space_group_name_H-M "C M C M"
_symmetry_group_IT_number 63
_symmetry_cell_setting 'orthorhombic'
loop_
_space_group_symop_operation_xyz
x,y,z
-x,-y,1/2+z
x,-y,-z
-x,y,1/2-z
-x,-y,-z
x,y,1/2-z
-x,y,z
x,-y,1/2+z
1/2+x,1/2+y,z
1/2-x,1/2-y,1/2+z
1/2+x,1/2-y,-z
1/2-x,1/2+y,1/2-z
1/2-x,1/2-y,-z
1/2+x,1/2+y,1/2-z
1/2-x,1/2+y,z
1/2+x,1/2-y,1/2+z
loop_
_atom_site_type_symbol
_atom_site_label
_atom_site_fract_x
_atom_site_fract_y
_atom_site_fract_z
Si Si1 0.297438 0.145924 0.023264
Si Si2 0.286926 0.879419 0.809169
Si Si3 0.784548 0.738217 0.116318
Si Si4 0.793990 0.972952 0.597336
Si Si5 0.700668 0.620629 0.908255
O O1 0.228697 0.202175 0.062766
O O2 0.289963 0.077258 0.055861
O O3 0.000000 0.339125 0.988919
O O4 0.199826 0.137919 0.969315
O O5 0.227297 0.884566 0.750000
O O6 0.500000 0.880744 0.809619
O O7 0.232597 0.810481 0.837016
O O8 0.224894 0.938317 0.846791
O O9 0.721450 0.813939 0.118806
O O10 0.000000 0.739044 0.114909
O O11 0.000000 0.976683 0.583158
O O12 0.718671 0.047486 0.597481
O O13 0.500000 0.614634 0.889127
#
# Coordination Sequence:
#
# PCOD9469971 Si02
#       5
#    16  16  16  16  16
#     4  10  19  31  49  71  97 132 168 197 228 274
#     4   9  18  35  57  74  90 119 159 201 242 285
#     4   8  16  31  49  71  96 123 159 197 235 281
#     4  10  20  32  48  72 100 129 160 194 235 283
#     4  10  19  31  47  70 102 132 157 193 238 281
#
# _framework density 20.32282
#
# number of rings (size 3 to 8) (size 9 to 14) (size 15 to 20)
#    0.000    2.600    0.000    3.600    0.000    4.400 
#    0.000    5.000    0.000    3.600    0.000    0.000 
#    0.000    0.000    0.000    0.000    0.000    0.000 
#
# Total GULP energy -223250.883803 kJ/mol
# GULP energy per Si atom -5581.272095 kJ/mol
# Density = 2.027656 g / cm^3
# Si number density = 20.322820 Si / 1000 Ang^3
#
#
#
# Elastic Constant Matrix: (Units=GPa)
#
#
# Indices 1 2 3 4 5 6 
#
# 1 50.5413 -5.6531 -9.9916 0.0000 0.0000 0.0000
# 2 -5.6531 128.9842 1.6290 0.0000 0.0000 0.0000
# 3 -9.9916 1.6290 53.4182 0.0000 0.0000 0.0000
# 4 0.0000 0.0000 0.0000 4.1883 0.0000 0.0000
# 5 0.0000 0.0000 0.0000 0.0000 17.6970 0.0000
# 6 0.0000 0.0000 0.0000 0.0000 0.0000 8.1794
#
#
#
# Elastic Compliance Matrix: (Units=1/GPa)
#
#
# Indices 1 2 3 4 5 6 
#
# 1 0.020640 0.000856 0.003834 0.000000 0.000000 0.000000
# 2 0.000856 0.007791 -0.000077 0.000000 0.000000 0.000000
# 3 0.003834 -0.000077 0.019440 0.000000 0.000000 0.000000
# 4 0.000000 0.000000 0.000000 0.238763 0.000000 0.000000
# 5 0.000000 0.000000 0.000000 0.000000 0.056507 0.000000
# 6 0.000000 0.000000 0.000000 0.000000 0.000000 0.122258
#
#
# Mechanical properties :
#
#
# Convention : Reuss Voigt Hill
#
# Bulk Modulus (GPa) = 17.51405 22.76804 20.14104
# Shear Modulus (GPa) = 10.52178 22.47689 16.49933
#
# Velocity S-wave (km/s) = 2.27784 3.32925 2.85241
# Velocity P-wave (km/s) = 3.94395 5.09962 4.55855
#
# Compressibility (1/GPa) = 0.05709701
#
# Stress axis : x y z
#
# Youngs Moduli (GPa) = 48.45055 128.34682 51.44089
#
# Poissons Ratio (x) = -0.10989 -0.19725
# Poissons Ratio (y) = -0.04148 0.00398
# Poissons Ratio (z) = -0.18578 0.00994
#
# Static dielectric constant tensor:
#      x y z
#    x 1.770030 0.000000 0.000000 
#    y 0.000000 1.755970 0.000000 
#    z 0.000000 0.000000 1.671710 
# 
# From -- ./inp_files/61099.got.cif
#   From: 2010.05.17/outbox.cif.g08.bks.cpg/sg63_31_cif.got.tgz:61099.got - 2010.06.03 15:47:04.
