data_PCOD9469052
_publ_section_title
;
Structure prediction by ZEFSAII (Michael W. Deem and Ramdas Pophale) SiO2 
 PCOD9469052
Probable space group: C M C M
;
_chemical_formula_sum "Si O2"
_cell_formula_units_Z 80
_cell_length_a 7.547101
_cell_length_b 29.695943
_cell_length_c 21.040973
_cell_angle_alpha 90.000000
_cell_angle_beta 90.000000
_cell_angle_gamma 90.000000
_cell_volume 4715.666702
_symmetry_space_group_name_H-M "C M C M"
_symmetry_group_IT_number 63
_symmetry_cell_setting 'orthorhombic'
loop_
_space_group_symop_operation_xyz
x,y,z
-x,-y,1/2+z
x,-y,-z
-x,y,1/2-z
-x,-y,-z
x,y,1/2-z
-x,y,z
x,-y,1/2+z
1/2+x,1/2+y,z
1/2-x,1/2-y,1/2+z
1/2+x,1/2-y,-z
1/2-x,1/2+y,1/2-z
1/2-x,1/2-y,-z
1/2+x,1/2+y,1/2-z
1/2-x,1/2+y,z
1/2+x,1/2-y,1/2+z
loop_
_atom_site_type_symbol
_atom_site_label
_atom_site_fract_x
_atom_site_fract_y
_atom_site_fract_z
Si Si1 0.000000 0.031842 0.904205
Si Si2 0.789130 0.233768 0.427975
Si Si3 0.788705 0.583146 0.675544
Si Si4 0.214750 0.671621 0.895684
Si Si5 0.000000 0.067596 0.450876
Si Si6 0.797186 0.361936 0.536289
O O1 0.171410 0.050111 0.866890
O O2 0.000000 0.978078 0.910833
O O3 0.000000 0.052394 0.975181
O O4 0.750000 0.250000 0.500000
O O5 0.724041 0.276817 0.387553
O O6 0.710753 0.184006 0.422686
O O7 0.000000 0.229113 0.420223
O O8 0.757116 0.576036 0.750000
O O9 0.736834 0.634119 0.655392
O O10 0.000000 0.578208 0.663267
O O11 0.000000 0.674163 0.897235
O O12 0.266784 0.652781 0.965354
O O13 0.829921 0.099073 0.439655
O O14 0.000000 0.376989 0.531129
#
# Coordination Sequence:
#
# PCOD9469052 Si02
#       6
#     8  16  16  16   8  16
#     4  11  23  36  52  76 103 137 184 222 271 320
#     4   9  15  24  42  68 101 137 170 197 237 298
#     4  10  20  36  56  76 103 135 171 221 269 313
#     4   8  15  27  45  72 102 136 169 203 248 308
#     4  11  22  34  52  74 104 146 174 220 272 322
#     4  10  18  31  47  70 104 139 174 209 253 313
#
# _framework density 16.964727
#
# number of rings (size 3 to 8) (size 9 to 14) (size 15 to 20)
#    0.000    2.400    3.000    2.100    0.000    0.800 
#    1.800    2.000    0.000    0.000    0.000    2.800 
#    0.000    3.200    0.000    0.000    0.000    0.000 
#
# Total GULP energy -222877.441237 kJ/mol
# GULP energy per Si atom -5571.936031 kJ/mol
# Density = 1.692611 g / cm^3
# Si number density = 16.964727 Si / 1000 Ang^3
#
#
#
# Elastic Constant Matrix: (Units=GPa)
#
#
# Indices 1 2 3 4 5 6 
#
# 1 78.1909 48.4773 22.7186 0.0000 0.0000 0.0000
# 2 48.4773 152.6183 39.6288 0.0000 0.0000 0.0000
# 3 22.7186 39.6288 48.9876 0.0000 0.0000 0.0000
# 4 0.0000 0.0000 0.0000 17.5412 0.0000 0.0000
# 5 0.0000 0.0000 0.0000 0.0000 7.5324 0.0000
# 6 0.0000 0.0000 0.0000 0.0000 0.0000 21.8015
#
#
#
# Elastic Compliance Matrix: (Units=1/GPa)
#
#
# Indices 1 2 3 4 5 6 
#
# 1 0.016628 -0.004151 -0.004353 0.000000 0.000000 0.000000
# 2 -0.004151 0.009331 -0.005623 0.000000 0.000000 0.000000
# 3 -0.004353 -0.005623 0.026981 0.000000 0.000000 0.000000
# 4 0.000000 0.000000 0.000000 0.057009 0.000000 0.000000
# 5 0.000000 0.000000 0.000000 0.000000 0.132760 0.000000
# 6 0.000000 0.000000 0.000000 0.000000 0.000000 0.045869
#
#
# Mechanical properties :
#
#
# Convention : Reuss Voigt Hill
#
# Bulk Modulus (GPa) = 40.51101 55.71626 48.11363
# Shear Modulus (GPa) = 15.38175 20.63981 18.01078
#
# Velocity S-wave (km/s) = 3.01440 3.49181 3.26185
# Velocity P-wave (km/s) = 6.00390 7.01218 6.52754
#
# Compressibility (1/GPa) = 0.02468465
#
# Stress axis : x y z
#
# Youngs Moduli (GPa) = 60.14039 107.16959 37.06310
#
# Poissons Ratio (x) = 0.44489 0.16134
# Poissons Ratio (y) = 0.24966 0.20841
# Poissons Ratio (z) = 0.26180 0.60263
#
# Static dielectric constant tensor:
#      x y z
#    x 1.460000 0.000000 0.000000 
#    y 0.000000 1.595820 0.000000 
#    z 0.000000 0.000000 1.548200 
# 
# From -- ./inp_files/51572.got.cif
#   From: 2010.05.17/outbox.cif.g08.bks.cpg/sg63_26_cif.got.tgz:51572.got - 2010.06.03 15:47:04.
