data_PCOD9469894
_publ_section_title
;
Structure prediction by ZEFSAII (Michael W. Deem and Ramdas Pophale) SiO2 
 PCOD9469894
Probable space group: C M C M
;
_chemical_formula_sum "Si O2"
_cell_formula_units_Z 128
_cell_length_a 13.258500
_cell_length_b 25.696520
_cell_length_c 21.787287
_cell_angle_alpha 90.000000
_cell_angle_beta 90.000000
_cell_angle_gamma 90.000000
_cell_volume 7422.870082
_symmetry_space_group_name_H-M "C M C M"
_symmetry_group_IT_number 63
_symmetry_cell_setting 'orthorhombic'
loop_
_space_group_symop_operation_xyz
x,y,z
-x,-y,1/2+z
x,-y,-z
-x,y,1/2-z
-x,-y,-z
x,y,1/2-z
-x,y,z
x,-y,1/2+z
1/2+x,1/2+y,z
1/2-x,1/2-y,1/2+z
1/2+x,1/2-y,-z
1/2-x,1/2+y,1/2-z
1/2-x,1/2-y,-z
1/2+x,1/2+y,1/2-z
1/2-x,1/2+y,z
1/2+x,1/2-y,1/2+z
loop_
_atom_site_type_symbol
_atom_site_label
_atom_site_fract_x
_atom_site_fract_y
_atom_site_fract_z
Si Si1 0.378520 0.079124 0.529787
Si Si2 0.753313 0.269016 0.899115
Si Si3 0.621578 0.803688 0.485311
Si Si4 0.299739 0.459439 0.676587
Si Si5 0.119912 0.184744 0.675813
Si Si6 0.616465 0.651640 0.176019
Si Si7 0.621069 0.569484 0.678407
Si Si8 0.120514 0.523391 0.402936
O O1 0.500000 0.079374 0.528486
O O2 0.346944 0.138431 0.536534
O O3 0.349002 0.055817 0.463624
O O4 0.353212 0.036727 0.581357
O O5 0.671166 0.237982 0.939821
O O6 0.814321 0.228361 0.857062
O O7 0.694415 0.311034 0.858340
O O8 0.831295 0.294460 0.947408
O O9 0.500000 0.799972 0.486540
O O10 0.304992 0.460715 0.750000
O O11 0.360742 0.408154 0.657677
O O12 0.342533 0.514468 0.652294
O O13 0.185512 0.456357 0.653229
O O14 0.131484 0.186905 0.750000
O O15 0.150803 0.126389 0.653792
O O16 0.000000 0.191498 0.663220
O O17 0.628941 0.655786 0.250000
O O18 0.500000 0.664568 0.161765
O O19 0.652922 0.569950 0.750000
O O20 0.500000 0.568815 0.677398
O O21 0.000000 0.527586 0.394573
#
# Coordination Sequence:
#
# PCOD9469894 Si02
#       8
#    16  16  16  16  16  16  16  16
#     4   8  16  32  50  67  90 128 173 209 247 296
#     4  11  21  33  54  78 102 138 177 216 266 309
#     4  10  21  35  51  74 103 136 178 222 261 308
#     4  10  19  30  50  77 102 134 168 202 254 311
#     4   9  18  33  53  77 106 135 168 217 268 315
#     4  10  21  37  55  77 107 139 174 214 254 310
#     4   8  15  29  48  71  98 129 166 204 245 297
#     4   9  17  30  50  73  99 131 165 210 256 302
#
# _framework density 17.244005000000001
#
# number of rings (size 3 to 8) (size 9 to 14) (size 15 to 20)
#    0.000    2.625    0.000    3.750    1.750    1.750 
#    0.000    0.625    0.000    1.500    0.000    4.375 
#    0.000    0.000    0.000    0.000    0.000    0.000 
#
# Total GULP energy -356434.910577 kJ/mol
# GULP energy per Si atom -5569.295478 kJ/mol
# Density = 1.720476 g / cm^3
# Si number density = 17.244005 Si / 1000 Ang^3
#
#
#
# Elastic Constant Matrix: (Units=GPa)
#
#
# Indices 1 2 3 4 5 6 
#
# 1 75.8539 47.8049 25.9513 0.0000 0.0000 0.0000
# 2 47.8049 88.4570 35.7840 0.0000 0.0000 0.0000
# 3 25.9513 35.7840 28.2787 0.0000 0.0000 0.0000
# 4 0.0000 0.0000 0.0000 8.7136 0.0000 0.0000
# 5 0.0000 0.0000 0.0000 0.0000 19.5159 0.0000
# 6 0.0000 0.0000 0.0000 0.0000 0.0000 29.2495
#
#
#
# Elastic Compliance Matrix: (Units=1/GPa)
#
#
# Indices 1 2 3 4 5 6 
#
# 1 0.021344 -0.007399 -0.010225 0.000000 0.000000 0.000000
# 2 -0.007399 0.025726 -0.025764 0.000000 0.000000 0.000000
# 3 -0.010225 -0.025764 0.077348 0.000000 0.000000 0.000000
# 4 0.000000 0.000000 0.000000 0.114763 0.000000 0.000000
# 5 0.000000 0.000000 0.000000 0.000000 0.051240 0.000000
# 6 0.000000 0.000000 0.000000 0.000000 0.000000 0.034189
#
#
# Mechanical properties :
#
#
# Convention : Reuss Voigt Hill
#
# Bulk Modulus (GPa) = 26.56587 45.74110 36.15349
# Shear Modulus (GPa) = 11.79430 17.03242 14.41336
#
# Velocity S-wave (km/s) = 2.61811 3.14623 2.89424
# Velocity P-wave (km/s) = 4.95769 6.30727 5.67276
#
# Compressibility (1/GPa) = 0.03764228
#
# Stress axis : x y z
#
# Youngs Moduli (GPa) = 46.85081 38.87151 12.92857
#
# Poissons Ratio (x) = 0.28759 0.13220
# Poissons Ratio (y) = 0.34663 0.33309
# Poissons Ratio (z) = 0.47907 1.00148
#
# Static dielectric constant tensor:
#      x y z
#    x 1.560220 0.000000 0.000000 
#    y 0.000000 1.858720 0.000000 
#    z 0.000000 0.000000 1.568790 
# 
# From -- ./inp_files/62031.got.cif
#   From: 2010.05.17/outbox.cif.g08.bks.cpg/sg63_32_cif.got.tgz:62031.got - 2010.06.03 15:47:04.
