data_PCOD9469802
_publ_section_title
;
Structure prediction by ZEFSAII (Michael W. Deem and Ramdas Pophale) SiO2 
 PCOD9469802
Probable space group: C M C M
;
_chemical_formula_sum "Si O2"
_cell_formula_units_Z 96
_cell_length_a 9.082390
_cell_length_b 29.203359
_cell_length_c 21.252600
_cell_angle_alpha 90.000000
_cell_angle_beta 90.000000
_cell_angle_gamma 90.000000
_cell_volume 5636.960899
_symmetry_space_group_name_H-M "C M C M"
_symmetry_group_IT_number 63
_symmetry_cell_setting 'orthorhombic'
loop_
_space_group_symop_operation_xyz
x,y,z
-x,-y,1/2+z
x,-y,-z
-x,y,1/2-z
-x,-y,-z
x,y,1/2-z
-x,y,z
x,-y,1/2+z
1/2+x,1/2+y,z
1/2-x,1/2-y,1/2+z
1/2+x,1/2-y,-z
1/2-x,1/2+y,1/2-z
1/2-x,1/2-y,-z
1/2+x,1/2+y,1/2-z
1/2-x,1/2+y,z
1/2+x,1/2-y,1/2+z
loop_
_atom_site_type_symbol
_atom_site_label
_atom_site_fract_x
_atom_site_fract_y
_atom_site_fract_z
Si Si1 0.328492 0.525008 0.568612
Si Si2 0.664189 0.147175 0.175752
Si Si3 0.677175 0.213558 0.952181
Si Si4 0.176748 0.240348 0.176796
Si Si5 0.676570 0.570407 0.390627
Si Si6 0.176134 0.391298 0.482612
O O1 0.319676 0.500000 0.500000
O O2 0.500000 0.536572 0.578624
O O3 0.282794 0.483206 0.613658
O O4 0.232786 0.570698 0.567079
O O5 0.649831 0.152143 0.250000
O O6 0.500000 0.144557 0.147324
O O7 0.749781 0.192649 0.155396
O O8 0.757243 0.102039 0.162819
O O9 0.500000 0.217771 0.958459
O O10 0.714654 0.224526 0.879089
O O11 0.716928 0.161058 0.967774
O O12 0.750000 0.250000 0.000000
O O13 0.219892 0.250988 0.250000
O O14 0.000000 0.235003 0.177385
O O15 0.500000 0.572701 0.394232
O O16 0.745917 0.592881 0.453167
O O17 0.000000 0.394340 0.488104
#
# Coordination Sequence:
#
# PCOD9469802 Si02
#       6
#    16  16  16  16  16  16
#     4   8  16  30  46  66  91 120 154 188 225 277
#     4  10  20  32  47  70  97 121 151 194 240 284
#     4  10  21  33  47  72 100 126 159 200 244 286
#     4   9  18  34  53  69  91 128 168 198 230 282
#     4  10  19  31  48  69  94 124 158 192 230 283
#     4  10  19  30  46  70  98 124 154 195 241 284
#
# _framework density 17.030453000000001
#
# number of rings (size 3 to 8) (size 9 to 14) (size 15 to 20)
#    0.000    2.500    0.000    3.500    0.000    9.333 
#    0.000    0.000    0.000    1.000    0.000    2.333 
#    0.000    0.000    0.000    0.000    0.000    0.000 
#
# Total GULP energy -267309.736959 kJ/mol
# GULP energy per Si atom -5568.952853 kJ/mol
# Density = 1.699169 g / cm^3
# Si number density = 17.030453 Si / 1000 Ang^3
#
#
#
# Elastic Constant Matrix: (Units=GPa)
#
#
# Indices 1 2 3 4 5 6 
#
# 1 46.4959 46.7128 19.3313 0.0000 0.0000 0.0000
# 2 46.7128 131.5942 32.2951 0.0000 0.0000 0.0000
# 3 19.3313 32.2951 39.0294 0.0000 0.0000 0.0000
# 4 0.0000 0.0000 0.0000 25.6083 0.0000 0.0000
# 5 0.0000 0.0000 0.0000 0.0000 19.7668 0.0000
# 6 0.0000 0.0000 0.0000 0.0000 0.0000 26.3161
#
#
#
# Elastic Compliance Matrix: (Units=1/GPa)
#
#
# Indices 1 2 3 4 5 6 
#
# 1 0.035811 -0.010489 -0.009058 0.000000 0.000000 0.000000
# 2 -0.010489 0.012608 -0.005237 0.000000 0.000000 0.000000
# 3 -0.009058 -0.005237 0.034442 0.000000 0.000000 0.000000
# 4 0.000000 0.000000 0.000000 0.039050 0.000000 0.000000
# 5 0.000000 0.000000 0.000000 0.000000 0.050590 0.000000
# 6 0.000000 0.000000 0.000000 0.000000 0.000000 0.038000
#
#
# Mechanical properties :
#
#
# Convention : Reuss Voigt Hill
#
# Bulk Modulus (GPa) = 30.03711 45.97754 38.00732
# Shear Modulus (GPa) = 18.43888 22.25693 20.34791
#
# Velocity S-wave (km/s) = 3.29401 3.61902 3.46033
# Velocity P-wave (km/s) = 5.66947 6.67225 6.19120
#
# Compressibility (1/GPa) = 0.03329215
#
# Stress axis : x y z
#
# Youngs Moduli (GPa) = 27.92407 79.31601 29.03462
#
# Poissons Ratio (x) = 0.83196 0.26300
# Poissons Ratio (y) = 0.29290 0.15206
# Poissons Ratio (z) = 0.25294 0.41538
#
# Static dielectric constant tensor:
#      x y z
#    x 1.587490 0.000000 0.000000 
#    y 0.000000 1.596130 0.000000 
#    z 0.000000 0.000000 1.636400 
# 
# From -- ./inp_files/59968.got.cif
#   From: 2010.05.17/outbox.cif.g08.bks.cpg/sg63_30_cif.got.tgz:59968.got - 2010.06.03 15:47:04.
