data_PCOD9469408
_publ_section_title
;
Structure prediction by ZEFSAII (Michael W. Deem and Ramdas Pophale) SiO2 
 PCOD9469408
Probable space group: C M C M
;
_chemical_formula_sum "Si O2"
_cell_formula_units_Z 68
_cell_length_a 11.685766
_cell_length_b 19.996062
_cell_length_c 12.621056
_cell_angle_alpha 90.000000
_cell_angle_beta 90.000000
_cell_angle_gamma 90.000000
_cell_volume 2949.153339
_symmetry_space_group_name_H-M "C M C M"
_symmetry_group_IT_number 63
_symmetry_cell_setting 'orthorhombic'
loop_
_space_group_symop_operation_xyz
x,y,z
-x,-y,1/2+z
x,-y,-z
-x,y,1/2-z
-x,-y,-z
x,y,1/2-z
-x,y,z
x,-y,1/2+z
1/2+x,1/2+y,z
1/2-x,1/2-y,1/2+z
1/2+x,1/2-y,-z
1/2-x,1/2+y,1/2-z
1/2-x,1/2-y,-z
1/2+x,1/2+y,1/2-z
1/2-x,1/2+y,z
1/2+x,1/2-y,1/2+z
loop_
_atom_site_type_symbol
_atom_site_label
_atom_site_fract_x
_atom_site_fract_y
_atom_site_fract_z
Si Si1 0.764869 0.572938 0.956050
Si Si2 0.500000 0.230212 0.074312
Si Si3 0.500000 0.553639 0.250000
Si Si4 0.000000 0.623100 0.623711
Si Si5 0.500000 0.321358 0.606927
Si Si6 0.875265 0.079678 0.750000
Si Si7 0.746804 0.800836 0.596798
O O1 0.686330 0.596028 0.858777
O O2 0.889957 0.579092 0.904617
O O3 0.738227 0.500000 0.000000
O O4 0.756386 0.624231 0.052649
O O5 0.382204 0.214805 0.136140
O O6 0.500000 0.182442 0.966057
O O7 0.500000 0.303201 0.018074
O O8 0.500000 0.602381 0.148604
O O9 0.604721 0.501288 0.250000
O O10 0.000000 0.641965 0.750000
O O11 0.374920 0.294021 0.644092
O O12 0.000000 0.111135 0.750000
O O13 0.750000 0.750000 0.500000
#
# Coordination Sequence:
#
# PCOD9469408 Si02
#       7
#    16   8   4   8   8   8  16
#     4  11  21  37  61  83 116 156 194 242 297 350
#     4   8  18  33  54  82 110 142 191 241 287 353
#     4  10  22  34  48  80 120 142 196 242 282 348
#     4  10  19  35  56  84 112 146 194 245 284 347
#     4  10  18  33  56  80 108 155 183 236 293 345
#     4  10  24  37  50  85 118 148 197 242 282 353
#     4   9  19  35  56  85 110 144 193 236 291 348
#
# _framework density 23.057465000000001
#
# number of rings (size 3 to 8) (size 9 to 14) (size 15 to 20)
#    0.353    1.882    1.176    1.765    2.471    0.471 
#    0.000    0.000    0.000    0.706    0.000    0.000 
#    0.000    0.000    0.000    0.000    0.000    0.000 
#
# Total GULP energy -189298.209185 kJ/mol
# GULP energy per Si atom -5567.594388 kJ/mol
# Density = 2.300498 g / cm^3
# Si number density = 23.057465 Si / 1000 Ang^3
#
#
#
# Elastic Constant Matrix: (Units=GPa)
#
#
# Indices 1 2 3 4 5 6 
#
# 1 229.9752 -25.9356 37.0358 0.0000 0.0000 0.0000
# 2 -25.9356 43.0008 0.6048 0.0000 0.0000 0.0000
# 3 37.0358 0.6048 106.7256 0.0000 0.0000 0.0000
# 4 0.0000 0.0000 0.0000 -31.5557 0.0000 0.0000
# 5 0.0000 0.0000 0.0000 0.0000 -61.4696 0.0000
# 6 0.0000 0.0000 0.0000 0.0000 0.0000 33.9086
#
#
#
# Elastic Compliance Matrix: (Units=1/GPa)
#
#
# Indices 1 2 3 4 5 6 
#
# 1 0.004970 0.003022 -0.001742 0.000000 0.000000 0.000000
# 2 0.003022 0.025095 -0.001191 0.000000 0.000000 0.000000
# 3 -0.001742 -0.001191 0.009981 0.000000 0.000000 0.000000
# 4 0.000000 0.000000 0.000000 -0.031690 0.000000 0.000000
# 5 0.000000 0.000000 0.000000 0.000000 -0.016268 0.000000
# 6 0.000000 0.000000 0.000000 0.000000 0.000000 0.029491
#
#
# Mechanical properties :
#
#
# Convention : Reuss Voigt Hill
#
# Bulk Modulus (GPa) = 24.86082 44.79019 34.82550
# Shear Modulus (GPa) = 143.64763 12.70978 78.17870
#
# Velocity S-wave (km/s) = 7.90159 2.35036 5.82921
# Velocity P-wave (km/s) = 9.69806 5.18008 7.77449
#
# Compressibility (1/GPa) = 0.04022394
#
# Stress axis : x y z
#
# Youngs Moduli (GPa) = 201.22477 39.84899 100.19072
#
# Poissons Ratio (x) = -0.12042 0.17450
# Poissons Ratio (y) = -0.60807 0.11931
# Poissons Ratio (z) = 0.35047 0.04745
#
# Static dielectric constant tensor:
#      x y z
#    x 1.942470 0.000000 0.000000 
#    y 0.000000 1.916570 0.000000 
#    z 0.000000 0.000000 1.827390 
# 
# From -- ./inp_files/29500.got.cif
#   From: 2010.05.17/outbox.cif.g08.bks.cpg/sg63_15_cif.got.tgz:29500.got - 2010.06.03 15:47:04.
