data_PCOD9469054
_publ_section_title
;
Structure prediction by ZEFSAII (Michael W. Deem and Ramdas Pophale) SiO2 
 PCOD9469054
Probable space group: C M C M
;
_chemical_formula_sum "Si O2"
_cell_formula_units_Z 116
_cell_length_a 26.583320
_cell_length_b 13.090927
_cell_length_c 17.213405
_cell_angle_alpha 90.000000
_cell_angle_beta 90.000000
_cell_angle_gamma 90.000000
_cell_volume 5990.270130
_symmetry_space_group_name_H-M "C M C M"
_symmetry_group_IT_number 63
_symmetry_cell_setting 'orthorhombic'
loop_
_space_group_symop_operation_xyz
x,y,z
-x,-y,1/2+z
x,-y,-z
-x,y,1/2-z
-x,-y,-z
x,y,1/2-z
-x,y,z
x,-y,1/2+z
1/2+x,1/2+y,z
1/2-x,1/2-y,1/2+z
1/2+x,1/2-y,-z
1/2-x,1/2+y,1/2-z
1/2-x,1/2-y,-z
1/2+x,1/2+y,1/2-z
1/2-x,1/2+y,z
1/2+x,1/2-y,1/2+z
loop_
_atom_site_type_symbol
_atom_site_label
_atom_site_fract_x
_atom_site_fract_y
_atom_site_fract_z
Si Si1 0.442019 0.744823 0.441192
Si Si2 0.060043 0.959620 0.659627
Si Si3 0.714160 0.639044 0.161479
Si Si4 0.162013 0.676248 0.575084
Si Si5 0.688576 0.764977 0.595911
Si Si6 0.246348 0.055089 0.582490
Si Si7 0.500000 0.718243 0.750000
Si Si8 0.083412 0.180755 0.617948
O O1 0.500000 0.778263 0.431120
O O2 0.434050 0.643630 0.388737
O O3 0.398203 0.824687 0.418197
O O4 0.433022 0.712654 0.530840
O O5 0.074626 0.947579 0.750000
O O6 0.000000 0.984182 0.659200
O O7 0.086894 0.057487 0.622777
O O8 0.699160 0.652368 0.250000
O O9 0.680728 0.714954 0.109467
O O10 0.771806 0.674069 0.147313
O O11 0.715391 0.521262 0.136990
O O12 0.175771 0.676859 0.483784
O O13 0.197772 0.588676 0.610868
O O14 0.716793 0.660551 0.572917
O O15 0.636625 0.733227 0.634493
O O16 0.249776 0.000000 0.500000
O O17 0.543484 0.713114 0.681968
#
# Coordination Sequence:
#
# PCOD9469054 Si02
#       8
#    16  16  16  16  16  16   4  16
#     4  10  21  35  55  81 109 151 197 239 283 350
#     4  10  18  31  47  71 108 147 189 230 278 333
#     4  11  23  38  57  89 118 143 191 246 292 351
#     4  10  21  39  60  85 116 153 193 239 291 351
#     4  10  22  36  60  85 113 153 194 230 283 359
#     4  11  19  38  63  82 111 157 192 233 297 349
#     4  12  20  36  50  80 118 158 186 236 286 348
#     4  11  20  33  52  79 114 150 187 232 284 345
#
# _framework density 19.364736000000001
#
# number of rings (size 3 to 8) (size 9 to 14) (size 15 to 20)
#    0.000    1.517    4.828    1.241    2.897    3.862 
#    0.000    0.000    0.000    0.414    1.793    0.000 
#    0.000    0.000    0.000    0.000    0.000    0.000 
#
# Total GULP energy -323251.673906 kJ/mol
# GULP energy per Si atom -5573.304723 kJ/mol
# Density = 1.932066 g / cm^3
# Si number density = 19.364736 Si / 1000 Ang^3
#
#
#
# Elastic Constant Matrix: (Units=GPa)
#
#
# Indices 1 2 3 4 5 6 
#
# 1 112.5868 -5.6721 4.5573 0.0000 0.0000 0.0000
# 2 -5.6721 18.7650 -7.1004 0.0000 0.0000 0.0000
# 3 4.5573 -7.1004 53.7301 0.0000 0.0000 0.0000
# 4 0.0000 0.0000 0.0000 9.2221 0.0000 0.0000
# 5 0.0000 0.0000 0.0000 0.0000 8.1280 0.0000
# 6 0.0000 0.0000 0.0000 0.0000 0.0000 15.0041
#
#
#
# Elastic Compliance Matrix: (Units=1/GPa)
#
#
# Indices 1 2 3 4 5 6 
#
# 1 0.009029 0.002568 -0.000426 0.000000 0.000000 0.000000
# 2 0.002568 0.056826 0.007292 0.000000 0.000000 0.000000
# 3 -0.000426 0.007292 0.019611 0.000000 0.000000 0.000000
# 4 0.000000 0.000000 0.000000 0.108435 0.000000 0.000000
# 5 0.000000 0.000000 0.000000 0.000000 0.123032 0.000000
# 6 0.000000 0.000000 0.000000 0.000000 0.000000 0.066649
#
#
# Mechanical properties :
#
#
# Convention : Reuss Voigt Hill
#
# Bulk Modulus (GPa) = 9.58484 18.73908 14.16196
# Shear Modulus (GPa) = 12.51587 19.35730 15.93659
#
# Velocity S-wave (km/s) = 2.54505 3.16510 2.87186
# Velocity P-wave (km/s) = 3.68737 4.80157 4.28088
#
# Compressibility (1/GPa) = 0.10433145
#
# Stress axis : x y z
#
# Youngs Moduli (GPa) = 110.75843 17.59766 50.99106
#
# Poissons Ratio (x) = -0.04519 0.02175
# Poissons Ratio (y) = -0.28439 -0.37181
# Poissons Ratio (z) = 0.04724 -0.12832
#
# Static dielectric constant tensor:
#      x y z
#    x 1.726130 0.000000 0.000000 
#    y 0.000000 1.688230 0.000000 
#    z 0.000000 0.000000 1.891400 
# 
# From -- ./inp_files/49094.got.cif
#   From: 2010.05.17/outbox.cif.g08.bks.cpg/sg63_25_cif.got.tgz:49094.got - 2010.06.03 15:47:04.
