data_PCOD9469495
_publ_section_title
;
Structure prediction by ZEFSAII (Michael W. Deem and Ramdas Pophale) SiO2 
 PCOD9469495
Probable space group: C M C M
;
_chemical_formula_sum "Si O2"
_cell_formula_units_Z 112
_cell_length_a 19.321980
_cell_length_b 11.995500
_cell_length_c 24.790093
_cell_angle_alpha 90.000000
_cell_angle_beta 90.000000
_cell_angle_gamma 90.000000
_cell_volume 5745.768702
_symmetry_space_group_name_H-M "C M C M"
_symmetry_group_IT_number 63
_symmetry_cell_setting 'orthorhombic'
loop_
_space_group_symop_operation_xyz
x,y,z
-x,-y,1/2+z
x,-y,-z
-x,y,1/2-z
-x,-y,-z
x,y,1/2-z
-x,y,z
x,-y,1/2+z
1/2+x,1/2+y,z
1/2-x,1/2-y,1/2+z
1/2+x,1/2-y,-z
1/2-x,1/2+y,1/2-z
1/2-x,1/2-y,-z
1/2+x,1/2+y,1/2-z
1/2-x,1/2+y,z
1/2+x,1/2-y,1/2+z
loop_
_atom_site_type_symbol
_atom_site_label
_atom_site_fract_x
_atom_site_fract_y
_atom_site_fract_z
Si Si1 0.360799 0.071647 0.312337
Si Si2 0.573637 0.427351 0.946793
Si Si3 0.827459 0.640646 0.876772
Si Si4 0.299316 0.361777 0.811764
Si Si5 0.420616 0.169291 0.978242
Si Si6 0.080224 0.720543 0.402264
Si Si7 0.171195 0.063240 0.622810
O O1 0.380923 0.081417 0.250000
O O2 0.283942 0.126270 0.318621
O O3 0.410115 0.134217 0.353934
O O4 0.354527 0.944233 0.331298
O O5 0.500000 0.442722 0.915902
O O6 0.577708 0.300201 0.963985
O O7 0.641312 0.471781 0.917938
O O8 0.569042 0.500000 0.000000
O O9 0.826962 0.765487 0.851807
O O10 0.871551 0.623085 0.931303
O O11 0.748305 0.605650 0.887891
O O12 0.313486 0.329950 0.750000
O O13 0.327175 0.487266 0.823293
O O14 0.500000 0.126289 0.974706
O O15 0.395878 0.166662 0.040524
O O16 0.121668 0.830881 0.384717
O O17 0.000000 0.749684 0.411081
#
# Coordination Sequence:
#
# PCOD9469495 Si02
#       7
#    16  16  16  16  16  16  16
#     4  10  23  42  62  86 119 164 208 249 305 364
#     4  10  18  34  59  86 120 160 193 233 298 369
#     4  11  22  40  64  91 121 161 206 253 304 364
#     4  10  21  39  62  88 120 156 204 260 308 354
#     4  10  22  39  62  89 123 164 201 247 308 370
#     4  11  23  41  63  92 127 163 203 249 306 368
#     4  11  21  36  60  95 119 152 202 255 306 359
#
# _framework density 19.492605000000001
#
# number of rings (size 3 to 8) (size 9 to 14) (size 15 to 20)
#    0.000    1.571    4.286    0.857    0.000    3.143 
#    5.143    1.429    0.000    4.286    0.000    0.000 
#    0.000    0.000    0.000    0.000    0.000    0.000 
#
# Total GULP energy -312197.323515 kJ/mol
# GULP energy per Si atom -5574.952206 kJ/mol
# Density = 1.944824 g / cm^3
# Si number density = 19.492605 Si / 1000 Ang^3
#
#
#
# Elastic Constant Matrix: (Units=GPa)
#
#
# Indices 1 2 3 4 5 6 
#
# 1 46.7056 25.6681 47.3081 0.0000 0.0000 0.0000
# 2 25.6681 80.2975 45.2269 0.0000 0.0000 0.0000
# 3 47.3081 45.2269 123.0237 0.0000 0.0000 0.0000
# 4 0.0000 0.0000 0.0000 33.7435 0.0000 0.0000
# 5 0.0000 0.0000 0.0000 0.0000 30.2144 0.0000
# 6 0.0000 0.0000 0.0000 0.0000 0.0000 19.2836
#
#
#
# Elastic Compliance Matrix: (Units=1/GPa)
#
#
# Indices 1 2 3 4 5 6 
#
# 1 0.036446 -0.004737 -0.012274 0.000000 0.000000 0.000000
# 2 -0.004737 0.016322 -0.004178 0.000000 0.000000 0.000000
# 3 -0.012274 -0.004178 0.014384 0.000000 0.000000 0.000000
# 4 0.000000 0.000000 0.000000 0.029635 0.000000 0.000000
# 5 0.000000 0.000000 0.000000 0.000000 0.033097 0.000000
# 6 0.000000 0.000000 0.000000 0.000000 0.000000 0.051858
#
#
# Mechanical properties :
#
#
# Convention : Reuss Voigt Hill
#
# Bulk Modulus (GPa) = 40.36642 54.04810 47.20726
# Shear Modulus (GPa) = 21.51662 25.43655 23.47658
#
# Velocity S-wave (km/s) = 3.32601 3.61630 3.47419
# Velocity P-wave (km/s) = 5.95846 6.72492 6.35326
#
# Compressibility (1/GPa) = 0.02477306
#
# Stress axis : x y z
#
# Youngs Moduli (GPa) = 27.43775 61.26855 69.51989
#
# Poissons Ratio (x) = 0.29026 0.85326
# Poissons Ratio (y) = 0.12999 0.29049
# Poissons Ratio (z) = 0.33676 0.25601
#
# Static dielectric constant tensor:
#      x y z
#    x 1.707880 0.000000 0.000000 
#    y 0.000000 1.728050 0.000000 
#    z 0.000000 0.000000 1.666680 
# 
# From -- ./inp_files/64663.got.cif
#   From: 2010.05.17/outbox.cif.g08.bks.cpg/sg63_33_cif.got.tgz:64663.got - 2010.06.03 15:47:04.
