data_PCOD9469659
_publ_section_title
;
Structure prediction by ZEFSAII (Michael W. Deem and Ramdas Pophale) SiO2 
 PCOD9469659
Probable space group: C M C M
;
_chemical_formula_sum "Si O2"
_cell_formula_units_Z 80
_cell_length_a 16.110385
_cell_length_b 17.008332
_cell_length_c 11.643117
_cell_angle_alpha 90.000000
_cell_angle_beta 90.000000
_cell_angle_gamma 90.000000
_cell_volume 3190.339533
_symmetry_space_group_name_H-M "C M C M"
_symmetry_group_IT_number 63
_symmetry_cell_setting 'orthorhombic'
loop_
_space_group_symop_operation_xyz
x,y,z
-x,-y,1/2+z
x,-y,-z
-x,y,1/2-z
-x,-y,-z
x,y,1/2-z
-x,y,z
x,-y,1/2+z
1/2+x,1/2+y,z
1/2-x,1/2-y,1/2+z
1/2+x,1/2-y,-z
1/2-x,1/2+y,1/2-z
1/2-x,1/2-y,-z
1/2+x,1/2+y,1/2-z
1/2-x,1/2+y,z
1/2+x,1/2-y,1/2+z
loop_
_atom_site_type_symbol
_atom_site_label
_atom_site_fract_x
_atom_site_fract_y
_atom_site_fract_z
Si Si1 0.096982 0.025045 0.373902
Si Si2 0.410968 0.703393 0.622403
Si Si3 0.644534 0.123050 0.374971
Si Si4 0.172067 0.815295 0.909813
Si Si5 0.399817 0.860037 0.122218
O O1 0.133119 0.997287 0.250000
O O2 0.107985 0.118796 0.370499
O O3 0.000000 0.003327 0.374214
O O4 0.131543 0.000000 0.500000
O O5 0.405312 0.673299 0.750000
O O6 0.500000 0.678541 0.572907
O O7 0.409797 0.797456 0.626873
O O8 0.333453 0.679613 0.547530
O O9 0.629399 0.082438 0.250000
O O10 0.738514 0.155824 0.372121
O O11 0.628314 0.093933 0.505865
O O12 0.142072 0.727403 0.881913
O O13 0.379893 0.892417 0.250000
O O14 0.500000 0.851920 0.116205
#
# Coordination Sequence:
#
# PCOD9469659 Si02
#       5
#    16  16  16  16  16
#     4  10  21  36  51  66  86 114 152 197 237 271
#     4   9  17  28  43  66  97 129 156 182 216 263
#     4  10  19  29  43  65  94 125 154 185 222 267
#     4  11  19  29  47  68  90 120 156 192 229 269
#     4  10  19  30  46  68  95 127 159 187 217 260
#
# _framework density 25.075700999999999
#
# number of rings (size 3 to 8) (size 9 to 14) (size 15 to 20)
#    0.000    2.000    0.000    7.800    0.000    6.000 
#    0.000    2.000    0.000    0.000    0.000    0.000 
#    0.000    3.200    0.000    8.000    0.000    2.800 
#
# Total GULP energy -222892.367413 kJ/mol
# GULP energy per Si atom -5572.309185 kJ/mol
# Density = 2.501863 g / cm^3
# Si number density = 25.075701 Si / 1000 Ang^3
#
#
#
# Elastic Constant Matrix: (Units=GPa)
#
#
# Indices 1 2 3 4 5 6 
#
# 1 87.1061 0.6264 33.9038 0.0000 0.0000 0.0000
# 2 0.6264 81.2979 12.5429 0.0000 0.0000 0.0000
# 3 33.9038 12.5429 293.6776 0.0000 0.0000 0.0000
# 4 0.0000 0.0000 0.0000 -16.4542 0.0000 0.0000
# 5 0.0000 0.0000 0.0000 0.0000 11.6095 0.0000
# 6 0.0000 0.0000 0.0000 0.0000 0.0000 -4.6984
#
#
#
# Elastic Compliance Matrix: (Units=1/GPa)
#
#
# Indices 1 2 3 4 5 6 
#
# 1 0.012022 0.000122 -0.001393 0.000000 0.000000 0.000000
# 2 0.000122 0.012383 -0.000543 0.000000 0.000000 0.000000
# 3 -0.001393 -0.000543 0.003589 0.000000 0.000000 0.000000
# 4 0.000000 0.000000 0.000000 -0.060775 0.000000 0.000000
# 5 0.000000 0.000000 0.000000 0.000000 0.086136 0.000000
# 6 0.000000 0.000000 0.000000 0.000000 0.000000 -0.212838
#
#
# Mechanical properties :
#
#
# Convention : Reuss Voigt Hill
#
# Bulk Modulus (GPa) = 41.04008 61.80310 51.42159
# Shear Modulus (GPa) = -33.84492 25.75862 -4.04315
#
# Velocity S-wave (km/s) = -3.67783 3.20853 -1.27117
# Velocity P-wave (km/s) = 1.27796 6.19890 4.28912
#
# Compressibility (1/GPa) = 0.02436643
#
# Stress axis : x y z
#
# Youngs Moduli (GPa) = 83.18365 80.75411 278.62065
#
# Poissons Ratio (x) = -0.00988 0.38814
# Poissons Ratio (y) = -0.01017 0.15129
# Poissons Ratio (z) = 0.11588 0.04385
#
# Static dielectric constant tensor:
#      x y z
#    x 1.993300 0.000000 0.000000 
#    y 0.000000 1.963350 0.000000 
#    z 0.000000 0.000000 2.181780 
# 
# From -- ./inp_files/19396.got.cif
#   From: 2010.05.17/outbox.cif.g08.bks.cpg/sg63_10_cif.got.tgz:19396.got - 2010.06.03 15:47:04.
