data_PCOD9469482
_publ_section_title
;
Structure prediction by ZEFSAII (Michael W. Deem and Ramdas Pophale) SiO2 
 PCOD9469482
Probable space group: C M C M
;
_chemical_formula_sum "Si O2"
_cell_formula_units_Z 76
_cell_length_a 20.287107
_cell_length_b 13.902508
_cell_length_c 14.787610
_cell_angle_alpha 90.000000
_cell_angle_beta 90.000000
_cell_angle_gamma 90.000000
_cell_volume 4170.722181
_symmetry_space_group_name_H-M "C M C M"
_symmetry_group_IT_number 63
_symmetry_cell_setting 'orthorhombic'
loop_
_space_group_symop_operation_xyz
x,y,z
-x,-y,1/2+z
x,-y,-z
-x,y,1/2-z
-x,-y,-z
x,y,1/2-z
-x,y,z
x,-y,1/2+z
1/2+x,1/2+y,z
1/2-x,1/2-y,1/2+z
1/2+x,1/2-y,-z
1/2-x,1/2+y,1/2-z
1/2-x,1/2-y,-z
1/2+x,1/2+y,1/2-z
1/2-x,1/2+y,z
1/2+x,1/2-y,1/2+z
loop_
_atom_site_type_symbol
_atom_site_label
_atom_site_fract_x
_atom_site_fract_y
_atom_site_fract_z
Si Si1 0.612772 0.294484 0.885471
Si Si2 0.079133 0.793193 0.092811
Si Si3 0.000000 0.734863 0.750000
Si Si4 0.212910 0.284248 0.250000
Si Si5 0.148955 0.690315 0.250000
Si Si6 0.734901 0.998721 0.250000
Si Si7 0.648925 0.494632 0.106681
O O1 0.557269 0.241670 0.828500
O O2 0.681259 0.264078 0.838847
O O3 0.606697 0.409836 0.871828
O O4 0.605941 0.275091 0.991566
O O5 0.105404 0.713572 0.162208
O O6 0.108621 0.896844 0.122970
O O7 0.000000 0.797441 0.091173
O O8 0.290385 0.265609 0.250000
O O9 0.198479 0.396901 0.250000
O O10 0.184525 0.587156 0.250000
O O11 0.784644 0.999986 0.335267
O O12 0.664263 0.500000 0.000000
#
# Coordination Sequence:
#
# PCOD9469482 Si02
#       7
#    16  16   4   8   8   8  16
#     4  10  21  37  61  92 124 155 204 253 305 380
#     4  11  23  40  62  93 128 168 204 253 317 376
#     4  10  18  34  58  84 120 164 190 242 298 366
#     4  11  22  39  63  90 118 167 205 258 318 355
#     4  12  24  39  63  87 126 164 208 258 309 373
#     4  12  22  42  57  89 125 160 207 251 309 367
#     4  10  21  34  59  95 125 154 194 253 306 376
#
# _framework density 18.222263999999999
#
# number of rings (size 3 to 8) (size 9 to 14) (size 15 to 20)
#    0.000    1.263    5.263    0.947    1.474    3.789 
#    0.000    0.000    9.263    1.263    0.000    0.000 
#    0.000    0.000    0.000    0.000    0.000    0.000 
#
# Total GULP energy -211607.453143 kJ/mol
# GULP energy per Si atom -5568.617188 kJ/mol
# Density = 1.818079 g / cm^3
# Si number density = 18.222264 Si / 1000 Ang^3
#
#
#
# Elastic Constant Matrix: (Units=GPa)
#
#
# Indices 1 2 3 4 5 6 
#
# 1 76.9047 21.3690 46.8552 0.0000 0.0000 0.0000
# 2 21.3690 87.0127 35.6203 0.0000 0.0000 0.0000
# 3 46.8552 35.6203 105.3621 0.0000 0.0000 0.0000
# 4 0.0000 0.0000 0.0000 4.9714 0.0000 0.0000
# 5 0.0000 0.0000 0.0000 0.0000 -16.0853 0.0000
# 6 0.0000 0.0000 0.0000 0.0000 0.0000 15.3406
#
#
#
# Elastic Compliance Matrix: (Units=1/GPa)
#
#
# Indices 1 2 3 4 5 6 
#
# 1 0.017966 -0.001325 -0.007542 0.000000 0.000000 0.000000
# 2 -0.001325 0.013436 -0.003953 0.000000 0.000000 0.000000
# 3 -0.007542 -0.003953 0.014181 0.000000 0.000000 0.000000
# 4 0.000000 0.000000 0.000000 0.201149 0.000000 0.000000
# 5 0.000000 0.000000 0.000000 0.000000 -0.062169 0.000000
# 6 0.000000 0.000000 0.000000 0.000000 0.000000 0.065186
#
#
# Mechanical properties :
#
#
# Convention : Reuss Voigt Hill
#
# Bulk Modulus (GPa) = 50.14020 52.99649 51.56834
# Shear Modulus (GPa) = 17.72810 11.87437 14.80123
#
# Velocity S-wave (km/s) = 3.12249 2.55549 2.85311
# Velocity P-wave (km/s) = 6.36989 6.15255 6.26217
#
# Compressibility (1/GPa) = 0.01994408
#
# Stress axis : x y z
#
# Youngs Moduli (GPa) = 55.66024 74.42531 70.51463
#
# Poissons Ratio (x) = 0.09860 0.53180
# Poissons Ratio (y) = 0.07374 0.27877
# Poissons Ratio (z) = 0.41978 0.29423
#
# Static dielectric constant tensor:
#      x y z
#    x 1.603160 0.000000 0.000000 
#    y 0.000000 1.648720 0.000000 
#    z 0.000000 0.000000 1.632650 
# 
# From -- ./inp_files/35169.got.cif
#   From: 2010.05.17/outbox.cif.g08.bks.cpg/sg63_18_cif.got.tgz:35169.got - 2010.06.03 15:47:04.
