data_PCOD9469865
_publ_section_title
;
Structure prediction by ZEFSAII (Michael W. Deem and Ramdas Pophale) SiO2 
 PCOD9469865
Probable space group: C M C M
;
_chemical_formula_sum "Si O2"
_cell_formula_units_Z 80
_cell_length_a 9.178154
_cell_length_b 19.370563
_cell_length_c 26.617828
_cell_angle_alpha 90.000000
_cell_angle_beta 90.000000
_cell_angle_gamma 90.000000
_cell_volume 4732.277442
_symmetry_space_group_name_H-M "C M C M"
_symmetry_group_IT_number 63
_symmetry_cell_setting 'orthorhombic'
loop_
_space_group_symop_operation_xyz
x,y,z
-x,-y,1/2+z
x,-y,-z
-x,y,1/2-z
-x,-y,-z
x,y,1/2-z
-x,y,z
x,-y,1/2+z
1/2+x,1/2+y,z
1/2-x,1/2-y,1/2+z
1/2+x,1/2-y,-z
1/2-x,1/2+y,1/2-z
1/2-x,1/2-y,-z
1/2+x,1/2+y,1/2-z
1/2-x,1/2+y,z
1/2+x,1/2-y,1/2+z
loop_
_atom_site_type_symbol
_atom_site_label
_atom_site_fract_x
_atom_site_fract_y
_atom_site_fract_z
Si Si1 0.167723 0.083931 0.997700
Si Si2 0.672904 0.922278 0.395435
Si Si3 0.825332 0.161627 0.807869
Si Si4 0.825792 0.586448 0.400178
Si Si5 0.176875 0.322979 0.806054
O O1 0.252898 0.102953 0.947096
O O2 0.000000 0.106178 0.995489
O O3 0.245793 0.107843 0.048613
O O4 0.169951 0.000000 0.000000
O O5 0.500000 0.911365 0.397581
O O6 0.742488 0.884215 0.348096
O O7 0.698847 0.004792 0.391779
O O8 0.792097 0.142712 0.750000
O O9 0.787015 0.242572 0.814144
O O10 0.000000 0.155251 0.814657
O O11 0.774133 0.629319 0.351816
O O12 0.000000 0.596150 0.406325
O O13 0.227511 0.343535 0.750000
O O14 0.000000 0.326895 0.805240
#
# Coordination Sequence:
#
# PCOD9469865 Si02
#       5
#    16  16  16  16  16
#     4   9  17  30  48  69  96 128 158 190 233 284
#     4  10  19  30  48  74 100 124 154 195 239 281
#     4   9  18  33  51  69  93 127 162 193 229 278
#     4   9  17  30  50  74  97 121 155 199 239 277
#     4   8  15  30  51  71  92 123 160 194 232 279
#
# _framework density 16.905179
#
# number of rings (size 3 to 8) (size 9 to 14) (size 15 to 20)
#    0.000    3.000    0.000    2.400    0.000    4.400 
#    0.000    4.000    0.000    1.800    0.000    0.000 
#    0.000    0.000    0.000    0.000    0.000    0.000 
#
# Total GULP energy -222884.867908 kJ/mol
# GULP energy per Si atom -5572.121698 kJ/mol
# Density = 1.686670 g / cm^3
# Si number density = 16.905179 Si / 1000 Ang^3
#
#
#
# Elastic Constant Matrix: (Units=GPa)
#
#
# Indices 1 2 3 4 5 6 
#
# 1 63.0316 44.8491 88.8659 0.0000 0.0000 0.0000
# 2 44.8491 41.2128 80.1398 0.0000 0.0000 0.0000
# 3 88.8659 80.1398 206.7896 0.0000 0.0000 0.0000
# 4 0.0000 0.0000 0.0000 -46.8061 0.0000 0.0000
# 5 0.0000 0.0000 0.0000 0.0000 33.6485 0.0000
# 6 0.0000 0.0000 0.0000 0.0000 0.0000 13.0149
#
#
#
# Elastic Compliance Matrix: (Units=1/GPa)
#
#
# Indices 1 2 3 4 5 6 
#
# 1 0.070563 -0.072332 -0.002292 0.000000 0.000000 0.000000
# 2 -0.072332 0.172615 -0.035812 0.000000 0.000000 0.000000
# 3 -0.002292 -0.035812 0.019700 0.000000 0.000000 0.000000
# 4 0.000000 0.000000 0.000000 -0.021365 0.000000 0.000000
# 5 0.000000 0.000000 0.000000 0.000000 0.029719 0.000000
# 6 0.000000 0.000000 0.000000 0.000000 0.000000 0.076835
#
#
# Mechanical properties :
#
#
# Convention : Reuss Voigt Hill
#
# Bulk Modulus (GPa) = 23.80591 82.08261 52.94426
# Shear Modulus (GPa) = 8.57720 6.45007 7.51363
#
# Velocity S-wave (km/s) = 2.25493 1.95543 2.11050
# Velocity P-wave (km/s) = 4.57080 7.33201 6.10945
#
# Compressibility (1/GPa) = 0.04200638
#
# Stress axis : x y z
#
# Youngs Moduli (GPa) = 14.17168 5.79324 50.76253
#
# Poissons Ratio (x) = 0.41903 0.11637
# Poissons Ratio (y) = 1.02506 1.81790
# Poissons Ratio (z) = 0.03249 0.20747
#
# Static dielectric constant tensor:
#      x y z
#    x 1.562310 0.000000 0.000000 
#    y 0.000000 1.555620 0.000000 
#    z 0.000000 0.000000 1.563490 
# 
# From -- ./inp_files/66563.got.cif
#   From: 2010.05.17/outbox.cif.g08.bks.cpg/sg63_34_cif.got.tgz:66563.got - 2010.06.03 15:47:04.
