data_PCOD9469975
_publ_section_title
;
Structure prediction by ZEFSAII (Michael W. Deem and Ramdas Pophale) SiO2 
 PCOD9469975
Probable space group: C M C M
;
_chemical_formula_sum "Si O2"
_cell_formula_units_Z 104
_cell_length_a 29.522927
_cell_length_b 24.807068
_cell_length_c 8.519971
_cell_angle_alpha 90.000000
_cell_angle_beta 90.000000
_cell_angle_gamma 90.000000
_cell_volume 6239.832996
_symmetry_space_group_name_H-M "C M C M"
_symmetry_group_IT_number 63
_symmetry_cell_setting 'orthorhombic'
loop_
_space_group_symop_operation_xyz
x,y,z
-x,-y,1/2+z
x,-y,-z
-x,y,1/2-z
-x,-y,-z
x,y,1/2-z
-x,y,z
x,-y,1/2+z
1/2+x,1/2+y,z
1/2-x,1/2-y,1/2+z
1/2+x,1/2-y,-z
1/2-x,1/2+y,1/2-z
1/2-x,1/2-y,-z
1/2+x,1/2+y,1/2-z
1/2-x,1/2+y,z
1/2+x,1/2-y,1/2+z
loop_
_atom_site_type_symbol
_atom_site_label
_atom_site_fract_x
_atom_site_fract_y
_atom_site_fract_z
Si Si1 0.947965 0.146367 0.939737
Si Si2 0.674716 0.061421 0.938618
Si Si3 0.873217 0.061159 0.559979
Si Si4 0.500000 0.060826 0.060351
Si Si5 0.226032 0.938810 0.060961
Si Si6 0.910826 0.626398 0.062086
Si Si7 0.052471 0.735460 0.562197
O O1 0.947298 0.147450 0.750000
O O2 0.913227 0.100465 0.993601
O O3 0.000000 0.135895 0.989590
O O4 0.934775 0.205449 0.000719
O O5 0.673002 0.059865 0.750000
O O6 0.724739 0.082950 0.988578
O O7 0.634271 0.097908 0.000935
O O8 0.669811 0.000000 0.000000
O O9 0.874215 0.059420 0.750000
O O10 0.823208 0.082907 0.511137
O O11 0.878479 0.000000 0.500000
O O12 0.500000 0.060063 0.250000
O O13 0.454902 0.092313 0.007862
O O14 0.500000 0.000000 0.000000
O O15 0.226124 0.938753 0.250000
O O16 0.225962 0.000000 0.000000
O O17 0.910558 0.626011 0.250000
O O18 0.917460 0.687147 0.003181
O O19 0.053789 0.735134 0.750000
O O20 0.000000 0.726002 0.511569
#
# Coordination Sequence:
#
# PCOD9469975 Si02
#       7
#    16  16  16   8  16  16  16
#     4   9  18  32  50  72 100 132 163 197 237 286
#     4  10  19  31  47  70  97 126 161 202 245 287
#     4   9  17  30  49  74 102 133 163 193 237 286
#     4  10  22  34  46  66  94 126 155 188 235 286
#     4   8  15  28  46  67  94 126 161 198 235 282
#     4  11  21  34  50  69  94 127 162 199 243 291
#     4  10  20  34  52  72  93 123 164 205 242 283
#
# _framework density 16.667111999999999
#
# number of rings (size 3 to 8) (size 9 to 14) (size 15 to 20)
#    0.000    2.462    0.769    1.846    0.000    4.615 
#    0.000    0.000    0.000    0.923    0.000    0.000 
#    0.000    0.000    0.000    0.000    0.000    0.000 
#
# Total GULP energy -289776.003358 kJ/mol
# GULP energy per Si atom -5572.615449 kJ/mol
# Density = 1.662918 g / cm^3
# Si number density = 16.667112 Si / 1000 Ang^3
#
#
#
# Elastic Constant Matrix: (Units=GPa)
#
#
# Indices 1 2 3 4 5 6 
#
# 1 162.2283 94.3435 28.2260 0.0000 0.0000 0.0000
# 2 94.3435 107.9093 20.7955 0.0000 0.0000 0.0000
# 3 28.2260 20.7955 19.0537 0.0000 0.0000 0.0000
# 4 0.0000 0.0000 0.0000 24.0307 0.0000 0.0000
# 5 0.0000 0.0000 0.0000 0.0000 12.3905 0.0000
# 6 0.0000 0.0000 0.0000 0.0000 0.0000 6.9665
#
#
#
# Elastic Compliance Matrix: (Units=1/GPa)
#
#
# Indices 1 2 3 4 5 6 
#
# 1 0.013691 -0.010209 -0.009140 0.000000 0.000000 0.000000
# 2 -0.010209 0.019347 -0.005993 0.000000 0.000000 0.000000
# 3 -0.009140 -0.005993 0.072564 0.000000 0.000000 0.000000
# 4 0.000000 0.000000 0.000000 0.041613 0.000000 0.000000
# 5 0.000000 0.000000 0.000000 0.000000 0.080707 0.000000
# 6 0.000000 0.000000 0.000000 0.000000 0.000000 0.143545
#
#
# Mechanical properties :
#
#
# Convention : Reuss Voigt Hill
#
# Bulk Modulus (GPa) = 18.20858 63.99125 41.09991
# Shear Modulus (GPa) = 11.35183 18.39929 14.87556
#
# Velocity S-wave (km/s) = 2.61260 3.32615 2.99073
# Velocity P-wave (km/s) = 4.47767 7.29576 6.05300
#
# Compressibility (1/GPa) = 0.05491917
#
# Stress axis : x y z
#
# Youngs Moduli (GPa) = 73.03923 51.68710 13.78091
#
# Poissons Ratio (x) = 0.52765 0.12596
# Poissons Ratio (y) = 0.74563 0.08259
# Poissons Ratio (z) = 0.66760 0.30975
#
# Static dielectric constant tensor:
#      x y z
#    x 1.602100 0.000000 0.000000 
#    y 0.000000 1.517690 0.000000 
#    z 0.000000 0.000000 1.563450 
# 
# From -- ./inp_files/12879.got.cif
#   From: 2010.05.17/outbox.cif.g08.bks.cpg/sg63_7_cif.got.tgz:12879.got - 2010.06.03 15:47:04.
