data_PCOD9469895
_publ_section_title
;
Structure prediction by ZEFSAII (Michael W. Deem and Ramdas Pophale) SiO2 
 PCOD9469895
Probable space group: C M C M
;
_chemical_formula_sum "Si O2"
_cell_formula_units_Z 112
_cell_length_a 14.073663
_cell_length_b 29.667529
_cell_length_c 13.994005
_cell_angle_alpha 90.000000
_cell_angle_beta 90.000000
_cell_angle_gamma 90.000000
_cell_volume 5842.928175
_symmetry_space_group_name_H-M "C M C M"
_symmetry_group_IT_number 63
_symmetry_cell_setting 'orthorhombic'
loop_
_space_group_symop_operation_xyz
x,y,z
-x,-y,1/2+z
x,-y,-z
-x,y,1/2-z
-x,-y,-z
x,y,1/2-z
-x,y,z
x,-y,1/2+z
1/2+x,1/2+y,z
1/2-x,1/2-y,1/2+z
1/2+x,1/2-y,-z
1/2-x,1/2+y,1/2-z
1/2-x,1/2-y,-z
1/2+x,1/2+y,1/2-z
1/2-x,1/2+y,z
1/2+x,1/2-y,1/2+z
loop_
_atom_site_type_symbol
_atom_site_label
_atom_site_fract_x
_atom_site_fract_y
_atom_site_fract_z
Si Si1 0.887078 0.061037 0.856198
Si Si2 0.888732 0.112044 0.459231
Si Si3 0.282204 0.530790 0.364615
Si Si4 0.231508 0.711079 0.635086
Si Si5 0.887004 0.784753 0.524233
Si Si6 0.610270 0.876000 0.134273
Si Si7 0.391620 0.023057 0.866376
O O1 0.849529 0.071100 0.750000
O O2 0.000000 0.054271 0.850797
O O3 0.842932 0.013904 0.889776
O O4 0.871821 0.101419 0.929043
O O5 0.824235 0.076275 0.405345
O O6 0.872903 0.164179 0.438509
O O7 0.000000 0.101649 0.439491
O O8 0.284946 0.533935 0.250000
O O9 0.176827 0.517104 0.396598
O O10 0.243871 0.712249 0.750000
O O11 0.159617 0.749736 0.597822
O O12 0.328417 0.717884 0.575253
O O13 0.180731 0.663906 0.606219
O O14 0.000000 0.777452 0.512041
O O15 0.608379 0.875806 0.250000
O O16 0.500000 0.868643 0.103581
O O17 0.639990 0.926528 0.104246
O O18 0.389323 0.023405 0.750000
O O19 0.500000 0.016804 0.895031
#
# Coordination Sequence:
#
# PCOD9469895 Si02
#       7
#    16  16  16  16  16  16  16
#     4   9  18  32  50  73 101 139 190 237 276 322
#     4  10  21  36  53  77 114 154 185 224 278 335
#     4  10  19  30  50  77 108 151 194 231 272 326
#     4  10  21  38  63  89 115 151 191 235 294 357
#     4  10  23  40  58  88 122 150 190 242 292 350
#     4   8  14  27  51  81 108 137 180 234 290 343
#     4   8  15  28  47  75 108 140 181 234 283 327
#
# _framework density 19.168471
#
# number of rings (size 3 to 8) (size 9 to 14) (size 15 to 20)
#    0.000    2.714    0.000    2.143    2.000    4.286 
#    0.000    2.857    0.000    6.000    0.000    4.000 
#    0.000    0.000    0.000    0.000    0.000    0.000 
#
# Total GULP energy -312553.639350 kJ/mol
# GULP energy per Si atom -5581.314988 kJ/mol
# Density = 1.912484 g / cm^3
# Si number density = 19.168471 Si / 1000 Ang^3
#
#
#
# Elastic Constant Matrix: (Units=GPa)
#
#
# Indices 1 2 3 4 5 6 
#
# 1 101.1113 68.1454 16.3603 0.0000 0.0000 0.0000
# 2 68.1454 119.5865 25.2112 0.0000 0.0000 0.0000
# 3 16.3603 25.2112 47.2500 0.0000 0.0000 0.0000
# 4 0.0000 0.0000 0.0000 23.0678 0.0000 0.0000
# 5 0.0000 0.0000 0.0000 0.0000 12.2589 0.0000
# 6 0.0000 0.0000 0.0000 0.0000 0.0000 33.5922
#
#
#
# Elastic Compliance Matrix: (Units=1/GPa)
#
#
# Indices 1 2 3 4 5 6 
#
# 1 0.016081 -0.009003 -0.000765 0.000000 0.000000 0.000000
# 2 -0.009003 0.014462 -0.004599 0.000000 0.000000 0.000000
# 3 -0.000765 -0.004599 0.023883 0.000000 0.000000 0.000000
# 4 0.000000 0.000000 0.000000 0.043350 0.000000 0.000000
# 5 0.000000 0.000000 0.000000 0.000000 0.081574 0.000000
# 6 0.000000 0.000000 0.000000 0.000000 0.000000 0.029769
#
#
# Mechanical properties :
#
#
# Convention : Reuss Voigt Hill
#
# Bulk Modulus (GPa) = 38.92121 54.15352 46.53736
# Shear Modulus (GPa) = 20.29091 24.33251 22.31171
#
# Velocity S-wave (km/s) = 3.25708 3.56673 3.41542
# Velocity P-wave (km/s) = 5.87313 6.72866 6.31539
#
# Compressibility (1/GPa) = 0.02569294
#
# Stress axis : x y z
#
# Youngs Moduli (GPa) = 62.18434 69.14769 41.87118
#
# Poissons Ratio (x) = 0.62251 0.03202
# Poissons Ratio (y) = 0.55982 0.19258
# Poissons Ratio (z) = 0.04755 0.31803
#
# Static dielectric constant tensor:
#      x y z
#    x 1.693800 0.000000 0.000000 
#    y 0.000000 1.641480 0.000000 
#    z 0.000000 0.000000 1.700660 
# 
# From -- ./inp_files/32545.got.cif
#   From: 2010.05.17/outbox.cif.g08.bks.cpg/sg63_17_cif.got.tgz:32545.got - 2010.06.03 15:47:04.
