data_PCOD9469568
_publ_section_title
;
Structure prediction by ZEFSAII (Michael W. Deem and Ramdas Pophale) SiO2 
 PCOD9469568
Probable space group: C M C M
;
_chemical_formula_sum "Si O2"
_cell_formula_units_Z 104
_cell_length_a 28.349158
_cell_length_b 7.513671
_cell_length_c 22.258528
_cell_angle_alpha 90.000000
_cell_angle_beta 90.000000
_cell_angle_gamma 90.000000
_cell_volume 4741.205498
_symmetry_space_group_name_H-M "C M C M"
_symmetry_group_IT_number 63
_symmetry_cell_setting 'orthorhombic'
loop_
_space_group_symop_operation_xyz
x,y,z
-x,-y,1/2+z
x,-y,-z
-x,y,1/2-z
-x,-y,-z
x,y,1/2-z
-x,y,z
x,-y,1/2+z
1/2+x,1/2+y,z
1/2-x,1/2-y,1/2+z
1/2+x,1/2-y,-z
1/2-x,1/2+y,1/2-z
1/2-x,1/2-y,-z
1/2+x,1/2+y,1/2-z
1/2-x,1/2+y,z
1/2+x,1/2-y,1/2+z
loop_
_atom_site_type_symbol
_atom_site_label
_atom_site_fract_x
_atom_site_fract_y
_atom_site_fract_z
Si Si1 0.101059 0.241766 0.873643
Si Si2 0.900321 0.833855 0.869931
Si Si3 0.613222 0.282548 0.503612
Si Si4 0.794638 0.378439 0.869963
Si Si5 0.196644 0.249238 0.181043
Si Si6 0.444329 0.758070 0.750000
Si Si7 0.805435 0.500000 0.000000
Si Si8 0.945262 0.824182 0.750000
O O1 0.158186 0.259737 0.872961
O O2 0.079668 0.321460 0.812485
O O3 0.084494 0.037861 0.872642
O O4 0.089892 0.293688 0.942739
O O5 0.912486 0.747892 0.933350
O O6 0.844074 0.835709 0.859362
O O7 0.921886 0.751727 0.810296
O O8 0.619643 0.500000 0.500000
O O9 0.661892 0.173645 0.509906
O O10 0.809413 0.541091 0.827514
O O11 0.748964 0.289922 0.841917
O O12 0.781333 0.455768 0.936322
O O13 0.191064 0.191819 0.250000
O O14 0.500000 0.797243 0.750000
O O15 0.438765 0.540425 0.750000
O O16 0.000000 0.786553 0.750000
#
# Coordination Sequence:
#
# PCOD9469568 Si02
#       8
#    16  16  16  16  16   8   8   8
#     4   9  20  35  58  83 115 152 193 245 289 350
#     4  10  18  37  58  81 116 153 189 240 300 350
#     4   9  18  35  59  87 117 156 205 245 296 357
#     4  11  24  39  56  83 115 156 201 245 292 354
#     4  12  24  37  54  81 116 156 196 241 292 351
#     4   9  18  34  60  89 118 149 190 243 304 360
#     4  10  20  40  58  86 115 162 203 248 298 348
#     4   9  18  34  60  91 114 143 192 245 298 360
#
# _framework density 21.935351000000001
#
# number of rings (size 3 to 8) (size 9 to 14) (size 15 to 20)
#    0.000    2.000    2.308    1.385    2.154    0.615 
#    4.154    0.769    0.000    6.462    0.000    2.692 
#    0.000    0.000    0.000    0.000    0.000    0.000 
#
# Total GULP energy -289861.921876 kJ/mol
# GULP energy per Si atom -5574.267728 kJ/mol
# Density = 2.188542 g / cm^3
# Si number density = 21.935351 Si / 1000 Ang^3
#
#
#
# Elastic Constant Matrix: (Units=GPa)
#
#
# Indices 1 2 3 4 5 6 
#
# 1 43.6884 -9.4104 52.8033 0.0000 0.0000 0.0000
# 2 -9.4104 61.6773 6.7529 0.0000 0.0000 0.0000
# 3 52.8033 6.7529 230.2773 0.0000 0.0000 0.0000
# 4 0.0000 0.0000 0.0000 42.6040 0.0000 0.0000
# 5 0.0000 0.0000 0.0000 0.0000 -6.6196 0.0000
# 6 0.0000 0.0000 0.0000 0.0000 0.0000 6.8317
#
#
#
# Elastic Compliance Matrix: (Units=1/GPa)
#
#
# Indices 1 2 3 4 5 6 
#
# 1 0.033753 0.006017 -0.007916 0.000000 0.000000 0.000000
# 2 0.006017 0.017338 -0.001888 0.000000 0.000000 0.000000
# 3 -0.007916 -0.001888 0.006213 0.000000 0.000000 0.000000
# 4 0.000000 0.000000 0.000000 0.023472 0.000000 0.000000
# 5 0.000000 0.000000 0.000000 0.000000 -0.151067 0.000000
# 6 0.000000 0.000000 0.000000 0.000000 0.000000 0.146376
#
#
# Mechanical properties :
#
#
# Convention : Reuss Voigt Hill
#
# Bulk Modulus (GPa) = 20.10894 48.43717 34.27305
# Shear Modulus (GPa) = 49.88180 27.59637 38.73908
#
# Velocity S-wave (km/s) = 4.77386 3.55079 4.20701
# Velocity P-wave (km/s) = 6.29075 6.24023 6.26554
#
# Compressibility (1/GPa) = 0.04972912
#
# Stress axis : x y z
#
# Youngs Moduli (GPa) = 29.62697 57.67635 160.94904
#
# Poissons Ratio (x) = -0.34701 1.27409
# Poissons Ratio (y) = -0.17825 0.30388
# Poissons Ratio (z) = 0.23453 0.10890
#
# Static dielectric constant tensor:
#      x y z
#    x 1.756470 0.000000 0.000000 
#    y 0.000000 1.822400 0.000000 
#    z 0.000000 0.000000 1.882610 
# 
# From -- ./inp_files/65475.got.cif
#   From: 2010.05.17/outbox.cif.g08.bks.cpg/sg63_33_cif.got.tgz:65475.got - 2010.06.03 15:47:04.
