data_PCOD9469751
_publ_section_title
;
Structure prediction by ZEFSAII (Michael W. Deem and Ramdas Pophale) SiO2 
 PCOD9469751
Probable space group: C M C M
;
_chemical_formula_sum "Si O2"
_cell_formula_units_Z 112
_cell_length_a 7.356478
_cell_length_b 25.486491
_cell_length_c 30.524683
_cell_angle_alpha 90.000000
_cell_angle_beta 90.000000
_cell_angle_gamma 90.000000
_cell_volume 5723.097551
_symmetry_space_group_name_H-M "C M C M"
_symmetry_group_IT_number 63
_symmetry_cell_setting 'orthorhombic'
loop_
_space_group_symop_operation_xyz
x,y,z
-x,-y,1/2+z
x,-y,-z
-x,y,1/2-z
-x,-y,-z
x,y,1/2-z
-x,y,z
x,-y,1/2+z
1/2+x,1/2+y,z
1/2-x,1/2-y,1/2+z
1/2+x,1/2-y,-z
1/2-x,1/2+y,1/2-z
1/2-x,1/2-y,-z
1/2+x,1/2+y,1/2-z
1/2-x,1/2+y,z
1/2+x,1/2-y,1/2+z
loop_
_atom_site_type_symbol
_atom_site_label
_atom_site_fract_x
_atom_site_fract_y
_atom_site_fract_z
Si Si1 0.721609 0.018460 0.889663
Si Si2 0.722027 0.189133 0.389931
Si Si3 0.290255 0.900237 0.040721
Si Si4 0.278906 0.145308 0.298939
Si Si5 0.221778 0.585380 0.056902
Si Si6 0.784584 0.221147 0.953819
Si Si7 0.778679 0.476713 0.701137
O O1 0.500000 0.019399 0.887439
O O2 0.784894 0.068293 0.917751
O O3 0.783376 0.011432 0.839663
O O4 0.773622 0.966302 0.916552
O O5 0.500000 0.189771 0.390173
O O6 0.780626 0.180088 0.339952
O O7 0.777491 0.138272 0.418154
O O8 0.783516 0.241234 0.414982
O O9 0.500000 0.917364 0.037948
O O10 0.287404 0.837769 0.046012
O O11 0.211913 0.914242 0.993101
O O12 0.220036 0.160858 0.250000
O O13 0.500000 0.146022 0.298945
O O14 0.227197 0.084338 0.306127
O O15 0.000000 0.586428 0.056298
O O16 0.000000 0.216409 0.948966
O O17 0.750000 0.250000 0.000000
O O18 0.719492 0.492193 0.750000
O O19 0.000000 0.477225 0.701368
#
# Coordination Sequence:
#
# PCOD9469751 Si02
#       7
#    16  16  16  16  16  16  16
#     4   9  15  23  39  62  88 116 147 181 218 264
#     4   9  15  24  40  61  86 112 142 181 223 261
#     4  10  19  30  44  65  90 120 153 182 213 258
#     4   8  12  19  34  58  87 113 136 172 227 276
#     4   9  14  23  39  62  87 111 143 181 218 257
#     4  11  21  33  48  65  87 119 153 187 222 261
#     4   8  12  18  31  55  86 114 137 170 220 267
#
# _framework density 19.569821000000001
#
# number of rings (size 3 to 8) (size 9 to 14) (size 15 to 20)
#    0.000    2.857    2.857    1.714    0.000    1.714 
#    0.000    0.000    0.000    2.571    0.000    0.000 
#    0.000    1.714    0.000    7.000    0.000    6.143 
#
# Total GULP energy -312453.008339 kJ/mol
# GULP energy per Si atom -5579.518006 kJ/mol
# Density = 1.952528 g / cm^3
# Si number density = 19.569821 Si / 1000 Ang^3
#
#
#
# Elastic Constant Matrix: (Units=GPa)
#
#
# Indices 1 2 3 4 5 6 
#
# 1 70.0171 -9.4811 1.1495 0.0000 0.0000 0.0000
# 2 -9.4811 79.0461 77.1842 0.0000 0.0000 0.0000
# 3 1.1495 77.1842 215.9512 0.0000 0.0000 0.0000
# 4 0.0000 0.0000 0.0000 32.2196 0.0000 0.0000
# 5 0.0000 0.0000 0.0000 0.0000 -8.2934 0.0000
# 6 0.0000 0.0000 0.0000 0.0000 0.0000 5.6243
#
#
#
# Elastic Compliance Matrix: (Units=1/GPa)
#
#
# Indices 1 2 3 4 5 6 
#
# 1 0.014682 0.002822 -0.001087 0.000000 0.000000 0.000000
# 2 0.002822 0.019975 -0.007155 0.000000 0.000000 0.000000
# 3 -0.001087 -0.007155 0.007194 0.000000 0.000000 0.000000
# 4 0.000000 0.000000 0.000000 0.031037 0.000000 0.000000
# 5 0.000000 0.000000 0.000000 0.000000 -0.120578 0.000000
# 6 0.000000 0.000000 0.000000 0.000000 0.000000 0.177799
#
#
# Mechanical properties :
#
#
# Convention : Reuss Voigt Hill
#
# Bulk Modulus (GPa) = 32.24448 55.85774 44.05111
# Shear Modulus (GPa) = 33.05030 25.65422 29.35226
#
# Velocity S-wave (km/s) = 4.11401 3.62457 3.87702
# Velocity P-wave (km/s) = 6.25133 6.79128 6.52689
#
# Compressibility (1/GPa) = 0.03101306
#
# Stress axis : x y z
#
# Youngs Moduli (GPa) = 68.10944 50.06162 139.01251
#
# Poissons Ratio (x) = -0.14129 0.15109
# Poissons Ratio (y) = -0.19223 0.99457
# Poissons Ratio (z) = 0.07403 0.35817
#
# Static dielectric constant tensor:
#      x y z
#    x 1.825840 0.000000 0.000000 
#    y 0.000000 1.623060 0.000000 
#    z 0.000000 0.000000 1.699070 
# 
# From -- ./inp_files/68755.got.cif
#   From: 2010.05.17/outbox.cif.g08.bks.cpg/sg63_35_cif.got.tgz:68755.got - 2010.06.03 15:47:04.
