data_PCOD9469341
_publ_section_title
;
Structure prediction by ZEFSAII (Michael W. Deem and Ramdas Pophale) SiO2 
 PCOD9469341
Probable space group: C M C M
;
_chemical_formula_sum "Si O2"
_cell_formula_units_Z 96
_cell_length_a 7.741675
_cell_length_b 26.282266
_cell_length_c 23.948929
_cell_angle_alpha 90.000000
_cell_angle_beta 90.000000
_cell_angle_gamma 90.000000
_cell_volume 4872.858926
_symmetry_space_group_name_H-M "C M C M"
_symmetry_group_IT_number 63
_symmetry_cell_setting 'orthorhombic'
loop_
_space_group_symop_operation_xyz
x,y,z
-x,-y,1/2+z
x,-y,-z
-x,y,1/2-z
-x,-y,-z
x,y,1/2-z
-x,y,z
x,-y,1/2+z
1/2+x,1/2+y,z
1/2-x,1/2-y,1/2+z
1/2+x,1/2-y,-z
1/2-x,1/2+y,1/2-z
1/2-x,1/2-y,-z
1/2+x,1/2+y,1/2-z
1/2-x,1/2+y,z
1/2+x,1/2-y,1/2+z
loop_
_atom_site_type_symbol
_atom_site_label
_atom_site_fract_x
_atom_site_fract_y
_atom_site_fract_z
Si Si1 0.203095 0.898524 0.127630
Si Si2 0.199543 0.556708 0.511232
Si Si3 0.708990 0.183282 0.313784
Si Si4 0.789626 0.798546 0.185614
Si Si5 0.703499 0.408938 0.606800
Si Si6 0.211777 0.999903 0.813491
O O1 0.273818 0.843619 0.145658
O O2 0.000000 0.896325 0.141062
O O3 0.272828 0.945651 0.163816
O O4 0.219438 0.913955 0.063199
O O5 0.274526 0.500000 0.500000
O O6 0.212945 0.587775 0.453920
O O7 0.000000 0.549317 0.526703
O O8 0.764314 0.170696 0.250000
O O9 0.500000 0.182848 0.313872
O O10 0.768032 0.240928 0.326649
O O11 0.769588 0.142376 0.358502
O O12 0.744704 0.810421 0.250000
O O13 0.000000 0.796613 0.183070
O O14 0.500000 0.416533 0.597917
O O15 0.769399 0.455474 0.644992
O O16 0.265829 0.990825 0.750000
O O17 0.000000 0.999582 0.814177
#
# Coordination Sequence:
#
# PCOD9469341 Si02
#       6
#    16  16  16  16  16  16
#     4  10  18  32  56  81 105 135 177 220 261 311
#     4  11  23  38  54  73 105 145 181 217 268 327
#     4   9  18  34  55  80 112 146 176 210 260 318
#     4   8  15  30  55  84 110 139 175 214 260 317
#     4  11  21  34  54  79 107 138 182 226 262 309
#     4   9  17  28  47  78 109 131 159 210 267 313
#
# _framework density 19.700959999999998
#
# number of rings (size 3 to 8) (size 9 to 14) (size 15 to 20)
#    0.000    2.333    1.667    3.000    0.000    3.667 
#    0.000    1.667    0.000    4.000    0.000    0.000 
#    0.000    0.000    0.000    0.000    0.000    0.000 
#
# Total GULP energy -267913.458848 kJ/mol
# GULP energy per Si atom -5581.530393 kJ/mol
# Density = 1.965612 g / cm^3
# Si number density = 19.700960 Si / 1000 Ang^3
#
#
#
# Elastic Constant Matrix: (Units=GPa)
#
#
# Indices 1 2 3 4 5 6 
#
# 1 27.1355 -5.3014 -15.1164 0.0000 0.0000 0.0000
# 2 -5.3014 110.1089 36.9867 0.0000 0.0000 0.0000
# 3 -15.1164 36.9867 68.4361 0.0000 0.0000 0.0000
# 4 0.0000 0.0000 0.0000 24.3714 0.0000 0.0000
# 5 0.0000 0.0000 0.0000 0.0000 -2.2913 0.0000
# 6 0.0000 0.0000 0.0000 0.0000 0.0000 12.2278
#
#
#
# Elastic Compliance Matrix: (Units=1/GPa)
#
#
# Indices 1 2 3 4 5 6 
#
# 1 0.042185 -0.001343 0.010044 0.000000 0.000000 0.000000
# 2 -0.001343 0.011139 -0.006317 0.000000 0.000000 0.000000
# 3 0.010044 -0.006317 0.020245 0.000000 0.000000 0.000000
# 4 0.000000 0.000000 0.000000 0.041032 0.000000 0.000000
# 5 0.000000 0.000000 0.000000 0.000000 -0.436430 0.000000
# 6 0.000000 0.000000 0.000000 0.000000 0.000000 0.081781
#
#
# Mechanical properties :
#
#
# Convention : Reuss Voigt Hill
#
# Bulk Modulus (GPa) = 12.76543 26.53537 19.65040
# Shear Modulus (GPa) = -22.86181 19.46903 -1.69639
#
# Velocity S-wave (km/s) = -3.41022 3.14702 -0.92895
# Velocity P-wave (km/s) = 3.00208 5.16752 2.97412
#
# Compressibility (1/GPa) = 0.07833656
#
# Stress axis : x y z
#
# Youngs Moduli (GPa) = 23.70529 89.77352 49.39599
#
# Poissons Ratio (x) = 0.12054 -0.49611
# Poissons Ratio (y) = 0.03183 0.31202
# Poissons Ratio (z) = -0.23809 0.56708
#
# Static dielectric constant tensor:
#      x y z
#    x 1.739590 0.000000 0.000000 
#    y 0.000000 1.698610 0.000000 
#    z 0.000000 0.000000 1.653060 
# 
# From -- ./inp_files/51258.got.cif
#   From: 2010.05.17/outbox.cif.g08.bks.cpg/sg63_26_cif.got.tgz:51258.got - 2010.06.03 15:47:04.
