data_PCOD9469580
_publ_section_title
;
Structure prediction by ZEFSAII (Michael W. Deem and Ramdas Pophale) SiO2 
 PCOD9469580
Probable space group: C M C M
;
_chemical_formula_sum "Si O2"
_cell_formula_units_Z 112
_cell_length_a 20.270769
_cell_length_b 18.153710
_cell_length_c 17.671114
_cell_angle_alpha 90.000000
_cell_angle_beta 90.000000
_cell_angle_gamma 90.000000
_cell_volume 6502.787266
_symmetry_space_group_name_H-M "C M C M"
_symmetry_group_IT_number 63
_symmetry_cell_setting 'orthorhombic'
loop_
_space_group_symop_operation_xyz
x,y,z
-x,-y,1/2+z
x,-y,-z
-x,y,1/2-z
-x,-y,-z
x,y,1/2-z
-x,y,z
x,-y,1/2+z
1/2+x,1/2+y,z
1/2-x,1/2-y,1/2+z
1/2+x,1/2-y,-z
1/2-x,1/2+y,1/2-z
1/2-x,1/2-y,-z
1/2+x,1/2+y,1/2-z
1/2-x,1/2+y,z
1/2+x,1/2-y,1/2+z
loop_
_atom_site_type_symbol
_atom_site_label
_atom_site_fract_x
_atom_site_fract_y
_atom_site_fract_z
Si Si1 0.215077 0.717815 0.423048
Si Si2 0.729451 0.082320 0.980570
Si Si3 0.927894 0.777894 0.439509
Si Si4 0.077144 0.937504 0.839059
Si Si5 0.691780 0.821267 0.335789
Si Si6 0.574960 0.276646 0.882027
Si Si7 0.881712 0.058467 0.939074
O O1 0.250000 0.750000 0.500000
O O2 0.217192 0.632416 0.445303
O O3 0.139776 0.742625 0.410376
O O4 0.257764 0.754827 0.357140
O O5 0.699456 0.119435 0.904189
O O6 0.807999 0.079087 0.964471
O O7 0.706836 0.000000 0.000000
O O8 0.926390 0.760319 0.528927
O O9 0.921156 0.866222 0.431724
O O10 0.000000 0.754953 0.409397
O O11 0.080299 0.927553 0.750000
O O12 0.100740 0.860590 0.874876
O O13 0.000000 0.948512 0.860222
O O14 0.117272 0.008891 0.864317
O O15 0.703218 0.848188 0.250000
O O16 0.620834 0.782209 0.342018
O O17 0.500000 0.277033 0.852666
O O18 0.909492 0.000000 0.000000
#
# Coordination Sequence:
#
# PCOD9469580 Si02
#       7
#    16  16  16  16  16  16  16
#     4  10  18  38  54  74 107 140 177 223 266 313
#     4  10  21  36  57  75 106 147 179 223 277 320
#     4  11  19  31  56  80  99 136 184 224 264 313
#     4  10  21  32  42  67 111 148 169 203 256 316
#     4  11  21  35  57  82 109 144 183 228 277 326
#     4  10  19  33  54  81 110 141 177 219 272 327
#     4  11  19  30  49  73 100 137 176 209 251 306
#
# _framework density 17.223382999999998
#
# number of rings (size 3 to 8) (size 9 to 14) (size 15 to 20)
#    0.000    1.571    7.143    0.857    2.000    2.000 
#    0.000    0.714    0.000    2.143    0.000    0.000 
#    0.000    0.000    0.000    0.000    0.000    0.000 
#
# Total GULP energy -312001.759902 kJ/mol
# GULP energy per Si atom -5571.459998 kJ/mol
# Density = 1.718418 g / cm^3
# Si number density = 17.223383 Si / 1000 Ang^3
#
#
#
# Elastic Constant Matrix: (Units=GPa)
#
#
# Indices 1 2 3 4 5 6 
#
# 1 92.6810 28.8445 9.1268 0.0000 0.0000 0.0000
# 2 28.8445 93.4768 15.5638 0.0000 0.0000 0.0000
# 3 9.1268 15.5638 49.6706 0.0000 0.0000 0.0000
# 4 0.0000 0.0000 0.0000 13.1304 0.0000 0.0000
# 5 0.0000 0.0000 0.0000 0.0000 2.6712 0.0000
# 6 0.0000 0.0000 0.0000 0.0000 0.0000 73.7313
#
#
#
# Elastic Compliance Matrix: (Units=1/GPa)
#
#
# Indices 1 2 3 4 5 6 
#
# 1 0.011993 -0.003517 -0.001102 0.000000 0.000000 0.000000
# 2 -0.003517 0.012318 -0.003214 0.000000 0.000000 0.000000
# 3 -0.001102 -0.003214 0.021342 0.000000 0.000000 0.000000
# 4 0.000000 0.000000 0.000000 0.076159 0.000000 0.000000
# 5 0.000000 0.000000 0.000000 0.000000 0.374361 0.000000
# 6 0.000000 0.000000 0.000000 0.000000 0.000000 0.013563
#
#
# Mechanical properties :
#
#
# Convention : Reuss Voigt Hill
#
# Bulk Modulus (GPa) = 33.34626 38.09985 35.72306
# Shear Modulus (GPa) = 9.33887 30.05946 19.69916
#
# Velocity S-wave (km/s) = 2.33109 4.18218 3.38560
# Velocity P-wave (km/s) = 5.16221 6.74461 6.00576
#
# Compressibility (1/GPa) = 0.02998837
#
# Stress axis : x y z
#
# Youngs Moduli (GPa) = 83.38321 81.18052 46.85606
#
# Poissons Ratio (x) = 0.28553 0.05161
# Poissons Ratio (y) = 0.29328 0.15057
# Poissons Ratio (z) = 0.09185 0.26087
#
# Static dielectric constant tensor:
#      x y z
#    x 1.618800 0.000000 0.000000 
#    y 0.000000 1.614300 0.000000 
#    z 0.000000 0.000000 1.635800 
# 
# From -- ./inp_files/47323.got.cif
#   From: 2010.05.17/outbox.cif.g08.bks.cpg/sg63_24_cif.got.tgz:47323.got - 2010.06.03 15:47:04.
