data_PCOD9469842
_publ_section_title
;
Structure prediction by ZEFSAII (Michael W. Deem and Ramdas Pophale) SiO2 
 PCOD9469842
Probable space group: C M C M
;
_chemical_formula_sum "Si O2"
_cell_formula_units_Z 96
_cell_length_a 9.094328
_cell_length_b 29.181913
_cell_length_c 21.071751
_cell_angle_alpha 90.000000
_cell_angle_beta 90.000000
_cell_angle_gamma 90.000000
_cell_volume 5592.229648
_symmetry_space_group_name_H-M "C M C M"
_symmetry_group_IT_number 63
_symmetry_cell_setting 'orthorhombic'
loop_
_space_group_symop_operation_xyz
x,y,z
-x,-y,1/2+z
x,-y,-z
-x,y,1/2-z
-x,-y,-z
x,y,1/2-z
-x,y,z
x,-y,1/2+z
1/2+x,1/2+y,z
1/2-x,1/2-y,1/2+z
1/2+x,1/2-y,-z
1/2-x,1/2+y,1/2-z
1/2-x,1/2-y,-z
1/2+x,1/2+y,1/2-z
1/2-x,1/2+y,z
1/2+x,1/2-y,1/2+z
loop_
_atom_site_type_symbol
_atom_site_label
_atom_site_fract_x
_atom_site_fract_y
_atom_site_fract_z
Si Si1 0.822994 0.785033 0.949080
Si Si2 0.325347 0.929680 0.393810
Si Si3 0.671744 0.975240 0.930529
Si Si4 0.822377 0.752810 0.174950
Si Si5 0.336657 0.356098 0.324832
Si Si6 0.674859 0.390966 0.520152
O O1 0.759576 0.776620 0.878257
O O2 0.790168 0.837973 0.966756
O O3 0.000000 0.778837 0.950145
O O4 0.750000 0.750000 0.000000
O O5 0.500000 0.929840 0.403280
O O6 0.275109 0.896285 0.338797
O O7 0.249013 0.906828 0.454729
O O8 0.279939 0.982742 0.385820
O O9 0.500000 0.964585 0.920530
O O10 0.762896 0.928648 0.930472
O O11 0.683120 0.000000 0.000000
O O12 0.782567 0.745995 0.250000
O O13 0.789971 0.805451 0.154275
O O14 0.000000 0.747215 0.171090
O O15 0.351587 0.351400 0.250000
O O16 0.500000 0.366208 0.351758
O O17 0.500000 0.395595 0.516524
#
# Coordination Sequence:
#
# PCOD9469842 Si02
#       6
#    16  16  16  16  16  16
#     4  11  23  35  50  76 106 134 168 211 254 296
#     4  10  19  30  47  72  99 125 156 195 239 288
#     4   8  16  30  46  67  94 122 153 190 234 285
#     4   9  19  36  55  74  99 133 171 208 249 301
#     4   9  18  32  49  70  96 125 158 196 238 287
#     4  10  20  32  47  70  98 127 161 199 240 287
#
# _framework density 17.166675999999999
#
# number of rings (size 3 to 8) (size 9 to 14) (size 15 to 20)
#    0.000    2.500    0.000    4.500    0.000   11.667 
#    0.000    1.667    0.000    1.000    0.000    0.000 
#    0.000    0.000    0.000    0.000    0.000    0.000 
#
# Total GULP energy -267287.091605 kJ/mol
# GULP energy per Si atom -5568.481075 kJ/mol
# Density = 1.712760 g / cm^3
# Si number density = 17.166676 Si / 1000 Ang^3
#
#
#
# Elastic Constant Matrix: (Units=GPa)
#
#
# Indices 1 2 3 4 5 6 
#
# 1 50.7746 59.8481 16.6126 0.0000 0.0000 0.0000
# 2 59.8481 136.2043 30.1435 0.0000 0.0000 0.0000
# 3 16.6126 30.1435 36.0774 0.0000 0.0000 0.0000
# 4 0.0000 0.0000 0.0000 18.8465 0.0000 0.0000
# 5 0.0000 0.0000 0.0000 0.0000 26.1798 0.0000
# 6 0.0000 0.0000 0.0000 0.0000 0.0000 30.1802
#
#
#
# Elastic Compliance Matrix: (Units=1/GPa)
#
#
# Indices 1 2 3 4 5 6 
#
# 1 0.041508 -0.017187 -0.004753 0.000000 0.000000 0.000000
# 2 -0.017187 0.016124 -0.005558 0.000000 0.000000 0.000000
# 3 -0.004753 -0.005558 0.034551 0.000000 0.000000 0.000000
# 4 0.000000 0.000000 0.000000 0.053060 0.000000 0.000000
# 5 0.000000 0.000000 0.000000 0.000000 0.038197 0.000000
# 6 0.000000 0.000000 0.000000 0.000000 0.000000 0.033134
#
#
# Mechanical properties :
#
#
# Convention : Reuss Voigt Hill
#
# Bulk Modulus (GPa) = 26.89135 48.47386 37.68260
# Shear Modulus (GPa) = 17.60777 22.80477 20.20627
#
# Velocity S-wave (km/s) = 3.20612 3.64872 3.43456
# Velocity P-wave (km/s) = 5.42259 6.78597 6.14222
#
# Compressibility (1/GPa) = 0.03718668
#
# Stress axis : x y z
#
# Youngs Moduli (GPa) = 24.09172 62.02058 28.94303
#
# Poissons Ratio (x) = 1.06592 0.13758
# Poissons Ratio (y) = 0.41405 0.16086
# Poissons Ratio (z) = 0.11452 0.34470
#
# Static dielectric constant tensor:
#      x y z
#    x 1.611190 0.000000 0.000000 
#    y 0.000000 1.643970 0.000000 
#    z 0.000000 0.000000 1.638470 
# 
# From -- ./inp_files/51350.got.cif
#   From: 2010.05.17/outbox.cif.g08.bks.cpg/sg63_26_cif.got.tgz:51350.got - 2010.06.03 15:47:04.
