data_PCOD9469701
_publ_section_title
;
Structure prediction by ZEFSAII (Michael W. Deem and Ramdas Pophale) SiO2 
 PCOD9469701
Probable space group: C M C M
;
_chemical_formula_sum "Si O2"
_cell_formula_units_Z 104
_cell_length_a 28.386454
_cell_length_b 10.662988
_cell_length_c 21.230355
_cell_angle_alpha 90.000000
_cell_angle_beta 90.000000
_cell_angle_gamma 90.000000
_cell_volume 6426.097655
_symmetry_space_group_name_H-M "C M C M"
_symmetry_group_IT_number 63
_symmetry_cell_setting 'orthorhombic'
loop_
_space_group_symop_operation_xyz
x,y,z
-x,-y,1/2+z
x,-y,-z
-x,y,1/2-z
-x,-y,-z
x,y,1/2-z
-x,y,z
x,-y,1/2+z
1/2+x,1/2+y,z
1/2-x,1/2-y,1/2+z
1/2+x,1/2-y,-z
1/2-x,1/2+y,1/2-z
1/2-x,1/2-y,-z
1/2+x,1/2+y,1/2-z
1/2-x,1/2+y,z
1/2+x,1/2-y,1/2+z
loop_
_atom_site_type_symbol
_atom_site_label
_atom_site_fract_x
_atom_site_fract_y
_atom_site_fract_z
Si Si1 0.445235 0.434909 0.821407
Si Si2 0.723109 0.195887 0.824346
Si Si3 0.445690 0.870529 0.178769
Si Si4 0.267329 0.545148 0.391628
Si Si5 0.375845 0.559119 0.432384
Si Si6 0.198255 0.500000 0.500000
Si Si7 0.866016 0.342481 0.093363
O O1 0.432060 0.473738 0.750000
O O2 0.500000 0.469043 0.832316
O O3 0.443346 0.282226 0.821862
O O4 0.410436 0.482284 0.875709
O O5 0.726793 0.183198 0.750000
O O6 0.738136 0.334458 0.846707
O O7 0.669316 0.183829 0.848359
O O8 0.751378 0.083922 0.858583
O O9 0.432607 0.910203 0.250000
O O10 0.500000 0.905518 0.167856
O O11 0.410331 0.912632 0.124164
O O12 0.321395 0.534490 0.413859
O O13 0.233343 0.568245 0.451404
O O14 0.386452 0.500000 0.500000
O O15 0.380886 0.709607 0.435455
O O16 0.164636 0.586261 0.541832
#
# Coordination Sequence:
#
# PCOD9469701 Si02
#       7
#    16  16  16  16  16   8  16
#     4   8  15  28  45  67  96 125 151 189 244 294
#     4  10  20  33  49  72  97 125 162 205 245 288
#     4   8  13  25  46  70  92 113 145 192 243 286
#     4  10  21  32  51  68  98 132 163 202 241 287
#     4  10  19  29  47  72  95 123 160 200 236 285
#     4  10  20  34  47  64  93 134 168 188 232 286
#     4   9  19  30  47  66  93 125 155 193 237 286
#
# _framework density 16.184004999999999
#
# number of rings (size 3 to 8) (size 9 to 14) (size 15 to 20)
#    0.000    2.769    0.769    1.846    2.154    6.462 
#    0.000    0.385    0.000    0.000    0.000    0.000 
#    0.000    2.462    0.000    0.000    0.000    0.000 
#
# Total GULP energy -289539.566495 kJ/mol
# GULP energy per Si atom -5568.068586 kJ/mol
# Density = 1.614717 g / cm^3
# Si number density = 16.184005 Si / 1000 Ang^3
#
#
#
# Elastic Constant Matrix: (Units=GPa)
#
#
# Indices 1 2 3 4 5 6 
#
# 1 90.3159 20.9033 72.0023 0.0000 0.0000 0.0000
# 2 20.9033 32.7698 24.6700 0.0000 0.0000 0.0000
# 3 72.0023 24.6700 134.9029 0.0000 0.0000 0.0000
# 4 0.0000 0.0000 0.0000 18.8744 0.0000 0.0000
# 5 0.0000 0.0000 0.0000 0.0000 26.9875 0.0000
# 6 0.0000 0.0000 0.0000 0.0000 0.0000 8.6421
#
#
#
# Elastic Compliance Matrix: (Units=1/GPa)
#
#
# Indices 1 2 3 4 5 6 
#
# 1 0.020093 -0.005501 -0.009719 0.000000 0.000000 0.000000
# 2 -0.005501 0.036894 -0.003811 0.000000 0.000000 0.000000
# 3 -0.009719 -0.003811 0.013297 0.000000 0.000000 0.000000
# 4 0.000000 0.000000 0.000000 0.052982 0.000000 0.000000
# 5 0.000000 0.000000 0.000000 0.000000 0.037054 0.000000
# 6 0.000000 0.000000 0.000000 0.000000 0.000000 0.115713
#
#
# Mechanical properties :
#
#
# Convention : Reuss Voigt Hill
#
# Bulk Modulus (GPa) = 31.03343 54.79332 42.91338
# Shear Modulus (GPa) = 15.39247 20.26166 17.82706
#
# Velocity S-wave (km/s) = 3.08732 3.54214 3.32252
# Velocity P-wave (km/s) = 5.65029 7.11751 6.42591
#
# Compressibility (1/GPa) = 0.03222331
#
# Stress axis : x y z
#
# Youngs Moduli (GPa) = 49.76788 27.10494 75.20626
#
# Poissons Ratio (x) = 0.14910 0.73090
# Poissons Ratio (y) = 0.27376 0.28660
# Poissons Ratio (z) = 0.48367 0.10329
#
# Static dielectric constant tensor:
#      x y z
#    x 1.562240 0.000000 0.000000 
#    y 0.000000 1.533710 0.000000 
#    z 0.000000 0.000000 1.549600 
# 
# From -- ./inp_files/49571.got.cif
#   From: 2010.05.17/outbox.cif.g08.bks.cpg/sg63_25_cif.got.tgz:49571.got - 2010.06.03 15:47:04.
