data_PCOD9469734
_publ_section_title
;
Structure prediction by ZEFSAII (Michael W. Deem and Ramdas Pophale) SiO2 
 PCOD9469734
Probable space group: C M C M
;
_chemical_formula_sum "Si O2"
_cell_formula_units_Z 128
_cell_length_a 26.075321
_cell_length_b 17.235032
_cell_length_c 18.524427
_cell_angle_alpha 90.000000
_cell_angle_beta 90.000000
_cell_angle_gamma 90.000000
_cell_volume 8325.044063
_symmetry_space_group_name_H-M "C M C M"
_symmetry_group_IT_number 63
_symmetry_cell_setting 'orthorhombic'
loop_
_space_group_symop_operation_xyz
x,y,z
-x,-y,1/2+z
x,-y,-z
-x,y,1/2-z
-x,-y,-z
x,y,1/2-z
-x,y,z
x,-y,1/2+z
1/2+x,1/2+y,z
1/2-x,1/2-y,1/2+z
1/2+x,1/2-y,-z
1/2-x,1/2+y,1/2-z
1/2-x,1/2-y,-z
1/2+x,1/2+y,1/2-z
1/2-x,1/2+y,z
1/2+x,1/2-y,1/2+z
loop_
_atom_site_type_symbol
_atom_site_label
_atom_site_fract_x
_atom_site_fract_y
_atom_site_fract_z
Si Si1 0.815056 0.917320 0.975106
Si Si2 0.147764 0.245080 0.522785
Si Si3 0.557904 0.998734 0.381518
Si Si4 0.204385 0.757814 0.333257
Si Si5 0.221764 0.646639 0.566563
Si Si6 0.333520 0.962288 0.170010
Si Si7 0.557574 0.865246 0.501889
Si Si8 0.744062 0.588895 0.330592
O O1 0.798158 0.920489 0.892013
O O2 0.849936 0.842833 0.993461
O O3 0.761734 0.902490 0.019016
O O4 0.836484 0.000000 0.000000
O O5 0.158367 0.243874 0.608726
O O6 0.195600 0.289061 0.484135
O O7 0.098848 0.297157 0.504250
O O8 0.500000 0.000688 0.349795
O O9 0.608549 0.993239 0.333634
O O10 0.560151 0.922729 0.433092
O O11 0.563894 0.075016 0.431364
O O12 0.191389 0.775909 0.250000
O O13 0.244974 0.816765 0.368769
O O14 0.231661 0.674250 0.334857
O O15 0.178143 0.595961 0.604732
O O16 0.325268 0.927675 0.250000
O O17 0.291376 0.029697 0.160102
O O18 0.500000 0.833029 0.504787
O O19 0.723016 0.576988 0.250000
#
# Coordination Sequence:
#
# PCOD9469734 Si02
#       8
#    16  16  16  16  16  16  16  16
#     4  11  20  32  48  69  95 128 160 201 239 282
#     4  11  19  32  51  72  91 124 172 196 241 290
#     4   9  18  31  48  70  94 127 164 201 241 278
#     4  10  19  31  44  66  99 126 156 196 237 282
#     4  11  19  30  47  67  95 128 164 199 227 289
#     4  11  21  29  43  67  97 137 164 195 240 275
#     4   9  18  32  52  73  93 119 158 207 247 282
#     4  10  19  30  43  65  97 128 159 190 234 284
#
# _framework density 15.375294
#
# number of rings (size 3 to 8) (size 9 to 14) (size 15 to 20)
#    0.000    1.750    5.000    2.625    0.000    0.250 
#    0.000    0.000    0.000    1.500    0.000    0.000 
#    0.000    0.000    0.000    0.125    0.000    0.000 
#
# Total GULP energy -356674.747484 kJ/mol
# GULP energy per Si atom -5573.042929 kJ/mol
# Density = 1.534030 g / cm^3
# Si number density = 15.375294 Si / 1000 Ang^3
#
#
#
# Elastic Constant Matrix: (Units=GPa)
#
#
# Indices 1 2 3 4 5 6 
#
# 1 68.8838 32.1480 22.7225 0.0000 0.0000 0.0000
# 2 32.1480 73.8395 27.5010 0.0000 0.0000 0.0000
# 3 22.7225 27.5010 96.3345 0.0000 0.0000 0.0000
# 4 0.0000 0.0000 0.0000 13.2664 0.0000 0.0000
# 5 0.0000 0.0000 0.0000 0.0000 12.6114 0.0000
# 6 0.0000 0.0000 0.0000 0.0000 0.0000 22.2768
#
#
#
# Elastic Compliance Matrix: (Units=1/GPa)
#
#
# Indices 1 2 3 4 5 6 
#
# 1 0.018676 -0.007263 -0.002332 0.000000 0.000000 0.000000
# 2 -0.007263 0.017978 -0.003419 0.000000 0.000000 0.000000
# 3 -0.002332 -0.003419 0.011907 0.000000 0.000000 0.000000
# 4 0.000000 0.000000 0.000000 0.075378 0.000000 0.000000
# 5 0.000000 0.000000 0.000000 0.000000 0.079293 0.000000
# 6 0.000000 0.000000 0.000000 0.000000 0.000000 0.044890
#
#
# Mechanical properties :
#
#
# Convention : Reuss Voigt Hill
#
# Bulk Modulus (GPa) = 44.37853 44.86674 44.62264
# Shear Modulus (GPa) = 17.75186 20.07668 18.91427
#
# Velocity S-wave (km/s) = 3.40158 3.61747 3.51119
# Velocity P-wave (km/s) = 6.65987 6.83319 6.74709
#
# Compressibility (1/GPa) = 0.02253342
#
# Stress axis : x y z
#
# Youngs Moduli (GPa) = 53.54522 55.62247 83.98676
#
# Poissons Ratio (x) = 0.40396 0.19584
# Poissons Ratio (y) = 0.38887 0.28718
# Poissons Ratio (z) = 0.12486 0.19019
#
# Static dielectric constant tensor:
#      x y z
#    x 1.501900 0.000000 0.000000 
#    y 0.000000 1.522020 0.000000 
#    z 0.000000 0.000000 1.543900 
# 
# From -- ./inp_files/48398.got.cif
#   From: 2010.05.17/outbox.cif.g08.bks.cpg/sg63_25_cif.got.tgz:48398.got - 2010.06.03 15:47:04.
