data_PCOD9469644
_publ_section_title
;
Structure prediction by ZEFSAII (Michael W. Deem and Ramdas Pophale) SiO2 
 PCOD9469644
Probable space group: C M C M
;
_chemical_formula_sum "Si O2"
_cell_formula_units_Z 80
_cell_length_a 20.636481
_cell_length_b 25.972921
_cell_length_c 7.789980
_cell_angle_alpha 90.000000
_cell_angle_beta 90.000000
_cell_angle_gamma 90.000000
_cell_volume 4175.348971
_symmetry_space_group_name_H-M "C M C M"
_symmetry_group_IT_number 63
_symmetry_cell_setting 'orthorhombic'
loop_
_space_group_symop_operation_xyz
x,y,z
-x,-y,1/2+z
x,-y,-z
-x,y,1/2-z
-x,-y,-z
x,y,1/2-z
-x,y,z
x,-y,1/2+z
1/2+x,1/2+y,z
1/2-x,1/2-y,1/2+z
1/2+x,1/2-y,-z
1/2-x,1/2+y,1/2-z
1/2-x,1/2-y,-z
1/2+x,1/2+y,1/2-z
1/2-x,1/2+y,z
1/2+x,1/2-y,1/2+z
loop_
_atom_site_type_symbol
_atom_site_label
_atom_site_fract_x
_atom_site_fract_y
_atom_site_fract_z
Si Si1 0.357814 0.241341 0.951362
Si Si2 0.500000 0.866215 0.539978
Si Si3 0.252508 0.556126 0.454540
Si Si4 0.243894 0.828068 0.454418
Si Si5 0.606731 0.054982 0.455288
Si Si6 0.500000 0.248460 0.944083
O O1 0.370264 0.231195 0.750000
O O2 0.315227 0.192245 0.018847
O O3 0.428367 0.257338 0.025753
O O4 0.308875 0.289117 0.969433
O O5 0.500000 0.859761 0.750000
O O6 0.562433 0.898743 0.487531
O O7 0.500000 0.812986 0.445817
O O8 0.282353 0.500000 0.500000
O O9 0.250835 0.557247 0.250000
O O10 0.275332 0.612856 0.509788
O O11 0.179118 0.555355 0.528080
O O12 0.244582 0.820525 0.250000
O O13 0.610938 0.058346 0.250000
O O14 0.576972 0.000000 0.500000
O O15 0.500000 0.270796 0.750000
#
# Coordination Sequence:
#
# PCOD9469644 Si02
#       6
#    16   8  16  16  16   8
#     4   9  19  34  51  72  99 130 164 203 245 290
#     4  10  19  29  41  60  88 121 157 196 237 278
#     4  10  19  31  47  68  95 125 159 200 244 288
#     4  10  19  32  51  74  99 129 165 202 244 292
#     4   9  18  29  41  59  85 120 159 197 235 275
#     4  10  20  33  49  70  94 123 160 198 239 286
#
# _framework density 19.160076
#
# number of rings (size 3 to 8) (size 9 to 14) (size 15 to 20)
#    0.000    2.400    0.000    2.700    0.000    3.200 
#    0.000    0.000    0.000    0.000    0.000    0.700 
#    0.000    0.000    0.000    0.000    0.000    0.000 
#
# Total GULP energy -222725.630139 kJ/mol
# GULP energy per Si atom -5568.140753 kJ/mol
# Density = 1.911647 g / cm^3
# Si number density = 19.160076 Si / 1000 Ang^3
#
#
#
# Elastic Constant Matrix: (Units=GPa)
#
#
# Indices 1 2 3 4 5 6 
#
# 1 90.0011 19.5037 1.1117 0.0000 0.0000 0.0000
# 2 19.5037 97.0040 -5.3159 0.0000 0.0000 0.0000
# 3 1.1117 -5.3159 36.5069 0.0000 0.0000 0.0000
# 4 0.0000 0.0000 0.0000 21.3016 0.0000 0.0000
# 5 0.0000 0.0000 0.0000 0.0000 10.4839 0.0000
# 6 0.0000 0.0000 0.0000 0.0000 0.0000 -35.2988
#
#
#
# Elastic Compliance Matrix: (Units=1/GPa)
#
#
# Indices 1 2 3 4 5 6 
#
# 1 0.011635 -0.002378 -0.000701 0.000000 0.000000 0.000000
# 2 -0.002378 0.010878 0.001656 0.000000 0.000000 0.000000
# 3 -0.000701 0.001656 0.027655 0.000000 0.000000 0.000000
# 4 0.000000 0.000000 0.000000 0.046945 0.000000 0.000000
# 5 0.000000 0.000000 0.000000 0.000000 0.095384 0.000000
# 6 0.000000 0.000000 0.000000 0.000000 0.000000 -0.028330
#
#
# Mechanical properties :
#
#
# Convention : Reuss Voigt Hill
#
# Bulk Modulus (GPa) = 21.13119 28.23454 24.68287
# Shear Modulus (GPa) = 27.35454 13.17818 20.26636
#
# Velocity S-wave (km/s) = 3.78257 2.62543 3.25582
# Velocity P-wave (km/s) = 5.48906 4.89475 5.20041
#
# Compressibility (1/GPa) = 0.04732341
#
# Stress axis : x y z
#
# Youngs Moduli (GPa) = 85.94840 91.93134 36.16036
#
# Poissons Ratio (x) = 0.21859 0.02533
# Poissons Ratio (y) = 0.20436 -0.05989
# Poissons Ratio (z) = 0.06021 -0.15227
#
# Static dielectric constant tensor:
#      x y z
#    x 1.727820 0.000000 0.000000 
#    y 0.000000 1.698470 0.000000 
#    z 0.000000 0.000000 1.694530 
# 
# From -- ./inp_files/8092.got.cif
#   From: 2010.05.17/outbox.cif.g08.bks.cpg/sg63_5_cif.got.tgz:8092.got - 2010.06.03 15:47:04.
