data_PCOD9469335
_publ_section_title
;
Structure prediction by ZEFSAII (Michael W. Deem and Ramdas Pophale) SiO2 
 PCOD9469335
Probable space group: C M C M
;
_chemical_formula_sum "Si O2"
_cell_formula_units_Z 96
_cell_length_a 17.779069
_cell_length_b 15.693128
_cell_length_c 18.474807
_cell_angle_alpha 90.000000
_cell_angle_beta 90.000000
_cell_angle_gamma 90.000000
_cell_volume 5154.641224
_symmetry_space_group_name_H-M "C M C M"
_symmetry_group_IT_number 63
_symmetry_cell_setting 'orthorhombic'
loop_
_space_group_symop_operation_xyz
x,y,z
-x,-y,1/2+z
x,-y,-z
-x,y,1/2-z
-x,-y,-z
x,y,1/2-z
-x,y,z
x,-y,1/2+z
1/2+x,1/2+y,z
1/2-x,1/2-y,1/2+z
1/2+x,1/2-y,-z
1/2-x,1/2+y,1/2-z
1/2-x,1/2-y,-z
1/2+x,1/2+y,1/2-z
1/2-x,1/2+y,z
1/2+x,1/2-y,1/2+z
loop_
_atom_site_type_symbol
_atom_site_label
_atom_site_fract_x
_atom_site_fract_y
_atom_site_fract_z
Si Si1 0.130333 0.806083 0.560134
Si Si2 0.778708 0.307907 0.333987
Si Si3 0.611095 0.244017 0.167112
Si Si4 0.741974 0.092027 0.976924
Si Si5 0.081663 0.645309 0.030219
Si Si6 0.500000 0.609260 0.664088
Si Si7 0.000000 0.056830 0.427622
O O1 0.159780 0.755193 0.630719
O O2 0.202831 0.839945 0.515368
O O3 0.089039 0.735453 0.511530
O O4 0.073111 0.882654 0.575442
O O5 0.793954 0.331606 0.250000
O O6 0.699898 0.257681 0.335415
O O7 0.766451 0.384703 0.391880
O O8 0.588901 0.228858 0.250000
O O9 0.586641 0.169488 0.114333
O O10 0.571255 0.332304 0.142757
O O11 0.657430 0.097764 0.008118
O O12 0.772459 0.000000 0.000000
O O13 0.000000 0.607047 0.013378
O O14 0.500000 0.602681 0.750000
O O15 0.500000 0.515646 0.632881
O O16 0.000000 0.000000 0.500000
#
# Coordination Sequence:
#
# PCOD9469335 Si02
#       7
#    16  16  16  16  16   8   8
#     4  11  21  38  58  85 115 152 196 237 283 353
#     4  10  21  39  61  82 111 155 203 242 285 346
#     4  10  18  32  55  83 113 150 191 236 286 341
#     4  11  23  38  59  85 120 153 189 245 296 346
#     4  11  19  36  60  82 108 146 197 238 280 344
#     4  10  22  34  50  84 124 151 179 231 300 356
#     4  12  24  34  58  88 124 155 189 231 293 358
#
# _framework density 18.623992000000001
#
# number of rings (size 3 to 8) (size 9 to 14) (size 15 to 20)
#    0.000    1.333    5.000    2.500    2.333    1.000 
#    0.000    1.667    0.000    0.000    0.000    0.000 
#    0.000    0.000    0.000    0.000    0.000    0.000 
#
# Total GULP energy -267762.370212 kJ/mol
# GULP energy per Si atom -5578.382713 kJ/mol
# Density = 1.858160 g / cm^3
# Si number density = 18.623992 Si / 1000 Ang^3
#
#
#
# Elastic Constant Matrix: (Units=GPa)
#
#
# Indices 1 2 3 4 5 6 
#
# 1 98.0858 6.6958 25.4884 0.0000 0.0000 0.0000
# 2 6.6958 50.4686 34.7718 0.0000 0.0000 0.0000
# 3 25.4884 34.7718 123.2313 0.0000 0.0000 0.0000
# 4 0.0000 0.0000 0.0000 17.9335 0.0000 0.0000
# 5 0.0000 0.0000 0.0000 0.0000 11.3231 0.0000
# 6 0.0000 0.0000 0.0000 0.0000 0.0000 18.6459
#
#
#
# Elastic Compliance Matrix: (Units=1/GPa)
#
#
# Indices 1 2 3 4 5 6 
#
# 1 0.010775 0.000131 -0.002266 0.000000 0.000000 0.000000
# 2 0.000131 0.024598 -0.006968 0.000000 0.000000 0.000000
# 3 -0.002266 -0.006968 0.010550 0.000000 0.000000 0.000000
# 4 0.000000 0.000000 0.000000 0.055762 0.000000 0.000000
# 5 0.000000 0.000000 0.000000 0.000000 0.088315 0.000000
# 6 0.000000 0.000000 0.000000 0.000000 0.000000 0.053631
#
#
# Mechanical properties :
#
#
# Convention : Reuss Voigt Hill
#
# Bulk Modulus (GPa) = 36.07774 45.07752 40.57763
# Shear Modulus (GPa) = 18.44523 23.23582 20.84052
#
# Velocity S-wave (km/s) = 3.15048 3.53601 3.34880
# Velocity P-wave (km/s) = 5.71382 6.39748 6.06529
#
# Compressibility (1/GPa) = 0.02771792
#
# Stress axis : x y z
#
# Youngs Moduli (GPa) = 92.80794 40.65451 94.79087
#
# Poissons Ratio (x) = -0.00535 0.21477
# Poissons Ratio (y) = -0.01220 0.66048
# Poissons Ratio (z) = 0.21028 0.28327
#
# Static dielectric constant tensor:
#      x y z
#    x 1.672140 0.000000 0.000000 
#    y 0.000000 1.641730 0.000000 
#    z 0.000000 0.000000 1.690100 
# 
# From -- ./inp_files/45812.got.cif
#   From: 2010.05.17/outbox.cif.g08.bks.cpg/sg63_23_cif.got.tgz:45812.got - 2010.06.03 15:47:04.
