data_PCOD9469490
_publ_section_title
;
Structure prediction by ZEFSAII (Michael W. Deem and Ramdas Pophale) SiO2 
 PCOD9469490
Probable space group: C M C M
;
_chemical_formula_sum "Si O2"
_cell_formula_units_Z 80
_cell_length_a 7.692340
_cell_length_b 25.865739
_cell_length_c 19.386672
_cell_angle_alpha 90.000000
_cell_angle_beta 90.000000
_cell_angle_gamma 90.000000
_cell_volume 3857.328493
_symmetry_space_group_name_H-M "C M C M"
_symmetry_group_IT_number 63
_symmetry_cell_setting 'orthorhombic'
loop_
_space_group_symop_operation_xyz
x,y,z
-x,-y,1/2+z
x,-y,-z
-x,y,1/2-z
-x,-y,-z
x,y,1/2-z
-x,y,z
x,-y,1/2+z
1/2+x,1/2+y,z
1/2-x,1/2-y,1/2+z
1/2+x,1/2-y,-z
1/2-x,1/2+y,1/2-z
1/2-x,1/2-y,-z
1/2+x,1/2+y,1/2-z
1/2-x,1/2+y,z
1/2+x,1/2-y,1/2+z
loop_
_atom_site_type_symbol
_atom_site_label
_atom_site_fract_x
_atom_site_fract_y
_atom_site_fract_z
Si Si1 0.791598 0.334776 0.589436
Si Si2 0.707913 0.024336 0.928608
Si Si3 0.286924 0.063701 0.328792
Si Si4 0.206238 0.855468 0.432071
Si Si5 0.713369 0.267313 0.170269
O O1 0.728907 0.387453 0.625610
O O2 0.752899 0.335604 0.508410
O O3 0.728753 0.284158 0.629772
O O4 0.000000 0.335010 0.596070
O O5 0.500000 0.017903 0.930385
O O6 0.740418 0.085046 0.924027
O O7 0.770703 0.989177 0.865419
O O8 0.776862 0.000000 0.000000
O O9 0.229774 0.068024 0.250000
O O10 0.500000 0.064323 0.328230
O O11 0.274041 0.817093 0.372970
O O12 0.000000 0.854202 0.427114
O O13 0.767808 0.267441 0.250000
O O14 0.500000 0.267127 0.170287
#
# Coordination Sequence:
#
# PCOD9469490 Si02
#       5
#    16  16  16  16  16
#     4  10  18  34  59  81 103 137 182 226 265 311
#     4  10  19  35  55  77 104 137 178 224 266 311
#     4   9  17  30  53  82 104 128 173 230 274 306
#     4  11  22  34  53  81 112 144 177 216 267 326
#     4   9  19  35  55  80 109 142 181 221 263 316
#
# _framework density 20.739744000000002
#
# number of rings (size 3 to 8) (size 9 to 14) (size 15 to 20)
#    0.000    2.200    2.000    1.800    0.000    3.600 
#    0.000    1.000    0.000    7.800    0.000    0.000 
#    0.000    0.000    0.000    0.000    0.000    0.000 
#
# Total GULP energy -223408.718230 kJ/mol
# GULP energy per Si atom -5585.217956 kJ/mol
# Density = 2.069254 g / cm^3
# Si number density = 20.739744 Si / 1000 Ang^3
#
#
#
# Elastic Constant Matrix: (Units=GPa)
#
#
# Indices 1 2 3 4 5 6 
#
# 1 29.5322 2.6532 5.4983 0.0000 0.0000 0.0000
# 2 2.6532 222.2269 154.5860 0.0000 0.0000 0.0000
# 3 5.4983 154.5860 220.7937 0.0000 0.0000 0.0000
# 4 0.0000 0.0000 0.0000 35.6008 0.0000 0.0000
# 5 0.0000 0.0000 0.0000 0.0000 13.2925 0.0000
# 6 0.0000 0.0000 0.0000 0.0000 0.0000 -18.0159
#
#
#
# Elastic Compliance Matrix: (Units=1/GPa)
#
#
# Indices 1 2 3 4 5 6 
#
# 1 0.034034 0.000357 -0.001098 0.000000 0.000000 0.000000
# 2 0.000357 0.008776 -0.006153 0.000000 0.000000 0.000000
# 3 -0.001098 -0.006153 0.008865 0.000000 0.000000 0.000000
# 4 0.000000 0.000000 0.000000 0.028089 0.000000 0.000000
# 5 0.000000 0.000000 0.000000 0.000000 0.075230 0.000000
# 6 0.000000 0.000000 0.000000 0.000000 0.000000 -0.055507
#
#
# Mechanical properties :
#
#
# Convention : Reuss Voigt Hill
#
# Bulk Modulus (GPa) = 26.39444 88.66974 57.53209
# Shear Modulus (GPa) = 39.71291 26.82985 33.27138
#
# Velocity S-wave (km/s) = 4.38061 3.60063 4.00963
# Velocity P-wave (km/s) = 6.19197 7.75451 7.01687
#
# Compressibility (1/GPa) = 0.03788676
#
# Stress axis : x y z
#
# Youngs Moduli (GPa) = 29.38275 113.94671 112.80793
#
# Poissons Ratio (x) = -0.04070 0.12382
# Poissons Ratio (y) = -0.01049 0.69414
# Poissons Ratio (z) = 0.03225 0.70115
#
# Static dielectric constant tensor:
#      x y z
#    x 1.785960 0.000000 0.000000 
#    y 0.000000 1.675440 0.000000 
#    z 0.000000 0.000000 1.668180 
# 
# From -- ./inp_files/40504.got.cif
#   From: 2010.05.17/outbox.cif.g08.bks.cpg/sg63_21_cif.got.tgz:40504.got - 2010.06.03 15:47:04.
