data_PCOD9469278
_publ_section_title
;
Structure prediction by ZEFSAII (Michael W. Deem and Ramdas Pophale) SiO2 
 PCOD9469278
Probable space group: C M C M
;
_chemical_formula_sum "Si O2"
_cell_formula_units_Z 88
_cell_length_a 10.335638
_cell_length_b 23.173344
_cell_length_c 19.808600
_cell_angle_alpha 90.000000
_cell_angle_beta 90.000000
_cell_angle_gamma 90.000000
_cell_volume 4744.383435
_symmetry_space_group_name_H-M "C M C M"
_symmetry_group_IT_number 63
_symmetry_cell_setting 'orthorhombic'
loop_
_space_group_symop_operation_xyz
x,y,z
-x,-y,1/2+z
x,-y,-z
-x,y,1/2-z
-x,-y,-z
x,y,1/2-z
-x,y,z
x,-y,1/2+z
1/2+x,1/2+y,z
1/2-x,1/2-y,1/2+z
1/2+x,1/2-y,-z
1/2-x,1/2+y,1/2-z
1/2-x,1/2-y,-z
1/2+x,1/2+y,1/2-z
1/2-x,1/2+y,z
1/2+x,1/2-y,1/2+z
loop_
_atom_site_type_symbol
_atom_site_label
_atom_site_fract_x
_atom_site_fract_y
_atom_site_fract_z
Si Si1 0.652370 0.144483 0.327789
Si Si2 0.358433 0.890592 0.431817
Si Si3 0.250856 0.000000 0.500000
Si Si4 0.647969 0.789639 0.538708
Si Si5 0.147533 0.955717 0.864842
Si Si6 0.148913 0.910985 0.172807
O O1 0.667270 0.163501 0.250000
O O2 0.500000 0.128481 0.337562
O O3 0.681002 0.192918 0.384381
O O4 0.746827 0.090252 0.340576
O O5 0.500000 0.884535 0.400411
O O6 0.337069 0.954771 0.459640
O O7 0.351448 0.848635 0.495602
O O8 0.245888 0.880515 0.378168
O O9 0.165870 0.966092 0.554967
O O10 0.500000 0.766636 0.537040
O O11 0.750000 0.750000 0.500000
O O12 0.000000 0.937425 0.849987
O O13 0.167072 0.019458 0.833094
O O14 0.169450 0.893860 0.250000
O O15 0.000000 0.899827 0.153912
#
# Coordination Sequence:
#
# PCOD9469278 Si02
#       6
#    16  16   8  16  16  16
#     4  10  21  38  59  83 113 146 185 236 291 344
#     4  10  20  34  56  82 110 144 187 232 276 330
#     4  10  18  32  52  82 118 154 184 222 280 334
#     4  10  22  41  60  84 111 145 188 235 283 337
#     4  10  19  31  51  80 116 153 191 231 274 328
#     4   9  19  34  50  75 115 155 189 226 273 333
#
# _framework density 18.548247
#
# number of rings (size 3 to 8) (size 9 to 14) (size 15 to 20)
#    0.000    2.182    1.818    1.091    0.000    6.545 
#    0.000    0.909    0.000    3.273    0.000    0.000 
#    0.000    0.000    0.000    0.000    0.000    0.000 
#
# Total GULP energy -245380.701660 kJ/mol
# GULP energy per Si atom -5576.834129 kJ/mol
# Density = 1.850603 g / cm^3
# Si number density = 18.548247 Si / 1000 Ang^3
#
#
#
# Elastic Constant Matrix: (Units=GPa)
#
#
# Indices 1 2 3 4 5 6 
#
# 1 88.4761 30.0110 66.4004 0.0000 0.0000 0.0000
# 2 30.0110 25.6925 19.3177 0.0000 0.0000 0.0000
# 3 66.4004 19.3177 124.9651 0.0000 0.0000 0.0000
# 4 0.0000 0.0000 0.0000 18.1559 0.0000 0.0000
# 5 0.0000 0.0000 0.0000 0.0000 14.4727 0.0000
# 6 0.0000 0.0000 0.0000 0.0000 0.0000 28.2889
#
#
#
# Elastic Compliance Matrix: (Units=1/GPa)
#
#
# Indices 1 2 3 4 5 6 
#
# 1 0.027761 -0.024142 -0.011019 0.000000 0.000000 0.000000
# 2 -0.024142 0.065036 0.002774 0.000000 0.000000 0.000000
# 3 -0.011019 0.002774 0.013428 0.000000 0.000000 0.000000
# 4 0.000000 0.000000 0.000000 0.055078 0.000000 0.000000
# 5 0.000000 0.000000 0.000000 0.000000 0.069096 0.000000
# 6 0.000000 0.000000 0.000000 0.000000 0.000000 0.035350
#
#
# Mechanical properties :
#
#
# Convention : Reuss Voigt Hill
#
# Bulk Modulus (GPa) = 24.12436 52.28798 38.20617
# Shear Modulus (GPa) = 14.52055 20.41048 17.46551
#
# Velocity S-wave (km/s) = 2.80099 3.32083 3.07192
# Velocity P-wave (km/s) = 4.84719 6.55403 5.76414
#
# Compressibility (1/GPa) = 0.04145188
#
# Stress axis : x y z
#
# Youngs Moduli (GPa) = 36.02169 15.37609 74.47010
#
# Poissons Ratio (x) = 0.37121 0.82057
# Poissons Ratio (y) = 0.86965 -0.20662
# Poissons Ratio (z) = 0.39692 -0.04266
#
# Static dielectric constant tensor:
#      x y z
#    x 1.649090 0.000000 0.000000 
#    y 0.000000 1.623050 0.000000 
#    z 0.000000 0.000000 1.654230 
# 
# From -- ./inp_files/51075.got.cif
#   From: 2010.05.17/outbox.cif.g08.bks.cpg/sg63_26_cif.got.tgz:51075.got - 2010.06.03 15:47:04.
