data_PCOD9469181
_publ_section_title
;
Structure prediction by ZEFSAII (Michael W. Deem and Ramdas Pophale) SiO2 
 PCOD9469181
Probable space group: C M C M
;
_chemical_formula_sum "Si O2"
_cell_formula_units_Z 96
_cell_length_a 8.538746
_cell_length_b 25.758733
_cell_length_c 24.372456
_cell_angle_alpha 90.000000
_cell_angle_beta 90.000000
_cell_angle_gamma 90.000000
_cell_volume 5360.655364
_symmetry_space_group_name_H-M "C M C M"
_symmetry_group_IT_number 63
_symmetry_cell_setting 'orthorhombic'
loop_
_space_group_symop_operation_xyz
x,y,z
-x,-y,1/2+z
x,-y,-z
-x,y,1/2-z
-x,-y,-z
x,y,1/2-z
-x,y,z
x,-y,1/2+z
1/2+x,1/2+y,z
1/2-x,1/2-y,1/2+z
1/2+x,1/2-y,-z
1/2-x,1/2+y,1/2-z
1/2-x,1/2-y,-z
1/2+x,1/2+y,1/2-z
1/2-x,1/2+y,z
1/2+x,1/2-y,1/2+z
loop_
_atom_site_type_symbol
_atom_site_label
_atom_site_fract_x
_atom_site_fract_y
_atom_site_fract_z
Si Si1 0.314176 0.726159 0.250000
Si Si2 0.191083 0.857721 0.059073
Si Si3 0.191258 0.976555 0.058810
Si Si4 0.685464 0.108633 0.250000
Si Si5 0.311006 0.329861 0.936252
Si Si6 0.687330 0.734767 0.864841
Si Si7 0.311178 0.568882 0.135999
O O1 0.500000 0.724631 0.250000
O O2 0.254386 0.666828 0.250000
O O3 0.255832 0.753959 0.194916
O O4 0.243276 0.917211 0.065273
O O5 0.241272 0.818788 0.106946
O O6 0.000000 0.858345 0.058820
O O7 0.238517 0.835910 0.999436
O O8 0.000000 0.976275 0.058557
O O9 0.240503 0.015875 0.106619
O O10 0.239274 0.000000 0.000000
O O11 0.500000 0.113024 0.250000
O O12 0.741339 0.079537 0.195385
O O13 0.500000 0.324273 0.934775
O O14 0.236258 0.281507 0.905162
O O15 0.271819 0.382653 0.903610
O O16 0.500000 0.733822 0.860548
O O17 0.500000 0.567871 0.140612
#
# Coordination Sequence:
#
# PCOD9469181 Si02
#       7
#     8  16  16   8  16  16  16
#     4  12  24  40  59  76 101 141 192 236 274 329
#     4   9  18  32  52  83 118 149 184 226 272 322
#     4   9  15  29  55  85 112 141 181 227 267 309
#     4  12  24  38  57  80 113 145 178 226 282 329
#     4  10  18  31  54  83 115 147 179 223 271 326
#     4  11  22  35  53  81 115 147 182 227 280 331
#     4  10  19  32  57  87 112 141 183 226 267 318
#
# _framework density 17.908258
#
# number of rings (size 3 to 8) (size 9 to 14) (size 15 to 20)
#    0.000    1.833    3.333    2.500    0.000    0.000 
#    0.000    1.667    0.000    8.500    0.000    0.000 
#    0.000    0.000    0.000    0.000    0.000    0.000 
#
# Total GULP energy -268031.858151 kJ/mol
# GULP energy per Si atom -5583.997045 kJ/mol
# Density = 1.786750 g / cm^3
# Si number density = 17.908258 Si / 1000 Ang^3
#
#
#
# Elastic Constant Matrix: (Units=GPa)
#
#
# Indices 1 2 3 4 5 6 
#
# 1 25.7627 36.8995 39.9632 0.0000 0.0000 0.0000
# 2 36.8995 168.3305 112.7439 0.0000 0.0000 0.0000
# 3 39.9632 112.7439 185.7812 0.0000 0.0000 0.0000
# 4 0.0000 0.0000 0.0000 33.1220 0.0000 0.0000
# 5 0.0000 0.0000 0.0000 0.0000 19.7766 0.0000
# 6 0.0000 0.0000 0.0000 0.0000 0.0000 17.3162
#
#
#
# Elastic Compliance Matrix: (Units=1/GPa)
#
#
# Indices 1 2 3 4 5 6 
#
# 1 0.064245 -0.008133 -0.008884 0.000000 0.000000 0.000000
# 2 -0.008133 0.011038 -0.004949 0.000000 0.000000 0.000000
# 3 -0.008884 -0.004949 0.010297 0.000000 0.000000 0.000000
# 4 0.000000 0.000000 0.000000 0.030191 0.000000 0.000000
# 5 0.000000 0.000000 0.000000 0.000000 0.050565 0.000000
# 6 0.000000 0.000000 0.000000 0.000000 0.000000 0.057750
#
#
# Mechanical properties :
#
#
# Convention : Reuss Voigt Hill
#
# Bulk Modulus (GPa) = 24.01053 84.34306 54.17680
# Shear Modulus (GPa) = 17.73662 26.72747 22.23204
#
# Velocity S-wave (km/s) = 3.15050 3.86744 3.52723
# Velocity P-wave (km/s) = 5.16438 8.19404 6.84884
#
# Compressibility (1/GPa) = 0.04164840
#
# Stress axis : x y z
#
# Youngs Moduli (GPa) = 15.56533 90.59236 97.11178
#
# Poissons Ratio (x) = 0.73675 0.86277
# Poissons Ratio (y) = 0.12659 0.48065
# Poissons Ratio (z) = 0.13829 0.44838
#
# Static dielectric constant tensor:
#      x y z
#    x 1.618370 0.000000 0.000000 
#    y 0.000000 1.607120 0.000000 
#    z 0.000000 0.000000 1.592000 
# 
# From -- ./inp_files/60039.got.cif
#   From: 2010.05.17/outbox.cif.g08.bks.cpg/sg63_31_cif.got.tgz:60039.got - 2010.06.03 15:47:04.
