data_PCOD9469927
_publ_section_title
;
Structure prediction by ZEFSAII (Michael W. Deem and Ramdas Pophale) SiO2 
 PCOD9469927
Probable space group: C M C M
;
_chemical_formula_sum "Si O2"
_cell_formula_units_Z 80
_cell_length_a 7.612958
_cell_length_b 27.097493
_cell_length_c 19.661357
_cell_angle_alpha 90.000000
_cell_angle_beta 90.000000
_cell_angle_gamma 90.000000
_cell_volume 4055.982155
_symmetry_space_group_name_H-M "C M C M"
_symmetry_group_IT_number 63
_symmetry_cell_setting 'orthorhombic'
loop_
_space_group_symop_operation_xyz
x,y,z
-x,-y,1/2+z
x,-y,-z
-x,y,1/2-z
-x,-y,-z
x,y,1/2-z
-x,y,z
x,-y,1/2+z
1/2+x,1/2+y,z
1/2-x,1/2-y,1/2+z
1/2+x,1/2-y,-z
1/2-x,1/2+y,1/2-z
1/2-x,1/2-y,-z
1/2+x,1/2+y,1/2-z
1/2-x,1/2+y,z
1/2+x,1/2-y,1/2+z
loop_
_atom_site_type_symbol
_atom_site_label
_atom_site_fract_x
_atom_site_fract_y
_atom_site_fract_z
Si Si1 0.784609 0.641313 0.170877
Si Si2 0.784332 0.856608 0.328484
Si Si3 0.201343 0.548606 0.085881
Si Si4 0.202879 0.939477 0.067586
Si Si5 0.704522 0.751434 0.832713
O O1 0.737023 0.635222 0.250000
O O2 0.724154 0.594918 0.127006
O O3 0.721391 0.695386 0.146282
O O4 0.000000 0.642792 0.168104
O O5 0.731111 0.864514 0.250000
O O6 0.727566 0.900012 0.378531
O O7 0.722401 0.802134 0.351873
O O8 0.000000 0.855803 0.328083
O O9 0.289025 0.495423 0.095109
O O10 0.000000 0.542231 0.107490
O O11 0.205803 0.560408 0.005576
O O12 0.000000 0.927341 0.054069
O O13 0.707712 0.751972 0.750000
O O14 0.500000 0.751125 0.853550
#
# Coordination Sequence:
#
# PCOD9469927 Si02
#       5
#    16  16  16  16  16
#     4   8  14  25  43  66  88 111 142 179 215 252
#     4   8  14  25  43  66  88 111 142 179 215 252
#     4  10  19  31  46  63  87 117 147 178 214 257
#     4  10  19  31  46  63  87 117 147 178 214 257
#     4   7  10  20  39  62  87 111 136 171 214 254
#
# _framework density 19.723953999999999
#
# number of rings (size 3 to 8) (size 9 to 14) (size 15 to 20)
#    0.000    3.400    0.000    4.800    0.000    0.800 
#    0.000    1.000    0.000    3.600    0.000    4.200 
#    0.000   19.200    0.000    0.000    0.000    0.000 
#
# Total GULP energy -222756.640866 kJ/mol
# GULP energy per Si atom -5568.916022 kJ/mol
# Density = 1.967906 g / cm^3
# Si number density = 19.723954 Si / 1000 Ang^3
#
#
#
# Elastic Constant Matrix: (Units=GPa)
#
#
# Indices 1 2 3 4 5 6 
#
# 1 40.1527 -3.4362 -3.5130 0.0000 0.0000 0.0000
# 2 -3.4362 208.7981 89.7202 0.0000 0.0000 0.0000
# 3 -3.5130 89.7202 55.5663 0.0000 0.0000 0.0000
# 4 0.0000 0.0000 0.0000 -38.4874 0.0000 0.0000
# 5 0.0000 0.0000 0.0000 0.0000 -2.6084 0.0000
# 6 0.0000 0.0000 0.0000 0.0000 0.0000 0.5419
#
#
#
# Elastic Compliance Matrix: (Units=1/GPa)
#
#
# Indices 1 2 3 4 5 6 
#
# 1 0.025093 -0.000878 0.003003 0.000000 0.000000 0.000000
# 2 -0.000878 0.015673 -0.025361 0.000000 0.000000 0.000000
# 3 0.003003 -0.025361 0.059136 0.000000 0.000000 0.000000
# 4 0.000000 0.000000 0.000000 -0.025983 0.000000 0.000000
# 5 0.000000 0.000000 0.000000 0.000000 -0.383372 0.000000
# 6 0.000000 0.000000 0.000000 0.000000 0.000000 1.845367
#
#
# Mechanical properties :
#
#
# Convention : Reuss Voigt Hill
#
# Bulk Modulus (GPa) = 18.71598 52.22879 35.47239
# Shear Modulus (GPa) = 3.12462 6.67229 4.89846
#
# Velocity S-wave (km/s) = 1.26001 1.84124 1.57762
# Velocity P-wave (km/s) = 3.40975 5.57294 4.61974
#
# Compressibility (1/GPa) = 0.05343028
#
# Stress axis : x y z
#
# Youngs Moduli (GPa) = 39.85237 63.80595 16.91021
#
# Poissons Ratio (x) = 0.05600 -0.05079
# Poissons Ratio (y) = 0.03497 0.42886
# Poissons Ratio (z) = -0.11969 1.61819
#
# Static dielectric constant tensor:
#      x y z
#    x 1.725830 0.000000 0.000000 
#    y 0.000000 1.731280 0.000000 
#    z 0.000000 0.000000 1.648410 
# 
# From -- ./inp_files/40728.got.cif
#   From: 2010.05.17/outbox.cif.g08.bks.cpg/sg63_21_cif.got.tgz:40728.got - 2010.06.03 15:47:04.
