data_PCOD9469197
_publ_section_title
;
Structure prediction by ZEFSAII (Michael W. Deem and Ramdas Pophale) SiO2 
 PCOD9469197
Probable space group: C M C M
;
_chemical_formula_sum "Si O2"
_cell_formula_units_Z 80
_cell_length_a 16.878313
_cell_length_b 14.511240
_cell_length_c 14.019866
_cell_angle_alpha 90.000000
_cell_angle_beta 90.000000
_cell_angle_gamma 90.000000
_cell_volume 3433.819195
_symmetry_space_group_name_H-M "C M C M"
_symmetry_group_IT_number 63
_symmetry_cell_setting 'orthorhombic'
loop_
_space_group_symop_operation_xyz
x,y,z
-x,-y,1/2+z
x,-y,-z
-x,y,1/2-z
-x,-y,-z
x,y,1/2-z
-x,y,z
x,-y,1/2+z
1/2+x,1/2+y,z
1/2-x,1/2-y,1/2+z
1/2+x,1/2-y,-z
1/2-x,1/2+y,1/2-z
1/2-x,1/2-y,-z
1/2+x,1/2+y,1/2-z
1/2-x,1/2+y,z
1/2+x,1/2-y,1/2+z
loop_
_atom_site_type_symbol
_atom_site_label
_atom_site_fract_x
_atom_site_fract_y
_atom_site_fract_z
Si Si1 0.228909 0.192659 0.640596
Si Si2 0.289733 0.596472 0.144038
Si Si3 0.118922 0.469212 0.856952
Si Si4 0.613789 0.853405 0.458359
Si Si5 0.910826 0.148527 0.992777
O O1 0.240721 0.161397 0.750000
O O2 0.248060 0.302207 0.641334
O O3 0.292722 0.155992 0.564531
O O4 0.142590 0.167621 0.600792
O O5 0.324280 0.585614 0.250000
O O6 0.214886 0.529373 0.134662
O O7 0.357319 0.589224 0.065220
O O8 0.098764 0.440435 0.750000
O O9 0.087808 0.570681 0.881558
O O10 0.094670 0.399029 0.939894
O O11 0.584284 0.749589 0.456686
O O12 0.000000 0.115929 0.975200
#
# Coordination Sequence:
#
# PCOD9469197 Si02
#       5
#    16  16  16  16  16
#     4  10  18  33  54  77 102 138 189 231 261 307
#     4   9  17  33  56  76  98 135 186 231 262 307
#     4  10  18  31  56  81 102 132 181 234 267 304
#     4  10  19  34  54  80 107 139 183 224 270 317
#     4  11  21  34  51  79 115 146 174 214 273 333
#
# _framework density 23.297674000000001
#
# number of rings (size 3 to 8) (size 9 to 14) (size 15 to 20)
#    0.000    2.000    4.000    1.800    0.000    1.600 
#    0.000    2.000    0.000    3.600    0.000    2.800 
#    0.000    0.000    0.000    0.000    0.000    0.000 
#
# Total GULP energy -223466.457776 kJ/mol
# GULP energy per Si atom -5586.661444 kJ/mol
# Density = 2.324465 g / cm^3
# Si number density = 23.297674 Si / 1000 Ang^3
#
#
#
# Elastic Constant Matrix: (Units=GPa)
#
#
# Indices 1 2 3 4 5 6 
#
# 1 155.3988 -5.8147 48.0041 0.0000 0.0000 0.0000
# 2 -5.8147 64.3875 18.5897 0.0000 0.0000 0.0000
# 3 48.0041 18.5897 145.4034 0.0000 0.0000 0.0000
# 4 0.0000 0.0000 0.0000 22.5283 0.0000 0.0000
# 5 0.0000 0.0000 0.0000 0.0000 -7.6034 0.0000
# 6 0.0000 0.0000 0.0000 0.0000 0.0000 -8.5119
#
#
#
# Elastic Compliance Matrix: (Units=1/GPa)
#
#
# Indices 1 2 3 4 5 6 
#
# 1 0.007286 0.001404 -0.002585 0.000000 0.000000 0.000000
# 2 0.001404 0.016397 -0.002560 0.000000 0.000000 0.000000
# 3 -0.002585 -0.002560 0.008058 0.000000 0.000000 0.000000
# 4 0.000000 0.000000 0.000000 0.044389 0.000000 0.000000
# 5 0.000000 0.000000 0.000000 0.000000 -0.131520 0.000000
# 6 0.000000 0.000000 0.000000 0.000000 0.000000 -0.117482
#
#
# Mechanical properties :
#
#
# Convention : Reuss Voigt Hill
#
# Bulk Modulus (GPa) = 41.22035 54.08310 47.65173
# Shear Modulus (GPa) = -31.78544 21.57664 -5.10440
#
# Velocity S-wave (km/s) = -3.69767 3.04654 -1.48179
# Velocity P-wave (km/s) = 0.70646 5.96989 4.19168
#
# Compressibility (1/GPa) = 0.02425986
#
# Stress axis : x y z
#
# Youngs Moduli (GPa) = 137.24693 60.98721 124.09814
#
# Poissons Ratio (x) = -0.08565 0.32080
# Poissons Ratio (y) = -0.19274 0.31769
# Poissons Ratio (z) = 0.35479 0.15613
#
# Static dielectric constant tensor:
#      x y z
#    x 1.898060 0.000000 0.000000 
#    y 0.000000 1.932880 0.000000 
#    z 0.000000 0.000000 1.839610 
# 
# From -- ./inp_files/33852.got.cif
#   From: 2010.05.17/outbox.cif.g08.bks.cpg/sg63_17_cif.got.tgz:33852.got - 2010.06.03 15:47:04.
