data_PCOD9469195
_publ_section_title
;
Structure prediction by ZEFSAII (Michael W. Deem and Ramdas Pophale) SiO2 
 PCOD9469195
Probable space group: C M C M
;
_chemical_formula_sum "Si O2"
_cell_formula_units_Z 112
_cell_length_a 13.023939
_cell_length_b 12.922150
_cell_length_c 29.138694
_cell_angle_alpha 90.000000
_cell_angle_beta 90.000000
_cell_angle_gamma 90.000000
_cell_volume 4903.963332
_symmetry_space_group_name_H-M "C M C M"
_symmetry_group_IT_number 63
_symmetry_cell_setting 'orthorhombic'
loop_
_space_group_symop_operation_xyz
x,y,z
-x,-y,1/2+z
x,-y,-z
-x,y,1/2-z
-x,-y,-z
x,y,1/2-z
-x,y,z
x,-y,1/2+z
1/2+x,1/2+y,z
1/2-x,1/2-y,1/2+z
1/2+x,1/2-y,-z
1/2-x,1/2+y,1/2-z
1/2-x,1/2-y,-z
1/2+x,1/2+y,1/2-z
1/2-x,1/2+y,z
1/2+x,1/2-y,1/2+z
loop_
_atom_site_type_symbol
_atom_site_label
_atom_site_fract_x
_atom_site_fract_y
_atom_site_fract_z
Si Si1 0.677099 0.368230 0.199766
Si Si2 0.334254 0.294712 0.398963
Si Si3 0.674247 0.503304 0.054393
Si Si4 0.382359 0.290657 0.605080
Si Si5 0.621777 0.611105 0.200788
Si Si6 0.385877 0.937491 0.900552
Si Si7 0.884695 0.529894 0.801114
O O1 0.645547 0.329208 0.250000
O O2 0.641962 0.310048 0.154886
O O3 0.642465 0.488525 0.196629
O O4 0.800298 0.380887 0.197191
O O5 0.370337 0.397501 0.424654
O O6 0.210909 0.284339 0.408222
O O7 0.379976 0.184200 0.411853
O O8 0.620900 0.606855 0.073561
O O9 0.791250 0.512414 0.072890
O O10 0.670626 0.500000 0.000000
O O11 0.500000 0.251017 0.606388
O O12 0.346310 0.331903 0.655000
O O13 0.665387 0.645825 0.250000
O O14 0.500000 0.624717 0.202359
O O15 0.500000 0.976853 0.911814
O O16 0.370366 0.958107 0.845688
O O17 0.873752 0.480879 0.750000
O O18 0.000000 0.571966 0.803664
#
# Coordination Sequence:
#
# PCOD9469195 Si02
#       7
#    16  16  16  16  16  16  16
#     4  10  18  31  55  85 117 156 197 231 274 335
#     4  11  22  38  58  90 117 148 194 242 285 342
#     4  11  24  44  64  83 114 152 195 249 305 354
#     4  10  22  39  61  89 119 152 192 238 294 352
#     4   9  17  32  55  82 116 155 190 227 276 339
#     4  10  22  39  61  89 119 152 192 238 294 352
#     4   9  17  32  55  82 116 155 190 227 276 339
#
# _framework density 22.838671000000001
#
# number of rings (size 3 to 8) (size 9 to 14) (size 15 to 20)
#    0.000    2.000    2.857    0.857    0.000    6.286 
#    0.000    1.429    0.000    0.000    0.000    0.000 
#    0.000    0.000    0.000    0.000    0.000    0.000 
#
# Total GULP energy -312899.153254 kJ/mol
# GULP energy per Si atom -5587.484880 kJ/mol
# Density = 2.278669 g / cm^3
# Si number density = 22.838671 Si / 1000 Ang^3
#
#
#
# Elastic Constant Matrix: (Units=GPa)
#
#
# Indices 1 2 3 4 5 6 
#
# 1 69.5060 -10.4021 10.6384 0.0000 0.0000 0.0000
# 2 -10.4021 84.5308 36.0918 0.0000 0.0000 0.0000
# 3 10.6384 36.0918 121.2575 0.0000 0.0000 0.0000
# 4 0.0000 0.0000 0.0000 -8.5102 0.0000 0.0000
# 5 0.0000 0.0000 0.0000 0.0000 12.7206 0.0000
# 6 0.0000 0.0000 0.0000 0.0000 0.0000 -11.7380
#
#
#
# Elastic Compliance Matrix: (Units=1/GPa)
#
#
# Indices 1 2 3 4 5 6 
#
# 1 0.015134 0.002783 -0.002156 0.000000 0.000000 0.000000
# 2 0.002783 0.014064 -0.004430 0.000000 0.000000 0.000000
# 3 -0.002156 -0.004430 0.009755 0.000000 0.000000 0.000000
# 4 0.000000 0.000000 0.000000 -0.117506 0.000000 0.000000
# 5 0.000000 0.000000 0.000000 0.000000 0.078613 0.000000
# 6 0.000000 0.000000 0.000000 0.000000 0.000000 -0.085193
#
#
# Mechanical properties :
#
#
# Convention : Reuss Voigt Hill
#
# Bulk Modulus (GPa) = 31.90241 38.66117 35.28179
# Shear Modulus (GPa) = -74.53922 14.42555 -30.05683
#
# Velocity S-wave (km/s) = -5.71910 2.51595 -3.63168
# Velocity P-wave (km/s) = 5.44168 5.04031 1.45039
#
# Compressibility (1/GPa) = 0.03134559
#
# Stress axis : x y z
#
# Youngs Moduli (GPa) = 66.07760 71.10339 102.51444
#
# Poissons Ratio (x) = -0.19787 0.22103
# Poissons Ratio (y) = -0.18389 0.45417
# Poissons Ratio (z) = 0.14247 0.31501
#
# Static dielectric constant tensor:
#      x y z
#    x 1.884610 0.000000 0.000000 
#    y 0.000000 1.840320 0.000000 
#    z 0.000000 0.000000 1.861060 
# 
# From -- ./inp_files/69403.got.cif
#   From: 2010.05.17/outbox.cif.g08.bks.cpg/sg63_35_cif.got.tgz:69403.got - 2010.06.03 15:47:04.
