data_PCOD9469389
_publ_section_title
;
Structure prediction by ZEFSAII (Michael W. Deem and Ramdas Pophale) SiO2 
 PCOD9469389
Probable space group: C M C M
;
_chemical_formula_sum "Si O2"
_cell_formula_units_Z 68
_cell_length_a 23.004588
_cell_length_b 17.480518
_cell_length_c 7.371398
_cell_angle_alpha 90.000000
_cell_angle_beta 90.000000
_cell_angle_gamma 90.000000
_cell_volume 2964.275865
_symmetry_space_group_name_H-M "C M C M"
_symmetry_group_IT_number 63
_symmetry_cell_setting 'orthorhombic'
loop_
_space_group_symop_operation_xyz
x,y,z
-x,-y,1/2+z
x,-y,-z
-x,y,1/2-z
-x,-y,-z
x,y,1/2-z
-x,y,z
x,-y,1/2+z
1/2+x,1/2+y,z
1/2-x,1/2-y,1/2+z
1/2+x,1/2-y,-z
1/2-x,1/2+y,1/2-z
1/2-x,1/2-y,-z
1/2+x,1/2+y,1/2-z
1/2-x,1/2+y,z
1/2+x,1/2-y,1/2+z
loop_
_atom_site_type_symbol
_atom_site_label
_atom_site_fract_x
_atom_site_fract_y
_atom_site_fract_z
Si Si1 0.337117 0.586904 0.533794
Si Si2 0.563309 0.300519 0.030011
Si Si3 0.223751 0.335166 0.033456
Si Si4 0.500000 0.073476 0.250000
Si Si5 0.406862 0.871600 0.458813
O O1 0.353387 0.500000 0.500000
O O2 0.335078 0.598082 0.750000
O O3 0.384697 0.646389 0.464504
O O4 0.273207 0.607446 0.464053
O O5 0.566250 0.294548 0.250000
O O6 0.500000 0.332612 0.983797
O O7 0.568869 0.215138 0.958175
O O8 0.218841 0.340770 0.250000
O O9 0.159339 0.358030 0.970265
O O10 0.250000 0.250000 0.000000
O O11 0.448767 0.082123 0.408839
O O12 0.407317 0.900548 0.250000
#
# Coordination Sequence:
#
# PCOD9469389 Si02
#       5
#    16  16  16   4  16
#     4  10  22  38  54  79 119 159 202 249 295 348
#     4  10  18  33  54  78 115 159 199 245 290 336
#     4  10  21  35  58  85 116 152 199 253 302 353
#     4  12  22  36  56  86 128 148 188 256 304 364
#     4  11  21  34  56  88 118 156 197 244 305 360
#
# _framework density 22.939836
#
# number of rings (size 3 to 8) (size 9 to 14) (size 15 to 20)
#    0.000    1.647    4.706    0.353    1.647    2.353 
#    0.000    0.000    0.000    0.000    0.000    0.824 
#    0.000    0.000    0.000    0.000    0.000    0.000 
#
# Total GULP energy -189499.210818 kJ/mol
# GULP energy per Si atom -5573.506201 kJ/mol
# Density = 2.288762 g / cm^3
# Si number density = 22.939836 Si / 1000 Ang^3
#
#
#
# Elastic Constant Matrix: (Units=GPa)
#
#
# Indices 1 2 3 4 5 6 
#
# 1 192.7635 17.7346 45.5102 0.0000 0.0000 0.0000
# 2 17.7346 65.3738 6.1062 0.0000 0.0000 0.0000
# 3 45.5102 6.1062 123.9217 0.0000 0.0000 0.0000
# 4 0.0000 0.0000 0.0000 8.0217 0.0000 0.0000
# 5 0.0000 0.0000 0.0000 0.0000 20.7257 0.0000
# 6 0.0000 0.0000 0.0000 0.0000 0.0000 -22.2089
#
#
#
# Elastic Compliance Matrix: (Units=1/GPa)
#
#
# Indices 1 2 3 4 5 6 
#
# 1 0.005802 -0.001381 -0.002063 0.000000 0.000000 0.000000
# 2 -0.001381 0.015696 -0.000266 0.000000 0.000000 0.000000
# 3 -0.002063 -0.000266 0.008840 0.000000 0.000000 0.000000
# 4 0.000000 0.000000 0.000000 0.124663 0.000000 0.000000
# 5 0.000000 0.000000 0.000000 0.000000 0.048249 0.000000
# 6 0.000000 0.000000 0.000000 0.000000 0.000000 -0.045027
#
#
# Mechanical properties :
#
#
# Convention : Reuss Voigt Hill
#
# Bulk Modulus (GPa) = 43.63362 57.86232 50.74797
# Shear Modulus (GPa) = 28.85462 22.15489 25.50476
#
# Velocity S-wave (km/s) = 3.55045 3.11108 3.33800
# Velocity P-wave (km/s) = 5.98914 6.17927 6.08494
#
# Compressibility (1/GPa) = 0.02291811
#
# Stress axis : x y z
#
# Youngs Moduli (GPa) = 172.36165 63.70969 113.11924
#
# Poissons Ratio (x) = 0.08800 0.23332
# Poissons Ratio (y) = 0.23807 0.03011
# Poissons Ratio (z) = 0.35552 0.01696
#
# Static dielectric constant tensor:
#      x y z
#    x 2.014160 0.000000 0.000000 
#    y 0.000000 1.826160 0.000000 
#    z 0.000000 0.000000 1.881730 
# 
# From -- ./inp_files/9863.got.cif
#   From: 2010.05.17/outbox.cif.g08.bks.cpg/sg63_5_cif.got.tgz:9863.got - 2010.06.03 15:47:04.
