data_PCOD9469451
_publ_section_title
;
Structure prediction by ZEFSAII (Michael W. Deem and Ramdas Pophale) SiO2 
 PCOD9469451
Probable space group: C M C M
;
_chemical_formula_sum "Si O2"
_cell_formula_units_Z 80
_cell_length_a 27.040365
_cell_length_b 10.172935
_cell_length_c 14.889400
_cell_angle_alpha 90.000000
_cell_angle_beta 90.000000
_cell_angle_gamma 90.000000
_cell_volume 4095.774299
_symmetry_space_group_name_H-M "C M C M"
_symmetry_group_IT_number 63
_symmetry_cell_setting 'orthorhombic'
loop_
_space_group_symop_operation_xyz
x,y,z
-x,-y,1/2+z
x,-y,-z
-x,y,1/2-z
-x,-y,-z
x,y,1/2-z
-x,y,z
x,-y,1/2+z
1/2+x,1/2+y,z
1/2-x,1/2-y,1/2+z
1/2+x,1/2-y,-z
1/2-x,1/2+y,1/2-z
1/2-x,1/2-y,-z
1/2+x,1/2+y,1/2-z
1/2-x,1/2+y,z
1/2+x,1/2-y,1/2+z
loop_
_atom_site_type_symbol
_atom_site_label
_atom_site_fract_x
_atom_site_fract_y
_atom_site_fract_z
Si Si1 0.205866 0.225522 0.641075
Si Si2 0.608013 0.645297 0.958431
Si Si3 0.000000 0.145806 0.959424
Si Si4 0.392761 0.896572 0.082351
Si Si5 0.000000 0.397888 0.083599
Si Si6 0.787636 0.478273 0.145172
O O1 0.205922 0.228931 0.750000
O O2 0.152950 0.175909 0.607210
O O3 0.214608 0.374301 0.607012
O O4 0.248469 0.126399 0.608466
O O5 0.553484 0.661713 0.913470
O O6 0.611936 0.500000 0.000000
O O7 0.610386 0.752566 0.038225
O O8 0.000000 0.253861 0.038434
O O9 0.000000 0.000000 0.000000
O O10 0.446442 0.913014 0.129346
O O11 0.343491 0.926382 0.136765
O O12 0.392279 0.000000 0.000000
O O13 0.000000 0.500000 0.000000
O O14 0.775300 0.490709 0.250000
#
# Coordination Sequence:
#
# PCOD9469451 Si02
#       6
#    16  16   8  16   8  16
#     4  10  22  39  54  74 106 141 174 213 265 313
#     4  10  20  34  56  83 105 137 175 216 255 308
#     4   8  16  32  51  75 109 135 166 208 260 305
#     4  10  18  34  54  79 105 133 172 214 255 303
#     4   8  16  28  51  75 103 135 160 203 264 309
#     4  10  22  38  54  74 105 141 174 215 265 312
#
# _framework density 19.532325
#
# number of rings (size 3 to 8) (size 9 to 14) (size 15 to 20)
#    0.000    2.400    2.000    0.000    2.800    1.600 
#    0.000    1.000    0.000    2.400    0.000    8.400 
#    0.000    0.000    0.000    0.000    0.000    0.000 
#
# Total GULP energy -222853.463720 kJ/mol
# GULP energy per Si atom -5571.336593 kJ/mol
# Density = 1.948787 g / cm^3
# Si number density = 19.532325 Si / 1000 Ang^3
#
#
#
# Elastic Constant Matrix: (Units=GPa)
#
#
# Indices 1 2 3 4 5 6 
#
# 1 203.2703 61.9480 16.7743 0.0000 0.0000 0.0000
# 2 61.9480 156.3806 12.6974 0.0000 0.0000 0.0000
# 3 16.7743 12.6974 21.8063 0.0000 0.0000 0.0000
# 4 0.0000 0.0000 0.0000 13.2699 0.0000 0.0000
# 5 0.0000 0.0000 0.0000 0.0000 -265.7878 0.0000
# 6 0.0000 0.0000 0.0000 0.0000 0.0000 38.8981
#
#
#
# Elastic Compliance Matrix: (Units=1/GPa)
#
#
# Indices 1 2 3 4 5 6 
#
# 1 0.005811 -0.002035 -0.003285 0.000000 0.000000 0.000000
# 2 -0.002035 0.007425 -0.002758 0.000000 0.000000 0.000000
# 3 -0.003285 -0.002758 0.049991 0.000000 0.000000 0.000000
# 4 0.000000 0.000000 0.000000 0.075359 0.000000 0.000000
# 5 0.000000 0.000000 0.000000 0.000000 -0.003762 0.000000
# 6 0.000000 0.000000 0.000000 0.000000 0.000000 0.025708
#
#
# Mechanical properties :
#
#
# Convention : Reuss Voigt Hill
#
# Bulk Modulus (GPa) = 21.24451 62.69961 41.97206
# Shear Modulus (GPa) = 25.99061 -23.38813 1.30124
#
# Velocity S-wave (km/s) = 3.65176 -3.46411 0.81710
# Velocity P-wave (km/s) = 5.35543 4.02120 4.73554
#
# Compressibility (1/GPa) = 0.04707099
#
# Stress axis : x y z
#
# Youngs Moduli (GPa) = 172.09136 134.68418 20.00358
#
# Poissons Ratio (x) = 0.27411 0.06571
# Poissons Ratio (y) = 0.35024 0.05517
# Poissons Ratio (z) = 0.56531 0.37143
#
# Static dielectric constant tensor:
#      x y z
#    x 1.730910 0.000000 0.000000 
#    y 0.000000 1.692600 0.000000 
#    z 0.000000 0.000000 1.670540 
# 
# From -- ./inp_files/47927.got.cif
#   From: 2010.05.17/outbox.cif.g08.bks.cpg/sg63_24_cif.got.tgz:47927.got - 2010.06.03 15:47:04.
