data_PCOD9469155
_publ_section_title
;
Structure prediction by ZEFSAII (Michael W. Deem and Ramdas Pophale) SiO2 
 PCOD9469155
Probable space group: C M C M
;
_chemical_formula_sum "Si O2"
_cell_formula_units_Z 96
_cell_length_a 17.847968
_cell_length_b 17.749582
_cell_length_c 18.582945
_cell_angle_alpha 90.000000
_cell_angle_beta 90.000000
_cell_angle_gamma 90.000000
_cell_volume 5886.964950
_symmetry_space_group_name_H-M "C M C M"
_symmetry_group_IT_number 63
_symmetry_cell_setting 'orthorhombic'
loop_
_space_group_symop_operation_xyz
x,y,z
-x,-y,1/2+z
x,-y,-z
-x,y,1/2-z
-x,-y,-z
x,y,1/2-z
-x,y,z
x,-y,1/2+z
1/2+x,1/2+y,z
1/2-x,1/2-y,1/2+z
1/2+x,1/2-y,-z
1/2-x,1/2+y,1/2-z
1/2-x,1/2-y,-z
1/2+x,1/2+y,1/2-z
1/2-x,1/2+y,z
1/2+x,1/2-y,1/2+z
loop_
_atom_site_type_symbol
_atom_site_label
_atom_site_fract_x
_atom_site_fract_y
_atom_site_fract_z
Si Si1 0.785221 0.052450 0.334067
Si Si2 0.807820 0.836120 0.450588
Si Si3 0.324593 0.955189 0.430757
Si Si4 0.087380 0.032593 0.581171
Si Si5 0.087658 0.658464 0.666433
Si Si6 0.201462 0.781324 0.610595
O O1 0.779885 0.035466 0.250000
O O2 0.783942 0.141508 0.348176
O O3 0.718861 0.012110 0.377983
O O4 0.861908 0.018418 0.367001
O O5 0.739348 0.896112 0.457372
O O6 0.876768 0.884019 0.420412
O O7 0.823546 0.802898 0.529329
O O8 0.775332 0.770307 0.400153
O O9 0.384682 0.907684 0.386231
O O10 0.353605 0.000000 0.500000
O O11 0.000000 0.032234 0.599877
O O12 0.095652 0.000000 0.500000
O O13 0.099887 0.637588 0.750000
O O14 0.138424 0.730710 0.647969
O O15 0.000000 0.674350 0.656276
#
# Coordination Sequence:
#
# PCOD9469155 Si02
#       6
#    16  16  16  16  16  16
#     4  11  20  32  53  79 101 127 169 216 259 296
#     4   9  17  32  53  75 100 133 172 212 250 295
#     4  10  18  35  57  76  97 129 175 215 252 291
#     4  10  19  33  51  74 106 140 171 205 255 308
#     4  10  22  36  49  73 110 141 162 197 256 314
#     4  10  18  31  53  76 102 135 167 212 252 300
#
# _framework density 16.307214999999999
#
# number of rings (size 3 to 8) (size 9 to 14) (size 15 to 20)
#    0.000    2.000    3.333    2.000    0.000    2.000 
#    0.000    0.833    0.000    0.000    0.000    0.000 
#    0.000    0.000    0.000    0.000    0.000    0.000 
#
# Total GULP energy -267754.831904 kJ/mol
# GULP energy per Si atom -5578.225665 kJ/mol
# Density = 1.627010 g / cm^3
# Si number density = 16.307215 Si / 1000 Ang^3
#
#
#
# Elastic Constant Matrix: (Units=GPa)
#
#
# Indices 1 2 3 4 5 6 
#
# 1 53.4638 28.6090 31.0205 0.0000 0.0000 0.0000
# 2 28.6090 96.7527 34.7627 0.0000 0.0000 0.0000
# 3 31.0205 34.7627 95.0830 0.0000 0.0000 0.0000
# 4 0.0000 0.0000 0.0000 14.3994 0.0000 0.0000
# 5 0.0000 0.0000 0.0000 0.0000 20.6533 0.0000
# 6 0.0000 0.0000 0.0000 0.0000 0.0000 11.2419
#
#
#
# Elastic Compliance Matrix: (Units=1/GPa)
#
#
# Indices 1 2 3 4 5 6 
#
# 1 0.025128 -0.005163 -0.006310 0.000000 0.000000 0.000000
# 2 -0.005163 0.012959 -0.003054 0.000000 0.000000 0.000000
# 3 -0.006310 -0.003054 0.013692 0.000000 0.000000 0.000000
# 4 0.000000 0.000000 0.000000 0.069447 0.000000 0.000000
# 5 0.000000 0.000000 0.000000 0.000000 0.048418 0.000000
# 6 0.000000 0.000000 0.000000 0.000000 0.000000 0.088953
#
#
# Mechanical properties :
#
#
# Convention : Reuss Voigt Hill
#
# Bulk Modulus (GPa) = 44.00232 48.23155 46.11693
# Shear Modulus (GPa) = 16.93603 19.31940 18.12771
#
# Velocity S-wave (km/s) = 3.22617 3.44570 3.33774
# Velocity P-wave (km/s) = 6.39683 6.74326 6.57233
#
# Compressibility (1/GPa) = 0.02272607
#
# Stress axis : x y z
#
# Youngs Moduli (GPa) = 39.79560 77.16393 73.03377
#
# Poissons Ratio (x) = 0.39839 0.46088
# Poissons Ratio (y) = 0.20546 0.22302
# Poissons Ratio (z) = 0.25113 0.23563
#
# Static dielectric constant tensor:
#      x y z
#    x 1.520710 0.000000 0.000000 
#    y 0.000000 1.552470 0.000000 
#    z 0.000000 0.000000 1.538160 
# 
# From -- ./inp_files/45739.got.cif
#   From: 2010.05.17/outbox.cif.g08.bks.cpg/sg63_23_cif.got.tgz:45739.got - 2010.06.03 15:47:04.
