data_PCOD9469158
_publ_section_title
;
Structure prediction by ZEFSAII (Michael W. Deem and Ramdas Pophale) SiO2 
 PCOD9469158
Probable space group: C M C M
;
_chemical_formula_sum "Si O2"
_cell_formula_units_Z 72
_cell_length_a 10.061045
_cell_length_b 23.170931
_cell_length_c 17.626767
_cell_angle_alpha 90.000000
_cell_angle_beta 90.000000
_cell_angle_gamma 90.000000
_cell_volume 4109.218543
_symmetry_space_group_name_H-M "C M C M"
_symmetry_group_IT_number 63
_symmetry_cell_setting 'orthorhombic'
loop_
_space_group_symop_operation_xyz
x,y,z
-x,-y,1/2+z
x,-y,-z
-x,y,1/2-z
-x,-y,-z
x,y,1/2-z
-x,y,z
x,-y,1/2+z
1/2+x,1/2+y,z
1/2-x,1/2-y,1/2+z
1/2+x,1/2-y,-z
1/2-x,1/2+y,1/2-z
1/2-x,1/2-y,-z
1/2+x,1/2+y,1/2-z
1/2-x,1/2+y,z
1/2+x,1/2-y,1/2+z
loop_
_atom_site_type_symbol
_atom_site_label
_atom_site_fract_x
_atom_site_fract_y
_atom_site_fract_z
Si Si1 0.000000 0.038372 0.833589
Si Si2 0.000000 0.222329 0.438920
Si Si3 0.500000 0.179945 0.435522
Si Si4 0.500000 0.405672 0.494640
Si Si5 0.000000 0.547967 0.064248
Si Si6 0.204971 0.055581 0.117400
Si Si7 0.765625 0.184509 0.337211
O O1 0.000000 0.080322 0.906032
O O2 0.000000 0.065225 0.750000
O O3 0.873869 0.995744 0.842856
O O4 0.872719 0.220508 0.384373
O O5 0.000000 0.275075 0.496387
O O6 0.000000 0.162143 0.486162
O O7 0.500000 0.114055 0.465225
O O8 0.628122 0.187567 0.382473
O O9 0.371318 0.433486 0.536922
O O10 0.860904 0.542723 0.108989
O O11 0.000000 0.500000 0.000000
O O12 0.190048 0.117131 0.159035
O O13 0.754310 0.202052 0.250000
#
# Coordination Sequence:
#
# PCOD9469158 Si02
#       7
#     8   8   8   8   8  16  16
#     4  11  19  30  47  71 102 134 164 204 252 303
#     4  10  20  35  54  74 101 136 174 210 249 302
#     4  10  21  34  51  76 107 137 164 205 257 308
#     4   9  18  32  50  70  97 132 170 205 245 301
#     4  10  18  31  53  77  98 127 164 204 246 300
#     4   9  18  31  51  75 100 128 165 210 255 298
#     4  10  19  33  53  79 102 129 170 217 255 290
#
# _framework density 17.52158
#
# number of rings (size 3 to 8) (size 9 to 14) (size 15 to 20)
#    0.000    2.222    0.000    5.333    0.000    0.000 
#    0.000    2.778    0.000    0.000    0.000   14.000 
#    0.000    0.000    0.000    0.000    0.000    0.000 
#
# Total GULP energy -200850.370906 kJ/mol
# GULP energy per Si atom -5579.176970 kJ/mol
# Density = 1.748170 g / cm^3
# Si number density = 17.521580 Si / 1000 Ang^3
#
#
#
# Elastic Constant Matrix: (Units=GPa)
#
#
# Indices 1 2 3 4 5 6 
#
# 1 122.2909 33.5743 40.6158 0.0000 0.0000 0.0000
# 2 33.5743 63.8578 52.6191 0.0000 0.0000 0.0000
# 3 40.6158 52.6191 145.9396 0.0000 0.0000 0.0000
# 4 0.0000 0.0000 0.0000 21.9839 0.0000 0.0000
# 5 0.0000 0.0000 0.0000 0.0000 13.8325 0.0000
# 6 0.0000 0.0000 0.0000 0.0000 0.0000 -159.8710
#
#
#
# Elastic Compliance Matrix: (Units=1/GPa)
#
#
# Indices 1 2 3 4 5 6 
#
# 1 0.009708 -0.004094 -0.001226 0.000000 0.000000 0.000000
# 2 -0.004094 0.024006 -0.007516 0.000000 0.000000 0.000000
# 3 -0.001226 -0.007516 0.009903 0.000000 0.000000 0.000000
# 4 0.000000 0.000000 0.000000 0.045488 0.000000 0.000000
# 5 0.000000 0.000000 0.000000 0.000000 0.072293 0.000000
# 6 0.000000 0.000000 0.000000 0.000000 0.000000 -0.006255
#
#
# Mechanical properties :
#
#
# Convention : Reuss Voigt Hill
#
# Bulk Modulus (GPa) = 55.72480 65.07852 60.40166
# Shear Modulus (GPa) = 26.76707 -11.12563 7.82072
#
# Velocity S-wave (km/s) = 3.91277 -2.52259 2.11499
# Velocity P-wave (km/s) = 7.23088 5.36078 6.36489
#
# Compressibility (1/GPa) = 0.01794533
#
# Stress axis : x y z
#
# Youngs Moduli (GPa) = 103.00372 41.65710 100.97849
#
# Poissons Ratio (x) = 0.17056 0.12376
# Poissons Ratio (y) = 0.42174 0.75893
# Poissons Ratio (z) = 0.12625 0.31309
#
# Static dielectric constant tensor:
#      x y z
#    x 1.664600 0.000000 0.000000 
#    y 0.000000 1.586920 0.000000 
#    z 0.000000 0.000000 1.584910 
# 
# From -- ./inp_files/40312.got.cif
#   From: 2010.05.17/outbox.cif.g08.bks.cpg/sg63_21_cif.got.tgz:40312.got - 2010.06.03 15:47:04.
