data_PCOD9469152
_publ_section_title
;
Structure prediction by ZEFSAII (Michael W. Deem and Ramdas Pophale) SiO2 
 PCOD9469152
Probable space group: C M C M
;
_chemical_formula_sum "Si O2"
_cell_formula_units_Z 80
_cell_length_a 7.346512
_cell_length_b 20.760884
_cell_length_c 23.594813
_cell_angle_alpha 90.000000
_cell_angle_beta 90.000000
_cell_angle_gamma 90.000000
_cell_volume 3598.682847
_symmetry_space_group_name_H-M "C M C M"
_symmetry_group_IT_number 63
_symmetry_cell_setting 'orthorhombic'
loop_
_space_group_symop_operation_xyz
x,y,z
-x,-y,1/2+z
x,-y,-z
-x,y,1/2-z
-x,-y,-z
x,y,1/2-z
-x,y,z
x,-y,1/2+z
1/2+x,1/2+y,z
1/2-x,1/2-y,1/2+z
1/2+x,1/2-y,-z
1/2-x,1/2+y,1/2-z
1/2-x,1/2-y,-z
1/2+x,1/2+y,1/2-z
1/2-x,1/2+y,z
1/2+x,1/2-y,1/2+z
loop_
_atom_site_type_symbol
_atom_site_label
_atom_site_fract_x
_atom_site_fract_y
_atom_site_fract_z
Si Si1 0.210417 0.760857 0.137699
Si Si2 0.722711 0.382428 0.071059
Si Si3 0.777459 0.983301 0.625011
Si Si4 0.720032 0.643857 0.057213
Si Si5 0.289986 0.461845 0.750000
Si Si6 0.721775 0.189546 0.250000
O O1 0.286885 0.827822 0.114742
O O2 0.218327 0.709243 0.086936
O O3 0.285751 0.726586 0.193692
O O4 0.000000 0.773989 0.151541
O O5 0.500000 0.381413 0.070744
O O6 0.777268 0.453522 0.090481
O O7 0.780000 0.365046 0.007422
O O8 0.720526 0.917447 0.594469
O O9 0.712847 0.984633 0.689972
O O10 0.000000 0.982074 0.625778
O O11 0.500000 0.644764 0.057533
O O12 0.500000 0.483179 0.750000
O O13 0.284419 0.384184 0.750000
O O14 0.500000 0.186659 0.250000
#
# Coordination Sequence:
#
# PCOD9469152 Si02
#       6
#    16  16  16  16   8   8
#     4  10  20  33  50  72  99 132 166 199 241 290
#     4   9  18  31  48  74 103 129 160 201 246 290
#     4   9  17  29  49  76 100 124 160 204 246 284
#     4  10  18  31  53  75  99 130 163 201 243 287
#     4  10  18  31  53  77  95 121 164 210 244 282
#     4  10  20  33  49  69  97 131 162 198 242 292
#
# _framework density 22.230354999999999
#
# number of rings (size 3 to 8) (size 9 to 14) (size 15 to 20)
#    0.000    2.400    2.000    1.200    0.000    3.200 
#    0.000    4.000    0.000    6.000    0.000    1.400 
#    0.000    0.000    0.000    0.000    0.000    0.000 
#
# Total GULP energy -223553.307320 kJ/mol
# GULP energy per Si atom -5588.832683 kJ/mol
# Density = 2.217976 g / cm^3
# Si number density = 22.230355 Si / 1000 Ang^3
#
#
#
# Elastic Constant Matrix: (Units=GPa)
#
#
# Indices 1 2 3 4 5 6 
#
# 1 82.6103 -13.6930 -6.1384 0.0000 0.0000 0.0000
# 2 -13.6930 54.0045 -29.9171 0.0000 0.0000 0.0000
# 3 -6.1384 -29.9171 73.3099 0.0000 0.0000 0.0000
# 4 0.0000 0.0000 0.0000 -2.0971 0.0000 0.0000
# 5 0.0000 0.0000 0.0000 0.0000 -2.5667 0.0000
# 6 0.0000 0.0000 0.0000 0.0000 0.0000 4.4030
#
#
#
# Elastic Compliance Matrix: (Units=1/GPa)
#
#
# Indices 1 2 3 4 5 6 
#
# 1 0.013189 0.005112 0.003190 0.000000 0.000000 0.000000
# 2 0.005112 0.025907 0.011000 0.000000 0.000000 0.000000
# 3 0.003190 0.011000 0.018397 0.000000 0.000000 0.000000
# 4 0.000000 0.000000 0.000000 -0.476843 0.000000 0.000000
# 5 0.000000 0.000000 0.000000 0.000000 -0.389610 0.000000
# 6 0.000000 0.000000 0.000000 0.000000 0.000000 0.227115
#
#
# Mechanical properties :
#
#
# Convention : Reuss Voigt Hill
#
# Bulk Modulus (GPa) = 10.40606 12.26976 11.33791
# Shear Modulus (GPa) = -8.49739 17.25940 4.38100
#
# Velocity S-wave (km/s) = -1.95722 2.78940 1.40535
# Velocity P-wave (km/s) = 0.64533 3.98819 2.78291
#
# Compressibility (1/GPa) = 0.09609783
#
# Stress axis : x y z
#
# Youngs Moduli (GPa) = 75.81877 38.59972 54.35669
#
# Poissons Ratio (x) = -0.19730 -0.17342
# Poissons Ratio (y) = -0.38755 -0.59794
# Poissons Ratio (z) = -0.24189 -0.42461
#
# Static dielectric constant tensor:
#      x y z
#    x 1.865480 0.000000 0.000000 
#    y 0.000000 1.741450 0.000000 
#    z 0.000000 0.000000 1.788730 
# 
# From -- ./inp_files/52432.got.cif
#   From: 2010.05.17/outbox.cif.g08.bks.cpg/sg63_27_cif.got.tgz:52432.got - 2010.06.03 15:47:04.
