data_PCOD9469658
_publ_section_title
;
Structure prediction by ZEFSAII (Michael W. Deem and Ramdas Pophale) SiO2 
 PCOD9469658
Probable space group: C M C M
;
_chemical_formula_sum "Si O2"
_cell_formula_units_Z 80
_cell_length_a 18.889870
_cell_length_b 27.748042
_cell_length_c 7.426084
_cell_angle_alpha 90.000000
_cell_angle_beta 90.000000
_cell_angle_gamma 90.000000
_cell_volume 3892.433214
_symmetry_space_group_name_H-M "C M C M"
_symmetry_group_IT_number 63
_symmetry_cell_setting 'orthorhombic'
loop_
_space_group_symop_operation_xyz
x,y,z
-x,-y,1/2+z
x,-y,-z
-x,y,1/2-z
-x,-y,-z
x,y,1/2-z
-x,y,z
x,-y,1/2+z
1/2+x,1/2+y,z
1/2-x,1/2-y,1/2+z
1/2+x,1/2-y,-z
1/2-x,1/2+y,1/2-z
1/2-x,1/2-y,-z
1/2+x,1/2+y,1/2-z
1/2-x,1/2+y,z
1/2+x,1/2-y,1/2+z
loop_
_atom_site_type_symbol
_atom_site_label
_atom_site_fract_x
_atom_site_fract_y
_atom_site_fract_z
Si Si1 0.281530 0.344759 0.529732
Si Si2 0.576912 0.917343 0.530703
Si Si3 0.728650 0.052591 0.035562
Si Si4 0.871984 0.688292 0.467011
Si Si5 0.422491 0.706008 0.460024
O O1 0.281999 0.343409 0.750000
O O2 0.270573 0.400248 0.472110
O O3 0.210055 0.316628 0.474977
O O4 0.353772 0.320936 0.463645
O O5 0.576471 0.919499 0.750000
O O6 0.500000 0.934416 0.467790
O O7 0.647564 0.944198 0.466389
O O8 0.588905 0.861185 0.481329
O O9 0.724371 0.058077 0.250000
O O10 0.759108 0.000000 0.000000
O O11 0.872914 0.689687 0.250000
O O12 0.907570 0.736975 0.531529
O O13 0.425402 0.692339 0.250000
O O14 0.500000 0.695777 0.538985
#
# Coordination Sequence:
#
# PCOD9469658 Si02
#       5
#    16  16  16  16  16
#     4   8  16  31  47  63  86 117 148 174 209 261
#     4   8  14  25  41  61  86 115 142 166 200 251
#     4   9  17  30  47  63  80 106 141 179 215 253
#     4   9  16  28  47  66  86 117 152 178 201 242
#     4  10  19  29  43  65  92 118 143 175 215 256
#
# _framework density 20.552697999999999
#
# number of rings (size 3 to 8) (size 9 to 14) (size 15 to 20)
#    0.000    3.200    0.000    3.600    0.000    1.600 
#    0.000    5.000    0.000    1.800    0.000    0.000 
#    0.000    0.000    0.000    0.000    0.000    0.000 
#
# Total GULP energy -223156.644432 kJ/mol
# GULP energy per Si atom -5578.916111 kJ/mol
# Density = 2.050592 g / cm^3
# Si number density = 20.552698 Si / 1000 Ang^3
#
#
#
# Elastic Constant Matrix: (Units=GPa)
#
#
# Indices 1 2 3 4 5 6 
#
# 1 99.1832 22.3676 2.6113 0.0000 0.0000 0.0000
# 2 22.3676 61.5123 -9.1620 0.0000 0.0000 0.0000
# 3 2.6113 -9.1620 63.0922 0.0000 0.0000 0.0000
# 4 0.0000 0.0000 0.0000 17.2071 0.0000 0.0000
# 5 0.0000 0.0000 0.0000 0.0000 -0.6646 0.0000
# 6 0.0000 0.0000 0.0000 0.0000 0.0000 1.7841
#
#
#
# Elastic Compliance Matrix: (Units=1/GPa)
#
#
# Indices 1 2 3 4 5 6 
#
# 1 0.011052 -0.004177 -0.001064 0.000000 0.000000 0.000000
# 2 -0.004177 0.018195 0.002815 0.000000 0.000000 0.000000
# 3 -0.001064 0.002815 0.016303 0.000000 0.000000 0.000000
# 4 0.000000 0.000000 0.000000 0.058115 0.000000 0.000000
# 5 0.000000 0.000000 0.000000 0.000000 -1.504750 0.000000
# 6 0.000000 0.000000 0.000000 0.000000 0.000000 0.560491
#
#
# Mechanical properties :
#
#
# Convention : Reuss Voigt Hill
#
# Bulk Modulus (GPa) = 24.57148 28.38015 26.47582
# Shear Modulus (GPa) = -6.08143 17.53006 5.72432
#
# Velocity S-wave (km/s) = -1.72202 2.92367 1.67070
# Velocity P-wave (km/s) = 2.83328 5.02350 4.07818
#
# Compressibility (1/GPa) = 0.04069758
#
# Stress axis : x y z
#
# Youngs Moduli (GPa) = 90.47759 54.95934 61.33966
#
# Poissons Ratio (x) = 0.22959 0.06527
# Poissons Ratio (y) = 0.37797 -0.17268
# Poissons Ratio (z) = 0.09628 -0.15472
#
# Static dielectric constant tensor:
#      x y z
#    x 1.744870 0.000000 0.000000 
#    y 0.000000 1.714540 0.000000 
#    z 0.000000 0.000000 1.792430 
# 
# From -- ./inp_files/6367.got.cif
#   From: 2010.05.17/outbox.cif.g08.bks.cpg/sg63_4_cif.got.tgz:6367.got - 2010.06.03 15:47:04.
