data_PCOD9469540
_publ_section_title
;
Structure prediction by ZEFSAII (Michael W. Deem and Ramdas Pophale) SiO2 
 PCOD9469540
Probable space group: C M C M
;
_chemical_formula_sum "Si O2"
_cell_formula_units_Z 84
_cell_length_a 32.220554
_cell_length_b 7.349098
_cell_length_c 15.591854
_cell_angle_alpha 90.000000
_cell_angle_beta 90.000000
_cell_angle_gamma 90.000000
_cell_volume 3692.026432
_symmetry_space_group_name_H-M "C M C M"
_symmetry_group_IT_number 63
_symmetry_cell_setting 'orthorhombic'
loop_
_space_group_symop_operation_xyz
x,y,z
-x,-y,1/2+z
x,-y,-z
-x,y,1/2-z
-x,-y,-z
x,y,1/2-z
-x,y,z
x,-y,1/2+z
1/2+x,1/2+y,z
1/2-x,1/2-y,1/2+z
1/2+x,1/2-y,-z
1/2-x,1/2+y,1/2-z
1/2-x,1/2-y,-z
1/2+x,1/2+y,1/2-z
1/2-x,1/2+y,z
1/2+x,1/2-y,1/2+z
loop_
_atom_site_type_symbol
_atom_site_label
_atom_site_fract_x
_atom_site_fract_y
_atom_site_fract_z
Si Si1 0.954529 0.268858 0.908855
Si Si2 0.152423 0.764570 0.596179
Si Si3 0.305488 0.737102 0.750000
Si Si4 0.291206 0.304667 0.750000
Si Si5 0.139658 0.197510 0.596949
Si Si6 0.500000 0.656768 0.250000
Si Si7 0.440616 0.190988 0.610363
O O1 0.909295 0.202652 0.879363
O O2 0.955025 0.482021 0.884080
O O3 0.000000 0.195037 0.880961
O O4 0.950308 0.251742 0.012224
O O5 0.188825 0.720288 0.663268
O O6 0.151175 0.715920 0.495159
O O7 0.108154 0.694431 0.628649
O O8 0.150093 0.984251 0.593639
O O9 0.303506 0.516899 0.750000
O O10 0.258252 0.798731 0.750000
O O11 0.331938 0.790807 0.832511
O O12 0.535730 0.682140 0.175510
#
# Coordination Sequence:
#
# PCOD9469540 Si02
#       7
#    16  16   8   8  16   4  16
#     4  10  18  36  50  75 106 148 180 226 257 315
#     4   9  19  38  56  81 105 150 171 223 265 329
#     4  10  22  39  57  83 107 142 169 233 264 331
#     4  10  21  38  61  80 114 131 180 214 278 329
#     4   9  20  37  58  76 113 141 182 217 277 307
#     4  12  18  28  46  76 100 140 174 226 256 314
#     4  10  19  31  52  73 109 137 183 218 270 298
#
# _framework density 22.751733999999999
#
# number of rings (size 3 to 8) (size 9 to 14) (size 15 to 20)
#    0.000    2.286    1.905    1.143    0.000    3.048 
#    1.714    1.905    0.000    0.000    0.000    0.000 
#    0.000    0.000    0.000    0.000    0.000    0.000 
#
# Total GULP energy -234017.514365 kJ/mol
# GULP energy per Si atom -5571.845580 kJ/mol
# Density = 2.269995 g / cm^3
# Si number density = 22.751734 Si / 1000 Ang^3
#
#
#
# Elastic Constant Matrix: (Units=GPa)
#
#
# Indices 1 2 3 4 5 6 
#
# 1 206.8928 -1.9940 106.7547 0.0000 0.0000 0.0000
# 2 -1.9940 50.2693 15.1785 0.0000 0.0000 0.0000
# 3 106.7547 15.1785 87.0679 0.0000 0.0000 0.0000
# 4 0.0000 0.0000 0.0000 -6.8418 0.0000 0.0000
# 5 0.0000 0.0000 0.0000 0.0000 43.8138 0.0000
# 6 0.0000 0.0000 0.0000 0.0000 0.0000 33.2158
#
#
#
# Elastic Compliance Matrix: (Units=1/GPa)
#
#
# Indices 1 2 3 4 5 6 
#
# 1 0.014906 0.006449 -0.019401 0.000000 0.000000 0.000000
# 2 0.006449 0.023788 -0.012055 0.000000 0.000000 0.000000
# 3 -0.019401 -0.012055 0.037375 0.000000 0.000000 0.000000
# 4 0.000000 0.000000 0.000000 -0.146160 0.000000 0.000000
# 5 0.000000 0.000000 0.000000 0.000000 0.022824 0.000000
# 6 0.000000 0.000000 0.000000 0.000000 0.000000 0.030106
#
#
# Mechanical properties :
#
#
# Convention : Reuss Voigt Hill
#
# Bulk Modulus (GPa) = 38.37790 64.90095 51.63943
# Shear Modulus (GPa) = 120.37137 28.99029 74.68083
#
# Velocity S-wave (km/s) = 7.28157 3.57347 5.73546
# Velocity P-wave (km/s) = 9.35948 6.75380 8.16130
#
# Compressibility (1/GPa) = 0.02605666
#
# Stress axis : x y z
#
# Youngs Moduli (GPa) = 67.08536 42.03713 26.75609
#
# Poissons Ratio (x) = -0.27111 0.51910
# Poissons Ratio (y) = -0.43266 0.32254
# Poissons Ratio (z) = 1.30153 0.50674
#
# Static dielectric constant tensor:
#      x y z
#    x 1.821190 0.000000 0.000000 
#    y 0.000000 1.910620 0.000000 
#    z 0.000000 0.000000 1.891900 
# 
# From -- ./inp_files/36630.got.cif
#   From: 2010.05.17/outbox.cif.g08.bks.cpg/sg63_19_cif.got.tgz:36630.got - 2010.06.03 15:47:04.
