data_PCOD9469951
_publ_section_title
;
Structure prediction by ZEFSAII (Michael W. Deem and Ramdas Pophale) SiO2 
 PCOD9469951
Probable space group: C M C M
;
_chemical_formula_sum "Si O2"
_cell_formula_units_Z 80
_cell_length_a 9.371968
_cell_length_b 14.098831
_cell_length_c 26.543555
_cell_angle_alpha 90.000000
_cell_angle_beta 90.000000
_cell_angle_gamma 90.000000
_cell_volume 3507.300601
_symmetry_space_group_name_H-M "C M C M"
_symmetry_group_IT_number 63
_symmetry_cell_setting 'orthorhombic'
loop_
_space_group_symop_operation_xyz
x,y,z
-x,-y,1/2+z
x,-y,-z
-x,y,1/2-z
-x,-y,-z
x,y,1/2-z
-x,y,z
x,-y,1/2+z
1/2+x,1/2+y,z
1/2-x,1/2-y,1/2+z
1/2+x,1/2-y,-z
1/2-x,1/2+y,1/2-z
1/2-x,1/2-y,-z
1/2+x,1/2+y,1/2-z
1/2-x,1/2+y,z
1/2+x,1/2-y,1/2+z
loop_
_atom_site_type_symbol
_atom_site_label
_atom_site_fract_x
_atom_site_fract_y
_atom_site_fract_z
Si Si1 0.838454 0.478241 0.250000
Si Si2 0.336505 0.751205 0.649827
Si Si3 0.161696 0.257782 0.448346
Si Si4 0.660692 0.016960 0.943933
Si Si5 0.161418 0.019653 0.848199
Si Si6 0.663352 0.252846 0.750000
O O1 0.754130 0.506312 0.200141
O O2 0.843401 0.362777 0.250000
O O3 0.000000 0.513599 0.250000
O O4 0.500000 0.785407 0.650392
O O5 0.252678 0.778357 0.599085
O O6 0.343098 0.635352 0.650609
O O7 0.249097 0.779015 0.699616
O O8 0.250000 0.250000 0.500000
O O9 0.146980 0.370093 0.438822
O O10 0.000000 0.218449 0.452134
O O11 0.500000 0.975315 0.941160
O O12 0.762346 0.986839 0.899062
O O13 0.718270 0.000000 0.000000
O O14 0.000000 0.985044 0.844334
O O15 0.500000 0.287413 0.750000
#
# Coordination Sequence:
#
# PCOD9469951 Si02
#       6
#     8  16  16  16  16   8
#     4   9  15  23  37  57  84 117 148 179 220 269
#     4   9  16  26  40  60  87 117 148 183 224 268
#     4  10  19  31  47  67  92 121 153 189 227 268
#     4   9  18  32  48  66  90 121 155 188 223 267
#     4   9  16  25  39  61  88 115 145 184 227 267
#     4   9  15  23  37  59  86 115 146 181 224 269
#
# _framework density 22.809564999999999
#
# number of rings (size 3 to 8) (size 9 to 14) (size 15 to 20)
#    0.000    2.800    0.000    2.400    0.000    8.400 
#    0.000    0.000    0.000    0.000    0.000    1.400 
#    0.000    3.200    0.000    0.000    0.000    0.000 
#
# Total GULP energy -223657.870507 kJ/mol
# GULP energy per Si atom -5591.446763 kJ/mol
# Density = 2.275765 g / cm^3
# Si number density = 22.809565 Si / 1000 Ang^3
#
#
#
# Elastic Constant Matrix: (Units=GPa)
#
#
# Indices 1 2 3 4 5 6 
#
# 1 257.5955 7.8361 180.0925 0.0000 0.0000 0.0000
# 2 7.8361 71.1007 -3.2617 0.0000 0.0000 0.0000
# 3 180.0925 -3.2617 270.4803 0.0000 0.0000 0.0000
# 4 0.0000 0.0000 0.0000 14.3484 0.0000 0.0000
# 5 0.0000 0.0000 0.0000 0.0000 70.7585 0.0000
# 6 0.0000 0.0000 0.0000 0.0000 0.0000 1.7177
#
#
#
# Elastic Compliance Matrix: (Units=1/GPa)
#
#
# Indices 1 2 3 4 5 6 
#
# 1 0.007338 -0.001033 -0.004898 0.000000 0.000000 0.000000
# 2 -0.001033 0.014218 0.000860 0.000000 0.000000 0.000000
# 3 -0.004898 0.000860 0.006969 0.000000 0.000000 0.000000
# 4 0.000000 0.000000 0.000000 0.069694 0.000000 0.000000
# 5 0.000000 0.000000 0.000000 0.000000 0.014133 0.000000
# 6 0.000000 0.000000 0.000000 0.000000 0.000000 0.582171
#
#
# Mechanical properties :
#
#
# Convention : Reuss Voigt Hill
#
# Bulk Modulus (GPa) = 54.40572 107.61228 81.00900
# Shear Modulus (GPa) = 7.03439 44.99890 26.01665
#
# Velocity S-wave (km/s) = 1.75803 4.44645 3.38094
# Velocity P-wave (km/s) = 5.29385 8.58150 7.12976
#
# Compressibility (1/GPa) = 0.01838042
#
# Stress axis : x y z
#
# Youngs Moduli (GPa) = 136.27596 70.33391 143.49434
#
# Poissons Ratio (x) = 0.07269 0.70288
# Poissons Ratio (y) = 0.14083 -0.12334
# Poissons Ratio (z) = 0.66752 -0.06046
#
# Static dielectric constant tensor:
#      x y z
#    x 1.806510 0.000000 0.000000 
#    y 0.000000 1.946620 0.000000 
#    z 0.000000 0.000000 1.782240 
# 
# From -- ./inp_files/50963.got.cif
#   From: 2010.05.17/outbox.cif.g08.bks.cpg/sg63_26_cif.got.tgz:50963.got - 2010.06.03 15:47:04.
