data_PCOD9469854
_publ_section_title
;
Structure prediction by ZEFSAII (Michael W. Deem and Ramdas Pophale) SiO2 
 PCOD9469854
Probable space group: C M C M
;
_chemical_formula_sum "Si O2"
_cell_formula_units_Z 104
_cell_length_a 7.673553
_cell_length_b 28.126747
_cell_length_c 30.780012
_cell_angle_alpha 90.000000
_cell_angle_beta 90.000000
_cell_angle_gamma 90.000000
_cell_volume 6643.314130
_symmetry_space_group_name_H-M "C M C M"
_symmetry_group_IT_number 63
_symmetry_cell_setting 'orthorhombic'
loop_
_space_group_symop_operation_xyz
x,y,z
-x,-y,1/2+z
x,-y,-z
-x,y,1/2-z
-x,-y,-z
x,y,1/2-z
-x,y,z
x,-y,1/2+z
1/2+x,1/2+y,z
1/2-x,1/2-y,1/2+z
1/2+x,1/2-y,-z
1/2-x,1/2+y,1/2-z
1/2-x,1/2-y,-z
1/2+x,1/2+y,1/2-z
1/2-x,1/2+y,z
1/2+x,1/2-y,1/2+z
loop_
_atom_site_type_symbol
_atom_site_label
_atom_site_fract_x
_atom_site_fract_y
_atom_site_fract_z
Si Si1 0.000000 0.407941 0.700004
Si Si2 0.000000 0.533671 0.543248
Si Si3 0.801736 0.213631 0.961734
Si Si4 0.202965 0.108912 0.526933
Si Si5 0.000000 0.453272 0.887104
Si Si6 0.206975 0.171927 0.200152
Si Si7 0.299830 0.613582 0.077145
Si Si8 0.291562 0.282817 0.887675
O O1 0.168507 0.373589 0.693473
O O2 0.000000 0.423703 0.750000
O O3 0.000000 0.449787 0.664960
O O4 0.000000 0.500000 0.500000
O O5 0.170157 0.567121 0.541968
O O6 0.000000 0.501952 0.586526
O O7 0.721632 0.161047 0.960429
O O8 0.786485 0.240784 0.916166
O O9 0.000000 0.202464 0.972428
O O10 0.750000 0.250000 0.000000
O O11 0.204153 0.108791 0.474577
O O12 0.000000 0.102400 0.541131
O O13 0.168833 0.423828 0.902588
O O14 0.233570 0.187859 0.250000
O O15 0.252151 0.210308 0.163028
O O16 0.000000 0.160624 0.195022
O O17 0.500000 0.607312 0.091943
O O18 0.244119 0.666832 0.090271
O O19 0.500000 0.277671 0.891417
#
# Coordination Sequence:
#
# PCOD9469854 Si02
#       8
#     8   8  16  16   8  16  16  16
#     4  10  20  32  52  76 104 134 166 212 261 306
#     4  12  24  36  54  76  96 138 178 214 267 300
#     4  11  22  31  49  73 100 140 176 209 254 295
#     4  10  22  38  49  70 106 136 174 217 249 296
#     4  12  22  34  52  78  98 138 174 208 261 306
#     4   9  18  32  49  72 105 139 165 201 252 310
#     4  10  19  31  49  72 105 132 169 212 243 299
#     4  10  19  30  47  75 102 138 171 199 250 302
#
# _framework density 15.654837000000001
#
# number of rings (size 3 to 8) (size 9 to 14) (size 15 to 20)
#    0.000    1.692    4.615    0.462    4.308    0.923 
#    0.000    0.000    0.000    0.000    0.000    1.077 
#    0.000    1.231    0.000    0.000    0.000    0.000 
#
# Total GULP energy -289884.249256 kJ/mol
# GULP energy per Si atom -5574.697101 kJ/mol
# Density = 1.561921 g / cm^3
# Si number density = 15.654837 Si / 1000 Ang^3
#
#
#
# Elastic Constant Matrix: (Units=GPa)
#
#
# Indices 1 2 3 4 5 6 
#
# 1 64.5974 41.2681 22.2805 0.0000 0.0000 0.0000
# 2 41.2681 100.7421 47.1439 0.0000 0.0000 0.0000
# 3 22.2805 47.1439 100.9175 0.0000 0.0000 0.0000
# 4 0.0000 0.0000 0.0000 18.3198 0.0000 0.0000
# 5 0.0000 0.0000 0.0000 0.0000 14.9987 0.0000
# 6 0.0000 0.0000 0.0000 0.0000 0.0000 23.1959
#
#
#
# Elastic Compliance Matrix: (Units=1/GPa)
#
#
# Indices 1 2 3 4 5 6 
#
# 1 0.021017 -0.008239 -0.000791 0.000000 0.000000 0.000000
# 2 -0.008239 0.015933 -0.005624 0.000000 0.000000 0.000000
# 3 -0.000791 -0.005624 0.012711 0.000000 0.000000 0.000000
# 4 0.000000 0.000000 0.000000 0.054586 0.000000 0.000000
# 5 0.000000 0.000000 0.000000 0.000000 0.066673 0.000000
# 6 0.000000 0.000000 0.000000 0.000000 0.000000 0.043111
#
#
# Mechanical properties :
#
#
# Convention : Reuss Voigt Hill
#
# Bulk Modulus (GPa) = 49.13452 54.18245 51.65848
# Shear Modulus (GPa) = 19.99005 21.67383 20.83194
#
# Velocity S-wave (km/s) = 3.57728 3.72490 3.65184
# Velocity P-wave (km/s) = 6.96541 7.29285 7.13101
#
# Compressibility (1/GPa) = 0.02035229
#
# Stress axis : x y z
#
# Youngs Moduli (GPa) = 47.58047 62.76109 78.67100
#
# Poissons Ratio (x) = 0.51710 0.06224
# Poissons Ratio (y) = 0.39203 0.44247
# Poissons Ratio (z) = 0.03764 0.35299
#
# Static dielectric constant tensor:
#      x y z
#    x 1.561200 0.000000 0.000000 
#    y 0.000000 1.532560 0.000000 
#    z 0.000000 0.000000 1.532530 
# 
# From -- ./inp_files/72024.got.cif
#   From: 2010.05.17/outbox.cif.g08.bks.cpg/sg63_37_cif.got.tgz:72024.got - 2010.06.03 15:47:04.
