data_PCOD9469477
_publ_section_title
;
Structure prediction by ZEFSAII (Michael W. Deem and Ramdas Pophale) SiO2 
 PCOD9469477
Probable space group: C M C M
;
_chemical_formula_sum "Si O2"
_cell_formula_units_Z 64
_cell_length_a 16.412054
_cell_length_b 19.186686
_cell_length_c 10.822286
_cell_angle_alpha 90.000000
_cell_angle_beta 90.000000
_cell_angle_gamma 90.000000
_cell_volume 3407.861312
_symmetry_space_group_name_H-M "C M C M"
_symmetry_group_IT_number 63
_symmetry_cell_setting 'orthorhombic'
loop_
_space_group_symop_operation_xyz
x,y,z
-x,-y,1/2+z
x,-y,-z
-x,y,1/2-z
-x,-y,-z
x,y,1/2-z
-x,y,z
x,-y,1/2+z
1/2+x,1/2+y,z
1/2-x,1/2-y,1/2+z
1/2+x,1/2-y,-z
1/2-x,1/2+y,1/2-z
1/2-x,1/2-y,-z
1/2+x,1/2+y,1/2-z
1/2-x,1/2+y,z
1/2+x,1/2-y,1/2+z
loop_
_atom_site_type_symbol
_atom_site_label
_atom_site_fract_x
_atom_site_fract_y
_atom_site_fract_z
Si Si1 0.127898 0.344846 0.750000
Si Si2 0.319820 0.299832 0.750000
Si Si3 0.910109 0.341833 0.250000
Si Si4 0.699930 0.675563 0.509596
Si Si5 0.590701 0.311671 0.250000
Si Si6 0.643145 0.082842 0.995208
O O1 0.224204 0.322064 0.750000
O O2 0.083856 0.271758 0.750000
O O3 0.110484 0.386704 0.624882
O O4 0.340705 0.217708 0.750000
O O5 0.350019 0.327699 0.618574
O O6 0.900807 0.387405 0.373617
O O7 0.000000 0.308597 0.250000
O O8 0.750000 0.750000 0.500000
O O9 0.642821 0.672201 0.627908
O O10 0.765761 0.614244 0.514488
O O11 0.500000 0.342464 0.250000
O O12 0.641467 0.000000 0.000000
#
# Coordination Sequence:
#
# PCOD9469477 Si02
#       6
#     8   8   8  16   8  16
#     4  10  19  37  56  80 112 146 189 250 273 328
#     4  10  18  34  58  80 102 152 198 236 274 318
#     4  12  23  35  52  80 120 155 183 229 284 344
#     4  11  18  38  62  80 112 149 192 248 272 328
#     4  12  22  34  60  94 116 143 188 245 299 328
#     4  11  22  37  59  82 109 152 200 227 276 342
#
# _framework density 18.780107000000001
#
# number of rings (size 3 to 8) (size 9 to 14) (size 15 to 20)
#    0.000    1.000    7.500    1.500    0.000    4.500 
#    0.000    1.250    0.000    0.750    0.000    7.000 
#    0.000    0.000    0.000    0.000    0.000    0.000 
#
# Total GULP energy -178545.565934 kJ/mol
# GULP energy per Si atom -5579.548935 kJ/mol
# Density = 1.873736 g / cm^3
# Si number density = 18.780107 Si / 1000 Ang^3
#
#
#
# Elastic Constant Matrix: (Units=GPa)
#
#
# Indices 1 2 3 4 5 6 
#
# 1 55.7446 0.8862 42.9229 0.0000 0.0000 0.0000
# 2 0.8862 45.9414 11.5037 0.0000 0.0000 0.0000
# 3 42.9229 11.5037 202.3106 0.0000 0.0000 0.0000
# 4 0.0000 0.0000 0.0000 13.3383 0.0000 0.0000
# 5 0.0000 0.0000 0.0000 0.0000 2.3918 0.0000
# 6 0.0000 0.0000 0.0000 0.0000 0.0000 7.1969
#
#
#
# Elastic Compliance Matrix: (Units=1/GPa)
#
#
# Indices 1 2 3 4 5 6 
#
# 1 0.021466 0.000737 -0.004596 0.000000 0.000000 0.000000
# 2 0.000737 0.022107 -0.001413 0.000000 0.000000 0.000000
# 3 -0.004596 -0.001413 0.005998 0.000000 0.000000 0.000000
# 4 0.000000 0.000000 0.000000 0.074972 0.000000 0.000000
# 5 0.000000 0.000000 0.000000 0.000000 0.418093 0.000000
# 6 0.000000 0.000000 0.000000 0.000000 0.000000 0.138948
#
#
# Mechanical properties :
#
#
# Convention : Reuss Voigt Hill
#
# Bulk Modulus (GPa) = 25.62414 46.06914 35.84664
# Shear Modulus (GPa) = 7.09080 21.16433 14.12756
#
# Velocity S-wave (km/s) = 1.94522 3.36066 2.74572
# Velocity P-wave (km/s) = 4.32656 6.29625 5.40194
#
# Compressibility (1/GPa) = 0.03902571
#
# Stress axis : x y z
#
# Youngs Moduli (GPa) = 46.58455 45.23551 166.71057
#
# Poissons Ratio (x) = -0.03333 0.76625
# Poissons Ratio (y) = -0.03432 0.23562
# Poissons Ratio (z) = 0.21412 0.06393
#
# Static dielectric constant tensor:
#      x y z
#    x 1.686660 0.000000 0.000000 
#    y 0.000000 1.610760 0.000000 
#    z 0.000000 0.000000 1.723280 
# 
# From -- ./inp_files/19022.got.cif
#   From: 2010.05.17/outbox.cif.g08.bks.cpg/sg63_10_cif.got.tgz:19022.got - 2010.06.03 15:47:04.
