data_PCOD9469087
_publ_section_title
;
Structure prediction by ZEFSAII (Michael W. Deem and Ramdas Pophale) SiO2 
 PCOD9469087
Probable space group: C M C M
;
_chemical_formula_sum "Si O2"
_cell_formula_units_Z 96
_cell_length_a 25.965684
_cell_length_b 24.298124
_cell_length_c 8.535474
_cell_angle_alpha 90.000000
_cell_angle_beta 90.000000
_cell_angle_gamma 90.000000
_cell_volume 5385.179146
_symmetry_space_group_name_H-M "C M C M"
_symmetry_group_IT_number 63
_symmetry_cell_setting 'orthorhombic'
loop_
_space_group_symop_operation_xyz
x,y,z
-x,-y,1/2+z
x,-y,-z
-x,y,1/2-z
-x,-y,-z
x,y,1/2-z
-x,y,z
x,-y,1/2+z
1/2+x,1/2+y,z
1/2-x,1/2-y,1/2+z
1/2+x,1/2-y,-z
1/2-x,1/2+y,1/2-z
1/2-x,1/2-y,-z
1/2+x,1/2+y,1/2-z
1/2-x,1/2+y,z
1/2+x,1/2-y,1/2+z
loop_
_atom_site_type_symbol
_atom_site_label
_atom_site_fract_x
_atom_site_fract_y
_atom_site_fract_z
Si Si1 0.806394 0.060629 0.561540
Si Si2 0.500000 0.561790 0.560648
Si Si3 0.808222 0.560557 0.436557
Si Si4 0.060437 0.252792 0.560408
Si Si5 0.099516 0.367968 0.437909
Si Si6 0.598259 0.633465 0.940896
Si Si7 0.000000 0.561824 0.938880
O O1 0.805132 0.058854 0.750000
O O2 0.749107 0.072174 0.499794
O O3 0.848272 0.105641 0.509997
O O4 0.821413 0.000000 0.500000
O O5 0.500000 0.500000 0.500000
O O6 0.500000 0.560939 0.750000
O O7 0.449256 0.594925 0.509518
O O8 0.823337 0.500000 0.500000
O O9 0.806939 0.558238 0.250000
O O10 0.849041 0.605308 0.493604
O O11 0.061934 0.254897 0.750000
O O12 0.088312 0.306258 0.493461
O O13 0.087002 0.195811 0.508995
O O14 0.000000 0.252687 0.514421
O O15 0.101996 0.369461 0.250000
O O16 0.050835 0.405201 0.490012
O O17 0.598098 0.633944 0.750000
O O18 0.000000 0.560730 0.750000
O O19 0.000000 0.500000 0.000000
#
# Coordination Sequence:
#
# PCOD9469087 Si02
#       7
#    16   8  16  16  16  16   8
#     4  10  19  34  56  82 112 148 185 229 279 330
#     4  10  18  31  50  78 112 145 179 226 277 330
#     4  11  22  38  59  84 111 145 185 227 276 331
#     4  10  19  35  58  81 107 148 192 228 270 327
#     4  11  22  38  56  81 113 145 181 226 276 329
#     4   9  18  33  55  80 110 146 188 228 273 328
#     4  10  22  35  52  78 110 139 169 212 265 322
#
# _framework density 17.826705
#
# number of rings (size 3 to 8) (size 9 to 14) (size 15 to 20)
#    0.000    1.833    1.667    4.500    0.000    2.667 
#    0.000    4.167    0.000    0.000    0.000    0.000 
#    0.000    0.000    0.000    0.000    0.000    0.000 
#
# Total GULP energy -268088.498741 kJ/mol
# GULP energy per Si atom -5585.177057 kJ/mol
# Density = 1.778613 g / cm^3
# Si number density = 17.826705 Si / 1000 Ang^3
#
#
#
# Elastic Constant Matrix: (Units=GPa)
#
#
# Indices 1 2 3 4 5 6 
#
# 1 126.5142 108.8197 38.8390 0.0000 0.0000 0.0000
# 2 108.8197 190.9230 40.6818 0.0000 0.0000 0.0000
# 3 38.8390 40.6818 54.4240 0.0000 0.0000 0.0000
# 4 0.0000 0.0000 0.0000 28.4968 0.0000 0.0000
# 5 0.0000 0.0000 0.0000 0.0000 -1.2562 0.0000
# 6 0.0000 0.0000 0.0000 0.0000 0.0000 -5.5783
#
#
#
# Elastic Compliance Matrix: (Units=1/GPa)
#
#
# Indices 1 2 3 4 5 6 
#
# 1 0.016910 -0.008406 -0.005784 0.000000 0.000000 0.000000
# 2 -0.008406 0.010408 -0.001782 0.000000 0.000000 0.000000
# 3 -0.005784 -0.001782 0.023834 0.000000 0.000000 0.000000
# 4 0.000000 0.000000 0.000000 0.035092 0.000000 0.000000
# 5 0.000000 0.000000 0.000000 0.000000 -0.796076 0.000000
# 6 0.000000 0.000000 0.000000 0.000000 0.000000 -0.179268
#
#
# Mechanical properties :
#
#
# Convention : Reuss Voigt Hill
#
# Bulk Modulus (GPa) = 52.05906 83.17137 67.61521
# Shear Modulus (GPa) = -5.87714 16.56717 5.34501
#
# Velocity S-wave (km/s) = -1.81768 3.05182 1.73344
# Velocity P-wave (km/s) = 4.98607 7.69253 6.48213
#
# Compressibility (1/GPa) = 0.01920895
#
# Stress axis : x y z
#
# Youngs Moduli (GPa) = 59.13652 96.07772 41.95687
#
# Poissons Ratio (x) = 0.80759 0.24270
# Poissons Ratio (y) = 0.49708 0.07475
# Poissons Ratio (z) = 0.34207 0.17117
#
# Static dielectric constant tensor:
#      x y z
#    x 1.597270 0.000000 0.000000 
#    y 0.000000 1.582110 0.000000 
#    z 0.000000 0.000000 1.606230 
# 
# From -- ./inp_files/10512.got.cif
#   From: 2010.05.17/outbox.cif.g08.bks.cpg/sg63_6_cif.got.tgz:10512.got - 2010.06.03 15:47:04.
