data_PCOD9469950
_publ_section_title
;
Structure prediction by ZEFSAII (Michael W. Deem and Ramdas Pophale) SiO2 
 PCOD9469950
Probable space group: C M C M
;
_chemical_formula_sum "Si O2"
_cell_formula_units_Z 96
_cell_length_a 7.515072
_cell_length_b 30.254466
_cell_length_c 21.878012
_cell_angle_alpha 90.000000
_cell_angle_beta 90.000000
_cell_angle_gamma 90.000000
_cell_volume 4974.283047
_symmetry_space_group_name_H-M "C M C M"
_symmetry_group_IT_number 63
_symmetry_cell_setting 'orthorhombic'
loop_
_space_group_symop_operation_xyz
x,y,z
-x,-y,1/2+z
x,-y,-z
-x,y,1/2-z
-x,-y,-z
x,y,1/2-z
-x,y,z
x,-y,1/2+z
1/2+x,1/2+y,z
1/2-x,1/2-y,1/2+z
1/2+x,1/2-y,-z
1/2-x,1/2+y,1/2-z
1/2-x,1/2-y,-z
1/2+x,1/2+y,1/2-z
1/2-x,1/2+y,z
1/2+x,1/2-y,1/2+z
loop_
_atom_site_type_symbol
_atom_site_label
_atom_site_fract_x
_atom_site_fract_y
_atom_site_fract_z
Si Si1 0.213133 0.210640 0.953100
Si Si2 0.214426 0.886676 0.015375
Si Si3 0.793910 0.504018 0.185224
Si Si4 0.285624 0.407076 0.347337
Si Si5 0.707573 0.970585 0.944757
Si Si6 0.716936 0.692807 0.817136
O O1 0.277261 0.163974 0.981364
O O2 0.276173 0.214236 0.882033
O O3 0.000000 0.206798 0.948378
O O4 0.250000 0.250000 0.000000
O O5 0.262899 0.907181 0.081141
O O6 0.000000 0.886290 0.011534
O O7 0.281850 0.919554 0.963858
O O8 0.712881 0.518006 0.250000
O O9 0.789521 0.450815 0.182381
O O10 0.711996 0.520347 0.121659
O O11 0.000000 0.518488 0.185833
O O12 0.500000 0.409210 0.342090
O O13 0.233127 0.359129 0.322014
O O14 0.500000 0.983769 0.940429
O O15 0.786203 0.000000 0.000000
O O16 0.775402 0.709654 0.750000
O O17 0.500000 0.694645 0.817077
#
# Coordination Sequence:
#
# PCOD9469950 Si02
#       6
#    16  16  16  16  16  16
#     4   9  18  32  50  73  97 121 153 192 236 282
#     4   9  18  31  48  71  95 120 153 194 233 271
#     4  10  20  31  42  61  93 126 154 192 235 268
#     4   9  16  27  45  68  92 119 151 184 223 275
#     4  10  19  31  47  67  91 123 162 192 221 271
#     4   8  14  26  45  68  94 121 149 184 225 274
#
# _framework density 19.299264000000001
#
# number of rings (size 3 to 8) (size 9 to 14) (size 15 to 20)
#    0.000    2.833    1.667    2.500    0.000    2.667 
#    0.000    2.500    0.000    2.500    0.000    7.000 
#    0.000    0.000    0.000    0.000    0.000    0.000 
#
# Total GULP energy -267488.697952 kJ/mol
# GULP energy per Si atom -5572.681207 kJ/mol
# Density = 1.925534 g / cm^3
# Si number density = 19.299264 Si / 1000 Ang^3
#
#
#
# Elastic Constant Matrix: (Units=GPa)
#
#
# Indices 1 2 3 4 5 6 
#
# 1 48.5688 -3.5068 9.0877 0.0000 0.0000 0.0000
# 2 -3.5068 72.5654 73.6815 0.0000 0.0000 0.0000
# 3 9.0877 73.6815 207.1239 0.0000 0.0000 0.0000
# 4 0.0000 0.0000 0.0000 16.6234 0.0000 0.0000
# 5 0.0000 0.0000 0.0000 0.0000 39.3805 0.0000
# 6 0.0000 0.0000 0.0000 0.0000 0.0000 22.5735
#
#
#
# Elastic Compliance Matrix: (Units=1/GPa)
#
#
# Indices 1 2 3 4 5 6 
#
# 1 0.021191 0.003081 -0.002026 0.000000 0.000000 0.000000
# 2 0.003081 0.022021 -0.007969 0.000000 0.000000 0.000000
# 3 -0.002026 -0.007969 0.007752 0.000000 0.000000 0.000000
# 4 0.000000 0.000000 0.000000 0.060156 0.000000 0.000000
# 5 0.000000 0.000000 0.000000 0.000000 0.025393 0.000000
# 6 0.000000 0.000000 0.000000 0.000000 0.000000 0.044300
#
#
# Mechanical properties :
#
#
# Convention : Reuss Voigt Hill
#
# Bulk Modulus (GPa) = 26.92783 54.08698 40.50741
# Shear Modulus (GPa) = 24.15242 32.31521 28.23381
#
# Velocity S-wave (km/s) = 3.54145 4.09642 3.82900
# Velocity P-wave (km/s) = 5.54126 7.10355 6.37048
#
# Compressibility (1/GPa) = 0.03713629
#
# Stress axis : x y z
#
# Youngs Moduli (GPa) = 47.19021 45.41129 129.00377
#
# Poissons Ratio (x) = -0.13991 0.26133
# Poissons Ratio (y) = -0.14539 1.02801
# Poissons Ratio (z) = 0.09560 0.36187
#
# Static dielectric constant tensor:
#      x y z
#    x 1.790490 0.000000 0.000000 
#    y 0.000000 1.647340 0.000000 
#    z 0.000000 0.000000 1.740970 
# 
# From -- ./inp_files/53064.got.cif
#   From: 2010.05.17/outbox.cif.g08.bks.cpg/sg63_27_cif.got.tgz:53064.got - 2010.06.03 15:47:04.
