data_PCOD9469078
_publ_section_title
;
Structure prediction by ZEFSAII (Michael W. Deem and Ramdas Pophale) SiO2 
 PCOD9469078
Probable space group: C M C M
;
_chemical_formula_sum "Si O2"
_cell_formula_units_Z 112
_cell_length_a 13.233863
_cell_length_b 21.994158
_cell_length_c 24.840392
_cell_angle_alpha 90.000000
_cell_angle_beta 90.000000
_cell_angle_gamma 90.000000
_cell_volume 7230.235115
_symmetry_space_group_name_H-M "C M C M"
_symmetry_group_IT_number 63
_symmetry_cell_setting 'orthorhombic'
loop_
_space_group_symop_operation_xyz
x,y,z
-x,-y,1/2+z
x,-y,-z
-x,y,1/2-z
-x,-y,-z
x,y,1/2-z
-x,y,z
x,-y,1/2+z
1/2+x,1/2+y,z
1/2-x,1/2-y,1/2+z
1/2+x,1/2-y,-z
1/2-x,1/2+y,1/2-z
1/2-x,1/2-y,-z
1/2+x,1/2+y,1/2-z
1/2-x,1/2+y,z
1/2+x,1/2-y,1/2+z
loop_
_atom_site_type_symbol
_atom_site_label
_atom_site_fract_x
_atom_site_fract_y
_atom_site_fract_z
Si Si1 0.796282 0.798602 0.687708
Si Si2 0.382592 0.756491 0.614304
Si Si3 0.618523 0.836289 0.311388
Si Si4 0.381233 0.379777 0.594498
Si Si5 0.742752 0.633501 0.908828
Si Si6 0.217592 0.316831 0.981239
Si Si7 0.619174 0.514842 0.937730
O O1 0.790017 0.816036 0.750000
O O2 0.687156 0.782514 0.662240
O O3 0.859878 0.735979 0.683597
O O4 0.848832 0.848361 0.650046
O O5 0.500000 0.750717 0.627247
O O6 0.334137 0.690710 0.599171
O O7 0.365918 0.802619 0.563974
O O8 0.646881 0.853383 0.250000
O O9 0.500000 0.847716 0.318721
O O10 0.685269 0.867389 0.357125
O O11 0.500000 0.369333 0.583324
O O12 0.311415 0.349340 0.548659
O O13 0.363957 0.452015 0.593986
O O14 0.682522 0.571393 0.916751
O O15 0.804562 0.647320 0.963899
O O16 0.250000 0.250000 0.000000
O O17 0.500000 0.529833 0.935615
O O18 0.643699 0.500000 0.000000
#
# Coordination Sequence:
#
# PCOD9469078 Si02
#       7
#    16  16  16  16  16  16  16
#     4   9  18  32  50  73  98 125 161 205 249 291
#     4   9  18  30  46  71 102 130 158 198 246 298
#     4   9  18  33  53  75  97 125 163 205 249 293
#     4  10  19  31  48  72 100 128 160 197 241 292
#     4  10  18  31  50  73 101 131 164 200 241 287
#     4   9  18  28  42  69  98 125 156 196 240 287
#     4  10  19  31  50  74 101 135 166 193 235 294
#
# _framework density 15.490506999999999
#
# number of rings (size 3 to 8) (size 9 to 14) (size 15 to 20)
#    0.000    2.571    1.429    1.714    0.000    4.000 
#    0.000    0.714    0.000    6.000    0.000    0.000 
#    0.000    0.000    0.000    0.000    0.000    0.000 
#
# Total GULP energy -311937.566224 kJ/mol
# GULP energy per Si atom -5570.313683 kJ/mol
# Density = 1.545525 g / cm^3
# Si number density = 15.490507 Si / 1000 Ang^3
#
#
#
# Elastic Constant Matrix: (Units=GPa)
#
#
# Indices 1 2 3 4 5 6 
#
# 1 78.8376 41.2891 45.8207 0.0000 0.0000 0.0000
# 2 41.2891 82.2542 56.9502 0.0000 0.0000 0.0000
# 3 45.8207 56.9502 123.9762 0.0000 0.0000 0.0000
# 4 0.0000 0.0000 0.0000 17.6858 0.0000 0.0000
# 5 0.0000 0.0000 0.0000 0.0000 14.5837 0.0000
# 6 0.0000 0.0000 0.0000 0.0000 0.0000 23.0431
#
#
#
# Elastic Compliance Matrix: (Units=1/GPa)
#
#
# Indices 1 2 3 4 5 6 
#
# 1 0.018315 -0.006609 -0.003733 0.000000 0.000000 0.000000
# 2 -0.006609 0.020212 -0.006842 0.000000 0.000000 0.000000
# 3 -0.003733 -0.006842 0.012589 0.000000 0.000000 0.000000
# 4 0.000000 0.000000 0.000000 0.056543 0.000000 0.000000
# 5 0.000000 0.000000 0.000000 0.000000 0.068570 0.000000
# 6 0.000000 0.000000 0.000000 0.000000 0.000000 0.043397
#
#
# Mechanical properties :
#
#
# Convention : Reuss Voigt Hill
#
# Bulk Modulus (GPa) = 59.70973 63.68757 61.69865
# Shear Modulus (GPa) = 19.26210 20.46305 19.86257
#
# Velocity S-wave (km/s) = 3.53012 3.63851 3.58472
# Velocity P-wave (km/s) = 7.43272 7.67169 7.55315
#
# Compressibility (1/GPa) = 0.01674769
#
# Stress axis : x y z
#
# Youngs Moduli (GPa) = 54.59890 49.47510 79.43500
#
# Poissons Ratio (x) = 0.32698 0.29656
# Poissons Ratio (y) = 0.36084 0.54351
# Poissons Ratio (z) = 0.20384 0.33852
#
# Static dielectric constant tensor:
#      x y z
#    x 1.497940 0.000000 0.000000 
#    y 0.000000 1.497460 0.000000 
#    z 0.000000 0.000000 1.532340 
# 
# From -- ./inp_files/61749.got.cif
#   From: 2010.05.17/outbox.cif.g08.bks.cpg/sg63_31_cif.got.tgz:61749.got - 2010.06.03 15:47:04.
