data_PCOD9469863
_publ_section_title
;
Structure prediction by ZEFSAII (Michael W. Deem and Ramdas Pophale) SiO2 
 PCOD9469863
Probable space group: C M C M
;
_chemical_formula_sum "Si O2"
_cell_formula_units_Z 112
_cell_length_a 14.313697
_cell_length_b 28.450780
_cell_length_c 15.487791
_cell_angle_alpha 90.000000
_cell_angle_beta 90.000000
_cell_angle_gamma 90.000000
_cell_volume 6307.183645
_symmetry_space_group_name_H-M "C M C M"
_symmetry_group_IT_number 63
_symmetry_cell_setting 'orthorhombic'
loop_
_space_group_symop_operation_xyz
x,y,z
-x,-y,1/2+z
x,-y,-z
-x,y,1/2-z
-x,-y,-z
x,y,1/2-z
-x,y,z
x,-y,1/2+z
1/2+x,1/2+y,z
1/2-x,1/2-y,1/2+z
1/2+x,1/2-y,-z
1/2-x,1/2+y,1/2-z
1/2-x,1/2-y,-z
1/2+x,1/2+y,1/2-z
1/2-x,1/2+y,z
1/2+x,1/2-y,1/2+z
loop_
_atom_site_type_symbol
_atom_site_label
_atom_site_fract_x
_atom_site_fract_y
_atom_site_fract_z
Si Si1 0.609667 0.631422 0.354031
Si Si2 0.687052 0.913579 0.345958
Si Si3 0.271116 0.084956 0.045774
Si Si4 0.393089 0.984723 0.649868
Si Si5 0.725167 0.277860 0.652149
Si Si6 0.604803 0.823645 0.926280
Si Si7 0.396995 0.187753 0.870643
O O1 0.620604 0.625003 0.250000
O O2 0.500000 0.628479 0.373241
O O3 0.672989 0.595095 0.407408
O O4 0.650584 0.682998 0.378858
O O5 0.735482 0.917621 0.250000
O O6 0.736930 0.913573 0.440951
O O7 0.632520 0.864338 0.343233
O O8 0.620799 0.959119 0.351356
O O9 0.320684 0.038847 0.084132
O O10 0.340638 0.126768 0.078781
O O11 0.376361 0.969532 0.750000
O O12 0.500000 0.972885 0.626863
O O13 0.744989 0.291158 0.750000
O O14 0.823971 0.284129 0.606512
O O15 0.679227 0.226927 0.650368
O O16 0.500000 0.824765 0.888316
O O17 0.596710 0.814367 0.026992
O O18 0.500000 0.200706 0.838829
#
# Coordination Sequence:
#
# PCOD9469863 Si02
#       7
#    16  16  16  16  16  16  16
#     4   9  18  33  53  79 106 128 161 211 258 301
#     4  10  21  34  49  72 103 137 172 211 250 292
#     4  10  19  33  54  77 103 136 169 202 251 307
#     4  10  20  33  51  77 107 137 169 206 251 304
#     4  10  19  30  48  73  99 129 163 202 251 300
#     4   9  19  33  48  71 101 131 164 202 245 297
#     4  10  19  32  50  69  94 131 172 211 249 289
#
# _framework density 17.757529000000002
#
# number of rings (size 3 to 8) (size 9 to 14) (size 15 to 20)
#    0.000    2.286    0.000    3.000    0.000    5.429 
#    0.000    0.000    0.000    2.143    0.000    2.000 
#    0.000    0.000    0.000    0.000    0.000    0.000 
#
# Total GULP energy -311777.391887 kJ/mol
# GULP energy per Si atom -5567.453427 kJ/mol
# Density = 1.771711 g / cm^3
# Si number density = 17.757529 Si / 1000 Ang^3
#
#
#
# Elastic Constant Matrix: (Units=GPa)
#
#
# Indices 1 2 3 4 5 6 
#
# 1 123.3118 39.4532 56.4684 0.0000 0.0000 0.0000
# 2 39.4532 78.2511 32.4196 0.0000 0.0000 0.0000
# 3 56.4684 32.4196 68.9232 0.0000 0.0000 0.0000
# 4 0.0000 0.0000 0.0000 84.3328 0.0000 0.0000
# 5 0.0000 0.0000 0.0000 0.0000 12.6417 0.0000
# 6 0.0000 0.0000 0.0000 0.0000 0.0000 14.6362
#
#
#
# Elastic Compliance Matrix: (Units=1/GPa)
#
#
# Indices 1 2 3 4 5 6 
#
# 1 0.013439 -0.002750 -0.009717 0.000000 0.000000 0.000000
# 2 -0.002750 0.016435 -0.005478 0.000000 0.000000 0.000000
# 3 -0.009717 -0.005478 0.025047 0.000000 0.000000 0.000000
# 4 0.000000 0.000000 0.000000 0.011858 0.000000 0.000000
# 5 0.000000 0.000000 0.000000 0.000000 0.079103 0.000000
# 6 0.000000 0.000000 0.000000 0.000000 0.000000 0.068324
#
#
# Mechanical properties :
#
#
# Convention : Reuss Voigt Hill
#
# Bulk Modulus (GPa) = 52.54431 58.57425 55.55928
# Shear Modulus (GPa) = 19.49780 31.79847 25.64813
#
# Velocity S-wave (km/s) = 3.31721 4.23626 3.80459
# Velocity P-wave (km/s) = 6.65777 7.54885 7.11727
#
# Compressibility (1/GPa) = 0.01903155
#
# Stress axis : x y z
#
# Youngs Moduli (GPa) = 74.40954 60.84464 39.92563
#
# Poissons Ratio (x) = 0.16733 0.38796
# Poissons Ratio (y) = 0.20463 0.21870
# Poissons Ratio (z) = 0.72304 0.33328
#
# Static dielectric constant tensor:
#      x y z
#    x 1.604850 0.000000 0.000000 
#    y 0.000000 1.616580 0.000000 
#    z 0.000000 0.000000 1.641580 
# 
# From -- ./inp_files/32513.got.cif
#   From: 2010.05.17/outbox.cif.g08.bks.cpg/sg63_17_cif.got.tgz:32513.got - 2010.06.03 15:47:04.
