data_PCOD9469456
_publ_section_title
;
Structure prediction by ZEFSAII (Michael W. Deem and Ramdas Pophale) SiO2 
 PCOD9469456
Probable space group: C M C M
;
_chemical_formula_sum "Si O2"
_cell_formula_units_Z 72
_cell_length_a 15.137545
_cell_length_b 26.546397
_cell_length_c 9.933907
_cell_angle_alpha 90.000000
_cell_angle_beta 90.000000
_cell_angle_gamma 90.000000
_cell_volume 3991.913500
_symmetry_space_group_name_H-M "C M C M"
_symmetry_group_IT_number 63
_symmetry_cell_setting 'orthorhombic'
loop_
_space_group_symop_operation_xyz
x,y,z
-x,-y,1/2+z
x,-y,-z
-x,y,1/2-z
-x,-y,-z
x,y,1/2-z
-x,y,z
x,-y,1/2+z
1/2+x,1/2+y,z
1/2-x,1/2-y,1/2+z
1/2+x,1/2-y,-z
1/2-x,1/2+y,1/2-z
1/2-x,1/2-y,-z
1/2+x,1/2+y,1/2-z
1/2-x,1/2+y,z
1/2+x,1/2-y,1/2+z
loop_
_atom_site_type_symbol
_atom_site_label
_atom_site_fract_x
_atom_site_fract_y
_atom_site_fract_z
Si Si1 0.719325 0.099752 0.750000
Si Si2 0.599238 0.124659 0.250000
Si Si3 0.398985 0.325487 0.482280
Si Si4 0.398582 0.057971 0.517131
Si Si5 0.710066 0.713824 0.750000
Si Si6 0.406149 0.590254 0.750000
Si Si7 0.712729 0.319793 0.750000
O O1 0.663456 0.086022 0.620758
O O2 0.743411 0.158994 0.750000
O O3 0.809627 0.066815 0.750000
O O4 0.500000 0.149074 0.250000
O O5 0.603518 0.088378 0.121230
O O6 0.686687 0.159284 0.250000
O O7 0.500000 0.311226 0.515967
O O8 0.350597 0.285403 0.384169
O O9 0.404869 0.373974 0.382788
O O10 0.341052 0.334780 0.615264
O O11 0.500000 0.057176 0.566644
O O12 0.371151 0.000000 0.500000
O O13 0.777648 0.759366 0.750000
O O14 0.500000 0.562186 0.750000
#
# Coordination Sequence:
#
# PCOD9469456 Si02
#       7
#     8   8  16  16   8   8   8
#     4  10  18  34  55  75  99 135 178 214 256 313
#     4  10  21  34  50  77 111 143 172 215 271 315
#     4   9  18  33  51  70  96 133 177 213 247 296
#     4  10  20  35  55  79 106 137 176 219 265 318
#     4  10  21  35  50  73 107 144 174 210 260 317
#     4   8  16  32  53  74  97 131 171 209 249 301
#     4  12  21  33  51  79 110 135 172 222 263 308
#
# _framework density 18.036462
#
# number of rings (size 3 to 8) (size 9 to 14) (size 15 to 20)
#    0.000    2.444    0.000    5.667    0.000    2.667 
#    0.000    4.444    0.000    0.667    0.000    6.222 
#    0.000    0.000    0.000    0.000    0.000    0.000 
#
# Total GULP energy -200524.157671 kJ/mol
# GULP energy per Si atom -5570.115491 kJ/mol
# Density = 1.799541 g / cm^3
# Si number density = 18.036462 Si / 1000 Ang^3
#
#
#
# Elastic Constant Matrix: (Units=GPa)
#
#
# Indices 1 2 3 4 5 6 
#
# 1 126.9109 42.0584 72.1102 0.0000 0.0000 0.0000
# 2 42.0584 53.6767 14.4190 0.0000 0.0000 0.0000
# 3 72.1102 14.4190 126.5622 0.0000 0.0000 0.0000
# 4 0.0000 0.0000 0.0000 11.8525 0.0000 0.0000
# 5 0.0000 0.0000 0.0000 0.0000 35.4058 0.0000
# 6 0.0000 0.0000 0.0000 0.0000 0.0000 9.3874
#
#
#
# Elastic Compliance Matrix: (Units=1/GPa)
#
#
# Indices 1 2 3 4 5 6 
#
# 1 0.015671 -0.010192 -0.007767 0.000000 0.000000 0.000000
# 2 -0.010192 0.025847 0.002862 0.000000 0.000000 0.000000
# 3 -0.007767 0.002862 0.012001 0.000000 0.000000 0.000000
# 4 0.000000 0.000000 0.000000 0.084370 0.000000 0.000000
# 5 0.000000 0.000000 0.000000 0.000000 0.028244 0.000000
# 6 0.000000 0.000000 0.000000 0.000000 0.000000 0.106526
#
#
# Mechanical properties :
#
#
# Convention : Reuss Voigt Hill
#
# Bulk Modulus (GPa) = 42.87383 62.70278 52.78830
# Shear Modulus (GPa) = 16.09643 23.23328 19.66486
#
# Velocity S-wave (km/s) = 2.99061 3.59294 3.30553
# Velocity P-wave (km/s) = 5.97890 7.21473 6.62569
#
# Compressibility (1/GPa) = 0.02332425
#
# Stress axis : x y z
#
# Youngs Moduli (GPa) = 63.81370 38.68881 83.32872
#
# Poissons Ratio (x) = 0.39432 0.64724
# Poissons Ratio (y) = 0.65040 -0.23852
# Poissons Ratio (z) = 0.49566 -0.11074
#
# Static dielectric constant tensor:
#      x y z
#    x 1.667010 0.000000 0.000000 
#    y 0.000000 1.597550 0.000000 
#    z 0.000000 0.000000 1.554300 
# 
# From -- ./inp_files/4782.got.cif
#   From: 2010.05.17/outbox.cif.g08.bks.cpg/sg63_3_cif.got.tgz:4782.got - 2010.06.03 15:47:04.
