data_PCOD9469226
_publ_section_title
;
Structure prediction by ZEFSAII (Michael W. Deem and Ramdas Pophale) SiO2 
 PCOD9469226
Probable space group: C M C M
;
_chemical_formula_sum "Si O2"
_cell_formula_units_Z 96
_cell_length_a 8.813393
_cell_length_b 24.477868
_cell_length_c 26.579236
_cell_angle_alpha 90.000000
_cell_angle_beta 90.000000
_cell_angle_gamma 90.000000
_cell_volume 5734.020193
_symmetry_space_group_name_H-M "C M C M"
_symmetry_group_IT_number 63
_symmetry_cell_setting 'orthorhombic'
loop_
_space_group_symop_operation_xyz
x,y,z
-x,-y,1/2+z
x,-y,-z
-x,y,1/2-z
-x,-y,-z
x,y,1/2-z
-x,y,z
x,-y,1/2+z
1/2+x,1/2+y,z
1/2-x,1/2-y,1/2+z
1/2+x,1/2-y,-z
1/2-x,1/2+y,1/2-z
1/2-x,1/2-y,-z
1/2+x,1/2+y,1/2-z
1/2-x,1/2+y,z
1/2+x,1/2-y,1/2+z
loop_
_atom_site_type_symbol
_atom_site_label
_atom_site_fract_x
_atom_site_fract_y
_atom_site_fract_z
Si Si1 0.176348 0.320351 0.033675
Si Si2 0.315944 0.981895 0.556982
Si Si3 0.682032 0.239089 0.387386
Si Si4 0.819312 0.137254 0.430741
Si Si5 0.182536 0.829974 0.192654
Si Si6 0.824530 0.586160 0.881580
O O1 0.257324 0.271915 0.063839
O O2 0.178488 0.371993 0.071396
O O3 0.000000 0.306905 0.023016
O O4 0.262148 0.338144 0.983780
O O5 0.500000 0.978445 0.557511
O O6 0.246811 0.923693 0.571061
O O7 0.273130 0.000000 0.500000
O O8 0.268205 0.028740 0.596419
O O9 0.500000 0.235980 0.388914
O O10 0.752547 0.178951 0.389439
O O11 0.729272 0.276949 0.340140
O O12 0.000000 0.136597 0.428649
O O13 0.237605 0.828198 0.250000
O O14 0.236727 0.883687 0.162940
O O15 0.000000 0.829983 0.193129
O O16 0.000000 0.579625 0.866418
#
# Coordination Sequence:
#
# PCOD9469226 Si02
#       6
#    16  16  16  16  16  16
#     4  10  18  32  50  71 102 138 173 211 252 299
#     4  10  19  35  53  72 103 143 178 211 249 297
#     4  10  20  34  51  73 101 134 171 212 258 310
#     4  12  23  32  46  72 105 141 177 210 250 302
#     4   9  19  36  58  81 103 128 163 213 269 314
#     4   9  18  32  53  78 103 134 173 212 253 301
#
# _framework density 16.742180999999999
#
# number of rings (size 3 to 8) (size 9 to 14) (size 15 to 20)
#    0.000    2.000    1.667    3.000    0.000    2.667 
#    0.000    0.000    0.000    1.000    0.000    2.333 
#    0.000    0.000    0.000    0.000    0.000    0.000 
#
# Total GULP energy -267856.873623 kJ/mol
# GULP energy per Si atom -5580.351534 kJ/mol
# Density = 1.670407 g / cm^3
# Si number density = 16.742181 Si / 1000 Ang^3
#
#
#
# Elastic Constant Matrix: (Units=GPa)
#
#
# Indices 1 2 3 4 5 6 
#
# 1 54.8646 46.9644 27.6245 0.0000 0.0000 0.0000
# 2 46.9644 159.6703 66.3834 0.0000 0.0000 0.0000
# 3 27.6245 66.3834 94.3311 0.0000 0.0000 0.0000
# 4 0.0000 0.0000 0.0000 8.8019 0.0000 0.0000
# 5 0.0000 0.0000 0.0000 0.0000 18.8933 0.0000
# 6 0.0000 0.0000 0.0000 0.0000 0.0000 28.9823
#
#
#
# Elastic Compliance Matrix: (Units=1/GPa)
#
#
# Indices 1 2 3 4 5 6 
#
# 1 0.024958 -0.006082 -0.003029 0.000000 0.000000 0.000000
# 2 -0.006082 0.010335 -0.005492 0.000000 0.000000 0.000000
# 3 -0.003029 -0.005492 0.015353 0.000000 0.000000 0.000000
# 4 0.000000 0.000000 0.000000 0.113612 0.000000 0.000000
# 5 0.000000 0.000000 0.000000 0.000000 0.052929 0.000000
# 6 0.000000 0.000000 0.000000 0.000000 0.000000 0.034504
#
#
# Mechanical properties :
#
#
# Convention : Reuss Voigt Hill
#
# Bulk Modulus (GPa) = 46.64107 65.64562 56.14334
# Shear Modulus (GPa) = 17.35853 22.52840 19.94347
#
# Velocity S-wave (km/s) = 3.22345 3.67223 3.45514
# Velocity P-wave (km/s) = 6.46321 7.56804 7.03734
#
# Compressibility (1/GPa) = 0.02144033
#
# Stress axis : x y z
#
# Youngs Moduli (GPa) = 40.06783 96.75805 65.13418
#
# Poissons Ratio (x) = 0.58844 0.19729
# Poissons Ratio (y) = 0.24368 0.35772
# Poissons Ratio (z) = 0.12137 0.53140
#
# Static dielectric constant tensor:
#      x y z
#    x 1.564720 0.000000 0.000000 
#    y 0.000000 1.579220 0.000000 
#    z 0.000000 0.000000 1.557270 
# 
# From -- ./inp_files/67007.got.cif
#   From: 2010.05.17/outbox.cif.g08.bks.cpg/sg63_34_cif.got.tgz:67007.got - 2010.06.03 15:47:04.
