data_PCOD9469756
_publ_section_title
;
Structure prediction by ZEFSAII (Michael W. Deem and Ramdas Pophale) SiO2 
 PCOD9469756
Probable space group: C M C M
;
_chemical_formula_sum "Si O2"
_cell_formula_units_Z 96
_cell_length_a 13.561876
_cell_length_b 22.677363
_cell_length_c 20.300762
_cell_angle_alpha 90.000000
_cell_angle_beta 90.000000
_cell_angle_gamma 90.000000
_cell_volume 6243.450327
_symmetry_space_group_name_H-M "C M C M"
_symmetry_group_IT_number 63
_symmetry_cell_setting 'orthorhombic'
loop_
_space_group_symop_operation_xyz
x,y,z
-x,-y,1/2+z
x,-y,-z
-x,y,1/2-z
-x,-y,-z
x,y,1/2-z
-x,y,z
x,-y,1/2+z
1/2+x,1/2+y,z
1/2-x,1/2-y,1/2+z
1/2+x,1/2-y,-z
1/2-x,1/2+y,1/2-z
1/2-x,1/2-y,-z
1/2+x,1/2+y,1/2-z
1/2-x,1/2+y,z
1/2+x,1/2-y,1/2+z
loop_
_atom_site_type_symbol
_atom_site_label
_atom_site_fract_x
_atom_site_fract_y
_atom_site_fract_z
Si Si1 0.882770 0.046343 0.672887
Si Si2 0.112685 0.746958 0.439942
Si Si3 0.803905 0.826357 0.327870
Si Si4 0.806105 0.174017 0.441360
Si Si5 0.382828 0.544488 0.439498
Si Si6 0.613236 0.752880 0.327316
O O1 0.865497 0.034000 0.750000
O O2 0.825557 0.106044 0.654358
O O3 0.000000 0.058294 0.664341
O O4 0.857928 0.991615 0.626542
O O5 0.131141 0.783246 0.372688
O O6 0.140370 0.791730 0.498930
O O7 0.192420 0.694582 0.442877
O O8 0.000000 0.728051 0.445525
O O9 0.825982 0.819903 0.250000
O O10 0.691270 0.805513 0.339064
O O11 0.823987 0.104884 0.446484
O O12 0.853389 0.199832 0.374333
O O13 0.366604 0.500000 0.500000
O O14 0.500000 0.558906 0.438226
O O15 0.620429 0.737027 0.250000
O O16 0.500000 0.768951 0.341290
#
# Coordination Sequence:
#
# PCOD9469756 Si02
#       6
#    16  16  16  16  16  16
#     4   9  17  28  43  64  89 117 148 182 220 261
#     4  10  19  31  49  70  91 117 147 182 226 269
#     4   9  17  29  46  69  94 119 149 185 223 263
#     4  10  20  32  47  68  93 118 147 184 223 267
#     4  10  19  30  45  64  87 116 148 181 219 263
#     4   9  17  29  46  68  93 120 149 183 224 267
#
# _framework density 15.376113
#
# number of rings (size 3 to 8) (size 9 to 14) (size 15 to 20)
#    0.000    2.500    0.000    3.000    0.000    3.000 
#    0.000    1.667    0.000    1.500    0.000    0.000 
#    0.000    0.000    0.000    0.000    0.000    0.000 
#
# Total GULP energy -267617.639548 kJ/mol
# GULP energy per Si atom -5575.367491 kJ/mol
# Density = 1.534112 g / cm^3
# Si number density = 15.376113 Si / 1000 Ang^3
#
#
#
# Elastic Constant Matrix: (Units=GPa)
#
#
# Indices 1 2 3 4 5 6 
#
# 1 102.8522 58.0551 39.5804 0.0000 0.0000 0.0000
# 2 58.0551 129.6113 46.8112 0.0000 0.0000 0.0000
# 3 39.5804 46.8112 49.0026 0.0000 0.0000 0.0000
# 4 0.0000 0.0000 0.0000 18.8255 0.0000 0.0000
# 5 0.0000 0.0000 0.0000 0.0000 15.1859 0.0000
# 6 0.0000 0.0000 0.0000 0.0000 0.0000 15.1864
#
#
#
# Elastic Compliance Matrix: (Units=1/GPa)
#
#
# Indices 1 2 3 4 5 6 
#
# 1 0.015139 -0.003610 -0.008779 0.000000 0.000000 0.000000
# 2 -0.003610 0.012640 -0.009159 0.000000 0.000000 0.000000
# 3 -0.008779 -0.009159 0.036248 0.000000 0.000000 0.000000
# 4 0.000000 0.000000 0.000000 0.053119 0.000000 0.000000
# 5 0.000000 0.000000 0.000000 0.000000 0.065851 0.000000
# 6 0.000000 0.000000 0.000000 0.000000 0.000000 0.065849
#
#
# Mechanical properties :
#
#
# Convention : Reuss Voigt Hill
#
# Bulk Modulus (GPa) = 47.77831 63.37327 55.57579
# Shear Modulus (GPa) = 16.72690 18.97418 17.85054
#
# Velocity S-wave (km/s) = 3.30183 3.51665 3.41093
# Velocity P-wave (km/s) = 6.75845 7.60224 7.19273
#
# Compressibility (1/GPa) = 0.02093000
#
# Stress axis : x y z
#
# Youngs Moduli (GPa) = 66.05446 79.11131 27.58784
#
# Poissons Ratio (x) = 0.28561 0.24220
# Poissons Ratio (y) = 0.23847 0.25268
# Poissons Ratio (z) = 0.57991 0.72459
#
# Static dielectric constant tensor:
#      x y z
#    x 1.506870 0.000000 0.000000 
#    y 0.000000 1.475350 0.000000 
#    z 0.000000 0.000000 1.537220 
# 
# From -- ./inp_files/52864.got.cif
#   From: 2010.05.17/outbox.cif.g08.bks.cpg/sg63_27_cif.got.tgz:52864.got - 2010.06.03 15:47:04.
