data_PCOD9469982
_publ_section_title
;
Structure prediction by ZEFSAII (Michael W. Deem and Ramdas Pophale) SiO2 
 PCOD9469982
Probable space group: C M C M
;
_chemical_formula_sum "Si O2"
_cell_formula_units_Z 80
_cell_length_a 34.098483
_cell_length_b 9.764898
_cell_length_c 11.200826
_cell_angle_alpha 90.000000
_cell_angle_beta 90.000000
_cell_angle_gamma 90.000000
_cell_volume 3729.518966
_symmetry_space_group_name_H-M "C M C M"
_symmetry_group_IT_number 63
_symmetry_cell_setting 'orthorhombic'
loop_
_space_group_symop_operation_xyz
x,y,z
-x,-y,1/2+z
x,-y,-z
-x,y,1/2-z
-x,-y,-z
x,y,1/2-z
-x,y,z
x,-y,1/2+z
1/2+x,1/2+y,z
1/2-x,1/2-y,1/2+z
1/2+x,1/2-y,-z
1/2-x,1/2+y,1/2-z
1/2-x,1/2-y,-z
1/2+x,1/2+y,1/2-z
1/2-x,1/2+y,z
1/2+x,1/2-y,1/2+z
loop_
_atom_site_type_symbol
_atom_site_label
_atom_site_fract_x
_atom_site_fract_y
_atom_site_fract_z
Si Si1 0.796007 0.223790 0.750000
Si Si2 0.953731 0.166188 0.750000
Si Si3 0.581616 0.660991 0.000000
Si Si4 0.174760 0.199230 0.500000
Si Si5 0.651294 1.000000 0.750000
Si Si6 0.546269 0.666188 0.250000
Si Si7 0.847858 0.500000 0.500000
Si Si8 0.203993 0.223791 0.250000
O O1 0.807306 0.152495 0.874804
O O2 0.821510 0.364724 0.750000
O O3 0.750000 0.250000 0.750000
O O4 0.934689 0.217320 0.625849
O O5 0.000000 0.193453 0.750000
O O6 0.948357 0.000000 0.750000
O O7 0.628467 0.671838 0.000000
O O8 0.570613 0.500000 0.000000
O O9 0.565311 0.717320 0.125849
O O10 0.178636 0.364801 0.500000
O O11 0.192694 0.152496 0.374804
O O12 0.678491 0.135274 0.750000
O O13 0.628983 0.000000 0.875703
O O14 0.500000 0.693453 0.250000
#
# Coordination Sequence:
#
# PCOD9469982 Si02
#       8
#     8   8  16  16   8   8   8   8
#     4  10  19  33  48  66  90 121 159 196 235 285
#     4   9  17  30  49  71  98 132 161 183 220 278
#     4  10  19  31  47  73 104 124 150 195 237 283
#     4  10  19  33  49  69  92 121 156 198 240 270
#     4   8  16  30  46  64  82 110 151 200 225 254
#     4   9  17  30  49  71  98 132 161 183 220 278
#     4   8  16  30  50  62  83 114 158 196 216 260
#     4  10  19  33  48  66  90 121 159 196 235 285
#
# _framework density 21.450488
#
# number of rings (size 3 to 8) (size 9 to 14) (size 15 to 20)
#    0.000    2.600    0.000    2.400    0.000    2.400 
#    3.600    0.000    0.000    0.000    0.000    4.200 
#    0.000    0.000    0.000    0.000    0.000    0.000 
#
# Total GULP energy -222868.131517 kJ/mol
# GULP energy per Si atom -5571.703288 kJ/mol
# Density = 2.140167 g / cm^3
# Si number density = 21.450488 Si / 1000 Ang^3
#
#
#
# Elastic Constant Matrix: (Units=GPa)
#
#
# Indices 1 2 3 4 5 6 
#
# 1 101.4570 -25.4206 107.2790 0.0000 0.0000 0.0000
# 2 -25.4206 74.3437 0.3036 0.0000 0.0000 0.0000
# 3 107.2790 0.3036 334.7525 0.0000 0.0000 0.0000
# 4 0.0000 0.0000 0.0000 -35.9292 0.0000 0.0000
# 5 0.0000 0.0000 0.0000 0.0000 44.7439 0.0000
# 6 0.0000 0.0000 0.0000 0.0000 0.0000 23.8628
#
#
#
# Elastic Compliance Matrix: (Units=1/GPa)
#
#
# Indices 1 2 3 4 5 6 
#
# 1 0.017147 0.005886 -0.005501 0.000000 0.000000 0.000000
# 2 0.005886 0.015471 -0.001900 0.000000 0.000000 0.000000
# 3 -0.005501 -0.001900 0.004752 0.000000 0.000000 0.000000
# 4 0.000000 0.000000 0.000000 -0.027833 0.000000 0.000000
# 5 0.000000 0.000000 0.000000 0.000000 0.022349 0.000000
# 6 0.000000 0.000000 0.000000 0.000000 0.000000 0.041906
#
#
# Mechanical properties :
#
#
# Convention : Reuss Voigt Hill
#
# Bulk Modulus (GPa) = 29.12040 74.98636 52.05338
# Shear Modulus (GPa) = 56.64405 35.09491 45.86948
#
# Velocity S-wave (km/s) = 5.14434 4.04925 4.62929
# Velocity P-wave (km/s) = 6.99219 7.54292 7.27277
#
# Compressibility (1/GPa) = 0.03434018
#
# Stress axis : x y z
#
# Youngs Moduli (GPa) = 58.31821 64.63573 210.44703
#
# Poissons Ratio (x) = -0.38043 1.15758
# Poissons Ratio (y) = -0.34324 0.39990
# Poissons Ratio (z) = 0.32078 0.12282
#
# Static dielectric constant tensor:
#      x y z
#    x 1.682810 0.000000 0.000000 
#    y 0.000000 1.809450 0.000000 
#    z 0.000000 0.000000 1.908110 
# 
# From -- ./inp_files/25714.got.cif
#   From: 2010.05.17/outbox.cif.g08.bks.cpg/sg63_13_cif.got.tgz:25714.got - 2010.06.03 15:47:04.
