data_PCOD9469985
_publ_section_title
;
Structure prediction by ZEFSAII (Michael W. Deem and Ramdas Pophale) SiO2 
 PCOD9469985
Probable space group: C M C M
;
_chemical_formula_sum "Si O2"
_cell_formula_units_Z 96
_cell_length_a 7.300558
_cell_length_b 31.778871
_cell_length_c 18.488091
_cell_angle_alpha 90.000000
_cell_angle_beta 90.000000
_cell_angle_gamma 90.000000
_cell_volume 4289.301652
_symmetry_space_group_name_H-M "C M C M"
_symmetry_group_IT_number 63
_symmetry_cell_setting 'orthorhombic'
loop_
_space_group_symop_operation_xyz
x,y,z
-x,-y,1/2+z
x,-y,-z
-x,y,1/2-z
-x,-y,-z
x,y,1/2-z
-x,y,z
x,-y,1/2+z
1/2+x,1/2+y,z
1/2-x,1/2-y,1/2+z
1/2+x,1/2-y,-z
1/2-x,1/2+y,1/2-z
1/2-x,1/2-y,-z
1/2+x,1/2+y,1/2-z
1/2-x,1/2+y,z
1/2+x,1/2-y,1/2+z
loop_
_atom_site_type_symbol
_atom_site_label
_atom_site_fract_x
_atom_site_fract_y
_atom_site_fract_z
Si Si1 0.776187 0.326595 0.414608
Si Si2 0.723160 0.911379 0.333139
Si Si3 0.223209 0.505237 0.917126
Si Si4 0.776193 0.578695 0.333179
Si Si5 0.714315 0.841286 0.577030
Si Si6 0.279267 0.257376 0.667158
O O1 0.721325 0.367283 0.368448
O O2 0.712327 0.331760 0.497134
O O3 0.715716 0.283305 0.377516
O O4 0.000000 0.325489 0.414869
O O5 0.781386 0.915095 0.250000
O O6 0.500000 0.911685 0.333084
O O7 0.782071 0.951149 0.380815
O O8 0.278724 0.465185 0.869505
O O9 0.000000 0.505691 0.917604
O O10 0.281869 0.500000 0.000000
O O11 0.717866 0.582098 0.250000
O O12 0.711992 0.618072 0.381105
O O13 0.000000 0.579357 0.332565
O O14 0.500000 0.850496 0.565803
O O15 0.729853 0.800270 0.626768
O O16 0.214777 0.256823 0.750000
O O17 0.500000 0.255540 0.669096
#
# Coordination Sequence:
#
# PCOD9469985 Si02
#       6
#    16  16  16  16  16  16
#     4   9  17  29  44  63  87 115 148 186 227 268
#     4   9  15  23  37  57  83 117 153 185 222 272
#     4   9  15  22  33  52  81 116 150 181 216 262
#     4   9  16  25  37  56  84 115 144 176 216 259
#     4  10  19  31  48  68  91 120 152 185 223 269
#     4  10  20  33  48  66  90 119 150 187 229 268
#
# _framework density 22.381264999999999
#
# number of rings (size 3 to 8) (size 9 to 14) (size 15 to 20)
#    0.000    2.667    0.000    3.000    0.000    9.000 
#    0.000    0.000    0.000    0.000    0.000    0.000 
#    0.000    7.333    0.000    4.167    0.000    1.667 
#
# Total GULP energy -268405.587439 kJ/mol
# GULP energy per Si atom -5591.783072 kJ/mol
# Density = 2.233032 g / cm^3
# Si number density = 22.381265 Si / 1000 Ang^3
#
#
#
# Elastic Constant Matrix: (Units=GPa)
#
#
# Indices 1 2 3 4 5 6 
#
# 1 88.8777 -19.5896 -12.4426 0.0000 0.0000 0.0000
# 2 -19.5896 94.4054 -5.8694 0.0000 0.0000 0.0000
# 3 -12.4426 -5.8694 101.2327 0.0000 0.0000 0.0000
# 4 0.0000 0.0000 0.0000 51.8122 0.0000 0.0000
# 5 0.0000 0.0000 0.0000 0.0000 -6.2825 0.0000
# 6 0.0000 0.0000 0.0000 0.0000 0.0000 -0.5108
#
#
#
# Elastic Compliance Matrix: (Units=1/GPa)
#
#
# Indices 1 2 3 4 5 6 
#
# 1 0.012054 0.002603 0.001632 0.000000 0.000000 0.000000
# 2 0.002603 0.011193 0.000969 0.000000 0.000000 0.000000
# 3 0.001632 0.000969 0.010135 0.000000 0.000000 0.000000
# 4 0.000000 0.000000 0.000000 0.019300 0.000000 0.000000
# 5 0.000000 0.000000 0.000000 0.000000 -0.159172 0.000000
# 6 0.000000 0.000000 0.000000 0.000000 0.000000 -1.957840
#
#
# Mechanical properties :
#
#
# Convention : Reuss Voigt Hill
#
# Bulk Modulus (GPa) = 22.83654 23.19029 23.01342
# Shear Modulus (GPa) = -2.42702 30.49828 14.03563
#
# Velocity S-wave (km/s) = -1.04247 3.69544 2.50694
# Velocity P-wave (km/s) = 2.96253 5.34718 4.32255
#
# Compressibility (1/GPa) = 0.04378947
#
# Stress axis : x y z
#
# Youngs Moduli (GPa) = 82.96272 89.34219 98.66757
#
# Poissons Ratio (x) = -0.23253 -0.16107
# Poissons Ratio (y) = -0.21592 -0.09559
# Poissons Ratio (z) = -0.13543 -0.08656
#
# Static dielectric constant tensor:
#      x y z
#    x 2.099560 0.000000 0.000000 
#    y 0.000000 1.743710 0.000000 
#    z 0.000000 0.000000 1.765120 
# 
# From -- ./inp_files/42702.got.cif
#   From: 2010.05.17/outbox.cif.g08.bks.cpg/sg63_22_cif.got.tgz:42702.got - 2010.06.03 15:47:04.
