data_PCOD9469394
_publ_section_title
;
Structure prediction by ZEFSAII (Michael W. Deem and Ramdas Pophale) SiO2 
 PCOD9469394
Probable space group: C M C M
;
_chemical_formula_sum "Si O2"
_cell_formula_units_Z 80
_cell_length_a 13.483001
_cell_length_b 18.311322
_cell_length_c 18.469407
_cell_angle_alpha 90.000000
_cell_angle_beta 90.000000
_cell_angle_gamma 90.000000
_cell_volume 4559.940944
_symmetry_space_group_name_H-M "C M C M"
_symmetry_group_IT_number 63
_symmetry_cell_setting 'orthorhombic'
loop_
_space_group_symop_operation_xyz
x,y,z
-x,-y,1/2+z
x,-y,-z
-x,y,1/2-z
-x,-y,-z
x,y,1/2-z
-x,y,z
x,-y,1/2+z
1/2+x,1/2+y,z
1/2-x,1/2-y,1/2+z
1/2+x,1/2-y,-z
1/2-x,1/2+y,1/2-z
1/2-x,1/2-y,-z
1/2+x,1/2+y,1/2-z
1/2-x,1/2+y,z
1/2+x,1/2-y,1/2+z
loop_
_atom_site_type_symbol
_atom_site_label
_atom_site_fract_x
_atom_site_fract_y
_atom_site_fract_z
Si Si1 0.117787 0.441386 0.095439
Si Si2 0.887488 0.750501 0.110425
Si Si3 0.811547 0.596169 0.433577
Si Si4 0.112634 0.180437 0.050000
Si Si5 0.682788 0.203708 0.831514
O O1 0.170341 0.519365 0.105341
O O2 0.152408 0.378517 0.149445
O O3 0.000000 0.451556 0.099477
O O4 0.145254 0.413915 0.014497
O O5 0.866612 0.664034 0.103881
O O6 0.800663 0.785419 0.157766
O O7 0.000000 0.764204 0.134165
O O8 0.875175 0.782821 0.029047
O O9 0.696919 0.619656 0.440048
O O10 0.132469 0.242676 0.109953
O O11 0.000000 0.153552 0.055946
O O12 0.653844 0.222693 0.750000
#
# Coordination Sequence:
#
# PCOD9469394 Si02
#       5
#    16  16  16  16  16
#     4  11  20  32  52  80 111 142 174 217 274 325
#     4  10  18  35  59  82 108 141 183 228 268 316
#     4  10  18  33  54  82 109 135 177 227 268 311
#     4  10  19  35  58  82 108 141 183 227 268 317
#     4  11  22  36  54  80 113 144 180 225 273 330
#
# _framework density 17.544087999999999
#
# number of rings (size 3 to 8) (size 9 to 14) (size 15 to 20)
#    0.000    1.600    4.000    4.200    0.000    2.000 
#    0.000    7.000    0.000    4.800    0.000    0.000 
#    0.000    0.000    0.000    0.000    0.000    0.000 
#
# Total GULP energy -223324.080978 kJ/mol
# GULP energy per Si atom -5583.102024 kJ/mol
# Density = 1.750416 g / cm^3
# Si number density = 17.544088 Si / 1000 Ang^3
#
#
#
# Elastic Constant Matrix: (Units=GPa)
#
#
# Indices 1 2 3 4 5 6 
#
# 1 100.2623 52.0366 -7.8507 0.0000 0.0000 0.0000
# 2 52.0366 106.5255 8.0201 0.0000 0.0000 0.0000
# 3 -7.8507 8.0201 36.9175 0.0000 0.0000 0.0000
# 4 0.0000 0.0000 0.0000 13.5953 0.0000 0.0000
# 5 0.0000 0.0000 0.0000 0.0000 -1.5121 0.0000
# 6 0.0000 0.0000 0.0000 0.0000 0.0000 15.1387
#
#
#
# Elastic Compliance Matrix: (Units=1/GPa)
#
#
# Indices 1 2 3 4 5 6 
#
# 1 0.014079 -0.007221 0.004563 0.000000 0.000000 0.000000
# 2 -0.007221 0.013247 -0.004413 0.000000 0.000000 0.000000
# 3 0.004563 -0.004413 0.029016 0.000000 0.000000 0.000000
# 4 0.000000 0.000000 0.000000 0.073555 0.000000 0.000000
# 5 0.000000 0.000000 0.000000 0.000000 -0.661333 0.000000
# 6 0.000000 0.000000 0.000000 0.000000 0.000000 0.066056
#
#
# Mechanical properties :
#
#
# Convention : Reuss Voigt Hill
#
# Bulk Modulus (GPa) = 23.69722 38.67968 31.18845
# Shear Modulus (GPa) = -11.43720 18.21099 3.38690
#
# Velocity S-wave (km/s) = -2.55603 3.22532 1.39093
# Velocity P-wave (km/s) = 2.19671 5.99710 4.51612
#
# Compressibility (1/GPa) = 0.04219904
#
# Stress axis : x y z
#
# Youngs Moduli (GPa) = 71.02906 75.48877 34.46316
#
# Poissons Ratio (x) = 0.54509 -0.15724
# Poissons Ratio (y) = 0.51289 0.15210
# Poissons Ratio (z) = -0.32408 0.33316
#
# Static dielectric constant tensor:
#      x y z
#    x 1.607160 0.000000 0.000000 
#    y 0.000000 1.583050 0.000000 
#    z 0.000000 0.000000 1.561410 
# 
# From -- ./inp_files/43979.got.cif
#   From: 2010.05.17/outbox.cif.g08.bks.cpg/sg63_22_cif.got.tgz:43979.got - 2010.06.03 15:47:04.
