data_PCOD9469083
_publ_section_title
;
Structure prediction by ZEFSAII (Michael W. Deem and Ramdas Pophale) SiO2 
 PCOD9469083
Probable space group: C M C M
;
_chemical_formula_sum "Si O2"
_cell_formula_units_Z 112
_cell_length_a 30.609208
_cell_length_b 11.881978
_cell_length_c 15.696389
_cell_angle_alpha 90.000000
_cell_angle_beta 90.000000
_cell_angle_gamma 90.000000
_cell_volume 5708.744283
_symmetry_space_group_name_H-M "C M C M"
_symmetry_group_IT_number 63
_symmetry_cell_setting 'orthorhombic'
loop_
_space_group_symop_operation_xyz
x,y,z
-x,-y,1/2+z
x,-y,-z
-x,y,1/2-z
-x,-y,-z
x,y,1/2-z
-x,y,z
x,-y,1/2+z
1/2+x,1/2+y,z
1/2-x,1/2-y,1/2+z
1/2+x,1/2-y,-z
1/2-x,1/2+y,1/2-z
1/2-x,1/2-y,-z
1/2+x,1/2+y,1/2-z
1/2-x,1/2+y,z
1/2+x,1/2-y,1/2+z
loop_
_atom_site_type_symbol
_atom_site_label
_atom_site_fract_x
_atom_site_fract_y
_atom_site_fract_z
Si Si1 0.122360 0.621304 0.645386
Si Si2 0.678470 0.340575 0.151088
Si Si3 0.311264 0.300843 0.849250
Si Si4 0.339164 0.096896 0.153121
Si Si5 0.949868 0.802669 0.646950
Si Si6 0.748062 0.980847 0.594121
Si Si7 0.883656 0.019837 0.399939
O O1 0.122592 0.620676 0.750000
O O2 0.166607 0.687139 0.619333
O O3 0.126456 0.492546 0.615979
O O4 0.081357 0.698565 0.619389
O O5 0.690692 0.327899 0.250000
O O6 0.671130 0.217346 0.111523
O O7 0.716336 0.421592 0.113571
O O8 0.632167 0.404949 0.143061
O O9 0.298522 0.291060 0.750000
O O10 0.272923 0.360939 0.899600
O O11 0.350891 0.389521 0.858011
O O12 0.353449 0.121329 0.250000
O O13 0.293038 0.031324 0.155136
O O14 0.947919 0.806560 0.750000
O O15 0.000000 0.787078 0.621292
O O16 0.929997 0.920717 0.613728
O O17 0.731066 0.000000 0.500000
O O18 0.875345 0.000000 0.500000
#
# Coordination Sequence:
#
# PCOD9469083 Si02
#       7
#    16  16  16  16  16  16  16
#     4   8  16  31  51  74  97 123 161 212 253 292
#     4  10  20  35  54  71  98 138 179 212 249 297
#     4   9  16  30  52  69  91 132 177 210 251 295
#     4  10  21  35  50  70  96 135 178 211 250 300
#     4   9  17  32  57  83 101 124 164 209 253 306
#     4  11  22  34  46  71 102 133 171 223 256 295
#     4  10  18  31  50  77 106 134 158 205 256 305
#
# _framework density 19.619025000000001
#
# number of rings (size 3 to 8) (size 9 to 14) (size 15 to 20)
#    0.000    2.429    0.000    6.000    2.000    0.857 
#    5.143    0.000    0.000    0.857    0.000    5.000 
#    0.000    0.000    0.000    0.000    0.000    0.000 
#
# Total GULP energy -311984.287427 kJ/mol
# GULP energy per Si atom -5571.147990 kJ/mol
# Density = 1.957437 g / cm^3
# Si number density = 19.619025 Si / 1000 Ang^3
#
#
#
# Elastic Constant Matrix: (Units=GPa)
#
#
# Indices 1 2 3 4 5 6 
#
# 1 75.9889 46.8234 -11.8634 0.0000 0.0000 0.0000
# 2 46.8234 141.9647 -4.5286 0.0000 0.0000 0.0000
# 3 -11.8634 -4.5286 32.6723 0.0000 0.0000 0.0000
# 4 0.0000 0.0000 0.0000 -27.2129 0.0000 0.0000
# 5 0.0000 0.0000 0.0000 0.0000 0.9990 0.0000
# 6 0.0000 0.0000 0.0000 0.0000 0.0000 18.6535
#
#
#
# Elastic Compliance Matrix: (Units=1/GPa)
#
#
# Indices 1 2 3 4 5 6 
#
# 1 0.017470 -0.005585 0.005570 0.000000 0.000000 0.000000
# 2 -0.005585 0.008860 -0.000800 0.000000 0.000000 0.000000
# 3 0.005570 -0.000800 0.032518 0.000000 0.000000 0.000000
# 4 0.000000 0.000000 0.000000 -0.036747 0.000000 0.000000
# 5 0.000000 0.000000 0.000000 0.000000 1.000975 0.000000
# 6 0.000000 0.000000 0.000000 0.000000 0.000000 0.053609
#
#
# Mechanical properties :
#
#
# Convention : Reuss Voigt Hill
#
# Bulk Modulus (GPa) = 17.47640 34.60986 26.04313
# Shear Modulus (GPa) = 4.55627 13.16756 8.86191
#
# Velocity S-wave (km/s) = 1.52559 2.59349 2.12763
# Velocity P-wave (km/s) = 3.46849 5.16212 4.39761
#
# Compressibility (1/GPa) = 0.05722001
#
# Stress axis : x y z
#
# Youngs Moduli (GPa) = 57.23958 112.86164 30.75178
#
# Poissons Ratio (x) = 0.63028 -0.17127
# Poissons Ratio (y) = 0.31966 0.02459
# Poissons Ratio (z) = -0.31880 0.09025
#
# Static dielectric constant tensor:
#      x y z
#    x 1.690470 0.000000 0.000000 
#    y 0.000000 1.772130 0.000000 
#    z 0.000000 0.000000 1.930190 
# 
# From -- ./inp_files/38541.got.cif
#   From: 2010.05.17/outbox.cif.g08.bks.cpg/sg63_20_cif.got.tgz:38541.got - 2010.06.03 15:47:04.
