data_PCOD9469016
_publ_section_title
;
Structure prediction by ZEFSAII (Michael W. Deem and Ramdas Pophale) SiO2 
 PCOD9469016
Probable space group: C M C M
;
_chemical_formula_sum "Si O2"
_cell_formula_units_Z 80
_cell_length_a 8.403396
_cell_length_b 22.732060
_cell_length_c 21.190271
_cell_angle_alpha 90.000000
_cell_angle_beta 90.000000
_cell_angle_gamma 90.000000
_cell_volume 4047.903347
_symmetry_space_group_name_H-M "C M C M"
_symmetry_group_IT_number 63
_symmetry_cell_setting 'orthorhombic'
loop_
_space_group_symop_operation_xyz
x,y,z
-x,-y,1/2+z
x,-y,-z
-x,y,1/2-z
-x,-y,-z
x,y,1/2-z
-x,y,z
x,-y,1/2+z
1/2+x,1/2+y,z
1/2-x,1/2-y,1/2+z
1/2+x,1/2-y,-z
1/2-x,1/2+y,1/2-z
1/2-x,1/2-y,-z
1/2+x,1/2+y,1/2-z
1/2-x,1/2+y,z
1/2+x,1/2-y,1/2+z
loop_
_atom_site_type_symbol
_atom_site_label
_atom_site_fract_x
_atom_site_fract_y
_atom_site_fract_z
Si Si1 0.313228 0.296895 0.250000
Si Si2 0.309781 0.069006 0.992108
Si Si3 0.318326 0.123120 0.638602
Si Si4 0.675300 0.487892 0.319583
Si Si5 0.684362 0.388913 0.618878
Si Si6 0.688602 0.333071 0.750000
O O1 0.500000 0.284399 0.250000
O O2 0.269656 0.333325 0.186617
O O3 0.216962 0.236315 0.250000
O O4 0.500000 0.064173 0.984072
O O5 0.249233 0.103736 0.929765
O O6 0.272970 0.110227 0.052254
O O7 0.252969 0.000000 0.000000
O O8 0.500000 0.143582 0.631276
O O9 0.309406 0.059922 0.672672
O O10 0.680970 0.514183 0.250000
O O11 0.500000 0.459018 0.326173
O O12 0.685637 0.541791 0.365724
O O13 0.500000 0.369969 0.610575
O O14 0.750451 0.357871 0.682368
O O15 0.500000 0.347726 0.750000
#
# Coordination Sequence:
#
# PCOD9469016 Si02
#       6
#     8  16  16  16  16   8
#     4  12  26  43  62  85 111 146 200 254 293 340
#     4  10  21  36  54  86 128 160 190 231 282 349
#     4  11  22  37  58  84 118 158 193 233 288 343
#     4  10  18  30  52  86 121 150 185 234 287 341
#     4  10  20  35  59  88 120 155 191 236 288 345
#     4  10  22  43  64  85 113 150 200 248 293 344
#
# _framework density 19.763316
#
# number of rings (size 3 to 8) (size 9 to 14) (size 15 to 20)
#    0.000    1.600    4.000    1.500    0.000    2.800 
#    0.000    1.000    0.000    0.000    0.000    0.000 
#    0.000    0.000    0.000    0.000    0.000    0.000 
#
# Total GULP energy -222686.036222 kJ/mol
# GULP energy per Si atom -5567.150906 kJ/mol
# Density = 1.971833 g / cm^3
# Si number density = 19.763316 Si / 1000 Ang^3
#
#
#
# Elastic Constant Matrix: (Units=GPa)
#
#
# Indices 1 2 3 4 5 6 
#
# 1 9.3647 -3.1729 8.9452 0.0000 0.0000 0.0000
# 2 -3.1729 60.1474 36.6190 0.0000 0.0000 0.0000
# 3 8.9452 36.6190 165.1234 0.0000 0.0000 0.0000
# 4 0.0000 0.0000 0.0000 11.7987 0.0000 0.0000
# 5 0.0000 0.0000 0.0000 0.0000 3.3254 0.0000
# 6 0.0000 0.0000 0.0000 0.0000 0.0000 19.0781
#
#
#
# Elastic Compliance Matrix: (Units=1/GPa)
#
#
# Indices 1 2 3 4 5 6 
#
# 1 0.119489 0.011843 -0.009100 0.000000 0.000000 0.000000
# 2 0.011843 0.020395 -0.005164 0.000000 0.000000 0.000000
# 3 -0.009100 -0.005164 0.007694 0.000000 0.000000 0.000000
# 4 0.000000 0.000000 0.000000 0.084755 0.000000 0.000000
# 5 0.000000 0.000000 0.000000 0.000000 0.300717 0.000000
# 6 0.000000 0.000000 0.000000 0.000000 0.000000 0.052416
#
#
# Mechanical properties :
#
#
# Convention : Reuss Voigt Hill
#
# Bulk Modulus (GPa) = 7.00591 35.49090 21.24841
# Shear Modulus (GPa) = 7.83838 19.65670 13.74754
#
# Velocity S-wave (km/s) = 1.99367 3.15716 2.64030
# Velocity P-wave (km/s) = 2.97527 5.59349 4.47992
#
# Compressibility (1/GPa) = 0.14273671
#
# Stress axis : x y z
#
# Youngs Moduli (GPa) = 8.36896 49.03202 129.96557
#
# Poissons Ratio (x) = -0.58070 1.18262
# Poissons Ratio (y) = -0.09912 0.67121
# Poissons Ratio (z) = 0.07615 0.25323
#
# Static dielectric constant tensor:
#      x y z
#    x 1.731810 0.000000 0.000000 
#    y 0.000000 1.664690 0.000000 
#    z 0.000000 0.000000 1.845150 
# 
# From -- ./inp_files/50947.got.cif
#   From: 2010.05.17/outbox.cif.g08.bks.cpg/sg63_26_cif.got.tgz:50947.got - 2010.06.03 15:47:04.
