data_PCOD9469238
_publ_section_title
;
Structure prediction by ZEFSAII (Michael W. Deem and Ramdas Pophale) SiO2 
 PCOD9469238
Probable space group: C M C M
;
_chemical_formula_sum "Si O2"
_cell_formula_units_Z 52
_cell_length_a 13.962669
_cell_length_b 30.260740
_cell_length_c 5.494597
_cell_angle_alpha 90.000000
_cell_angle_beta 90.000000
_cell_angle_gamma 90.000000
_cell_volume 2321.580950
_symmetry_space_group_name_H-M "C M C M"
_symmetry_group_IT_number 63
_symmetry_cell_setting 'orthorhombic'
loop_
_space_group_symop_operation_xyz
x,y,z
-x,-y,1/2+z
x,-y,-z
-x,y,1/2-z
-x,-y,-z
x,y,1/2-z
-x,y,z
x,-y,1/2+z
1/2+x,1/2+y,z
1/2-x,1/2-y,1/2+z
1/2+x,1/2-y,-z
1/2-x,1/2+y,1/2-z
1/2-x,1/2-y,-z
1/2+x,1/2+y,1/2-z
1/2-x,1/2+y,z
1/2+x,1/2-y,1/2+z
loop_
_atom_site_type_symbol
_atom_site_label
_atom_site_fract_x
_atom_site_fract_y
_atom_site_fract_z
Si Si1 0.613838 0.473979 0.750000
Si Si2 0.856003 0.144410 0.750000
Si Si3 0.363601 0.158896 0.250000
Si Si4 0.135673 0.611850 0.750000
Si Si5 0.845839 0.120383 0.250000
Si Si6 0.000000 0.470917 0.250000
Si Si7 0.810555 0.753614 0.250000
O O1 0.630687 0.500000 0.500000
O O2 0.500000 0.461726 0.750000
O O3 0.680032 0.430964 0.750000
O O4 0.750757 0.120057 0.750000
O O5 0.899266 0.129324 0.498437
O O6 0.851278 0.197151 0.750000
O O7 0.395684 0.135877 0.499610
O O8 0.247601 0.151776 0.250000
O O9 0.380019 0.211243 0.250000
O O10 0.091675 0.562727 0.750000
O O11 0.000000 0.500000 0.500000
O O12 0.750000 0.750000 0.500000
#
# Coordination Sequence:
#
# PCOD9469238 Si02
#       7
#     8   8   8   8   8   4   8
#     4  10  21  37  54  73  98 138 185 214 251 319
#     4  10  19  32  53  87 108 137 172 216 272 323
#     4  10  19  33  55  87 111 136 175 221 276 324
#     4  10  20  37  55  78 107 138 186 228 275 330
#     4  10  18  32  51  79 108 132 172 216 268 313
#     4  12  26  44  60  76 102 154 208 238 284 342
#     4  12  16  30  53  88 113 138 168 206 256 332
#
# _framework density 22.398530000000001
#
# number of rings (size 3 to 8) (size 9 to 14) (size 15 to 20)
#    0.000    1.538    6.154    1.846    0.000    0.000 
#    0.000   18.462    0.000    0.000   22.000    0.000 
#    0.000    0.000    0.000    0.000    0.000    0.000 
#
# Total GULP energy -145061.011681 kJ/mol
# GULP energy per Si atom -5579.269680 kJ/mol
# Density = 2.234755 g / cm^3
# Si number density = 22.398530 Si / 1000 Ang^3
#
#
#
# Elastic Constant Matrix: (Units=GPa)
#
#
# Indices 1 2 3 4 5 6 
#
# 1 100.9040 22.2677 14.7011 0.0000 0.0000 0.0000
# 2 22.2677 183.6152 83.5422 0.0000 0.0000 0.0000
# 3 14.7011 83.5422 279.2451 0.0000 0.0000 0.0000
# 4 0.0000 0.0000 0.0000 55.2404 0.0000 0.0000
# 5 0.0000 0.0000 0.0000 0.0000 -38.2199 0.0000
# 6 0.0000 0.0000 0.0000 0.0000 0.0000 153.5739
#
#
#
# Elastic Compliance Matrix: (Units=1/GPa)
#
#
# Indices 1 2 3 4 5 6 
#
# 1 0.010192 -0.001148 -0.000193 0.000000 0.000000 0.000000
# 2 -0.001148 0.006434 -0.001864 0.000000 0.000000 0.000000
# 3 -0.000193 -0.001864 0.004149 0.000000 0.000000 0.000000
# 4 0.000000 0.000000 0.000000 0.018103 0.000000 0.000000
# 5 0.000000 0.000000 0.000000 0.000000 -0.026164 0.000000
# 6 0.000000 0.000000 0.000000 0.000000 0.000000 0.006512
#
#
# Mechanical properties :
#
#
# Convention : Reuss Voigt Hill
#
# Bulk Modulus (GPa) = 69.62110 89.42071 79.52090
# Shear Modulus (GPa) = 164.34779 63.66912 114.00845
#
# Velocity S-wave (km/s) = 8.57518 5.33735 7.14216
# Velocity P-wave (km/s) = 11.36641 8.83132 10.17810
#
# Compressibility (1/GPa) = 0.01436346
#
# Stress axis : x y z
#
# Youngs Moduli (GPa) = 98.11699 155.43276 241.02203
#
# Poissons Ratio (x) = 0.17846 0.04653
# Poissons Ratio (y) = 0.11265 0.44934
# Poissons Ratio (z) = 0.01894 0.28978
#
# Static dielectric constant tensor:
#      x y z
#    x 1.778590 0.000000 0.000000 
#    y 0.000000 1.812620 0.000000 
#    z 0.000000 0.000000 1.823840 
# 
# From -- ./inp_files/790.got.cif
#   From: 2010.05.17/outbox.cif.g08.bks.cpg/sg63_1_cif.got.tgz:790.got - 2010.06.03 15:47:04.
