data_PCOD9469007
_publ_section_title
;
Structure prediction by ZEFSAII (Michael W. Deem and Ramdas Pophale) SiO2 
 PCOD9469007
Probable space group: C M C M
;
_chemical_formula_sum "Si O2"
_cell_formula_units_Z 128
_cell_length_a 16.134433
_cell_length_b 19.002499
_cell_length_c 23.396326
_cell_angle_alpha 90.000000
_cell_angle_beta 90.000000
_cell_angle_gamma 90.000000
_cell_volume 7173.185970
_symmetry_space_group_name_H-M "C M C M"
_symmetry_group_IT_number 63
_symmetry_cell_setting 'orthorhombic'
loop_
_space_group_symop_operation_xyz
x,y,z
-x,-y,1/2+z
x,-y,-z
-x,y,1/2-z
-x,-y,-z
x,y,1/2-z
-x,y,z
x,-y,1/2+z
1/2+x,1/2+y,z
1/2-x,1/2-y,1/2+z
1/2+x,1/2-y,-z
1/2-x,1/2+y,1/2-z
1/2-x,1/2-y,-z
1/2+x,1/2+y,1/2-z
1/2-x,1/2+y,z
1/2+x,1/2-y,1/2+z
loop_
_atom_site_type_symbol
_atom_site_label
_atom_site_fract_x
_atom_site_fract_y
_atom_site_fract_z
Si Si1 0.410537 0.054524 0.139367
Si Si2 0.598711 0.542398 0.681272
Si Si3 0.228186 0.082813 0.316744
Si Si4 0.149195 0.553519 0.949966
Si Si5 0.301600 0.361806 0.402986
Si Si6 0.277172 0.292363 0.905660
Si Si7 0.590207 0.311712 0.996817
Si Si8 0.883391 0.338407 0.540430
O O1 0.500000 0.052077 0.169904
O O2 0.323081 0.056145 0.172667
O O3 0.409974 0.122980 0.098082
O O4 0.404255 0.990187 0.094812
O O5 0.604611 0.552734 0.750000
O O6 0.500000 0.533652 0.667779
O O7 0.657791 0.474917 0.667084
O O8 0.640193 0.607201 0.646874
O O9 0.218053 0.097253 0.250000
O O10 0.218724 0.153863 0.353329
O O11 0.224894 0.587183 0.915848
O O12 0.178418 0.500000 0.000000
O O13 0.101705 0.613339 0.985554
O O14 0.262298 0.283957 0.392004
O O15 0.355533 0.358888 0.460946
O O16 0.363624 0.290401 0.938662
O O17 0.215044 0.327319 0.952078
O O18 0.500000 0.342183 0.985940
O O19 0.583289 0.238694 0.031354
#
# Coordination Sequence:
#
# PCOD9469007 Si02
#       8
#    16  16  16  16  16  16  16  16
#     4  10  20  32  53  83 110 142 183 226 273 332
#     4  10  22  40  62  85 109 146 198 246 288 339
#     4  10  22  40  60  79 105 147 189 238 293 340
#     4  10  18  30  52  78 113 149 182 221 270 334
#     4  11  19  36  56  82 115 153 185 234 288 335
#     4  10  20  35  55  78 113 148 189 230 284 343
#     4  11  20  30  51  82 113 147 184 223 278 337
#     4   9  17  33  49  72 114 150 177 213 265 329
#
# _framework density 17.844232999999999
#
# number of rings (size 3 to 8) (size 9 to 14) (size 15 to 20)
#    0.000    1.875    3.750    1.500    0.000    4.000 
#    0.000    0.625    0.000    2.250    0.000    0.000 
#    0.000    0.000    0.000    0.000    0.000    0.000 
#
# Total GULP energy -356490.805168 kJ/mol
# GULP energy per Si atom -5570.168831 kJ/mol
# Density = 1.780362 g / cm^3
# Si number density = 17.844233 Si / 1000 Ang^3
#
#
#
# Elastic Constant Matrix: (Units=GPa)
#
#
# Indices 1 2 3 4 5 6 
#
# 1 132.0719 44.6947 39.3678 0.0000 0.0000 0.0000
# 2 44.6947 67.5947 26.2072 0.0000 0.0000 0.0000
# 3 39.3678 26.2072 56.6694 0.0000 0.0000 0.0000
# 4 0.0000 0.0000 0.0000 20.5121 0.0000 0.0000
# 5 0.0000 0.0000 0.0000 0.0000 7.1515 0.0000
# 6 0.0000 0.0000 0.0000 0.0000 0.0000 -7.6937
#
#
#
# Elastic Compliance Matrix: (Units=1/GPa)
#
#
# Indices 1 2 3 4 5 6 
#
# 1 0.010861 -0.005186 -0.005147 0.000000 0.000000 0.000000
# 2 -0.005186 0.020502 -0.005879 0.000000 0.000000 0.000000
# 3 -0.005147 -0.005879 0.023940 0.000000 0.000000 0.000000
# 4 0.000000 0.000000 0.000000 0.048752 0.000000 0.000000
# 5 0.000000 0.000000 0.000000 0.000000 0.139831 0.000000
# 6 0.000000 0.000000 0.000000 0.000000 0.000000 -0.129976
#
#
# Mechanical properties :
#
#
# Convention : Reuss Voigt Hill
#
# Bulk Modulus (GPa) = 43.70518 52.98615 48.34567
# Shear Modulus (GPa) = 32.47594 13.73171 23.10382
#
# Velocity S-wave (km/s) = 4.27074 2.77705 3.60217
# Velocity P-wave (km/s) = 6.99033 6.32779 6.66729
#
# Compressibility (1/GPa) = 0.02288058
#
# Stress axis : x y z
#
# Youngs Moduli (GPa) = 92.07529 48.77487 41.77062
#
# Poissons Ratio (x) = 0.25294 0.21498
# Poissons Ratio (y) = 0.47749 0.24557
# Poissons Ratio (z) = 0.47387 0.28674
#
# Static dielectric constant tensor:
#      x y z
#    x 1.690250 0.000000 0.000000 
#    y 0.000000 1.621820 0.000000 
#    z 0.000000 0.000000 1.589460 
# 
# From -- ./inp_files/64092.got.cif
#   From: 2010.05.17/outbox.cif.g08.bks.cpg/sg63_33_cif.got.tgz:64092.got - 2010.06.03 15:47:04.
