data_PCOD9469115
_publ_section_title
;
Structure prediction by ZEFSAII (Michael W. Deem and Ramdas Pophale) SiO2 
 PCOD9469115
Probable space group: C M C M
;
_chemical_formula_sum "Si O2"
_cell_formula_units_Z 96
_cell_length_a 25.159528
_cell_length_b 23.389881
_cell_length_c 7.652235
_cell_angle_alpha 90.000000
_cell_angle_beta 90.000000
_cell_angle_gamma 90.000000
_cell_volume 4503.174749
_symmetry_space_group_name_H-M "C M C M"
_symmetry_group_IT_number 63
_symmetry_cell_setting 'orthorhombic'
loop_
_space_group_symop_operation_xyz
x,y,z
-x,-y,1/2+z
x,-y,-z
-x,y,1/2-z
-x,-y,-z
x,y,1/2-z
-x,y,z
x,-y,1/2+z
1/2+x,1/2+y,z
1/2-x,1/2-y,1/2+z
1/2+x,1/2-y,-z
1/2-x,1/2+y,1/2-z
1/2-x,1/2-y,-z
1/2+x,1/2+y,1/2-z
1/2-x,1/2+y,z
1/2+x,1/2-y,1/2+z
loop_
_atom_site_type_symbol
_atom_site_label
_atom_site_fract_x
_atom_site_fract_y
_atom_site_fract_z
Si Si1 0.114668 0.673001 0.535332
Si Si2 0.308115 0.273470 0.959287
Si Si3 0.500000 0.346546 0.535926
Si Si4 0.500000 0.213915 0.536531
Si Si5 0.818651 0.435345 0.044546
Si Si6 0.414326 0.437924 0.540639
Si Si7 0.301863 0.402738 0.960642
O O1 0.115371 0.672690 0.750000
O O2 0.148435 0.728350 0.477227
O O3 0.144640 0.615787 0.471241
O O4 0.053843 0.682081 0.481589
O O5 0.314811 0.276587 0.750000
O O6 0.309611 0.337954 0.025839
O O7 0.250000 0.250000 0.000000
O O8 0.500000 0.345347 0.750000
O O9 0.500000 0.280585 0.479981
O O10 0.449203 0.384192 0.479191
O O11 0.500000 0.214954 0.750000
O O12 0.823432 0.429970 0.250000
O O13 0.756410 0.425690 0.003738
O O14 0.834224 0.500000 0.000000
O O15 0.437572 0.500000 0.500000
O O16 0.413007 0.432838 0.750000
O O17 0.353760 0.435769 0.473417
O O18 0.303759 0.402432 0.750000
#
# Coordination Sequence:
#
# PCOD9469115 Si02
#       7
#    16  16   8   8  16  16  16
#     4   9  18  32  52  79 108 135 171 215 260 311
#     4  10  18  31  51  79 109 136 169 213 261 310
#     4   9  17  31  52  75 101 133 172 215 260 306
#     4   9  16  31  56  81 103 131 166 217 268 308
#     4  11  22  36  53  76 106 138 175 216 261 316
#     4  10  20  33  49  74 104 139 179 216 253 299
#     4  10  20  33  52  78 108 140 175 215 261 311
#
# _framework density 21.318294000000002
#
# number of rings (size 3 to 8) (size 9 to 14) (size 15 to 20)
#    0.000    2.167    1.667    2.250    0.000    6.000 
#    0.000    0.417    0.000    0.000    0.000    8.167 
#    0.000    0.000    0.000    0.000    0.000    0.000 
#
# Total GULP energy -268023.514182 kJ/mol
# GULP energy per Si atom -5583.823212 kJ/mol
# Density = 2.126977 g / cm^3
# Si number density = 21.318294 Si / 1000 Ang^3
#
#
#
# Elastic Constant Matrix: (Units=GPa)
#
#
# Indices 1 2 3 4 5 6 
#
# 1 159.3356 70.4640 -0.6721 0.0000 0.0000 0.0000
# 2 70.4640 148.4203 2.7760 0.0000 0.0000 0.0000
# 3 -0.6721 2.7760 38.4770 0.0000 0.0000 0.0000
# 4 0.0000 0.0000 0.0000 8.7492 0.0000 0.0000
# 5 0.0000 0.0000 0.0000 0.0000 8.5197 0.0000
# 6 0.0000 0.0000 0.0000 0.0000 0.0000 18.4630
#
#
#
# Elastic Compliance Matrix: (Units=1/GPa)
#
#
# Indices 1 2 3 4 5 6 
#
# 1 0.007950 -0.003782 0.000412 0.000000 0.000000 0.000000
# 2 -0.003782 0.008546 -0.000683 0.000000 0.000000 0.000000
# 3 0.000412 -0.000683 0.026046 0.000000 0.000000 0.000000
# 4 0.000000 0.000000 0.000000 0.114296 0.000000 0.000000
# 5 0.000000 0.000000 0.000000 0.000000 0.117375 0.000000
# 6 0.000000 0.000000 0.000000 0.000000 0.000000 0.054162
#
#
# Mechanical properties :
#
#
# Convention : Reuss Voigt Hill
#
# Bulk Modulus (GPa) = 29.03921 54.59653 41.81787
# Shear Modulus (GPa) = 14.36943 25.39071 19.88007
#
# Velocity S-wave (km/s) = 2.59905 3.45487 3.05706
# Velocity P-wave (km/s) = 4.76005 6.44831 5.66739
#
# Compressibility (1/GPa) = 0.03443619
#
# Stress axis : x y z
#
# Youngs Moduli (GPa) = 125.77900 117.01307 38.39365
#
# Poissons Ratio (x) = 0.44257 -0.01581
# Poissons Ratio (y) = 0.47573 0.02621
# Poissons Ratio (z) = -0.05179 0.07988
#
# Static dielectric constant tensor:
#      x y z
#    x 1.768890 0.000000 0.000000 
#    y 0.000000 1.798420 0.000000 
#    z 0.000000 0.000000 1.780390 
# 
# From -- ./inp_files/22810.got.cif
#   From: 2010.05.17/outbox.cif.g08.bks.cpg/sg63_12_cif.got.tgz:22810.got - 2010.06.03 15:47:04.
