data_PCOD9469297
_publ_section_title
;
Structure prediction by ZEFSAII (Michael W. Deem and Ramdas Pophale) SiO2 
 PCOD9469297
Probable space group: C M C M
;
_chemical_formula_sum "Si O2"
_cell_formula_units_Z 88
_cell_length_a 23.023303
_cell_length_b 25.343705
_cell_length_c 8.642102
_cell_angle_alpha 90.000000
_cell_angle_beta 90.000000
_cell_angle_gamma 90.000000
_cell_volume 5042.630215
_symmetry_space_group_name_H-M "C M C M"
_symmetry_group_IT_number 63
_symmetry_cell_setting 'orthorhombic'
loop_
_space_group_symop_operation_xyz
x,y,z
-x,-y,1/2+z
x,-y,-z
-x,y,1/2-z
-x,-y,-z
x,y,1/2-z
-x,y,z
x,-y,1/2+z
1/2+x,1/2+y,z
1/2-x,1/2-y,1/2+z
1/2+x,1/2-y,-z
1/2-x,1/2+y,1/2-z
1/2-x,1/2-y,-z
1/2+x,1/2+y,1/2-z
1/2-x,1/2+y,z
1/2+x,1/2-y,1/2+z
loop_
_atom_site_type_symbol
_atom_site_label
_atom_site_fract_x
_atom_site_fract_y
_atom_site_fract_z
Si Si1 0.567108 0.735759 0.561743
Si Si2 0.000000 0.940805 0.436477
Si Si3 0.347176 0.057451 0.566047
Si Si4 0.568783 0.145763 0.063998
Si Si5 0.114874 0.874912 0.437535
Si Si6 0.780611 0.942152 0.934449
O O1 0.566811 0.735845 0.750000
O O2 0.500000 0.727659 0.514151
O O3 0.585451 0.794566 0.514392
O O4 0.604544 0.685613 0.512925
O O5 0.057890 0.908859 0.482768
O O6 0.000000 0.942936 0.250000
O O7 0.000000 0.000000 0.500000
O O8 0.342751 0.053895 0.750000
O O9 0.392978 0.101527 0.516281
O O10 0.283660 0.070252 0.497277
O O11 0.363932 0.000000 0.500000
O O12 0.576312 0.141958 0.250000
O O13 0.500000 0.139457 0.032612
O O14 0.118658 0.876325 0.250000
O O15 0.171811 0.900887 0.508123
O O16 0.779168 0.944545 0.750000
O O17 0.796368 0.000000 0.000000
#
# Coordination Sequence:
#
# PCOD9469297 Si02
#       6
#    16   8  16  16  16  16
#     4   8  14  29  54  80 107 142 181 218 262 313
#     4  10  20  30  46  72 106 140 177 224 267 310
#     4  11  22  38  59  81 107 139 175 217 266 320
#     4   9  18  34  58  86 113 141 174 214 261 316
#     4  10  18  32  53  78 106 141 183 223 265 314
#     4  11  22  37  55  76 104 140 181 223 271 323
#
# _framework density 17.45121
#
# number of rings (size 3 to 8) (size 9 to 14) (size 15 to 20)
#    0.000    2.182    0.909    6.000    0.000    2.909 
#    0.000    1.818    0.000    1.091    0.000    0.000 
#    0.000    0.000    0.000    0.000    0.000    0.000 
#
# Total GULP energy -245562.508445 kJ/mol
# GULP energy per Si atom -5580.966101 kJ/mol
# Density = 1.741149 g / cm^3
# Si number density = 17.451210 Si / 1000 Ang^3
#
#
#
# Elastic Constant Matrix: (Units=GPa)
#
#
# Indices 1 2 3 4 5 6 
#
# 1 81.2135 100.6268 48.3767 0.0000 0.0000 0.0000
# 2 100.6268 170.0077 61.3627 0.0000 0.0000 0.0000
# 3 48.3767 61.3627 76.5408 0.0000 0.0000 0.0000
# 4 0.0000 0.0000 0.0000 19.4160 0.0000 0.0000
# 5 0.0000 0.0000 0.0000 0.0000 19.6237 0.0000
# 6 0.0000 0.0000 0.0000 0.0000 0.0000 44.8422
#
#
#
# Elastic Compliance Matrix: (Units=1/GPa)
#
#
# Indices 1 2 3 4 5 6 
#
# 1 0.052685 -0.026969 -0.011678 0.000000 0.000000 0.000000
# 2 -0.026969 0.022082 -0.000658 0.000000 0.000000 0.000000
# 3 -0.011678 -0.000658 0.020973 0.000000 0.000000 0.000000
# 4 0.000000 0.000000 0.000000 0.051504 0.000000 0.000000
# 5 0.000000 0.000000 0.000000 0.000000 0.050959 0.000000
# 6 0.000000 0.000000 0.000000 0.000000 0.000000 0.022300
#
#
# Mechanical properties :
#
#
# Convention : Reuss Voigt Hill
#
# Bulk Modulus (GPa) = 58.37393 83.16604 70.76998
# Shear Modulus (GPa) = 16.40290 24.60280 20.50285
#
# Velocity S-wave (km/s) = 3.06915 3.75881 3.43135
# Velocity P-wave (km/s) = 6.78837 8.16076 7.50600
#
# Compressibility (1/GPa) = 0.01713093
#
# Stress axis : x y z
#
# Youngs Moduli (GPa) = 18.98068 45.28484 47.67957
#
# Poissons Ratio (x) = 1.22129 0.55680
# Poissons Ratio (y) = 0.51189 0.03137
# Poissons Ratio (z) = 0.22166 0.02980
#
# Static dielectric constant tensor:
#      x y z
#    x 1.566380 0.000000 0.000000 
#    y 0.000000 1.592300 0.000000 
#    z 0.000000 0.000000 1.586190 
# 
# From -- ./inp_files/8220.got.cif
#   From: 2010.05.17/outbox.cif.g08.bks.cpg/sg63_5_cif.got.tgz:8220.got - 2010.06.03 15:47:04.
