data_PCOD9469038
_publ_section_title
;
Structure prediction by ZEFSAII (Michael W. Deem and Ramdas Pophale) SiO2 
 PCOD9469038
Probable space group: C M C M
;
_chemical_formula_sum "Si O2"
_cell_formula_units_Z 84
_cell_length_a 24.798276
_cell_length_b 10.639184
_cell_length_c 16.749999
_cell_angle_alpha 90.000000
_cell_angle_beta 90.000000
_cell_angle_gamma 90.000000
_cell_volume 4419.209542
_symmetry_space_group_name_H-M "C M C M"
_symmetry_group_IT_number 63
_symmetry_cell_setting 'orthorhombic'
loop_
_space_group_symop_operation_xyz
x,y,z
-x,-y,1/2+z
x,-y,-z
-x,y,1/2-z
-x,-y,-z
x,y,1/2-z
-x,y,z
x,-y,1/2+z
1/2+x,1/2+y,z
1/2-x,1/2-y,1/2+z
1/2+x,1/2-y,-z
1/2-x,1/2+y,1/2-z
1/2-x,1/2-y,-z
1/2+x,1/2+y,1/2-z
1/2-x,1/2+y,z
1/2+x,1/2-y,1/2+z
loop_
_atom_site_type_symbol
_atom_site_label
_atom_site_fract_x
_atom_site_fract_y
_atom_site_fract_z
Si Si1 0.000000 0.692871 0.657718
Si Si2 0.500000 0.636673 0.750000
Si Si3 0.210188 0.501133 0.153515
Si Si4 0.909486 0.492059 0.404819
Si Si5 0.703425 0.709643 0.846555
Si Si6 0.500000 0.353994 0.513624
Si Si7 0.581159 0.722596 0.614998
O O1 0.948339 0.610336 0.633314
O O2 0.000000 0.817272 0.605181
O O3 0.000000 0.721530 0.750000
O O4 0.547004 0.647811 0.680108
O O5 0.204179 0.494286 0.250000
O O6 0.153033 0.467851 0.113971
O O7 0.255318 0.399993 0.129781
O O8 0.222320 0.647656 0.133778
O O9 0.918223 0.500000 0.500000
O O10 0.923080 0.628303 0.367317
O O11 0.697558 0.704930 0.750000
O O12 0.644148 0.690932 0.883182
O O13 0.500000 0.500000 0.500000
O O14 0.552350 0.298119 0.469537
#
# Coordination Sequence:
#
# PCOD9469038 Si02
#       7
#     8   4  16  16  16   8  16
#     4  12  24  40  64  94 123 162 209 260 333 387
#     4  10  18  30  60  94 112 148 210 252 294 386
#     4   9  19  35  58  83 121 160 207 259 309 369
#     4  11  21  37  61  91 124 155 198 261 320 375
#     4   9  17  35  57  89 118 157 202 257 310 373
#     4  11  24  45  58  83 128 169 201 265 310 378
#     4  10  20  36  61  90 119 158 207 251 319 373
#
# _framework density 19.007923999999999
#
# number of rings (size 3 to 8) (size 9 to 14) (size 15 to 20)
#    0.000    1.905    2.857    2.000    4.000    0.000 
#    6.857    4.762    0.000    0.000    0.000    0.000 
#    0.000    0.000    0.000    0.000    0.000    0.000 
#
# Total GULP energy -233993.037715 kJ/mol
# GULP energy per Si atom -5571.262803 kJ/mol
# Density = 1.896466 g / cm^3
# Si number density = 19.007924 Si / 1000 Ang^3
#
#
#
# Elastic Constant Matrix: (Units=GPa)
#
#
# Indices 1 2 3 4 5 6 
#
# 1 122.6809 81.8796 37.3711 0.0000 0.0000 0.0000
# 2 81.8796 100.3098 28.4919 0.0000 0.0000 0.0000
# 3 37.3711 28.4919 96.3592 0.0000 0.0000 0.0000
# 4 0.0000 0.0000 0.0000 13.9942 0.0000 0.0000
# 5 0.0000 0.0000 0.0000 0.0000 13.3166 0.0000
# 6 0.0000 0.0000 0.0000 0.0000 0.0000 26.0825
#
#
#
# Elastic Compliance Matrix: (Units=1/GPa)
#
#
# Indices 1 2 3 4 5 6 
#
# 1 0.018661 -0.014385 -0.002984 0.000000 0.000000 0.000000
# 2 -0.014385 0.021972 -0.000918 0.000000 0.000000 0.000000
# 3 -0.002984 -0.000918 0.011806 0.000000 0.000000 0.000000
# 4 0.000000 0.000000 0.000000 0.071458 0.000000 0.000000
# 5 0.000000 0.000000 0.000000 0.000000 0.075094 0.000000
# 6 0.000000 0.000000 0.000000 0.000000 0.000000 0.038340
#
#
# Mechanical properties :
#
#
# Convention : Reuss Voigt Hill
#
# Bulk Modulus (GPa) = 63.02774 68.31499 65.67137
# Shear Modulus (GPa) = 17.90881 22.11916 20.01398
#
# Velocity S-wave (km/s) = 3.07282 3.41498 3.24841
# Velocity P-wave (km/s) = 6.76907 7.18107 6.97811
#
# Compressibility (1/GPa) = 0.01586603
#
# Stress axis : x y z
#
# Youngs Moduli (GPa) = 53.58834 45.51346 84.69923
#
# Poissons Ratio (x) = 0.65469 0.25274
# Poissons Ratio (y) = 0.77085 0.07774
# Poissons Ratio (z) = 0.15990 0.04177
#
# Static dielectric constant tensor:
#      x y z
#    x 1.650410 0.000000 0.000000 
#    y 0.000000 1.681720 0.000000 
#    z 0.000000 0.000000 1.664570 
# 
# From -- ./inp_files/36628.got.cif
#   From: 2010.05.17/outbox.cif.g08.bks.cpg/sg63_19_cif.got.tgz:36628.got - 2010.06.03 15:47:04.
