data_PCOD9469143
_publ_section_title
;
Structure prediction by ZEFSAII (Michael W. Deem and Ramdas Pophale) SiO2 
 PCOD9469143
Probable space group: C M C M
;
_chemical_formula_sum "Si O2"
_cell_formula_units_Z 64
_cell_length_a 26.284564
_cell_length_b 5.464458
_cell_length_c 22.854506
_cell_angle_alpha 90.000000
_cell_angle_beta 90.000000
_cell_angle_gamma 90.000000
_cell_volume 3282.613175
_symmetry_space_group_name_H-M "C M C M"
_symmetry_group_IT_number 63
_symmetry_cell_setting 'orthorhombic'
loop_
_space_group_symop_operation_xyz
x,y,z
-x,-y,1/2+z
x,-y,-z
-x,y,1/2-z
-x,-y,-z
x,y,1/2-z
-x,y,z
x,-y,1/2+z
1/2+x,1/2+y,z
1/2-x,1/2-y,1/2+z
1/2+x,1/2-y,-z
1/2-x,1/2+y,1/2-z
1/2-x,1/2-y,-z
1/2+x,1/2+y,1/2-z
1/2-x,1/2+y,z
1/2+x,1/2-y,1/2+z
loop_
_atom_site_type_symbol
_atom_site_label
_atom_site_fract_x
_atom_site_fract_y
_atom_site_fract_z
Si Si1 0.889615 0.640695 0.576907
Si Si2 0.770683 0.732733 0.933320
Si Si3 0.441296 0.931208 0.682245
Si Si4 0.558404 0.355958 0.072322
O O1 0.830734 0.689912 0.566535
O O2 0.903763 0.605382 0.645833
O O3 0.907289 0.375046 0.553016
O O4 0.921476 0.877176 0.557219
O O5 0.744013 0.493939 0.906031
O O6 0.750000 0.750000 0.000000
O O7 0.429390 0.900048 0.750000
O O8 0.500000 0.021731 0.677004
O O9 0.440113 0.683745 0.643211
O O10 0.500000 0.319390 0.054363
#
# Coordination Sequence:
#
# PCOD9469143 Si02
#       4
#    16  16  16  16
#     4  10  18  31  52  77 107 142 174 217 266 307
#     4  10  21  37  57  81  99 127 183 239 271 308
#     4   8  16  29  48  78 111 141 173 205 248 317
#     4   9  17  29  47  78 109 141 169 201 252 321
#
# _framework density 19.496661
#
# number of rings (size 3 to 8) (size 9 to 14) (size 15 to 20)
#    1.500    1.250    0.000    3.000    0.000    1.000 
#    0.000    2.500    0.000    1.500    0.000  119.000 
#    0.000    0.000    0.000    0.000    0.000    0.000 
#
# Total GULP energy -178205.383492 kJ/mol
# GULP energy per Si atom -5568.918234 kJ/mol
# Density = 1.945229 g / cm^3
# Si number density = 19.496661 Si / 1000 Ang^3
#
#
#
# Elastic Constant Matrix: (Units=GPa)
#
#
# Indices 1 2 3 4 5 6 
#
# 1 149.5673 65.2616 14.4204 0.0000 0.0000 0.0000
# 2 65.2616 160.4025 11.8840 0.0000 0.0000 0.0000
# 3 14.4204 11.8840 87.5870 0.0000 0.0000 0.0000
# 4 0.0000 0.0000 0.0000 20.9753 0.0000 0.0000
# 5 0.0000 0.0000 0.0000 0.0000 16.9173 0.0000
# 6 0.0000 0.0000 0.0000 0.0000 0.0000 36.2567
#
#
#
# Elastic Compliance Matrix: (Units=1/GPa)
#
#
# Indices 1 2 3 4 5 6 
#
# 1 0.008200 -0.003269 -0.000906 0.000000 0.000000 0.000000
# 2 -0.003269 0.007601 -0.000493 0.000000 0.000000 0.000000
# 3 -0.000906 -0.000493 0.011633 0.000000 0.000000 0.000000
# 4 0.000000 0.000000 0.000000 0.047675 0.000000 0.000000
# 5 0.000000 0.000000 0.000000 0.000000 0.059111 0.000000
# 6 0.000000 0.000000 0.000000 0.000000 0.000000 0.027581
#
#
# Mechanical properties :
#
#
# Convention : Reuss Voigt Hill
#
# Bulk Modulus (GPa) = 55.25819 64.52098 59.88959
# Shear Modulus (GPa) = 28.22139 35.22924 31.72531
#
# Velocity S-wave (km/s) = 3.80873 4.25542 4.03826
# Velocity P-wave (km/s) = 6.90983 7.57034 7.24761
#
# Compressibility (1/GPa) = 0.01809686
#
# Stress axis : x y z
#
# Youngs Moduli (GPa) = 121.95520 131.56377 85.95960
#
# Poissons Ratio (x) = 0.43008 0.07792
# Poissons Ratio (y) = 0.39867 0.04239
# Poissons Ratio (z) = 0.11055 0.06487
#
# Static dielectric constant tensor:
#      x y z
#    x 1.644340 0.000000 0.000000 
#    y 0.000000 1.729460 0.000000 
#    z 0.000000 0.000000 1.718740 
# 
# From -- ./inp_files/70558.got.cif
#   From: 2010.05.17/outbox.cif.g08.bks.cpg/sg63_36_cif.got.tgz:70558.got - 2010.06.03 15:47:04.
