data_PCOD9469060
_publ_section_title
;
Structure prediction by ZEFSAII (Michael W. Deem and Ramdas Pophale) SiO2 
 PCOD9469060
Probable space group: C M C M
;
_chemical_formula_sum "Si O2"
_cell_formula_units_Z 88
_cell_length_a 19.582587
_cell_length_b 28.491331
_cell_length_c 9.257944
_cell_angle_alpha 90.000000
_cell_angle_beta 90.000000
_cell_angle_gamma 90.000000
_cell_volume 5165.321432
_symmetry_space_group_name_H-M "C M C M"
_symmetry_group_IT_number 63
_symmetry_cell_setting 'orthorhombic'
loop_
_space_group_symop_operation_xyz
x,y,z
-x,-y,1/2+z
x,-y,-z
-x,y,1/2-z
-x,-y,-z
x,y,1/2-z
-x,y,z
x,-y,1/2+z
1/2+x,1/2+y,z
1/2-x,1/2-y,1/2+z
1/2+x,1/2-y,-z
1/2-x,1/2+y,1/2-z
1/2-x,1/2-y,-z
1/2+x,1/2+y,1/2-z
1/2-x,1/2+y,z
1/2+x,1/2-y,1/2+z
loop_
_atom_site_type_symbol
_atom_site_label
_atom_site_fract_x
_atom_site_fract_y
_atom_site_fract_z
Si Si1 0.361082 0.819178 0.577900
Si Si2 0.000000 0.205027 0.984970
Si Si3 0.775456 0.869806 0.577751
Si Si4 0.155018 0.214181 0.587861
Si Si5 0.000000 0.103768 0.579034
Si Si6 0.642504 0.549949 0.921982
Si Si7 0.500000 0.807737 0.412510
O O1 0.374171 0.818302 0.750000
O O2 0.303654 0.857678 0.547476
O O3 0.330337 0.767592 0.542155
O O4 0.431892 0.823729 0.494696
O O5 0.000000 0.250437 0.088220
O O6 0.927431 0.210921 0.906368
O O7 0.000000 0.149789 0.022308
O O8 0.784249 0.874878 0.750000
O O9 0.817641 0.824832 0.520284
O O10 0.803484 0.914650 0.493416
O O11 0.181903 0.205570 0.750000
O O12 0.067918 0.073530 0.556586
O O13 0.000000 0.118879 0.750000
O O14 0.653392 0.545513 0.750000
O O15 0.644749 0.500000 0.000000
O O16 0.500000 0.825011 0.250000
#
# Coordination Sequence:
#
# PCOD9469060 Si02
#       7
#    16   8  16  16   8  16   8
#     4   9  20  36  53  74 106 146 178 210 263 323
#     4  10  18  31  48  74 107 146 184 221 265 315
#     4  11  22  35  52  77 106 138 178 222 268 322
#     4  10  18  31  51  73 103 144 184 222 262 311
#     4  10  19  35  56  75 102 141 186 225 269 319
#     4  11  23  40  58  78 103 138 182 231 280 323
#     4  10  21  34  52  81 111 138 178 225 262 307
#
# _framework density 17.036693
#
# number of rings (size 3 to 8) (size 9 to 14) (size 15 to 20)
#    0.000    1.818    1.818    3.000    0.000    7.273 
#    0.000    1.364    0.000    0.000    0.000    0.636 
#    0.000    0.000    0.000    0.000    0.000    0.000 
#
# Total GULP energy -245424.836675 kJ/mol
# GULP energy per Si atom -5577.837197 kJ/mol
# Density = 1.699792 g / cm^3
# Si number density = 17.036693 Si / 1000 Ang^3
#
#
#
# Elastic Constant Matrix: (Units=GPa)
#
#
# Indices 1 2 3 4 5 6 
#
# 1 109.4428 60.3969 59.1946 0.0000 0.0000 0.0000
# 2 60.3969 104.1477 48.7373 0.0000 0.0000 0.0000
# 3 59.1946 48.7373 78.3029 0.0000 0.0000 0.0000
# 4 0.0000 0.0000 0.0000 23.3517 0.0000 0.0000
# 5 0.0000 0.0000 0.0000 0.0000 3.1093 0.0000
# 6 0.0000 0.0000 0.0000 0.0000 0.0000 16.3258
#
#
#
# Elastic Compliance Matrix: (Units=1/GPa)
#
#
# Indices 1 2 3 4 5 6 
#
# 1 0.017489 -0.005581 -0.009748 0.000000 0.000000 0.000000
# 2 -0.005581 0.015329 -0.005322 0.000000 0.000000 0.000000
# 3 -0.009748 -0.005322 0.023452 0.000000 0.000000 0.000000
# 4 0.000000 0.000000 0.000000 0.042823 0.000000 0.000000
# 5 0.000000 0.000000 0.000000 0.000000 0.321621 0.000000
# 6 0.000000 0.000000 0.000000 0.000000 0.000000 0.061253
#
#
# Mechanical properties :
#
#
# Convention : Reuss Voigt Hill
#
# Bulk Modulus (GPa) = 66.80321 69.83901 68.32111
# Shear Modulus (GPa) = 9.46507 16.79500 13.13004
#
# Velocity S-wave (km/s) = 2.35961 3.14317 2.77915
# Velocity P-wave (km/s) = 6.83522 7.36580 7.10546
#
# Compressibility (1/GPa) = 0.01496934
#
# Stress axis : x y z
#
# Youngs Moduli (GPa) = 57.17801 65.23769 42.63946
#
# Poissons Ratio (x) = 0.36407 0.41564
# Poissons Ratio (y) = 0.31909 0.22693
# Poissons Ratio (z) = 0.55736 0.34719
#
# Static dielectric constant tensor:
#      x y z
#    x 1.582090 0.000000 0.000000 
#    y 0.000000 1.571590 0.000000 
#    z 0.000000 0.000000 1.574400 
# 
# From -- ./inp_files/6942.got.cif
#   From: 2010.05.17/outbox.cif.g08.bks.cpg/sg63_4_cif.got.tgz:6942.got - 2010.06.03 15:47:04.
