data_PCOD9469900
_publ_section_title
;
Structure prediction by ZEFSAII (Michael W. Deem and Ramdas Pophale) SiO2 
 PCOD9469900
Probable space group: C M C M
;
_chemical_formula_sum "Si O2"
_cell_formula_units_Z 80
_cell_length_a 20.268440
_cell_length_b 13.186765
_cell_length_c 18.382094
_cell_angle_alpha 90.000000
_cell_angle_beta 90.000000
_cell_angle_gamma 90.000000
_cell_volume 4913.077027
_symmetry_space_group_name_H-M "C M C M"
_symmetry_group_IT_number 63
_symmetry_cell_setting 'orthorhombic'
loop_
_space_group_symop_operation_xyz
x,y,z
-x,-y,1/2+z
x,-y,-z
-x,y,1/2-z
-x,-y,-z
x,y,1/2-z
-x,y,z
x,-y,1/2+z
1/2+x,1/2+y,z
1/2-x,1/2-y,1/2+z
1/2+x,1/2-y,-z
1/2-x,1/2+y,1/2-z
1/2-x,1/2-y,-z
1/2+x,1/2+y,1/2-z
1/2-x,1/2+y,z
1/2+x,1/2-y,1/2+z
loop_
_atom_site_type_symbol
_atom_site_label
_atom_site_fract_x
_atom_site_fract_y
_atom_site_fract_z
Si Si1 0.075926 0.885746 0.971373
Si Si2 0.843826 0.870149 0.665898
Si Si3 0.685836 0.255492 0.053004
Si Si4 0.722546 0.151564 0.666494
Si Si5 0.281068 0.037813 0.418792
O O1 0.093861 0.884047 0.886044
O O2 0.000000 0.857609 0.984050
O O3 0.126745 0.811029 0.012207
O O4 0.086202 0.000000 0.000000
O O5 0.851439 0.900540 0.750000
O O6 0.822019 0.752176 0.664453
O O7 0.783880 0.929025 0.626031
O O8 0.711237 0.318724 0.122410
O O9 0.674549 0.138472 0.074728
O O10 0.750000 0.250000 0.000000
O O11 0.735959 0.125908 0.750000
O O12 0.690186 0.057579 0.624465
O O13 0.263989 0.000000 0.500000
#
# Coordination Sequence:
#
# PCOD9469900 Si02
#       5
#    16  16  16  16  16
#     4  11  22  36  54  76 106 143 176 212 257 313
#     4  10  19  31  48  75 106 135 169 214 262 310
#     4  11  19  33  54  77 105 138 176 220 258 302
#     4  10  19  30  50  81 107 131 170 219 270 310
#     4  11  17  28  50  74 103 136 169 216 267 305
#
# _framework density 16.283075
#
# number of rings (size 3 to 8) (size 9 to 14) (size 15 to 20)
#    0.000    1.400    6.000    2.400    0.000    1.200 
#    0.000    0.000    0.000    7.200    0.000    0.000 
#    0.000    0.000    0.000    0.000    0.000    0.000 
#
# Total GULP energy -223101.567571 kJ/mol
# GULP energy per Si atom -5577.539189 kJ/mol
# Density = 1.624601 g / cm^3
# Si number density = 16.283075 Si / 1000 Ang^3
#
#
#
# Elastic Constant Matrix: (Units=GPa)
#
#
# Indices 1 2 3 4 5 6 
#
# 1 84.1572 30.7001 38.9802 0.0000 0.0000 0.0000
# 2 30.7001 94.7108 48.9515 0.0000 0.0000 0.0000
# 3 38.9802 48.9515 152.3407 0.0000 0.0000 0.0000
# 4 0.0000 0.0000 0.0000 29.0475 0.0000 0.0000
# 5 0.0000 0.0000 0.0000 0.0000 12.8512 0.0000
# 6 0.0000 0.0000 0.0000 0.0000 0.0000 16.8616
#
#
#
# Elastic Compliance Matrix: (Units=1/GPa)
#
#
# Indices 1 2 3 4 5 6 
#
# 1 0.014286 -0.003287 -0.002599 0.000000 0.000000 0.000000
# 2 -0.003287 0.013418 -0.003470 0.000000 0.000000 0.000000
# 3 -0.002599 -0.003470 0.008344 0.000000 0.000000 0.000000
# 4 0.000000 0.000000 0.000000 0.034426 0.000000 0.000000
# 5 0.000000 0.000000 0.000000 0.000000 0.077814 0.000000
# 6 0.000000 0.000000 0.000000 0.000000 0.000000 0.059306
#
#
# Mechanical properties :
#
#
# Convention : Reuss Voigt Hill
#
# Bulk Modulus (GPa) = 57.68912 63.16356 60.42634
# Shear Modulus (GPa) = 21.54379 25.92385 23.73382
#
# Velocity S-wave (km/s) = 3.64136 3.99441 3.82196
# Velocity P-wave (km/s) = 7.29281 7.75557 7.52775
#
# Compressibility (1/GPa) = 0.01733429
#
# Stress axis : x y z
#
# Youngs Moduli (GPa) = 70.00091 74.52853 119.84106
#
# Poissons Ratio (x) = 0.24500 0.31147
# Poissons Ratio (y) = 0.23011 0.41589
# Poissons Ratio (z) = 0.18193 0.25864
#
# Static dielectric constant tensor:
#      x y z
#    x 1.515030 0.000000 0.000000 
#    y 0.000000 1.596790 0.000000 
#    z 0.000000 0.000000 1.576930 
# 
# From -- ./inp_files/46992.got.cif
#   From: 2010.05.17/outbox.cif.g08.bks.cpg/sg63_24_cif.got.tgz:46992.got - 2010.06.03 15:47:04.
