data_PCOD9469028
_publ_section_title
;
Structure prediction by ZEFSAII (Michael W. Deem and Ramdas Pophale) SiO2 
 PCOD9469028
Probable space group: C M C M
;
_chemical_formula_sum "Si O2"
_cell_formula_units_Z 96
_cell_length_a 15.104286
_cell_length_b 14.762352
_cell_length_c 19.178999
_cell_angle_alpha 90.000000
_cell_angle_beta 90.000000
_cell_angle_gamma 90.000000
_cell_volume 4276.433210
_symmetry_space_group_name_H-M "C M C M"
_symmetry_group_IT_number 63
_symmetry_cell_setting 'orthorhombic'
loop_
_space_group_symop_operation_xyz
x,y,z
-x,-y,1/2+z
x,-y,-z
-x,y,1/2-z
-x,-y,-z
x,y,1/2-z
-x,y,z
x,-y,1/2+z
1/2+x,1/2+y,z
1/2-x,1/2-y,1/2+z
1/2+x,1/2-y,-z
1/2-x,1/2+y,1/2-z
1/2-x,1/2-y,-z
1/2+x,1/2+y,1/2-z
1/2-x,1/2+y,z
1/2+x,1/2-y,1/2+z
loop_
_atom_site_type_symbol
_atom_site_label
_atom_site_fract_x
_atom_site_fract_y
_atom_site_fract_z
Si Si1 0.399073 0.172431 0.592533
Si Si2 0.099635 0.989923 0.347245
Si Si3 0.306520 0.981596 0.170886
Si Si4 0.905390 0.204382 0.608896
Si Si5 0.166774 0.376050 0.557339
Si Si6 0.868337 0.870722 0.540163
O O1 0.500000 0.157296 0.616746
O O2 0.328785 0.118238 0.640119
O O3 0.391323 0.137096 0.511988
O O4 0.382012 0.280646 0.587517
O O5 0.097271 0.040836 0.421543
O O6 0.000000 0.013485 0.319932
O O7 0.202111 0.011311 0.326261
O O8 0.104516 0.881167 0.342067
O O9 0.340123 0.989409 0.250000
O O10 0.351750 0.045270 0.112300
O O11 0.835188 0.282965 0.601323
O O12 0.907621 0.156418 0.533497
O O13 0.000000 0.249644 0.622490
O O14 0.264901 0.387123 0.527845
#
# Coordination Sequence:
#
# PCOD9469028 Si02
#       6
#    16  16  16  16  16  16
#     4  11  22  38  62  90 121 158 198 241 290 347
#     4  10  20  36  59  87 119 153 190 237 296 358
#     4  11  25  42  59  83 116 156 202 249 297 347
#     4  10  18  30  54  87 118 148 185 232 286 344
#     4  10  20  36  60  87 117 154 195 241 290 345
#     4  10  18  32  57  90 123 151 187 238 294 350
#
# _framework density 22.448615
#
# number of rings (size 3 to 8) (size 9 to 14) (size 15 to 20)
#    0.000    1.667    0.000    8.000    0.000    6.667 
#    0.000    7.500    0.000    5.000    0.000    0.000 
#    0.000    0.000    0.000    0.000    0.000    0.000 
#
# Total GULP energy -267291.114393 kJ/mol
# GULP energy per Si atom -5568.564883 kJ/mol
# Density = 2.239752 g / cm^3
# Si number density = 22.448615 Si / 1000 Ang^3
#
#
#
# Elastic Constant Matrix: (Units=GPa)
#
#
# Indices 1 2 3 4 5 6 
#
# 1 77.2066 0.7066 -0.7399 0.0000 0.0000 0.0000
# 2 0.7066 85.4417 8.7014 0.0000 0.0000 0.0000
# 3 -0.7399 8.7014 46.9134 0.0000 0.0000 0.0000
# 4 0.0000 0.0000 0.0000 -13.3848 0.0000 0.0000
# 5 0.0000 0.0000 0.0000 0.0000 -3.2233 0.0000
# 6 0.0000 0.0000 0.0000 0.0000 0.0000 -45.1926
#
#
#
# Elastic Compliance Matrix: (Units=1/GPa)
#
#
# Indices 1 2 3 4 5 6 
#
# 1 0.012956 -0.000130 0.000229 0.000000 0.000000 0.000000
# 2 -0.000130 0.011931 -0.002215 0.000000 0.000000 0.000000
# 3 0.000229 -0.002215 0.021730 0.000000 0.000000 0.000000
# 4 0.000000 0.000000 0.000000 -0.074712 0.000000 0.000000
# 5 0.000000 0.000000 0.000000 0.000000 -0.310243 0.000000
# 6 0.000000 0.000000 0.000000 0.000000 0.000000 -0.022128
#
#
# Mechanical properties :
#
#
# Convention : Reuss Voigt Hill
#
# Bulk Modulus (GPa) = 23.59443 25.21087 24.40265
# Shear Modulus (GPa) = -14.61543 1.03278 -6.79132
#
# Velocity S-wave (km/s) = -2.55436 0.67902 -1.74122
# Velocity P-wave (km/s) = 1.35409 3.44523 2.61755
#
# Compressibility (1/GPa) = 0.04238288
#
# Stress axis : x y z
#
# Youngs Moduli (GPa) = 77.18641 83.81855 46.01871
#
# Poissons Ratio (x) = 0.01093 -0.01052
# Poissons Ratio (y) = 0.01007 0.10193
# Poissons Ratio (z) = -0.01764 0.18565
#
# Static dielectric constant tensor:
#      x y z
#    x 1.848930 0.000000 0.000000 
#    y 0.000000 1.850980 0.000000 
#    z 0.000000 0.000000 2.110640 
# 
# From -- ./inp_files/54179.got.cif
#   From: 2010.05.17/outbox.cif.g08.bks.cpg/sg63_28_cif.got.tgz:54179.got - 2010.06.03 15:47:04.
