data_PCOD9469791
_publ_section_title
;
Structure prediction by ZEFSAII (Michael W. Deem and Ramdas Pophale) SiO2 
 PCOD9469791
Probable space group: C M C M
;
_chemical_formula_sum "Si O2"
_cell_formula_units_Z 96
_cell_length_a 8.794423
_cell_length_b 28.301268
_cell_length_c 24.305756
_cell_angle_alpha 90.000000
_cell_angle_beta 90.000000
_cell_angle_gamma 90.000000
_cell_volume 6049.540360
_symmetry_space_group_name_H-M "C M C M"
_symmetry_group_IT_number 63
_symmetry_cell_setting 'orthorhombic'
loop_
_space_group_symop_operation_xyz
x,y,z
-x,-y,1/2+z
x,-y,-z
-x,y,1/2-z
-x,-y,-z
x,y,1/2-z
-x,y,z
x,-y,1/2+z
1/2+x,1/2+y,z
1/2-x,1/2-y,1/2+z
1/2+x,1/2-y,-z
1/2-x,1/2+y,1/2-z
1/2-x,1/2-y,-z
1/2+x,1/2+y,1/2-z
1/2-x,1/2+y,z
1/2+x,1/2-y,1/2+z
loop_
_atom_site_type_symbol
_atom_site_label
_atom_site_fract_x
_atom_site_fract_y
_atom_site_fract_z
Si Si1 0.317220 0.322040 0.983283
Si Si2 0.182922 0.516763 0.917486
Si Si3 0.683043 0.922840 0.312929
Si Si4 0.318547 0.768241 0.085935
Si Si5 0.181695 0.819888 0.186735
Si Si6 0.682701 0.569278 0.023061
O O1 0.500000 0.319603 0.990959
O O2 0.276068 0.283758 0.936612
O O3 0.277645 0.375836 0.969508
O O4 0.239563 0.304566 0.039352
O O5 0.225624 0.538690 0.858606
O O6 0.250710 0.465328 0.930510
O O7 0.000000 0.515248 0.921871
O O8 0.248336 0.550336 0.965657
O O9 0.726689 0.934946 0.250000
O O10 0.500000 0.917942 0.314530
O O11 0.754719 0.872058 0.326636
O O12 0.500000 0.770971 0.089621
O O13 0.246709 0.782785 0.143555
O O14 0.225610 0.809630 0.250000
O O15 0.000000 0.820959 0.183222
O O16 0.500000 0.564585 0.021267
#
# Coordination Sequence:
#
# PCOD9469791 Si02
#       6
#    16  16  16  16  16  16
#     4   9  19  33  48  69  95 122 153 189 229 274
#     4  10  19  30  46  69  94 119 151 188 225 269
#     4   9  18  32  49  69  93 121 152 187 228 273
#     4  10  19  31  49  71  94 122 154 189 230 273
#     4  10  20  32  47  69  96 124 154 189 228 271
#     4  10  19  31  47  66  92 123 152 185 225 269
#
# _framework density 15.868974
#
# number of rings (size 3 to 8) (size 9 to 14) (size 15 to 20)
#    0.000    2.333    0.000    4.000    0.000    7.000 
#    0.000    0.000    0.000    1.000    0.000    4.667 
#    0.000    0.000    0.000    0.000    0.000    0.000 
#
# Total GULP energy -267749.638767 kJ/mol
# GULP energy per Si atom -5578.117474 kJ/mol
# Density = 1.583286 g / cm^3
# Si number density = 15.868974 Si / 1000 Ang^3
#
#
#
# Elastic Constant Matrix: (Units=GPa)
#
#
# Indices 1 2 3 4 5 6 
#
# 1 35.3619 41.3374 34.6840 0.0000 0.0000 0.0000
# 2 41.3374 132.4735 72.5513 0.0000 0.0000 0.0000
# 3 34.6840 72.5513 96.0179 0.0000 0.0000 0.0000
# 4 0.0000 0.0000 0.0000 23.3664 0.0000 0.0000
# 5 0.0000 0.0000 0.0000 0.0000 21.0102 0.0000
# 6 0.0000 0.0000 0.0000 0.0000 0.0000 18.6197
#
#
#
# Elastic Compliance Matrix: (Units=1/GPa)
#
#
# Indices 1 2 3 4 5 6 
#
# 1 0.050289 -0.009798 -0.010762 0.000000 0.000000 0.000000
# 2 -0.009798 0.014787 -0.007634 0.000000 0.000000 0.000000
# 3 -0.010762 -0.007634 0.020070 0.000000 0.000000 0.000000
# 4 0.000000 0.000000 0.000000 0.042796 0.000000 0.000000
# 5 0.000000 0.000000 0.000000 0.000000 0.047596 0.000000
# 6 0.000000 0.000000 0.000000 0.000000 0.000000 0.053707
#
#
# Mechanical properties :
#
#
# Convention : Reuss Voigt Hill
#
# Bulk Modulus (GPa) = 34.77281 62.33319 48.55300
# Shear Modulus (GPa) = 16.93665 20.28464 18.61065
#
# Velocity S-wave (km/s) = 3.27047 3.57915 3.42829
# Velocity P-wave (km/s) = 6.01841 7.51303 6.80687
#
# Compressibility (1/GPa) = 0.02875811
#
# Stress axis : x y z
#
# Youngs Moduli (GPa) = 19.88523 67.62777 49.82536
#
# Poissons Ratio (x) = 0.66264 0.53621
# Poissons Ratio (y) = 0.19484 0.38035
# Poissons Ratio (z) = 0.21400 0.51624
#
# Static dielectric constant tensor:
#      x y z
#    x 1.531570 0.000000 0.000000 
#    y 0.000000 1.519940 0.000000 
#    z 0.000000 0.000000 1.522820 
# 
# From -- ./inp_files/60257.got.cif
#   From: 2010.05.17/outbox.cif.g08.bks.cpg/sg63_31_cif.got.tgz:60257.got - 2010.06.03 15:47:04.
