data_PCOD9469637
_publ_section_title
;
Structure prediction by ZEFSAII (Michael W. Deem and Ramdas Pophale) SiO2 
 PCOD9469637
Probable space group: C M C M
;
_chemical_formula_sum "Si O2"
_cell_formula_units_Z 88
_cell_length_a 25.669503
_cell_length_b 28.474139
_cell_length_c 9.050365
_cell_angle_alpha 90.000000
_cell_angle_beta 90.000000
_cell_angle_gamma 90.000000
_cell_volume 6615.065603
_symmetry_space_group_name_H-M "C M C M"
_symmetry_group_IT_number 63
_symmetry_cell_setting 'orthorhombic'
loop_
_space_group_symop_operation_xyz
x,y,z
-x,-y,1/2+z
x,-y,-z
-x,y,1/2-z
-x,-y,-z
x,y,1/2-z
-x,y,z
x,-y,1/2+z
1/2+x,1/2+y,z
1/2-x,1/2-y,1/2+z
1/2+x,1/2-y,-z
1/2-x,1/2+y,1/2-z
1/2-x,1/2-y,-z
1/2+x,1/2+y,1/2-z
1/2-x,1/2+y,z
1/2+x,1/2-y,1/2+z
loop_
_atom_site_type_symbol
_atom_site_label
_atom_site_fract_x
_atom_site_fract_y
_atom_site_fract_z
Si Si1 0.856339 0.185951 0.420005
Si Si2 0.200428 0.275962 0.072546
Si Si3 0.597105 0.600726 0.923736
Si Si4 0.741615 0.137052 0.078667
Si Si5 0.000000 0.948836 0.926035
Si Si6 0.708793 0.449373 0.074543
O O1 0.874378 0.182415 0.250000
O O2 0.847479 0.240614 0.458902
O O3 0.891021 0.153896 0.525197
O O4 0.798425 0.162721 0.424560
O O5 0.206792 0.277856 0.250000
O O6 0.250000 0.250000 0.000000
O O7 0.202081 0.327773 0.003725
O O8 0.584892 0.598638 0.750000
O O9 0.650401 0.571304 0.949101
O O10 0.550920 0.578550 0.017888
O O11 0.727601 0.130946 0.250000
O O12 0.751604 0.087993 0.997275
O O13 0.000000 0.953167 0.750000
O O14 0.000000 0.000000 0.000000
O O15 0.716944 0.452358 0.250000
O O16 0.712923 0.500000 0.000000
#
# Coordination Sequence:
#
# PCOD9469637 Si02
#       6
#    16  16  16  16   8  16
#     4   8  15  26  39  55  74  94 114 140 177 218
#     4   9  15  23  36  54  75  95 115 140 172 212
#     4  10  20  32  45  59  73  90 117 152 190 231
#     4   9  16  25  37  53  73  95 119 146 176 213
#     4  12  24  36  48  58  72  92 118 154 195 236
#     4  10  19  29  41  55  72  95 122 154 189 224
#
# _framework density 13.302967000000001
#
# number of rings (size 3 to 8) (size 9 to 14) (size 15 to 20)
#    0.000    2.545    0.000    4.636    0.000    8.727 
#    0.000    0.000    0.000    0.000    0.000    0.000 
#    0.000    0.000    0.000    0.000    0.000    0.000 
#
# Total GULP energy -245063.291318 kJ/mol
# GULP energy per Si atom -5569.620257 kJ/mol
# Density = 1.327269 g / cm^3
# Si number density = 13.302967 Si / 1000 Ang^3
#
#
#
# Elastic Constant Matrix: (Units=GPa)
#
#
# Indices 1 2 3 4 5 6 
#
# 1 23.5666 37.7815 33.2103 0.0000 0.0000 0.0000
# 2 37.7815 118.3099 76.8336 0.0000 0.0000 0.0000
# 3 33.2103 76.8336 99.9543 0.0000 0.0000 0.0000
# 4 0.0000 0.0000 0.0000 27.6523 0.0000 0.0000
# 5 0.0000 0.0000 0.0000 0.0000 14.7450 0.0000
# 6 0.0000 0.0000 0.0000 0.0000 0.0000 15.1567
#
#
#
# Elastic Compliance Matrix: (Units=1/GPa)
#
#
# Indices 1 2 3 4 5 6 
#
# 1 0.100017 -0.020684 -0.017331 0.000000 0.000000 0.000000
# 2 -0.020684 0.021156 -0.009390 0.000000 0.000000 0.000000
# 3 -0.017331 -0.009390 0.022981 0.000000 0.000000 0.000000
# 4 0.000000 0.000000 0.000000 0.036163 0.000000 0.000000
# 5 0.000000 0.000000 0.000000 0.000000 0.067819 0.000000
# 6 0.000000 0.000000 0.000000 0.000000 0.000000 0.065977
#
#
# Mechanical properties :
#
#
# Convention : Reuss Voigt Hill
#
# Bulk Modulus (GPa) = 20.26634 59.72017 39.99326
# Shear Modulus (GPa) = 11.75442 17.77784 14.76613
#
# Velocity S-wave (km/s) = 2.97576 3.65962 3.33526
# Velocity P-wave (km/s) = 5.20330 7.92761 6.70527
#
# Compressibility (1/GPa) = 0.04934289
#
# Stress axis : x y z
#
# Youngs Moduli (GPa) = 9.99827 47.26871 43.51495
#
# Poissons Ratio (x) = 0.97773 0.75417
# Poissons Ratio (y) = 0.20681 0.40859
# Poissons Ratio (z) = 0.17328 0.44383
#
# Static dielectric constant tensor:
#      x y z
#    x 1.410200 0.000000 0.000000 
#    y 0.000000 1.457600 0.000000 
#    z 0.000000 0.000000 1.451880 
# 
# From -- ./inp_files/11029.got.cif
#   From: 2010.05.17/outbox.cif.g08.bks.cpg/sg63_6_cif.got.tgz:11029.got - 2010.06.03 15:47:04.
