data_PCOD9469994
_publ_section_title
;
Structure prediction by ZEFSAII (Michael W. Deem and Ramdas Pophale) SiO2 
 PCOD9469994
Probable space group: C M C M
;
_chemical_formula_sum "Si O2"
_cell_formula_units_Z 64
_cell_length_a 27.523052
_cell_length_b 11.431010
_cell_length_c 9.594570
_cell_angle_alpha 90.000000
_cell_angle_beta 90.000000
_cell_angle_gamma 90.000000
_cell_volume 3018.607947
_symmetry_space_group_name_H-M "C M C M"
_symmetry_group_IT_number 63
_symmetry_cell_setting 'orthorhombic'
loop_
_space_group_symop_operation_xyz
x,y,z
-x,-y,1/2+z
x,-y,-z
-x,y,1/2-z
-x,-y,-z
x,y,1/2-z
-x,y,z
x,-y,1/2+z
1/2+x,1/2+y,z
1/2-x,1/2-y,1/2+z
1/2+x,1/2-y,-z
1/2-x,1/2+y,1/2-z
1/2-x,1/2-y,-z
1/2+x,1/2+y,1/2-z
1/2-x,1/2+y,z
1/2+x,1/2-y,1/2+z
loop_
_atom_site_type_symbol
_atom_site_label
_atom_site_fract_x
_atom_site_fract_y
_atom_site_fract_z
Si Si1 0.309287 0.854298 0.906788
Si Si2 0.421807 0.887394 0.912555
Si Si3 0.716035 0.596865 0.909006
Si Si4 0.558574 0.615895 0.910709
O O1 0.290275 0.877989 0.750000
O O2 0.363261 0.901047 0.915420
O O3 0.313001 0.715447 0.918538
O O4 0.269530 0.885015 0.023175
O O5 0.437578 0.894210 0.750000
O O6 0.431387 0.751689 0.959703
O O7 0.440926 0.000000 0.000000
O O8 0.720311 0.564450 0.750000
O O9 0.690860 0.500000 0.000000
O O10 0.577208 0.607562 0.750000
O O11 0.500000 0.609140 0.905828
O O12 0.573939 0.500000 0.000000
#
# Coordination Sequence:
#
# PCOD9469994 Si02
#       4
#    16  16  16  16
#     4   9  19  34  49  68  97 133 172 213 257 305
#     4  10  21  36  54  79 110 141 175 217 263 312
#     4  10  19  31  48  69  95 129 170 216 262 307
#     4   9  19  37  59  82 109 140 174 214 260 311
#
# _framework density 21.201827000000002
#
# number of rings (size 3 to 8) (size 9 to 14) (size 15 to 20)
#    0.000    2.500    0.000    1.500    0.000    6.500 
#    0.000    0.000    0.000    0.000    0.000    0.000 
#    0.000    0.000    0.000    0.000    0.000    0.000 
#
# Total GULP energy -178202.157216 kJ/mol
# GULP energy per Si atom -5568.817413 kJ/mol
# Density = 2.115357 g / cm^3
# Si number density = 21.201827 Si / 1000 Ang^3
#
#
#
# Elastic Constant Matrix: (Units=GPa)
#
#
# Indices 1 2 3 4 5 6 
#
# 1 48.2274 0.1737 13.3392 0.0000 0.0000 0.0000
# 2 0.1737 204.7814 83.0178 0.0000 0.0000 0.0000
# 3 13.3392 83.0178 130.6801 0.0000 0.0000 0.0000
# 4 0.0000 0.0000 0.0000 17.7992 0.0000 0.0000
# 5 0.0000 0.0000 0.0000 0.0000 -0.4390 0.0000
# 6 0.0000 0.0000 0.0000 0.0000 0.0000 -3.1497
#
#
#
# Elastic Compliance Matrix: (Units=1/GPa)
#
#
# Indices 1 2 3 4 5 6 
#
# 1 0.021546 0.001176 -0.002947 0.000000 0.000000 0.000000
# 2 0.001176 0.006641 -0.004339 0.000000 0.000000 0.000000
# 3 -0.002947 -0.004339 0.010710 0.000000 0.000000 0.000000
# 4 0.000000 0.000000 0.000000 0.056182 0.000000 0.000000
# 5 0.000000 0.000000 0.000000 0.000000 -2.277714 0.000000
# 6 0.000000 0.000000 0.000000 0.000000 0.000000 -0.317491
#
#
# Mechanical properties :
#
#
# Convention : Reuss Voigt Hill
#
# Bulk Modulus (GPa) = 37.48422 64.08339 50.78380
# Shear Modulus (GPa) = -2.01693 21.98597 9.98452
#
# Velocity S-wave (km/s) = -0.97640 3.22372 2.17244
# Velocity P-wave (km/s) = 4.05548 6.64436 5.50429
#
# Compressibility (1/GPa) = 0.02667789
#
# Stress axis : x y z
#
# Youngs Moduli (GPa) = 46.41267 150.57228 93.37434
#
# Poissons Ratio (x) = -0.17711 0.27513
# Poissons Ratio (y) = -0.05459 0.40516
# Poissons Ratio (z) = 0.13676 0.65335
#
# Static dielectric constant tensor:
#      x y z
#    x 1.802990 0.000000 0.000000 
#    y 0.000000 1.869970 0.000000 
#    z 0.000000 0.000000 1.772930 
# 
# From -- ./inp_files/13707.got.cif
#   From: 2010.05.17/outbox.cif.g08.bks.cpg/sg63_7_cif.got.tgz:13707.got - 2010.06.03 15:47:04.
