data_PCOD9469876
_publ_section_title
;
Structure prediction by ZEFSAII (Michael W. Deem and Ramdas Pophale) SiO2 
 PCOD9469876
Probable space group: C M C M
;
_chemical_formula_sum "Si O2"
_cell_formula_units_Z 112
_cell_length_a 7.316111
_cell_length_b 22.958559
_cell_length_c 28.881064
_cell_angle_alpha 90.000000
_cell_angle_beta 90.000000
_cell_angle_gamma 90.000000
_cell_volume 4851.076249
_symmetry_space_group_name_H-M "C M C M"
_symmetry_group_IT_number 63
_symmetry_cell_setting 'orthorhombic'
loop_
_space_group_symop_operation_xyz
x,y,z
-x,-y,1/2+z
x,-y,-z
-x,y,1/2-z
-x,-y,-z
x,y,1/2-z
-x,y,z
x,-y,1/2+z
1/2+x,1/2+y,z
1/2-x,1/2-y,1/2+z
1/2+x,1/2-y,-z
1/2-x,1/2+y,1/2-z
1/2-x,1/2-y,-z
1/2+x,1/2+y,1/2-z
1/2-x,1/2+y,z
1/2+x,1/2-y,1/2+z
loop_
_atom_site_type_symbol
_atom_site_label
_atom_site_fract_x
_atom_site_fract_y
_atom_site_fract_z
Si Si1 0.296921 0.971052 0.129662
Si Si2 0.776749 0.558317 0.971045
Si Si3 0.781342 0.681985 0.016509
Si Si4 0.278939 0.751095 0.799186
Si Si5 0.780306 0.883891 0.299164
Si Si6 0.278160 0.830906 0.877610
Si Si7 0.222759 0.430064 0.696594
O O1 0.500000 0.995779 0.119892
O O2 0.211459 0.957894 0.080491
O O3 0.306851 0.910766 0.156189
O O4 0.215847 0.011966 0.169588
O O5 0.000000 0.560760 0.970814
O O6 0.727789 0.500000 0.000000
O O7 0.718129 0.623457 0.988113
O O8 0.714937 0.671731 0.069502
O O9 0.000000 0.677461 0.016717
O O10 0.750000 0.750000 0.000000
O O11 0.217192 0.778509 0.750000
O O12 0.500000 0.757705 0.799043
O O13 0.236057 0.683715 0.797319
O O14 0.217581 0.775598 0.847900
O O15 0.721838 0.911182 0.250000
O O16 0.000000 0.888732 0.302274
O O17 0.500000 0.833197 0.880520
O O18 0.225357 0.881437 0.841346
O O19 0.285661 0.424933 0.750000
O O20 0.000000 0.429315 0.699532
#
# Coordination Sequence:
#
# PCOD9469876 Si02
#       7
#    16  16  16  16  16  16  16
#     4  10  19  30  49  74  99 129 165 206 253 300
#     4   9  18  34  54  75 104 142 182 221 265 320
#     4  10  21  35  53  78 105 137 178 221 265 311
#     4   8  14  25  42  65  92 121 154 193 239 290
#     4   9  18  31  46  67  97 130 160 193 240 301
#     4   9  16  27  46  69  94 125 162 203 250 295
#     4   9  16  26  44  73 102 124 157 210 259 296
#
# _framework density 23.087658000000001
#
# number of rings (size 3 to 8) (size 9 to 14) (size 15 to 20)
#    0.000    2.857    0.000    2.571    2.000    6.000 
#    0.000    0.000    0.000    4.286    0.000    0.000 
#    0.000    3.429    0.000    0.000    0.000    0.000 
#
# Total GULP energy -311837.280344 kJ/mol
# GULP energy per Si atom -5568.522863 kJ/mol
# Density = 2.303511 g / cm^3
# Si number density = 23.087658 Si / 1000 Ang^3
#
#
#
# Elastic Constant Matrix: (Units=GPa)
#
#
# Indices 1 2 3 4 5 6 
#
# 1 87.5351 4.8430 9.7204 0.0000 0.0000 0.0000
# 2 4.8430 131.3308 98.4407 0.0000 0.0000 0.0000
# 3 9.7204 98.4407 238.2802 0.0000 0.0000 0.0000
# 4 0.0000 0.0000 0.0000 185.5834 0.0000 0.0000
# 5 0.0000 0.0000 0.0000 0.0000 -13.5254 0.0000
# 6 0.0000 0.0000 0.0000 0.0000 0.0000 -19.9623
#
#
#
# Elastic Compliance Matrix: (Units=1/GPa)
#
#
# Indices 1 2 3 4 5 6 
#
# 1 0.011477 -0.000105 -0.000425 0.000000 0.000000 0.000000
# 2 -0.000105 0.011031 -0.004553 0.000000 0.000000 0.000000
# 3 -0.000425 -0.004553 0.006095 0.000000 0.000000 0.000000
# 4 0.000000 0.000000 0.000000 0.005388 0.000000 0.000000
# 5 0.000000 0.000000 0.000000 0.000000 -0.073935 0.000000
# 6 0.000000 0.000000 0.000000 0.000000 0.000000 -0.050094
#
#
# Mechanical properties :
#
#
# Convention : Reuss Voigt Hill
#
# Bulk Modulus (GPa) = 54.23650 75.90602 65.07126
# Shear Modulus (GPa) = -67.81808 53.36192 -7.22808
#
# Velocity S-wave (km/s) = -5.42567 4.81279 -1.77130
# Velocity P-wave (km/s) = 3.96334 7.98953 4.90533
#
# Compressibility (1/GPa) = 0.01843777
#
# Stress axis : x y z
#
# Youngs Moduli (GPa) = 87.13102 90.65410 164.06808
#
# Poissons Ratio (x) = 0.00949 0.06972
# Poissons Ratio (y) = 0.00912 0.74699
# Poissons Ratio (z) = 0.03702 0.41274
#
# Static dielectric constant tensor:
#      x y z
#    x 1.964920 0.000000 0.000000 
#    y 0.000000 1.986650 0.000000 
#    z 0.000000 0.000000 1.872820 
# 
# From -- ./inp_files/68639.got.cif
#   From: 2010.05.17/outbox.cif.g08.bks.cpg/sg63_35_cif.got.tgz:68639.got - 2010.06.03 15:47:04.
