data_PCOD9469832
_publ_section_title
;
Structure prediction by ZEFSAII (Michael W. Deem and Ramdas Pophale) SiO2 
 PCOD9469832
Probable space group: C M C M
;
_chemical_formula_sum "Si O2"
_cell_formula_units_Z 96
_cell_length_a 12.960495
_cell_length_b 24.075952
_cell_length_c 18.557953
_cell_angle_alpha 90.000000
_cell_angle_beta 90.000000
_cell_angle_gamma 90.000000
_cell_volume 5790.754164
_symmetry_space_group_name_H-M "C M C M"
_symmetry_group_IT_number 63
_symmetry_cell_setting 'orthorhombic'
loop_
_space_group_symop_operation_xyz
x,y,z
-x,-y,1/2+z
x,-y,-z
-x,y,1/2-z
-x,-y,-z
x,y,1/2-z
-x,y,z
x,-y,1/2+z
1/2+x,1/2+y,z
1/2-x,1/2-y,1/2+z
1/2+x,1/2-y,-z
1/2-x,1/2+y,1/2-z
1/2-x,1/2-y,-z
1/2+x,1/2+y,1/2-z
1/2-x,1/2+y,z
1/2+x,1/2-y,1/2+z
loop_
_atom_site_type_symbol
_atom_site_label
_atom_site_fract_x
_atom_site_fract_y
_atom_site_fract_z
Si Si1 0.206507 0.110424 0.067941
Si Si2 0.122130 0.895284 0.405623
Si Si3 0.736795 0.286212 0.109466
Si Si4 0.122144 0.984951 0.835186
Si Si5 0.617449 0.297863 0.671308
Si Si6 0.878099 0.689956 0.029252
O O1 0.189622 0.057054 0.117497
O O2 0.143737 0.159956 0.107300
O O3 0.321682 0.135353 0.061298
O O4 0.162132 0.100102 0.988095
O O5 0.181992 0.843410 0.370874
O O6 0.000000 0.884263 0.407098
O O7 0.138889 0.952575 0.363414
O O8 0.802837 0.252545 0.167051
O O9 0.652446 0.243156 0.077850
O O10 0.818769 0.298994 0.045701
O O11 0.142354 0.980722 0.750000
O O12 0.000000 0.971569 0.846896
O O13 0.626518 0.325855 0.750000
O O14 0.500000 0.278491 0.663477
O O15 0.000000 0.684595 0.021643
#
# Coordination Sequence:
#
# PCOD9469832 Si02
#       6
#    16  16  16  16  16  16
#     4  10  19  31  51  74  96 125 160 204 245 281
#     4  10  19  31  50  75 100 127 159 196 242 293
#     4   9  18  29  47  71  98 128 156 192 237 286
#     4  10  20  33  50  72  98 127 158 197 246 296
#     4  10  19  30  47  71  98 129 163 199 240 283
#     4   9  17  30  49  73  97 123 158 198 241 285
#
# _framework density 16.578150999999998
#
# number of rings (size 3 to 8) (size 9 to 14) (size 15 to 20)
#    0.000    2.333    0.000    4.500    0.000    3.333 
#    0.000    0.000    0.000   25.500    0.000    0.000 
#    0.000    0.000    0.000    0.000    0.000    0.000 
#
# Total GULP energy -267620.911244 kJ/mol
# GULP energy per Si atom -5575.435651 kJ/mol
# Density = 1.654042 g / cm^3
# Si number density = 16.578151 Si / 1000 Ang^3
#
#
#
# Elastic Constant Matrix: (Units=GPa)
#
#
# Indices 1 2 3 4 5 6 
#
# 1 101.1051 41.6474 8.5859 0.0000 0.0000 0.0000
# 2 41.6474 79.9516 11.1099 0.0000 0.0000 0.0000
# 3 8.5859 11.1099 40.9220 0.0000 0.0000 0.0000
# 4 0.0000 0.0000 0.0000 18.3173 0.0000 0.0000
# 5 0.0000 0.0000 0.0000 0.0000 16.2904 0.0000
# 6 0.0000 0.0000 0.0000 0.0000 0.0000 19.6960
#
#
#
# Elastic Compliance Matrix: (Units=1/GPa)
#
#
# Indices 1 2 3 4 5 6 
#
# 1 0.012624 -0.006451 -0.000897 0.000000 0.000000 0.000000
# 2 -0.006451 0.016295 -0.003070 0.000000 0.000000 0.000000
# 3 -0.000897 -0.003070 0.025459 0.000000 0.000000 0.000000
# 4 0.000000 0.000000 0.000000 0.054593 0.000000 0.000000
# 5 0.000000 0.000000 0.000000 0.000000 0.061386 0.000000
# 6 0.000000 0.000000 0.000000 0.000000 0.000000 0.050772
#
#
# Mechanical properties :
#
#
# Convention : Reuss Voigt Hill
#
# Bulk Modulus (GPa) = 29.81537 38.29614 34.05575
# Shear Modulus (GPa) = 19.75141 21.56977 20.66059
#
# Velocity S-wave (km/s) = 3.45543 3.61098 3.53406
# Velocity P-wave (km/s) = 5.82613 6.36680 6.10245
#
# Compressibility (1/GPa) = 0.03353975
#
# Stress axis : x y z
#
# Youngs Moduli (GPa) = 79.21170 61.36919 39.27959
#
# Poissons Ratio (x) = 0.39592 0.03524
# Poissons Ratio (y) = 0.51103 0.12060
# Poissons Ratio (z) = 0.07107 0.18842
#
# Static dielectric constant tensor:
#      x y z
#    x 1.531850 0.000000 0.000000 
#    y 0.000000 1.567520 0.000000 
#    z 0.000000 0.000000 1.571310 
# 
# From -- ./inp_files/42466.got.cif
#   From: 2010.05.17/outbox.cif.g08.bks.cpg/sg63_22_cif.got.tgz:42466.got - 2010.06.03 15:47:04.
