data_PCOD9469788
_publ_section_title
;
Structure prediction by ZEFSAII (Michael W. Deem and Ramdas Pophale) SiO2 
 PCOD9469788
Probable space group: C M C M
;
_chemical_formula_sum "Si O2"
_cell_formula_units_Z 80
_cell_length_a 16.868581
_cell_length_b 24.400292
_cell_length_c 12.822305
_cell_angle_alpha 90.000000
_cell_angle_beta 90.000000
_cell_angle_gamma 90.000000
_cell_volume 5277.638966
_symmetry_space_group_name_H-M "C M C M"
_symmetry_group_IT_number 63
_symmetry_cell_setting 'orthorhombic'
loop_
_space_group_symop_operation_xyz
x,y,z
-x,-y,1/2+z
x,-y,-z
-x,y,1/2-z
-x,-y,-z
x,y,1/2-z
-x,y,z
x,-y,1/2+z
1/2+x,1/2+y,z
1/2-x,1/2-y,1/2+z
1/2+x,1/2-y,-z
1/2-x,1/2+y,1/2-z
1/2-x,1/2-y,-z
1/2+x,1/2+y,1/2-z
1/2-x,1/2+y,z
1/2+x,1/2-y,1/2+z
loop_
_atom_site_type_symbol
_atom_site_label
_atom_site_fract_x
_atom_site_fract_y
_atom_site_fract_z
Si Si1 0.403718 0.261222 0.250000
Si Si2 0.339109 0.349502 0.629757
Si Si3 0.904119 0.109284 0.750000
Si Si4 0.095904 0.938534 0.470289
Si Si5 0.810886 0.707682 0.055613
Si Si6 0.905991 0.726850 0.866635
O O1 0.500000 0.254273 0.250000
O O2 0.385378 0.326163 0.250000
O O3 0.362872 0.235113 0.147305
O O4 0.348786 0.365612 0.750000
O O5 0.373332 0.394530 0.552944
O O6 0.247089 0.337451 0.604131
O O7 0.384513 0.291154 0.616091
O O8 0.876624 0.079929 0.855433
O O9 0.000000 0.106086 0.750000
O O10 0.000000 0.937019 0.471382
O O11 0.120493 0.000000 0.500000
O O12 0.750000 0.750000 0.000000
O O13 0.867190 0.692312 0.959324
O O14 0.875823 0.713240 0.750000
O O15 0.000000 0.721173 0.868356
#
# Coordination Sequence:
#
# PCOD9469788 Si02
#       6
#     8  16   8  16  16  16
#     4  11  20  32  51  72 101 137 170 205 249 306
#     4  10  19  32  47  67  96 129 164 202 242 289
#     4   9  18  32  45  66  94 123 162 201 240 284
#     4  10  21  34  50  70  93 128 170 209 244 283
#     4  10  19  30  46  68  99 130 165 201 245 294
#     4   9  17  29  46  69  96 129 166 197 234 291
#
# _framework density 15.158294
#
# number of rings (size 3 to 8) (size 9 to 14) (size 15 to 20)
#    0.000    2.200    1.000    3.600    2.800    2.800 
#    1.800    0.000    0.000    0.000    0.000    0.000 
#    0.000    3.200    1.200    0.000    0.000    0.000 
#
# Total GULP energy -222873.164125 kJ/mol
# GULP energy per Si atom -5571.829103 kJ/mol
# Density = 1.512379 g / cm^3
# Si number density = 15.158294 Si / 1000 Ang^3
#
#
#
# Elastic Constant Matrix: (Units=GPa)
#
#
# Indices 1 2 3 4 5 6 
#
# 1 41.6944 0.0516 15.8635 0.0000 0.0000 0.0000
# 2 0.0516 22.4501 16.1452 0.0000 0.0000 0.0000
# 3 15.8635 16.1452 104.7223 0.0000 0.0000 0.0000
# 4 0.0000 0.0000 0.0000 7.0176 0.0000 0.0000
# 5 0.0000 0.0000 0.0000 0.0000 30.5393 0.0000
# 6 0.0000 0.0000 0.0000 0.0000 0.0000 18.1570
#
#
#
# Elastic Compliance Matrix: (Units=1/GPa)
#
#
# Indices 1 2 3 4 5 6 
#
# 1 0.025638 0.003075 -0.004358 0.000000 0.000000 0.000000
# 2 0.003075 0.050467 -0.008246 0.000000 0.000000 0.000000
# 3 -0.004358 -0.008246 0.011481 0.000000 0.000000 0.000000
# 4 0.000000 0.000000 0.000000 0.142498 0.000000 0.000000
# 5 0.000000 0.000000 0.000000 0.000000 0.032745 0.000000
# 6 0.000000 0.000000 0.000000 0.000000 0.000000 0.055075
#
#
# Mechanical properties :
#
#
# Convention : Reuss Voigt Hill
#
# Bulk Modulus (GPa) = 14.59273 25.88748 20.24010
# Shear Modulus (GPa) = 13.89645 20.26323 17.07984
#
# Velocity S-wave (km/s) = 3.03108 3.66016 3.36037
# Velocity P-wave (km/s) = 4.67950 5.91418 5.33269
#
# Compressibility (1/GPa) = 0.06852726
#
# Stress axis : x y z
#
# Youngs Moduli (GPa) = 39.00420 19.81506 87.10399
#
# Poissons Ratio (x) = -0.06093 0.37958
# Poissons Ratio (y) = -0.11994 0.71829
# Poissons Ratio (z) = 0.16997 0.16340
#
# Static dielectric constant tensor:
#      x y z
#    x 1.637630 0.000000 0.000000 
#    y 0.000000 1.470580 0.000000 
#    z 0.000000 0.000000 1.542380 
# 
# From -- ./inp_files/21060.got.cif
#   From: 2010.05.17/outbox.cif.g08.bks.cpg/sg63_11_cif.got.tgz:21060.got - 2010.06.03 15:47:04.
