data_PCOD9469921
_publ_section_title
;
Structure prediction by ZEFSAII (Michael W. Deem and Ramdas Pophale) SiO2 
 PCOD9469921
Probable space group: C M C M
;
_chemical_formula_sum "Si O2"
_cell_formula_units_Z 80
_cell_length_a 19.891216
_cell_length_b 25.833841
_cell_length_c 9.174306
_cell_angle_alpha 90.000000
_cell_angle_beta 90.000000
_cell_angle_gamma 90.000000
_cell_volume 4714.368619
_symmetry_space_group_name_H-M "C M C M"
_symmetry_group_IT_number 63
_symmetry_cell_setting 'orthorhombic'
loop_
_space_group_symop_operation_xyz
x,y,z
-x,-y,1/2+z
x,-y,-z
-x,y,1/2-z
-x,-y,-z
x,y,1/2-z
-x,y,z
x,-y,1/2+z
1/2+x,1/2+y,z
1/2-x,1/2-y,1/2+z
1/2+x,1/2-y,-z
1/2-x,1/2+y,1/2-z
1/2-x,1/2-y,-z
1/2+x,1/2+y,1/2-z
1/2-x,1/2+y,z
1/2+x,1/2-y,1/2+z
loop_
_atom_site_type_symbol
_atom_site_label
_atom_site_fract_x
_atom_site_fract_y
_atom_site_fract_z
Si Si1 0.500000 0.259235 0.916228
Si Si2 0.642277 0.253152 0.074950
Si Si3 0.759594 0.447618 0.418116
Si Si4 0.500000 0.381885 0.587246
Si Si5 0.740376 0.829826 0.426643
Si Si6 0.901911 0.948572 0.082706
O O1 0.500000 0.237813 0.750000
O O2 0.500000 0.321008 0.904465
O O3 0.569193 0.247677 0.001586
O O4 0.636777 0.249096 0.250000
O O5 0.684527 0.306523 0.043937
O O6 0.689419 0.208344 0.008105
O O7 0.782299 0.500000 0.500000
O O8 0.781602 0.451129 0.250000
O O9 0.774169 0.389216 0.472485
O O10 0.678417 0.447820 0.420894
O O11 0.500000 0.404197 0.750000
O O12 0.564556 0.401425 0.500222
O O13 0.732230 0.827156 0.250000
O O14 0.922626 0.948924 0.250000
O O15 0.924144 0.000000 0.000000
#
# Coordination Sequence:
#
# PCOD9469921 Si02
#       6
#     8  16  16   8  16  16
#     4  11  23  36  50  71 100 131 164 206 255 302
#     4  10  20  34  54  77 101 132 171 211 251 301
#     4   9  18  31  48  70  96 126 160 200 244 291
#     4  11  22  32  43  61  86 121 163 202 241 286
#     4   9  18  34  53  75 104 135 167 206 255 302
#     4  10  19  31  45  62  88 123 162 202 242 282
#
# _framework density 16.969398000000002
#
# number of rings (size 3 to 8) (size 9 to 14) (size 15 to 20)
#    0.000    2.200    0.000    3.300    0.000    5.600 
#    0.000    0.000    0.000    0.000    0.000    0.700 
#    0.000    0.000    0.000    0.000    0.000    0.000 
#
# Total GULP energy -222873.459833 kJ/mol
# GULP energy per Si atom -5571.836496 kJ/mol
# Density = 1.693077 g / cm^3
# Si number density = 16.969398 Si / 1000 Ang^3
#
#
#
# Elastic Constant Matrix: (Units=GPa)
#
#
# Indices 1 2 3 4 5 6 
#
# 1 81.7498 25.1539 38.7133 0.0000 0.0000 0.0000
# 2 25.1539 113.3475 40.7657 0.0000 0.0000 0.0000
# 3 38.7133 40.7657 92.0928 0.0000 0.0000 0.0000
# 4 0.0000 0.0000 0.0000 25.1514 0.0000 0.0000
# 5 0.0000 0.0000 0.0000 0.0000 25.1173 0.0000
# 6 0.0000 0.0000 0.0000 0.0000 0.0000 23.3111
#
#
#
# Elastic Compliance Matrix: (Units=1/GPa)
#
#
# Indices 1 2 3 4 5 6 
#
# 1 0.015432 -0.001298 -0.005912 0.000000 0.000000 0.000000
# 2 -0.001298 0.010602 -0.004147 0.000000 0.000000 0.000000
# 3 -0.005912 -0.004147 0.015180 0.000000 0.000000 0.000000
# 4 0.000000 0.000000 0.000000 0.039759 0.000000 0.000000
# 5 0.000000 0.000000 0.000000 0.000000 0.039813 0.000000
# 6 0.000000 0.000000 0.000000 0.000000 0.000000 0.042898
#
#
# Mechanical properties :
#
#
# Convention : Reuss Voigt Hill
#
# Bulk Modulus (GPa) = 54.06056 55.16178 54.61117
# Shear Modulus (GPa) = 25.96508 26.88644 26.42576
#
# Velocity S-wave (km/s) = 3.91591 3.98478 3.95049
# Velocity P-wave (km/s) = 7.23689 7.33134 7.28427
#
# Compressibility (1/GPa) = 0.01849777
#
# Stress axis : x y z
#
# Youngs Moduli (GPa) = 64.80140 94.32053 65.87642
#
# Poissons Ratio (x) = 0.12244 0.38949
# Poissons Ratio (y) = 0.08412 0.27322
# Poissons Ratio (z) = 0.38314 0.39119
#
# Static dielectric constant tensor:
#      x y z
#    x 1.562160 0.000000 0.000000 
#    y 0.000000 1.596230 0.000000 
#    z 0.000000 0.000000 1.586340 
# 
# From -- ./inp_files/6475.got.cif
#   From: 2010.05.17/outbox.cif.g08.bks.cpg/sg63_4_cif.got.tgz:6475.got - 2010.06.03 15:47:04.
