data_PCOD9469513
_publ_section_title
;
Structure prediction by ZEFSAII (Michael W. Deem and Ramdas Pophale) SiO2 
 PCOD9469513
Probable space group: C M C M
;
_chemical_formula_sum "Si O2"
_cell_formula_units_Z 64
_cell_length_a 11.923744
_cell_length_b 20.154974
_cell_length_c 14.146175
_cell_angle_alpha 90.000000
_cell_angle_beta 90.000000
_cell_angle_gamma 90.000000
_cell_volume 3399.647682
_symmetry_space_group_name_H-M "C M C M"
_symmetry_group_IT_number 63
_symmetry_cell_setting 'orthorhombic'
loop_
_space_group_symop_operation_xyz
x,y,z
-x,-y,1/2+z
x,-y,-z
-x,y,1/2-z
-x,-y,-z
x,y,1/2-z
-x,y,z
x,-y,1/2+z
1/2+x,1/2+y,z
1/2-x,1/2-y,1/2+z
1/2+x,1/2-y,-z
1/2-x,1/2+y,1/2-z
1/2-x,1/2-y,-z
1/2+x,1/2+y,1/2-z
1/2-x,1/2+y,z
1/2+x,1/2-y,1/2+z
loop_
_atom_site_type_symbol
_atom_site_label
_atom_site_fract_x
_atom_site_fract_y
_atom_site_fract_z
Si Si1 0.737842 0.441387 0.423054
Si Si2 0.135889 0.349825 0.750000
Si Si3 0.237819 0.181950 0.442967
Si Si4 0.500000 0.640484 0.356762
Si Si5 0.500000 0.515124 0.889465
Si Si6 0.632248 0.003990 0.750000
O O1 0.739354 0.500000 0.500000
O O2 0.765001 0.375906 0.481823
O O3 0.614409 0.444566 0.373965
O O4 0.824661 0.458705 0.342061
O O5 0.186883 0.320389 0.847408
O O6 0.173276 0.427503 0.750000
O O7 0.000000 0.345342 0.750000
O O8 0.250000 0.250000 0.500000
O O9 0.111165 0.165186 0.409508
O O10 0.500000 0.666476 0.250000
O O11 0.500000 0.559822 0.350203
O O12 0.500000 0.500000 0.000000
O O13 0.500000 0.000720 0.750000
#
# Coordination Sequence:
#
# PCOD9469513 Si02
#       6
#    16   8  16   8   8   8
#     4  11  21  40  66  98 128 162 220 277 327 379
#     4  11  24  44  65  93 127 175 218 263 326 395
#     4  12  26  43  67  97 134 176 215 268 333 396
#     4  12  22  42  72  97 126 170 224 270 331 402
#     4  10  18  34  70 100 122 147 213 284 330 370
#     4  11  24  40  65  95 131 173 226 265 312 389
#
# _framework density 18.825479999999999
#
# number of rings (size 3 to 8) (size 9 to 14) (size 15 to 20)
#    0.000    0.750    8.750    0.000    3.500    2.500 
#    0.000    0.000    0.000    0.000    0.000    0.000 
#    0.000    0.000    0.000    0.000    0.000    0.000 
#
# Total GULP energy -178630.787398 kJ/mol
# GULP energy per Si atom -5582.212106 kJ/mol
# Density = 1.878263 g / cm^3
# Si number density = 18.825480 Si / 1000 Ang^3
#
#
#
# Elastic Constant Matrix: (Units=GPa)
#
#
# Indices 1 2 3 4 5 6 
#
# 1 71.8097 25.2820 53.6534 0.0000 0.0000 0.0000
# 2 25.2820 139.9544 80.3199 0.0000 0.0000 0.0000
# 3 53.6534 80.3199 159.1353 0.0000 0.0000 0.0000
# 4 0.0000 0.0000 0.0000 8.7405 0.0000 0.0000
# 5 0.0000 0.0000 0.0000 0.0000 19.8332 0.0000
# 6 0.0000 0.0000 0.0000 0.0000 0.0000 11.3289
#
#
#
# Elastic Compliance Matrix: (Units=1/GPa)
#
#
# Indices 1 2 3 4 5 6 
#
# 1 0.018626 0.000337 -0.006450 0.000000 0.000000 0.000000
# 2 0.000337 0.010065 -0.005194 0.000000 0.000000 0.000000
# 3 -0.006450 -0.005194 0.011080 0.000000 0.000000 0.000000
# 4 0.000000 0.000000 0.000000 0.114410 0.000000 0.000000
# 5 0.000000 0.000000 0.000000 0.000000 0.050421 0.000000
# 6 0.000000 0.000000 0.000000 0.000000 0.000000 0.088269
#
#
# Mechanical properties :
#
#
# Convention : Reuss Voigt Hill
#
# Bulk Modulus (GPa) = 58.28271 76.60111 67.44191
# Shear Modulus (GPa) = 15.56645 22.09013 18.82829
#
# Velocity S-wave (km/s) = 2.87868 3.42923 3.16594
# Velocity P-wave (km/s) = 6.48658 7.51385 7.01903
#
# Compressibility (1/GPa) = 0.01715775
#
# Stress axis : x y z
#
# Youngs Moduli (GPa) = 53.68762 99.35459 90.25272
#
# Poissons Ratio (x) = -0.03348 0.58213
# Poissons Ratio (y) = -0.01809 0.46874
# Poissons Ratio (z) = 0.34629 0.51601
#
# Static dielectric constant tensor:
#      x y z
#    x 1.807990 0.000000 0.000000 
#    y 0.000000 1.645030 0.000000 
#    z 0.000000 0.000000 1.641750 
# 
# From -- ./inp_files/29236.got.cif
#   From: 2010.05.17/outbox.cif.g08.bks.cpg/sg63_15_cif.got.tgz:29236.got - 2010.06.03 15:47:04.
