data_PCOD9469113
_publ_section_title
;
Structure prediction by ZEFSAII (Michael W. Deem and Ramdas Pophale) SiO2 
 PCOD9469113
Probable space group: C M C M
;
_chemical_formula_sum "Si O2"
_cell_formula_units_Z 96
_cell_length_a 25.535932
_cell_length_b 9.668646
_cell_length_c 21.768325
_cell_angle_alpha 90.000000
_cell_angle_beta 90.000000
_cell_angle_gamma 90.000000
_cell_volume 5374.553441
_symmetry_space_group_name_H-M "C M C M"
_symmetry_group_IT_number 63
_symmetry_cell_setting 'orthorhombic'
loop_
_space_group_symop_operation_xyz
x,y,z
-x,-y,1/2+z
x,-y,-z
-x,y,1/2-z
-x,-y,-z
x,y,1/2-z
-x,y,z
x,-y,1/2+z
1/2+x,1/2+y,z
1/2-x,1/2-y,1/2+z
1/2+x,1/2-y,-z
1/2-x,1/2+y,1/2-z
1/2-x,1/2-y,-z
1/2+x,1/2+y,1/2-z
1/2-x,1/2+y,z
1/2+x,1/2-y,1/2+z
loop_
_atom_site_type_symbol
_atom_site_label
_atom_site_fract_x
_atom_site_fract_y
_atom_site_fract_z
Si Si1 0.354969 0.309120 0.856360
Si Si2 0.220344 0.044803 0.819145
Si Si3 0.695452 0.334152 0.991036
Si Si4 0.337869 0.002417 0.677879
Si Si5 0.638426 0.266745 0.387876
Si Si6 0.437754 0.526018 0.823140
O O1 0.313871 0.405868 0.819954
O O2 0.409652 0.388766 0.848763
O O3 0.359266 0.156045 0.830524
O O4 0.330390 0.309878 0.924520
O O5 0.227232 0.096190 0.750000
O O6 0.277498 0.011624 0.843897
O O7 0.188766 0.159556 0.856039
O O8 0.652823 0.283782 0.041142
O O9 0.704202 0.500000 0.000000
O O10 0.750000 0.250000 0.000000
O O11 0.339114 0.962340 0.750000
O O12 0.365272 0.888252 0.636405
O O13 0.589238 0.352329 0.362333
O O14 0.425102 0.541337 0.750000
O O15 0.500000 0.523523 0.829351
#
# Coordination Sequence:
#
# PCOD9469113 Si02
#       6
#    16  16  16  16  16  16
#     4  11  22  36  55  83 119 154 203 244 293 355
#     4  10  18  31  51  77 112 153 190 234 291 357
#     4  12  24  38  58  86 125 168 204 235 283 351
#     4  11  21  33  54  85 118 154 190 243 307 362
#     4  11  22  36  55  83 119 154 203 244 293 355
#     4  10  21  41  66  87 111 151 205 266 319 358
#
# _framework density 17.86195
#
# number of rings (size 3 to 8) (size 9 to 14) (size 15 to 20)
#    0.000    1.167    3.333    7.000    2.333    2.667 
#    0.000    2.500    0.000    3.000    0.000    2.333 
#    0.000    0.000    0.000    0.000    0.000    0.000 
#
# Total GULP energy -268060.782340 kJ/mol
# GULP energy per Si atom -5584.599632 kJ/mol
# Density = 1.782130 g / cm^3
# Si number density = 17.861950 Si / 1000 Ang^3
#
#
#
# Elastic Constant Matrix: (Units=GPa)
#
#
# Indices 1 2 3 4 5 6 
#
# 1 93.2367 14.7455 25.0406 0.0000 0.0000 0.0000
# 2 14.7455 84.7038 -6.7815 0.0000 0.0000 0.0000
# 3 25.0406 -6.7815 79.8953 0.0000 0.0000 0.0000
# 4 0.0000 0.0000 0.0000 24.7345 0.0000 0.0000
# 5 0.0000 0.0000 0.0000 0.0000 14.1067 0.0000
# 6 0.0000 0.0000 0.0000 0.0000 0.0000 6.3500
#
#
#
# Elastic Compliance Matrix: (Units=1/GPa)
#
#
# Indices 1 2 3 4 5 6 
#
# 1 0.012194 -0.002445 -0.004029 0.000000 0.000000 0.000000
# 2 -0.002445 0.012377 0.001817 0.000000 0.000000 0.000000
# 3 -0.004029 0.001817 0.013934 0.000000 0.000000 0.000000
# 4 0.000000 0.000000 0.000000 0.040429 0.000000 0.000000
# 5 0.000000 0.000000 0.000000 0.000000 0.070888 0.000000
# 6 0.000000 0.000000 0.000000 0.000000 0.000000 0.157479
#
#
# Mechanical properties :
#
#
# Convention : Reuss Voigt Hill
#
# Bulk Modulus (GPa) = 34.25942 35.98277 35.12110
# Shear Modulus (GPa) = 15.32109 24.02698 19.67403
#
# Velocity S-wave (km/s) = 2.93191 3.67161 3.32241
# Velocity P-wave (km/s) = 5.53925 6.17761 5.86712
#
# Compressibility (1/GPa) = 0.02918905
#
# Stress axis : x y z
#
# Youngs Moduli (GPa) = 82.00519 80.79484 71.76934
#
# Poissons Ratio (x) = 0.19758 0.28919
# Poissons Ratio (y) = 0.20054 -0.13041
# Poissons Ratio (z) = 0.33044 -0.14680
#
# Static dielectric constant tensor:
#      x y z
#    x 1.581580 0.000000 0.000000 
#    y 0.000000 1.625500 0.000000 
#    z 0.000000 0.000000 1.590660 
# 
# From -- ./inp_files/58059.got.cif
#   From: 2010.05.17/outbox.cif.g08.bks.cpg/sg63_30_cif.got.tgz:58059.got - 2010.06.03 15:47:04.
