data_PCOD9469648
_publ_section_title
;
Structure prediction by ZEFSAII (Michael W. Deem and Ramdas Pophale) SiO2 
 PCOD9469648
Probable space group: C M C M
;
_chemical_formula_sum "Si O2"
_cell_formula_units_Z 80
_cell_length_a 14.411984
_cell_length_b 39.612686
_cell_length_c 9.805736
_cell_angle_alpha 90.000000
_cell_angle_beta 90.000000
_cell_angle_gamma 90.000000
_cell_volume 5598.069156
_symmetry_space_group_name_H-M "C M C M"
_symmetry_group_IT_number 63
_symmetry_cell_setting 'orthorhombic'
loop_
_space_group_symop_operation_xyz
x,y,z
-x,-y,1/2+z
x,-y,-z
-x,y,1/2-z
-x,-y,-z
x,y,1/2-z
-x,y,z
x,-y,1/2+z
1/2+x,1/2+y,z
1/2-x,1/2-y,1/2+z
1/2+x,1/2-y,-z
1/2-x,1/2+y,1/2-z
1/2-x,1/2-y,-z
1/2+x,1/2+y,1/2-z
1/2-x,1/2+y,z
1/2+x,1/2-y,1/2+z
loop_
_atom_site_type_symbol
_atom_site_label
_atom_site_fract_x
_atom_site_fract_y
_atom_site_fract_z
Si Si1 0.389762 0.892746 0.586351
Si Si2 0.887185 0.530582 0.093884
Si Si3 0.892341 0.798371 0.411885
Si Si4 0.388974 0.233816 0.592643
Si Si5 0.713159 0.836636 0.087819
O O1 0.378049 0.888925 0.750000
O O2 0.500000 0.888419 0.558042
O O3 0.362820 0.931354 0.550348
O O4 0.330973 0.865932 0.502063
O O5 0.857363 0.525684 0.250000
O O6 0.000000 0.529903 0.093663
O O7 0.854319 0.500000 0.000000
O O8 0.884994 0.791398 0.250000
O O9 0.865043 0.764844 0.494692
O O10 0.820726 0.828338 0.442042
O O11 0.000000 0.806109 0.442985
O O12 0.366007 0.242271 0.750000
O O13 0.500000 0.228923 0.583521
O O14 0.339794 0.198653 0.559373
O O15 0.702735 0.843658 0.250000
#
# Coordination Sequence:
#
# PCOD9469648 Si02
#       5
#    16  16  16  16  16
#     4   9  18  30  42  60  87 114 138 165 197 235
#     4   8  14  25  40  58  81 109 138 163 187 221
#     4   9  18  31  44  58  77 103 138 177 212 247
#     4   9  17  28  41  58  79 102 132 171 210 247
#     4  10  19  29  42  60  82 108 137 170 208 246
#
# _framework density 14.290641000000001
#
# number of rings (size 3 to 8) (size 9 to 14) (size 15 to 20)
#    0.000    3.000    0.000    2.400    0.000    3.600 
#    0.000    4.000    0.000    0.000    0.000    0.000 
#    0.000    0.800    0.000    1.800    0.000    2.800 
#
# Total GULP energy -222786.019832 kJ/mol
# GULP energy per Si atom -5569.650496 kJ/mol
# Density = 1.425812 g / cm^3
# Si number density = 14.290641 Si / 1000 Ang^3
#
#
#
# Elastic Constant Matrix: (Units=GPa)
#
#
# Indices 1 2 3 4 5 6 
#
# 1 54.7981 61.3119 40.9453 0.0000 0.0000 0.0000
# 2 61.3119 127.3172 74.3998 0.0000 0.0000 0.0000
# 3 40.9453 74.3998 53.8374 0.0000 0.0000 0.0000
# 4 0.0000 0.0000 0.0000 32.2641 0.0000 0.0000
# 5 0.0000 0.0000 0.0000 0.0000 15.3656 0.0000
# 6 0.0000 0.0000 0.0000 0.0000 0.0000 15.6246
#
#
#
# Elastic Compliance Matrix: (Units=1/GPa)
#
#
# Indices 1 2 3 4 5 6 
#
# 1 0.043965 -0.008484 -0.021713 0.000000 0.000000 0.000000
# 2 -0.008484 0.042451 -0.052212 0.000000 0.000000 0.000000
# 3 -0.021713 -0.052212 0.107242 0.000000 0.000000 0.000000
# 4 0.000000 0.000000 0.000000 0.030994 0.000000 0.000000
# 5 0.000000 0.000000 0.000000 0.000000 0.065081 0.000000
# 6 0.000000 0.000000 0.000000 0.000000 0.000000 0.064002
#
#
# Mechanical properties :
#
#
# Convention : Reuss Voigt Hill
#
# Bulk Modulus (GPa) = 34.67413 65.47407 50.07410
# Shear Modulus (GPa) = 9.46672 16.60390 13.03531
#
# Velocity S-wave (km/s) = 2.57659 3.41232 3.02347
# Velocity P-wave (km/s) = 5.75916 7.83842 6.87782
#
# Compressibility (1/GPa) = 0.02883995
#
# Stress axis : x y z
#
# Youngs Moduli (GPa) = 22.74527 23.55655 9.32472
#
# Poissons Ratio (x) = 0.19985 0.20247
# Poissons Ratio (y) = 0.19297 0.48686
# Poissons Ratio (z) = 0.49386 1.22994
#
# Static dielectric constant tensor:
#      x y z
#    x 1.476540 0.000000 0.000000 
#    y 0.000000 1.449560 0.000000 
#    z 0.000000 0.000000 1.476550 
# 
# From -- ./inp_files/19379.got.cif
#   From: 2010.05.17/outbox.cif.g08.bks.cpg/sg63_10_cif.got.tgz:19379.got - 2010.06.03 15:47:04.
