data_PCOD9469292
_publ_section_title
;
Structure prediction by ZEFSAII (Michael W. Deem and Ramdas Pophale) SiO2 
 PCOD9469292
Probable space group: C M C M
;
_chemical_formula_sum "Si O2"
_cell_formula_units_Z 68
_cell_length_a 7.258634
_cell_length_b 27.236405
_cell_length_c 14.263652
_cell_angle_alpha 90.000000
_cell_angle_beta 90.000000
_cell_angle_gamma 90.000000
_cell_volume 2819.911097
_symmetry_space_group_name_H-M "C M C M"
_symmetry_group_IT_number 63
_symmetry_cell_setting 'orthorhombic'
loop_
_space_group_symop_operation_xyz
x,y,z
-x,-y,1/2+z
x,-y,-z
-x,y,1/2-z
-x,-y,-z
x,y,1/2-z
-x,y,z
x,-y,1/2+z
1/2+x,1/2+y,z
1/2-x,1/2-y,1/2+z
1/2+x,1/2-y,-z
1/2-x,1/2+y,1/2-z
1/2-x,1/2-y,-z
1/2+x,1/2+y,1/2-z
1/2-x,1/2+y,z
1/2+x,1/2-y,1/2+z
loop_
_atom_site_type_symbol
_atom_site_label
_atom_site_fract_x
_atom_site_fract_y
_atom_site_fract_z
Si Si1 0.276455 0.404851 0.150172
Si Si2 0.000000 0.946472 0.750000
Si Si3 0.210628 0.514542 0.104498
Si Si4 0.275840 0.743971 0.357609
Si Si5 0.790734 0.832363 0.498757
O O1 0.221786 0.381125 0.250000
O O2 0.500000 0.403885 0.147266
O O3 0.216575 0.460791 0.151431
O O4 0.206898 0.377592 0.057549
O O5 0.160098 0.951274 0.666821
O O6 0.000000 0.532217 0.099220
O O7 0.276896 0.500000 0.000000
O O8 0.220294 0.746843 0.250000
O O9 0.500000 0.744929 0.361870
O O10 0.208375 0.789301 0.420028
O O11 0.213080 0.694128 0.409670
O O12 0.000000 0.846125 0.522828
#
# Coordination Sequence:
#
# PCOD9469292 Si02
#       5
#    16   4  16  16  16
#     4  10  18  32  53  77 106 140 181 233 285 335
#     4  12  20  40  64  88 120 156 192 236 288 364
#     4  11  23  38  61  90 120 154 192 240 295 346
#     4   9  17  30  46  68 103 140 176 219 269 324
#     4   9  18  30  49  74 100 135 179 223 269 324
#
# _framework density 24.114235999999998
#
# number of rings (size 3 to 8) (size 9 to 14) (size 15 to 20)
#    0.000    2.118    2.353    1.412    0.000    2.353 
#    0.000    0.000    2.588    0.000    0.000    0.000 
#    0.000    0.000    0.000    0.000    0.000    0.000 
#
# Total GULP energy -189374.045098 kJ/mol
# GULP energy per Si atom -5569.824856 kJ/mol
# Density = 2.405935 g / cm^3
# Si number density = 24.114236 Si / 1000 Ang^3
#
#
#
# Elastic Constant Matrix: (Units=GPa)
#
#
# Indices 1 2 3 4 5 6 
#
# 1 139.7249 -19.6301 10.3210 0.0000 0.0000 0.0000
# 2 -19.6301 31.8165 -14.9248 0.0000 0.0000 0.0000
# 3 10.3210 -14.9248 144.4853 0.0000 0.0000 0.0000
# 4 0.0000 0.0000 0.0000 25.1442 0.0000 0.0000
# 5 0.0000 0.0000 0.0000 0.0000 16.6548 0.0000
# 6 0.0000 0.0000 0.0000 0.0000 0.0000 11.1795
#
#
#
# Elastic Compliance Matrix: (Units=1/GPa)
#
#
# Indices 1 2 3 4 5 6 
#
# 1 0.007837 0.004805 -0.000063 0.000000 0.000000 0.000000
# 2 0.004805 0.035977 0.003373 0.000000 0.000000 0.000000
# 3 -0.000063 0.003373 0.007274 0.000000 0.000000 0.000000
# 4 0.000000 0.000000 0.000000 0.039771 0.000000 0.000000
# 5 0.000000 0.000000 0.000000 0.000000 0.060043 0.000000
# 6 0.000000 0.000000 0.000000 0.000000 0.000000 0.089450
#
#
# Mechanical properties :
#
#
# Convention : Reuss Voigt Hill
#
# Bulk Modulus (GPa) = 14.85488 29.72877 22.29183
# Shear Modulus (GPa) = 20.27900 33.27974 26.77937
#
# Velocity S-wave (km/s) = 2.90307 3.71898 3.33606
# Velocity P-wave (km/s) = 4.17261 5.54943 4.90952
#
# Compressibility (1/GPa) = 0.06731796
#
# Stress axis : x y z
#
# Youngs Moduli (GPa) = 127.60458 27.79535 137.47450
#
# Poissons Ratio (x) = -0.13357 0.00872
# Poissons Ratio (y) = -0.61318 -0.46371
# Poissons Ratio (z) = 0.00809 -0.09376
#
# Static dielectric constant tensor:
#      x y z
#    x 1.905680 0.000000 0.000000 
#    y 0.000000 1.934520 0.000000 
#    z 0.000000 0.000000 2.077220 
# 
# From -- ./inp_files/27756.got.cif
#   From: 2010.05.17/outbox.cif.g08.bks.cpg/sg63_14_cif.got.tgz:27756.got - 2010.06.03 15:47:04.
