data_PCOD9469220
_publ_section_title
;
Structure prediction by ZEFSAII (Michael W. Deem and Ramdas Pophale) SiO2 
 PCOD9469220
Probable space group: C M C M
;
_chemical_formula_sum "Si O2"
_cell_formula_units_Z 112
_cell_length_a 29.028584
_cell_length_b 14.855319
_cell_length_c 14.653934
_cell_angle_alpha 90.000000
_cell_angle_beta 90.000000
_cell_angle_gamma 90.000000
_cell_volume 6319.199480
_symmetry_space_group_name_H-M "C M C M"
_symmetry_group_IT_number 63
_symmetry_cell_setting 'orthorhombic'
loop_
_space_group_symop_operation_xyz
x,y,z
-x,-y,1/2+z
x,-y,-z
-x,y,1/2-z
-x,-y,-z
x,y,1/2-z
-x,y,z
x,-y,1/2+z
1/2+x,1/2+y,z
1/2-x,1/2-y,1/2+z
1/2+x,1/2-y,-z
1/2-x,1/2+y,1/2-z
1/2-x,1/2-y,-z
1/2+x,1/2+y,1/2-z
1/2-x,1/2+y,z
1/2+x,1/2-y,1/2+z
loop_
_atom_site_type_symbol
_atom_site_label
_atom_site_fract_x
_atom_site_fract_y
_atom_site_fract_z
Si Si1 0.374323 0.656172 0.852336
Si Si2 0.214829 0.467963 0.854596
Si Si3 0.191019 0.340606 0.362194
Si Si4 0.445498 0.391554 0.999217
Si Si5 0.284108 0.764293 0.638040
Si Si6 0.680287 0.482686 0.608080
Si Si7 0.122177 0.190936 0.143556
O O1 0.385021 0.686485 0.750000
O O2 0.330997 0.713680 0.889025
O O3 0.354111 0.555312 0.850511
O O4 0.418606 0.651952 0.915825
O O5 0.198552 0.458967 0.750000
O O6 0.190582 0.556143 0.894918
O O7 0.213504 0.367573 0.894670
O O8 0.268630 0.494469 0.854769
O O9 0.192467 0.342045 0.250000
O O10 0.237955 0.288675 0.391173
O O11 0.146199 0.283236 0.388123
O O12 0.500000 0.377323 0.001192
O O13 0.420829 0.346202 0.912743
O O14 0.437269 0.500000 0.000000
O O15 0.282604 0.764385 0.750000
O O16 0.680984 0.500000 0.500000
O O17 0.661936 0.384192 0.630947
O O18 0.110920 0.198316 0.250000
#
# Coordination Sequence:
#
# PCOD9469220 Si02
#       7
#    16  16  16  16  16  16  16
#     4  11  20  35  55  76 104 145 180 207 257 313
#     4  10  18  32  48  72 111 147 181 219 247 286
#     4   9  17  28  49  77 105 142 180 210 247 301
#     4  11  24  40  55  79 107 129 169 224 271 317
#     4   9  17  28  49  77 105 142 180 210 247 301
#     4  12  20  30  46  76 112 144 181 213 248 302
#     4  11  20  35  55  76 104 145 180 207 257 313
#
# _framework density 17.723763999999999
#
# number of rings (size 3 to 8) (size 9 to 14) (size 15 to 20)
#    0.000    1.571    5.714    1.286    0.000    0.571 
#    2.571    3.571    0.000    0.000    0.000    2.000 
#    0.000    5.714    0.000    0.000    0.000    0.000 
#
# Total GULP energy -312656.101519 kJ/mol
# GULP energy per Si atom -5583.144670 kJ/mol
# Density = 1.768342 g / cm^3
# Si number density = 17.723764 Si / 1000 Ang^3
#
#
#
# Elastic Constant Matrix: (Units=GPa)
#
#
# Indices 1 2 3 4 5 6 
#
# 1 101.8092 34.0957 28.4126 0.0000 0.0000 0.0000
# 2 34.0957 104.4946 9.8495 0.0000 0.0000 0.0000
# 3 28.4126 9.8495 68.6425 0.0000 0.0000 0.0000
# 4 0.0000 0.0000 0.0000 7.6425 0.0000 0.0000
# 5 0.0000 0.0000 0.0000 0.0000 -210.5574 0.0000
# 6 0.0000 0.0000 0.0000 0.0000 0.0000 21.9633
#
#
#
# Elastic Compliance Matrix: (Units=1/GPa)
#
#
# Indices 1 2 3 4 5 6 
#
# 1 0.012299 -0.003582 -0.004577 0.000000 0.000000 0.000000
# 2 -0.003582 0.010744 -0.000059 0.000000 0.000000 0.000000
# 3 -0.004577 -0.000059 0.016471 0.000000 0.000000 0.000000
# 4 0.000000 0.000000 0.000000 0.130848 0.000000 0.000000
# 5 0.000000 0.000000 0.000000 0.000000 -0.004749 0.000000
# 6 0.000000 0.000000 0.000000 0.000000 0.000000 0.045531
#
#
# Mechanical properties :
#
#
# Convention : Reuss Voigt Hill
#
# Bulk Modulus (GPa) = 43.32954 46.62910 44.97932
# Shear Modulus (GPa) = 21.25201 -22.68443 -0.71621
#
# Velocity S-wave (km/s) = 3.46651 -3.58143 -0.63638
# Velocity P-wave (km/s) = 6.36573 3.04363 4.98930
#
# Compressibility (1/GPa) = 0.02307894
#
# Stress axis : x y z
#
# Youngs Moduli (GPa) = 81.30672 93.07421 60.71195
#
# Poissons Ratio (x) = 0.33336 0.27787
# Poissons Ratio (y) = 0.29121 0.00359
# Poissons Ratio (z) = 0.37214 0.00550
#
# Static dielectric constant tensor:
#      x y z
#    x 1.554750 0.000000 0.000000 
#    y 0.000000 1.634240 0.000000 
#    z 0.000000 0.000000 1.687450 
# 
# From -- ./inp_files/37956.got.cif
#   From: 2010.05.17/outbox.cif.g08.bks.cpg/sg63_19_cif.got.tgz:37956.got - 2010.06.03 15:47:04.
