data_PCOD9469045
_publ_section_title
;
Structure prediction by ZEFSAII (Michael W. Deem and Ramdas Pophale) SiO2 
 PCOD9469045
Probable space group: C M C M
;
_chemical_formula_sum "Si O2"
_cell_formula_units_Z 80
_cell_length_a 24.388062
_cell_length_b 27.253929
_cell_length_c 8.575633
_cell_angle_alpha 90.000000
_cell_angle_beta 90.000000
_cell_angle_gamma 90.000000
_cell_volume 5699.970361
_symmetry_space_group_name_H-M "C M C M"
_symmetry_group_IT_number 63
_symmetry_cell_setting 'orthorhombic'
loop_
_space_group_symop_operation_xyz
x,y,z
-x,-y,1/2+z
x,-y,-z
-x,y,1/2-z
-x,-y,-z
x,y,1/2-z
-x,y,z
x,-y,1/2+z
1/2+x,1/2+y,z
1/2-x,1/2-y,1/2+z
1/2+x,1/2-y,-z
1/2-x,1/2+y,1/2-z
1/2-x,1/2-y,-z
1/2+x,1/2+y,1/2-z
1/2-x,1/2+y,z
1/2+x,1/2-y,1/2+z
loop_
_atom_site_type_symbol
_atom_site_label
_atom_site_fract_x
_atom_site_fract_y
_atom_site_fract_z
Si Si1 0.000000 0.395781 0.938585
Si Si2 0.500000 0.784754 0.064678
Si Si3 0.685669 0.145057 0.060547
Si Si4 0.114516 0.445571 0.938387
Si Si5 0.116128 0.741550 0.063242
Si Si6 0.214243 0.795681 0.937282
O O1 0.054807 0.424723 0.985693
O O2 0.000000 0.391717 0.750000
O O3 0.000000 0.340929 0.004408
O O4 0.500000 0.784638 0.250000
O O5 0.555123 0.759466 0.002201
O O6 0.684357 0.144869 0.250000
O O7 0.659638 0.094076 0.007328
O O8 0.646456 0.190613 0.012731
O O9 0.748164 0.157889 0.015532
O O10 0.115343 0.446681 0.750000
O O11 0.123223 0.500000 0.000000
O O12 0.114857 0.741494 0.250000
O O13 0.154184 0.786158 0.005131
O O14 0.211818 0.793796 0.750000
O O15 0.250000 0.750000 0.000000
#
# Coordination Sequence:
#
# PCOD9469045 Si02
#       6
#     8   8  16  16  16  16
#     4  10  19  33  47  54  78 116 148 181 227 267
#     4  12  22  29  43  66  87 108 143 185 214 253
#     4   8  15  28  45  59  79 108 137 171 218 260
#     4  10  19  31  44  60  80 111 147 184 223 259
#     4  10  18  31  46  60  82 113 140 170 215 262
#     4   9  16  27  43  64  83 105 137 174 213 258
#
# _framework density 14.035161
#
# number of rings (size 3 to 8) (size 9 to 14) (size 15 to 20)
#    0.000    2.400    2.000    3.600    0.000    0.800 
#    0.000    2.000    0.000    0.000    0.000    0.000 
#    0.000    0.000    0.000    0.900    0.000   10.800 
#
# Total GULP energy -222854.562352 kJ/mol
# GULP energy per Si atom -5571.364059 kJ/mol
# Density = 1.400322 g / cm^3
# Si number density = 14.035161 Si / 1000 Ang^3
#
#
#
# Elastic Constant Matrix: (Units=GPa)
#
#
# Indices 1 2 3 4 5 6 
#
# 1 130.0394 72.0678 29.8990 0.0000 0.0000 0.0000
# 2 72.0678 77.1134 19.6129 0.0000 0.0000 0.0000
# 3 29.8990 19.6129 31.3792 0.0000 0.0000 0.0000
# 4 0.0000 0.0000 0.0000 18.3379 0.0000 0.0000
# 5 0.0000 0.0000 0.0000 0.0000 18.5651 0.0000
# 6 0.0000 0.0000 0.0000 0.0000 0.0000 14.7069
#
#
#
# Elastic Compliance Matrix: (Units=1/GPa)
#
#
# Indices 1 2 3 4 5 6 
#
# 1 0.017356 -0.014286 -0.007609 0.000000 0.000000 0.000000
# 2 -0.014286 0.027177 -0.003375 0.000000 0.000000 0.000000
# 3 -0.007609 -0.003375 0.041227 0.000000 0.000000 0.000000
# 4 0.000000 0.000000 0.000000 0.054532 0.000000 0.000000
# 5 0.000000 0.000000 0.000000 0.000000 0.053865 0.000000
# 6 0.000000 0.000000 0.000000 0.000000 0.000000 0.067995
#
#
# Mechanical properties :
#
#
# Convention : Reuss Voigt Hill
#
# Bulk Modulus (GPa) = 28.39080 53.52127 40.95604
# Shear Modulus (GPa) = 15.41155 18.11881 16.76518
#
# Velocity S-wave (km/s) = 3.31730 3.59689 3.45992
# Velocity P-wave (km/s) = 5.91142 7.44759 6.72353
#
# Compressibility (1/GPa) = 0.03522267
#
# Stress axis : x y z
#
# Youngs Moduli (GPa) = 57.61531 36.79566 24.25568
#
# Poissons Ratio (x) = 0.52565 0.18456
# Poissons Ratio (y) = 0.82307 0.08186
# Poissons Ratio (z) = 0.43839 0.12418
#
# Static dielectric constant tensor:
#      x y z
#    x 1.478020 0.000000 0.000000 
#    y 0.000000 1.447990 0.000000 
#    z 0.000000 0.000000 1.476280 
# 
# From -- ./inp_files/8436.got.cif
#   From: 2010.05.17/outbox.cif.g08.bks.cpg/sg63_5_cif.got.tgz:8436.got - 2010.06.03 15:47:04.
