data_PCOD9469937
_publ_section_title
;
Structure prediction by ZEFSAII (Michael W. Deem and Ramdas Pophale) SiO2 
 PCOD9469937
Probable space group: C M C M
;
_chemical_formula_sum "Si O2"
_cell_formula_units_Z 96
_cell_length_a 8.938162
_cell_length_b 24.444644
_cell_length_c 26.636699
_cell_angle_alpha 90.000000
_cell_angle_beta 90.000000
_cell_angle_gamma 90.000000
_cell_volume 5819.857375
_symmetry_space_group_name_H-M "C M C M"
_symmetry_group_IT_number 63
_symmetry_cell_setting 'orthorhombic'
loop_
_space_group_symop_operation_xyz
x,y,z
-x,-y,1/2+z
x,-y,-z
-x,y,1/2-z
-x,-y,-z
x,y,1/2-z
-x,y,z
x,-y,1/2+z
1/2+x,1/2+y,z
1/2-x,1/2-y,1/2+z
1/2+x,1/2-y,-z
1/2-x,1/2+y,1/2-z
1/2-x,1/2-y,-z
1/2+x,1/2+y,1/2-z
1/2-x,1/2+y,z
1/2+x,1/2-y,1/2+z
loop_
_atom_site_type_symbol
_atom_site_label
_atom_site_fract_x
_atom_site_fract_y
_atom_site_fract_z
Si Si1 0.180854 0.333989 0.191773
Si Si2 0.827038 0.083229 0.617532
Si Si3 0.672034 0.680925 0.963403
Si Si4 0.820574 0.514572 0.442308
Si Si5 0.680970 0.632309 0.070883
Si Si6 0.320614 0.741933 0.385965
O O1 0.222780 0.330431 0.250000
O O2 0.249776 0.386868 0.164514
O O3 0.230149 0.280162 0.160191
O O4 0.000000 0.337025 0.188474
O O5 0.823783 0.128907 0.573659
O O6 0.000000 0.070215 0.628340
O O7 0.742660 0.031008 0.595393
O O8 0.500000 0.699778 0.967433
O O9 0.768044 0.727247 0.936409
O O10 0.721466 0.659289 0.017257
O O11 0.774253 0.500000 0.500000
O O12 0.757299 0.573644 0.426952
O O13 0.000000 0.514755 0.441059
O O14 0.500000 0.625482 0.071902
O O15 0.726113 0.678531 0.111422
O O16 0.500000 0.741846 0.385482
#
# Coordination Sequence:
#
# PCOD9469937 Si02
#       6
#    16  16  16  16  16  16
#     4   9  18  34  55  77 102 129 160 206 258 301
#     4  10  19  32  51  74 101 131 168 212 252 298
#     4   9  17  28  44  67  97 131 162 200 248 292
#     4  11  22  33  48  71 100 137 177 211 247 301
#     4  10  19  31  46  67  99 136 171 203 244 296
#     4   9  18  30  47  71  97 128 166 203 245 299
#
# _framework density 16.495249999999999
#
# number of rings (size 3 to 8) (size 9 to 14) (size 15 to 20)
#    0.000    2.333    1.667    1.500    0.000    3.000 
#    0.000    0.000    0.000    1.000    0.000    2.333 
#    0.000    0.000    0.000    0.000    0.000    0.000 
#
# Total GULP energy -267599.752306 kJ/mol
# GULP energy per Si atom -5574.994840 kJ/mol
# Density = 1.645771 g / cm^3
# Si number density = 16.495250 Si / 1000 Ang^3
#
#
#
# Elastic Constant Matrix: (Units=GPa)
#
#
# Indices 1 2 3 4 5 6 
#
# 1 29.8916 46.3829 32.3780 0.0000 0.0000 0.0000
# 2 46.3829 150.5976 58.7671 0.0000 0.0000 0.0000
# 3 32.3780 58.7671 89.4181 0.0000 0.0000 0.0000
# 4 0.0000 0.0000 0.0000 9.9312 0.0000 0.0000
# 5 0.0000 0.0000 0.0000 0.0000 17.4496 0.0000
# 6 0.0000 0.0000 0.0000 0.0000 0.0000 25.8615
#
#
#
# Elastic Compliance Matrix: (Units=1/GPa)
#
#
# Indices 1 2 3 4 5 6 
#
# 1 0.079746 -0.017878 -0.017126 0.000000 0.000000 0.000000
# 2 -0.017878 0.012939 -0.002030 0.000000 0.000000 0.000000
# 3 -0.017126 -0.002030 0.018719 0.000000 0.000000 0.000000
# 4 0.000000 0.000000 0.000000 0.100693 0.000000 0.000000
# 5 0.000000 0.000000 0.000000 0.000000 0.057308 0.000000
# 6 0.000000 0.000000 0.000000 0.000000 0.000000 0.038667
#
#
# Mechanical properties :
#
#
# Convention : Reuss Voigt Hill
#
# Bulk Modulus (GPa) = 26.78411 60.55147 43.66779
# Shear Modulus (GPa) = 12.67151 19.47374 16.07263
#
# Velocity S-wave (km/s) = 2.77463 3.43967 3.12489
# Velocity P-wave (km/s) = 5.15146 7.25005 6.28891
#
# Compressibility (1/GPa) = 0.03733557
#
# Stress axis : x y z
#
# Youngs Moduli (GPa) = 12.53974 77.28759 53.42236
#
# Poissons Ratio (x) = 1.38177 0.91491
# Poissons Ratio (y) = 0.22419 0.10844
# Poissons Ratio (z) = 0.21476 0.15688
#
# Static dielectric constant tensor:
#      x y z
#    x 1.559770 0.000000 0.000000 
#    y 0.000000 1.558600 0.000000 
#    z 0.000000 0.000000 1.545590 
# 
# From -- ./inp_files/59937.got.cif
#   From: 2010.05.17/outbox.cif.g08.bks.cpg/sg63_30_cif.got.tgz:59937.got - 2010.06.03 15:47:04.
