data_PCOD9469620
_publ_section_title
;
Structure prediction by ZEFSAII (Michael W. Deem and Ramdas Pophale) SiO2 
 PCOD9469620
Probable space group: C M C M
;
_chemical_formula_sum "Si O2"
_cell_formula_units_Z 80
_cell_length_a 20.040080
_cell_length_b 20.613181
_cell_length_c 7.277346
_cell_angle_alpha 90.000000
_cell_angle_beta 90.000000
_cell_angle_gamma 90.000000
_cell_volume 3006.197377
_symmetry_space_group_name_H-M "C M C M"
_symmetry_group_IT_number 63
_symmetry_cell_setting 'orthorhombic'
loop_
_space_group_symop_operation_xyz
x,y,z
-x,-y,1/2+z
x,-y,-z
-x,y,1/2-z
-x,-y,-z
x,y,1/2-z
-x,y,z
x,-y,1/2+z
1/2+x,1/2+y,z
1/2-x,1/2-y,1/2+z
1/2+x,1/2-y,-z
1/2-x,1/2+y,1/2-z
1/2-x,1/2-y,-z
1/2+x,1/2+y,1/2-z
1/2-x,1/2+y,z
1/2+x,1/2-y,1/2+z
loop_
_atom_site_type_symbol
_atom_site_label
_atom_site_fract_x
_atom_site_fract_y
_atom_site_fract_z
Si Si1 0.644468 0.111597 0.974095
Si Si2 0.000000 0.391346 0.028391
Si Si3 0.500000 0.263826 0.970895
Si Si4 0.929118 0.923482 0.030990
Si Si5 0.647545 0.737020 0.028680
Si Si6 0.213305 0.111306 0.959883
O O1 0.644589 0.108986 0.750000
O O2 0.572746 0.083975 0.035822
O O3 0.648209 0.187802 0.025016
O O4 0.716641 0.086600 0.037820
O O5 0.000000 0.397995 0.250000
O O6 0.000000 0.314110 0.987656
O O7 0.500000 0.266440 0.750000
O O8 0.573337 0.287160 0.033167
O O9 0.928457 0.912088 0.250000
O O10 0.857073 0.905916 0.951049
O O11 0.000000 0.896823 0.957325
O O12 0.932607 0.000000 0.000000
O O13 0.650012 0.735156 0.250000
O O14 0.705149 0.689821 0.956600
O O15 0.211617 0.087844 0.750000
#
# Coordination Sequence:
#
# PCOD9469620 Si02
#       6
#    16   8   8  16  16  16
#     4   8  14  25  40  61  88 117 145 175 206 243
#     4   7  10  20  38  55  78 111 143 168 194 229
#     4   7  12  22  35  53  76 107 148 180 193 217
#     4   9  19  35  50  63  83 111 143 182 226 267
#     4   9  16  26  40  59  86 119 150 175 201 243
#     4  10  19  28  42  65  89 109 136 178 226 262
#
# _framework density 26.611692000000001
#
# number of rings (size 3 to 8) (size 9 to 14) (size 15 to 20)
#    0.000    3.400    0.000    3.000    1.400    0.800 
#    0.000    0.000    0.000    0.000    0.000    1.400 
#    0.000    0.000    0.000    0.000    0.000    0.000 
#
# Total GULP energy -223212.865706 kJ/mol
# GULP energy per Si atom -5580.321643 kJ/mol
# Density = 2.655112 g / cm^3
# Si number density = 26.611692 Si / 1000 Ang^3
#
#
#
# Elastic Constant Matrix: (Units=GPa)
#
#
# Indices 1 2 3 4 5 6 
#
# 1 322.0319 12.8634 12.2294 0.0000 0.0000 0.0000
# 2 12.8634 26.0009 -0.3282 0.0000 0.0000 0.0000
# 3 12.2294 -0.3282 132.8024 0.0000 0.0000 0.0000
# 4 0.0000 0.0000 0.0000 2.3384 0.0000 0.0000
# 5 0.0000 0.0000 0.0000 0.0000 -5.7519 0.0000
# 6 0.0000 0.0000 0.0000 0.0000 0.0000 18.1737
#
#
#
# Elastic Compliance Matrix: (Units=1/GPa)
#
#
# Indices 1 2 3 4 5 6 
#
# 1 0.003180 -0.001577 -0.000297 0.000000 0.000000 0.000000
# 2 -0.001577 0.039243 0.000242 0.000000 0.000000 0.000000
# 3 -0.000297 0.000242 0.007558 0.000000 0.000000 0.000000
# 4 0.000000 0.000000 0.000000 0.427642 0.000000 0.000000
# 5 0.000000 0.000000 0.000000 0.000000 -0.173855 0.000000
# 6 0.000000 0.000000 0.000000 0.000000 0.000000 0.055025
#
#
# Mechanical properties :
#
#
# Convention : Reuss Voigt Hill
#
# Bulk Modulus (GPa) = 21.40490 58.92937 40.16714
# Shear Modulus (GPa) = 13.24056 33.35675 23.29866
#
# Velocity S-wave (km/s) = 2.23300 3.54427 2.96210
# Velocity P-wave (km/s) = 3.83526 6.24030 5.17931
#
# Compressibility (1/GPa) = 0.04671827
#
# Stress axis : x y z
#
# Youngs Moduli (GPa) = 314.51171 25.48203 132.31184
#
# Poissons Ratio (x) = 0.04018 0.03926
# Poissons Ratio (y) = 0.49591 -0.03204
# Poissons Ratio (z) = 0.09331 -0.00617
#
# Static dielectric constant tensor:
#      x y z
#    x 2.173360 0.000000 0.000000 
#    y 0.000000 2.168690 0.000000 
#    z 0.000000 0.000000 1.970090 
# 
# From -- ./inp_files/21271.got.cif
#   From: 2010.05.17/outbox.cif.g08.bks.cpg/sg63_11_cif.got.tgz:21271.got - 2010.06.03 15:47:04.
