data_PCOD9469768
_publ_section_title
;
Structure prediction by ZEFSAII (Michael W. Deem and Ramdas Pophale) SiO2 
 PCOD9469768
Probable space group: C M C M
;
_chemical_formula_sum "Si O2"
_cell_formula_units_Z 88
_cell_length_a 20.855883
_cell_length_b 27.236605
_cell_length_c 9.195129
_cell_angle_alpha 90.000000
_cell_angle_beta 90.000000
_cell_angle_gamma 90.000000
_cell_volume 5223.232775
_symmetry_space_group_name_H-M "C M C M"
_symmetry_group_IT_number 63
_symmetry_cell_setting 'orthorhombic'
loop_
_space_group_symop_operation_xyz
x,y,z
-x,-y,1/2+z
x,-y,-z
-x,y,1/2-z
-x,-y,-z
x,y,1/2-z
-x,y,z
x,-y,1/2+z
1/2+x,1/2+y,z
1/2-x,1/2-y,1/2+z
1/2+x,1/2-y,-z
1/2-x,1/2+y,1/2-z
1/2-x,1/2-y,-z
1/2+x,1/2+y,1/2-z
1/2-x,1/2+y,z
1/2+x,1/2-y,1/2+z
loop_
_atom_site_type_symbol
_atom_site_label
_atom_site_fract_x
_atom_site_fract_y
_atom_site_fract_z
Si Si1 0.269778 0.642138 0.574352
Si Si2 0.371065 0.829754 0.078458
Si Si3 0.500000 0.446930 0.075669
Si Si4 0.859523 0.947197 0.075411
Si Si5 0.369031 0.287768 0.922203
Si Si6 0.000000 0.211015 0.917106
Si Si7 0.500000 0.169434 0.415393
O O1 0.273780 0.648554 0.750000
O O2 0.195267 0.644991 0.533036
O O3 0.304580 0.591234 0.535693
O O4 0.310205 0.684709 0.497157
O O5 0.380795 0.837977 0.250000
O O6 0.362646 0.771004 0.058188
O O7 0.434751 0.845677 0.994831
O O8 0.500000 0.452363 0.250000
O O9 0.430363 0.425365 0.037249
O O10 0.500000 0.500000 0.000000
O O11 0.857753 0.953862 0.250000
O O12 0.852710 0.000000 0.000000
O O13 0.371518 0.297708 0.750000
O O14 0.435374 0.303338 0.999479
O O15 0.000000 0.193229 0.750000
O O16 0.000000 0.270710 0.915459
O O17 0.500000 0.152712 0.250000
#
# Coordination Sequence:
#
# PCOD9469768 Si02
#       7
#    16  16   8  16  16   8   8
#     4  10  20  32  47  69  95 126 159 190 233 287
#     4   9  18  32  48  67  95 127 157 190 231 279
#     4   8  14  27  46  65  85 113 148 187 224 259
#     4   9  18  32  49  68  91 120 157 196 234 275
#     4  10  19  30  45  67  95 126 160 198 233 269
#     4   9  17  30  46  63  89 127 164 197 232 273
#     4   9  17  29  48  70  90 118 158 196 231 274
#
# _framework density 16.847804
#
# number of rings (size 3 to 8) (size 9 to 14) (size 15 to 20)
#    0.000    2.727    0.000    1.636    0.000    5.091 
#    0.000    1.818    0.000    2.182    0.000    0.636 
#    0.000    0.000    0.000    0.000    0.000    0.000 
#
# Total GULP energy -245284.187670 kJ/mol
# GULP energy per Si atom -5574.640629 kJ/mol
# Density = 1.680946 g / cm^3
# Si number density = 16.847804 Si / 1000 Ang^3
#
#
#
# Elastic Constant Matrix: (Units=GPa)
#
#
# Indices 1 2 3 4 5 6 
#
# 1 200.0592 54.1178 69.4356 0.0000 0.0000 0.0000
# 2 54.1178 40.4862 29.7288 0.0000 0.0000 0.0000
# 3 69.4356 29.7288 46.0385 0.0000 0.0000 0.0000
# 4 0.0000 0.0000 0.0000 14.6103 0.0000 0.0000
# 5 0.0000 0.0000 0.0000 0.0000 26.9007 0.0000
# 6 0.0000 0.0000 0.0000 0.0000 0.0000 231.6524
#
#
#
# Elastic Compliance Matrix: (Units=1/GPa)
#
#
# Indices 1 2 3 4 5 6 
#
# 1 0.010954 -0.004775 -0.013438 0.000000 0.000000 0.000000
# 2 -0.004775 0.049054 -0.024474 0.000000 0.000000 0.000000
# 3 -0.013438 -0.024474 0.057791 0.000000 0.000000 0.000000
# 4 0.000000 0.000000 0.000000 0.068445 0.000000 0.000000
# 5 0.000000 0.000000 0.000000 0.000000 0.037174 0.000000
# 6 0.000000 0.000000 0.000000 0.000000 0.000000 0.004317
#
#
# Mechanical properties :
#
#
# Convention : Reuss Voigt Hill
#
# Bulk Modulus (GPa) = 30.83954 65.90537 48.37246
# Shear Modulus (GPa) = 15.43608 63.51946 39.47777
#
# Velocity S-wave (km/s) = 3.03018 6.14685 4.84591
# Velocity P-wave (km/s) = 5.53056 9.46474 7.75140
#
# Compressibility (1/GPa) = 0.03242590
#
# Stress axis : x y z
#
# Youngs Moduli (GPa) = 91.29014 20.38576 17.30366
#
# Poissons Ratio (x) = 0.09735 0.23252
# Poissons Ratio (y) = 0.43593 0.42349
# Poissons Ratio (z) = 1.22671 0.49892
#
# Static dielectric constant tensor:
#      x y z
#    x 1.578530 0.000000 0.000000 
#    y 0.000000 1.542150 0.000000 
#    z 0.000000 0.000000 1.560820 
# 
# From -- ./inp_files/6933.got.cif
#   From: 2010.05.17/outbox.cif.g08.bks.cpg/sg63_4_cif.got.tgz:6933.got - 2010.06.03 15:47:04.
