data_PCOD9469737
_publ_section_title
;
Structure prediction by ZEFSAII (Michael W. Deem and Ramdas Pophale) SiO2 
 PCOD9469737
Probable space group: C M C M
;
_chemical_formula_sum "Si O2"
_cell_formula_units_Z 96
_cell_length_a 28.366090
_cell_length_b 29.363215
_cell_length_c 8.862775
_cell_angle_alpha 90.000000
_cell_angle_beta 90.000000
_cell_angle_gamma 90.000000
_cell_volume 7381.979002
_symmetry_space_group_name_H-M "C M C M"
_symmetry_group_IT_number 63
_symmetry_cell_setting 'orthorhombic'
loop_
_space_group_symop_operation_xyz
x,y,z
-x,-y,1/2+z
x,-y,-z
-x,y,1/2-z
-x,-y,-z
x,y,1/2-z
-x,y,z
x,-y,1/2+z
1/2+x,1/2+y,z
1/2-x,1/2-y,1/2+z
1/2+x,1/2-y,-z
1/2-x,1/2+y,1/2-z
1/2-x,1/2-y,-z
1/2+x,1/2+y,1/2-z
1/2-x,1/2+y,z
1/2+x,1/2-y,1/2+z
loop_
_atom_site_type_symbol
_atom_site_label
_atom_site_fract_x
_atom_site_fract_y
_atom_site_fract_z
Si Si1 0.404489 0.450921 0.430281
Si Si2 0.595218 0.719772 0.427741
Si Si3 0.000000 0.191004 0.928925
Si Si4 0.239652 0.178004 0.575907
Si Si5 0.178095 0.728497 0.424135
Si Si6 0.343775 0.627283 0.427717
Si Si7 0.000000 0.090114 0.431351
O O1 0.393322 0.500000 0.500000
O O2 0.408828 0.453328 0.250000
O O3 0.365553 0.414004 0.478681
O O4 0.453673 0.433903 0.502469
O O5 0.586072 0.725077 0.250000
O O6 0.546985 0.717035 0.519699
O O7 0.630914 0.758221 0.487126
O O8 0.622136 0.671283 0.448444
O O9 0.000000 0.183154 0.750000
O O10 0.000000 0.142430 0.014393
O O11 0.244959 0.164442 0.750000
O O12 0.209668 0.225237 0.573968
O O13 0.289493 0.190292 0.501088
O O14 0.207578 0.142546 0.484915
O O15 0.168269 0.717686 0.250000
O O16 0.343332 0.616597 0.250000
O O17 0.000000 0.088139 0.250000
#
# Coordination Sequence:
#
# PCOD9469737 Si02
#       7
#    16  16   8  16  16  16   8
#     4  12  24  37  50  63  79 100 129 167 210 254
#     4  10  19  30  44  59  80 104 130 162 200 240
#     4  12  22  31  45  62  80 104 135 168 205 247
#     4   9  16  26  41  60  81 102 126 153 191 236
#     4   9  16  26  40  59  81 102 127 156 191 232
#     4  10  19  31  46  62  80 101 127 160 201 244
#     4  12  23  37  50  62  77  98 130 168 210 253
#
# _framework density 13.004643
#
# number of rings (size 3 to 8) (size 9 to 14) (size 15 to 20)
#    0.000    1.667    1.667    5.250    0.000    5.333 
#    0.000    0.000    0.000    0.000    0.000    0.000 
#    0.000    0.000    0.000    0.000    0.000    0.000 
#
# Total GULP energy -267904.999766 kJ/mol
# GULP energy per Si atom -5581.354162 kJ/mol
# Density = 1.297504 g / cm^3
# Si number density = 13.004643 Si / 1000 Ang^3
#
#
#
# Elastic Constant Matrix: (Units=GPa)
#
#
# Indices 1 2 3 4 5 6 
#
# 1 65.9852 39.7957 49.4379 0.0000 0.0000 0.0000
# 2 39.7957 38.3664 32.5957 0.0000 0.0000 0.0000
# 3 49.4379 32.5957 119.4499 0.0000 0.0000 0.0000
# 4 0.0000 0.0000 0.0000 17.6227 0.0000 0.0000
# 5 0.0000 0.0000 0.0000 0.0000 24.0381 0.0000
# 6 0.0000 0.0000 0.0000 0.0000 0.0000 3.3088
#
#
#
# Elastic Compliance Matrix: (Units=1/GPa)
#
#
# Indices 1 2 3 4 5 6 
#
# 1 0.045361 -0.040488 -0.007726 0.000000 0.000000 0.000000
# 2 -0.040488 0.070068 -0.002363 0.000000 0.000000 0.000000
# 3 -0.007726 -0.002363 0.012214 0.000000 0.000000 0.000000
# 4 0.000000 0.000000 0.000000 0.056745 0.000000 0.000000
# 5 0.000000 0.000000 0.000000 0.000000 0.041601 0.000000
# 6 0.000000 0.000000 0.000000 0.000000 0.000000 0.302223
#
#
# Mechanical properties :
#
#
# Convention : Reuss Voigt Hill
#
# Bulk Modulus (GPa) = 37.74962 51.94001 44.84481
# Shear Modulus (GPa) = 7.83459 15.79208 11.81333
#
# Velocity S-wave (km/s) = 2.45714 3.48852 3.01723
# Velocity P-wave (km/s) = 6.09433 7.50018 6.83350
#
# Compressibility (1/GPa) = 0.02649034
#
# Stress axis : x y z
#
# Youngs Moduli (GPa) = 22.04514 14.27181 81.87184
#
# Poissons Ratio (x) = 0.57783 0.63253
# Poissons Ratio (y) = 0.89255 0.19349
# Poissons Ratio (z) = 0.17032 0.03373
#
# Static dielectric constant tensor:
#      x y z
#    x 1.418170 0.000000 0.000000 
#    y 0.000000 1.399890 0.000000 
#    z 0.000000 0.000000 1.433810 
# 
# From -- ./inp_files/10795.got.cif
#   From: 2010.05.17/outbox.cif.g08.bks.cpg/sg63_6_cif.got.tgz:10795.got - 2010.06.03 15:47:04.
