data_PCOD9469904
_publ_section_title
;
Structure prediction by ZEFSAII (Michael W. Deem and Ramdas Pophale) SiO2 
 PCOD9469904
Probable space group: C M C M
;
_chemical_formula_sum "Si O2"
_cell_formula_units_Z 72
_cell_length_a 19.069540
_cell_length_b 10.289551
_cell_length_c 22.015307
_cell_angle_alpha 90.000000
_cell_angle_beta 90.000000
_cell_angle_gamma 90.000000
_cell_volume 4319.777590
_symmetry_space_group_name_H-M "C M C M"
_symmetry_group_IT_number 63
_symmetry_cell_setting 'orthorhombic'
loop_
_space_group_symop_operation_xyz
x,y,z
-x,-y,1/2+z
x,-y,-z
-x,y,1/2-z
-x,-y,-z
x,y,1/2-z
-x,y,z
x,-y,1/2+z
1/2+x,1/2+y,z
1/2-x,1/2-y,1/2+z
1/2+x,1/2-y,-z
1/2-x,1/2+y,1/2-z
1/2-x,1/2-y,-z
1/2+x,1/2+y,1/2-z
1/2-x,1/2+y,z
1/2+x,1/2-y,1/2+z
loop_
_atom_site_type_symbol
_atom_site_label
_atom_site_fract_x
_atom_site_fract_y
_atom_site_fract_z
Si Si1 0.576361 0.037112 0.069946
Si Si2 0.421378 0.346570 0.080535
Si Si3 0.812837 0.165314 0.821675
Si Si4 0.223023 0.442352 0.618557
Si Si5 0.311355 0.500000 0.000000
O O1 0.500000 0.987240 0.091111
O O2 0.574251 0.192759 0.071589
O O3 0.645050 0.000886 0.107368
O O4 0.585246 0.000000 0.000000
O O5 0.500000 0.401584 0.073702
O O6 0.387741 0.364994 0.146991
O O7 0.363995 0.401089 0.033643
O O8 0.817408 0.183372 0.750000
O O9 0.784372 0.298403 0.853070
O O10 0.764362 0.043165 0.839274
O O11 0.262882 0.439539 0.553203
#
# Coordination Sequence:
#
# PCOD9469904 Si02
#       5
#    16  16  16  16   8
#     4   9  17  29  47  73 103 129 157 196 248 304
#     4   9  19  32  49  73 100 131 165 205 251 300
#     4  10  21  35  52  73  99 136 175 209 246 293
#     4  10  20  32  54  75 104 131 168 210 256 301
#     4  10  19  30  51  78 106 128 160 206 265 314
#
# _framework density 16.667525000000001
#
# number of rings (size 3 to 8) (size 9 to 14) (size 15 to 20)
#    0.000    2.444    1.111    1.000    3.111    3.111 
#    0.000    0.000    0.000    2.000    0.000    0.000 
#    0.000    0.000    0.000    0.000    0.000    0.000 
#
# Total GULP energy -200454.144539 kJ/mol
# GULP energy per Si atom -5568.170682 kJ/mol
# Density = 1.662959 g / cm^3
# Si number density = 16.667525 Si / 1000 Ang^3
#
#
#
# Elastic Constant Matrix: (Units=GPa)
#
#
# Indices 1 2 3 4 5 6 
#
# 1 109.5119 17.2543 37.4379 0.0000 0.0000 0.0000
# 2 17.2543 21.6627 14.8218 0.0000 0.0000 0.0000
# 3 37.4379 14.8218 106.0326 0.0000 0.0000 0.0000
# 4 0.0000 0.0000 0.0000 18.3764 0.0000 0.0000
# 5 0.0000 0.0000 0.0000 0.0000 10.6976 0.0000
# 6 0.0000 0.0000 0.0000 0.0000 0.0000 -49.6386
#
#
#
# Elastic Compliance Matrix: (Units=1/GPa)
#
#
# Indices 1 2 3 4 5 6 
#
# 1 0.011246 -0.006901 -0.003006 0.000000 0.000000 0.000000
# 2 -0.006901 0.055279 -0.005291 0.000000 0.000000 0.000000
# 3 -0.003006 -0.005291 0.011232 0.000000 0.000000 0.000000
# 4 0.000000 0.000000 0.000000 0.054418 0.000000 0.000000
# 5 0.000000 0.000000 0.000000 0.000000 0.093479 0.000000
# 6 0.000000 0.000000 0.000000 0.000000 0.000000 -0.020146
#
#
# Mechanical properties :
#
#
# Convention : Reuss Voigt Hill
#
# Bulk Modulus (GPa) = 21.11409 41.80390 31.45900
# Shear Modulus (GPa) = 19.86564 7.06662 13.46613
#
# Velocity S-wave (km/s) = 3.45610 2.06130 2.84549
# Velocity P-wave (km/s) = 5.34991 5.54984 5.45079
#
# Compressibility (1/GPa) = 0.04736173
#
# Stress axis : x y z
#
# Youngs Moduli (GPa) = 88.91721 18.09018 89.03098
#
# Poissons Ratio (x) = 0.12484 0.26765
# Poissons Ratio (y) = 0.61361 0.47103
# Poissons Ratio (z) = 0.26731 0.09571
#
# Static dielectric constant tensor:
#      x y z
#    x 1.612080 0.000000 0.000000 
#    y 0.000000 1.547350 0.000000 
#    z 0.000000 0.000000 1.556900 
# 
# From -- ./inp_files/46782.got.cif
#   From: 2010.05.17/outbox.cif.g08.bks.cpg/sg63_24_cif.got.tgz:46782.got - 2010.06.03 15:47:04.
