data_PCOD9469201
_publ_section_title
;
Structure prediction by ZEFSAII (Michael W. Deem and Ramdas Pophale) SiO2 
 PCOD9469201
Probable space group: C M C M
;
_chemical_formula_sum "Si O2"
_cell_formula_units_Z 72
_cell_length_a 14.724014
_cell_length_b 30.246675
_cell_length_c 8.731640
_cell_angle_alpha 90.000000
_cell_angle_beta 90.000000
_cell_angle_gamma 90.000000
_cell_volume 3888.657408
_symmetry_space_group_name_H-M "C M C M"
_symmetry_group_IT_number 63
_symmetry_cell_setting 'orthorhombic'
loop_
_space_group_symop_operation_xyz
x,y,z
-x,-y,1/2+z
x,-y,-z
-x,y,1/2-z
-x,-y,-z
x,y,1/2-z
-x,y,z
x,-y,1/2+z
1/2+x,1/2+y,z
1/2-x,1/2-y,1/2+z
1/2+x,1/2-y,-z
1/2-x,1/2+y,1/2-z
1/2-x,1/2-y,-z
1/2+x,1/2+y,1/2-z
1/2-x,1/2+y,z
1/2+x,1/2-y,1/2+z
loop_
_atom_site_type_symbol
_atom_site_label
_atom_site_fract_x
_atom_site_fract_y
_atom_site_fract_z
Si Si1 0.500000 0.160778 0.066645
Si Si2 0.189895 0.369858 0.432933
Si Si3 0.000000 0.049976 0.067073
Si Si4 0.000000 0.765907 0.433685
Si Si5 0.307620 0.709079 0.066794
Si Si6 0.187033 0.048941 0.932401
O O1 0.500000 0.156691 0.250000
O O2 0.500000 0.213295 0.030321
O O3 0.409748 0.139019 0.998323
O O4 0.189576 0.362996 0.250000
O O5 0.257827 0.334836 0.509318
O O6 0.229543 0.418532 0.463900
O O7 0.000000 0.049243 0.250000
O O8 0.905535 0.068984 0.004507
O O9 0.000000 0.000000 0.000000
O O10 0.090636 0.786837 0.503388
O O11 0.000000 0.770603 0.250000
O O12 0.307244 0.711127 0.250000
O O13 0.250000 0.750000 0.000000
O O14 0.173942 0.045355 0.750000
O O15 0.200842 0.000000 0.000000
#
# Coordination Sequence:
#
# PCOD9469201 Si02
#       6
#     8  16   8   8  16  16
#     4  11  23  39  63  89 116 157 204 249 299 359
#     4  11  24  41  63  89 121 159 201 249 302 359
#     4  10  18  31  56  85 116 155 192 235 290 352
#     4  11  23  40  62  90 122 160 202 248 301 354
#     4  12  24  39  61  89 120 157 198 245 297 353
#     4  10  21  38  61  89 121 159 199 246 299 353
#
# _framework density 18.515387
#
# number of rings (size 3 to 8) (size 9 to 14) (size 15 to 20)
#    0.000    1.111    2.222    6.333    0.000    5.333 
#    0.000    1.667    0.000    0.000    0.000    0.000 
#    0.000    0.000    0.000    0.000    0.000    0.000 
#
# Total GULP energy -201281.630303 kJ/mol
# GULP energy per Si atom -5591.156397 kJ/mol
# Density = 1.847325 g / cm^3
# Si number density = 18.515387 Si / 1000 Ang^3
#
#
#
# Elastic Constant Matrix: (Units=GPa)
#
#
# Indices 1 2 3 4 5 6 
#
# 1 199.8637 75.1949 83.7754 0.0000 0.0000 0.0000
# 2 75.1949 92.4778 63.6037 0.0000 0.0000 0.0000
# 3 83.7754 63.6037 124.9341 0.0000 0.0000 0.0000
# 4 0.0000 0.0000 0.0000 27.4123 0.0000 0.0000
# 5 0.0000 0.0000 0.0000 0.0000 37.1602 0.0000
# 6 0.0000 0.0000 0.0000 0.0000 0.0000 22.1543
#
#
#
# Elastic Compliance Matrix: (Units=1/GPa)
#
#
# Indices 1 2 3 4 5 6 
#
# 1 0.007933 -0.004296 -0.003132 0.000000 0.000000 0.000000
# 2 -0.004296 0.018966 -0.006775 0.000000 0.000000 0.000000
# 3 -0.003132 -0.006775 0.013554 0.000000 0.000000 0.000000
# 4 0.000000 0.000000 0.000000 0.036480 0.000000 0.000000
# 5 0.000000 0.000000 0.000000 0.000000 0.026911 0.000000
# 6 0.000000 0.000000 0.000000 0.000000 0.000000 0.045138
#
#
# Mechanical properties :
#
#
# Convention : Reuss Voigt Hill
#
# Bulk Modulus (GPa) = 83.01363 95.82485 89.41924
# Shear Modulus (GPa) = 27.56308 30.32548 28.94428
#
# Velocity S-wave (km/s) = 3.86250 4.05143 3.95809
# Velocity P-wave (km/s) = 8.05134 8.58790 8.32394
#
# Compressibility (1/GPa) = 0.01204621
#
# Stress axis : x y z
#
# Youngs Moduli (GPa) = 126.06316 52.72588 73.78054
#
# Poissons Ratio (x) = 0.22650 0.23110
# Poissons Ratio (y) = 0.54154 0.49986
# Poissons Ratio (z) = 0.39486 0.35722
#
# Static dielectric constant tensor:
#      x y z
#    x 1.631810 0.000000 0.000000 
#    y 0.000000 1.637000 0.000000 
#    z 0.000000 0.000000 1.616860 
# 
# From -- ./inp_files/4987.got.cif
#   From: 2010.05.17/outbox.cif.g08.bks.cpg/sg63_3_cif.got.tgz:4987.got - 2010.06.03 15:47:04.
