data_PCOD9469067
_publ_section_title
;
Structure prediction by ZEFSAII (Michael W. Deem and Ramdas Pophale) SiO2 
 PCOD9469067
Probable space group: C M C M
;
_chemical_formula_sum "Si O2"
_cell_formula_units_Z 80
_cell_length_a 14.477756
_cell_length_b 14.731962
_cell_length_c 15.476720
_cell_angle_alpha 90.000000
_cell_angle_beta 90.000000
_cell_angle_gamma 90.000000
_cell_volume 3300.963852
_symmetry_space_group_name_H-M "C M C M"
_symmetry_group_IT_number 63
_symmetry_cell_setting 'orthorhombic'
loop_
_space_group_symop_operation_xyz
x,y,z
-x,-y,1/2+z
x,-y,-z
-x,y,1/2-z
-x,-y,-z
x,y,1/2-z
-x,y,z
x,-y,1/2+z
1/2+x,1/2+y,z
1/2-x,1/2-y,1/2+z
1/2+x,1/2-y,-z
1/2-x,1/2+y,1/2-z
1/2-x,1/2-y,-z
1/2+x,1/2+y,1/2-z
1/2-x,1/2+y,z
1/2+x,1/2-y,1/2+z
loop_
_atom_site_type_symbol
_atom_site_label
_atom_site_fract_x
_atom_site_fract_y
_atom_site_fract_z
Si Si1 0.139226 0.261604 0.650125
Si Si2 0.654773 0.417891 0.945121
Si Si3 0.862586 0.257173 0.350196
Si Si4 0.394911 0.565711 0.846183
Si Si5 0.361693 0.895339 0.001768
O O1 0.109052 0.278276 0.750000
O O2 0.250851 0.254942 0.651245
O O3 0.107419 0.164351 0.609645
O O4 0.109089 0.338516 0.582680
O O5 0.606539 0.331374 0.904705
O O6 0.675339 0.484703 0.864756
O O7 0.749404 0.394478 0.992742
O O8 0.605903 0.500000 0.000000
O O9 0.892456 0.260401 0.250000
O O10 0.885465 0.343510 0.409715
O O11 0.372143 0.595887 0.750000
O O12 0.500000 0.530568 0.846757
O O13 0.390324 0.000000 0.000000
#
# Coordination Sequence:
#
# PCOD9469067 Si02
#       5
#    16  16  16  16  16
#     4   9  17  30  48  71  99 132 170 209 256 309
#     4  10  18  31  49  72 102 133 168 208 256 311
#     4  10  19  31  49  72 101 136 170 212 263 312
#     4  10  20  33  50  74 105 138 170 207 254 314
#     4  10  19  31  49  71  99 132 170 220 263 302
#
# _framework density 24.235344999999999
#
# number of rings (size 3 to 8) (size 9 to 14) (size 15 to 20)
#    0.000    2.200    0.000    6.600    0.000    2.000 
#    0.000    3.000    0.000    0.600    0.000    0.000 
#    0.000    3.200    0.000    0.000    0.000    0.000 
#
# Total GULP energy -222974.824154 kJ/mol
# GULP energy per Si atom -5574.370604 kJ/mol
# Density = 2.418018 g / cm^3
# Si number density = 24.235345 Si / 1000 Ang^3
#
#
#
# Elastic Constant Matrix: (Units=GPa)
#
#
# Indices 1 2 3 4 5 6 
#
# 1 84.7546 6.9786 12.7713 0.0000 0.0000 0.0000
# 2 6.9786 203.5216 83.9372 0.0000 0.0000 0.0000
# 3 12.7713 83.9372 149.8507 0.0000 0.0000 0.0000
# 4 0.0000 0.0000 0.0000 45.3646 0.0000 0.0000
# 5 0.0000 0.0000 0.0000 0.0000 -7.4914 0.0000
# 6 0.0000 0.0000 0.0000 0.0000 0.0000 -13.4952
#
#
#
# Elastic Compliance Matrix: (Units=1/GPa)
#
#
# Indices 1 2 3 4 5 6 
#
# 1 0.011952 0.000013 -0.001026 0.000000 0.000000 0.000000
# 2 0.000013 0.006390 -0.003580 0.000000 0.000000 0.000000
# 3 -0.001026 -0.003580 0.008766 0.000000 0.000000 0.000000
# 4 0.000000 0.000000 0.000000 0.022044 0.000000 0.000000
# 5 0.000000 0.000000 0.000000 0.000000 -0.133487 0.000000
# 6 0.000000 0.000000 0.000000 0.000000 0.000000 -0.074100
#
#
# Mechanical properties :
#
#
# Convention : Reuss Voigt Hill
#
# Bulk Modulus (GPa) = 55.79700 71.72234 63.75967
# Shear Modulus (GPa) = -34.89777 27.17160 -3.86309
#
# Velocity S-wave (km/s) = -3.79879 3.35200 -1.26390
# Velocity P-wave (km/s) = 1.95753 6.68128 4.92298
#
# Compressibility (1/GPa) = 0.01792211
#
# Stress axis : x y z
#
# Youngs Moduli (GPa) = 83.66597 156.50468 114.07490
#
# Poissons Ratio (x) = -0.00209 0.11706
# Poissons Ratio (y) = -0.00112 0.40841
# Poissons Ratio (z) = 0.08585 0.56032
#
# Static dielectric constant tensor:
#      x y z
#    x 1.922610 0.000000 0.000000 
#    y 0.000000 2.072740 0.000000 
#    z 0.000000 0.000000 3.848130 
# 
# From -- ./inp_files/36667.got.cif
#   From: 2010.05.17/outbox.cif.g08.bks.cpg/sg63_19_cif.got.tgz:36667.got - 2010.06.03 15:47:04.
