data_PCOD9469528
_publ_section_title
;
Structure prediction by ZEFSAII (Michael W. Deem and Ramdas Pophale) SiO2 
 PCOD9469528
Probable space group: C M C M
;
_chemical_formula_sum "Si O2"
_cell_formula_units_Z 112
_cell_length_a 13.333745
_cell_length_b 13.053178
_cell_length_c 28.347394
_cell_angle_alpha 90.000000
_cell_angle_beta 90.000000
_cell_angle_gamma 90.000000
_cell_volume 4933.800056
_symmetry_space_group_name_H-M "C M C M"
_symmetry_group_IT_number 63
_symmetry_cell_setting 'orthorhombic'
loop_
_space_group_symop_operation_xyz
x,y,z
-x,-y,1/2+z
x,-y,-z
-x,y,1/2-z
-x,-y,-z
x,y,1/2-z
-x,y,z
x,-y,1/2+z
1/2+x,1/2+y,z
1/2-x,1/2-y,1/2+z
1/2+x,1/2-y,-z
1/2-x,1/2+y,1/2-z
1/2-x,1/2-y,-z
1/2+x,1/2+y,1/2-z
1/2-x,1/2+y,z
1/2+x,1/2-y,1/2+z
loop_
_atom_site_type_symbol
_atom_site_label
_atom_site_fract_x
_atom_site_fract_y
_atom_site_fract_z
Si Si1 0.301896 0.847706 0.525852
Si Si2 0.609752 0.541633 0.326826
Si Si3 0.110367 0.356789 0.430253
Si Si4 0.686334 0.047287 0.843552
Si Si5 0.293293 0.246716 0.696972
Si Si6 0.115834 0.323664 0.631644
Si Si7 0.892450 0.110092 0.066246
O O1 0.250000 0.750000 0.500000
O O2 0.375212 0.883687 0.484873
O O3 0.354973 0.824368 0.575836
O O4 0.206603 0.917121 0.538182
O O5 0.500000 0.506786 0.311075
O O6 0.706732 0.472739 0.318788
O O7 0.636814 0.653718 0.307598
O O8 0.608040 0.555878 0.383484
O O9 0.190506 0.411286 0.397210
O O10 0.114305 0.233367 0.424340
O O11 0.000000 0.391191 0.414450
O O12 0.644494 0.145056 0.815995
O O13 0.630239 0.939275 0.847908
O O14 0.254264 0.241654 0.750000
O O15 0.200606 0.260994 0.660326
O O16 0.000000 0.291016 0.637158
O O17 0.000000 0.092656 0.042506
#
# Coordination Sequence:
#
# PCOD9469528 Si02
#       7
#    16  16  16  16  16  16  16
#     4  10  18  35  59  94 129 171 217 263 311 371
#     4  10  21  41  66  90 122 166 212 260 317 381
#     4  10  19  32  58  89 125 168 213 257 303 369
#     4  11  22  40  63  96 131 169 206 267 322 385
#     4  11  24  44  68  95 124 163 213 269 329 392
#     4  11  24  43  66  95 133 174 212 263 325 386
#     4   9  16  33  58  82 114 162 209 254 304 359
#
# _framework density 22.700554
#
# number of rings (size 3 to 8) (size 9 to 14) (size 15 to 20)
#    0.000    1.714    4.286    1.714    0.000    5.143 
#    0.000    2.143    0.000    1.714    0.000    0.000 
#    0.000    0.000    0.000    0.000    0.000    0.000 
#
# Total GULP energy -312508.357915 kJ/mol
# GULP energy per Si atom -5580.506391 kJ/mol
# Density = 2.264889 g / cm^3
# Si number density = 22.700554 Si / 1000 Ang^3
#
#
#
# Elastic Constant Matrix: (Units=GPa)
#
#
# Indices 1 2 3 4 5 6 
#
# 1 92.3238 -8.7702 13.6359 0.0000 0.0000 0.0000
# 2 -8.7702 68.0972 2.4059 0.0000 0.0000 0.0000
# 3 13.6359 2.4059 83.2546 0.0000 0.0000 0.0000
# 4 0.0000 0.0000 0.0000 -1.2828 0.0000 0.0000
# 5 0.0000 0.0000 0.0000 0.0000 3.8178 0.0000
# 6 0.0000 0.0000 0.0000 0.0000 0.0000 5.3151
#
#
#
# Elastic Compliance Matrix: (Units=1/GPa)
#
#
# Indices 1 2 3 4 5 6 
#
# 1 0.011254 0.001516 -0.001887 0.000000 0.000000 0.000000
# 2 0.001516 0.014904 -0.000679 0.000000 0.000000 0.000000
# 3 -0.001887 -0.000679 0.012340 0.000000 0.000000 0.000000
# 4 0.000000 0.000000 0.000000 -0.779545 0.000000 0.000000
# 5 0.000000 0.000000 0.000000 0.000000 0.261930 0.000000
# 6 0.000000 0.000000 0.000000 0.000000 0.000000 0.188143
#
#
# Mechanical properties :
#
#
# Convention : Reuss Voigt Hill
#
# Bulk Modulus (GPa) = 27.47378 28.69098 28.08238
# Shear Modulus (GPa) = -18.06746 17.33029 -0.36859
#
# Velocity S-wave (km/s) = -2.82424 2.76602 -0.40339
# Velocity P-wave (km/s) = 1.22224 4.78200 3.49008
#
# Compressibility (1/GPa) = 0.03639835
#
# Stress axis : x y z
#
# Youngs Moduli (GPa) = 88.85594 67.09543 81.03695
#
# Poissons Ratio (x) = -0.10172 0.15292
# Poissons Ratio (y) = -0.13471 0.05503
# Poissons Ratio (z) = 0.16768 0.04556
#
# Static dielectric constant tensor:
#      x y z
#    x 1.896280 0.000000 0.000000 
#    y 0.000000 1.900070 0.000000 
#    z 0.000000 0.000000 1.891550 
# 
# From -- ./inp_files/69420.got.cif
#   From: 2010.05.17/outbox.cif.g08.bks.cpg/sg63_35_cif.got.tgz:69420.got - 2010.06.03 15:47:04.
