data_PCOD9469162
_publ_section_title
;
Structure prediction by ZEFSAII (Michael W. Deem and Ramdas Pophale) SiO2 
 PCOD9469162
Probable space group: C M C M
;
_chemical_formula_sum "Si O2"
_cell_formula_units_Z 80
_cell_length_a 13.689133
_cell_length_b 18.831990
_cell_length_c 18.456705
_cell_angle_alpha 90.000000
_cell_angle_beta 90.000000
_cell_angle_gamma 90.000000
_cell_volume 4758.020717
_symmetry_space_group_name_H-M "C M C M"
_symmetry_group_IT_number 63
_symmetry_cell_setting 'orthorhombic'
loop_
_space_group_symop_operation_xyz
x,y,z
-x,-y,1/2+z
x,-y,-z
-x,y,1/2-z
-x,-y,-z
x,y,1/2-z
-x,y,z
x,-y,1/2+z
1/2+x,1/2+y,z
1/2-x,1/2-y,1/2+z
1/2+x,1/2-y,-z
1/2-x,1/2+y,1/2-z
1/2-x,1/2-y,-z
1/2+x,1/2+y,1/2-z
1/2-x,1/2+y,z
1/2+x,1/2-y,1/2+z
loop_
_atom_site_type_symbol
_atom_site_label
_atom_site_fract_x
_atom_site_fract_y
_atom_site_fract_z
Si Si1 0.802717 0.422493 0.025978
Si Si2 0.886832 0.289805 0.937454
Si Si3 0.113046 0.855507 0.970993
Si Si4 0.884917 0.634959 0.832895
Si Si5 0.794744 0.207468 0.334047
O O1 0.826646 0.411625 0.109882
O O2 0.832692 0.500000 0.000000
O O3 0.859335 0.359654 0.983510
O O4 0.689233 0.408615 0.007845
O O5 0.811986 0.286152 0.870608
O O6 0.000000 0.291841 0.915745
O O7 0.872617 0.220655 0.988507
O O8 0.144643 0.843465 0.887682
O O9 0.000000 0.875226 0.977114
O O10 0.872866 0.611175 0.750000
O O11 0.845900 0.715477 0.837636
O O12 0.000000 0.634458 0.850647
O O13 0.791282 0.185659 0.250000
#
# Coordination Sequence:
#
# PCOD9469162 Si02
#       5
#    16  16  16  16  16
#     4  11  21  35  54  78 108 142 178 215 259 313
#     4  10  19  34  54  77 106 136 172 216 262 313
#     4  10  19  35  56  77 103 134 176 222 261 307
#     4  10  19  32  52  78 106 135 174 220 262 310
#     4  10  18  31  53  80 106 134 172 222 269 308
#
# _framework density 16.813714000000001
#
# number of rings (size 3 to 8) (size 9 to 14) (size 15 to 20)
#    0.000    1.800    4.000    2.400    0.000    3.600 
#    0.000    4.000    0.000    0.600    0.000    0.000 
#    0.000    0.000    0.000    0.000    0.000    0.000 
#
# Total GULP energy -223202.471766 kJ/mol
# GULP energy per Si atom -5580.061794 kJ/mol
# Density = 1.677545 g / cm^3
# Si number density = 16.813714 Si / 1000 Ang^3
#
#
#
# Elastic Constant Matrix: (Units=GPa)
#
#
# Indices 1 2 3 4 5 6 
#
# 1 86.5951 -0.8290 56.8256 0.0000 0.0000 0.0000
# 2 -0.8290 39.5893 20.2362 0.0000 0.0000 0.0000
# 3 56.8256 20.2362 121.3342 0.0000 0.0000 0.0000
# 4 0.0000 0.0000 0.0000 13.9470 0.0000 0.0000
# 5 0.0000 0.0000 0.0000 0.0000 19.4093 0.0000
# 6 0.0000 0.0000 0.0000 0.0000 0.0000 3.1704
#
#
#
# Elastic Compliance Matrix: (Units=1/GPa)
#
#
# Indices 1 2 3 4 5 6 
#
# 1 0.017529 0.004989 -0.009042 0.000000 0.000000 0.000000
# 2 0.004989 0.029033 -0.007179 0.000000 0.000000 0.000000
# 3 -0.009042 -0.007179 0.013673 0.000000 0.000000 0.000000
# 4 0.000000 0.000000 0.000000 0.071700 0.000000 0.000000
# 5 0.000000 0.000000 0.000000 0.000000 0.051522 0.000000
# 6 0.000000 0.000000 0.000000 0.000000 0.000000 0.315416
#
#
# Mechanical properties :
#
#
# Convention : Reuss Voigt Hill
#
# Bulk Modulus (GPa) = 26.47410 44.44269 35.45839
# Shear Modulus (GPa) = 9.36458 18.72439 14.04449
#
# Velocity S-wave (km/s) = 2.36256 3.34074 2.89329
# Velocity P-wave (km/s) = 4.81892 6.43199 5.68298
#
# Compressibility (1/GPa) = 0.03777277
#
# Stress axis : x y z
#
# Youngs Moduli (GPa) = 57.04830 34.44334 73.13436
#
# Poissons Ratio (x) = -0.17183 0.66125
# Poissons Ratio (y) = -0.28460 0.52500
# Poissons Ratio (z) = 0.51580 0.24725
#
# Static dielectric constant tensor:
#      x y z
#    x 1.576240 0.000000 0.000000 
#    y 0.000000 1.541050 0.000000 
#    z 0.000000 0.000000 1.568610 
# 
# From -- ./inp_files/43947.got.cif
#   From: 2010.05.17/outbox.cif.g08.bks.cpg/sg63_22_cif.got.tgz:43947.got - 2010.06.03 15:47:04.
