data_PCOD9469547
_publ_section_title
;
Structure prediction by ZEFSAII (Michael W. Deem and Ramdas Pophale) SiO2 
 PCOD9469547
Probable space group: C M C M
;
_chemical_formula_sum "Si O2"
_cell_formula_units_Z 80
_cell_length_a 7.584051
_cell_length_b 28.859945
_cell_length_c 17.473773
_cell_angle_alpha 90.000000
_cell_angle_beta 90.000000
_cell_angle_gamma 90.000000
_cell_volume 3824.577216
_symmetry_space_group_name_H-M "C M C M"
_symmetry_group_IT_number 63
_symmetry_cell_setting 'orthorhombic'
loop_
_space_group_symop_operation_xyz
x,y,z
-x,-y,1/2+z
x,-y,-z
-x,y,1/2-z
-x,-y,-z
x,y,1/2-z
-x,y,z
x,-y,1/2+z
1/2+x,1/2+y,z
1/2-x,1/2-y,1/2+z
1/2+x,1/2-y,-z
1/2-x,1/2+y,1/2-z
1/2-x,1/2-y,-z
1/2+x,1/2+y,1/2-z
1/2-x,1/2+y,z
1/2+x,1/2-y,1/2+z
loop_
_atom_site_type_symbol
_atom_site_label
_atom_site_fract_x
_atom_site_fract_y
_atom_site_fract_z
Si Si1 0.213374 0.221370 0.838619
Si Si2 0.205428 0.635572 0.942040
Si Si3 0.787943 0.440159 0.332954
Si Si4 0.283636 0.819252 0.597490
Si Si5 0.296486 0.471763 0.750000
Si Si6 0.299014 0.131877 0.250000
O O1 0.267218 0.226542 0.750000
O O2 0.283261 0.174982 0.877329
O O3 0.269183 0.266193 0.887728
O O4 0.000000 0.219492 0.839902
O O5 0.282423 0.589077 0.903773
O O6 0.000000 0.625697 0.958553
O O7 0.281516 0.657240 0.019532
O O8 0.728042 0.419987 0.250000
O O9 0.743675 0.494327 0.321920
O O10 0.000000 0.436915 0.334476
O O11 0.500000 0.819307 0.594318
O O12 0.223098 0.848234 0.671498
O O13 0.500000 0.460137 0.750000
O O14 0.198776 0.423451 0.750000
O O15 0.500000 0.149699 0.250000
#
# Coordination Sequence:
#
# PCOD9469547 Si02
#       6
#    16  16  16  16   8   8
#     4  10  19  32  50  76 109 143 175 203 246 306
#     4  10  19  32  52  79 106 134 172 217 254 288
#     4   8  16  32  51  73 101 131 164 204 253 305
#     4   9  18  33  54  76 102 138 178 212 246 299
#     4  10  20  34  55  78  99 127 166 211 259 314
#     4  10  18  36  59  74  95 135 176 211 255 304
#
# _framework density 20.917345000000001
#
# number of rings (size 3 to 8) (size 9 to 14) (size 15 to 20)
#    0.600    2.000    1.000    1.800    0.000    2.000 
#    0.000    3.000    0.000    6.000    0.000    0.000 
#    0.000    0.000    0.000    0.000    0.000    0.000 
#
# Total GULP energy -222912.614933 kJ/mol
# GULP energy per Si atom -5572.815373 kJ/mol
# Density = 2.086974 g / cm^3
# Si number density = 20.917345 Si / 1000 Ang^3
#
#
#
# Elastic Constant Matrix: (Units=GPa)
#
#
# Indices 1 2 3 4 5 6 
#
# 1 42.4423 -16.2224 -2.9440 0.0000 0.0000 0.0000
# 2 -16.2224 57.2840 -20.4166 0.0000 0.0000 0.0000
# 3 -2.9440 -20.4166 33.4012 0.0000 0.0000 0.0000
# 4 0.0000 0.0000 0.0000 -1.3518 0.0000 0.0000
# 5 0.0000 0.0000 0.0000 0.0000 13.4453 0.0000
# 6 0.0000 0.0000 0.0000 0.0000 0.0000 7.9910
#
#
#
# Elastic Compliance Matrix: (Units=1/GPa)
#
#
# Indices 1 2 3 4 5 6 
#
# 1 0.028626 0.011514 0.009561 0.000000 0.000000 0.000000
# 2 0.011514 0.026951 0.017489 0.000000 0.000000 0.000000
# 3 0.009561 0.017489 0.041472 0.000000 0.000000 0.000000
# 4 0.000000 0.000000 0.000000 -0.739733 0.000000 0.000000
# 5 0.000000 0.000000 0.000000 0.000000 0.074376 0.000000
# 6 0.000000 0.000000 0.000000 0.000000 0.000000 0.125141
#
#
# Mechanical properties :
#
#
# Convention : Reuss Voigt Hill
#
# Bulk Modulus (GPa) = 5.74128 5.99570 5.86849
# Shear Modulus (GPa) = -10.81696 15.53092 2.35698
#
# Velocity S-wave (km/s) = -2.27651 2.72782 1.06266
# Velocity P-wave (km/s) = 2.03944 3.57686 2.07782
#
# Compressibility (1/GPa) = 0.17417720
#
# Stress axis : x y z
#
# Youngs Moduli (GPa) = 34.93369 37.10460 24.11270
#
# Poissons Ratio (x) = -0.42723 -0.23055
# Poissons Ratio (y) = -0.40224 -0.42170
# Poissons Ratio (z) = -0.33401 -0.64891
#
# Static dielectric constant tensor:
#      x y z
#    x 1.774400 0.000000 0.000000 
#    y 0.000000 1.733290 0.000000 
#    z 0.000000 0.000000 1.765260 
# 
# From -- ./inp_files/40747.got.cif
#   From: 2010.05.17/outbox.cif.g08.bks.cpg/sg63_21_cif.got.tgz:40747.got - 2010.06.03 15:47:04.
