data_PCOD9469557
_publ_section_title
;
Structure prediction by ZEFSAII (Michael W. Deem and Ramdas Pophale) SiO2 
 PCOD9469557
Probable space group: C M C M
;
_chemical_formula_sum "Si O2"
_cell_formula_units_Z 88
_cell_length_a 25.713777
_cell_length_b 5.110726
_cell_length_c 30.963430
_cell_angle_alpha 90.000000
_cell_angle_beta 90.000000
_cell_angle_gamma 90.000000
_cell_volume 4069.092243
_symmetry_space_group_name_H-M "C M C M"
_symmetry_group_IT_number 63
_symmetry_cell_setting 'orthorhombic'
loop_
_space_group_symop_operation_xyz
x,y,z
-x,-y,1/2+z
x,-y,-z
-x,y,1/2-z
-x,-y,-z
x,y,1/2-z
-x,y,z
x,-y,1/2+z
1/2+x,1/2+y,z
1/2-x,1/2-y,1/2+z
1/2+x,1/2-y,-z
1/2-x,1/2+y,1/2-z
1/2-x,1/2-y,-z
1/2+x,1/2+y,1/2-z
1/2-x,1/2+y,z
1/2+x,1/2-y,1/2+z
loop_
_atom_site_type_symbol
_atom_site_label
_atom_site_fract_x
_atom_site_fract_y
_atom_site_fract_z
Si Si1 0.220818 0.471133 0.750000
Si Si2 0.328637 0.972288 0.342255
Si Si3 0.717029 0.919072 0.065439
Si Si4 0.000000 0.910148 0.124273
Si Si5 0.108658 0.186581 0.040887
Si Si6 0.500000 0.911742 0.065766
Si Si7 0.610225 0.478471 0.363843
O O1 0.228836 0.159436 0.750000
O O2 0.194007 0.547679 0.794753
O O3 0.290785 0.906150 0.382389
O O4 0.375022 0.763376 0.346830
O O5 0.348014 0.265273 0.350502
O O6 0.757529 0.692937 0.053192
O O7 0.659957 0.865464 0.045974
O O8 0.946544 0.880803 0.149590
O O9 0.000000 0.702332 0.084923
O O10 0.000000 0.204377 0.105350
O O11 0.054093 0.344395 0.041892
O O12 0.109381 0.008556 0.084215
O O13 0.111377 0.000000 0.000000
#
# Coordination Sequence:
#
# PCOD9469557 Si02
#       7
#     8  16  16   8  16   8  16
#     4  12  24  40  66  95 120 149 194 250 306 368
#     4  11  22  40  62  88 120 155 196 245 306 364
#     4  11  22  38  58  82 117 157 196 240 294 362
#     4  10  18  36  61  87 116 157 204 241 300 363
#     4  10  22  40  61  88 122 163 211 260 310 361
#     4  10  21  38  60  88 118 152 206 270 312 346
#     4  10  21  38  61  87 121 160 199 249 300 360
#
# _framework density 21.626446999999999
#
# number of rings (size 3 to 8) (size 9 to 14) (size 15 to 20)
#    0.000    1.455    0.000    7.909    0.000    2.182 
#    0.000   25.455    0.000    3.273    0.000    0.000 
#    0.000    0.000    0.000    0.000    0.000    0.000 
#
# Total GULP energy -246190.280541 kJ/mol
# GULP energy per Si atom -5595.233649 kJ/mol
# Density = 2.157722 g / cm^3
# Si number density = 21.626447 Si / 1000 Ang^3
#
#
#
# Elastic Constant Matrix: (Units=GPa)
#
#
# Indices 1 2 3 4 5 6 
#
# 1 84.5764 -16.7405 28.1478 0.0000 0.0000 0.0000
# 2 -16.7405 46.6941 17.0993 0.0000 0.0000 0.0000
# 3 28.1478 17.0993 99.1544 0.0000 0.0000 0.0000
# 4 0.0000 0.0000 0.0000 24.5238 0.0000 0.0000
# 5 0.0000 0.0000 0.0000 0.0000 6.0941 0.0000
# 6 0.0000 0.0000 0.0000 0.0000 0.0000 -67.3848
#
#
#
# Elastic Compliance Matrix: (Units=1/GPa)
#
#
# Indices 1 2 3 4 5 6 
#
# 1 0.015169 0.007488 -0.005597 0.000000 0.000000 0.000000
# 2 0.007488 0.026556 -0.006705 0.000000 0.000000 0.000000
# 3 -0.005597 -0.006705 0.012831 0.000000 0.000000 0.000000
# 4 0.000000 0.000000 0.000000 0.040777 0.000000 0.000000
# 5 0.000000 0.000000 0.000000 0.000000 0.164093 0.000000
# 6 0.000000 0.000000 0.000000 0.000000 0.000000 -0.014840
#
#
# Mechanical properties :
#
#
# Convention : Reuss Voigt Hill
#
# Bulk Modulus (GPa) = 22.25896 31.93756 27.09826
# Shear Modulus (GPa) = 18.57427 6.10782 12.34105
#
# Velocity S-wave (km/s) = 2.93383 1.68237 2.39141
# Velocity P-wave (km/s) = 4.66811 4.30972 4.49249
#
# Compressibility (1/GPa) = 0.04492574
#
# Stress axis : x y z
#
# Youngs Moduli (GPa) = 65.92570 37.65631 77.93882
#
# Poissons Ratio (x) = -0.28197 0.43625
# Poissons Ratio (y) = -0.49365 0.52260
# Poissons Ratio (z) = 0.36901 0.25250
#
# Static dielectric constant tensor:
#      x y z
#    x 1.823520 0.000000 0.000000 
#    y 0.000000 1.757440 0.000000 
#    z 0.000000 0.000000 1.779340 
# 
# From -- ./inp_files/74251.got.cif
#   From: 2010.05.17/outbox.cif.g08.bks.cpg/sg63_38_cif.got.tgz:74251.got - 2010.06.03 15:47:04.
