data_PCOD9469345
_publ_section_title
;
Structure prediction by ZEFSAII (Michael W. Deem and Ramdas Pophale) SiO2 
 PCOD9469345
Probable space group: C M C M
;
_chemical_formula_sum "Si O2"
_cell_formula_units_Z 116
_cell_length_a 8.962011
_cell_length_b 28.156727
_cell_length_c 26.385368
_cell_angle_alpha 90.000000
_cell_angle_beta 90.000000
_cell_angle_gamma 90.000000
_cell_volume 6658.107431
_symmetry_space_group_name_H-M "C M C M"
_symmetry_group_IT_number 63
_symmetry_cell_setting 'orthorhombic'
loop_
_space_group_symop_operation_xyz
x,y,z
-x,-y,1/2+z
x,-y,-z
-x,y,1/2-z
-x,-y,-z
x,y,1/2-z
-x,y,z
x,-y,1/2+z
1/2+x,1/2+y,z
1/2-x,1/2-y,1/2+z
1/2+x,1/2-y,-z
1/2-x,1/2+y,1/2-z
1/2-x,1/2-y,-z
1/2+x,1/2+y,1/2-z
1/2-x,1/2+y,z
1/2+x,1/2-y,1/2+z
loop_
_atom_site_type_symbol
_atom_site_label
_atom_site_fract_x
_atom_site_fract_y
_atom_site_fract_z
Si Si1 0.164994 0.904483 0.652152
Si Si2 0.679128 0.098208 0.637283
Si Si3 0.820778 0.759352 0.404086
Si Si4 0.178597 0.345943 0.565186
Si Si5 0.820573 0.499366 0.690519
Si Si6 0.000000 0.872981 0.750000
Si Si7 0.678547 0.642945 0.541102
Si Si8 0.820614 0.696548 0.692251
O O1 0.263972 0.875058 0.613386
O O2 0.000000 0.912739 0.628970
O O3 0.128000 0.877286 0.704709
O O4 0.239691 0.954401 0.666235
O O5 0.500000 0.098832 0.629674
O O6 0.719905 0.048572 0.663082
O O7 0.759839 0.107912 0.584258
O O8 0.714751 0.142857 0.673966
O O9 0.774548 0.709032 0.426961
O O10 0.777926 0.804081 0.439185
O O11 0.750946 0.768810 0.349006
O O12 0.000000 0.759689 0.399541
O O13 0.249727 0.364909 0.513440
O O14 0.000000 0.347859 0.561878
O O15 0.781511 0.502056 0.750000
O O16 0.000000 0.493843 0.686858
O O17 0.500000 0.640467 0.538489
O O18 0.771612 0.704443 0.750000
O O19 0.000000 0.701742 0.690638
#
# Coordination Sequence:
#
# PCOD9469345 Si02
#       8
#    16  16  16  16  16   4  16  16
#     4  10  20  38  56  79 108 139 176 216 263 309
#     4   9  18  32  53  79 110 142 177 216 262 315
#     4   9  20  36  53  76 106 138 179 220 266 319
#     4  11  22  37  57  80 104 139 179 223 267 316
#     4  10  18  32  56  84 109 141 179 219 262 313
#     4   8  20  40  58  76 110 148 166 228 262 308
#     4  10  20  36  56  80 108 140 175 220 267 315
#     4   9  17  31  49  75 108 143 177 216 260 312
#
# _framework density 17.422369
#
# number of rings (size 3 to 8) (size 9 to 14) (size 15 to 20)
#    0.414    1.931    0.690    2.069    0.000    4.138 
#    1.241    0.690    0.000    6.621    0.000    0.000 
#    0.000    0.000    0.000    0.000    0.000    0.000 
#
# Total GULP energy -322889.407381 kJ/mol
# GULP energy per Si atom -5567.058748 kJ/mol
# Density = 1.738271 g / cm^3
# Si number density = 17.422369 Si / 1000 Ang^3
#
#
#
# Elastic Constant Matrix: (Units=GPa)
#
#
# Indices 1 2 3 4 5 6 
#
# 1 28.3247 20.0164 27.4736 0.0000 0.0000 0.0000
# 2 20.0164 45.0950 24.2801 0.0000 0.0000 0.0000
# 3 27.4736 24.2801 106.0762 0.0000 0.0000 0.0000
# 4 0.0000 0.0000 0.0000 15.4669 0.0000 0.0000
# 5 0.0000 0.0000 0.0000 0.0000 32.6196 0.0000
# 6 0.0000 0.0000 0.0000 0.0000 0.0000 20.1257
#
#
#
# Elastic Compliance Matrix: (Units=1/GPa)
#
#
# Indices 1 2 3 4 5 6 
#
# 1 0.060818 -0.021117 -0.010918 0.000000 0.000000 0.000000
# 2 -0.021117 0.032624 -0.001998 0.000000 0.000000 0.000000
# 3 -0.010918 -0.001998 0.012712 0.000000 0.000000 0.000000
# 4 0.000000 0.000000 0.000000 0.064654 0.000000 0.000000
# 5 0.000000 0.000000 0.000000 0.000000 0.030656 0.000000
# 6 0.000000 0.000000 0.000000 0.000000 0.000000 0.049688
#
#
# Mechanical properties :
#
#
# Convention : Reuss Voigt Hill
#
# Bulk Modulus (GPa) = 26.25494 35.89290 31.07392
# Shear Modulus (GPa) = 15.06411 20.82417 17.94414
#
# Velocity S-wave (km/s) = 2.94367 3.46100 3.21276
# Velocity P-wave (km/s) = 5.16294 6.05125 5.62466
#
# Compressibility (1/GPa) = 0.03808807
#
# Stress axis : x y z
#
# Youngs Moduli (GPa) = 16.44263 30.65195 78.66332
#
# Poissons Ratio (x) = 0.64726 0.85887
# Poissons Ratio (y) = 0.34721 0.15719
# Poissons Ratio (z) = 0.17953 0.06125
#
# Static dielectric constant tensor:
#      x y z
#    x 1.585780 0.000000 0.000000 
#    y 0.000000 1.582370 0.000000 
#    z 0.000000 0.000000 1.567670 
# 
# From -- ./inp_files/67594.got.cif
#   From: 2010.05.17/outbox.cif.g08.bks.cpg/sg63_34_cif.got.tgz:67594.got - 2010.06.03 15:47:04.
