data_PCOD9469836
_publ_section_title
;
Structure prediction by ZEFSAII (Michael W. Deem and Ramdas Pophale) SiO2 
 PCOD9469836
Probable space group: C M C M
;
_chemical_formula_sum "Si O2"
_cell_formula_units_Z 96
_cell_length_a 8.835845
_cell_length_b 30.759443
_cell_length_c 21.081897
_cell_angle_alpha 90.000000
_cell_angle_beta 90.000000
_cell_angle_gamma 90.000000
_cell_volume 5729.757514
_symmetry_space_group_name_H-M "C M C M"
_symmetry_group_IT_number 63
_symmetry_cell_setting 'orthorhombic'
loop_
_space_group_symop_operation_xyz
x,y,z
-x,-y,1/2+z
x,-y,-z
-x,y,1/2-z
-x,-y,-z
x,y,1/2-z
-x,y,z
x,-y,1/2+z
1/2+x,1/2+y,z
1/2-x,1/2-y,1/2+z
1/2+x,1/2-y,-z
1/2-x,1/2+y,1/2-z
1/2-x,1/2-y,-z
1/2+x,1/2+y,1/2-z
1/2-x,1/2+y,z
1/2+x,1/2-y,1/2+z
loop_
_atom_site_type_symbol
_atom_site_label
_atom_site_fract_x
_atom_site_fract_y
_atom_site_fract_z
Si Si1 0.819915 0.746866 0.679471
Si Si2 0.817174 0.457953 0.459794
Si Si3 0.675502 0.655418 0.654665
Si Si4 0.682177 0.062416 0.681107
Si Si5 0.675588 0.634051 0.506852
Si Si6 0.820095 0.716853 0.051869
O O1 0.782038 0.763707 0.750000
O O2 0.770573 0.696499 0.676845
O O3 0.736180 0.769876 0.621517
O O4 0.000000 0.750141 0.670364
O O5 0.770782 0.500000 0.500000
O O6 0.773814 0.460735 0.384984
O O7 0.746809 0.413837 0.487956
O O8 0.000000 0.454537 0.462746
O O9 0.500000 0.659694 0.673389
O O10 0.744313 0.610106 0.677947
O O11 0.681226 0.653110 0.578316
O O12 0.722432 0.042586 0.750000
O O13 0.500000 0.066845 0.679422
O O14 0.500000 0.631666 0.487675
O O15 0.765319 0.668287 0.464345
O O16 0.000000 0.720193 0.047837
O O17 0.750000 0.750000 0.000000
#
# Coordination Sequence:
#
# PCOD9469836 Si02
#       6
#    16  16  16  16  16  16
#     4  11  23  36  51  73 105 144 182 222 268 317
#     4   9  18  33  53  76 102 133 172 216 265 321
#     4  10  19  30  47  72 103 137 171 210 257 315
#     4   9  17  29  46  69  99 132 164 204 257 317
#     4  10  20  34  53  78 105 137 176 219 265 316
#     4  12  23  36  56  79 106 141 182 224 264 314
#
# _framework density 16.754636000000001
#
# number of rings (size 3 to 8) (size 9 to 14) (size 15 to 20)
#    0.000    1.833    1.667    3.500    0.000    5.333 
#    0.000    0.000    0.000    1.000    0.000    2.333 
#    0.000    0.000    0.000    0.000    0.000    0.000 
#
# Total GULP energy -267850.391946 kJ/mol
# GULP energy per Si atom -5580.216499 kJ/mol
# Density = 1.671650 g / cm^3
# Si number density = 16.754636 Si / 1000 Ang^3
#
#
#
# Elastic Constant Matrix: (Units=GPa)
#
#
# Indices 1 2 3 4 5 6 
#
# 1 77.8720 41.7340 59.1643 0.0000 0.0000 0.0000
# 2 41.7340 89.3346 72.9328 0.0000 0.0000 0.0000
# 3 59.1643 72.9328 139.5856 0.0000 0.0000 0.0000
# 4 0.0000 0.0000 0.0000 14.4603 0.0000 0.0000
# 5 0.0000 0.0000 0.0000 0.0000 19.4059 0.0000
# 6 0.0000 0.0000 0.0000 0.0000 0.0000 21.8723
#
#
#
# Elastic Compliance Matrix: (Units=1/GPa)
#
#
# Indices 1 2 3 4 5 6 
#
# 1 0.019798 -0.004182 -0.006207 0.000000 0.000000 0.000000
# 2 -0.004182 0.020404 -0.008888 0.000000 0.000000 0.000000
# 3 -0.006207 -0.008888 0.014439 0.000000 0.000000 0.000000
# 4 0.000000 0.000000 0.000000 0.069155 0.000000 0.000000
# 5 0.000000 0.000000 0.000000 0.000000 0.051531 0.000000
# 6 0.000000 0.000000 0.000000 0.000000 0.000000 0.045720
#
#
# Mechanical properties :
#
#
# Convention : Reuss Voigt Hill
#
# Bulk Modulus (GPa) = 62.16099 72.71717 67.43908
# Shear Modulus (GPa) = 18.87051 20.01178 19.44114
#
# Velocity S-wave (km/s) = 3.35966 3.45976 3.41008
# Velocity P-wave (km/s) = 7.22711 7.71073 7.47283
#
# Compressibility (1/GPa) = 0.01608726
#
# Stress axis : x y z
#
# Youngs Moduli (GPa) = 50.50909 49.00974 69.25714
#
# Poissons Ratio (x) = 0.20496 0.42985
# Poissons Ratio (y) = 0.21123 0.61559
# Poissons Ratio (z) = 0.31349 0.43562
#
# Static dielectric constant tensor:
#      x y z
#    x 1.559940 0.000000 0.000000 
#    y 0.000000 1.529540 0.000000 
#    z 0.000000 0.000000 1.605410 
# 
# From -- ./inp_files/51294.got.cif
#   From: 2010.05.17/outbox.cif.g08.bks.cpg/sg63_26_cif.got.tgz:51294.got - 2010.06.03 15:47:04.
