data_PCOD9469838
_publ_section_title
;
Structure prediction by ZEFSAII (Michael W. Deem and Ramdas Pophale) SiO2 
 PCOD9469838
Probable space group: C M C M
;
_chemical_formula_sum "Si O2"
_cell_formula_units_Z 72
_cell_length_a 21.992918
_cell_length_b 19.656722
_cell_length_c 8.845634
_cell_angle_alpha 90.000000
_cell_angle_beta 90.000000
_cell_angle_gamma 90.000000
_cell_volume 3824.044315
_symmetry_space_group_name_H-M "C M C M"
_symmetry_group_IT_number 63
_symmetry_cell_setting 'orthorhombic'
loop_
_space_group_symop_operation_xyz
x,y,z
-x,-y,1/2+z
x,-y,-z
-x,y,1/2-z
-x,-y,-z
x,y,1/2-z
-x,y,z
x,-y,1/2+z
1/2+x,1/2+y,z
1/2-x,1/2-y,1/2+z
1/2+x,1/2-y,-z
1/2-x,1/2+y,1/2-z
1/2-x,1/2-y,-z
1/2+x,1/2+y,1/2-z
1/2-x,1/2+y,z
1/2+x,1/2-y,1/2+z
loop_
_atom_site_type_symbol
_atom_site_label
_atom_site_fract_x
_atom_site_fract_y
_atom_site_fract_z
Si Si1 0.676734 0.432062 0.419746
Si Si2 0.820404 0.565477 0.580328
Si Si3 0.000000 0.423537 0.567467
Si Si4 0.188643 0.785262 0.929810
Si Si5 0.612900 0.173934 0.426928
O O1 0.651334 0.500000 0.500000
O O2 0.651721 0.423285 0.250000
O O3 0.748949 0.445303 0.403104
O O4 0.675703 0.361380 0.510736
O O5 0.848734 0.500000 0.500000
O O6 0.844735 0.578432 0.750000
O O7 0.829925 0.626026 0.463911
O O8 0.000000 0.500000 0.500000
O O9 0.942541 0.375421 0.526045
O O10 0.000000 0.430931 0.750000
O O11 0.195898 0.783956 0.750000
O O12 0.250000 0.750000 0.000000
O O13 0.130007 0.740656 0.980144
O O14 0.606885 0.189416 0.250000
#
# Coordination Sequence:
#
# PCOD9469838 Si02
#       5
#    16  16   8  16  16
#     4  10  20  34  52  77 111 147 183 225 277 339
#     4  10  19  30  47  72 104 142 185 227 277 332
#     4  10  24  42  60  84 115 156 203 250 294 340
#     4  12  23  36  55  82 114 150 191 238 293 352
#     4  11  22  37  56  78 109 148 193 242 291 341
#
# _framework density 18.828233999999998
#
# number of rings (size 3 to 8) (size 9 to 14) (size 15 to 20)
#    0.000    1.333    2.222    4.667    0.000    5.333 
#    0.000    0.000    0.000    0.000    0.000    0.778 
#    0.000    0.000    0.000    0.000    0.000    0.000 
#
# Total GULP energy -200554.674050 kJ/mol
# GULP energy per Si atom -5570.963168 kJ/mol
# Density = 1.878538 g / cm^3
# Si number density = 18.828234 Si / 1000 Ang^3
#
#
#
# Elastic Constant Matrix: (Units=GPa)
#
#
# Indices 1 2 3 4 5 6 
#
# 1 40.1075 32.1724 27.1720 0.0000 0.0000 0.0000
# 2 32.1724 172.8651 78.6547 0.0000 0.0000 0.0000
# 3 27.1720 78.6547 134.8467 0.0000 0.0000 0.0000
# 4 0.0000 0.0000 0.0000 33.5512 0.0000 0.0000
# 5 0.0000 0.0000 0.0000 0.0000 13.4115 0.0000
# 6 0.0000 0.0000 0.0000 0.0000 0.0000 13.1950
#
#
#
# Elastic Compliance Matrix: (Units=1/GPa)
#
#
# Indices 1 2 3 4 5 6 
#
# 1 0.030737 -0.003951 -0.003889 0.000000 0.000000 0.000000
# 2 -0.003951 0.008383 -0.004093 0.000000 0.000000 0.000000
# 3 -0.003889 -0.004093 0.010587 0.000000 0.000000 0.000000
# 4 0.000000 0.000000 0.000000 0.029805 0.000000 0.000000
# 5 0.000000 0.000000 0.000000 0.000000 0.074563 0.000000
# 6 0.000000 0.000000 0.000000 0.000000 0.000000 0.075787
#
#
# Mechanical properties :
#
#
# Convention : Reuss Voigt Hill
#
# Bulk Modulus (GPa) = 38.69972 69.31304 54.00638
# Shear Modulus (GPa) = 19.05913 26.01955 22.53934
#
# Velocity S-wave (km/s) = 3.18506 3.72148 3.46367
# Velocity P-wave (km/s) = 5.84165 7.44037 6.68895
#
# Compressibility (1/GPa) = 0.02583998
#
# Stress axis : x y z
#
# Youngs Moduli (GPa) = 32.53404 119.29292 94.45441
#
# Poissons Ratio (x) = 0.47133 0.36733
# Poissons Ratio (y) = 0.12854 0.38664
# Poissons Ratio (z) = 0.12652 0.48832
#
# Static dielectric constant tensor:
#      x y z
#    x 1.701570 0.000000 0.000000 
#    y 0.000000 1.830820 0.000000 
#    z 0.000000 0.000000 1.680160 
# 
# From -- ./inp_files/9831.got.cif
#   From: 2010.05.17/outbox.cif.g08.bks.cpg/sg63_5_cif.got.tgz:9831.got - 2010.06.03 15:47:04.
