data_PCOD9469502
_publ_section_title
;
Structure prediction by ZEFSAII (Michael W. Deem and Ramdas Pophale) SiO2 
 PCOD9469502
Probable space group: C M C M
;
_chemical_formula_sum "Si O2"
_cell_formula_units_Z 80
_cell_length_a 16.841340
_cell_length_b 12.317294
_cell_length_c 21.788060
_cell_angle_alpha 90.000000
_cell_angle_beta 90.000000
_cell_angle_gamma 90.000000
_cell_volume 4519.709417
_symmetry_space_group_name_H-M "C M C M"
_symmetry_group_IT_number 63
_symmetry_cell_setting 'orthorhombic'
loop_
_space_group_symop_operation_xyz
x,y,z
-x,-y,1/2+z
x,-y,-z
-x,y,1/2-z
-x,-y,-z
x,y,1/2-z
-x,y,z
x,-y,1/2+z
1/2+x,1/2+y,z
1/2-x,1/2-y,1/2+z
1/2+x,1/2-y,-z
1/2-x,1/2+y,1/2-z
1/2-x,1/2-y,-z
1/2+x,1/2+y,1/2-z
1/2-x,1/2+y,z
1/2+x,1/2-y,1/2+z
loop_
_atom_site_type_symbol
_atom_site_label
_atom_site_fract_x
_atom_site_fract_y
_atom_site_fract_z
Si Si1 0.500000 0.839719 0.180175
Si Si2 0.211618 0.227091 0.899122
Si Si3 0.835274 0.628287 0.506979
Si Si4 0.500000 0.902475 0.050366
Si Si5 0.093516 0.071713 0.824021
Si Si6 0.353463 0.672278 0.178355
O O1 0.500000 0.884600 0.250000
O O2 0.500000 0.924603 0.123641
O O3 0.423862 0.760742 0.173800
O O4 0.262764 0.159789 0.949023
O O5 0.151471 0.153097 0.860305
O O6 0.276711 0.286795 0.857427
O O7 0.168343 0.315946 0.940954
O O8 0.833339 0.500000 0.500000
O O9 0.918889 0.660731 0.537339
O O10 0.500000 0.000000 0.000000
O O11 0.103755 0.083433 0.750000
O O12 0.000000 0.089841 0.837386
O O13 0.116060 0.947142 0.840729
O O14 0.332991 0.663674 0.250000
#
# Coordination Sequence:
#
# PCOD9469502 Si02
#       6
#     8  16  16   8  16  16
#     4  10  18  34  61  87 113 151 204 254 297 356
#     4  11  21  35  59  82 114 147 195 247 286 350
#     4  10  22  37  55  80 111 150 192 234 295 357
#     4  10  20  38  59  79 115 161 193 244 305 358
#     4  10  21  37  57  85 120 155 189 237 301 356
#     4  10  19  35  59  85 115 151 196 248 298 350
#
# _framework density 17.700254000000001
#
# number of rings (size 3 to 8) (size 9 to 14) (size 15 to 20)
#    0.000    1.800    3.000    1.800    1.400    0.000 
#    0.000    0.000    0.000    9.000    0.000    0.000 
#    0.000    0.000    0.000    0.000    0.000    0.000 
#
# Total GULP energy -222928.695978 kJ/mol
# GULP energy per Si atom -5573.217399 kJ/mol
# Density = 1.765997 g / cm^3
# Si number density = 17.700254 Si / 1000 Ang^3
#
#
#
# Elastic Constant Matrix: (Units=GPa)
#
#
# Indices 1 2 3 4 5 6 
#
# 1 90.4500 32.2538 51.6516 0.0000 0.0000 0.0000
# 2 32.2538 67.1603 44.4143 0.0000 0.0000 0.0000
# 3 51.6516 44.4143 111.1674 0.0000 0.0000 0.0000
# 4 0.0000 0.0000 0.0000 25.5702 0.0000 0.0000
# 5 0.0000 0.0000 0.0000 0.0000 35.1154 0.0000
# 6 0.0000 0.0000 0.0000 0.0000 0.0000 14.1570
#
#
#
# Elastic Compliance Matrix: (Units=1/GPa)
#
#
# Indices 1 2 3 4 5 6 
#
# 1 0.015694 -0.003690 -0.005818 0.000000 0.000000 0.000000
# 2 -0.003690 0.021104 -0.006717 0.000000 0.000000 0.000000
# 3 -0.005818 -0.006717 0.014382 0.000000 0.000000 0.000000
# 4 0.000000 0.000000 0.000000 0.039108 0.000000 0.000000
# 5 0.000000 0.000000 0.000000 0.000000 0.028478 0.000000
# 6 0.000000 0.000000 0.000000 0.000000 0.000000 0.070637
#
#
# Mechanical properties :
#
#
# Convention : Reuss Voigt Hill
#
# Bulk Modulus (GPa) = 53.38804 58.37968 55.88386
# Shear Modulus (GPa) = 21.92072 24.33239 23.12655
#
# Velocity S-wave (km/s) = 3.52297 3.71171 3.61857
# Velocity P-wave (km/s) = 6.83931 7.17098 7.00711
#
# Compressibility (1/GPa) = 0.01873079
#
# Stress axis : x y z
#
# Youngs Moduli (GPa) = 63.71988 47.38453 69.53017
#
# Poissons Ratio (x) = 0.17483 0.40450
# Poissons Ratio (y) = 0.23510 0.46706
# Poissons Ratio (z) = 0.37070 0.31830
#
# Static dielectric constant tensor:
#      x y z
#    x 1.618780 0.000000 0.000000 
#    y 0.000000 1.595920 0.000000 
#    z 0.000000 0.000000 1.607960 
# 
# From -- ./inp_files/55291.got.cif
#   From: 2010.05.17/outbox.cif.g08.bks.cpg/sg63_28_cif.got.tgz:55291.got - 2010.06.03 15:47:04.
