data_PCOD9469008
_publ_section_title
;
Structure prediction by ZEFSAII (Michael W. Deem and Ramdas Pophale) SiO2 
 PCOD9469008
Probable space group: C M C M
;
_chemical_formula_sum "Si O2"
_cell_formula_units_Z 96
_cell_length_a 7.679653
_cell_length_b 30.236206
_cell_length_c 20.029553
_cell_angle_alpha 90.000000
_cell_angle_beta 90.000000
_cell_angle_gamma 90.000000
_cell_volume 4650.933714
_symmetry_space_group_name_H-M "C M C M"
_symmetry_group_IT_number 63
_symmetry_cell_setting 'orthorhombic'
loop_
_space_group_symop_operation_xyz
x,y,z
-x,-y,1/2+z
x,-y,-z
-x,y,1/2-z
-x,-y,-z
x,y,1/2-z
-x,y,z
x,-y,1/2+z
1/2+x,1/2+y,z
1/2-x,1/2-y,1/2+z
1/2+x,1/2-y,-z
1/2-x,1/2+y,1/2-z
1/2-x,1/2-y,-z
1/2+x,1/2+y,1/2-z
1/2-x,1/2+y,z
1/2+x,1/2-y,1/2+z
loop_
_atom_site_type_symbol
_atom_site_label
_atom_site_fract_x
_atom_site_fract_y
_atom_site_fract_z
Si Si1 0.706160 0.271368 0.092723
Si Si2 0.213017 0.517244 0.173447
Si Si3 0.298071 0.318550 0.541411
Si Si4 0.703228 0.917483 0.562222
Si Si5 0.713282 0.067464 0.585524
Si Si6 0.290481 0.852205 0.175879
O O1 0.500000 0.266392 0.083904
O O2 0.781980 0.222225 0.092516
O O3 0.742097 0.302785 0.154762
O O4 0.776415 0.298171 0.027705
O O5 0.274207 0.517412 0.250000
O O6 0.273092 0.558529 0.128084
O O7 0.263308 0.473577 0.131869
O O8 0.000000 0.517293 0.176809
O O9 0.500000 0.328533 0.529955
O O10 0.215110 0.364477 0.562936
O O11 0.500000 0.929842 0.560406
O O12 0.776111 0.933868 0.490884
O O13 0.500000 0.068072 0.583612
O O14 0.772253 0.112665 0.621133
O O15 0.227408 0.863252 0.250000
O O16 0.500000 0.855142 0.176433
#
# Coordination Sequence:
#
# PCOD9469008 Si02
#       6
#    16  16  16  16  16  16
#     4  10  20  34  53  76 103 135 172 215 263 312
#     4   9  17  29  47  75 108 138 172 217 265 308
#     4  10  20  34  54  77 102 133 172 217 265 313
#     4  10  18  30  52  79 104 135 177 221 261 307
#     4   9  16  28  48  75 106 137 173 215 259 308
#     4  10  19  31  50  77 109 142 173 212 264 317
#
# _framework density 20.641017999999999
#
# number of rings (size 3 to 8) (size 9 to 14) (size 15 to 20)
#    0.000    2.333    1.667    2.000    0.000    5.667 
#    0.000    0.833    0.000    6.500    0.000    0.000 
#    0.000    0.000    0.000    0.000    0.000    0.000 
#
# Total GULP energy -267887.290672 kJ/mol
# GULP energy per Si atom -5580.985222 kJ/mol
# Density = 2.059404 g / cm^3
# Si number density = 20.641018 Si / 1000 Ang^3
#
#
#
# Elastic Constant Matrix: (Units=GPa)
#
#
# Indices 1 2 3 4 5 6 
#
# 1 35.4256 -9.2259 8.2547 0.0000 0.0000 0.0000
# 2 -9.2259 117.7945 88.9774 0.0000 0.0000 0.0000
# 3 8.2547 88.9774 134.3283 0.0000 0.0000 0.0000
# 4 0.0000 0.0000 0.0000 24.2283 0.0000 0.0000
# 5 0.0000 0.0000 0.0000 0.0000 4.5960 0.0000
# 6 0.0000 0.0000 0.0000 0.0000 0.0000 12.6435
#
#
#
# Elastic Compliance Matrix: (Units=1/GPa)
#
#
# Indices 1 2 3 4 5 6 
#
# 1 0.032000 0.007989 -0.007258 0.000000 0.000000 0.000000
# 2 0.007989 0.018985 -0.013066 0.000000 0.000000 0.000000
# 3 -0.007258 -0.013066 0.016545 0.000000 0.000000 0.000000
# 4 0.000000 0.000000 0.000000 0.041274 0.000000 0.000000
# 5 0.000000 0.000000 0.000000 0.000000 0.217580 0.000000
# 6 0.000000 0.000000 0.000000 0.000000 0.000000 0.079092
#
#
# Mechanical properties :
#
#
# Convention : Reuss Voigt Hill
#
# Bulk Modulus (GPa) = 23.33230 51.50677 37.41953
# Shear Modulus (GPa) = 11.25029 21.59637 16.42333
#
# Velocity S-wave (km/s) = 2.33715 3.23814 2.82381
# Velocity P-wave (km/s) = 4.31410 6.24408 5.36656
#
# Compressibility (1/GPa) = 0.04285905
#
# Stress axis : x y z
#
# Youngs Moduli (GPa) = 31.25002 52.67385 60.43990
#
# Poissons Ratio (x) = -0.42080 0.43868
# Poissons Ratio (y) = -0.24965 0.78972
# Poissons Ratio (z) = 0.22682 0.68825
#
# Static dielectric constant tensor:
#      x y z
#    x 1.768820 0.000000 0.000000 
#    y 0.000000 1.722170 0.000000 
#    z 0.000000 0.000000 1.739180 
# 
# From -- ./inp_files/51269.got.cif
#   From: 2010.05.17/outbox.cif.g08.bks.cpg/sg63_26_cif.got.tgz:51269.got - 2010.06.03 15:47:04.
