data_PCOD9469903
_publ_section_title
;
Structure prediction by ZEFSAII (Michael W. Deem and Ramdas Pophale) SiO2 
 PCOD9469903
Probable space group: C M C M
;
_chemical_formula_sum "Si O2"
_cell_formula_units_Z 104
_cell_length_a 17.481034
_cell_length_b 21.597507
_cell_length_c 14.408145
_cell_angle_alpha 90.000000
_cell_angle_beta 90.000000
_cell_angle_gamma 90.000000
_cell_volume 5439.748379
_symmetry_space_group_name_H-M "C M C M"
_symmetry_group_IT_number 63
_symmetry_cell_setting 'orthorhombic'
loop_
_space_group_symop_operation_xyz
x,y,z
-x,-y,1/2+z
x,-y,-z
-x,y,1/2-z
-x,-y,-z
x,y,1/2-z
-x,y,z
x,-y,1/2+z
1/2+x,1/2+y,z
1/2-x,1/2-y,1/2+z
1/2+x,1/2-y,-z
1/2-x,1/2+y,1/2-z
1/2-x,1/2-y,-z
1/2+x,1/2+y,1/2-z
1/2-x,1/2+y,z
1/2+x,1/2-y,1/2+z
loop_
_atom_site_type_symbol
_atom_site_label
_atom_site_fract_x
_atom_site_fract_y
_atom_site_fract_z
Si Si1 0.907725 0.996579 0.640589
Si Si2 0.593063 0.998838 0.750000
Si Si3 0.858292 0.895675 0.007631
Si Si4 0.585386 0.061230 0.061238
Si Si5 0.807171 0.343163 0.459292
Si Si6 0.088814 0.227948 0.454771
Si Si7 0.414370 0.730308 0.250000
Si Si8 0.152311 0.360612 0.250000
O O1 0.891118 0.992101 0.750000
O O2 0.870797 0.057590 0.593573
O O3 0.000000 0.999591 0.628418
O O4 0.877352 0.938055 0.581745
O O5 0.500000 0.001232 0.750000
O O6 0.621202 0.069540 0.750000
O O7 0.618315 0.961453 0.840829
O O8 0.911445 0.835283 0.011540
O O9 0.774853 0.864496 0.004375
O O10 0.500000 0.086649 0.077197
O O11 0.634535 0.107866 0.002398
O O12 0.579096 0.000000 0.000000
O O13 0.847880 0.278081 0.485500
O O14 0.804778 0.349090 0.347130
O O15 0.116268 0.210949 0.349704
O O16 0.000000 0.251964 0.449686
O O17 0.500000 0.706020 0.250000
O O18 0.410668 0.805501 0.250000
#
# Coordination Sequence:
#
# PCOD9469903 Si02
#       8
#    16   8  16  16  16  16   8   8
#     4  10  23  43  67  93 121 156 202 253 303 362
#     4  10  19  30  51  77 109 152 208 258 290 342
#     4  11  23  39  63  94 124 155 201 250 314 360
#     4  10  20  34  52  78 113 161 208 247 293 352
#     4  11  23  37  57  89 125 162 196 252 302 365
#     4  10  20  38  63  88 122 163 204 249 297 360
#     4   8  17  30  53  87 113 144 194 248 298 344
#     4  10  19  32  52  78 119 156 196 240 304 354
#
# _framework density 19.118531000000001
#
# number of rings (size 3 to 8) (size 9 to 14) (size 15 to 20)
#    0.000    1.846    1.538    3.000    4.308    1.231 
#    1.385    0.000    1.692    0.000    0.000    0.000 
#    0.000    0.000    0.000    0.000    0.000    0.000 
#
# Total GULP energy -289722.146727 kJ/mol
# GULP energy per Si atom -5571.579745 kJ/mol
# Density = 1.907502 g / cm^3
# Si number density = 19.118531 Si / 1000 Ang^3
#
#
#
# Elastic Constant Matrix: (Units=GPa)
#
#
# Indices 1 2 3 4 5 6 
#
# 1 83.8249 44.0300 18.3305 0.0000 0.0000 0.0000
# 2 44.0300 110.6587 33.3933 0.0000 0.0000 0.0000
# 3 18.3305 33.3933 90.3107 0.0000 0.0000 0.0000
# 4 0.0000 0.0000 0.0000 11.9899 0.0000 0.0000
# 5 0.0000 0.0000 0.0000 0.0000 19.6867 0.0000
# 6 0.0000 0.0000 0.0000 0.0000 0.0000 13.1910
#
#
#
# Elastic Compliance Matrix: (Units=1/GPa)
#
#
# Indices 1 2 3 4 5 6 
#
# 1 0.015154 -0.005742 -0.000953 0.000000 0.000000 0.000000
# 2 -0.005742 0.012348 -0.003400 0.000000 0.000000 0.000000
# 3 -0.000953 -0.003400 0.012523 0.000000 0.000000 0.000000
# 4 0.000000 0.000000 0.000000 0.083403 0.000000 0.000000
# 5 0.000000 0.000000 0.000000 0.000000 0.050796 0.000000
# 6 0.000000 0.000000 0.000000 0.000000 0.000000 0.075809
#
#
# Mechanical properties :
#
#
# Convention : Reuss Voigt Hill
#
# Bulk Modulus (GPa) = 50.41525 52.92243 51.66884
# Shear Modulus (GPa) = 18.06129 21.57624 19.81876
#
# Velocity S-wave (km/s) = 3.07693 3.36304 3.22316
# Velocity P-wave (km/s) = 6.24903 6.54380 6.39812
#
# Compressibility (1/GPa) = 0.01983527
#
# Stress axis : x y z
#
# Youngs Moduli (GPa) = 65.98872 80.98732 79.85003
#
# Poissons Ratio (x) = 0.46505 0.07607
# Poissons Ratio (y) = 0.37892 0.27150
# Poissons Ratio (z) = 0.06286 0.27537
#
# Static dielectric constant tensor:
#      x y z
#    x 1.714670 0.000000 0.000000 
#    y 0.000000 1.674570 0.000000 
#    z 0.000000 0.000000 1.660580 
# 
# From -- ./inp_files/34214.got.cif
#   From: 2010.05.17/outbox.cif.g08.bks.cpg/sg63_18_cif.got.tgz:34214.got - 2010.06.03 15:47:04.
