data_PCOD9469532
_publ_section_title
;
Structure prediction by ZEFSAII (Michael W. Deem and Ramdas Pophale) SiO2 
 PCOD9469532
Probable space group: C M C M
;
_chemical_formula_sum "Si O2"
_cell_formula_units_Z 92
_cell_length_a 7.777344
_cell_length_b 27.597263
_cell_length_c 24.925474
_cell_angle_alpha 90.000000
_cell_angle_beta 90.000000
_cell_angle_gamma 90.000000
_cell_volume 5349.839426
_symmetry_space_group_name_H-M "C M C M"
_symmetry_group_IT_number 63
_symmetry_cell_setting 'orthorhombic'
loop_
_space_group_symop_operation_xyz
x,y,z
-x,-y,1/2+z
x,-y,-z
-x,y,1/2-z
-x,-y,-z
x,y,1/2-z
-x,y,z
x,-y,1/2+z
1/2+x,1/2+y,z
1/2-x,1/2-y,1/2+z
1/2+x,1/2-y,-z
1/2-x,1/2+y,1/2-z
1/2-x,1/2-y,-z
1/2+x,1/2+y,1/2-z
1/2-x,1/2+y,z
1/2+x,1/2-y,1/2+z
loop_
_atom_site_type_symbol
_atom_site_label
_atom_site_fract_x
_atom_site_fract_y
_atom_site_fract_z
Si Si1 0.191254 0.447348 0.750000
Si Si2 0.800057 0.227697 0.185385
Si Si3 0.000000 0.801545 0.185306
Si Si4 0.707741 0.379610 0.848393
Si Si5 0.500000 0.476194 0.250000
Si Si6 0.500000 0.589723 0.643945
Si Si7 0.805731 0.551281 0.571232
Si Si8 0.707336 0.558983 0.049685
O O1 0.215968 0.413193 0.698166
O O2 0.334832 0.488703 0.750000
O O3 0.000000 0.468253 0.750000
O O4 0.792092 0.221404 0.250000
O O5 0.668586 0.270136 0.170833
O O6 0.746366 0.176364 0.160044
O O7 0.000000 0.237749 0.171633
O O8 0.000000 0.854016 0.159032
O O9 0.000000 0.807316 0.250000
O O10 0.500000 0.382693 0.842718
O O11 0.754219 0.401207 0.906170
O O12 0.500000 0.442857 0.197424
O O13 0.666193 0.575806 0.609000
O O14 0.779972 0.567658 0.509521
O O15 0.771335 0.493451 0.569641
O O16 0.000000 0.560600 0.588664
O O17 0.500000 0.556343 0.045512
#
# Coordination Sequence:
#
# PCOD9469532 Si02
#       8
#     8  16   8  16   4   8  16  16
#     4  12  24  34  53  85 129 163 186 218 290 357
#     4   9  18  34  56  84 116 141 184 239 288 344
#     4  10  22  40  61  83 106 151 202 244 284 336
#     4  10  19  33  57  88 121 157 184 227 295 352
#     4  12  26  42  54  80 124 156 180 246 276 346
#     4  12  24  43  62  79 112 157 205 236 293 334
#     4  11  22  38  59  85 117 156 197 243 281 336
#     4  10  18  35  60  88 118 156 198 232 282 349
#
# _framework density 17.196777999999998
#
# number of rings (size 3 to 8) (size 9 to 14) (size 15 to 20)
#    0.000    1.565    3.913    2.609    1.217    4.174 
#    0.000    0.000    0.000    1.043    0.000    0.000 
#    0.000    0.000    0.000    0.000    0.000    0.000 
#
# Total GULP energy -256976.894587 kJ/mol
# GULP energy per Si atom -5586.454230 kJ/mol
# Density = 1.715764 g / cm^3
# Si number density = 17.196778 Si / 1000 Ang^3
#
#
#
# Elastic Constant Matrix: (Units=GPa)
#
#
# Indices 1 2 3 4 5 6 
#
# 1 132.9026 79.2787 55.4036 0.0000 0.0000 0.0000
# 2 79.2787 139.5222 74.4171 0.0000 0.0000 0.0000
# 3 55.4036 74.4171 83.6436 0.0000 0.0000 0.0000
# 4 0.0000 0.0000 0.0000 5.1697 0.0000 0.0000
# 5 0.0000 0.0000 0.0000 0.0000 -10.4882 0.0000
# 6 0.0000 0.0000 0.0000 0.0000 0.0000 -10.4516
#
#
#
# Elastic Compliance Matrix: (Units=1/GPa)
#
#
# Indices 1 2 3 4 5 6 
#
# 1 0.011913 -0.004873 -0.003556 0.000000 0.000000 0.000000
# 2 -0.004873 0.015633 -0.010681 0.000000 0.000000 0.000000
# 3 -0.003556 -0.010681 0.023814 0.000000 0.000000 0.000000
# 4 0.000000 0.000000 0.000000 0.193434 0.000000 0.000000
# 5 0.000000 0.000000 0.000000 0.000000 -0.095345 0.000000
# 6 0.000000 0.000000 0.000000 0.000000 0.000000 -0.095679
#
#
# Mechanical properties :
#
#
# Convention : Reuss Voigt Hill
#
# Bulk Modulus (GPa) = 76.09910 86.02966 81.06438
# Shear Modulus (GPa) = 51.88409 6.64393 29.26401
#
# Velocity S-wave (km/s) = 5.49876 1.96770 4.12966
# Velocity P-wave (km/s) = 9.20126 7.43624 8.36543
#
# Compressibility (1/GPa) = 0.01314076
#
# Stress axis : x y z
#
# Youngs Moduli (GPa) = 83.93965 63.96715 41.99276
#
# Poissons Ratio (x) = 0.31170 0.14932
# Poissons Ratio (y) = 0.40902 0.44852
# Poissons Ratio (z) = 0.29848 0.68323
#
# Static dielectric constant tensor:
#      x y z
#    x 1.604090 0.000000 0.000000 
#    y 0.000000 1.546260 0.000000 
#    z 0.000000 0.000000 1.567540 
# 
# From -- ./inp_files/60107.got.cif
#   From: 2010.05.17/outbox.cif.g08.bks.cpg/sg63_31_cif.got.tgz:60107.got - 2010.06.03 15:47:04.
