data_PCOD9469911
_publ_section_title
;
Structure prediction by ZEFSAII (Michael W. Deem and Ramdas Pophale) SiO2 
 PCOD9469911
Probable space group: C M C M
;
_chemical_formula_sum "Si O2"
_cell_formula_units_Z 84
_cell_length_a 11.972697
_cell_length_b 17.669158
_cell_length_c 20.196165
_cell_angle_alpha 90.000000
_cell_angle_beta 90.000000
_cell_angle_gamma 90.000000
_cell_volume 4272.447710
_symmetry_space_group_name_H-M "C M C M"
_symmetry_group_IT_number 63
_symmetry_cell_setting 'orthorhombic'
loop_
_space_group_symop_operation_xyz
x,y,z
-x,-y,1/2+z
x,-y,-z
-x,y,1/2-z
-x,-y,-z
x,y,1/2-z
-x,y,z
x,-y,1/2+z
1/2+x,1/2+y,z
1/2-x,1/2-y,1/2+z
1/2+x,1/2-y,-z
1/2-x,1/2+y,1/2-z
1/2-x,1/2-y,-z
1/2+x,1/2+y,1/2-z
1/2-x,1/2+y,z
1/2+x,1/2-y,1/2+z
loop_
_atom_site_type_symbol
_atom_site_label
_atom_site_fract_x
_atom_site_fract_y
_atom_site_fract_z
Si Si1 0.718398 0.889170 0.628383
Si Si2 0.500000 0.203630 0.170155
Si Si3 0.133642 0.074079 0.250000
Si Si4 0.631976 0.936995 0.376709
Si Si5 0.500000 0.631185 0.606171
Si Si6 0.266401 0.402456 0.250000
Si Si7 0.205629 0.910998 0.486904
Si Si8 0.500000 0.611863 0.750000
O O1 0.612313 0.838249 0.645825
O O2 0.811099 0.888113 0.685633
O O3 0.775382 0.872833 0.557738
O O4 0.670399 0.975233 0.625695
O O5 0.500000 0.202401 0.250000
O O6 0.500000 0.285761 0.137029
O O7 0.000000 0.076678 0.250000
O O8 0.178019 0.986858 0.250000
O O9 0.500000 0.931967 0.371510
O O10 0.692309 0.896466 0.315155
O O11 0.680372 0.905666 0.445118
O O12 0.607335 0.617657 0.560456
O O13 0.500000 0.579393 0.673356
O O14 0.376278 0.350664 0.250000
O O15 0.182059 0.000000 0.500000
#
# Coordination Sequence:
#
# PCOD9469911 Si02
#       8
#    16   8   8  16   8   8  16   4
#     4  10  22  37  60  90 122 155 202 249 296 354
#     4  12  24  43  64  87 117 165 218 248 277 354
#     4  10  20  33  57  91 120 154 191 249 309 353
#     4  10  19  33  57  90 123 156 194 247 313 362
#     4  12  25  42  63  86 123 167 203 245 302 361
#     4  10  19  30  52  87 127 154 194 247 305 373
#     4  10  23  38  62  94 123 153 191 257 312 369
#     4  12  20  38  56  86 124 158 202 244 304 368
#
# _framework density 19.660862000000002
#
# number of rings (size 3 to 8) (size 9 to 14) (size 15 to 20)
#    0.000    1.524    4.762    0.571    2.667    1.905 
#    0.000    0.000    0.000    0.000    0.000    0.000 
#    0.000    0.000    0.000    0.000    0.000    0.000 
#
# Total GULP energy -234403.297044 kJ/mol
# GULP energy per Si atom -5581.030882 kJ/mol
# Density = 1.961611 g / cm^3
# Si number density = 19.660862 Si / 1000 Ang^3
#
#
#
# Elastic Constant Matrix: (Units=GPa)
#
#
# Indices 1 2 3 4 5 6 
#
# 1 174.9174 16.8950 94.0941 0.0000 0.0000 0.0000
# 2 16.8950 27.6716 33.3592 0.0000 0.0000 0.0000
# 3 94.0941 33.3592 209.7640 0.0000 0.0000 0.0000
# 4 0.0000 0.0000 0.0000 14.8268 0.0000 0.0000
# 5 0.0000 0.0000 0.0000 0.0000 33.3997 0.0000
# 6 0.0000 0.0000 0.0000 0.0000 0.0000 13.3543
#
#
#
# Elastic Compliance Matrix: (Units=1/GPa)
#
#
# Indices 1 2 3 4 5 6 
#
# 1 0.007545 -0.000651 -0.003281 0.000000 0.000000 0.000000
# 2 -0.000651 0.044766 -0.006827 0.000000 0.000000 0.000000
# 3 -0.003281 -0.006827 0.007325 0.000000 0.000000 0.000000
# 4 0.000000 0.000000 0.000000 0.067445 0.000000 0.000000
# 5 0.000000 0.000000 0.000000 0.000000 0.029940 0.000000
# 6 0.000000 0.000000 0.000000 0.000000 0.000000 0.074882
#
#
# Mechanical properties :
#
#
# Convention : Reuss Voigt Hill
#
# Bulk Modulus (GPa) = 26.23493 77.89440 52.06466
# Shear Modulus (GPa) = 18.78798 30.18314 24.48556
#
# Velocity S-wave (km/s) = 3.09464 3.92240 3.53285
# Velocity P-wave (km/s) = 5.11290 7.76007 6.57116
#
# Compressibility (1/GPa) = 0.03811713
#
# Stress axis : x y z
#
# Youngs Moduli (GPa) = 132.54271 22.33831 136.52541
#
# Poissons Ratio (x) = 0.01455 0.44791
# Poissons Ratio (y) = 0.08633 0.93207
# Poissons Ratio (z) = 0.43484 0.15251
#
# Static dielectric constant tensor:
#      x y z
#    x 1.667590 0.000000 0.000000 
#    y 0.000000 1.750530 0.000000 
#    z 0.000000 0.000000 1.703570 
# 
# From -- ./inp_files/52831.got.cif
#   From: 2010.05.17/outbox.cif.g08.bks.cpg/sg63_27_cif.got.tgz:52831.got - 2010.06.03 15:47:04.
