data_PCOD9469463
_publ_section_title
;
Structure prediction by ZEFSAII (Michael W. Deem and Ramdas Pophale) SiO2 
 PCOD9469463
Probable space group: C M C M
;
_chemical_formula_sum "Si O2"
_cell_formula_units_Z 96
_cell_length_a 14.589032
_cell_length_b 22.799100
_cell_length_c 16.976492
_cell_angle_alpha 90.000000
_cell_angle_beta 90.000000
_cell_angle_gamma 90.000000
_cell_volume 5646.666435
_symmetry_space_group_name_H-M "C M C M"
_symmetry_group_IT_number 63
_symmetry_cell_setting 'orthorhombic'
loop_
_space_group_symop_operation_xyz
x,y,z
-x,-y,1/2+z
x,-y,-z
-x,y,1/2-z
-x,-y,-z
x,y,1/2-z
-x,y,z
x,-y,1/2+z
1/2+x,1/2+y,z
1/2-x,1/2-y,1/2+z
1/2+x,1/2-y,-z
1/2-x,1/2+y,1/2-z
1/2-x,1/2-y,-z
1/2+x,1/2+y,1/2-z
1/2-x,1/2+y,z
1/2+x,1/2-y,1/2+z
loop_
_atom_site_type_symbol
_atom_site_label
_atom_site_fract_x
_atom_site_fract_y
_atom_site_fract_z
Si Si1 0.729836 0.524964 0.662116
Si Si2 0.391379 0.270190 0.342396
Si Si3 0.894854 0.054675 0.061664
Si Si4 0.104233 0.475711 0.584758
Si Si5 0.104537 0.660227 0.453303
Si Si6 0.783657 0.862652 0.450280
O O1 0.706937 0.542621 0.750000
O O2 0.661954 0.473801 0.632645
O O3 0.831003 0.498842 0.652343
O O4 0.728532 0.581311 0.606153
O O5 0.363575 0.271079 0.250000
O O6 0.500000 0.284697 0.344790
O O7 0.380516 0.206722 0.383475
O O8 0.336940 0.314892 0.398402
O O9 0.000000 0.069017 0.080670
O O10 0.843237 0.109885 0.022299
O O11 0.896307 0.000000 0.000000
O O12 0.139272 0.500000 0.500000
O O13 0.106367 0.405864 0.579513
O O14 0.000000 0.496284 0.593049
O O15 0.187224 0.661811 0.516328
O O16 0.000000 0.669982 0.484659
#
# Coordination Sequence:
#
# PCOD9469463 Si02
#       6
#    16  16  16  16  16  16
#     4  11  21  32  50  79 112 144 178 222 276 323
#     4  10  22  38  56  83 112 138 179 235 285 324
#     4   9  18  33  52  74 103 142 185 221 262 321
#     4  10  18  34  56  78 107 143 180 219 263 319
#     4  10  20  35  59  82 107 145 185 225 270 326
#     4  11  19  36  57  81 105 146 186 228 267 329
#
# _framework density 17.001182
#
# number of rings (size 3 to 8) (size 9 to 14) (size 15 to 20)
#    0.000    1.833    3.333    2.000    0.000    2.000 
#    0.000    1.667    0.000    1.500    0.000    0.000 
#    0.000    0.000    0.000    0.000    0.000    0.000 
#
# Total GULP energy -267528.543998 kJ/mol
# GULP energy per Si atom -5573.511333 kJ/mol
# Density = 1.696249 g / cm^3
# Si number density = 17.001182 Si / 1000 Ang^3
#
#
#
# Elastic Constant Matrix: (Units=GPa)
#
#
# Indices 1 2 3 4 5 6 
#
# 1 93.3830 30.7188 42.4883 0.0000 0.0000 0.0000
# 2 30.7188 79.2525 21.8656 0.0000 0.0000 0.0000
# 3 42.4883 21.8656 63.3449 0.0000 0.0000 0.0000
# 4 0.0000 0.0000 0.0000 18.9088 0.0000 0.0000
# 5 0.0000 0.0000 0.0000 0.0000 14.0284 0.0000
# 6 0.0000 0.0000 0.0000 0.0000 0.0000 22.0815
#
#
#
# Elastic Compliance Matrix: (Units=1/GPa)
#
#
# Indices 1 2 3 4 5 6 
#
# 1 0.016316 -0.003653 -0.009683 0.000000 0.000000 0.000000
# 2 -0.003653 0.014764 -0.002646 0.000000 0.000000 0.000000
# 3 -0.009683 -0.002646 0.023195 0.000000 0.000000 0.000000
# 4 0.000000 0.000000 0.000000 0.052885 0.000000 0.000000
# 5 0.000000 0.000000 0.000000 0.000000 0.071284 0.000000
# 6 0.000000 0.000000 0.000000 0.000000 0.000000 0.045287
#
#
# Mechanical properties :
#
#
# Convention : Reuss Voigt Hill
#
# Bulk Modulus (GPa) = 44.82131 47.34733 46.08432
# Shear Modulus (GPa) = 19.00197 20.39760 19.69978
#
# Velocity S-wave (km/s) = 3.34681 3.46754 3.40771
# Velocity P-wave (km/s) = 6.43084 6.62885 6.53059
#
# Compressibility (1/GPa) = 0.02231082
#
# Stress axis : x y z
#
# Youngs Moduli (GPa) = 61.29045 67.73346 43.11314
#
# Poissons Ratio (x) = 0.24740 0.41746
# Poissons Ratio (y) = 0.22387 0.11409
# Poissons Ratio (z) = 0.59347 0.17924
#
# Static dielectric constant tensor:
#      x y z
#    x 1.602750 0.000000 0.000000 
#    y 0.000000 1.564540 0.000000 
#    z 0.000000 0.000000 1.576070 
# 
# From -- ./inp_files/31951.got.cif
#   From: 2010.05.17/outbox.cif.g08.bks.cpg/sg63_16_cif.got.tgz:31951.got - 2010.06.03 15:47:04.
