data_PCOD9469051
_publ_section_title
;
Structure prediction by ZEFSAII (Michael W. Deem and Ramdas Pophale) SiO2 
 PCOD9469051
Probable space group: C M C M
;
_chemical_formula_sum "Si O2"
_cell_formula_units_Z 80
_cell_length_a 24.662038
_cell_length_b 26.747638
_cell_length_c 8.550919
_cell_angle_alpha 90.000000
_cell_angle_beta 90.000000
_cell_angle_gamma 90.000000
_cell_volume 5640.624533
_symmetry_space_group_name_H-M "C M C M"
_symmetry_group_IT_number 63
_symmetry_cell_setting 'orthorhombic'
loop_
_space_group_symop_operation_xyz
x,y,z
-x,-y,1/2+z
x,-y,-z
-x,y,1/2-z
-x,-y,-z
x,y,1/2-z
-x,y,z
x,-y,1/2+z
1/2+x,1/2+y,z
1/2-x,1/2-y,1/2+z
1/2+x,1/2-y,-z
1/2-x,1/2+y,1/2-z
1/2-x,1/2-y,-z
1/2+x,1/2+y,1/2-z
1/2-x,1/2+y,z
1/2+x,1/2-y,1/2+z
loop_
_atom_site_type_symbol
_atom_site_label
_atom_site_fract_x
_atom_site_fract_y
_atom_site_fract_z
Si Si1 0.611470 0.944577 0.936083
Si Si2 0.118042 0.256088 0.059907
Si Si3 0.500000 0.219095 0.940793
Si Si4 0.000000 0.601895 0.562093
Si Si5 0.719984 0.299769 0.561993
Si Si6 0.316287 0.856543 0.062633
O O1 0.609491 0.945624 0.750000
O O2 0.553934 0.924514 0.000030
O O3 0.657192 0.905866 0.992550
O O4 0.621167 0.000000 0.000000
O O5 0.117267 0.256463 0.250000
O O6 0.056148 0.256239 0.004885
O O7 0.157632 0.210525 0.014256
O O8 0.146610 0.308606 0.013831
O O9 0.500000 0.220659 0.750000
O O10 0.500000 0.160427 0.983582
O O11 0.000000 0.599672 0.750000
O O12 0.722915 0.301271 0.750000
O O13 0.750000 0.250000 0.500000
O O14 0.755256 0.344726 0.492884
O O15 0.317887 0.858891 0.250000
#
# Coordination Sequence:
#
# PCOD9469051 Si02
#       6
#    16  16   8   8  16  16
#     4  12  24  36  48  64  85 111 148 190 231 269
#     4   8  14  24  41  63  85 110 143 176 215 260
#     4   9  14  24  44  65  85 114 145 181 218 255
#     4  11  20  34  51  63  84 116 152 189 227 263
#     4   9  16  26  41  63  86 110 141 179 219 265
#     4  10  18  31  47  63  82 110 145 183 226 268
#
# _framework density 14.182827
#
# number of rings (size 3 to 8) (size 9 to 14) (size 15 to 20)
#    0.000    2.200    2.000    4.800    0.000    0.000 
#    0.000    0.000    0.000    0.000    0.000    0.000 
#    0.000    0.000    0.000    0.900    0.000    9.000 
#
# Total GULP energy -222918.754706 kJ/mol
# GULP energy per Si atom -5572.968868 kJ/mol
# Density = 1.415055 g / cm^3
# Si number density = 14.182827 Si / 1000 Ang^3
#
#
#
# Elastic Constant Matrix: (Units=GPa)
#
#
# Indices 1 2 3 4 5 6 
#
# 1 132.1001 69.6930 30.2974 0.0000 0.0000 0.0000
# 2 69.6930 72.7337 28.4784 0.0000 0.0000 0.0000
# 3 30.2974 28.4784 59.1807 0.0000 0.0000 0.0000
# 4 0.0000 0.0000 0.0000 17.8376 0.0000 0.0000
# 5 0.0000 0.0000 0.0000 0.0000 17.5313 0.0000
# 6 0.0000 0.0000 0.0000 0.0000 0.0000 11.3760
#
#
#
# Elastic Compliance Matrix: (Units=1/GPa)
#
#
# Indices 1 2 3 4 5 6 
#
# 1 0.015353 -0.014335 -0.000962 0.000000 0.000000 0.000000
# 2 -0.014335 0.030325 -0.007254 0.000000 0.000000 0.000000
# 3 -0.000962 -0.007254 0.020881 0.000000 0.000000 0.000000
# 4 0.000000 0.000000 0.000000 0.056061 0.000000 0.000000
# 5 0.000000 0.000000 0.000000 0.000000 0.057041 0.000000
# 6 0.000000 0.000000 0.000000 0.000000 0.000000 0.087904
#
#
# Mechanical properties :
#
#
# Convention : Reuss Voigt Hill
#
# Bulk Modulus (GPa) = 46.60474 57.88357 52.24416
# Shear Modulus (GPa) = 15.63386 18.38536 17.00961
#
# Velocity S-wave (km/s) = 3.32371 3.60434 3.46686
# Velocity P-wave (km/s) = 6.90367 7.63038 7.27610
#
# Compressibility (1/GPa) = 0.02145704
#
# Stress axis : x y z
#
# Youngs Moduli (GPa) = 65.13206 32.97655 47.89150
#
# Poissons Ratio (x) = 0.47272 0.04607
# Poissons Ratio (y) = 0.93366 0.34740
# Poissons Ratio (z) = 0.06266 0.23921
#
# Static dielectric constant tensor:
#      x y z
#    x 1.496790 0.000000 0.000000 
#    y 0.000000 1.433920 0.000000 
#    z 0.000000 0.000000 1.477670 
# 
# From -- ./inp_files/10370.got.cif
#   From: 2010.05.17/outbox.cif.g08.bks.cpg/sg63_6_cif.got.tgz:10370.got - 2010.06.03 15:47:04.
