data_PCOD9469240
_publ_section_title
;
Structure prediction by ZEFSAII (Michael W. Deem and Ramdas Pophale) SiO2 
 PCOD9469240
Probable space group: C M C M
;
_chemical_formula_sum "Si O2"
_cell_formula_units_Z 64
_cell_length_a 7.494992
_cell_length_b 39.245808
_cell_length_c 10.709890
_cell_angle_alpha 90.000000
_cell_angle_beta 90.000000
_cell_angle_gamma 90.000000
_cell_volume 3150.282196
_symmetry_space_group_name_H-M "C M C M"
_symmetry_group_IT_number 63
_symmetry_cell_setting 'orthorhombic'
loop_
_space_group_symop_operation_xyz
x,y,z
-x,-y,1/2+z
x,-y,-z
-x,y,1/2-z
-x,-y,-z
x,y,1/2-z
-x,y,z
x,-y,1/2+z
1/2+x,1/2+y,z
1/2-x,1/2-y,1/2+z
1/2+x,1/2-y,-z
1/2-x,1/2+y,1/2-z
1/2-x,1/2-y,-z
1/2+x,1/2+y,1/2-z
1/2-x,1/2+y,z
1/2+x,1/2-y,1/2+z
loop_
_atom_site_type_symbol
_atom_site_label
_atom_site_fract_x
_atom_site_fract_y
_atom_site_fract_z
Si Si1 0.789339 0.024207 0.391657
Si Si2 0.784962 0.601912 0.106846
Si Si3 0.787645 0.288420 0.750000
Si Si4 0.214482 0.291711 0.250000
Si Si5 0.781314 0.672518 0.002668
O O1 0.715630 0.020281 0.250000
O O2 0.770802 0.063857 0.428061
O O3 0.000000 0.016726 0.382830
O O4 0.714133 0.000000 0.500000
O O5 0.725623 0.608080 0.250000
O O6 0.725979 0.633328 0.021809
O O7 0.000000 0.602252 0.107731
O O8 0.756103 0.248234 0.750000
O O9 0.720848 0.306160 0.876313
O O10 0.000000 0.294189 0.750000
O O11 0.280002 0.310032 0.375406
O O12 0.000000 0.294677 0.250000
O O13 0.000000 0.673068 0.001650
#
# Coordination Sequence:
#
# PCOD9469240 Si02
#       5
#    16  16   8   8  16
#     4   9  18  33  51  71  97 127 155 186 230 279
#     4   9  16  30  52  72  91 122 162 195 225 271
#     4  10  18  32  52  68  89 126 163 189 228 287
#     4  10  20  32  46  70  99 122 151 197 242 275
#     4   9  17  31  50  69  93 125 157 191 236 281
#
# _framework density 20.315639999999998
#
# number of rings (size 3 to 8) (size 9 to 14) (size 15 to 20)
#    0.000    2.750    1.250    0.750    0.000    0.500 
#    2.250    2.500    0.000    0.000    0.000    0.000 
#    0.000    0.000    0.000    0.000    0.000    0.000 
#
# Total GULP energy -178564.538868 kJ/mol
# GULP energy per Si atom -5580.141840 kJ/mol
# Density = 2.026940 g / cm^3
# Si number density = 20.315640 Si / 1000 Ang^3
#
#
#
# Elastic Constant Matrix: (Units=GPa)
#
#
# Indices 1 2 3 4 5 6 
#
# 1 52.7539 -6.6567 8.1242 0.0000 0.0000 0.0000
# 2 -6.6567 168.8364 122.6243 0.0000 0.0000 0.0000
# 3 8.1242 122.6243 179.9784 0.0000 0.0000 0.0000
# 4 0.0000 0.0000 0.0000 36.1383 0.0000 0.0000
# 5 0.0000 0.0000 0.0000 0.0000 -4.6381 0.0000
# 6 0.0000 0.0000 0.0000 0.0000 0.0000 23.1874
#
#
#
# Elastic Compliance Matrix: (Units=1/GPa)
#
#
# Indices 1 2 3 4 5 6 
#
# 1 0.019746 0.002823 -0.002814 0.000000 0.000000 0.000000
# 2 0.002823 0.012128 -0.008391 0.000000 0.000000 0.000000
# 3 -0.002814 -0.008391 0.011400 0.000000 0.000000 0.000000
# 4 0.000000 0.000000 0.000000 0.027671 0.000000 0.000000
# 5 0.000000 0.000000 0.000000 0.000000 -0.215604 0.000000
# 6 0.000000 0.000000 0.000000 0.000000 0.000000 0.043127
#
#
# Mechanical properties :
#
#
# Convention : Reuss Voigt Hill
#
# Bulk Modulus (GPa) = 37.72336 72.19469 54.95903
# Shear Modulus (GPa) = -65.84990 29.43597 -18.20696
#
# Velocity S-wave (km/s) = -5.69945 3.81061 -2.99691
# Velocity P-wave (km/s) = 4.97019 7.41449 3.89050
#
# Compressibility (1/GPa) = 0.02650877
#
# Stress axis : x y z
#
# Youngs Moduli (GPa) = 50.64440 82.45170 87.71831
#
# Poissons Ratio (x) = -0.23273 0.24688
# Poissons Ratio (y) = -0.14295 0.73602
# Poissons Ratio (z) = 0.14253 0.69183
#
# Static dielectric constant tensor:
#      x y z
#    x 1.774110 0.000000 0.000000 
#    y 0.000000 1.685600 0.000000 
#    z 0.000000 0.000000 1.715970 
# 
# From -- ./inp_files/3209.got.cif
#   From: 2010.05.17/outbox.cif.g08.bks.cpg/sg63_2_cif.got.tgz:3209.got - 2010.06.03 15:47:04.
