data_PCOD9469079
_publ_section_title
;
Structure prediction by ZEFSAII (Michael W. Deem and Ramdas Pophale) SiO2 
 PCOD9469079
Probable space group: C M C M
;
_chemical_formula_sum "Si O2"
_cell_formula_units_Z 112
_cell_length_a 22.857040
_cell_length_b 13.510399
_cell_length_c 19.956990
_cell_angle_alpha 90.000000
_cell_angle_beta 90.000000
_cell_angle_gamma 90.000000
_cell_volume 6162.872787
_symmetry_space_group_name_H-M "C M C M"
_symmetry_group_IT_number 63
_symmetry_cell_setting 'orthorhombic'
loop_
_space_group_symop_operation_xyz
x,y,z
-x,-y,1/2+z
x,-y,-z
-x,y,1/2-z
-x,-y,-z
x,y,1/2-z
-x,y,z
x,-y,1/2+z
1/2+x,1/2+y,z
1/2-x,1/2-y,1/2+z
1/2+x,1/2-y,-z
1/2-x,1/2+y,1/2-z
1/2-x,1/2-y,-z
1/2+x,1/2+y,1/2-z
1/2-x,1/2+y,z
1/2+x,1/2-y,1/2+z
loop_
_atom_site_type_symbol
_atom_site_label
_atom_site_fract_x
_atom_site_fract_y
_atom_site_fract_z
Si Si1 0.252326 0.754833 0.891900
Si Si2 0.272362 0.552749 0.169934
Si Si3 0.434267 0.909878 0.447225
Si Si4 0.184508 0.621353 0.508029
Si Si5 0.565690 0.220456 0.168603
Si Si6 0.153801 0.873664 0.328430
Si Si7 0.134147 0.481947 0.670556
O O1 0.213771 0.838731 0.857376
O O2 0.219033 0.666045 0.928586
O O3 0.295595 0.708135 0.837604
O O4 0.288115 0.818183 0.946765
O O5 0.276717 0.553356 0.250000
O O6 0.318157 0.472745 0.141921
O O7 0.203929 0.524126 0.157195
O O8 0.500000 0.871471 0.435518
O O9 0.383161 0.847542 0.482579
O O10 0.440120 0.000000 0.500000
O O11 0.402274 0.946820 0.378894
O O12 0.188767 0.500000 0.500000
O O13 0.562996 0.227555 0.250000
O O14 0.500000 0.205298 0.143180
O O15 0.596385 0.320497 0.143104
O O16 0.605825 0.125320 0.156124
O O17 0.143406 0.891250 0.250000
O O18 0.126352 0.504081 0.750000
#
# Coordination Sequence:
#
# PCOD9469079 Si02
#       7
#    16  16  16  16  16  16  16
#     4  11  19  33  53  70  99 134 168 209 257 313
#     4  10  19  31  51  79 108 132 164 213 264 313
#     4  10  20  33  49  71 102 134 167 209 259 314
#     4  10  22  35  49  72  99 133 172 211 257 308
#     4   9  17  28  44  69 100 131 164 203 247 299
#     4  10  19  30  48  75 100 127 163 205 257 310
#     4  10  18  31  50  73 102 134 168 210 260 316
#
# _framework density 18.173342000000002
#
# number of rings (size 3 to 8) (size 9 to 14) (size 15 to 20)
#    0.000    2.000    1.429    4.286    0.000    0.857 
#    0.000    0.714    0.000    0.857    0.000    0.000 
#    0.000    6.286    0.000    0.000    0.000    0.000 
#
# Total GULP energy -311814.394059 kJ/mol
# GULP energy per Si atom -5568.114180 kJ/mol
# Density = 1.813198 g / cm^3
# Si number density = 18.173342 Si / 1000 Ang^3
#
#
#
# Elastic Constant Matrix: (Units=GPa)
#
#
# Indices 1 2 3 4 5 6 
#
# 1 75.2903 20.8968 8.5656 0.0000 0.0000 0.0000
# 2 20.8968 76.6071 2.5099 0.0000 0.0000 0.0000
# 3 8.5656 2.5099 35.8498 0.0000 0.0000 0.0000
# 4 0.0000 0.0000 0.0000 15.0571 0.0000 0.0000
# 5 0.0000 0.0000 0.0000 0.0000 10.6435 0.0000
# 6 0.0000 0.0000 0.0000 0.0000 0.0000 22.3794
#
#
#
# Elastic Compliance Matrix: (Units=1/GPa)
#
#
# Indices 1 2 3 4 5 6 
#
# 1 0.014738 -0.003914 -0.003247 0.000000 0.000000 0.000000
# 2 -0.003914 0.014123 -0.000054 0.000000 0.000000 0.000000
# 3 -0.003247 -0.000054 0.028674 0.000000 0.000000 0.000000
# 4 0.000000 0.000000 0.000000 0.066414 0.000000 0.000000
# 5 0.000000 0.000000 0.000000 0.000000 0.093954 0.000000
# 6 0.000000 0.000000 0.000000 0.000000 0.000000 0.044684
#
#
# Mechanical properties :
#
#
# Convention : Reuss Voigt Hill
#
# Bulk Modulus (GPa) = 23.19914 27.96579 25.58246
# Shear Modulus (GPa) = 17.15951 20.00099 18.58025
#
# Velocity S-wave (km/s) = 3.07614 3.32108 3.20095
# Velocity P-wave (km/s) = 5.04084 5.48888 5.26962
#
# Compressibility (1/GPa) = 0.04310504
#
# Stress axis : x y z
#
# Youngs Moduli (GPa) = 67.85362 70.80670 34.87503
#
# Poissons Ratio (x) = 0.27712 0.11325
# Poissons Ratio (y) = 0.26556 0.00187
# Poissons Ratio (z) = 0.22034 0.00380
#
# Static dielectric constant tensor:
#      x y z
#    x 1.656910 0.000000 0.000000 
#    y 0.000000 1.651190 0.000000 
#    z 0.000000 0.000000 1.690290 
# 
# From -- ./inp_files/57650.got.cif
#   From: 2010.05.17/outbox.cif.g08.bks.cpg/sg63_29_cif.got.tgz:57650.got - 2010.06.03 15:47:04.
