data_PCOD9469572
_publ_section_title
;
Structure prediction by ZEFSAII (Michael W. Deem and Ramdas Pophale) SiO2 
 PCOD9469572
Probable space group: C M C M
;
_chemical_formula_sum "Si O2"
_cell_formula_units_Z 84
_cell_length_a 27.154180
_cell_length_b 14.489080
_cell_length_c 10.203973
_cell_angle_alpha 90.000000
_cell_angle_beta 90.000000
_cell_angle_gamma 90.000000
_cell_volume 4014.641814
_symmetry_space_group_name_H-M "C M C M"
_symmetry_group_IT_number 63
_symmetry_cell_setting 'orthorhombic'
loop_
_space_group_symop_operation_xyz
x,y,z
-x,-y,1/2+z
x,-y,-z
-x,y,1/2-z
-x,-y,-z
x,y,1/2-z
-x,y,z
x,-y,1/2+z
1/2+x,1/2+y,z
1/2-x,1/2-y,1/2+z
1/2+x,1/2-y,-z
1/2-x,1/2+y,1/2-z
1/2-x,1/2-y,-z
1/2+x,1/2+y,1/2-z
1/2-x,1/2+y,z
1/2+x,1/2-y,1/2+z
loop_
_atom_site_type_symbol
_atom_site_label
_atom_site_fract_x
_atom_site_fract_y
_atom_site_fract_z
Si Si1 0.310635 0.106478 0.750000
Si Si2 0.444526 0.712418 0.469571
Si Si3 0.250271 0.612781 0.004041
Si Si4 0.314031 0.882097 0.750000
Si Si5 0.500000 0.034758 0.250000
Si Si6 0.073213 0.640753 0.750000
Si Si7 0.421978 0.796370 0.750000
Si Si8 0.353611 0.587052 0.096040
O O1 0.278327 0.138132 0.626860
O O2 0.367276 0.137580 0.750000
O O3 0.315674 0.994363 0.750000
O O4 0.500000 0.674566 0.461037
O O5 0.442254 0.803828 0.379990
O O6 0.432235 0.738211 0.618943
O O7 0.402948 0.646010 0.412826
O O8 0.252148 0.500000 0.000000
O O9 0.216558 0.644358 0.122798
O O10 0.306298 0.639860 0.035201
O O11 0.366819 0.835435 0.750000
O O12 0.456281 0.954764 0.250000
O O13 0.542151 0.116164 0.250000
O O14 0.343056 0.563794 0.250000
O O15 0.360535 0.500000 0.000000
#
# Coordination Sequence:
#
# PCOD9469572 Si02
#       8
#     8  16  16   8   4   8   8  16
#     4  10  20  35  62 101 131 180 232 274 326 397
#     4  12  26  47  67  99 144 179 220 295 350 389
#     4   9  19  36  63  95 134 170 223 278 335 398
#     4  10  18  37  60  93 135 176 226 284 320 393
#     4  12  24  46  72 102 142 190 246 260 314 410
#     4  12  24  43  70 101 139 188 231 281 336 392
#     4  12  26  43  66 105 141 184 235 283 328 394
#     4  11  25  46  76 102 130 176 227 275 351 427
#
# _framework density 20.923411000000002
#
# number of rings (size 3 to 8) (size 9 to 14) (size 15 to 20)
#    0.000    1.143    4.762    1.143    5.333    1.905 
#    0.000    5.714    0.000    0.000    0.000    0.000 
#    0.000    0.000    0.000    0.000    0.000    0.000 
#
# Total GULP energy -234235.498925 kJ/mol
# GULP energy per Si atom -5577.035689 kJ/mol
# Density = 2.087579 g / cm^3
# Si number density = 20.923411 Si / 1000 Ang^3
#
#
#
# Elastic Constant Matrix: (Units=GPa)
#
#
# Indices 1 2 3 4 5 6 
#
# 1 218.0430 25.0062 51.6232 0.0000 0.0000 0.0000
# 2 25.0062 38.2932 8.6409 0.0000 0.0000 0.0000
# 3 51.6232 8.6409 155.7258 0.0000 0.0000 0.0000
# 4 0.0000 0.0000 0.0000 -6.5664 0.0000 0.0000
# 5 0.0000 0.0000 0.0000 0.0000 1.7077 0.0000
# 6 0.0000 0.0000 0.0000 0.0000 0.0000 21.1530
#
#
#
# Elastic Compliance Matrix: (Units=1/GPa)
#
#
# Indices 1 2 3 4 5 6 
#
# 1 0.005320 -0.003115 -0.001591 0.000000 0.000000 0.000000
# 2 -0.003115 0.028270 -0.000536 0.000000 0.000000 0.000000
# 3 -0.001591 -0.000536 0.006979 0.000000 0.000000 0.000000
# 4 0.000000 0.000000 0.000000 -0.152290 0.000000 0.000000
# 5 0.000000 0.000000 0.000000 0.000000 0.585600 0.000000
# 6 0.000000 0.000000 0.000000 0.000000 0.000000 0.047275
#
#
# Mechanical properties :
#
#
# Convention : Reuss Voigt Hill
#
# Bulk Modulus (GPa) = 33.23972 64.73361 48.98667
# Shear Modulus (GPa) = 9.23081 25.04496 17.13789
#
# Velocity S-wave (km/s) = 2.10269 3.46350 2.86506
# Velocity P-wave (km/s) = 4.67075 6.85565 5.86583
#
# Compressibility (1/GPa) = 0.03008449
#
# Stress axis : x y z
#
# Youngs Moduli (GPa) = 187.96481 35.37378 143.29468
#
# Poissons Ratio (x) = 0.11020 0.22795
# Poissons Ratio (y) = 0.58555 0.07680
# Poissons Ratio (z) = 0.29901 0.01896
#
# Static dielectric constant tensor:
#      x y z
#    x 1.734660 0.000000 0.000000 
#    y 0.000000 1.765570 0.000000 
#    z 0.000000 0.000000 1.703720 
# 
# From -- ./inp_files/23814.got.cif
#   From: 2010.05.17/outbox.cif.g08.bks.cpg/sg63_12_cif.got.tgz:23814.got - 2010.06.03 15:47:04.
