data_PCOD9469922
_publ_section_title
;
Structure prediction by ZEFSAII (Michael W. Deem and Ramdas Pophale) SiO2 
 PCOD9469922
Probable space group: C M C M
;
_chemical_formula_sum "Si O2"
_cell_formula_units_Z 112
_cell_length_a 17.088962
_cell_length_b 28.395020
_cell_length_c 14.513904
_cell_angle_alpha 90.000000
_cell_angle_beta 90.000000
_cell_angle_gamma 90.000000
_cell_volume 7042.747354
_symmetry_space_group_name_H-M "C M C M"
_symmetry_group_IT_number 63
_symmetry_cell_setting 'orthorhombic'
loop_
_space_group_symop_operation_xyz
x,y,z
-x,-y,1/2+z
x,-y,-z
-x,y,1/2-z
-x,-y,-z
x,y,1/2-z
-x,y,z
x,-y,1/2+z
1/2+x,1/2+y,z
1/2-x,1/2-y,1/2+z
1/2+x,1/2-y,-z
1/2-x,1/2+y,1/2-z
1/2-x,1/2-y,-z
1/2+x,1/2+y,1/2-z
1/2-x,1/2+y,z
1/2+x,1/2-y,1/2+z
loop_
_atom_site_type_symbol
_atom_site_label
_atom_site_fract_x
_atom_site_fract_y
_atom_site_fract_z
Si Si1 0.910355 0.610116 0.956983
Si Si2 0.675625 0.746675 0.644270
Si Si3 0.590890 0.013796 0.642769
Si Si4 0.409673 0.285376 0.535685
Si Si5 0.846849 0.587986 0.355693
Si Si6 0.221524 0.162152 0.358087
Si Si7 0.842903 0.697456 0.642981
O O1 0.889215 0.558136 0.920137
O O2 0.857488 0.649662 0.911307
O O3 0.000000 0.618853 0.929654
O O4 0.901375 0.610233 0.066587
O O5 0.647208 0.745413 0.750000
O O6 0.615807 0.729814 0.567089
O O7 0.710311 0.798859 0.624914
O O8 0.753007 0.714127 0.637017
O O9 0.593783 0.028482 0.750000
O O10 0.500000 0.999858 0.623079
O O11 0.644843 0.968098 0.632357
O O12 0.500000 0.299136 0.539869
O O13 0.350366 0.324477 0.576575
O O14 0.393443 0.239242 0.598160
O O15 0.870062 0.598579 0.250000
O O16 0.761825 0.611454 0.369933
O O17 0.198946 0.168065 0.250000
O O18 0.863218 0.691691 0.750000
#
# Coordination Sequence:
#
# PCOD9469922 Si02
#       7
#    16  16  16  16  16  16  16
#     4  11  20  29  44  67  96 125 153 189 228 264
#     4   9  18  33  49  65  90 122 153 186 223 266
#     4   9  18  31  45  64  92 123 154 189 227 265
#     4  11  20  30  48  71  94 119 149 188 230 272
#     4  10  19  31  46  61  83 120 161 193 223 264
#     4   9  18  32  48  64  86 119 156 193 229 264
#     4  10  20  33  49  67  91 125 158 185 218 266
#
# _framework density 15.902884999999999
#
# number of rings (size 3 to 8) (size 9 to 14) (size 15 to 20)
#    0.000    2.143    0.000    6.429    0.000    4.857 
#    0.000    0.714    0.000    6.857    0.000    0.000 
#    0.000    9.143    0.000   22.286    0.000    0.857 
#
# Total GULP energy -312381.743710 kJ/mol
# GULP energy per Si atom -5578.245423 kJ/mol
# Density = 1.586669 g / cm^3
# Si number density = 15.902885 Si / 1000 Ang^3
#
#
#
# Elastic Constant Matrix: (Units=GPa)
#
#
# Indices 1 2 3 4 5 6 
#
# 1 47.1271 34.6029 26.3528 0.0000 0.0000 0.0000
# 2 34.6029 83.1221 37.3803 0.0000 0.0000 0.0000
# 3 26.3528 37.3803 83.3915 0.0000 0.0000 0.0000
# 4 0.0000 0.0000 0.0000 19.7144 0.0000 0.0000
# 5 0.0000 0.0000 0.0000 0.0000 5.7880 0.0000
# 6 0.0000 0.0000 0.0000 0.0000 0.0000 18.9584
#
#
#
# Elastic Compliance Matrix: (Units=1/GPa)
#
#
# Indices 1 2 3 4 5 6 
#
# 1 0.032286 -0.011087 -0.005233 0.000000 0.000000 0.000000
# 2 -0.011087 0.018875 -0.004957 0.000000 0.000000 0.000000
# 3 -0.005233 -0.004957 0.015867 0.000000 0.000000 0.000000
# 4 0.000000 0.000000 0.000000 0.050724 0.000000 0.000000
# 5 0.000000 0.000000 0.000000 0.000000 0.172773 0.000000
# 6 0.000000 0.000000 0.000000 0.000000 0.000000 0.052747
#
#
# Mechanical properties :
#
#
# Convention : Reuss Voigt Hill
#
# Bulk Modulus (GPa) = 40.85947 45.59031 43.22489
# Shear Modulus (GPa) = 12.69083 16.57913 14.63498
#
# Velocity S-wave (km/s) = 2.82799 3.23232 3.03689
# Velocity P-wave (km/s) = 6.03426 6.53151 6.28780
#
# Compressibility (1/GPa) = 0.02447413
#
# Stress axis : x y z
#
# Youngs Moduli (GPa) = 30.97307 52.97961 63.02231
#
# Poissons Ratio (x) = 0.58739 0.32980
# Poissons Ratio (y) = 0.34340 0.31241
# Poissons Ratio (z) = 0.16208 0.26263
#
# Static dielectric constant tensor:
#      x y z
#    x 1.511520 0.000000 0.000000 
#    y 0.000000 1.529860 0.000000 
#    z 0.000000 0.000000 1.571530 
# 
# From -- ./inp_files/32493.got.cif
#   From: 2010.05.17/outbox.cif.g08.bks.cpg/sg63_17_cif.got.tgz:32493.got - 2010.06.03 15:47:04.
