data_PCOD9469905
_publ_section_title
;
Structure prediction by ZEFSAII (Michael W. Deem and Ramdas Pophale) SiO2 
 PCOD9469905
Probable space group: C M C M
;
_chemical_formula_sum "Si O2"
_cell_formula_units_Z 104
_cell_length_a 18.938229
_cell_length_b 22.854993
_cell_length_c 13.554852
_cell_angle_alpha 90.000000
_cell_angle_beta 90.000000
_cell_angle_gamma 90.000000
_cell_volume 5866.988492
_symmetry_space_group_name_H-M "C M C M"
_symmetry_group_IT_number 63
_symmetry_cell_setting 'orthorhombic'
loop_
_space_group_symop_operation_xyz
x,y,z
-x,-y,1/2+z
x,-y,-z
-x,y,1/2-z
-x,-y,-z
x,y,1/2-z
-x,y,z
x,-y,1/2+z
1/2+x,1/2+y,z
1/2-x,1/2-y,1/2+z
1/2+x,1/2-y,-z
1/2-x,1/2+y,1/2-z
1/2-x,1/2-y,-z
1/2+x,1/2+y,1/2-z
1/2-x,1/2+y,z
1/2+x,1/2-y,1/2+z
loop_
_atom_site_type_symbol
_atom_site_label
_atom_site_fract_x
_atom_site_fract_y
_atom_site_fract_z
Si Si1 0.847657 0.205281 0.936055
Si Si2 0.500000 0.834502 0.370106
Si Si3 0.000000 0.901502 0.864470
Si Si4 0.000000 0.783703 0.504211
Si Si5 0.793666 0.081279 0.565582
Si Si6 0.287028 0.259836 0.859840
Si Si7 0.151645 0.372533 0.363907
Si Si8 0.347966 0.458074 0.862561
O O1 0.830452 0.140725 0.897242
O O2 0.796014 0.250833 0.881772
O O3 0.929569 0.219265 0.938977
O O4 0.822294 0.206004 0.050665
O O5 0.500000 0.828224 0.250000
O O6 0.500000 0.770421 0.419315
O O7 0.571367 0.868199 0.400067
O O8 0.000000 0.845239 0.935903
O O9 0.929873 0.940531 0.878642
O O10 0.000000 0.881234 0.750000
O O11 0.710302 0.088258 0.583928
O O12 0.806192 0.074201 0.449145
O O13 0.829479 0.026001 0.618423
O O14 0.300271 0.282767 0.750000
O O15 0.319840 0.194452 0.866371
O O16 0.150057 0.390940 0.250000
O O17 0.329851 0.442591 0.750000
#
# Coordination Sequence:
#
# PCOD9469905 Si02
#       8
#    16   8   8   8  16  16  16  16
#     4  10  20  31  49  78 102 141 177 210 266 308
#     4  10  19  30  51  81 112 141 167 209 269 311
#     4  10  21  34  50  75 107 141 182 222 261 303
#     4  12  19  31  49  78 114 139 174 220 255 310
#     4  10  20  34  53  74 103 136 175 219 260 309
#     4   9  18  33  50  71 105 139 177 217 252 309
#     4   9  17  31  52  79 106 135 171 210 260 316
#     4  10  21  36  53  75 102 138 181 222 266 310
#
# _framework density 17.726299999999998
#
# number of rings (size 3 to 8) (size 9 to 14) (size 15 to 20)
#    0.000    2.154    3.077    0.692    0.000    3.692 
#    0.000    0.385    0.000    1.846    0.000    1.615 
#    0.000    0.000    0.000    0.000    0.000    0.000 
#
# Total GULP energy -289939.144301 kJ/mol
# GULP energy per Si atom -5575.752775 kJ/mol
# Density = 1.768595 g / cm^3
# Si number density = 17.726300 Si / 1000 Ang^3
#
#
#
# Elastic Constant Matrix: (Units=GPa)
#
#
# Indices 1 2 3 4 5 6 
#
# 1 155.0641 15.8670 26.2431 0.0000 0.0000 0.0000
# 2 15.8670 33.1149 3.2045 0.0000 0.0000 0.0000
# 3 26.2431 3.2045 47.9343 0.0000 0.0000 0.0000
# 4 0.0000 0.0000 0.0000 12.6221 0.0000 0.0000
# 5 0.0000 0.0000 0.0000 0.0000 23.5217 0.0000
# 6 0.0000 0.0000 0.0000 0.0000 0.0000 20.6335
#
#
#
# Elastic Compliance Matrix: (Units=1/GPa)
#
#
# Indices 1 2 3 4 5 6 
#
# 1 0.007427 -0.003186 -0.003853 0.000000 0.000000 0.000000
# 2 -0.003186 0.031761 -0.000379 0.000000 0.000000 0.000000
# 3 -0.003853 -0.000379 0.022997 0.000000 0.000000 0.000000
# 4 0.000000 0.000000 0.000000 0.079226 0.000000 0.000000
# 5 0.000000 0.000000 0.000000 0.000000 0.042514 0.000000
# 6 0.000000 0.000000 0.000000 0.000000 0.000000 0.048465
#
#
# Mechanical properties :
#
#
# Convention : Reuss Voigt Hill
#
# Bulk Modulus (GPa) = 21.11990 36.30471 28.71231
# Shear Modulus (GPa) = 19.01076 24.07538 21.54307
#
# Velocity S-wave (km/s) = 3.27840 3.68934 3.48992
# Velocity P-wave (km/s) = 5.12551 6.21880 5.69843
#
# Compressibility (1/GPa) = 0.04734870
#
# Stress axis : x y z
#
# Youngs Moduli (GPa) = 134.64305 31.48508 43.48439
#
# Poissons Ratio (x) = 0.10031 0.16755
# Poissons Ratio (y) = 0.42895 0.01649
# Poissons Ratio (z) = 0.51880 0.01194
#
# Static dielectric constant tensor:
#      x y z
#    x 1.621100 0.000000 0.000000 
#    y 0.000000 1.609400 0.000000 
#    z 0.000000 0.000000 1.615340 
# 
# From -- ./inp_files/34379.got.cif
#   From: 2010.05.17/outbox.cif.g08.bks.cpg/sg63_18_cif.got.tgz:34379.got - 2010.06.03 15:47:04.
