data_PCOD9469380
_publ_section_title
;
Structure prediction by ZEFSAII (Michael W. Deem and Ramdas Pophale) SiO2 
 PCOD9469380
Probable space group: C M C M
;
_chemical_formula_sum "Si O2"
_cell_formula_units_Z 96
_cell_length_a 14.832791
_cell_length_b 14.343363
_cell_length_c 22.136681
_cell_angle_alpha 90.000000
_cell_angle_beta 90.000000
_cell_angle_gamma 90.000000
_cell_volume 4709.625494
_symmetry_space_group_name_H-M "C M C M"
_symmetry_group_IT_number 63
_symmetry_cell_setting 'orthorhombic'
loop_
_space_group_symop_operation_xyz
x,y,z
-x,-y,1/2+z
x,-y,-z
-x,y,1/2-z
-x,-y,-z
x,y,1/2-z
-x,y,z
x,-y,1/2+z
1/2+x,1/2+y,z
1/2-x,1/2-y,1/2+z
1/2+x,1/2-y,-z
1/2-x,1/2+y,1/2-z
1/2-x,1/2-y,-z
1/2+x,1/2+y,1/2-z
1/2-x,1/2+y,z
1/2+x,1/2-y,1/2+z
loop_
_atom_site_type_symbol
_atom_site_label
_atom_site_fract_x
_atom_site_fract_y
_atom_site_fract_z
Si Si1 0.148547 0.107314 0.816049
Si Si2 0.849591 0.063095 0.947769
Si Si3 0.392227 0.820428 0.844386
Si Si4 0.141157 0.439790 0.055269
Si Si5 0.393370 0.232527 0.020082
Si Si6 0.849342 0.522395 0.814782
O O1 0.110381 0.080090 0.750000
O O2 0.110024 0.068435 0.879933
O O3 0.139685 0.219334 0.821613
O O4 0.252422 0.073658 0.815503
O O5 0.746099 0.030917 0.940004
O O6 0.847649 0.167626 0.973921
O O7 0.892282 0.000000 0.000000
O O8 0.500000 0.828134 0.832840
O O9 0.377091 0.820058 0.916546
O O10 0.342857 0.909947 0.817571
O O11 0.103009 0.452540 0.122174
O O12 0.101193 0.500000 0.000000
O O13 0.135390 0.333146 0.034328
O O14 0.500000 0.249591 0.016201
O O15 0.891994 0.546272 0.750000
#
# Coordination Sequence:
#
# PCOD9469380 Si02
#       6
#    16  16  16  16  16  16
#     4   9  19  35  53  80 112 142 178 225 278 327
#     4   9  19  34  54  78 102 136 179 222 264 317
#     4  10  20  35  58  86 111 138 181 233 279 322
#     4  10  18  33  53  76 103 137 174 215 264 320
#     4  10  20  33  53  79 105 137 173 219 272 319
#     4  10  20  34  52  80 112 144 181 224 273 326
#
# _framework density 20.383786000000001
#
# number of rings (size 3 to 8) (size 9 to 14) (size 15 to 20)
#    0.000    2.333    1.667    1.000    0.000    2.667 
#    0.000    0.000    0.000    0.000    0.000    0.000 
#    0.000    0.000    0.000    0.000    0.000    0.000 
#
# Total GULP energy -267478.999721 kJ/mol
# GULP energy per Si atom -5572.479161 kJ/mol
# Density = 2.033739 g / cm^3
# Si number density = 20.383786 Si / 1000 Ang^3
#
#
#
# Elastic Constant Matrix: (Units=GPa)
#
#
# Indices 1 2 3 4 5 6 
#
# 1 68.7521 21.5305 8.4066 0.0000 0.0000 0.0000
# 2 21.5305 79.5887 57.9552 0.0000 0.0000 0.0000
# 3 8.4066 57.9552 219.6916 0.0000 0.0000 0.0000
# 4 0.0000 0.0000 0.0000 -4.5076 0.0000 0.0000
# 5 0.0000 0.0000 0.0000 0.0000 49.7831 0.0000
# 6 0.0000 0.0000 0.0000 0.0000 0.0000 966.9577
#
#
#
# Elastic Compliance Matrix: (Units=1/GPa)
#
#
# Indices 1 2 3 4 5 6 
#
# 1 0.015967 -0.004796 0.000654 0.000000 0.000000 0.000000
# 2 -0.004796 0.016993 -0.004299 0.000000 0.000000 0.000000
# 3 0.000654 -0.004299 0.005661 0.000000 0.000000 0.000000
# 4 0.000000 0.000000 0.000000 -0.221846 0.000000 0.000000
# 5 0.000000 0.000000 0.000000 0.000000 0.020087 0.000000
# 6 0.000000 0.000000 0.000000 0.000000 0.000000 0.001034
#
#
# Mechanical properties :
#
#
# Convention : Reuss Voigt Hill
#
# Bulk Modulus (GPa) = 46.00065 60.42414 53.21239
# Shear Modulus (GPa) = -36.23790 221.12263 92.44237
#
# Velocity S-wave (km/s) = -4.22095 10.42666 6.74162
# Velocity P-wave (km/s) = 1.06721 13.21594 9.31456
#
# Compressibility (1/GPa) = 0.02173882
#
# Stress axis : x y z
#
# Youngs Moduli (GPa) = 62.62972 58.84941 176.64924
#
# Poissons Ratio (x) = 0.28223 -0.11555
# Poissons Ratio (y) = 0.30036 0.75944
# Poissons Ratio (z) = -0.04097 0.25300
#
# Static dielectric constant tensor:
#      x y z
#    x 1.714100 0.000000 0.000000 
#    y 0.000000 1.701680 0.000000 
#    z 0.000000 0.000000 1.755750 
# 
# From -- ./inp_files/64562.got.cif
#   From: 2010.05.17/outbox.cif.g08.bks.cpg/sg63_33_cif.got.tgz:64562.got - 2010.06.03 15:47:04.
