data_PCOD9469777
_publ_section_title
;
Structure prediction by ZEFSAII (Michael W. Deem and Ramdas Pophale) SiO2 
 PCOD9469777
Probable space group: C M C M
;
_chemical_formula_sum "Si O2"
_cell_formula_units_Z 96
_cell_length_a 7.976563
_cell_length_b 24.311242
_cell_length_c 26.444407
_cell_angle_alpha 90.000000
_cell_angle_beta 90.000000
_cell_angle_gamma 90.000000
_cell_volume 5128.103463
_symmetry_space_group_name_H-M "C M C M"
_symmetry_group_IT_number 63
_symmetry_cell_setting 'orthorhombic'
loop_
_space_group_symop_operation_xyz
x,y,z
-x,-y,1/2+z
x,-y,-z
-x,y,1/2-z
-x,-y,-z
x,y,1/2-z
-x,y,z
x,-y,1/2+z
1/2+x,1/2+y,z
1/2-x,1/2-y,1/2+z
1/2+x,1/2-y,-z
1/2-x,1/2+y,1/2-z
1/2-x,1/2-y,-z
1/2+x,1/2+y,1/2-z
1/2-x,1/2+y,z
1/2+x,1/2-y,1/2+z
loop_
_atom_site_type_symbol
_atom_site_label
_atom_site_fract_x
_atom_site_fract_y
_atom_site_fract_z
Si Si1 0.198824 0.387664 0.092729
Si Si2 0.300844 0.686656 0.499060
Si Si3 0.794914 0.939781 0.692038
Si Si4 0.201897 0.933517 0.307684
Si Si5 0.693186 0.995171 0.940274
Si Si6 0.192132 0.881300 0.596036
O O1 0.239864 0.387792 0.152208
O O2 0.269324 0.447361 0.077471
O O3 0.000000 0.390599 0.087067
O O4 0.255056 0.343072 0.051814
O O5 0.500000 0.682475 0.495012
O O6 0.250000 0.750000 0.500000
O O7 0.230136 0.656506 0.448298
O O8 0.747110 0.928662 0.750000
O O9 0.733991 0.894307 0.651731
O O10 0.000000 0.939821 0.689801
O O11 0.742240 0.003164 0.680040
O O12 0.256049 0.922536 0.250000
O O13 0.000000 0.934428 0.308380
O O14 0.500000 0.987581 0.921687
O O15 0.801439 0.942758 0.926366
O O16 0.682462 0.000000 0.000000
O O17 0.000000 0.862803 0.603607
#
# Coordination Sequence:
#
# PCOD9469777 Si02
#       6
#    16  16  16  16  16  16
#     4  11  21  33  52  77 108 142 174 213 259 314
#     4  11  24  39  55  75  99 134 179 227 275 321
#     4   8  14  26  46  74 107 137 164 200 247 301
#     4   9  17  30  50  77 110 145 175 205 250 307
#     4  10  19  30  45  72 108 140 165 199 259 315
#     4  10  19  31  52  77 101 132 173 213 252 312
#
# _framework density 18.720372000000001
#
# number of rings (size 3 to 8) (size 9 to 14) (size 15 to 20)
#    0.000    2.167    3.333    2.000    0.000    2.000 
#    0.000    0.000    0.000    1.500    0.000    2.333 
#    0.000    0.000    0.000    0.000    0.000    0.000 
#
# Total GULP energy -267274.511154 kJ/mol
# GULP energy per Si atom -5568.218982 kJ/mol
# Density = 1.867776 g / cm^3
# Si number density = 18.720372 Si / 1000 Ang^3
#
#
#
# Elastic Constant Matrix: (Units=GPa)
#
#
# Indices 1 2 3 4 5 6 
#
# 1 22.5912 4.1877 9.8190 0.0000 0.0000 0.0000
# 2 4.1877 98.4918 72.7662 0.0000 0.0000 0.0000
# 3 9.8190 72.7662 168.4589 0.0000 0.0000 0.0000
# 4 0.0000 0.0000 0.0000 12.3068 0.0000 0.0000
# 5 0.0000 0.0000 0.0000 0.0000 11.8016 0.0000
# 6 0.0000 0.0000 0.0000 0.0000 0.0000 -8.6405
#
#
#
# Elastic Compliance Matrix: (Units=1/GPa)
#
#
# Indices 1 2 3 4 5 6 
#
# 1 0.045416 0.000036 -0.002663 0.000000 0.000000 0.000000
# 2 0.000036 0.014912 -0.006443 0.000000 0.000000 0.000000
# 3 -0.002663 -0.006443 0.008875 0.000000 0.000000 0.000000
# 4 0.000000 0.000000 0.000000 0.081256 0.000000 0.000000
# 5 0.000000 0.000000 0.000000 0.000000 0.084734 0.000000
# 6 0.000000 0.000000 0.000000 0.000000 0.000000 -0.115735
#
#
# Mechanical properties :
#
#
# Convention : Reuss Voigt Hill
#
# Bulk Modulus (GPa) = 19.58387 51.45420 35.51904
# Shear Modulus (GPa) = 32.33777 16.61153 24.47465
#
# Velocity S-wave (km/s) = 4.16072 2.98207 3.61969
# Velocity P-wave (km/s) = 5.79363 6.27713 6.04022
#
# Compressibility (1/GPa) = 0.05106243
#
# Stress axis : x y z
#
# Youngs Moduli (GPa) = 22.01885 67.06012 112.68102
#
# Poissons Ratio (x) = -0.00244 0.30005
# Poissons Ratio (y) = -0.00080 0.72605
# Poissons Ratio (z) = 0.05863 0.43209
#
# Static dielectric constant tensor:
#      x y z
#    x 1.686620 0.000000 0.000000 
#    y 0.000000 1.536720 0.000000 
#    z 0.000000 0.000000 1.750520 
# 
# From -- ./inp_files/67246.got.cif
#   From: 2010.05.17/outbox.cif.g08.bks.cpg/sg63_34_cif.got.tgz:67246.got - 2010.06.03 15:47:04.
