data_PCOD9469562
_publ_section_title
;
Structure prediction by ZEFSAII (Michael W. Deem and Ramdas Pophale) SiO2 
 PCOD9469562
Probable space group: C M C M
;
_chemical_formula_sum "Si O2"
_cell_formula_units_Z 88
_cell_length_a 28.335600
_cell_length_b 20.038932
_cell_length_c 8.656508
_cell_angle_alpha 90.000000
_cell_angle_beta 90.000000
_cell_angle_gamma 90.000000
_cell_volume 4915.296489
_symmetry_space_group_name_H-M "C M C M"
_symmetry_group_IT_number 63
_symmetry_cell_setting 'orthorhombic'
loop_
_space_group_symop_operation_xyz
x,y,z
-x,-y,1/2+z
x,-y,-z
-x,y,1/2-z
-x,-y,-z
x,y,1/2-z
-x,y,z
x,-y,1/2+z
1/2+x,1/2+y,z
1/2-x,1/2-y,1/2+z
1/2+x,1/2-y,-z
1/2-x,1/2+y,1/2-z
1/2-x,1/2-y,-z
1/2+x,1/2+y,1/2-z
1/2-x,1/2+y,z
1/2+x,1/2-y,1/2+z
loop_
_atom_site_type_symbol
_atom_site_label
_atom_site_fract_x
_atom_site_fract_y
_atom_site_fract_z
Si Si1 0.129904 0.072932 0.434825
Si Si2 0.185581 0.697662 0.936179
Si Si3 0.210882 0.157947 0.565593
Si Si4 0.581306 0.168173 0.563451
Si Si5 0.500000 0.074509 0.066339
Si Si6 0.553185 0.681166 0.437993
O O1 0.128527 0.071134 0.250000
O O2 0.180525 0.100052 0.489042
O O3 0.091218 0.127009 0.490534
O O4 0.120258 0.000000 0.500000
O O5 0.185015 0.706956 0.750000
O O6 0.233698 0.659287 0.977269
O O7 0.136550 0.662503 0.978752
O O8 0.189864 0.770983 0.010141
O O9 0.207293 0.153438 0.750000
O O10 0.577191 0.163672 0.750000
O O11 0.545952 0.115097 0.491123
O O12 0.566096 0.243306 0.517113
O O13 0.500000 0.071880 0.250000
O O14 0.500000 0.000000 0.000000
O O15 0.554060 0.680535 0.250000
O O16 0.500000 0.665313 0.487951
#
# Coordination Sequence:
#
# PCOD9469562 Si02
#       6
#    16  16  16  16   8  16
#     4  11  22  37  55  78 112 154 196 237 289 345
#     4   9  18  33  56  85 114 147 186 230 281 335
#     4  10  19  32  53  83 116 147 187 235 283 334
#     4  10  18  36  63  87 113 149 188 230 281 339
#     4  12  26  42  60  88 119 150 185 228 285 345
#     4   9  17  32  57  83 108 144 189 229 278 335
#
# _framework density 17.903295
#
# number of rings (size 3 to 8) (size 9 to 14) (size 15 to 20)
#    0.000    2.000    2.727    1.909    0.000    1.818 
#    0.000    0.909    0.000    0.000    0.000    0.000 
#    0.000    0.000    0.000    0.000    0.000    0.000 
#
# Total GULP energy -245574.569226 kJ/mol
# GULP energy per Si atom -5581.240210 kJ/mol
# Density = 1.786255 g / cm^3
# Si number density = 17.903295 Si / 1000 Ang^3
#
#
#
# Elastic Constant Matrix: (Units=GPa)
#
#
# Indices 1 2 3 4 5 6 
#
# 1 161.0434 84.4474 44.4083 0.0000 0.0000 0.0000
# 2 84.4474 138.5928 38.6287 0.0000 0.0000 0.0000
# 3 44.4083 38.6287 37.0207 0.0000 0.0000 0.0000
# 4 0.0000 0.0000 0.0000 29.5416 0.0000 0.0000
# 5 0.0000 0.0000 0.0000 0.0000 22.7259 0.0000
# 6 0.0000 0.0000 0.0000 0.0000 0.0000 24.8792
#
#
#
# Elastic Compliance Matrix: (Units=1/GPa)
#
#
# Indices 1 2 3 4 5 6 
#
# 1 0.010753 -0.004169 -0.008548 0.000000 0.000000 0.000000
# 2 -0.004169 0.011791 -0.007302 0.000000 0.000000 0.000000
# 3 -0.008548 -0.007302 0.044885 0.000000 0.000000 0.000000
# 4 0.000000 0.000000 0.000000 0.033851 0.000000 0.000000
# 5 0.000000 0.000000 0.000000 0.000000 0.044003 0.000000
# 6 0.000000 0.000000 0.000000 0.000000 0.000000 0.040194
#
#
# Mechanical properties :
#
#
# Convention : Reuss Voigt Hill
#
# Bulk Modulus (GPa) = 36.50956 74.62507 55.56731
# Shear Modulus (GPa) = 21.30872 26.70752 24.00812
#
# Velocity S-wave (km/s) = 3.45369 3.86653 3.66592
# Velocity P-wave (km/s) = 6.02834 7.85533 7.00168
#
# Compressibility (1/GPa) = 0.02739009
#
# Stress axis : x y z
#
# Youngs Moduli (GPa) = 92.99617 84.80994 22.27916
#
# Poissons Ratio (x) = 0.35361 0.19045
# Poissons Ratio (y) = 0.38775 0.16268
# Poissons Ratio (z) = 0.79496 0.61926
#
# Static dielectric constant tensor:
#      x y z
#    x 1.637200 0.000000 0.000000 
#    y 0.000000 1.576080 0.000000 
#    z 0.000000 0.000000 1.608150 
# 
# From -- ./inp_files/14212.got.cif
#   From: 2010.05.17/outbox.cif.g08.bks.cpg/sg63_8_cif.got.tgz:14212.got - 2010.06.03 15:47:04.
