data_PCOD9469019
_publ_section_title
;
Structure prediction by ZEFSAII (Michael W. Deem and Ramdas Pophale) SiO2 
 PCOD9469019
Probable space group: C M C M
;
_chemical_formula_sum "Si O2"
_cell_formula_units_Z 72
_cell_length_a 14.136847
_cell_length_b 32.099949
_cell_length_c 8.382311
_cell_angle_alpha 90.000000
_cell_angle_beta 90.000000
_cell_angle_gamma 90.000000
_cell_volume 3803.826241
_symmetry_space_group_name_H-M "C M C M"
_symmetry_group_IT_number 63
_symmetry_cell_setting 'orthorhombic'
loop_
_space_group_symop_operation_xyz
x,y,z
-x,-y,1/2+z
x,-y,-z
-x,y,1/2-z
-x,-y,-z
x,y,1/2-z
-x,y,z
x,-y,1/2+z
1/2+x,1/2+y,z
1/2-x,1/2-y,1/2+z
1/2+x,1/2-y,-z
1/2-x,1/2+y,1/2-z
1/2-x,1/2-y,-z
1/2+x,1/2+y,1/2-z
1/2-x,1/2+y,z
1/2+x,1/2-y,1/2+z
loop_
_atom_site_type_symbol
_atom_site_label
_atom_site_fract_x
_atom_site_fract_y
_atom_site_fract_z
Si Si1 0.163086 0.299438 0.250000
Si Si2 0.500000 0.267565 0.750000
Si Si3 0.500000 0.869794 0.250000
Si Si4 0.795693 0.670546 0.424549
Si Si5 0.000000 0.047091 0.557112
Si Si6 0.500000 0.319360 0.075379
Si Si7 0.159852 0.889881 0.066313
Si Si8 0.000000 0.367616 0.583401
O O1 0.092816 0.261002 0.250000
O O2 0.220588 0.302416 0.415574
O O3 0.092881 0.339992 0.250000
O O4 0.500000 0.292866 0.584899
O O5 0.500000 0.892688 0.418504
O O6 0.765409 0.686785 0.250000
O O7 0.745019 0.626250 0.458283
O O8 0.907628 0.661621 0.417578
O O9 0.094481 0.072210 0.506716
O O10 0.000000 0.049373 0.750000
O O11 0.000000 0.000000 0.500000
O O12 0.500000 0.297540 0.250000
O O13 0.589034 0.350453 0.070934
O O14 0.190624 0.897765 0.250000
O O15 0.000000 0.391628 0.750000
#
# Coordination Sequence:
#
# PCOD9469019 Si02
#       8
#     8   4   4  16   8   8  16   8
#     4   9  18  32  46  71  99 126 170 237 270 315
#     4  11  22  36  58  74  98 144 190 232 294 326
#     4   7  12  24  42  56  84 122 148 192 274 298
#     4  10  18  30  53  77 103 138 181 223 277 324
#     4   9  19  35  57  88 122 148 176 220 267 315
#     4   9  21  38  55  71 101 142 187 226 277 339
#     4   9  18  36  57  77 109 148 178 225 271 322
#     4   8  15  25  39  70 100 122 163 219 257 305
#
# _framework density 18.928308999999999
#
# number of rings (size 3 to 8) (size 9 to 14) (size 15 to 20)
#    0.000    2.889    1.111    2.000    1.556    1.778 
#    2.000    2.222    0.000    0.000    0.000    0.778 
#    0.000    0.000    0.000    0.000    0.000    0.000 
#
# Total GULP energy -200408.590401 kJ/mol
# GULP energy per Si atom -5566.905289 kJ/mol
# Density = 1.888523 g / cm^3
# Si number density = 18.928309 Si / 1000 Ang^3
#
#
#
# Elastic Constant Matrix: (Units=GPa)
#
#
# Indices 1 2 3 4 5 6 
#
# 1 43.4656 16.8792 7.1208 0.0000 0.0000 0.0000
# 2 16.8792 67.8065 41.3561 0.0000 0.0000 0.0000
# 3 7.1208 41.3561 180.8901 0.0000 0.0000 0.0000
# 4 0.0000 0.0000 0.0000 21.2135 0.0000 0.0000
# 5 0.0000 0.0000 0.0000 0.0000 2.4639 0.0000
# 6 0.0000 0.0000 0.0000 0.0000 0.0000 -18.1562
#
#
#
# Elastic Compliance Matrix: (Units=1/GPa)
#
#
# Indices 1 2 3 4 5 6 
#
# 1 0.025511 -0.006668 0.000520 0.000000 0.000000 0.000000
# 2 -0.006668 0.018880 -0.004054 0.000000 0.000000 0.000000
# 3 0.000520 -0.004054 0.006435 0.000000 0.000000 0.000000
# 4 0.000000 0.000000 0.000000 0.047140 0.000000 0.000000
# 5 0.000000 0.000000 0.000000 0.000000 0.405861 0.000000
# 6 0.000000 0.000000 0.000000 0.000000 0.000000 -0.055078
#
#
# Mechanical properties :
#
#
# Convention : Reuss Voigt Hill
#
# Bulk Modulus (GPa) = 32.87040 46.98603 39.92821
# Shear Modulus (GPa) = 10.43203 16.22464 13.32834
#
# Velocity S-wave (km/s) = 2.35017 2.93091 2.65646
# Velocity P-wave (km/s) = 4.97673 6.02749 5.52714
#
# Compressibility (1/GPa) = 0.03042251
#
# Stress axis : x y z
#
# Youngs Moduli (GPa) = 39.19913 52.96534 155.40983
#
# Poissons Ratio (x) = 0.35316 -0.08084
# Poissons Ratio (y) = 0.26137 0.63004
# Poissons Ratio (z) = -0.02039 0.21472
#
# Static dielectric constant tensor:
#      x y z
#    x 1.704410 0.000000 0.000000 
#    y 0.000000 1.604030 0.000000 
#    z 0.000000 0.000000 1.799420 
# 
# From -- ./inp_files/4785.got.cif
#   From: 2010.05.17/outbox.cif.g08.bks.cpg/sg63_3_cif.got.tgz:4785.got - 2010.06.03 15:47:04.
