data_PCOD9469398
_publ_section_title
;
Structure prediction by ZEFSAII (Michael W. Deem and Ramdas Pophale) SiO2 
 PCOD9469398
Probable space group: C M C M
;
_chemical_formula_sum "Si O2"
_cell_formula_units_Z 88
_cell_length_a 23.341836
_cell_length_b 25.524897
_cell_length_c 8.254893
_cell_angle_alpha 90.000000
_cell_angle_beta 90.000000
_cell_angle_gamma 90.000000
_cell_volume 4918.248407
_symmetry_space_group_name_H-M "C M C M"
_symmetry_group_IT_number 63
_symmetry_cell_setting 'orthorhombic'
loop_
_space_group_symop_operation_xyz
x,y,z
-x,-y,1/2+z
x,-y,-z
-x,y,1/2-z
-x,-y,-z
x,y,1/2-z
-x,y,z
x,-y,1/2+z
1/2+x,1/2+y,z
1/2-x,1/2-y,1/2+z
1/2+x,1/2-y,-z
1/2-x,1/2+y,1/2-z
1/2-x,1/2-y,-z
1/2+x,1/2+y,1/2-z
1/2-x,1/2+y,z
1/2+x,1/2-y,1/2+z
loop_
_atom_site_type_symbol
_atom_site_label
_atom_site_fract_x
_atom_site_fract_y
_atom_site_fract_z
Si Si1 0.389221 0.374417 0.946151
Si Si2 0.500000 0.560218 0.942986
Si Si3 0.782402 0.058614 0.054212
Si Si4 0.433233 0.735623 0.447066
Si Si5 0.847718 0.441622 0.556639
Si Si6 0.934053 0.352461 0.054511
O O1 0.387952 0.373340 0.750000
O O2 0.443672 0.409431 0.995107
O O3 0.330524 0.401053 0.003680
O O4 0.398377 0.314828 0.004255
O O5 0.500000 0.438903 0.250000
O O6 0.500000 0.500000 0.000000
O O7 0.782024 0.059820 0.250000
O O8 0.717396 0.069024 0.997067
O O9 0.797985 0.000000 0.000000
O O10 0.430985 0.735734 0.250000
O O11 0.500000 0.728105 0.490878
O O12 0.415964 0.793946 0.500876
O O13 0.863901 0.500000 0.500000
O O14 0.846377 0.441815 0.750000
O O15 0.891823 0.397729 0.500649
O O16 0.934562 0.351914 0.250000
O O17 0.000000 0.361081 0.001303
#
# Coordination Sequence:
#
# PCOD9469398 Si02
#       6
#    16   8  16  16  16  16
#     4  10  18  33  55  75  98 133 175 213 253 298
#     4  12  24  34  46  72 106 136 171 218 263 302
#     4   9  19  33  51  73  98 132 171 211 252 303
#     4   8  14  28  52  76  98 130 171 206 242 296
#     4  10  20  35  53  75 103 133 166 205 255 306
#     4   9  18  33  54  79 103 130 168 206 243 299
#
# _framework density 17.892548999999999
#
# number of rings (size 3 to 8) (size 9 to 14) (size 15 to 20)
#    0.000    2.545    0.909    3.000    0.000    3.636 
#    0.000    1.818    0.000    0.000    0.000    0.000 
#    0.000    0.000    0.000    0.000    0.000    0.000 
#
# Total GULP energy -245363.791311 kJ/mol
# GULP energy per Si atom -5576.449803 kJ/mol
# Density = 1.785183 g / cm^3
# Si number density = 17.892549 Si / 1000 Ang^3
#
#
#
# Elastic Constant Matrix: (Units=GPa)
#
#
# Indices 1 2 3 4 5 6 
#
# 1 111.6841 124.0932 14.7091 0.0000 0.0000 0.0000
# 2 124.0932 202.6266 18.2525 0.0000 0.0000 0.0000
# 3 14.7091 18.2525 13.0582 0.0000 0.0000 0.0000
# 4 0.0000 0.0000 0.0000 19.5060 0.0000 0.0000
# 5 0.0000 0.0000 0.0000 0.0000 14.3299 0.0000
# 6 0.0000 0.0000 0.0000 0.0000 0.0000 26.5528
#
#
#
# Elastic Compliance Matrix: (Units=1/GPa)
#
#
# Indices 1 2 3 4 5 6 
#
# 1 0.028906 -0.016897 -0.008942 0.000000 0.000000 0.000000
# 2 -0.016897 0.015524 -0.002665 0.000000 0.000000 0.000000
# 3 -0.008942 -0.002665 0.090378 0.000000 0.000000 0.000000
# 4 0.000000 0.000000 0.000000 0.051266 0.000000 0.000000
# 5 0.000000 0.000000 0.000000 0.000000 0.069784 0.000000
# 6 0.000000 0.000000 0.000000 0.000000 0.000000 0.037661
#
#
# Mechanical properties :
#
#
# Convention : Reuss Voigt Hill
#
# Bulk Modulus (GPa) = 12.85361 71.27539 42.06450
# Shear Modulus (GPa) = 13.28159 23.43202 18.35680
#
# Velocity S-wave (km/s) = 2.72747 3.62276 3.20652
# Velocity P-wave (km/s) = 4.13741 7.57766 6.10488
#
# Compressibility (1/GPa) = 0.07779917
#
# Stress axis : x y z
#
# Youngs Moduli (GPa) = 34.59435 64.41780 11.06466
#
# Poissons Ratio (x) = 1.08850 0.09894
# Poissons Ratio (y) = 0.58456 0.02949
# Poissons Ratio (z) = 0.30934 0.17167
#
# Static dielectric constant tensor:
#      x y z
#    x 1.605510 0.000000 0.000000 
#    y 0.000000 1.609100 0.000000 
#    z 0.000000 0.000000 1.620260 
# 
# From -- ./inp_files/10235.got.cif
#   From: 2010.05.17/outbox.cif.g08.bks.cpg/sg63_6_cif.got.tgz:10235.got - 2010.06.03 15:47:04.
