data_PCOD9469328
_publ_section_title
;
Structure prediction by ZEFSAII (Michael W. Deem and Ramdas Pophale) SiO2 
 PCOD9469328
Probable space group: C M C M
;
_chemical_formula_sum "Si O2"
_cell_formula_units_Z 80
_cell_length_a 20.764000
_cell_length_b 12.345537
_cell_length_c 18.955505
_cell_angle_alpha 90.000000
_cell_angle_beta 90.000000
_cell_angle_gamma 90.000000
_cell_volume 4859.105905
_symmetry_space_group_name_H-M "C M C M"
_symmetry_group_IT_number 63
_symmetry_cell_setting 'orthorhombic'
loop_
_space_group_symop_operation_xyz
x,y,z
-x,-y,1/2+z
x,-y,-z
-x,y,1/2-z
-x,-y,-z
x,y,1/2-z
-x,y,z
x,-y,1/2+z
1/2+x,1/2+y,z
1/2-x,1/2-y,1/2+z
1/2+x,1/2-y,-z
1/2-x,1/2+y,1/2-z
1/2-x,1/2-y,-z
1/2+x,1/2+y,1/2-z
1/2-x,1/2+y,z
1/2+x,1/2-y,1/2+z
loop_
_atom_site_type_symbol
_atom_site_label
_atom_site_fract_x
_atom_site_fract_y
_atom_site_fract_z
Si Si1 0.192485 0.461152 0.832695
Si Si2 0.657996 0.393110 0.832442
Si Si3 0.664603 0.762302 0.925465
Si Si4 0.810768 0.680036 0.583708
Si Si5 0.076440 0.945014 0.076054
O O1 0.177714 0.473242 0.750000
O O2 0.269514 0.440592 0.839448
O O3 0.160080 0.355398 0.866862
O O4 0.176058 0.568251 0.876635
O O5 0.645776 0.374463 0.750000
O O6 0.657723 0.280949 0.875310
O O7 0.608806 0.477854 0.865937
O O8 0.733740 0.702592 0.916198
O O9 0.609995 0.671821 0.921668
O O10 0.667028 0.817004 0.002684
O O11 0.000000 0.937553 0.085064
O O12 0.090026 0.000000 0.000000
#
# Coordination Sequence:
#
# PCOD9469328 Si02
#       5
#    16  16  16  16  16
#     4  10  20  32  52  83 115 142 173 225 281 328
#     4  10  20  33  52  80 111 143 180 220 274 327
#     4  10  20  32  55  81 107 144 186 219 272 330
#     4  10  18  32  55  79 113 140 174 228 278 326
#     4  11  22  38  57  77 109 146 183 226 267 322
#
# _framework density 16.463934999999999
#
# number of rings (size 3 to 8) (size 9 to 14) (size 15 to 20)
#    0.000    1.800    4.000    1.200    0.000    2.000 
#    0.000    0.000    0.000    3.600    0.000    0.000 
#    0.000    0.000    0.000    0.000    0.000    0.000 
#
# Total GULP energy -223275.443095 kJ/mol
# GULP energy per Si atom -5581.886077 kJ/mol
# Density = 1.642646 g / cm^3
# Si number density = 16.463935 Si / 1000 Ang^3
#
#
#
# Elastic Constant Matrix: (Units=GPa)
#
#
# Indices 1 2 3 4 5 6 
#
# 1 48.2379 43.5522 34.9254 0.0000 0.0000 0.0000
# 2 43.5522 115.3340 51.8223 0.0000 0.0000 0.0000
# 3 34.9254 51.8223 92.6730 0.0000 0.0000 0.0000
# 4 0.0000 0.0000 0.0000 29.4698 0.0000 0.0000
# 5 0.0000 0.0000 0.0000 0.0000 14.3004 0.0000
# 6 0.0000 0.0000 0.0000 0.0000 0.0000 20.9356
#
#
#
# Elastic Compliance Matrix: (Units=1/GPa)
#
#
# Indices 1 2 3 4 5 6 
#
# 1 0.035220 -0.009797 -0.007795 0.000000 0.000000 0.000000
# 2 -0.009797 0.014305 -0.004307 0.000000 0.000000 0.000000
# 3 -0.007795 -0.004307 0.016137 0.000000 0.000000 0.000000
# 4 0.000000 0.000000 0.000000 0.033933 0.000000 0.000000
# 5 0.000000 0.000000 0.000000 0.000000 0.069928 0.000000
# 6 0.000000 0.000000 0.000000 0.000000 0.000000 0.047766
#
#
# Mechanical properties :
#
#
# Convention : Reuss Voigt Hill
#
# Bulk Modulus (GPa) = 45.73801 57.42718 51.58260
# Shear Modulus (GPa) = 18.63066 21.33749 19.98407
#
# Velocity S-wave (km/s) = 3.36758 3.60392 3.48776
# Velocity P-wave (km/s) = 6.55453 7.23008 6.90057
#
# Compressibility (1/GPa) = 0.02186365
#
# Stress axis : x y z
#
# Youngs Moduli (GPa) = 28.39324 69.90339 61.97039
#
# Poissons Ratio (x) = 0.68486 0.48303
# Poissons Ratio (y) = 0.27818 0.26692
# Poissons Ratio (z) = 0.22131 0.30109
#
# Static dielectric constant tensor:
#      x y z
#    x 1.524340 0.000000 0.000000 
#    y 0.000000 1.532390 0.000000 
#    z 0.000000 0.000000 1.549530 
# 
# From -- ./inp_files/36492.got.cif
#   From: 2010.05.17/outbox.cif.g08.bks.cpg/sg63_19_cif.got.tgz:36492.got - 2010.06.03 15:47:04.
