data_PCOD9469472
_publ_section_title
;
Structure prediction by ZEFSAII (Michael W. Deem and Ramdas Pophale) SiO2 
 PCOD9469472
Probable space group: C M C M
;
_chemical_formula_sum "Si O2"
_cell_formula_units_Z 80
_cell_length_a 14.230032
_cell_length_b 18.236238
_cell_length_c 18.295222
_cell_angle_alpha 90.000000
_cell_angle_beta 90.000000
_cell_angle_gamma 90.000000
_cell_volume 4747.651279
_symmetry_space_group_name_H-M "C M C M"
_symmetry_group_IT_number 63
_symmetry_cell_setting 'orthorhombic'
loop_
_space_group_symop_operation_xyz
x,y,z
-x,-y,1/2+z
x,-y,-z
-x,y,1/2-z
-x,-y,-z
x,y,1/2-z
-x,y,z
x,-y,1/2+z
1/2+x,1/2+y,z
1/2-x,1/2-y,1/2+z
1/2+x,1/2-y,-z
1/2-x,1/2+y,1/2-z
1/2-x,1/2-y,-z
1/2+x,1/2+y,1/2-z
1/2-x,1/2+y,z
1/2+x,1/2-y,1/2+z
loop_
_atom_site_type_symbol
_atom_site_label
_atom_site_fract_x
_atom_site_fract_y
_atom_site_fract_z
Si Si1 0.108440 0.970001 0.579720
Si Si2 0.280504 0.972372 0.164025
Si Si3 0.609157 0.306725 0.528284
Si Si4 0.712261 0.164008 0.558611
Si Si5 0.893390 0.568296 0.443484
O O1 0.112890 0.882251 0.573800
O O2 0.000000 0.992525 0.588718
O O3 0.140976 0.000000 0.500000
O O4 0.176279 0.002401 0.640272
O O5 0.291743 0.965698 0.250000
O O6 0.298581 0.895855 0.121856
O O7 0.347776 0.034434 0.128904
O O8 0.500000 0.294139 0.509027
O O9 0.653407 0.237886 0.570778
O O10 0.679100 0.318311 0.459399
O O11 0.669590 0.128602 0.484077
O O12 0.895610 0.500000 0.500000
O O13 0.000000 0.594022 0.432635
#
# Coordination Sequence:
#
# PCOD9469472 Si02
#       5
#    16  16  16  16  16
#     4  10  18  34  57  80 107 138 179 225 266 314
#     4  11  21  34  51  78 114 145 177 217 271 332
#     4  10  19  32  58  84 104 133 179 231 273 312
#     4  10  19  34  55  81 106 140 184 228 272 315
#     4   9  17  32  53  75 101 135 181 227 263 309
#
# _framework density 16.850436999999999
#
# number of rings (size 3 to 8) (size 9 to 14) (size 15 to 20)
#    0.000    2.000    4.000    1.200    0.000    1.600 
#    0.000    1.000    0.000    1.200    0.000    0.000 
#    0.000    0.000    0.000    0.000    0.000    0.000 
#
# Total GULP energy -223019.199415 kJ/mol
# GULP energy per Si atom -5575.479985 kJ/mol
# Density = 1.681208 g / cm^3
# Si number density = 16.850437 Si / 1000 Ang^3
#
#
#
# Elastic Constant Matrix: (Units=GPa)
#
#
# Indices 1 2 3 4 5 6 
#
# 1 112.6260 26.2374 39.7245 0.0000 0.0000 0.0000
# 2 26.2374 94.0740 36.1639 0.0000 0.0000 0.0000
# 3 39.7245 36.1639 111.0750 0.0000 0.0000 0.0000
# 4 0.0000 0.0000 0.0000 14.6164 0.0000 0.0000
# 5 0.0000 0.0000 0.0000 0.0000 8.0816 0.0000
# 6 0.0000 0.0000 0.0000 0.0000 0.0000 26.2737
#
#
#
# Elastic Compliance Matrix: (Units=1/GPa)
#
#
# Indices 1 2 3 4 5 6 
#
# 1 0.010388 -0.001679 -0.003168 0.000000 0.000000 0.000000
# 2 -0.001679 0.012422 -0.003444 0.000000 0.000000 0.000000
# 3 -0.003168 -0.003444 0.011257 0.000000 0.000000 0.000000
# 4 0.000000 0.000000 0.000000 0.068417 0.000000 0.000000
# 5 0.000000 0.000000 0.000000 0.000000 0.123739 0.000000
# 6 0.000000 0.000000 0.000000 0.000000 0.000000 0.038061
#
#
# Mechanical properties :
#
#
# Convention : Reuss Voigt Hill
#
# Bulk Modulus (GPa) = 57.19395 58.00297 57.59846
# Shear Modulus (GPa) = 17.44021 24.17094 20.80558
#
# Velocity S-wave (km/s) = 3.22063 3.79151 3.51767
# Velocity P-wave (km/s) = 6.91706 7.32560 7.12426
#
# Compressibility (1/GPa) = 0.01748437
#
# Stress axis : x y z
#
# Youngs Moduli (GPa) = 96.26850 80.50133 88.83135
#
# Poissons Ratio (x) = 0.13518 0.28144
# Poissons Ratio (y) = 0.16165 0.30593
# Poissons Ratio (z) = 0.30501 0.27724
#
# Static dielectric constant tensor:
#      x y z
#    x 1.607850 0.000000 0.000000 
#    y 0.000000 1.599450 0.000000 
#    z 0.000000 0.000000 1.528570 
# 
# From -- ./inp_files/43971.got.cif
#   From: 2010.05.17/outbox.cif.g08.bks.cpg/sg63_22_cif.got.tgz:43971.got - 2010.06.03 15:47:04.
