data_PCOD9469583
_publ_section_title
;
Structure prediction by ZEFSAII (Michael W. Deem and Ramdas Pophale) SiO2 
 PCOD9469583
Probable space group: C M C M
;
_chemical_formula_sum "Si O2"
_cell_formula_units_Z 88
_cell_length_a 29.451438
_cell_length_b 5.220782
_cell_length_c 24.936602
_cell_angle_alpha 90.000000
_cell_angle_beta 90.000000
_cell_angle_gamma 90.000000
_cell_volume 3834.240387
_symmetry_space_group_name_H-M "C M C M"
_symmetry_group_IT_number 63
_symmetry_cell_setting 'orthorhombic'
loop_
_space_group_symop_operation_xyz
x,y,z
-x,-y,1/2+z
x,-y,-z
-x,y,1/2-z
-x,-y,-z
x,y,1/2-z
-x,y,z
x,-y,1/2+z
1/2+x,1/2+y,z
1/2-x,1/2-y,1/2+z
1/2+x,1/2-y,-z
1/2-x,1/2+y,1/2-z
1/2-x,1/2-y,-z
1/2+x,1/2+y,1/2-z
1/2-x,1/2+y,z
1/2+x,1/2-y,1/2+z
loop_
_atom_site_type_symbol
_atom_site_label
_atom_site_fract_x
_atom_site_fract_y
_atom_site_fract_z
Si Si1 0.052194 0.405472 0.166029
Si Si2 0.109334 0.081100 0.691750
Si Si3 0.588110 0.104031 0.947048
Si Si4 0.158570 0.000000 0.500000
Si Si5 0.665207 0.757898 0.601278
Si Si6 0.219547 0.546451 0.810393
O O1 0.079374 0.664487 0.180695
O O2 0.055930 0.340161 0.102476
O O3 0.000000 0.430500 0.181779
O O4 0.077386 0.164489 0.191333
O O5 0.131174 0.101482 0.750000
O O6 0.146967 0.058673 0.645527
O O7 0.624043 0.316910 0.966799
O O8 0.620608 0.882560 0.924501
O O9 0.563688 0.000000 0.000000
O O10 0.187285 0.863171 0.452298
O O11 0.689258 0.970956 0.638253
O O12 0.198740 0.529272 0.750000
O O13 0.242104 0.824564 0.813475
#
# Coordination Sequence:
#
# PCOD9469583 Si02
#       6
#    16  16  16   8  16  16
#     4  11  23  39  57  87 123 157 199 252 308 360
#     4  11  23  39  61  87 117 160 206 247 297 363
#     4   9  20  37  60  86 117 159 206 250 297 352
#     4  10  18  38  63  86 118 156 204 252 296 342
#     4  10  21  38  64  88 119 158 205 247 295 360
#     4  10  23  41  63  93 127 159 194 245 302 353
#
# _framework density 22.951093
#
# number of rings (size 3 to 8) (size 9 to 14) (size 15 to 20)
#    0.000    1.818    1.818    1.636    2.545    2.545 
#    0.000    5.000    0.000    0.000    0.000    0.000 
#    0.000    0.000    0.000    0.000    0.000    0.000 
#
# Total GULP energy -245541.224137 kJ/mol
# GULP energy per Si atom -5580.482367 kJ/mol
# Density = 2.289886 g / cm^3
# Si number density = 22.951093 Si / 1000 Ang^3
#
#
#
# Elastic Constant Matrix: (Units=GPa)
#
#
# Indices 1 2 3 4 5 6 
#
# 1 26.7224 14.6142 15.8868 0.0000 0.0000 0.0000
# 2 14.6142 97.4822 24.7412 0.0000 0.0000 0.0000
# 3 15.8868 24.7412 175.8703 0.0000 0.0000 0.0000
# 4 0.0000 0.0000 0.0000 15.9463 0.0000 0.0000
# 5 0.0000 0.0000 0.0000 0.0000 -10.4060 0.0000
# 6 0.0000 0.0000 0.0000 0.0000 0.0000 7.1105
#
#
#
# Elastic Compliance Matrix: (Units=1/GPa)
#
#
# Indices 1 2 3 4 5 6 
#
# 1 0.042271 -0.005567 -0.003035 0.000000 0.000000 0.000000
# 2 -0.005567 0.011371 -0.001097 0.000000 0.000000 0.000000
# 3 -0.003035 -0.001097 0.006114 0.000000 0.000000 0.000000
# 4 0.000000 0.000000 0.000000 0.062710 0.000000 0.000000
# 5 0.000000 0.000000 0.000000 0.000000 -0.096099 0.000000
# 6 0.000000 0.000000 0.000000 0.000000 0.000000 0.140636
#
#
# Mechanical properties :
#
#
# Convention : Reuss Voigt Hill
#
# Bulk Modulus (GPa) = 24.77784 45.61771 35.19777
# Shear Modulus (GPa) = 25.01819 18.85237 21.93528
#
# Velocity S-wave (km/s) = 3.30520 2.86914 3.09486
# Velocity P-wave (km/s) = 5.03837 5.55834 5.30473
#
# Compressibility (1/GPa) = 0.04035864
#
# Stress axis : x y z
#
# Youngs Moduli (GPa) = 23.65709 87.94138 163.54586
#
# Poissons Ratio (x) = 0.48955 0.49641
# Poissons Ratio (y) = 0.13169 0.17938
# Poissons Ratio (z) = 0.07181 0.09646
#
# Static dielectric constant tensor:
#      x y z
#    x 1.828320 0.000000 0.000000 
#    y 0.000000 1.917020 0.000000 
#    z 0.000000 0.000000 1.959330 
# 
# From -- ./inp_files/65697.got.cif
#   From: 2010.05.17/outbox.cif.g08.bks.cpg/sg63_33_cif.got.tgz:65697.got - 2010.06.03 15:47:04.
