data_PCOD9469542
_publ_section_title
;
Structure prediction by ZEFSAII (Michael W. Deem and Ramdas Pophale) SiO2 
 PCOD9469542
Probable space group: C M C M
;
_chemical_formula_sum "Si O2"
_cell_formula_units_Z 112
_cell_length_a 16.123972
_cell_length_b 21.239676
_cell_length_c 19.106854
_cell_angle_alpha 90.000000
_cell_angle_beta 90.000000
_cell_angle_gamma 90.000000
_cell_volume 6543.484951
_symmetry_space_group_name_H-M "C M C M"
_symmetry_group_IT_number 63
_symmetry_cell_setting 'orthorhombic'
loop_
_space_group_symop_operation_xyz
x,y,z
-x,-y,1/2+z
x,-y,-z
-x,y,1/2-z
-x,-y,-z
x,y,1/2-z
-x,y,z
x,-y,1/2+z
1/2+x,1/2+y,z
1/2-x,1/2-y,1/2+z
1/2+x,1/2-y,-z
1/2-x,1/2+y,1/2-z
1/2-x,1/2-y,-z
1/2+x,1/2+y,1/2-z
1/2-x,1/2+y,z
1/2+x,1/2-y,1/2+z
loop_
_atom_site_type_symbol
_atom_site_label
_atom_site_fract_x
_atom_site_fract_y
_atom_site_fract_z
Si Si1 0.232617 0.430931 0.024919
Si Si2 0.904786 0.998535 0.827407
Si Si3 0.591941 0.266227 0.587889
Si Si4 0.761189 0.899830 0.326727
Si Si5 0.594366 0.589197 0.039004
Si Si6 0.237827 0.247928 0.830660
Si Si7 0.321118 0.797900 0.530523
O O1 0.332935 0.426477 0.015042
O O2 0.200098 0.370695 0.982320
O O3 0.206852 0.500000 0.000000
O O4 0.209879 0.420194 0.105653
O O5 0.896059 0.967916 0.750000
O O6 0.842316 0.056544 0.828326
O O7 0.000000 0.019667 0.833732
O O8 0.888804 0.950623 0.890517
O O9 0.500000 0.257740 0.618261
O O10 0.598661 0.337644 0.559648
O O11 0.667279 0.255294 0.641764
O O12 0.603871 0.221844 0.519846
O O13 0.721630 0.907866 0.250000
O O14 0.781982 0.826373 0.334760
O O15 0.500000 0.575671 0.014863
O O16 0.230028 0.268255 0.750000
O O17 0.180082 0.283116 0.887177
O O18 0.250000 0.750000 0.500000
#
# Coordination Sequence:
#
# PCOD9469542 Si02
#       7
#    16  16  16  16  16  16  16
#     4  12  20  32  52  75  98 136 175 217 254 303
#     4   9  18  31  44  66 109 148 169 199 244 301
#     4  10  19  33  54  76 102 136 175 220 265 310
#     4  10  19  31  48  71  99 135 173 208 253 302
#     4  10  19  29  45  73 101 135 174 207 247 301
#     4  10  19  33  55  78 105 136 173 221 265 308
#     4  10  18  36  53  72 103 138 175 214 257 313
#
# _framework density 17.116261999999999
#
# number of rings (size 3 to 8) (size 9 to 14) (size 15 to 20)
#    0.000    1.857    7.143    0.000    0.000    1.714 
#    0.000    2.857    0.000    1.714    0.000    0.000 
#    0.000    0.000    0.000    0.000    0.000    0.000 
#
# Total GULP energy -311955.651388 kJ/mol
# GULP energy per Si atom -5570.636632 kJ/mol
# Density = 1.707730 g / cm^3
# Si number density = 17.116262 Si / 1000 Ang^3
#
#
#
# Elastic Constant Matrix: (Units=GPa)
#
#
# Indices 1 2 3 4 5 6 
#
# 1 18.3143 11.8293 -3.9376 0.0000 0.0000 0.0000
# 2 11.8293 113.6778 40.6254 0.0000 0.0000 0.0000
# 3 -3.9376 40.6254 129.3825 0.0000 0.0000 0.0000
# 4 0.0000 0.0000 0.0000 25.5058 0.0000 0.0000
# 5 0.0000 0.0000 0.0000 0.0000 15.5859 0.0000
# 6 0.0000 0.0000 0.0000 0.0000 0.0000 5.4245
#
#
#
# Elastic Compliance Matrix: (Units=1/GPa)
#
#
# Indices 1 2 3 4 5 6 
#
# 1 0.060595 -0.007845 0.004307 0.000000 0.000000 0.000000
# 2 -0.007845 0.010924 -0.003669 0.000000 0.000000 0.000000
# 3 0.004307 -0.003669 0.009012 0.000000 0.000000 0.000000
# 4 0.000000 0.000000 0.000000 0.039207 0.000000 0.000000
# 5 0.000000 0.000000 0.000000 0.000000 0.064161 0.000000
# 6 0.000000 0.000000 0.000000 0.000000 0.000000 0.184350
#
#
# Mechanical properties :
#
#
# Convention : Reuss Voigt Hill
#
# Bulk Modulus (GPa) = 15.12427 39.82320 27.47373
# Shear Modulus (GPa) = 12.35477 23.49372 17.92425
#
# Velocity S-wave (km/s) = 2.68958 3.70888 3.23957
# Velocity P-wave (km/s) = 4.30122 6.45429 5.48445
#
# Compressibility (1/GPa) = 0.06611890
#
# Stress axis : x y z
#
# Youngs Moduli (GPa) = 16.50292 91.53905 110.96165
#
# Poissons Ratio (x) = 0.71811 -0.47795
# Poissons Ratio (y) = 0.12946 0.40711
# Poissons Ratio (z) = -0.07108 0.33585
#
# Static dielectric constant tensor:
#      x y z
#    x 1.591090 0.000000 0.000000 
#    y 0.000000 1.582590 0.000000 
#    z 0.000000 0.000000 1.640460 
# 
# From -- ./inp_files/46077.got.cif
#   From: 2010.05.17/outbox.cif.g08.bks.cpg/sg63_24_cif.got.tgz:46077.got - 2010.06.03 15:47:04.
