data_PCOD9469270
_publ_section_title
;
Structure prediction by ZEFSAII (Michael W. Deem and Ramdas Pophale) SiO2 
 PCOD9469270
Probable space group: C M C M
;
_chemical_formula_sum "Si O2"
_cell_formula_units_Z 80
_cell_length_a 28.368408
_cell_length_b 9.110430
_cell_length_c 14.416657
_cell_angle_alpha 90.000000
_cell_angle_beta 90.000000
_cell_angle_gamma 90.000000
_cell_volume 3725.961867
_symmetry_space_group_name_H-M "C M C M"
_symmetry_group_IT_number 63
_symmetry_cell_setting 'orthorhombic'
loop_
_space_group_symop_operation_xyz
x,y,z
-x,-y,1/2+z
x,-y,-z
-x,y,1/2-z
-x,-y,-z
x,y,1/2-z
-x,y,z
x,-y,1/2+z
1/2+x,1/2+y,z
1/2-x,1/2-y,1/2+z
1/2+x,1/2-y,-z
1/2-x,1/2+y,1/2-z
1/2-x,1/2-y,-z
1/2+x,1/2+y,1/2-z
1/2-x,1/2+y,z
1/2+x,1/2-y,1/2+z
loop_
_atom_site_type_symbol
_atom_site_label
_atom_site_fract_x
_atom_site_fract_y
_atom_site_fract_z
Si Si1 0.271956 0.221866 0.358830
Si Si2 0.948810 0.937624 0.605844
Si Si3 0.138208 0.894418 0.413197
Si Si4 0.909082 0.651158 0.963561
Si Si5 0.187804 0.587860 0.637190
O O1 0.263174 0.198081 0.250000
O O2 0.313708 0.341166 0.367518
O O3 0.223091 0.284646 0.397074
O O4 0.290504 0.067028 0.394783
O O5 0.940843 0.763846 0.594737
O O6 0.000000 0.970562 0.646873
O O7 0.950336 0.000000 0.500000
O O8 0.901334 0.014104 0.643378
O O9 0.111617 0.749794 0.452188
O O10 0.150334 0.000000 0.500000
O O11 0.863813 0.608483 0.902759
O O12 0.931209 0.500000 0.000000
O O13 0.186054 0.588835 0.750000
#
# Coordination Sequence:
#
# PCOD9469270 Si02
#       5
#    16  16  16  16  16
#     4  10  21  36  51  71 102 142 177 206 252 306
#     4   8  17  33  53  77 104 130 164 212 257 304
#     4   9  19  33  52  77 102 132 168 214 255 299
#     4  10  18  32  52  77 104 127 169 211 257 297
#     4  10  22  35  50  73 104 140 175 208 251 309
#
# _framework density 21.470966000000001
#
# number of rings (size 3 to 8) (size 9 to 14) (size 15 to 20)
#    0.000    3.000    2.000    0.000    5.600    2.000 
#    0.000    0.000    0.000    2.400    0.000    2.800 
#    0.000    0.000    0.000    0.000    0.000    0.000 
#
# Total GULP energy -223151.643770 kJ/mol
# GULP energy per Si atom -5578.791094 kJ/mol
# Density = 2.142210 g / cm^3
# Si number density = 21.470966 Si / 1000 Ang^3
#
#
#
# Elastic Constant Matrix: (Units=GPa)
#
#
# Indices 1 2 3 4 5 6 
#
# 1 72.8105 17.0651 5.8516 0.0000 0.0000 0.0000
# 2 17.0651 126.7661 16.0922 0.0000 0.0000 0.0000
# 3 5.8516 16.0922 48.9189 0.0000 0.0000 0.0000
# 4 0.0000 0.0000 0.0000 12.2863 0.0000 0.0000
# 5 0.0000 0.0000 0.0000 0.0000 -138.3319 0.0000
# 6 0.0000 0.0000 0.0000 0.0000 0.0000 20.8137
#
#
#
# Elastic Compliance Matrix: (Units=1/GPa)
#
#
# Indices 1 2 3 4 5 6 
#
# 1 0.014240 -0.001775 -0.001120 0.000000 0.000000 0.000000
# 2 -0.001775 0.008454 -0.002569 0.000000 0.000000 0.000000
# 3 -0.001120 -0.002569 0.021421 0.000000 0.000000 0.000000
# 4 0.000000 0.000000 0.000000 0.081391 0.000000 0.000000
# 5 0.000000 0.000000 0.000000 0.000000 -0.007229 0.000000
# 6 0.000000 0.000000 0.000000 0.000000 0.000000 0.048045
#
#
# Mechanical properties :
#
#
# Convention : Reuss Voigt Hill
#
# Bulk Modulus (GPa) = 30.13070 36.27925 33.20498
# Shear Modulus (GPa) = 26.55183 -7.08060 9.73562
#
# Velocity S-wave (km/s) = 3.52040 -1.81794 2.13170
# Velocity P-wave (km/s) = 5.53064 3.53935 4.64301
#
# Compressibility (1/GPa) = 0.03318874
#
# Stress axis : x y z
#
# Youngs Moduli (GPa) = 70.22346 118.29371 46.68351
#
# Poissons Ratio (x) = 0.20996 0.05226
# Poissons Ratio (y) = 0.12464 0.11991
# Poissons Ratio (z) = 0.07862 0.30384
#
# Static dielectric constant tensor:
#      x y z
#    x 1.787180 0.000000 0.000000 
#    y 0.000000 1.802650 0.000000 
#    z 0.000000 0.000000 1.815100 
# 
# From -- ./inp_files/49398.got.cif
#   From: 2010.05.17/outbox.cif.g08.bks.cpg/sg63_25_cif.got.tgz:49398.got - 2010.06.03 15:47:04.
