data_PCOD9469049
_publ_section_title
;
Structure prediction by ZEFSAII (Michael W. Deem and Ramdas Pophale) SiO2 
 PCOD9469049
Probable space group: C M C M
;
_chemical_formula_sum "Si O2"
_cell_formula_units_Z 128
_cell_length_a 22.793555
_cell_length_b 18.557269
_cell_length_c 19.486220
_cell_angle_alpha 90.000000
_cell_angle_beta 90.000000
_cell_angle_gamma 90.000000
_cell_volume 8242.400817
_symmetry_space_group_name_H-M "C M C M"
_symmetry_group_IT_number 63
_symmetry_cell_setting 'orthorhombic'
loop_
_space_group_symop_operation_xyz
x,y,z
-x,-y,1/2+z
x,-y,-z
-x,y,1/2-z
-x,-y,-z
x,y,1/2-z
-x,y,z
x,-y,1/2+z
1/2+x,1/2+y,z
1/2-x,1/2-y,1/2+z
1/2+x,1/2-y,-z
1/2-x,1/2+y,1/2-z
1/2-x,1/2-y,-z
1/2+x,1/2+y,1/2-z
1/2-x,1/2+y,z
1/2+x,1/2-y,1/2+z
loop_
_atom_site_type_symbol
_atom_site_label
_atom_site_fract_x
_atom_site_fract_y
_atom_site_fract_z
Si Si1 0.332579 0.712941 0.941414
Si Si2 0.174057 0.691457 0.825790
Si Si3 0.131021 0.471177 0.923720
Si Si4 0.568032 0.174462 0.032843
Si Si5 0.220415 0.186521 0.416514
Si Si6 0.204408 0.107010 0.829187
Si Si7 0.434284 0.888756 0.120238
Si Si8 0.752918 0.546760 0.167445
O O1 0.393087 0.754648 0.954416
O O2 0.283932 0.774985 0.924972
O O3 0.333618 0.655256 0.880283
O O4 0.306561 0.673248 0.008632
O O5 0.179698 0.723288 0.750000
O O6 0.179597 0.753665 0.881307
O O7 0.229338 0.638533 0.835996
O O8 0.114874 0.647032 0.833113
O O9 0.100213 0.393758 0.931789
O O10 0.084778 0.529767 0.896406
O O11 0.185941 0.467353 0.872444
O O12 0.149416 0.500000 0.000000
O O13 0.500000 0.181155 0.054364
O O14 0.567959 0.153608 0.952305
O O15 0.226821 0.117691 0.368244
O O16 0.186551 0.116850 0.750000
O O17 0.211049 0.022431 0.843764
O O18 0.500000 0.885339 0.147629
O O19 0.761374 0.554439 0.250000
#
# Coordination Sequence:
#
# PCOD9469049 Si02
#       8
#    16  16  16  16  16  16  16  16
#     4  10  19  32  53  76  98 130 170 215 251 300
#     4  10  18  31  46  68 101 134 169 211 252 293
#     4  10  20  31  50  74 104 140 177 208 237 292
#     4  10  19  34  51  74 102 134 173 214 255 294
#     4  10  20  31  50  74 101 131 170 209 255 301
#     4   9  20  33  49  73 103 132 164 208 259 306
#     4  10  19  31  48  71 102 140 180 212 243 288
#     4  11  21  33  50  76 107 141 168 203 258 311
#
# _framework density 15.529456
#
# number of rings (size 3 to 8) (size 9 to 14) (size 15 to 20)
#    0.000    2.000    3.750    0.750    1.750    2.250 
#    0.000    0.000    0.000    2.250    0.000    2.625 
#    0.000    2.000    0.000    0.000    0.000    0.000 
#
# Total GULP energy -356765.890866 kJ/mol
# GULP energy per Si atom -5574.467045 kJ/mol
# Density = 1.549411 g / cm^3
# Si number density = 15.529456 Si / 1000 Ang^3
#
#
#
# Elastic Constant Matrix: (Units=GPa)
#
#
# Indices 1 2 3 4 5 6 
#
# 1 54.4493 26.0343 16.8096 0.0000 0.0000 0.0000
# 2 26.0343 64.8360 41.2644 0.0000 0.0000 0.0000
# 3 16.8096 41.2644 63.9475 0.0000 0.0000 0.0000
# 4 0.0000 0.0000 0.0000 27.1365 0.0000 0.0000
# 5 0.0000 0.0000 0.0000 0.0000 14.3332 0.0000
# 6 0.0000 0.0000 0.0000 0.0000 0.0000 16.2233
#
#
#
# Elastic Compliance Matrix: (Units=1/GPa)
#
#
# Indices 1 2 3 4 5 6 
#
# 1 0.022730 -0.009035 -0.000145 0.000000 0.000000 0.000000
# 2 -0.009035 0.029763 -0.016831 0.000000 0.000000 0.000000
# 3 -0.000145 -0.016831 0.026537 0.000000 0.000000 0.000000
# 4 0.000000 0.000000 0.000000 0.036851 0.000000 0.000000
# 5 0.000000 0.000000 0.000000 0.000000 0.069768 0.000000
# 6 0.000000 0.000000 0.000000 0.000000 0.000000 0.061640
#
#
# Mechanical properties :
#
#
# Convention : Reuss Voigt Hill
#
# Bulk Modulus (GPa) = 37.02487 39.04994 38.03740
# Shear Modulus (GPa) = 16.21730 18.14693 17.18212
#
# Velocity S-wave (km/s) = 3.23506 3.42211 3.32990
# Velocity P-wave (km/s) = 6.15204 6.38865 6.27146
#
# Compressibility (1/GPa) = 0.02700887
#
# Stress axis : x y z
#
# Youngs Moduli (GPa) = 43.99397 33.59846 37.68384
#
# Poissons Ratio (x) = 0.30356 0.00546
# Poissons Ratio (y) = 0.39748 0.63425
# Poissons Ratio (z) = 0.00638 0.56549
#
# Static dielectric constant tensor:
#      x y z
#    x 1.494800 0.000000 0.000000 
#    y 0.000000 1.510270 0.000000 
#    z 0.000000 0.000000 1.535440 
# 
# From -- ./inp_files/56966.got.cif
#   From: 2010.05.17/outbox.cif.g08.bks.cpg/sg63_29_cif.got.tgz:56966.got - 2010.06.03 15:47:04.
