data_PCOD9469524
_publ_section_title
;
Structure prediction by ZEFSAII (Michael W. Deem and Ramdas Pophale) SiO2 
 PCOD9469524
Probable space group: C M C M
;
_chemical_formula_sum "Si O2"
_cell_formula_units_Z 80
_cell_length_a 7.549067
_cell_length_b 20.847041
_cell_length_c 23.439552
_cell_angle_alpha 90.000000
_cell_angle_beta 90.000000
_cell_angle_gamma 90.000000
_cell_volume 3688.816121
_symmetry_space_group_name_H-M "C M C M"
_symmetry_group_IT_number 63
_symmetry_cell_setting 'orthorhombic'
loop_
_space_group_symop_operation_xyz
x,y,z
-x,-y,1/2+z
x,-y,-z
-x,y,1/2-z
-x,-y,-z
x,y,1/2-z
-x,y,z
x,-y,1/2+z
1/2+x,1/2+y,z
1/2-x,1/2-y,1/2+z
1/2+x,1/2-y,-z
1/2-x,1/2+y,1/2-z
1/2-x,1/2-y,-z
1/2+x,1/2+y,1/2-z
1/2-x,1/2+y,z
1/2+x,1/2-y,1/2+z
loop_
_atom_site_type_symbol
_atom_site_label
_atom_site_fract_x
_atom_site_fract_y
_atom_site_fract_z
Si Si1 0.296438 0.489641 0.362893
Si Si2 0.782826 0.735529 0.124332
Si Si3 0.292943 0.210947 0.250000
Si Si4 0.716189 0.439509 0.750000
Si Si5 0.208043 0.393768 0.561666
Si Si6 0.785235 0.131233 0.930164
O O1 0.500000 0.474822 0.348002
O O2 0.221296 0.523413 0.306569
O O3 0.293590 0.542500 0.412893
O O4 0.218400 0.424142 0.387556
O O5 0.720424 0.735866 0.189848
O O6 0.725001 0.669867 0.093949
O O7 0.727022 0.798488 0.089962
O O8 0.000000 0.734689 0.124355
O O9 0.500000 0.228514 0.250000
O O10 0.278305 0.133825 0.250000
O O11 0.500000 0.436525 0.750000
O O12 0.231957 0.384708 0.494516
O O13 0.000000 0.399858 0.574136
O O14 0.000000 0.130366 0.928970
#
# Coordination Sequence:
#
# PCOD9469524 Si02
#       6
#    16  16   8   8  16  16
#     4  10  21  36  56  80 108 142 178 220 268 317
#     4   9  19  34  56  82 106 138 179 221 265 315
#     4  10  18  35  59  81 105 137 178 220 266 320
#     4  10  20  35  55  81 107 135 176 220 266 318
#     4  11  21  35  56  81 109 143 183 221 262 316
#     4  10  21  37  54  78 111 143 178 220 268 316
#
# _framework density 21.687173999999999
#
# number of rings (size 3 to 8) (size 9 to 14) (size 15 to 20)
#    0.000    2.000    2.000    1.800    0.000    4.000 
#    0.000    6.000    0.000    0.000    0.000    2.800 
#    0.000    0.000    0.000    0.000    0.000    0.000 
#
# Total GULP energy -223530.688419 kJ/mol
# GULP energy per Si atom -5588.267210 kJ/mol
# Density = 2.163781 g / cm^3
# Si number density = 21.687174 Si / 1000 Ang^3
#
#
#
# Elastic Constant Matrix: (Units=GPa)
#
#
# Indices 1 2 3 4 5 6 
#
# 1 54.4018 -8.6307 -11.2588 0.0000 0.0000 0.0000
# 2 -8.6307 56.9583 -20.9420 0.0000 0.0000 0.0000
# 3 -11.2588 -20.9420 78.0943 0.0000 0.0000 0.0000
# 4 0.0000 0.0000 0.0000 -18.3002 0.0000 0.0000
# 5 0.0000 0.0000 0.0000 0.0000 9.1066 0.0000
# 6 0.0000 0.0000 0.0000 0.0000 0.0000 0.0719
#
#
#
# Elastic Compliance Matrix: (Units=1/GPa)
#
#
# Indices 1 2 3 4 5 6 
#
# 1 0.019946 0.004526 0.004089 0.000000 0.000000 0.000000
# 2 0.004526 0.020504 0.006151 0.000000 0.000000 0.000000
# 3 0.004089 0.006151 0.015044 0.000000 0.000000 0.000000
# 4 0.000000 0.000000 0.000000 -0.054644 0.000000 0.000000
# 5 0.000000 0.000000 0.000000 0.000000 0.109811 0.000000
# 6 0.000000 0.000000 0.000000 0.000000 0.000000 13.906483
#
#
# Mechanical properties :
#
#
# Convention : Reuss Voigt Hill
#
# Bulk Modulus (GPa) = 11.76109 11.97684 11.86897
# Shear Modulus (GPa) = 0.35674 13.52805 6.94240
#
# Velocity S-wave (km/s) = 0.40602 2.50027 1.79112
# Velocity P-wave (km/s) = 2.37795 3.72420 3.12444
#
# Compressibility (1/GPa) = 0.08502612
#
# Stress axis : x y z
#
# Youngs Moduli (GPa) = 50.13522 48.77098 66.47163
#
# Poissons Ratio (x) = -0.22073 -0.27182
# Poissons Ratio (y) = -0.22691 -0.40886
# Poissons Ratio (z) = -0.20502 -0.29999
#
# Static dielectric constant tensor:
#      x y z
#    x 1.840020 0.000000 0.000000 
#    y 0.000000 1.743610 0.000000 
#    z 0.000000 0.000000 1.759580 
# 
# From -- ./inp_files/50898.got.cif
#   From: 2010.05.17/outbox.cif.g08.bks.cpg/sg63_26_cif.got.tgz:50898.got - 2010.06.03 15:47:04.
