data_PCOD9469695
_publ_section_title
;
Structure prediction by ZEFSAII (Michael W. Deem and Ramdas Pophale) SiO2 
 PCOD9469695
Probable space group: C M C M
;
_chemical_formula_sum "Si O2"
_cell_formula_units_Z 84
_cell_length_a 7.529359
_cell_length_b 19.923560
_cell_length_c 29.730487
_cell_angle_alpha 90.000000
_cell_angle_beta 90.000000
_cell_angle_gamma 90.000000
_cell_volume 4459.918988
_symmetry_space_group_name_H-M "C M C M"
_symmetry_group_IT_number 63
_symmetry_cell_setting 'orthorhombic'
loop_
_space_group_symop_operation_xyz
x,y,z
-x,-y,1/2+z
x,-y,-z
-x,y,1/2-z
-x,-y,-z
x,y,1/2-z
-x,y,z
x,-y,1/2+z
1/2+x,1/2+y,z
1/2-x,1/2-y,1/2+z
1/2+x,1/2-y,-z
1/2-x,1/2+y,1/2-z
1/2-x,1/2-y,-z
1/2+x,1/2+y,1/2-z
1/2-x,1/2+y,z
1/2+x,1/2-y,1/2+z
loop_
_atom_site_type_symbol
_atom_site_label
_atom_site_fract_x
_atom_site_fract_y
_atom_site_fract_z
Si Si1 0.205399 0.384670 0.170833
Si Si2 0.202529 0.374371 0.920294
Si Si3 0.204845 0.856526 0.479168
Si Si4 0.283200 0.732349 0.604485
Si Si5 0.214073 0.524192 0.915384
Si Si6 0.000000 0.890229 0.250000
O O1 0.220740 0.312692 0.145831
O O2 0.251167 0.438137 0.131389
O O3 0.344156 0.389389 0.210706
O O4 0.000000 0.395437 0.184233
O O5 0.279573 0.309062 0.895955
O O6 0.283230 0.448208 0.915427
O O7 0.000000 0.380377 0.903784
O O8 0.200419 0.357303 0.973242
O O9 0.274379 0.804735 0.441655
O O10 0.215409 0.929242 0.455457
O O11 0.000000 0.840007 0.488145
O O12 0.500000 0.731322 0.604343
O O13 0.000000 0.522828 0.921340
#
# Coordination Sequence:
#
# PCOD9469695 Si02
#       6
#    16  16  16  16  16   4
#     4  10  21  38  62  89 109 136 178 228 278 337
#     4  10  19  31  50  75 108 158 190 222 269 321
#     4  10  19  29  45  73 111 149 199 235 261 305
#     4   9  18  34  52  76 112 151 186 229 277 320
#     4   9  19  34  51  76 108 146 188 228 269 324
#     4  12  22  40  68  90 106 132 176 230 288 342
#
# _framework density 18.834423999999999
#
# number of rings (size 3 to 8) (size 9 to 14) (size 15 to 20)
#    0.000    2.286    0.952    2.000    1.333    4.571 
#    0.000    0.000    0.000    1.143    0.000    0.000 
#    0.000    0.000    0.000    0.000    0.000    0.000 
#
# Total GULP energy -233904.772077 kJ/mol
# GULP energy per Si atom -5569.161240 kJ/mol
# Density = 1.879156 g / cm^3
# Si number density = 18.834424 Si / 1000 Ang^3
#
#
#
# Elastic Constant Matrix: (Units=GPa)
#
#
# Indices 1 2 3 4 5 6 
#
# 1 74.6563 -2.8039 22.3542 0.0000 0.0000 0.0000
# 2 -2.8039 74.3028 -17.9393 0.0000 0.0000 0.0000
# 3 22.3542 -17.9393 50.0895 0.0000 0.0000 0.0000
# 4 0.0000 0.0000 0.0000 -0.3562 0.0000 0.0000
# 5 0.0000 0.0000 0.0000 0.0000 33.5049 0.0000
# 6 0.0000 0.0000 0.0000 0.0000 0.0000 14.1042
#
#
#
# Elastic Compliance Matrix: (Units=1/GPa)
#
#
# Indices 1 2 3 4 5 6 
#
# 1 0.015557 -0.001192 -0.007370 0.000000 0.000000 0.000000
# 2 -0.001192 0.014824 0.005841 0.000000 0.000000 0.000000
# 3 -0.007370 0.005841 0.025345 0.000000 0.000000 0.000000
# 4 0.000000 0.000000 0.000000 -2.807457 0.000000 0.000000
# 5 0.000000 0.000000 0.000000 0.000000 0.029846 0.000000
# 6 0.000000 0.000000 0.000000 0.000000 0.000000 0.070901
#
#
# Mechanical properties :
#
#
# Convention : Reuss Voigt Hill
#
# Bulk Modulus (GPa) = 19.88708 22.47450 21.18079
# Shear Modulus (GPa) = -1.90202 22.61308 10.35553
#
# Velocity S-wave (km/s) = -1.00601 3.46876 2.34737
# Velocity P-wave (km/s) = 3.03849 5.29166 4.31475
#
# Compressibility (1/GPa) = 0.05028391
#
# Stress axis : x y z
#
# Youngs Moduli (GPa) = 64.28135 67.45952 39.45523
#
# Poissons Ratio (x) = 0.08043 0.29077
# Poissons Ratio (y) = 0.07664 -0.23046
# Poissons Ratio (z) = 0.47373 -0.39404
#
# Static dielectric constant tensor:
#      x y z
#    x 1.707530 0.000000 0.000000 
#    y 0.000000 1.695310 0.000000 
#    z 0.000000 0.000000 1.593630 
# 
# From -- ./inp_files/66793.got.cif
#   From: 2010.05.17/outbox.cif.g08.bks.cpg/sg63_34_cif.got.tgz:66793.got - 2010.06.03 15:47:04.
