data_PCOD9469415
_publ_section_title
;
Structure prediction by ZEFSAII (Michael W. Deem and Ramdas Pophale) SiO2 
 PCOD9469415
Probable space group: C M C M
;
_chemical_formula_sum "Si O2"
_cell_formula_units_Z 80
_cell_length_a 7.504240
_cell_length_b 20.897258
_cell_length_c 23.816584
_cell_angle_alpha 90.000000
_cell_angle_beta 90.000000
_cell_angle_gamma 90.000000
_cell_volume 3734.870007
_symmetry_space_group_name_H-M "C M C M"
_symmetry_group_IT_number 63
_symmetry_cell_setting 'orthorhombic'
loop_
_space_group_symop_operation_xyz
x,y,z
-x,-y,1/2+z
x,-y,-z
-x,y,1/2-z
-x,-y,-z
x,y,1/2-z
-x,y,z
x,-y,1/2+z
1/2+x,1/2+y,z
1/2-x,1/2-y,1/2+z
1/2+x,1/2-y,-z
1/2-x,1/2+y,1/2-z
1/2-x,1/2-y,-z
1/2+x,1/2+y,1/2-z
1/2-x,1/2+y,z
1/2+x,1/2-y,1/2+z
loop_
_atom_site_type_symbol
_atom_site_label
_atom_site_fract_x
_atom_site_fract_y
_atom_site_fract_z
Si Si1 0.706810 0.866183 0.865322
Si Si2 0.715791 0.510574 0.436242
Si Si3 0.284235 0.071616 0.250000
Si Si4 0.281933 0.616757 0.628699
Si Si5 0.287714 0.419240 0.250000
Si Si6 0.785813 0.755555 0.066318
O O1 0.500000 0.851230 0.853385
O O2 0.781831 0.892848 0.806403
O O3 0.783612 0.804163 0.896782
O O4 0.716014 0.924721 0.908750
O O5 0.772215 0.500000 0.500000
O O6 0.500000 0.514030 0.435249
O O7 0.771760 0.449305 0.400445
O O8 0.500000 0.073573 0.250000
O O9 0.239352 0.996098 0.250000
O O10 0.500000 0.617702 0.628621
O O11 0.219907 0.612624 0.692895
O O12 0.221982 0.678006 0.593405
O O13 0.500000 0.409818 0.250000
O O14 0.000000 0.755120 0.071072
O O15 0.750000 0.750000 0.000000
#
# Coordination Sequence:
#
# PCOD9469415 Si02
#       6
#    16  16   8  16   8  16
#     4  10  21  35  54  79 109 144 178 217 270 325
#     4  10  19  32  53  79 106 138 180 227 268 310
#     4  10  20  35  53  79 113 143 174 220 272 322
#     4   9  18  32  53  79 104 135 177 223 265 307
#     4  10  18  33  57  81 103 135 182 228 266 310
#     4  10  21  38  56  78 109 142 178 220 268 321
#
# _framework density 21.419754000000001
#
# number of rings (size 3 to 8) (size 9 to 14) (size 15 to 20)
#    0.000    2.200    2.000    1.200    0.000    3.600 
#    0.000    6.000    0.000    0.000    0.000    2.800 
#    0.000    0.000    0.000    0.000    0.000    0.000 
#
# Total GULP energy -223426.857929 kJ/mol
# GULP energy per Si atom -5585.671448 kJ/mol
# Density = 2.137100 g / cm^3
# Si number density = 21.419754 Si / 1000 Ang^3
#
#
#
# Elastic Constant Matrix: (Units=GPa)
#
#
# Indices 1 2 3 4 5 6 
#
# 1 55.8971 -8.3891 -4.6899 0.0000 0.0000 0.0000
# 2 -8.3891 84.9522 -5.6131 0.0000 0.0000 0.0000
# 3 -4.6899 -5.6131 99.3525 0.0000 0.0000 0.0000
# 4 0.0000 0.0000 0.0000 42.1978 0.0000 0.0000
# 5 0.0000 0.0000 0.0000 0.0000 -89.8329 0.0000
# 6 0.0000 0.0000 0.0000 0.0000 0.0000 15.2080
#
#
#
# Elastic Compliance Matrix: (Units=1/GPa)
#
#
# Indices 1 2 3 4 5 6 
#
# 1 0.018251 0.001866 0.000967 0.000000 0.000000 0.000000
# 2 0.001866 0.012006 0.000766 0.000000 0.000000 0.000000
# 3 0.000967 0.000766 0.010154 0.000000 0.000000 0.000000
# 4 0.000000 0.000000 0.000000 0.023698 0.000000 0.000000
# 5 0.000000 0.000000 0.000000 0.000000 -0.011132 0.000000
# 6 0.000000 0.000000 0.000000 0.000000 0.000000 0.065755
#
#
# Mechanical properties :
#
#
# Convention : Reuss Voigt Hill
#
# Bulk Modulus (GPa) = 21.00361 22.53526 21.76944
# Shear Modulus (GPa) = 39.24532 10.77418 25.00975
#
# Velocity S-wave (km/s) = 4.28507 2.24520 3.42073
# Velocity P-wave (km/s) = 5.85742 4.15510 5.07810
#
# Compressibility (1/GPa) = 0.04761086
#
# Stress axis : x y z
#
# Youngs Moduli (GPa) = 54.79082 83.28987 98.48216
#
# Poissons Ratio (x) = -0.15544 -0.09523
# Poissons Ratio (y) = -0.10225 -0.07548
# Poissons Ratio (z) = -0.05298 -0.06383
#
# Static dielectric constant tensor:
#      x y z
#    x 1.791290 0.000000 0.000000 
#    y 0.000000 1.725640 0.000000 
#    z 0.000000 0.000000 1.751140 
# 
# From -- ./inp_files/59484.got.cif
#   From: 2010.05.17/outbox.cif.g08.bks.cpg/sg63_30_cif.got.tgz:59484.got - 2010.06.03 15:47:04.
