data_PCOD9469668
_publ_section_title
;
Structure prediction by ZEFSAII (Michael W. Deem and Ramdas Pophale) SiO2 
 PCOD9469668
Probable space group: C M C M
;
_chemical_formula_sum "Si O2"
_cell_formula_units_Z 88
_cell_length_a 18.224338
_cell_length_b 30.030723
_cell_length_c 10.398907
_cell_angle_alpha 90.000000
_cell_angle_beta 90.000000
_cell_angle_gamma 90.000000
_cell_volume 5691.218294
_symmetry_space_group_name_H-M "C M C M"
_symmetry_group_IT_number 63
_symmetry_cell_setting 'orthorhombic'
loop_
_space_group_symop_operation_xyz
x,y,z
-x,-y,1/2+z
x,-y,-z
-x,y,1/2-z
-x,-y,-z
x,y,1/2-z
-x,y,z
x,-y,1/2+z
1/2+x,1/2+y,z
1/2-x,1/2-y,1/2+z
1/2+x,1/2-y,-z
1/2-x,1/2+y,1/2-z
1/2-x,1/2-y,-z
1/2+x,1/2+y,1/2-z
1/2-x,1/2+y,z
1/2+x,1/2-y,1/2+z
loop_
_atom_site_type_symbol
_atom_site_label
_atom_site_fract_x
_atom_site_fract_y
_atom_site_fract_z
Si Si1 0.663358 0.958611 0.400788
Si Si2 0.919079 0.690413 0.519958
Si Si3 0.787745 0.812490 0.250000
Si Si4 0.729510 0.132044 0.979741
Si Si5 0.229171 0.167854 0.250000
Si Si6 0.500000 0.038208 0.605191
Si Si7 0.138739 0.253653 0.250000
Si Si8 0.877287 0.727293 0.250000
O O1 0.674563 0.971115 0.250000
O O2 0.716691 0.918892 0.441434
O O3 0.579371 0.939536 0.409071
O O4 0.668813 0.000000 0.500000
O O5 0.850703 0.656274 0.526358
O O6 0.903429 0.728678 0.624935
O O7 0.916710 0.712311 0.379417
O O8 0.000000 0.670601 0.543504
O O9 0.779661 0.842730 0.124182
O O10 0.715505 0.780965 0.250000
O O11 0.855968 0.779134 0.250000
O O12 0.763034 0.139344 0.120649
O O13 0.160638 0.201884 0.250000
O O14 0.300820 0.199769 0.250000
O O15 0.500000 0.018961 0.750000
O O16 0.500000 0.000000 0.500000
#
# Coordination Sequence:
#
# PCOD9469668 Si02
#       8
#    16  16   8  16   8   8   8   8
#     4  10  20  33  47  62  84 113 149 187 233 273
#     4  10  19  29  44  66  91 117 149 186 227 261
#     4   9  16  30  47  64  80 109 154 188 220 259
#     4  10  19  30  45  66  85 114 153 195 223 258
#     4   9  18  30  45  62  86 111 150 186 222 261
#     4   8  16  30  44  56  74 106 142 178 216 268
#     4   9  17  30  44  64  84 115 146 185 222 261
#     4   9  17  30  46  60  88 117 142 185 224 267
#
# _framework density 15.462419000000001
#
# number of rings (size 3 to 8) (size 9 to 14) (size 15 to 20)
#    0.000    2.545    0.909    1.636    2.545    4.364 
#    0.000    0.000    0.000    0.000    0.000    0.000 
#    0.000    0.000    0.000    0.000    0.000   63.636 
#
# Total GULP energy -244946.745219 kJ/mol
# GULP energy per Si atom -5566.971482 kJ/mol
# Density = 1.542723 g / cm^3
# Si number density = 15.462419 Si / 1000 Ang^3
#
#
#
# Elastic Constant Matrix: (Units=GPa)
#
#
# Indices 1 2 3 4 5 6 
#
# 1 14.6099 7.3421 6.3246 0.0000 0.0000 0.0000
# 2 7.3421 68.0776 35.6868 0.0000 0.0000 0.0000
# 3 6.3246 35.6868 115.9239 0.0000 0.0000 0.0000
# 4 0.0000 0.0000 0.0000 14.8803 0.0000 0.0000
# 5 0.0000 0.0000 0.0000 0.0000 11.0915 0.0000
# 6 0.0000 0.0000 0.0000 0.0000 0.0000 19.7320
#
#
#
# Elastic Compliance Matrix: (Units=1/GPa)
#
#
# Indices 1 2 3 4 5 6 
#
# 1 0.072701 -0.006870 -0.001851 0.000000 0.000000 0.000000
# 2 -0.006870 0.018165 -0.005217 0.000000 0.000000 0.000000
# 3 -0.001851 -0.005217 0.010333 0.000000 0.000000 0.000000
# 4 0.000000 0.000000 0.000000 0.067203 0.000000 0.000000
# 5 0.000000 0.000000 0.000000 0.000000 0.090159 0.000000
# 6 0.000000 0.000000 0.000000 0.000000 0.000000 0.050679
#
#
# Mechanical properties :
#
#
# Convention : Reuss Voigt Hill
#
# Bulk Modulus (GPa) = 13.63852 33.03537 23.33695
# Shear Modulus (GPa) = 13.82900 19.09129 16.46015
#
# Velocity S-wave (km/s) = 2.99383 3.51763 3.26625
# Velocity P-wave (km/s) = 4.55964 6.15708 5.41756
#
# Compressibility (1/GPa) = 0.07332172
#
# Stress axis : x y z
#
# Youngs Moduli (GPa) = 13.75498 55.05105 96.77307
#
# Poissons Ratio (x) = 0.37821 0.17917
# Poissons Ratio (y) = 0.09450 0.50488
# Poissons Ratio (z) = 0.02547 0.28721
#
# Static dielectric constant tensor:
#      x y z
#    x 1.516280 0.000000 0.000000 
#    y 0.000000 1.497170 0.000000 
#    z 0.000000 0.000000 1.525550 
# 
# From -- ./inp_files/9068.got.cif
#   From: 2010.05.17/outbox.cif.g08.bks.cpg/sg63_5_cif.got.tgz:9068.got - 2010.06.03 15:47:04.
