data_PCOD9469705
_publ_section_title
;
Structure prediction by ZEFSAII (Michael W. Deem and Ramdas Pophale) SiO2 
 PCOD9469705
Probable space group: C M C M
;
_chemical_formula_sum "Si O2"
_cell_formula_units_Z 112
_cell_length_a 28.209229
_cell_length_b 10.361625
_cell_length_c 20.424059
_cell_angle_alpha 90.000000
_cell_angle_beta 90.000000
_cell_angle_gamma 90.000000
_cell_volume 5969.818718
_symmetry_space_group_name_H-M "C M C M"
_symmetry_group_IT_number 63
_symmetry_cell_setting 'orthorhombic'
loop_
_space_group_symop_operation_xyz
x,y,z
-x,-y,1/2+z
x,-y,-z
-x,y,1/2-z
-x,-y,-z
x,y,1/2-z
-x,y,z
x,-y,1/2+z
1/2+x,1/2+y,z
1/2-x,1/2-y,1/2+z
1/2+x,1/2-y,-z
1/2-x,1/2+y,1/2-z
1/2-x,1/2-y,-z
1/2+x,1/2+y,1/2-z
1/2-x,1/2+y,z
1/2+x,1/2-y,1/2+z
loop_
_atom_site_type_symbol
_atom_site_label
_atom_site_fract_x
_atom_site_fract_y
_atom_site_fract_z
Si Si1 0.680267 0.243009 0.670602
Si Si2 0.644017 0.970864 0.828042
Si Si3 0.055373 0.593568 0.402467
Si Si4 0.863229 0.023678 0.671408
Si Si5 0.944063 0.966791 0.923147
Si Si6 0.444657 0.806838 0.462606
Si Si7 0.288489 0.252523 0.170503
O O1 0.681119 0.235720 0.750000
O O2 0.658550 0.382574 0.656526
O O3 0.734666 0.233470 0.647228
O O4 0.651403 0.117117 0.647142
O O5 0.647017 0.975314 0.750000
O O6 0.594010 0.906488 0.846114
O O7 0.686432 0.879161 0.852056
O O8 0.074298 0.677680 0.463751
O O9 0.056691 0.445265 0.428264
O O10 0.000000 0.622977 0.386971
O O11 0.873083 0.031104 0.750000
O O12 0.910112 0.039863 0.627338
O O13 0.823378 0.129495 0.654975
O O14 0.929804 0.815047 0.920379
O O15 0.000000 0.984769 0.907790
O O16 0.937508 0.000000 0.000000
O O17 0.500000 0.779652 0.474940
O O18 0.286116 0.247797 0.250000
#
# Coordination Sequence:
#
# PCOD9469705 Si02
#       7
#    16  16  16  16  16  16  16
#     4   9  17  32  53  76 102 133 172 217 260 306
#     4  10  19  29  47  77 103 128 164 202 252 308
#     4   9  17  30  50  72  99 129 162 206 249 296
#     4  10  20  34  55  82 107 136 174 217 266 308
#     4  10  21  35  53  76 105 142 180 211 250 313
#     4   8  16  32  50  69  90 126 177 210 234 284
#     4   9  18  32  50  76 106 133 168 213 258 309
#
# _framework density 18.761039
#
# number of rings (size 3 to 8) (size 9 to 14) (size 15 to 20)
#    0.000    2.714    0.000    2.571    2.000    4.000 
#    0.000    0.000    0.000    8.571    7.429    0.000 
#    0.000    0.000    0.000    0.000    0.000    0.000 
#
# Total GULP energy -311831.808682 kJ/mol
# GULP energy per Si atom -5568.425155 kJ/mol
# Density = 1.871834 g / cm^3
# Si number density = 18.761039 Si / 1000 Ang^3
#
#
#
# Elastic Constant Matrix: (Units=GPa)
#
#
# Indices 1 2 3 4 5 6 
#
# 1 101.1510 11.5096 32.0588 0.0000 0.0000 0.0000
# 2 11.5096 40.7377 10.1646 0.0000 0.0000 0.0000
# 3 32.0588 10.1646 24.0459 0.0000 0.0000 0.0000
# 4 0.0000 0.0000 0.0000 15.3724 0.0000 0.0000
# 5 0.0000 0.0000 0.0000 0.0000 -9.8473 0.0000
# 6 0.0000 0.0000 0.0000 0.0000 0.0000 24.3424
#
#
#
# Elastic Compliance Matrix: (Units=1/GPa)
#
#
# Indices 1 2 3 4 5 6 
#
# 1 0.017154 0.000961 -0.023277 0.000000 0.000000 0.000000
# 2 0.000961 0.027496 -0.012905 0.000000 0.000000 0.000000
# 3 -0.023277 -0.012905 0.078076 0.000000 0.000000 0.000000
# 4 0.000000 0.000000 0.000000 0.065052 0.000000 0.000000
# 5 0.000000 0.000000 0.000000 0.000000 -0.101551 0.000000
# 6 0.000000 0.000000 0.000000 0.000000 0.000000 0.041081
#
#
# Mechanical properties :
#
#
# Convention : Reuss Voigt Hill
#
# Bulk Modulus (GPa) = 19.12587 30.37782 24.75184
# Shear Modulus (GPa) = 23.23690 13.45363 18.34526
#
# Velocity S-wave (km/s) = 3.52315 2.68079 3.13043
# Velocity P-wave (km/s) = 5.17366 5.08028 5.12718
#
# Compressibility (1/GPa) = 0.05228521
#
# Stress axis : x y z
#
# Youngs Moduli (GPa) = 58.29476 36.36952 12.80809
#
# Poissons Ratio (x) = -0.03496 0.29813
# Poissons Ratio (y) = -0.05604 0.16528
# Poissons Ratio (z) = 1.35692 0.46933
#
# Static dielectric constant tensor:
#      x y z
#    x 1.644300 0.000000 0.000000 
#    y 0.000000 1.736780 0.000000 
#    z 0.000000 0.000000 1.638440 
# 
# From -- ./inp_files/57606.got.cif
#   From: 2010.05.17/outbox.cif.g08.bks.cpg/sg63_29_cif.got.tgz:57606.got - 2010.06.03 15:47:04.
