data_PCOD9469552
_publ_section_title
;
Structure prediction by ZEFSAII (Michael W. Deem and Ramdas Pophale) SiO2 
 PCOD9469552
Probable space group: C M C M
;
_chemical_formula_sum "Si O2"
_cell_formula_units_Z 116
_cell_length_a 16.004837
_cell_length_b 22.781390
_cell_length_c 17.545120
_cell_angle_alpha 90.000000
_cell_angle_beta 90.000000
_cell_angle_gamma 90.000000
_cell_volume 6397.168901
_symmetry_space_group_name_H-M "C M C M"
_symmetry_group_IT_number 63
_symmetry_cell_setting 'orthorhombic'
loop_
_space_group_symop_operation_xyz
x,y,z
-x,-y,1/2+z
x,-y,-z
-x,y,1/2-z
-x,-y,-z
x,y,1/2-z
-x,y,z
x,-y,1/2+z
1/2+x,1/2+y,z
1/2-x,1/2-y,1/2+z
1/2+x,1/2-y,-z
1/2-x,1/2+y,1/2-z
1/2-x,1/2-y,-z
1/2+x,1/2+y,1/2-z
1/2-x,1/2+y,z
1/2+x,1/2-y,1/2+z
loop_
_atom_site_type_symbol
_atom_site_label
_atom_site_fract_x
_atom_site_fract_y
_atom_site_fract_z
Si Si1 0.844918 0.809748 0.946886
Si Si2 0.752565 0.017743 0.088537
Si Si3 0.264771 0.217363 0.834191
Si Si4 0.406655 0.249310 0.096630
Si Si5 0.167846 0.369016 0.963231
Si Si6 0.500000 0.086640 0.750000
Si Si7 0.903752 0.914110 0.839799
Si Si8 0.652902 0.904545 0.131104
O O1 0.814773 0.755054 0.896310
O O2 0.759707 0.840133 0.977506
O O3 0.889445 0.856495 0.892045
O O4 0.896962 0.785457 0.017569
O O5 0.689448 0.073377 0.085878
O O6 0.836840 0.038920 0.129455
O O7 0.708663 0.962980 0.128227
O O8 0.769004 0.000000 0.000000
O O9 0.286029 0.239600 0.750000
O O10 0.167136 0.227177 0.850067
O O11 0.292299 0.150378 0.840816
O O12 0.500000 0.255216 0.126593
O O13 0.385435 0.181386 0.077239
O O14 0.130108 0.389122 0.043381
O O15 0.426709 0.088207 0.683855
O O16 0.888561 0.901831 0.750000
O O17 0.000000 0.933270 0.847811
#
# Coordination Sequence:
#
# PCOD9469552 Si02
#       8
#    16  16  16  16  16   4  16  16
#     4  10  18  36  59  86 114 156 195 237 297 355
#     4   9  21  39  64  82 113 162 202 240 294 352
#     4  11  21  37  59  81 123 160 188 237 301 362
#     4  11  21  34  60  89 119 155 197 243 285 351
#     4   9  18  38  61  83 112 154 201 239 296 346
#     4  12  28  36  58  92 118 152 198 252 302 342
#     4  10  21  36  56  89 121 149 192 247 294 348
#     4  11  21  40  57  87 116 149 194 244 299 351
#
# _framework density 18.133020999999999
#
# number of rings (size 3 to 8) (size 9 to 14) (size 15 to 20)
#    0.000    1.793    3.448    1.655    1.931    0.552 
#    2.483    1.724    0.000    0.000    0.000    0.000 
#    0.000    0.000    0.000    0.000    0.000    0.000 
#
# Total GULP energy -323157.606634 kJ/mol
# GULP energy per Si atom -5571.682873 kJ/mol
# Density = 1.809175 g / cm^3
# Si number density = 18.133021 Si / 1000 Ang^3
#
#
#
# Elastic Constant Matrix: (Units=GPa)
#
#
# Indices 1 2 3 4 5 6 
#
# 1 92.0959 41.1074 27.1853 0.0000 0.0000 0.0000
# 2 41.1074 106.5756 23.0021 0.0000 0.0000 0.0000
# 3 27.1853 23.0021 70.2589 0.0000 0.0000 0.0000
# 4 0.0000 0.0000 0.0000 8.4130 0.0000 0.0000
# 5 0.0000 0.0000 0.0000 0.0000 -0.2296 0.0000
# 6 0.0000 0.0000 0.0000 0.0000 0.0000 8.8704
#
#
#
# Elastic Compliance Matrix: (Units=1/GPa)
#
#
# Indices 1 2 3 4 5 6 
#
# 1 0.014064 -0.004573 -0.003945 0.000000 0.000000 0.000000
# 2 -0.004573 0.011584 -0.002023 0.000000 0.000000 0.000000
# 3 -0.003945 -0.002023 0.016422 0.000000 0.000000 0.000000
# 4 0.000000 0.000000 0.000000 0.118863 0.000000 0.000000
# 5 0.000000 0.000000 0.000000 0.000000 -4.355198 0.000000
# 6 0.000000 0.000000 0.000000 0.000000 0.000000 0.112734
#
#
# Mechanical properties :
#
#
# Convention : Reuss Voigt Hill
#
# Bulk Modulus (GPa) = 47.64659 50.16889 48.90774
# Shear Modulus (GPa) = -1.23352 15.25314 7.00981
#
# Velocity S-wave (km/s) = -0.82567 2.90346 1.96829
# Velocity P-wave (km/s) = 5.04224 6.24238 5.67413
#
# Compressibility (1/GPa) = 0.02098786
#
# Stress axis : x y z
#
# Youngs Moduli (GPa) = 71.10397 86.32924 60.89551
#
# Poissons Ratio (x) = 0.39481 0.24020
# Poissons Ratio (y) = 0.32518 0.12318
# Poissons Ratio (z) = 0.28047 0.17463
#
# Static dielectric constant tensor:
#      x y z
#    x 1.593830 0.000000 0.000000 
#    y 0.000000 1.626500 0.000000 
#    z 0.000000 0.000000 1.628550 
# 
# From -- ./inp_files/44640.got.cif
#   From: 2010.05.17/outbox.cif.g08.bks.cpg/sg63_23_cif.got.tgz:44640.got - 2010.06.03 15:47:04.
