data_PCOD9469183
_publ_section_title
;
Structure prediction by ZEFSAII (Michael W. Deem and Ramdas Pophale) SiO2 
 PCOD9469183
Probable space group: C M C M
;
_chemical_formula_sum "Si O2"
_cell_formula_units_Z 64
_cell_length_a 25.734399
_cell_length_b 15.073691
_cell_length_c 8.404203
_cell_angle_alpha 90.000000
_cell_angle_beta 90.000000
_cell_angle_gamma 90.000000
_cell_volume 3260.094376
_symmetry_space_group_name_H-M "C M C M"
_symmetry_group_IT_number 63
_symmetry_cell_setting 'orthorhombic'
loop_
_space_group_symop_operation_xyz
x,y,z
-x,-y,1/2+z
x,-y,-z
-x,y,1/2-z
-x,-y,-z
x,y,1/2-z
-x,y,z
x,-y,1/2+z
1/2+x,1/2+y,z
1/2-x,1/2-y,1/2+z
1/2+x,1/2-y,-z
1/2-x,1/2+y,1/2-z
1/2-x,1/2-y,-z
1/2+x,1/2+y,1/2-z
1/2-x,1/2+y,z
1/2+x,1/2-y,1/2+z
loop_
_atom_site_type_symbol
_atom_site_label
_atom_site_fract_x
_atom_site_fract_y
_atom_site_fract_z
Si Si1 0.613269 0.600892 0.942585
Si Si2 0.500000 0.601787 0.941889
Si Si3 0.808757 0.748447 0.057704
Si Si4 0.500000 0.101975 0.939279
Si Si5 0.110363 0.399068 0.559489
O O1 0.613414 0.600192 0.750000
O O2 0.556237 0.636522 0.995246
O O3 0.659007 0.665284 0.996857
O O4 0.619407 0.500000 0.000000
O O5 0.500000 0.604854 0.750000
O O6 0.500000 0.500000 0.000000
O O7 0.808577 0.748316 0.250000
O O8 0.842173 0.662790 0.005798
O O9 0.750000 0.750000 0.000000
O O10 0.500000 0.102963 0.750000
O O11 0.445403 0.138637 0.002574
O O12 0.500000 0.000000 0.000000
O O13 0.115887 0.500000 0.500000
O O14 0.109164 0.400422 0.750000
#
# Coordination Sequence:
#
# PCOD9469183 Si02
#       5
#    16   8  16   8  16
#     4   9  18  34  55  80 106 136 170 210 261 315
#     4   8  14  27  50  76 103 129 160 201 249 307
#     4  10  23  39  55  76 105 142 185 226 267 314
#     4  10  18  31  54  84 113 141 173 217 269 325
#     4  10  20  36  57  81 109 144 180 221 271 323
#
# _framework density 19.631333999999999
#
# number of rings (size 3 to 8) (size 9 to 14) (size 15 to 20)
#    0.000    2.500    0.000    3.375    0.000    5.000 
#    0.000    8.750    0.000    6.000    0.000    0.000 
#    0.000    0.000    0.000    0.000    0.000    0.000 
#
# Total GULP energy -178484.980373 kJ/mol
# GULP energy per Si atom -5577.655637 kJ/mol
# Density = 1.958665 g / cm^3
# Si number density = 19.631334 Si / 1000 Ang^3
#
#
#
# Elastic Constant Matrix: (Units=GPa)
#
#
# Indices 1 2 3 4 5 6 
#
# 1 238.7516 97.1890 31.3470 0.0000 0.0000 0.0000
# 2 97.1890 110.9684 18.0942 0.0000 0.0000 0.0000
# 3 31.3470 18.0942 37.3961 0.0000 0.0000 0.0000
# 4 0.0000 0.0000 0.0000 17.5596 0.0000 0.0000
# 5 0.0000 0.0000 0.0000 0.0000 42.5967 0.0000
# 6 0.0000 0.0000 0.0000 0.0000 0.0000 36.2481
#
#
#
# Elastic Compliance Matrix: (Units=1/GPa)
#
#
# Indices 1 2 3 4 5 6 
#
# 1 0.006819 -0.005472 -0.003068 0.000000 0.000000 0.000000
# 2 -0.005472 0.014174 -0.002272 0.000000 0.000000 0.000000
# 3 -0.003068 -0.002272 0.030412 0.000000 0.000000 0.000000
# 4 0.000000 0.000000 0.000000 0.056949 0.000000 0.000000
# 5 0.000000 0.000000 0.000000 0.000000 0.023476 0.000000
# 6 0.000000 0.000000 0.000000 0.000000 0.000000 0.027588
#
#
# Mechanical properties :
#
#
# Convention : Reuss Voigt Hill
#
# Bulk Modulus (GPa) = 33.57774 75.59739 54.58757
# Shear Modulus (GPa) = 26.18248 35.31329 30.74789
#
# Velocity S-wave (km/s) = 3.65596 4.24585 3.96190
# Velocity P-wave (km/s) = 5.91292 7.91382 6.98538
#
# Compressibility (1/GPa) = 0.02978163
#
# Stress axis : x y z
#
# Youngs Moduli (GPa) = 146.65655 70.55064 32.88195
#
# Poissons Ratio (x) = 0.38603 0.10089
# Poissons Ratio (y) = 0.80246 0.07470
# Poissons Ratio (z) = 0.44997 0.16027
#
# Static dielectric constant tensor:
#      x y z
#    x 1.705990 0.000000 0.000000 
#    y 0.000000 1.680580 0.000000 
#    z 0.000000 0.000000 1.679260 
# 
# From -- ./inp_files/9684.got.cif
#   From: 2010.05.17/outbox.cif.g08.bks.cpg/sg63_5_cif.got.tgz:9684.got - 2010.06.03 15:47:04.
