data_PCOD9469444
_publ_section_title
;
Structure prediction by ZEFSAII (Michael W. Deem and Ramdas Pophale) SiO2 
 PCOD9469444
Probable space group: C M C M
;
_chemical_formula_sum "Si O2"
_cell_formula_units_Z 128
_cell_length_a 23.265739
_cell_length_b 19.484025
_cell_length_c 17.951494
_cell_angle_alpha 90.000000
_cell_angle_beta 90.000000
_cell_angle_gamma 90.000000
_cell_volume 8137.596059
_symmetry_space_group_name_H-M "C M C M"
_symmetry_group_IT_number 63
_symmetry_cell_setting 'orthorhombic'
loop_
_space_group_symop_operation_xyz
x,y,z
-x,-y,1/2+z
x,-y,-z
-x,y,1/2-z
-x,-y,-z
x,y,1/2-z
-x,y,z
x,-y,1/2+z
1/2+x,1/2+y,z
1/2-x,1/2-y,1/2+z
1/2+x,1/2-y,-z
1/2-x,1/2+y,1/2-z
1/2-x,1/2-y,-z
1/2+x,1/2+y,1/2-z
1/2-x,1/2+y,z
1/2+x,1/2-y,1/2+z
loop_
_atom_site_type_symbol
_atom_site_label
_atom_site_fract_x
_atom_site_fract_y
_atom_site_fract_z
Si Si1 0.840418 0.997825 0.415887
Si Si2 0.719826 0.081644 0.568985
Si Si3 0.564983 0.589227 0.839427
Si Si4 0.066960 0.373253 0.838316
Si Si5 0.127910 0.771901 0.338515
Si Si6 0.253120 0.765280 0.087814
Si Si7 0.782609 0.126356 0.163377
Si Si8 0.325341 0.941453 0.599829
O O1 0.818407 0.070428 0.383905
O O2 0.862563 0.000000 0.500000
O O3 0.784766 0.947440 0.421525
O O4 0.889956 0.967514 0.364905
O O5 0.718763 0.159487 0.596804
O O6 0.699136 0.077735 0.482613
O O7 0.682845 0.022938 0.609491
O O8 0.562787 0.590186 0.750000
O O9 0.500000 0.579517 0.867205
O O10 0.591555 0.662175 0.863247
O O11 0.073066 0.389113 0.750000
O O12 0.089954 0.295902 0.849056
O O13 0.109792 0.419721 0.886169
O O14 0.000000 0.379029 0.857655
O O15 0.140045 0.778291 0.250000
O O16 0.188363 0.767748 0.380449
O O17 0.284740 0.702267 0.128565
O O18 0.250000 0.750000 0.000000
O O19 0.798820 0.125973 0.250000
O O20 0.716571 0.100170 0.155007
#
# Coordination Sequence:
#
# PCOD9469444 Si02
#       8
#    16  16  16  16  16  16  16  16
#     4  11  19  36  54  74 104 139 176 218 265 316
#     4  10  19  33  51  76 104 137 170 216 267 315
#     4  10  21  35  52  76 106 139 174 214 262 314
#     4  10  19  32  50  73 103 138 172 208 258 316
#     4  10  19  31  49  75 107 135 170 212 261 319
#     4  12  19  31  52  78 104 145 171 212 264 324
#     4  11  21  32  50  77 107 138 177 220 262 314
#     4  10  18  34  51  74 105 136 172 215 262 313
#
# _framework density 15.729461000000001
#
# number of rings (size 3 to 8) (size 9 to 14) (size 15 to 20)
#    0.000    1.500    6.250    1.500    0.000    1.750 
#    0.000    3.125    0.000    0.000    0.000    0.875 
#    0.000    2.000    0.000    0.000    0.000    0.000 
#
# Total GULP energy -356875.175759 kJ/mol
# GULP energy per Si atom -5576.174621 kJ/mol
# Density = 1.569366 g / cm^3
# Si number density = 15.729461 Si / 1000 Ang^3
#
#
#
# Elastic Constant Matrix: (Units=GPa)
#
#
# Indices 1 2 3 4 5 6 
#
# 1 111.7443 49.0063 25.6299 0.0000 0.0000 0.0000
# 2 49.0063 132.0195 33.5734 0.0000 0.0000 0.0000
# 3 25.6299 33.5734 50.1567 0.0000 0.0000 0.0000
# 4 0.0000 0.0000 0.0000 18.3005 0.0000 0.0000
# 5 0.0000 0.0000 0.0000 0.0000 20.8373 0.0000
# 6 0.0000 0.0000 0.0000 0.0000 0.0000 10.5243
#
#
#
# Elastic Compliance Matrix: (Units=1/GPa)
#
#
# Indices 1 2 3 4 5 6 
#
# 1 0.011187 -0.003253 -0.003539 0.000000 0.000000 0.000000
# 2 -0.003253 0.010074 -0.005081 0.000000 0.000000 0.000000
# 3 -0.003539 -0.005081 0.025147 0.000000 0.000000 0.000000
# 4 0.000000 0.000000 0.000000 0.054643 0.000000 0.000000
# 5 0.000000 0.000000 0.000000 0.000000 0.047991 0.000000
# 6 0.000000 0.000000 0.000000 0.000000 0.000000 0.095018
#
#
# Mechanical properties :
#
#
# Convention : Reuss Voigt Hill
#
# Bulk Modulus (GPa) = 44.12642 56.70441 50.41542
# Shear Modulus (GPa) = 18.15788 22.31313 20.23551
#
# Velocity S-wave (km/s) = 3.40131 3.77046 3.59063
# Velocity P-wave (km/s) = 6.59845 7.42181 7.02220
#
# Compressibility (1/GPa) = 0.02266216
#
# Stress axis : x y z
#
# Youngs Moduli (GPa) = 89.38701 99.26284 39.76554
#
# Poissons Ratio (x) = 0.32287 0.14075
# Poissons Ratio (y) = 0.29075 0.20206
# Poissons Ratio (z) = 0.31638 0.50438
#
# Static dielectric constant tensor:
#      x y z
#    x 1.507420 0.000000 0.000000 
#    y 0.000000 1.546610 0.000000 
#    z 0.000000 0.000000 1.534140 
# 
# From -- ./inp_files/48425.got.cif
#   From: 2010.05.17/outbox.cif.g08.bks.cpg/sg63_25_cif.got.tgz:48425.got - 2010.06.03 15:47:04.
