data_PCOD9469048
_publ_section_title
;
Structure prediction by ZEFSAII (Michael W. Deem and Ramdas Pophale) SiO2 
 PCOD9469048
Probable space group: C M C M
;
_chemical_formula_sum "Si O2"
_cell_formula_units_Z 92
_cell_length_a 22.205808
_cell_length_b 28.286527
_cell_length_c 7.818495
_cell_angle_alpha 90.000000
_cell_angle_beta 90.000000
_cell_angle_gamma 90.000000
_cell_volume 4910.993638
_symmetry_space_group_name_H-M "C M C M"
_symmetry_group_IT_number 63
_symmetry_cell_setting 'orthorhombic'
loop_
_space_group_symop_operation_xyz
x,y,z
-x,-y,1/2+z
x,-y,-z
-x,y,1/2-z
-x,-y,-z
x,y,1/2-z
-x,y,z
x,-y,1/2+z
1/2+x,1/2+y,z
1/2-x,1/2-y,1/2+z
1/2+x,1/2-y,-z
1/2-x,1/2+y,1/2-z
1/2-x,1/2-y,-z
1/2+x,1/2+y,1/2-z
1/2-x,1/2+y,z
1/2+x,1/2-y,1/2+z
loop_
_atom_site_type_symbol
_atom_site_label
_atom_site_fract_x
_atom_site_fract_y
_atom_site_fract_z
Si Si1 0.000000 0.054827 0.543833
Si Si2 0.307536 0.151196 0.448646
Si Si3 0.873704 0.094591 0.541759
Si Si4 0.820112 0.805195 0.045799
Si Si5 0.500000 0.225788 0.250000
Si Si6 0.598376 0.220050 0.559867
Si Si7 0.248488 0.552999 0.545890
O O1 0.061694 0.077800 0.478359
O O2 0.000000 0.060118 0.750000
O O3 0.000000 0.000000 0.500000
O O4 0.318402 0.159433 0.250000
O O5 0.248100 0.181025 0.499891
O O6 0.365638 0.170615 0.545176
O O7 0.291588 0.096252 0.478358
O O8 0.874548 0.092252 0.750000
O O9 0.858764 0.148418 0.496465
O O10 0.817106 0.062895 0.483519
O O11 0.823142 0.799354 0.250000
O O12 0.849873 0.760002 0.960858
O O13 0.552400 0.225639 0.402961
O O14 0.571909 0.224447 0.750000
O O15 0.229784 0.500000 0.500000
O O16 0.248906 0.557601 0.750000
#
# Coordination Sequence:
#
# PCOD9469048 Si02
#       7
#     8  16  16  16   4  16  16
#     4  10  18  31  46  66  93 144 200 245 293 343
#     4  11  21  37  60  90 123 158 202 251 309 366
#     4   8  17  30  48  73 106 151 199 244 301 356
#     4  10  19  36  57  87 121 158 201 257 309 359
#     4  12  26  46  60  90 124 164 202 240 300 360
#     4  12  24  42  64  91 124 161 206 248 300 367
#     4  10  19  33  52  81 117 151 191 249 314 366
#
# _framework density 18.73348
#
# number of rings (size 3 to 8) (size 9 to 14) (size 15 to 20)
#    0.000    1.739    1.739    4.957    0.000    0.696 
#    1.565    4.348    0.000    0.000    0.000    0.609 
#    0.000    0.000    0.000    0.000    0.000    0.000 
#
# Total GULP energy -256327.793023 kJ/mol
# GULP energy per Si atom -5572.343327 kJ/mol
# Density = 1.869084 g / cm^3
# Si number density = 18.733480 Si / 1000 Ang^3
#
#
#
# Elastic Constant Matrix: (Units=GPa)
#
#
# Indices 1 2 3 4 5 6 
#
# 1 42.5398 35.7140 22.3850 0.0000 0.0000 0.0000
# 2 35.7140 86.2158 13.5670 0.0000 0.0000 0.0000
# 3 22.3850 13.5670 107.7666 0.0000 0.0000 0.0000
# 4 0.0000 0.0000 0.0000 22.1785 0.0000 0.0000
# 5 0.0000 0.0000 0.0000 0.0000 25.8163 0.0000
# 6 0.0000 0.0000 0.0000 0.0000 0.0000 5.6712
#
#
#
# Elastic Compliance Matrix: (Units=1/GPa)
#
#
# Indices 1 2 3 4 5 6 
#
# 1 0.039865 -0.015518 -0.006327 0.000000 0.000000 0.000000
# 2 -0.015518 0.017874 0.000973 0.000000 0.000000 0.000000
# 3 -0.006327 0.000973 0.010471 0.000000 0.000000 0.000000
# 4 0.000000 0.000000 0.000000 0.045089 0.000000 0.000000
# 5 0.000000 0.000000 0.000000 0.000000 0.038735 0.000000
# 6 0.000000 0.000000 0.000000 0.000000 0.000000 0.176330
#
#
# Mechanical properties :
#
#
# Convention : Reuss Voigt Hill
#
# Bulk Modulus (GPa) = 37.78427 42.20601 39.99514
# Shear Modulus (GPa) = 13.19508 21.72359 17.45934
#
# Velocity S-wave (km/s) = 2.65685 3.40900 3.05616
# Velocity P-wave (km/s) = 5.44289 6.17039 5.81802
#
# Compressibility (1/GPa) = 0.02646604
#
# Stress axis : x y z
#
# Youngs Moduli (GPa) = 25.08478 55.94773 95.50153
#
# Poissons Ratio (x) = 0.86819 0.60424
# Poissons Ratio (y) = 0.38926 -0.09294
# Poissons Ratio (z) = 0.15871 -0.05445
#
# Static dielectric constant tensor:
#      x y z
#    x 1.655140 0.000000 0.000000 
#    y 0.000000 1.664070 0.000000 
#    z 0.000000 0.000000 1.679690 
# 
# From -- ./inp_files/8678.got.cif
#   From: 2010.05.17/outbox.cif.g08.bks.cpg/sg63_5_cif.got.tgz:8678.got - 2010.06.03 15:47:04.
