data_PCOD9469776
_publ_section_title
;
Structure prediction by ZEFSAII (Michael W. Deem and Ramdas Pophale) SiO2 
 PCOD9469776
Probable space group: C M C M
;
_chemical_formula_sum "Si O2"
_cell_formula_units_Z 96
_cell_length_a 7.333009
_cell_length_b 25.837739
_cell_length_c 24.571048
_cell_angle_alpha 90.000000
_cell_angle_beta 90.000000
_cell_angle_gamma 90.000000
_cell_volume 4655.436478
_symmetry_space_group_name_H-M "C M C M"
_symmetry_group_IT_number 63
_symmetry_cell_setting 'orthorhombic'
loop_
_space_group_symop_operation_xyz
x,y,z
-x,-y,1/2+z
x,-y,-z
-x,y,1/2-z
-x,-y,-z
x,y,1/2-z
-x,y,z
x,-y,1/2+z
1/2+x,1/2+y,z
1/2-x,1/2-y,1/2+z
1/2+x,1/2-y,-z
1/2-x,1/2+y,1/2-z
1/2-x,1/2-y,-z
1/2+x,1/2+y,1/2-z
1/2-x,1/2+y,z
1/2+x,1/2-y,1/2+z
loop_
_atom_site_type_symbol
_atom_site_label
_atom_site_fract_x
_atom_site_fract_y
_atom_site_fract_z
Si Si1 0.277601 0.671032 0.059851
Si Si2 0.777328 0.229512 0.250000
Si Si3 0.216822 0.734082 0.866947
Si Si4 0.777930 0.072064 0.132611
Si Si5 0.222442 0.978176 0.440918
Si Si6 0.282464 0.360688 0.441188
Si Si7 0.777873 0.108855 0.250000
O O1 0.500000 0.672323 0.059046
O O2 0.213867 0.722512 0.090728
O O3 0.225199 0.620622 0.094813
O O4 0.214815 0.664239 0.997834
O O5 0.714758 0.255868 0.305975
O O6 0.724829 0.169146 0.250000
O O7 0.000000 0.230751 0.250000
O O8 0.247538 0.677721 0.891590
O O9 0.000000 0.742105 0.864274
O O10 0.718512 0.018718 0.104980
O O11 0.718159 0.081953 0.194252
O O12 0.000000 0.071923 0.132890
O O13 0.000000 0.977990 0.440210
O O14 0.275682 0.000000 0.500000
O O15 0.284886 0.919241 0.434013
O O16 0.500000 0.364829 0.447178
O O17 0.000000 0.108353 0.250000
#
# Coordination Sequence:
#
# PCOD9469776 Si02
#       7
#    16   8  16  16  16  16   8
#     4   9  15  25  44  68  92 116 147 187 228 270
#     4   9  16  28  46  65  87 119 157 192 229 272
#     4  10  19  31  47  68  92 119 155 196 232 269
#     4   9  14  22  39  65  89 111 145 191 234 264
#     4   9  15  25  42  63  89 122 155 183 219 274
#     4  10  19  30  45  69  98 127 152 179 224 284
#     4   9  14  22  39  63  91 113 141 194 243 264
#
# _framework density 20.621053
#
# number of rings (size 3 to 8) (size 9 to 14) (size 15 to 20)
#    0.000    2.667    3.333    0.500    0.000    0.000 
#    0.000    1.250    0.000    2.500    0.000    0.000 
#    0.000    0.000    0.000    0.000    0.000    0.000 
#
# Total GULP energy -268095.639240 kJ/mol
# GULP energy per Si atom -5585.325817 kJ/mol
# Density = 2.057412 g / cm^3
# Si number density = 20.621053 Si / 1000 Ang^3
#
#
#
# Elastic Constant Matrix: (Units=GPa)
#
#
# Indices 1 2 3 4 5 6 
#
# 1 78.4183 0.9755 2.6286 0.0000 0.0000 0.0000
# 2 0.9755 192.9088 121.5712 0.0000 0.0000 0.0000
# 3 2.6286 121.5712 197.7266 0.0000 0.0000 0.0000
# 4 0.0000 0.0000 0.0000 39.0068 0.0000 0.0000
# 5 0.0000 0.0000 0.0000 0.0000 -1.3806 0.0000
# 6 0.0000 0.0000 0.0000 0.0000 0.0000**********
#
#
#
# Elastic Compliance Matrix: (Units=1/GPa)
#
#
# Indices 1 2 3 4 5 6 
#
# 1 0.012758 0.000069 -0.000212 0.000000 0.000000 0.000000
# 2 0.000069 0.008463 -0.005205 0.000000 0.000000 0.000000
# 3 -0.000212 -0.005205 0.008260 0.000000 0.000000 0.000000
# 4 0.000000 0.000000 0.000000 0.025637 0.000000 0.000000
# 5 0.000000 0.000000 0.000000 0.000000 -0.724313 0.000000
# 6 0.000000 0.000000 0.000000 0.000000 0.000000 -0.000023
#
#
# Mechanical properties :
#
#
# Convention : Reuss Voigt Hill
#
# Bulk Modulus (GPa) = 53.22840 79.93381 66.58110
# Shear Modulus (GPa) = -7.66565 -8511.19930 -4259.43247
#
# Velocity S-wave (km/s) = -1.93014 -64.31479 -45.49790
# Velocity P-wave (km/s) = 4.57181 74.00231 52.22758
#
# Compressibility (1/GPa) = 0.01878696
#
# Stress axis : x y z
#
# Youngs Moduli (GPa) = 78.37993 118.15609 121.06064
#
# Poissons Ratio (x) = -0.00817 0.02568
# Poissons Ratio (y) = -0.00542 0.63007
# Poissons Ratio (z) = 0.01663 0.61495
#
# Static dielectric constant tensor:
#      x y z
#    x 1.852720 0.000000 0.000000 
#    y 0.000000 1.698580 0.000000 
#    z 0.000000 0.000000 1.708990 
# 
# From -- ./inp_files/53110.got.cif
#   From: 2010.05.17/outbox.cif.g08.bks.cpg/sg63_27_cif.got.tgz:53110.got - 2010.06.03 15:47:04.
