data_PCOD9469972
_publ_section_title
;
Structure prediction by ZEFSAII (Michael W. Deem and Ramdas Pophale) SiO2 
 PCOD9469972
Probable space group: C M C M
;
_chemical_formula_sum "Si O2"
_cell_formula_units_Z 96
_cell_length_a 8.993074
_cell_length_b 24.336347
_cell_length_c 26.521391
_cell_angle_alpha 90.000000
_cell_angle_beta 90.000000
_cell_angle_gamma 90.000000
_cell_volume 5804.433694
_symmetry_space_group_name_H-M "C M C M"
_symmetry_group_IT_number 63
_symmetry_cell_setting 'orthorhombic'
loop_
_space_group_symop_operation_xyz
x,y,z
-x,-y,1/2+z
x,-y,-z
-x,y,1/2-z
-x,-y,-z
x,y,1/2-z
-x,y,z
x,-y,1/2+z
1/2+x,1/2+y,z
1/2-x,1/2-y,1/2+z
1/2+x,1/2-y,-z
1/2-x,1/2+y,1/2-z
1/2-x,1/2-y,-z
1/2+x,1/2+y,1/2-z
1/2-x,1/2+y,z
1/2+x,1/2-y,1/2+z
loop_
_atom_site_type_symbol
_atom_site_label
_atom_site_fract_x
_atom_site_fract_y
_atom_site_fract_z
Si Si1 0.171041 0.583643 0.117568
Si Si2 0.177967 0.140464 0.931153
Si Si3 0.172355 0.320303 0.534249
Si Si4 0.678043 0.239870 0.887610
Si Si5 0.821070 0.833168 0.691824
Si Si6 0.178703 0.013133 0.557810
O O1 0.174283 0.627727 0.071901
O O2 0.251102 0.614658 0.163495
O O3 0.250221 0.529660 0.096446
O O4 0.000000 0.572322 0.130193
O O5 0.249168 0.179846 0.889024
O O6 0.214731 0.075934 0.928140
O O7 0.000000 0.146240 0.931391
O O8 0.245438 0.161765 0.983793
O O9 0.257715 0.272453 0.563956
O O10 0.000000 0.305141 0.524759
O O11 0.500000 0.236084 0.890704
O O12 0.718393 0.278376 0.840001
O O13 0.775430 0.829546 0.750000
O O14 0.000000 0.837980 0.689602
O O15 0.000000 0.006824 0.558876
O O16 0.226802 0.000000 0.500000
#
# Coordination Sequence:
#
# PCOD9469972 Si02
#       6
#    16  16  16  16  16  16
#     4  10  20  32  51  79 107 134 169 216 261 302
#     4  11  21  32  48  70 101 139 176 209 247 296
#     4  10  19  31  47  70 102 137 171 206 249 300
#     4  10  20  33  50  73 101 130 166 211 257 306
#     4   9  19  37  60  80  99 129 168 211 261 314
#     4  10  20  34  51  71 101 143 183 214 248 300
#
# _framework density 16.539080999999999
#
# number of rings (size 3 to 8) (size 9 to 14) (size 15 to 20)
#    0.000    2.000    1.667    2.500    0.000    4.000 
#    0.000    0.000    0.000    1.000    0.000    4.667 
#    0.000    0.000    0.000    0.000    0.000    0.000 
#
# Total GULP energy -267882.858904 kJ/mol
# GULP energy per Si atom -5580.892894 kJ/mol
# Density = 1.650144 g / cm^3
# Si number density = 16.539081 Si / 1000 Ang^3
#
#
#
# Elastic Constant Matrix: (Units=GPa)
#
#
# Indices 1 2 3 4 5 6 
#
# 1 61.0273 64.1932 39.4547 0.0000 0.0000 0.0000
# 2 64.1932 147.3825 66.0598 0.0000 0.0000 0.0000
# 3 39.4547 66.0598 99.2275 0.0000 0.0000 0.0000
# 4 0.0000 0.0000 0.0000 9.5219 0.0000 0.0000
# 5 0.0000 0.0000 0.0000 0.0000 15.9839 0.0000
# 6 0.0000 0.0000 0.0000 0.0000 0.0000 30.9162
#
#
#
# Elastic Compliance Matrix: (Units=1/GPa)
#
#
# Indices 1 2 3 4 5 6 
#
# 1 0.031818 -0.011670 -0.004882 0.000000 0.000000 0.000000
# 2 -0.011670 0.013951 -0.004648 0.000000 0.000000 0.000000
# 3 -0.004882 -0.004648 0.015113 0.000000 0.000000 0.000000
# 4 0.000000 0.000000 0.000000 0.105021 0.000000 0.000000
# 5 0.000000 0.000000 0.000000 0.000000 0.062563 0.000000
# 6 0.000000 0.000000 0.000000 0.000000 0.000000 0.032346
#
#
# Mechanical properties :
#
#
# Convention : Reuss Voigt Hill
#
# Bulk Modulus (GPa) = 54.10493 71.89474 62.99984
# Shear Modulus (GPa) = 16.16171 20.47970 18.32070
#
# Velocity S-wave (km/s) = 3.12938 3.52271 3.33186
# Velocity P-wave (km/s) = 6.77066 7.75306 7.27845
#
# Compressibility (1/GPa) = 0.01848260
#
# Stress axis : x y z
#
# Youngs Moduli (GPa) = 31.42857 71.67790 66.16751
#
# Poissons Ratio (x) = 0.83651 0.32303
# Poissons Ratio (y) = 0.36678 0.30752
# Poissons Ratio (z) = 0.15344 0.33313
#
# Static dielectric constant tensor:
#      x y z
#    x 1.556770 0.000000 0.000000 
#    y 0.000000 1.566410 0.000000 
#    z 0.000000 0.000000 1.538820 
# 
# From -- ./inp_files/59855.got.cif
#   From: 2010.05.17/outbox.cif.g08.bks.cpg/sg63_30_cif.got.tgz:59855.got - 2010.06.03 15:47:04.
