data_PCOD9469112
_publ_section_title
;
Structure prediction by ZEFSAII (Michael W. Deem and Ramdas Pophale) SiO2 
 PCOD9469112
Probable space group: C M C M
;
_chemical_formula_sum "Si O2"
_cell_formula_units_Z 116
_cell_length_a 24.286766
_cell_length_b 29.630360
_cell_length_c 7.378014
_cell_angle_alpha 90.000000
_cell_angle_beta 90.000000
_cell_angle_gamma 90.000000
_cell_volume 5309.407898
_symmetry_space_group_name_H-M "C M C M"
_symmetry_group_IT_number 63
_symmetry_cell_setting 'orthorhombic'
loop_
_space_group_symop_operation_xyz
x,y,z
-x,-y,1/2+z
x,-y,-z
-x,y,1/2-z
-x,-y,-z
x,y,1/2-z
-x,y,z
x,-y,1/2+z
1/2+x,1/2+y,z
1/2-x,1/2-y,1/2+z
1/2+x,1/2-y,-z
1/2-x,1/2+y,1/2-z
1/2-x,1/2-y,-z
1/2+x,1/2+y,1/2-z
1/2-x,1/2+y,z
1/2+x,1/2-y,1/2+z
loop_
_atom_site_type_symbol
_atom_site_label
_atom_site_fract_x
_atom_site_fract_y
_atom_site_fract_z
Si Si1 0.585479 0.092323 0.530497
Si Si2 0.893542 0.690508 0.531880
Si Si3 0.731744 0.801532 0.033801
Si Si4 0.802784 0.449402 0.464292
Si Si5 0.939167 0.788764 0.463196
Si Si6 0.841006 0.851952 0.471974
Si Si7 0.500000 0.943369 0.750000
Si Si8 0.821606 0.050354 0.533606
O O1 0.578844 0.085751 0.750000
O O2 0.574944 0.144673 0.482171
O O3 0.649292 0.083956 0.479976
O O4 0.547545 0.060831 0.410230
O O5 0.890794 0.689914 0.750000
O O6 0.830214 0.691254 0.464105
O O7 0.923476 0.736329 0.478968
O O8 0.728928 0.808511 0.250000
O O9 0.780929 0.833939 0.968220
O O10 0.750000 0.750000 0.000000
O O11 0.823102 0.500000 0.500000
O O12 0.797138 0.442431 0.250000
O O13 0.741165 0.447078 0.540105
O O14 0.941847 0.799345 0.250000
O O15 0.889075 0.818766 0.536568
O O16 0.000000 0.796902 0.540090
O O17 0.840191 0.850031 0.250000
O O18 0.850565 0.903770 0.527852
O O19 0.818857 0.053594 0.750000
O O20 0.843747 0.000000 0.500000
#
# Coordination Sequence:
#
# PCOD9469112 Si02
#       8
#    16  16  16  16  16  16   4  16
#     4  10  23  41  58  81 111 147 189 243 297 339
#     4  10  21  35  54  77 107 143 183 227 283 340
#     4  10  18  31  51  77 107 142 176 216 275 332
#     4   9  18  34  59  82 109 140 175 226 285 350
#     4  10  21  34  52  76 103 142 190 228 263 318
#     4   9  17  32  53  76 110 144 174 221 275 331
#     4  12  26  40  62  82 106 148 202 246 280 342
#     4   9  17  32  56  84 109 141 176 218 282 341
#
# _framework density 21.848009999999999
#
# number of rings (size 3 to 8) (size 9 to 14) (size 15 to 20)
#    0.000    2.345    1.379    1.034    2.897    3.586 
#    0.000    1.724    0.000    0.414    0.000    0.000 
#    0.000    0.000    0.000    0.000    0.000    0.000 
#
# Total GULP energy -323271.894681 kJ/mol
# GULP energy per Si atom -5573.653357 kJ/mol
# Density = 2.179828 g / cm^3
# Si number density = 21.848010 Si / 1000 Ang^3
#
#
#
# Elastic Constant Matrix: (Units=GPa)
#
#
# Indices 1 2 3 4 5 6 
#
# 1 60.8165 -3.3874 5.6390 0.0000 0.0000 0.0000
# 2 -3.3874 84.8078 -11.3246 0.0000 0.0000 0.0000
# 3 5.6390 -11.3246 86.3531 0.0000 0.0000 0.0000
# 4 0.0000 0.0000 0.0000 17.6632 0.0000 0.0000
# 5 0.0000 0.0000 0.0000 0.0000 4.4724 0.0000
# 6 0.0000 0.0000 0.0000 0.0000 0.0000 -19.5702
#
#
#
# Elastic Compliance Matrix: (Units=1/GPa)
#
#
# Indices 1 2 3 4 5 6 
#
# 1 0.016566 0.000526 -0.001013 0.000000 0.000000 0.000000
# 2 0.000526 0.012018 0.001542 0.000000 0.000000 0.000000
# 3 -0.001013 0.001542 0.011849 0.000000 0.000000 0.000000
# 4 0.000000 0.000000 0.000000 0.056615 0.000000 0.000000
# 5 0.000000 0.000000 0.000000 0.000000 0.223594 0.000000
# 6 0.000000 0.000000 0.000000 0.000000 0.000000 -0.051098
#
#
# Mechanical properties :
#
#
# Convention : Reuss Voigt Hill
#
# Bulk Modulus (GPa) = 23.50510 23.75903 23.63206
# Shear Modulus (GPa) = 17.75479 16.58311 17.16895
#
# Velocity S-wave (km/s) = 2.85379 2.75802 2.80632
# Velocity P-wave (km/s) = 4.65195 4.58700 4.61959
#
# Compressibility (1/GPa) = 0.04254397
#
# Stress axis : x y z
#
# Youngs Moduli (GPa) = 60.36411 83.20671 84.39757
#
# Poissons Ratio (x) = -0.04381 0.08547
# Poissons Ratio (y) = -0.03178 -0.13012
# Poissons Ratio (z) = 0.06113 -0.12828
#
# Static dielectric constant tensor:
#      x y z
#    x 1.785630 0.000000 0.000000 
#    y 0.000000 1.808540 0.000000 
#    z 0.000000 0.000000 1.868970 
# 
# From -- ./inp_files/11187.got.cif
#   From: 2010.05.17/outbox.cif.g08.bks.cpg/sg63_6_cif.got.tgz:11187.got - 2010.06.03 15:47:04.
