data_PCOD9469160
_publ_section_title
;
Structure prediction by ZEFSAII (Michael W. Deem and Ramdas Pophale) SiO2 
 PCOD9469160
Probable space group: C M C M
;
_chemical_formula_sum "Si O2"
_cell_formula_units_Z 116
_cell_length_a 25.935237
_cell_length_b 14.797542
_cell_length_c 14.222477
_cell_angle_alpha 90.000000
_cell_angle_beta 90.000000
_cell_angle_gamma 90.000000
_cell_volume 5458.270347
_symmetry_space_group_name_H-M "C M C M"
_symmetry_group_IT_number 63
_symmetry_cell_setting 'orthorhombic'
loop_
_space_group_symop_operation_xyz
x,y,z
-x,-y,1/2+z
x,-y,-z
-x,y,1/2-z
-x,-y,-z
x,y,1/2-z
-x,y,z
x,-y,1/2+z
1/2+x,1/2+y,z
1/2-x,1/2-y,1/2+z
1/2+x,1/2-y,-z
1/2-x,1/2+y,1/2-z
1/2-x,1/2-y,-z
1/2+x,1/2+y,1/2-z
1/2-x,1/2+y,z
1/2+x,1/2-y,1/2+z
loop_
_atom_site_type_symbol
_atom_site_label
_atom_site_fract_x
_atom_site_fract_y
_atom_site_fract_z
Si Si1 0.253414 0.292400 0.361713
Si Si2 0.661885 0.031370 0.393080
Si Si3 0.917707 0.663102 0.456732
Si Si4 0.000000 0.500000 0.500000
Si Si5 0.837027 0.938402 0.134328
Si Si6 0.865331 0.343085 0.148135
Si Si7 0.056442 0.148872 0.863207
Si Si8 0.770720 0.099128 0.356432
O O1 0.265838 0.281872 0.250000
O O2 0.296923 0.360433 0.397126
O O3 0.195702 0.331107 0.367638
O O4 0.247545 0.192054 0.403812
O O5 0.630142 0.123874 0.396118
O O6 0.718292 0.041568 0.350977
O O7 0.669428 0.000000 0.500000
O O8 0.628420 0.951419 0.349187
O O9 0.896628 0.691717 0.559451
O O10 0.939606 0.750726 0.406140
O O11 0.955372 0.577605 0.473847
O O12 0.834899 0.941324 0.250000
O O13 0.894481 0.910497 0.106498
O O14 0.814962 0.035493 0.102506
O O15 0.879245 0.304168 0.250000
O O16 0.059501 0.156759 0.750000
O O17 0.000000 0.110790 0.887304
O O18 0.787662 0.122718 0.250000
#
# Coordination Sequence:
#
# PCOD9469160 Si02
#       8
#    16  16  16   4  16  16  16  16
#     4   9  17  30  51  80 111 144 184 225 276 340
#     4  10  19  32  47  76 110 145 178 224 270 328
#     4  11  22  38  55  80 114 146 185 240 274 334
#     4  12  20  40  54  76 116 136 184 236 272 332
#     4   9  17  31  52  83 114 146 190 234 279 338
#     4  10  19  35  55  76 110 153 185 218 276 340
#     4  10  21  37  58  80 106 144 190 237 290 340
#     4  10  18  31  53  78 113 150 183 230 278 333
#
# _framework density 21.252154000000001
#
# number of rings (size 3 to 8) (size 9 to 14) (size 15 to 20)
#    0.000    2.069    4.138    1.241    0.000    2.207 
#    2.483    3.103    0.000    0.000    1.793    0.966 
#    0.000    0.000    0.000    0.000    0.000    0.000 
#
# Total GULP energy -323119.252389 kJ/mol
# GULP energy per Si atom -5571.021593 kJ/mol
# Density = 2.120378 g / cm^3
# Si number density = 21.252154 Si / 1000 Ang^3
#
#
#
# Elastic Constant Matrix: (Units=GPa)
#
#
# Indices 1 2 3 4 5 6 
#
# 1 127.9023 42.3554 16.4515 0.0000 0.0000 0.0000
# 2 42.3554 88.9349 -1.4997 0.0000 0.0000 0.0000
# 3 16.4515 -1.4997 48.7573 0.0000 0.0000 0.0000
# 4 0.0000 0.0000 0.0000 13.4288 0.0000 0.0000
# 5 0.0000 0.0000 0.0000 0.0000 0.8933 0.0000
# 6 0.0000 0.0000 0.0000 0.0000 0.0000 21.7355
#
#
#
# Elastic Compliance Matrix: (Units=1/GPa)
#
#
# Indices 1 2 3 4 5 6 
#
# 1 0.009834 -0.004742 -0.003464 0.000000 0.000000 0.000000
# 2 -0.004742 0.013537 0.002016 0.000000 0.000000 0.000000
# 3 -0.003464 0.002016 0.021741 0.000000 0.000000 0.000000
# 4 0.000000 0.000000 0.000000 0.074467 0.000000 0.000000
# 5 0.000000 0.000000 0.000000 0.000000 1.119453 0.000000
# 6 0.000000 0.000000 0.000000 0.000000 0.000000 0.046008
#
#
# Mechanical properties :
#
#
# Convention : Reuss Voigt Hill
#
# Bulk Modulus (GPa) = 30.55112 42.24543 36.39827
# Shear Modulus (GPa) = 3.82167 21.09734 12.45951
#
# Velocity S-wave (km/s) = 1.34244 3.15416 2.42393
# Velocity P-wave (km/s) = 4.09995 5.76075 4.99980
#
# Compressibility (1/GPa) = 0.03273203
#
# Stress axis : x y z
#
# Youngs Moduli (GPa) = 101.68384 73.87379 45.99687
#
# Poissons Ratio (x) = 0.35031 0.15934
# Poissons Ratio (y) = 0.48219 -0.09275
# Poissons Ratio (z) = 0.35225 -0.14896
#
# Static dielectric constant tensor:
#      x y z
#    x 1.759700 0.000000 0.000000 
#    y 0.000000 1.818590 0.000000 
#    z 0.000000 0.000000 1.835580 
# 
# From -- ./inp_files/49174.got.cif
#   From: 2010.05.17/outbox.cif.g08.bks.cpg/sg63_25_cif.got.tgz:49174.got - 2010.06.03 15:47:04.
