data_PCOD9469702
_publ_section_title
;
Structure prediction by ZEFSAII (Michael W. Deem and Ramdas Pophale) SiO2 
 PCOD9469702
Probable space group: C M C M
;
_chemical_formula_sum "Si O2"
_cell_formula_units_Z 96
_cell_length_a 7.344702
_cell_length_b 31.252161
_cell_length_c 19.861507
_cell_angle_alpha 90.000000
_cell_angle_beta 90.000000
_cell_angle_gamma 90.000000
_cell_volume 4558.966808
_symmetry_space_group_name_H-M "C M C M"
_symmetry_group_IT_number 63
_symmetry_cell_setting 'orthorhombic'
loop_
_space_group_symop_operation_xyz
x,y,z
-x,-y,1/2+z
x,-y,-z
-x,y,1/2-z
-x,-y,-z
x,y,1/2-z
-x,y,z
x,-y,1/2+z
1/2+x,1/2+y,z
1/2-x,1/2-y,1/2+z
1/2+x,1/2-y,-z
1/2-x,1/2+y,1/2-z
1/2-x,1/2-y,-z
1/2+x,1/2+y,1/2-z
1/2-x,1/2+y,z
1/2+x,1/2-y,1/2+z
loop_
_atom_site_type_symbol
_atom_site_label
_atom_site_fract_x
_atom_site_fract_y
_atom_site_fract_z
Si Si1 0.722480 0.360980 0.912663
Si Si2 0.718825 0.816294 0.173887
Si Si3 0.714216 0.614201 0.939737
Si Si4 0.722041 0.444179 0.672763
Si Si5 0.221650 0.219677 0.172598
Si Si6 0.278101 0.481726 0.073089
O O1 0.500000 0.359922 0.912798
O O2 0.776245 0.401521 0.867290
O O3 0.783159 0.316924 0.878257
O O4 0.785722 0.368320 0.989041
O O5 0.781983 0.826173 0.250000
O O6 0.500000 0.814848 0.176130
O O7 0.767236 0.851631 0.119434
O O8 0.780327 0.768094 0.156141
O O9 0.500000 0.607622 0.951456
O O10 0.785522 0.567165 0.920982
O O11 0.781708 0.443966 0.750000
O O12 0.500000 0.444259 0.673180
O O13 0.781589 0.485885 0.631268
O O14 0.274469 0.210324 0.250000
O O15 0.000000 0.219502 0.171681
O O16 0.500000 0.482133 0.075182
O O17 0.226269 0.500000 0.000000
#
# Coordination Sequence:
#
# PCOD9469702 Si02
#       6
#    16  16  16  16  16  16
#     4   9  15  24  40  66  94 117 146 189 236 276
#     4   9  19  35  50  64  88 123 159 194 230 270
#     4  10  19  29  47  72  97 123 149 186 236 279
#     4   9  15  22  36  60  89 121 155 188 223 268
#     4   8  14  26  44  63  87 122 158 191 229 271
#     4   9  15  26  40  59  94 131 151 175 226 280
#
# _framework density 21.057400999999999
#
# number of rings (size 3 to 8) (size 9 to 14) (size 15 to 20)
#    0.000    3.000    1.667    1.500    0.000    3.667 
#    0.000    1.667    0.000    0.500    0.000    0.000 
#    0.000    2.000    0.000    0.000    0.000    0.000 
#
# Total GULP energy -267988.375381 kJ/mol
# GULP energy per Si atom -5583.091154 kJ/mol
# Density = 2.100947 g / cm^3
# Si number density = 21.057401 Si / 1000 Ang^3
#
#
#
# Elastic Constant Matrix: (Units=GPa)
#
#
# Indices 1 2 3 4 5 6 
#
# 1 75.2591 -2.8218 -3.5530 0.0000 0.0000 0.0000
# 2 -2.8218 212.2107 140.7656 0.0000 0.0000 0.0000
# 3 -3.5530 140.7656 188.2861 0.0000 0.0000 0.0000
# 4 0.0000 0.0000 0.0000 42.8003 0.0000 0.0000
# 5 0.0000 0.0000 0.0000 0.0000 -1.8025 0.0000
# 6 0.0000 0.0000 0.0000 0.0000 0.0000 11.2491
#
#
#
# Elastic Compliance Matrix: (Units=1/GPa)
#
#
# Indices 1 2 3 4 5 6 
#
# 1 0.013299 0.000021 0.000236 0.000000 0.000000 0.000000
# 2 0.000021 0.009348 -0.006989 0.000000 0.000000 0.000000
# 3 0.000236 -0.006989 0.010540 0.000000 0.000000 0.000000
# 4 0.000000 0.000000 0.000000 0.023364 0.000000 0.000000
# 5 0.000000 0.000000 0.000000 0.000000 -0.554780 0.000000
# 6 0.000000 0.000000 0.000000 0.000000 0.000000 0.088896
#
#
# Mechanical properties :
#
#
# Convention : Reuss Voigt Hill
#
# Bulk Modulus (GPa) = 50.70199 82.72639 66.71419
# Shear Modulus (GPa) = -12.84381 33.20705 10.18162
#
# Velocity S-wave (km/s) = -2.47238 3.97543 2.20129
# Velocity P-wave (km/s) = 3.99750 7.77454 6.18156
#
# Compressibility (1/GPa) = 0.01972309
#
# Stress axis : x y z
#
# Youngs Moduli (GPa) = 75.19182 106.97176 94.87453
#
# Poissons Ratio (x) = -0.00220 -0.02235
# Poissons Ratio (y) = -0.00155 0.66303
# Poissons Ratio (z) = -0.01771 0.74757
#
# Static dielectric constant tensor:
#      x y z
#    x 1.859320 0.000000 0.000000 
#    y 0.000000 1.724110 0.000000 
#    z 0.000000 0.000000 1.708860 
# 
# From -- ./inp_files/42686.got.cif
#   From: 2010.05.17/outbox.cif.g08.bks.cpg/sg63_22_cif.got.tgz:42686.got - 2010.06.03 15:47:04.
