data_PCOD9469952
_publ_section_title
;
Structure prediction by ZEFSAII (Michael W. Deem and Ramdas Pophale) SiO2 
 PCOD9469952
Probable space group: C M C M
;
_chemical_formula_sum "Si O2"
_cell_formula_units_Z 80
_cell_length_a 9.194014
_cell_length_b 28.209568
_cell_length_c 19.053001
_cell_angle_alpha 90.000000
_cell_angle_beta 90.000000
_cell_angle_gamma 90.000000
_cell_volume 4941.570394
_symmetry_space_group_name_H-M "C M C M"
_symmetry_group_IT_number 63
_symmetry_cell_setting 'orthorhombic'
loop_
_space_group_symop_operation_xyz
x,y,z
-x,-y,1/2+z
x,-y,-z
-x,y,1/2-z
-x,-y,-z
x,y,1/2-z
-x,y,z
x,-y,1/2+z
1/2+x,1/2+y,z
1/2-x,1/2-y,1/2+z
1/2+x,1/2-y,-z
1/2-x,1/2+y,1/2-z
1/2-x,1/2-y,-z
1/2+x,1/2+y,1/2-z
1/2-x,1/2+y,z
1/2+x,1/2-y,1/2+z
loop_
_atom_site_type_symbol
_atom_site_label
_atom_site_fract_x
_atom_site_fract_y
_atom_site_fract_z
Si Si1 0.826933 0.159878 0.673719
Si Si2 0.168104 0.020945 0.079973
Si Si3 0.174998 0.798463 0.023193
Si Si4 0.333013 0.109679 0.469954
Si Si5 0.334249 0.067575 0.628420
O O1 0.795049 0.181803 0.750000
O O2 0.789176 0.190373 0.605071
O O3 0.746224 0.109685 0.668444
O O4 0.000000 0.151210 0.669422
O O5 0.254194 0.070377 0.077506
O O6 0.000000 0.027366 0.099386
O O7 0.246944 0.981465 0.126966
O O8 0.169612 0.000000 0.000000
O O9 0.000000 0.796565 0.015928
O O10 0.250000 0.750000 0.000000
O O11 0.241280 0.842340 0.979162
O O12 0.500000 0.118762 0.448770
O O13 0.337758 0.086204 0.547711
O O14 0.500000 0.061210 0.651878
#
# Coordination Sequence:
#
# PCOD9469952 Si02
#       5
#    16  16  16  16  16
#     4   9  18  32  48  66  90 121 155 190 231 281
#     4   9  15  23  37  58  85 116 146 174 208 254
#     4  10  19  31  47  67  92 121 155 197 243 288
#     4   9  16  26  40  60  87 116 147 184 225 268
#     4   9  16  25  39  61  88 116 145 179 219 264
#
# _framework density 16.189184999999998
#
# number of rings (size 3 to 8) (size 9 to 14) (size 15 to 20)
#    0.000    2.800    0.000    2.400    0.000    8.400 
#    0.000    0.000    0.000    0.000    0.000    1.400 
#    0.000    8.000    0.000    0.000    0.000    0.000 
#
# Total GULP energy -222797.569736 kJ/mol
# GULP energy per Si atom -5569.939243 kJ/mol
# Density = 1.615234 g / cm^3
# Si number density = 16.189185 Si / 1000 Ang^3
#
#
#
# Elastic Constant Matrix: (Units=GPa)
#
#
# Indices 1 2 3 4 5 6 
#
# 1 102.8360 76.2292 35.7793 0.0000 0.0000 0.0000
# 2 76.2292 133.1577 41.7004 0.0000 0.0000 0.0000
# 3 35.7793 41.7004 48.6652 0.0000 0.0000 0.0000
# 4 0.0000 0.0000 0.0000 10.0706 0.0000 0.0000
# 5 0.0000 0.0000 0.0000 0.0000 8.7261 0.0000
# 6 0.0000 0.0000 0.0000 0.0000 0.0000 33.0165
#
#
#
# Elastic Compliance Matrix: (Units=1/GPa)
#
#
# Indices 1 2 3 4 5 6 
#
# 1 0.018111 -0.008471 -0.006056 0.000000 0.000000 0.000000
# 2 -0.008471 0.014227 -0.005962 0.000000 0.000000 0.000000
# 3 -0.006056 -0.005962 0.030110 0.000000 0.000000 0.000000
# 4 0.000000 0.000000 0.000000 0.099298 0.000000 0.000000
# 5 0.000000 0.000000 0.000000 0.000000 0.114599 0.000000
# 6 0.000000 0.000000 0.000000 0.000000 0.000000 0.030288
#
#
# Mechanical properties :
#
#
# Convention : Reuss Voigt Hill
#
# Bulk Modulus (GPa) = 46.58157 65.78628 56.18393
# Shear Modulus (GPa) = 14.09364 19.09264 16.59314
#
# Velocity S-wave (km/s) = 2.95372 3.43789 3.20496
# Velocity P-wave (km/s) = 6.36148 7.51551 6.96245
#
# Compressibility (1/GPa) = 0.02146772
#
# Stress axis : x y z
#
# Youngs Moduli (GPa) = 55.21507 70.29012 33.21106
#
# Poissons Ratio (x) = 0.59545 0.20114
# Poissons Ratio (y) = 0.46775 0.19802
# Poissons Ratio (z) = 0.33441 0.41910
#
# Static dielectric constant tensor:
#      x y z
#    x 1.546210 0.000000 0.000000 
#    y 0.000000 1.515600 0.000000 
#    z 0.000000 0.000000 1.561620 
# 
# From -- ./inp_files/40418.got.cif
#   From: 2010.05.17/outbox.cif.g08.bks.cpg/sg63_21_cif.got.tgz:40418.got - 2010.06.03 15:47:04.
