data_PCOD9469360
_publ_section_title
;
Structure prediction by ZEFSAII (Michael W. Deem and Ramdas Pophale) SiO2 
 PCOD9469360
Probable space group: C M C M
;
_chemical_formula_sum "Si O2"
_cell_formula_units_Z 80
_cell_length_a 10.943072
_cell_length_b 18.727468
_cell_length_c 20.025333
_cell_angle_alpha 90.000000
_cell_angle_beta 90.000000
_cell_angle_gamma 90.000000
_cell_volume 4103.912258
_symmetry_space_group_name_H-M "C M C M"
_symmetry_group_IT_number 63
_symmetry_cell_setting 'orthorhombic'
loop_
_space_group_symop_operation_xyz
x,y,z
-x,-y,1/2+z
x,-y,-z
-x,y,1/2-z
-x,-y,-z
x,y,1/2-z
-x,y,z
x,-y,1/2+z
1/2+x,1/2+y,z
1/2-x,1/2-y,1/2+z
1/2+x,1/2-y,-z
1/2-x,1/2+y,1/2-z
1/2-x,1/2-y,-z
1/2+x,1/2+y,1/2-z
1/2-x,1/2+y,z
1/2+x,1/2-y,1/2+z
loop_
_atom_site_type_symbol
_atom_site_label
_atom_site_fract_x
_atom_site_fract_y
_atom_site_fract_z
Si Si1 0.733058 0.970356 0.676869
Si Si2 0.000000 0.918209 0.468174
Si Si3 0.145612 0.634467 0.827686
Si Si4 0.362318 0.063412 0.457025
Si Si5 0.500000 0.527249 0.821666
Si Si6 0.755362 0.825244 0.036835
O O1 0.692437 0.945283 0.750000
O O2 0.676784 0.049753 0.665722
O O3 0.878056 0.980776 0.677018
O O4 0.698845 0.923736 0.613738
O O5 0.121931 0.870847 0.481696
O O6 0.000000 0.927317 0.388146
O O7 0.000000 0.000000 0.500000
O O8 0.173299 0.653155 0.750000
O O9 0.226643 0.673990 0.883862
O O10 0.000000 0.644863 0.838059
O O11 0.500000 0.041158 0.441975
O O12 0.354970 0.130214 0.504561
O O13 0.301978 0.000000 0.500000
O O14 0.500000 0.566956 0.750000
O O15 0.750000 0.750000 0.000000
#
# Coordination Sequence:
#
# PCOD9469360 Si02
#       6
#    16   8  16  16   8  16
#     4  10  19  33  57  92 121 155 205 259 310 372
#     4  12  24  42  66  92 129 173 218 262 316 383
#     4  10  20  37  63  90 121 160 208 260 318 389
#     4  11  21  37  61  87 119 157 199 254 313 373
#     4  10  18  32  58  88 122 155 204 264 308 355
#     4  12  26  40  62  94 131 165 212 263 322 383
#
# _framework density 19.493594999999999
#
# number of rings (size 3 to 8) (size 9 to 14) (size 15 to 20)
#    0.000    1.200    4.000    3.000    2.800    1.200 
#    0.000    1.000    0.000    1.200    0.000    0.000 
#    0.000    0.000    0.000    0.000    0.000    0.000 
#
# Total GULP energy -222973.701291 kJ/mol
# GULP energy per Si atom -5574.342532 kJ/mol
# Density = 1.944923 g / cm^3
# Si number density = 19.493595 Si / 1000 Ang^3
#
#
#
# Elastic Constant Matrix: (Units=GPa)
#
#
# Indices 1 2 3 4 5 6 
#
# 1 97.3228 19.1339 28.3905 0.0000 0.0000 0.0000
# 2 19.1339 70.5816 38.0017 0.0000 0.0000 0.0000
# 3 28.3905 38.0017 146.8015 0.0000 0.0000 0.0000
# 4 0.0000 0.0000 0.0000 23.1170 0.0000 0.0000
# 5 0.0000 0.0000 0.0000 0.0000 30.7444 0.0000
# 6 0.0000 0.0000 0.0000 0.0000 0.0000 12.2481
#
#
#
# Elastic Compliance Matrix: (Units=1/GPa)
#
#
# Indices 1 2 3 4 5 6 
#
# 1 0.011167 -0.002167 -0.001599 0.000000 0.000000 0.000000
# 2 -0.002167 0.016883 -0.003951 0.000000 0.000000 0.000000
# 3 -0.001599 -0.003951 0.008144 0.000000 0.000000 0.000000
# 4 0.000000 0.000000 0.000000 0.043258 0.000000 0.000000
# 5 0.000000 0.000000 0.000000 0.000000 0.032526 0.000000
# 6 0.000000 0.000000 0.000000 0.000000 0.000000 0.081645
#
#
# Mechanical properties :
#
#
# Convention : Reuss Voigt Hill
#
# Bulk Modulus (GPa) = 48.16797 53.97313 51.07055
# Shear Modulus (GPa) = 23.15056 28.50057 25.82556
#
# Velocity S-wave (km/s) = 3.44989 3.82782 3.64376
# Velocity P-wave (km/s) = 6.37435 6.87634 6.63010
#
# Compressibility (1/GPa) = 0.02076069
#
# Stress axis : x y z
#
# Youngs Moduli (GPa) = 89.54596 59.23202 122.78981
#
# Poissons Ratio (x) = 0.12833 0.19633
# Poissons Ratio (y) = 0.19400 0.48519
# Poissons Ratio (z) = 0.14317 0.23405
#
# Static dielectric constant tensor:
#      x y z
#    x 1.736220 0.000000 0.000000 
#    y 0.000000 5.052430 0.000000 
#    z 0.000000 0.000000 1.100410 
# 
# From -- ./inp_files/52478.got.cif
#   From: 2010.05.17/outbox.cif.g08.bks.cpg/sg63_27_cif.got.tgz:52478.got - 2010.06.03 15:47:04.
