data_PCOD9469646
_publ_section_title
;
Structure prediction by ZEFSAII (Michael W. Deem and Ramdas Pophale) SiO2 
 PCOD9469646
Probable space group: C M C M
;
_chemical_formula_sum "Si O2"
_cell_formula_units_Z 112
_cell_length_a 33.021586
_cell_length_b 32.648524
_cell_length_c 8.849517
_cell_angle_alpha 90.000000
_cell_angle_beta 90.000000
_cell_angle_gamma 90.000000
_cell_volume 9540.717756
_symmetry_space_group_name_H-M "C M C M"
_symmetry_group_IT_number 63
_symmetry_cell_setting 'orthorhombic'
loop_
_space_group_symop_operation_xyz
x,y,z
-x,-y,1/2+z
x,-y,-z
-x,y,1/2-z
-x,-y,-z
x,y,1/2-z
-x,y,z
x,-y,1/2+z
1/2+x,1/2+y,z
1/2-x,1/2-y,1/2+z
1/2+x,1/2-y,-z
1/2-x,1/2+y,1/2-z
1/2-x,1/2-y,-z
1/2+x,1/2+y,1/2-z
1/2-x,1/2+y,z
1/2+x,1/2-y,1/2+z
loop_
_atom_site_type_symbol
_atom_site_label
_atom_site_fract_x
_atom_site_fract_y
_atom_site_fract_z
Si Si1 0.000000 0.080809 0.431203
Si Si2 0.000000 0.171067 0.572205
Si Si3 0.134604 0.885185 0.928509
Si Si4 0.726861 0.210685 0.431799
Si Si5 0.650339 0.743675 0.574747
Si Si6 0.582269 0.455746 0.069426
Si Si7 0.419156 0.697038 0.426681
Si Si8 0.205902 0.838715 0.074181
O O1 0.000000 0.128205 0.481338
O O2 0.960156 0.059647 0.498896
O O3 0.000000 0.077928 0.250000
O O4 0.959608 0.194963 0.524557
O O5 0.000000 0.162202 0.750000
O O6 0.135279 0.894041 0.750000
O O7 0.105044 0.845833 0.950642
O O8 0.115737 0.922719 0.019578
O O9 0.178672 0.871725 0.987355
O O10 0.730315 0.211396 0.250000
O O11 0.750000 0.250000 0.500000
O O12 0.679750 0.218839 0.470330
O O13 0.751152 0.172292 0.498731
O O14 0.638522 0.748617 0.750000
O O15 0.611575 0.732845 0.475498
O O16 0.679002 0.703142 0.567472
O O17 0.578983 0.457780 0.250000
O O18 0.591535 0.500000 0.000000
O O19 0.429134 0.699793 0.250000
O O20 0.210710 0.849145 0.250000
#
# Coordination Sequence:
#
# PCOD9469646 Si02
#       8
#     8   8  16  16  16  16  16  16
#     4  12  23  37  50  62  75  86 110 142 178 220
#     4  12  22  31  45  58  72  92 115 144 180 218
#     4  10  19  31  45  59  75  92 112 139 170 208
#     4   9  15  23  35  52  73  94 115 137 162 193
#     4   8  15  25  36  51  72  93 115 137 163 198
#     4  12  24  37  50  62  75  91 111 139 178 220
#     4  10  19  29  42  56  72  90 113 142 173 209
#     4   9  16  25  38  55  74  94 115 136 161 197
#
# _framework density 11.739159000000001
#
# number of rings (size 3 to 8) (size 9 to 14) (size 15 to 20)
#    0.000    2.000    1.429    5.357    0.000    5.143 
#    0.000    0.000    0.000    0.000    0.000    0.000 
#    0.000    0.000    0.000    0.000    0.000    0.000 
#
# Total GULP energy -312180.339821 kJ/mol
# GULP energy per Si atom -5574.648925 kJ/mol
# Density = 1.171244 g / cm^3
# Si number density = 11.739159 Si / 1000 Ang^3
#
#
#
# Elastic Constant Matrix: (Units=GPa)
#
#
# Indices 1 2 3 4 5 6 
#
# 1 54.0927 35.2228 41.6339 0.0000 0.0000 0.0000
# 2 35.2228 32.8203 26.6466 0.0000 0.0000 0.0000
# 3 41.6339 26.6466 86.9646 0.0000 0.0000 0.0000
# 4 0.0000 0.0000 0.0000 14.7185 0.0000 0.0000
# 5 0.0000 0.0000 0.0000 0.0000 19.8493 0.0000
# 6 0.0000 0.0000 0.0000 0.0000 0.0000 2.8960
#
#
#
# Elastic Compliance Matrix: (Units=1/GPa)
#
#
# Indices 1 2 3 4 5 6 
#
# 1 0.073046 -0.066559 -0.014576 0.000000 0.000000 0.000000
# 2 -0.066559 0.101206 0.000854 0.000000 0.000000 0.000000
# 3 -0.014576 0.000854 0.018215 0.000000 0.000000 0.000000
# 4 0.000000 0.000000 0.000000 0.067942 0.000000 0.000000
# 5 0.000000 0.000000 0.000000 0.000000 0.050380 0.000000
# 6 0.000000 0.000000 0.000000 0.000000 0.000000 0.345309
#
#
# Mechanical properties :
#
#
# Convention : Reuss Voigt Hill
#
# Bulk Modulus (GPa) = 31.34170 42.32046 36.83108
# Shear Modulus (GPa) = 6.04379 12.18438 9.11408
#
# Velocity S-wave (km/s) = 2.27147 3.22518 2.78939
# Velocity P-wave (km/s) = 5.79964 7.07093 6.46660
#
# Compressibility (1/GPa) = 0.03190637
#
# Stress axis : x y z
#
# Youngs Moduli (GPa) = 13.69003 9.88080 54.89834
#
# Poissons Ratio (x) = 0.65765 0.80021
# Poissons Ratio (y) = 0.91119 -0.04690
# Poissons Ratio (z) = 0.19955 -0.00844
#
# Static dielectric constant tensor:
#      x y z
#    x 1.388740 0.000000 0.000000 
#    y 0.000000 1.364550 0.000000 
#    z 0.000000 0.000000 1.390800 
# 
# From -- ./inp_files/15004.got.cif
#   From: 2010.05.17/outbox.cif.g08.bks.cpg/sg63_8_cif.got.tgz:15004.got - 2010.06.03 15:47:04.
