data_PCOD9469915
_publ_section_title
;
Structure prediction by ZEFSAII (Michael W. Deem and Ramdas Pophale) SiO2 
 PCOD9469915
Probable space group: C M C M
;
_chemical_formula_sum "Si O2"
_cell_formula_units_Z 80
_cell_length_a 14.331242
_cell_length_b 29.281212
_cell_length_c 8.261219
_cell_angle_alpha 90.000000
_cell_angle_beta 90.000000
_cell_angle_gamma 90.000000
_cell_volume 3466.706013
_symmetry_space_group_name_H-M "C M C M"
_symmetry_group_IT_number 63
_symmetry_cell_setting 'orthorhombic'
loop_
_space_group_symop_operation_xyz
x,y,z
-x,-y,1/2+z
x,-y,-z
-x,y,1/2-z
-x,-y,-z
x,y,1/2-z
-x,y,z
x,-y,1/2+z
1/2+x,1/2+y,z
1/2-x,1/2-y,1/2+z
1/2+x,1/2-y,-z
1/2-x,1/2+y,1/2-z
1/2-x,1/2-y,-z
1/2+x,1/2+y,1/2-z
1/2-x,1/2+y,z
1/2+x,1/2-y,1/2+z
loop_
_atom_site_type_symbol
_atom_site_label
_atom_site_fract_x
_atom_site_fract_y
_atom_site_fract_z
Si Si1 0.354988 0.146081 0.563739
Si Si2 0.630850 0.659036 0.566504
Si Si3 0.399149 0.436000 0.936668
Si Si4 0.690253 0.951089 0.057805
Si Si5 0.142610 0.255787 0.445586
O O1 0.388380 0.143415 0.750000
O O2 0.243563 0.155294 0.567735
O O3 0.359787 0.095047 0.490343
O O4 0.391851 0.194322 0.495153
O O5 0.601875 0.648892 0.750000
O O6 0.599966 0.618918 0.449302
O O7 0.600574 0.709314 0.514623
O O8 0.394162 0.450523 0.750000
O O9 0.500000 0.450760 0.006406
O O10 0.301498 0.449370 0.018707
O O11 0.681582 0.948544 0.250000
O O12 0.653913 0.000000 0.000000
O O13 0.136813 0.255647 0.250000
O O14 0.250000 0.250000 0.500000
#
# Coordination Sequence:
#
# PCOD9469915 Si02
#       5
#    16  16  16  16  16
#     4   7  13  24  37  53  72  93 117 147 182 222
#     4   9  16  26  39  56  76  96 118 147 187 232
#     4  10  20  32  44  57  72  94 128 167 203 236
#     4  10  19  31  44  57  74  97 128 164 201 236
#     4   9  14  22  37  56  76  96 118 146 182 223
#
# _framework density 23.076661999999999
#
# number of rings (size 3 to 8) (size 9 to 14) (size 15 to 20)
#    0.000    3.000    0.000    4.800    0.000    2.000 
#    0.000    3.000    0.000    0.000    0.000    0.000 
#    0.000    0.000    0.000    0.000    0.000    1.000 
#
# Total GULP energy -222827.717017 kJ/mol
# GULP energy per Si atom -5570.692925 kJ/mol
# Density = 2.302414 g / cm^3
# Si number density = 23.076662 Si / 1000 Ang^3
#
#
#
# Elastic Constant Matrix: (Units=GPa)
#
#
# Indices 1 2 3 4 5 6 
#
# 1 55.0187 -2.4665 -7.6642 0.0000 0.0000 0.0000
# 2 -2.4665 227.5806 9.0234 0.0000 0.0000 0.0000
# 3 -7.6642 9.0234 46.6464 0.0000 0.0000 0.0000
# 4 0.0000 0.0000 0.0000 32.6387 0.0000 0.0000
# 5 0.0000 0.0000 0.0000 0.0000 -37.6970 0.0000
# 6 0.0000 0.0000 0.0000 0.0000 0.0000 -37.0681
#
#
#
# Elastic Compliance Matrix: (Units=1/GPa)
#
#
# Indices 1 2 3 4 5 6 
#
# 1 0.018603 0.000081 0.003041 0.000000 0.000000 0.000000
# 2 0.000081 0.004428 -0.000843 0.000000 0.000000 0.000000
# 3 0.003041 -0.000843 0.022101 0.000000 0.000000 0.000000
# 4 0.000000 0.000000 0.000000 0.030638 0.000000 0.000000
# 5 0.000000 0.000000 0.000000 0.000000 -0.026527 0.000000
# 6 0.000000 0.000000 0.000000 0.000000 0.000000 -0.026977
#
#
# Mechanical properties :
#
#
# Convention : Reuss Voigt Hill
#
# Bulk Modulus (GPa) = 20.12518 36.33680 28.23099
# Shear Modulus (GPa) = 145.89415 13.59827 79.74621
#
# Velocity S-wave (km/s) = 7.95982 2.43011 5.88490
# Velocity P-wave (km/s) = 9.65496 4.86356 7.64436
#
# Compressibility (1/GPa) = 0.04968901
#
# Stress axis : x y z
#
# Youngs Moduli (GPa) = 53.75516 225.81704 45.24758
#
# Poissons Ratio (x) = -0.01830 -0.13759
# Poissons Ratio (y) = -0.00436 0.03816
# Poissons Ratio (z) = -0.16346 0.19044
#
# Static dielectric constant tensor:
#      x y z
#    x 1.871070 0.000000 0.000000 
#    y 0.000000 1.948350 0.000000 
#    z 0.000000 0.000000 1.803310 
# 
# From -- ./inp_files/6645.got.cif
#   From: 2010.05.17/outbox.cif.g08.bks.cpg/sg63_4_cif.got.tgz:6645.got - 2010.06.03 15:47:04.
