data_PCOD9469893
_publ_section_title
;
Structure prediction by ZEFSAII (Michael W. Deem and Ramdas Pophale) SiO2 
 PCOD9469893
Probable space group: C M C M
;
_chemical_formula_sum "Si O2"
_cell_formula_units_Z 80
_cell_length_a 7.437256
_cell_length_b 29.873234
_cell_length_c 16.228833
_cell_angle_alpha 90.000000
_cell_angle_beta 90.000000
_cell_angle_gamma 90.000000
_cell_volume 3605.639167
_symmetry_space_group_name_H-M "C M C M"
_symmetry_group_IT_number 63
_symmetry_cell_setting 'orthorhombic'
loop_
_space_group_symop_operation_xyz
x,y,z
-x,-y,1/2+z
x,-y,-z
-x,y,1/2-z
-x,-y,-z
x,y,1/2-z
-x,y,z
x,-y,1/2+z
1/2+x,1/2+y,z
1/2-x,1/2-y,1/2+z
1/2+x,1/2-y,-z
1/2-x,1/2+y,1/2-z
1/2-x,1/2-y,-z
1/2+x,1/2+y,1/2-z
1/2-x,1/2+y,z
1/2+x,1/2-y,1/2+z
loop_
_atom_site_type_symbol
_atom_site_label
_atom_site_fract_x
_atom_site_fract_y
_atom_site_fract_z
Si Si1 0.279932 0.948268 0.000971
Si Si2 0.281872 0.202260 0.591613
Si Si3 0.292404 0.102749 0.339895
Si Si4 0.208780 0.800358 0.602838
Si Si5 0.780593 0.607591 0.840709
O O1 0.500000 0.946465 0.001381
O O2 0.220691 0.923057 0.083685
O O3 0.215354 0.922255 0.919512
O O4 0.227751 0.000000 0.000000
O O5 0.500000 0.203711 0.591358
O O6 0.225431 0.196266 0.496460
O O7 0.218917 0.250790 0.622949
O O8 0.225863 0.158837 0.642063
O O9 0.211217 0.093890 0.250000
O O10 0.500000 0.088191 0.335988
O O11 0.292163 0.155846 0.357308
O O12 0.000000 0.801500 0.626050
O O13 0.722882 0.592891 0.750000
O O14 0.000000 0.607197 0.841562
#
# Coordination Sequence:
#
# PCOD9469893 Si02
#       5
#    16  16  16  16  16
#     4   9  17  30  49  73 101 129 162 210 260 303
#     4   9  17  31  50  73 103 136 171 208 249 297
#     4  10  20  34  52  74 104 139 170 205 255 310
#     4  10  19  30  50  76 102 135 173 211 249 296
#     4   9  16  27  47  73  98 125 159 202 250 296
#
# _framework density 22.187466000000001
#
# number of rings (size 3 to 8) (size 9 to 14) (size 15 to 20)
#    0.000    2.600    2.000    0.600    0.000    2.800 
#    0.000    6.000    0.000    1.200    0.000    0.000 
#    0.000    0.000    0.000    0.000    0.000    0.000 
#
# Total GULP energy -223365.345380 kJ/mol
# GULP energy per Si atom -5584.133635 kJ/mol
# Density = 2.213697 g / cm^3
# Si number density = 22.187466 Si / 1000 Ang^3
#
#
#
# Elastic Constant Matrix: (Units=GPa)
#
#
# Indices 1 2 3 4 5 6 
#
# 1 69.3681 2.2274 3.3316 0.0000 0.0000 0.0000
# 2 2.2274 155.6237 111.6041 0.0000 0.0000 0.0000
# 3 3.3316 111.6041 195.0117 0.0000 0.0000 0.0000
# 4 0.0000 0.0000 0.0000 -2.1279 0.0000 0.0000
# 5 0.0000 0.0000 0.0000 0.0000 6.5086 0.0000
# 6 0.0000 0.0000 0.0000 0.0000 0.0000 10.0849
#
#
#
# Elastic Compliance Matrix: (Units=1/GPa)
#
#
# Indices 1 2 3 4 5 6 
#
# 1 0.014428 -0.000050 -0.000218 0.000000 0.000000 0.000000
# 2 -0.000050 0.010899 -0.006237 0.000000 0.000000 0.000000
# 3 -0.000218 -0.006237 0.008701 0.000000 0.000000 0.000000
# 4 0.000000 0.000000 0.000000 -0.469943 0.000000 0.000000
# 5 0.000000 0.000000 0.000000 0.000000 0.153644 0.000000
# 6 0.000000 0.000000 0.000000 0.000000 0.000000 0.099158
#
#
# Mechanical properties :
#
#
# Convention : Reuss Voigt Hill
#
# Bulk Modulus (GPa) = 47.57733 72.70329 60.14031
# Shear Modulus (GPa) = -30.65642 23.08248 -3.78697
#
# Velocity S-wave (km/s) = -3.72115 3.22893 -1.30786
# Velocity P-wave (km/s) = 1.73989 6.83668 4.98836
#
# Compressibility (1/GPa) = 0.02101841
#
# Stress axis : x y z
#
# Youngs Moduli (GPa) = 69.31011 91.75183 114.93249
#
# Poissons Ratio (x) = 0.00463 0.02501
# Poissons Ratio (y) = 0.00350 0.71678
# Poissons Ratio (z) = 0.01508 0.57222
#
# Static dielectric constant tensor:
#      x y z
#    x 1.792390 0.000000 0.000000 
#    y 0.000000 1.775760 0.000000 
#    z 0.000000 0.000000 1.799740 
# 
# From -- ./inp_files/40706.got.cif
#   From: 2010.05.17/outbox.cif.g08.bks.cpg/sg63_21_cif.got.tgz:40706.got - 2010.06.03 15:47:04.
