data_PCOD9469778
_publ_section_title
;
Structure prediction by ZEFSAII (Michael W. Deem and Ramdas Pophale) SiO2 
 PCOD9469778
Probable space group: C M C M
;
_chemical_formula_sum "Si O2"
_cell_formula_units_Z 96
_cell_length_a 13.802118
_cell_length_b 24.571734
_cell_length_c 16.305097
_cell_angle_alpha 90.000000
_cell_angle_beta 90.000000
_cell_angle_gamma 90.000000
_cell_volume 5529.742752
_symmetry_space_group_name_H-M "C M C M"
_symmetry_group_IT_number 63
_symmetry_cell_setting 'orthorhombic'
loop_
_space_group_symop_operation_xyz
x,y,z
-x,-y,1/2+z
x,-y,-z
-x,y,1/2-z
-x,-y,-z
x,y,1/2-z
-x,y,z
x,-y,1/2+z
1/2+x,1/2+y,z
1/2-x,1/2-y,1/2+z
1/2+x,1/2-y,-z
1/2-x,1/2+y,1/2-z
1/2-x,1/2-y,-z
1/2+x,1/2+y,1/2-z
1/2-x,1/2+y,z
1/2+x,1/2-y,1/2+z
loop_
_atom_site_type_symbol
_atom_site_label
_atom_site_fract_x
_atom_site_fract_y
_atom_site_fract_z
Si Si1 0.388333 0.615817 0.348521
Si Si2 0.720834 0.726132 0.342449
Si Si3 0.109747 0.334121 0.375066
Si Si4 0.117245 0.548030 0.595425
Si Si5 0.195606 0.435532 0.911100
Si Si6 0.392293 0.177285 0.427652
O O1 0.382109 0.607406 0.250000
O O2 0.500000 0.606875 0.373348
O O3 0.356671 0.678722 0.364201
O O4 0.307438 0.578279 0.392081
O O5 0.753666 0.713843 0.250000
O O6 0.676048 0.785689 0.344951
O O7 0.811193 0.719815 0.402155
O O8 0.136596 0.396440 0.355265
O O9 0.109196 0.330357 0.474343
O O10 0.000000 0.324657 0.346987
O O11 0.156891 0.491029 0.629574
O O12 0.169778 0.556418 0.507360
O O13 0.000000 0.544822 0.582973
O O14 0.137612 0.380687 0.887993
O O15 0.500000 0.192960 0.402769
#
# Coordination Sequence:
#
# PCOD9469778 Si02
#       6
#    16  16  16  16  16  16
#     4   9  18  31  45  62  86 117 151 187 226 262
#     4  10  19  30  46  66  90 120 151 187 229 270
#     4   9  17  29  46  67  91 120 151 183 220 265
#     4   9  16  28  48  70  93 119 143 176 224 272
#     4   9  15  27  48  70  90 115 145 180 222 267
#     4   9  17  29  47  70  93 118 149 185 226 271
#
# _framework density 17.360662000000001
#
# number of rings (size 3 to 8) (size 9 to 14) (size 15 to 20)
#    0.000    2.833    0.000    4.000    0.000    1.333 
#    0.000    2.500    0.000    6.000    0.000    0.000 
#    0.000    0.000    0.000    0.000    0.000    0.000 
#
# Total GULP energy -267269.294540 kJ/mol
# GULP energy per Si atom -5568.110303 kJ/mol
# Density = 1.732115 g / cm^3
# Si number density = 17.360662 Si / 1000 Ang^3
#
#
#
# Elastic Constant Matrix: (Units=GPa)
#
#
# Indices 1 2 3 4 5 6 
#
# 1 118.8904 44.9623 33.3700 0.0000 0.0000 0.0000
# 2 44.9623 106.4822 18.8192 0.0000 0.0000 0.0000
# 3 33.3700 18.8192 27.5603 0.0000 0.0000 0.0000
# 4 0.0000 0.0000 0.0000 9.6512 0.0000 0.0000
# 5 0.0000 0.0000 0.0000 0.0000 1.7125 0.0000
# 6 0.0000 0.0000 0.0000 0.0000 0.0000 22.6934
#
#
#
# Elastic Compliance Matrix: (Units=1/GPa)
#
#
# Indices 1 2 3 4 5 6 
#
# 1 0.013655 -0.003234 -0.014325 0.000000 0.000000 0.000000
# 2 -0.003234 0.011446 -0.003900 0.000000 0.000000 0.000000
# 3 -0.014325 -0.003900 0.056292 0.000000 0.000000 0.000000
# 4 0.000000 0.000000 0.000000 0.103614 0.000000 0.000000
# 5 0.000000 0.000000 0.000000 0.000000 0.583949 0.000000
# 6 0.000000 0.000000 0.000000 0.000000 0.000000 0.044066
#
#
# Mechanical properties :
#
#
# Convention : Reuss Voigt Hill
#
# Bulk Modulus (GPa) = 25.99107 49.69290 37.84199
# Shear Modulus (GPa) = 5.75529 17.19682 11.47605
#
# Velocity S-wave (km/s) = 1.82273 3.15073 2.57385
# Velocity P-wave (km/s) = 4.40835 6.47473 5.53876
#
# Compressibility (1/GPa) = 0.03847475
#
# Stress axis : x y z
#
# Youngs Moduli (GPa) = 73.23364 87.36591 17.76449
#
# Poissons Ratio (x) = 0.28255 0.25448
# Poissons Ratio (y) = 0.23684 0.06928
# Poissons Ratio (z) = 1.04908 0.34073
#
# Static dielectric constant tensor:
#      x y z
#    x 1.569090 0.000000 0.000000 
#    y 0.000000 1.623610 0.000000 
#    z 0.000000 0.000000 1.606230 
# 
# From -- ./inp_files/53036.got.cif
#   From: 2010.05.17/outbox.cif.g08.bks.cpg/sg63_27_cif.got.tgz:53036.got - 2010.06.03 15:47:04.
