data_PCOD9469773
_publ_section_title
;
Structure prediction by ZEFSAII (Michael W. Deem and Ramdas Pophale) SiO2 
 PCOD9469773
Probable space group: C M C M
;
_chemical_formula_sum "Si O2"
_cell_formula_units_Z 80
_cell_length_a 7.605331
_cell_length_b 27.518267
_cell_length_c 19.315982
_cell_angle_alpha 90.000000
_cell_angle_beta 90.000000
_cell_angle_gamma 90.000000
_cell_volume 4042.555513
_symmetry_space_group_name_H-M "C M C M"
_symmetry_group_IT_number 63
_symmetry_cell_setting 'orthorhombic'
loop_
_space_group_symop_operation_xyz
x,y,z
-x,-y,1/2+z
x,-y,-z
-x,y,1/2-z
-x,-y,-z
x,y,1/2-z
-x,y,z
x,-y,1/2+z
1/2+x,1/2+y,z
1/2-x,1/2-y,1/2+z
1/2+x,1/2-y,-z
1/2-x,1/2+y,1/2-z
1/2-x,1/2-y,-z
1/2+x,1/2+y,1/2-z
1/2-x,1/2+y,z
1/2+x,1/2-y,1/2+z
loop_
_atom_site_type_symbol
_atom_site_label
_atom_site_fract_x
_atom_site_fract_y
_atom_site_fract_z
Si Si1 0.289452 0.750667 0.417927
Si Si2 0.285697 0.948809 0.169252
Si Si3 0.287889 0.056956 0.170734
Si Si4 0.294367 0.856016 0.087837
Si Si5 0.292329 0.353801 0.928090
O O1 0.500000 0.752399 0.407481
O O2 0.250000 0.750000 0.500000
O O3 0.218656 0.802786 0.392522
O O4 0.226308 0.697287 0.394856
O O5 0.241177 0.942272 0.250000
O O6 0.500000 0.949365 0.164803
O O7 0.218833 0.903725 0.124323
O O8 0.227401 0.003048 0.148076
O O9 0.228100 0.064913 0.250000
O O10 0.500000 0.055829 0.172027
O O11 0.236057 0.100283 0.120516
O O12 0.500000 0.854689 0.107338
O O13 0.285484 0.860772 0.004668
O O14 0.500000 0.347794 0.939292
#
# Coordination Sequence:
#
# PCOD9469773 Si02
#       5
#    16  16  16  16  16
#     4   8  15  27  43  65  91 119 148 179 219 264
#     4   8  15  29  49  70  89 112 148 193 232 264
#     4   9  18  33  50  66  87 118 154 188 224 268
#     4   9  16  29  50  71  90 116 152 190 227 266
#     4  10  19  30  45  68  97 123 149 183 223 268
#
# _framework density 19.789462
#
# number of rings (size 3 to 8) (size 9 to 14) (size 15 to 20)
#    0.000    3.200    0.000    1.800    0.000    2.000 
#    0.000    6.000    0.000    5.400    0.000    0.000 
#    0.000    0.000    0.000    0.000    0.000    0.000 
#
# Total GULP energy -222696.666955 kJ/mol
# GULP energy per Si atom -5567.416674 kJ/mol
# Density = 1.974442 g / cm^3
# Si number density = 19.789462 Si / 1000 Ang^3
#
#
#
# Elastic Constant Matrix: (Units=GPa)
#
#
# Indices 1 2 3 4 5 6 
#
# 1 40.3315 1.0872 -6.5544 0.0000 0.0000 0.0000
# 2 1.0872 253.6253 82.4882 0.0000 0.0000 0.0000
# 3 -6.5544 82.4882 39.7032 0.0000 0.0000 0.0000
# 4 0.0000 0.0000 0.0000 -55.6131 0.0000 0.0000
# 5 0.0000 0.0000 0.0000 0.0000 -4.5015 0.0000
# 6 0.0000 0.0000 0.0000 0.0000 0.0000 9.8861
#
#
#
# Elastic Compliance Matrix: (Units=1/GPa)
#
#
# Indices 1 2 3 4 5 6 
#
# 1 0.027307 -0.004882 0.014652 0.000000 0.000000 0.000000
# 2 -0.004882 0.013032 -0.027881 0.000000 0.000000 0.000000
# 3 0.014652 -0.027881 0.085531 0.000000 0.000000 0.000000
# 4 0.000000 0.000000 0.000000 -0.017981 0.000000 0.000000
# 5 0.000000 0.000000 0.000000 0.000000 -0.222146 0.000000
# 6 0.000000 0.000000 0.000000 0.000000 0.000000 0.101152
#
#
# Mechanical properties :
#
#
# Convention : Reuss Voigt Hill
#
# Bulk Modulus (GPa) = 11.15486 54.18909 32.67198
# Shear Modulus (GPa) = 94.34171 7.06357 50.70264
#
# Velocity S-wave (km/s) = 6.91203 1.89132 5.06721
# Velocity P-wave (km/s) = 8.32770 5.67554 7.12609
#
# Compressibility (1/GPa) = 0.08964701
#
# Stress axis : x y z
#
# Youngs Moduli (GPa) = 36.62035 76.73700 11.69168
#
# Poissons Ratio (x) = 0.37465 -0.17130
# Poissons Ratio (y) = 0.17879 0.32597
# Poissons Ratio (z) = -0.53654 2.13947
#
# Static dielectric constant tensor:
#      x y z
#    x 1.808900 0.000000 0.000000 
#    y 0.000000 1.770520 0.000000 
#    z 0.000000 0.000000 1.638610 
# 
# From -- ./inp_files/40475.got.cif
#   From: 2010.05.17/outbox.cif.g08.bks.cpg/sg63_21_cif.got.tgz:40475.got - 2010.06.03 15:47:04.
