data_PCOD9469624
_publ_section_title
;
Structure prediction by ZEFSAII (Michael W. Deem and Ramdas Pophale) SiO2 
 PCOD9469624
Probable space group: C M C M
;
_chemical_formula_sum "Si O2"
_cell_formula_units_Z 64
_cell_length_a 23.228652
_cell_length_b 8.134636
_cell_length_c 13.763182
_cell_angle_alpha 90.000000
_cell_angle_beta 90.000000
_cell_angle_gamma 90.000000
_cell_volume 2600.644472
_symmetry_space_group_name_H-M "C M C M"
_symmetry_group_IT_number 63
_symmetry_cell_setting 'orthorhombic'
loop_
_space_group_symop_operation_xyz
x,y,z
-x,-y,1/2+z
x,-y,-z
-x,y,1/2-z
-x,-y,-z
x,y,1/2-z
-x,y,z
x,-y,1/2+z
1/2+x,1/2+y,z
1/2-x,1/2-y,1/2+z
1/2+x,1/2-y,-z
1/2-x,1/2+y,1/2-z
1/2-x,1/2-y,-z
1/2+x,1/2+y,1/2-z
1/2-x,1/2+y,z
1/2+x,1/2-y,1/2+z
loop_
_atom_site_type_symbol
_atom_site_label
_atom_site_fract_x
_atom_site_fract_y
_atom_site_fract_z
Si Si1 0.769877 0.619464 0.134766
Si Si2 0.567375 0.261702 0.037208
Si Si3 0.616068 0.937641 0.365324
Si Si4 0.661542 0.540758 0.864096
O O1 0.762779 0.593461 0.250000
O O2 0.818369 0.486501 0.107026
O O3 0.705348 0.597312 0.096037
O O4 0.798680 0.795983 0.124952
O O5 0.500000 0.292729 0.032123
O O6 0.603025 0.408975 0.084547
O O7 0.579981 0.101141 0.105380
O O8 0.591910 0.206712 0.932318
O O9 0.613192 0.907316 0.250000
O O10 0.649199 0.513644 0.750000
#
# Coordination Sequence:
#
# PCOD9469624 Si02
#       4
#    16  16  16  16
#     4   8  15  28  46  69  96 124 156 196 243 284
#     4  10  19  28  43  69  96 125 159 192 235 286
#     4   9  17  29  44  64  93 124 155 196 239 279
#     4   9  17  30  48  72 100 126 157 198 238 283
#
# _framework density 24.609285
#
# number of rings (size 3 to 8) (size 9 to 14) (size 15 to 20)
#    0.000    3.000    0.000    3.750    0.000    4.500 
#    0.000    0.000    0.000    0.000    0.000   10.500 
#    0.000   50.000    0.000    0.000    0.000    5.000 
#
# Total GULP energy -179134.093589 kJ/mol
# GULP energy per Si atom -5597.940425 kJ/mol
# Density = 2.455327 g / cm^3
# Si number density = 24.609285 Si / 1000 Ang^3
#
#
#
# Elastic Constant Matrix: (Units=GPa)
#
#
# Indices 1 2 3 4 5 6 
#
# 1 195.6599 15.5575 45.9735 0.0000 0.0000 0.0000
# 2 15.5575 51.6240 14.8609 0.0000 0.0000 0.0000
# 3 45.9735 14.8609 181.7390 0.0000 0.0000 0.0000
# 4 0.0000 0.0000 0.0000 25.6099 0.0000 0.0000
# 5 0.0000 0.0000 0.0000 0.0000 29.3389 0.0000
# 6 0.0000 0.0000 0.0000 0.0000 0.0000 21.0674
#
#
#
# Elastic Compliance Matrix: (Units=1/GPa)
#
#
# Indices 1 2 3 4 5 6 
#
# 1 0.005517 -0.001291 -0.001290 0.000000 0.000000 0.000000
# 2 -0.001291 0.020140 -0.001320 0.000000 0.000000 0.000000
# 3 -0.001290 -0.001320 0.005937 0.000000 0.000000 0.000000
# 4 0.000000 0.000000 0.000000 0.039047 0.000000 0.000000
# 5 0.000000 0.000000 0.000000 0.000000 0.034084 0.000000
# 6 0.000000 0.000000 0.000000 0.000000 0.000000 0.047467
#
#
# Mechanical properties :
#
#
# Convention : Reuss Voigt Hill
#
# Bulk Modulus (GPa) = 42.03338 64.64519 53.33929
# Shear Modulus (GPa) = 29.77526 38.71200 34.24363
#
# Velocity S-wave (km/s) = 3.48216 3.97049 3.73432
# Velocity P-wave (km/s) = 5.76929 6.88080 6.34941
#
# Compressibility (1/GPa) = 0.02379061
#
# Stress axis : x y z
#
# Youngs Moduli (GPa) = 181.26887 49.65245 168.44490
#
# Poissons Ratio (x) = 0.06411 0.21728
# Poissons Ratio (y) = 0.23405 0.22239
# Poissons Ratio (z) = 0.23383 0.06555
#
# Static dielectric constant tensor:
#      x y z
#    x 1.903910 0.000000 0.000000 
#    y 0.000000 2.026730 0.000000 
#    z 0.000000 0.000000 1.960920 
# 
# From -- ./inp_files/34908.got.cif
#   From: 2010.05.17/outbox.cif.g08.bks.cpg/sg63_18_cif.got.tgz:34908.got - 2010.06.03 15:47:04.
