data_PCOD9469907
_publ_section_title
;
Structure prediction by ZEFSAII (Michael W. Deem and Ramdas Pophale) SiO2 
 PCOD9469907
Probable space group: C M C M
;
_chemical_formula_sum "Si O2"
_cell_formula_units_Z 72
_cell_length_a 26.317395
_cell_length_b 17.273884
_cell_length_c 8.021596
_cell_angle_alpha 90.000000
_cell_angle_beta 90.000000
_cell_angle_gamma 90.000000
_cell_volume 3646.646647
_symmetry_space_group_name_H-M "C M C M"
_symmetry_group_IT_number 63
_symmetry_cell_setting 'orthorhombic'
loop_
_space_group_symop_operation_xyz
x,y,z
-x,-y,1/2+z
x,-y,-z
-x,y,1/2-z
-x,-y,-z
x,y,1/2-z
-x,y,z
x,-y,1/2+z
1/2+x,1/2+y,z
1/2-x,1/2-y,1/2+z
1/2+x,1/2-y,-z
1/2-x,1/2+y,1/2-z
1/2-x,1/2-y,-z
1/2+x,1/2+y,1/2-z
1/2-x,1/2+y,z
1/2+x,1/2-y,1/2+z
loop_
_atom_site_type_symbol
_atom_site_label
_atom_site_fract_x
_atom_site_fract_y
_atom_site_fract_z
Si Si1 0.857377 0.758641 0.448087
Si Si2 0.559400 0.866443 0.549190
Si Si3 0.127547 0.500000 0.500000
Si Si4 0.204178 0.381911 0.440992
Si Si5 0.816792 0.084423 0.444941
O O1 0.850056 0.760664 0.250000
O O2 0.909210 0.711925 0.483154
O O3 0.812618 0.705768 0.525297
O O4 0.854203 0.845144 0.515110
O O5 0.565303 0.884480 0.750000
O O6 0.500000 0.860042 0.514377
O O7 0.586464 0.934869 0.446197
O O8 0.169810 0.436622 0.559369
O O9 0.190235 0.402333 0.250000
O O10 0.263180 0.397254 0.466286
O O11 0.806124 0.082602 0.250000
O O12 0.835107 0.000000 0.500000
#
# Coordination Sequence:
#
# PCOD9469907 Si02
#       5
#    16  16   8  16  16
#     4  10  21  37  56  79 110 147 188 232 280 329
#     4   9  18  33  54  80 110 147 190 234 279 327
#     4  10  19  30  52  80 120 154 191 224 272 320
#     4  11  21  34  53  79 115 153 190 226 270 328
#     4  12  24  38  57  80 109 143 184 231 281 336
#
# _framework density 19.744167000000001
#
# number of rings (size 3 to 8) (size 9 to 14) (size 15 to 20)
#    0.000    1.556    1.111    5.000    0.000    1.778 
#    0.000    0.000    0.000   14.000    0.000    0.000 
#    0.000    0.000    0.000    0.000    0.000    0.000 
#
# Total GULP energy -200562.925146 kJ/mol
# GULP energy per Si atom -5571.192365 kJ/mol
# Density = 1.969923 g / cm^3
# Si number density = 19.744167 Si / 1000 Ang^3
#
#
#
# Elastic Constant Matrix: (Units=GPa)
#
#
# Indices 1 2 3 4 5 6 
#
# 1 87.8029 46.5248 16.2656 0.0000 0.0000 0.0000
# 2 46.5248 168.8993 25.9198 0.0000 0.0000 0.0000
# 3 16.2656 25.9198 82.0803 0.0000 0.0000 0.0000
# 4 0.0000 0.0000 0.0000 7.1312 0.0000 0.0000
# 5 0.0000 0.0000 0.0000 0.0000 7.0269 0.0000
# 6 0.0000 0.0000 0.0000 0.0000 0.0000 14.3366
#
#
#
# Elastic Compliance Matrix: (Units=1/GPa)
#
#
# Indices 1 2 3 4 5 6 
#
# 1 0.013528 -0.003484 -0.001581 0.000000 0.000000 0.000000
# 2 -0.003484 0.007119 -0.001558 0.000000 0.000000 0.000000
# 3 -0.001581 -0.001558 0.012988 0.000000 0.000000 0.000000
# 4 0.000000 0.000000 0.000000 0.140228 0.000000 0.000000
# 5 0.000000 0.000000 0.000000 0.000000 0.142310 0.000000
# 6 0.000000 0.000000 0.000000 0.000000 0.000000 0.069752
#
#
# Mechanical properties :
#
#
# Convention : Reuss Voigt Hill
#
# Bulk Modulus (GPa) = 49.04094 57.35588 53.19841
# Shear Modulus (GPa) = 12.31626 22.37043 17.34335
#
# Velocity S-wave (km/s) = 2.50029 3.36968 2.96700
# Velocity P-wave (km/s) = 5.76432 6.65224 6.22413
#
# Compressibility (1/GPa) = 0.02039113
#
# Stress axis : x y z
#
# Youngs Moduli (GPa) = 73.92100 140.46117 76.99194
#
# Poissons Ratio (x) = 0.48934 0.12170
# Poissons Ratio (y) = 0.25753 0.11994
# Poissons Ratio (z) = 0.11684 0.21882
#
# Static dielectric constant tensor:
#      x y z
#    x 1.663340 0.000000 0.000000 
#    y 0.000000 1.703130 0.000000 
#    z 0.000000 0.000000 1.793000 
# 
# From -- ./inp_files/11674.got.cif
#   From: 2010.05.17/outbox.cif.g08.bks.cpg/sg63_6_cif.got.tgz:11674.got - 2010.06.03 15:47:04.
