data_PCOD9469374
_publ_section_title
;
Structure prediction by ZEFSAII (Michael W. Deem and Ramdas Pophale) SiO2 
 PCOD9469374
Probable space group: C M C M
;
_chemical_formula_sum "Si O2"
_cell_formula_units_Z 128
_cell_length_a 13.661087
_cell_length_b 18.304490
_cell_length_c 23.045406
_cell_angle_alpha 90.000000
_cell_angle_beta 90.000000
_cell_angle_gamma 90.000000
_cell_volume 5762.716488
_symmetry_space_group_name_H-M "C M C M"
_symmetry_group_IT_number 63
_symmetry_cell_setting 'orthorhombic'
loop_
_space_group_symop_operation_xyz
x,y,z
-x,-y,1/2+z
x,-y,-z
-x,y,1/2-z
-x,-y,-z
x,y,1/2-z
-x,y,z
x,-y,1/2+z
1/2+x,1/2+y,z
1/2-x,1/2-y,1/2+z
1/2+x,1/2-y,-z
1/2-x,1/2+y,1/2-z
1/2-x,1/2-y,-z
1/2+x,1/2+y,1/2-z
1/2-x,1/2+y,z
1/2+x,1/2-y,1/2+z
loop_
_atom_site_type_symbol
_atom_site_label
_atom_site_fract_x
_atom_site_fract_y
_atom_site_fract_z
Si Si1 0.827408 0.481722 0.815834
Si Si2 0.204903 0.669642 0.499789
Si Si3 0.103904 0.059267 0.332014
Si Si4 0.606106 0.323264 0.320034
Si Si5 0.145993 0.670546 0.375484
Si Si6 0.663756 0.716344 0.185121
Si Si7 0.679888 0.136862 0.868446
Si Si8 0.395040 0.422663 0.530810
O O1 0.862898 0.484878 0.750000
O O2 0.708029 0.473435 0.813265
O O3 0.867110 0.408473 0.846593
O O4 0.851009 0.556492 0.848807
O O5 0.250000 0.750000 0.500000
O O6 0.132431 0.665890 0.444496
O O7 0.165363 0.649749 0.563258
O O8 0.298142 0.618364 0.488019
O O9 0.100319 0.143906 0.312812
O O10 0.108034 0.061096 0.401253
O O11 0.000000 0.024618 0.314430
O O12 0.616480 0.328000 0.250000
O O13 0.500000 0.356456 0.336104
O O14 0.600217 0.238922 0.341703
O O15 0.703635 0.355017 0.350838
O O16 0.259185 0.692458 0.364020
O O17 0.708078 0.723351 0.250000
O O18 0.628700 0.796168 0.166195
O O19 0.395788 0.500000 0.500000
O O20 0.500000 0.384311 0.518121
#
# Coordination Sequence:
#
# PCOD9469374 Si02
#       8
#    16  16  16  16  16  16  16  16
#     4  11  21  34  54  80 110 143 179 222 274 327
#     4  12  20  35  55  78 111 145 191 229 266 324
#     4  10  19  33  51  76 106 140 182 217 258 317
#     4  10  20  36  57  81 112 147 184 232 286 338
#     4  10  19  35  54  77 105 143 189 224 264 322
#     4  10  18  33  52  71 101 137 176 221 263 307
#     4  11  22  34  54  81 113 140 180 224 278 330
#     4  10  20  34  52  77 114 150 177 215 271 328
#
# _framework density 22.211748
#
# number of rings (size 3 to 8) (size 9 to 14) (size 15 to 20)
#    0.000    1.500    5.000    4.875    0.000    2.000 
#    0.000    0.000    0.000    0.750    0.000    0.875 
#    0.000    0.000    0.000    0.000    0.000    0.000 
#
# Total GULP energy -357013.877317 kJ/mol
# GULP energy per Si atom -5578.341833 kJ/mol
# Density = 2.216119 g / cm^3
# Si number density = 22.211748 Si / 1000 Ang^3
#
#
#
# Elastic Constant Matrix: (Units=GPa)
#
#
# Indices 1 2 3 4 5 6 
#
# 1 27.5381 -20.6265 -10.5858 0.0000 0.0000 0.0000
# 2 -20.6265 128.0248 37.7566 0.0000 0.0000 0.0000
# 3 -10.5858 37.7566 152.0891 0.0000 0.0000 0.0000
# 4 0.0000 0.0000 0.0000 45.0409 0.0000 0.0000
# 5 0.0000 0.0000 0.0000 0.0000 20.7918 0.0000
# 6 0.0000 0.0000 0.0000 0.0000 0.0000 -106.8892
#
#
#
# Elastic Compliance Matrix: (Units=1/GPa)
#
#
# Indices 1 2 3 4 5 6 
#
# 1 0.041544 0.006302 0.001327 0.000000 0.000000 0.000000
# 2 0.006302 0.009384 -0.001891 0.000000 0.000000 0.000000
# 3 0.001327 -0.001891 0.007137 0.000000 0.000000 0.000000
# 4 0.000000 0.000000 0.000000 0.022202 0.000000 0.000000
# 5 0.000000 0.000000 0.000000 0.000000 0.048096 0.000000
# 6 0.000000 0.000000 0.000000 0.000000 0.000000 -0.009355
#
#
# Mechanical properties :
#
#
# Convention : Reuss Voigt Hill
#
# Bulk Modulus (GPa) = 14.38011 35.63785 25.00898
# Shear Modulus (GPa) = 38.25227 11.86256 25.05742
#
# Velocity S-wave (km/s) = 4.15440 2.31350 3.36239
# Velocity P-wave (km/s) = 5.43141 4.81828 5.13400
#
# Compressibility (1/GPa) = 0.06954047
#
# Stress axis : x y z
#
# Youngs Moduli (GPa) = 24.07107 106.56453 140.11678
#
# Poissons Ratio (x) = -0.67156 -0.18595
# Poissons Ratio (y) = -0.15169 0.26496
# Poissons Ratio (z) = -0.03194 0.20151
#
# Static dielectric constant tensor:
#      x y z
#    x 1.946650 0.000000 0.000000 
#    y 0.000000 1.805920 0.000000 
#    z 0.000000 0.000000 1.792290 
# 
# From -- ./inp_files/64090.got.cif
#   From: 2010.05.17/outbox.cif.g08.bks.cpg/sg63_33_cif.got.tgz:64090.got - 2010.06.03 15:47:04.
