data_PCOD9469378
_publ_section_title
;
Structure prediction by ZEFSAII (Michael W. Deem and Ramdas Pophale) SiO2 
 PCOD9469378
Probable space group: C M C M
;
_chemical_formula_sum "Si O2"
_cell_formula_units_Z 68
_cell_length_a 15.683719
_cell_length_b 13.698323
_cell_length_c 13.753438
_cell_angle_alpha 90.000000
_cell_angle_beta 90.000000
_cell_angle_gamma 90.000000
_cell_volume 2954.797542
_symmetry_space_group_name_H-M "C M C M"
_symmetry_group_IT_number 63
_symmetry_cell_setting 'orthorhombic'
loop_
_space_group_symop_operation_xyz
x,y,z
-x,-y,1/2+z
x,-y,-z
-x,y,1/2-z
-x,-y,-z
x,y,1/2-z
-x,y,z
x,-y,1/2+z
1/2+x,1/2+y,z
1/2-x,1/2-y,1/2+z
1/2+x,1/2-y,-z
1/2-x,1/2+y,1/2-z
1/2-x,1/2-y,-z
1/2+x,1/2+y,1/2-z
1/2-x,1/2+y,z
1/2+x,1/2-y,1/2+z
loop_
_atom_site_type_symbol
_atom_site_label
_atom_site_fract_x
_atom_site_fract_y
_atom_site_fract_z
Si Si1 0.591891 0.072336 0.091899
Si Si2 0.500000 0.839068 0.250000
Si Si3 0.401356 0.578524 0.367890
Si Si4 0.249900 0.944675 0.359523
Si Si5 0.369809 0.206847 0.930764
O O1 0.500000 0.063353 0.144163
O O2 0.677493 0.030985 0.140581
O O3 0.597948 0.176104 0.037851
O O4 0.586405 0.000000 0.000000
O O5 0.573278 0.832651 0.338424
O O6 0.397779 0.592438 0.250000
O O7 0.500000 0.562376 0.392837
O O8 0.338170 0.491410 0.392165
O O9 0.369799 0.678755 0.414872
O O10 0.239238 0.910004 0.250000
O O11 0.282918 0.853870 0.420957
#
# Coordination Sequence:
#
# PCOD9469378 Si02
#       5
#    16   4  16  16  16
#     4   9  18  29  46  73 105 132 159 203 251 296
#     4  12  16  28  58  84  88 138 162 212 244 300
#     4  10  18  33  53  75  97 130 173 213 245 289
#     4  10  21  30  48  78 103 131 166 206 252 299
#     4  11  18  32  53  77 102 126 169 209 250 291
#
# _framework density 23.01342
#
# number of rings (size 3 to 8) (size 9 to 14) (size 15 to 20)
#    0.000    1.882    4.706    0.000    1.647    1.412 
#    0.000    0.000    0.000    7.765    0.000    3.294 
#    0.000    0.000    0.000    0.000    0.000    0.000 
#
# Total GULP energy -189280.540233 kJ/mol
# GULP energy per Si atom -5567.074713 kJ/mol
# Density = 2.296104 g / cm^3
# Si number density = 23.013420 Si / 1000 Ang^3
#
#
#
# Elastic Constant Matrix: (Units=GPa)
#
#
# Indices 1 2 3 4 5 6 
#
# 1 166.6513 73.2746 8.9059 0.0000 0.0000 0.0000
# 2 73.2746 58.3659 -6.4117 0.0000 0.0000 0.0000
# 3 8.9059 -6.4117 70.0414 0.0000 0.0000 0.0000
# 4 0.0000 0.0000 0.0000 23.7616 0.0000 0.0000
# 5 0.0000 0.0000 0.0000 0.0000 20.7042 0.0000
# 6 0.0000 0.0000 0.0000 0.0000 0.0000 15.1907
#
#
#
# Elastic Compliance Matrix: (Units=1/GPa)
#
#
# Indices 1 2 3 4 5 6 
#
# 1 0.014182 -0.018185 -0.003468 0.000000 0.000000 0.000000
# 2 -0.018185 0.040626 0.006031 0.000000 0.000000 0.000000
# 3 -0.003468 0.006031 0.015270 0.000000 0.000000 0.000000
# 4 0.000000 0.000000 0.000000 0.042085 0.000000 0.000000
# 5 0.000000 0.000000 0.000000 0.000000 0.048299 0.000000
# 6 0.000000 0.000000 0.000000 0.000000 0.000000 0.065830
#
#
# Mechanical properties :
#
#
# Convention : Reuss Voigt Hill
#
# Bulk Modulus (GPa) = 25.75028 49.62180 37.68604
# Shear Modulus (GPa) = 18.48563 26.55062 22.51812
#
# Velocity S-wave (km/s) = 2.83725 3.40030 3.13146
# Velocity P-wave (km/s) = 4.68475 6.08482 5.43009
#
# Compressibility (1/GPa) = 0.03883453
#
# Stress axis : x y z
#
# Youngs Moduli (GPa) = 70.51346 24.61467 65.48642
#
# Poissons Ratio (x) = 0.44762 0.22710
# Poissons Ratio (y) = 1.28230 -0.39497
# Poissons Ratio (z) = 0.24454 -0.14846
#
# Static dielectric constant tensor:
#      x y z
#    x 1.974700 0.000000 0.000000 
#    y 0.000000 1.901080 0.000000 
#    z 0.000000 0.000000 1.880360 
# 
# From -- ./inp_files/41881.got.cif
#   From: 2010.05.17/outbox.cif.g08.bks.cpg/sg63_21_cif.got.tgz:41881.got - 2010.06.03 15:47:04.
