data_PCOD9469606
_publ_section_title
;
Structure prediction by ZEFSAII (Michael W. Deem and Ramdas Pophale) SiO2 
 PCOD9469606
Probable space group: C M C M
;
_chemical_formula_sum "Si O2"
_cell_formula_units_Z 88
_cell_length_a 26.004401
_cell_length_b 28.579287
_cell_length_c 8.970036
_cell_angle_alpha 90.000000
_cell_angle_beta 90.000000
_cell_angle_gamma 90.000000
_cell_volume 6666.416293
_symmetry_space_group_name_H-M "C M C M"
_symmetry_group_IT_number 63
_symmetry_cell_setting 'orthorhombic'
loop_
_space_group_symop_operation_xyz
x,y,z
-x,-y,1/2+z
x,-y,-z
-x,y,1/2-z
-x,-y,-z
x,y,1/2-z
-x,y,z
x,-y,1/2+z
1/2+x,1/2+y,z
1/2-x,1/2-y,1/2+z
1/2+x,1/2-y,-z
1/2-x,1/2+y,1/2-z
1/2-x,1/2-y,-z
1/2+x,1/2+y,1/2-z
1/2-x,1/2+y,z
1/2+x,1/2-y,1/2+z
loop_
_atom_site_type_symbol
_atom_site_label
_atom_site_fract_x
_atom_site_fract_y
_atom_site_fract_z
Si Si1 0.645646 0.311213 0.576323
Si Si2 0.401756 0.398847 0.071346
Si Si3 0.206537 0.949699 0.073459
Si Si4 0.197918 0.271261 0.929835
Si Si5 0.000000 0.051555 0.071055
Si Si6 0.743979 0.864997 0.922086
O O1 0.631594 0.306710 0.750000
O O2 0.608754 0.346548 0.488430
O O3 0.653407 0.260927 0.498783
O O4 0.701609 0.336892 0.571361
O O5 0.408953 0.398911 0.250000
O O6 0.350271 0.429043 0.037020
O O7 0.449774 0.421662 0.988566
O O8 0.209513 0.954147 0.250000
O O9 0.247332 0.911135 0.017859
O O10 0.213409 0.000000 0.000000
O O11 0.199385 0.266754 0.750000
O O12 0.201298 0.326508 0.966515
O O13 0.250000 0.250000 0.000000
O O14 0.000000 0.048819 0.250000
O O15 0.000000 0.000000 0.000000
O O16 0.735618 0.878043 0.750000
#
# Coordination Sequence:
#
# PCOD9469606 Si02
#       6
#    16  16  16  16   8  16
#     4   9  16  26  40  57  75  94 114 142 180 223
#     4  10  20  33  46  59  73  92 120 155 194 235
#     4  10  19  28  40  54  70  93 121 153 188 224
#     4   9  15  23  36  54  74  95 116 142 176 215
#     4  12  24  36  48  60  74  94 122 158 199 240
#     4   8  15  25  36  51  72  94 117 144 175 211
#
# _framework density 13.200495
#
# number of rings (size 3 to 8) (size 9 to 14) (size 15 to 20)
#    0.000    2.545    0.000    4.636    0.000    8.727 
#    0.000    0.000    0.000    0.000    0.000    0.000 
#    0.000    0.000    0.000    0.000    0.000    0.000 
#
# Total GULP energy -245028.859022 kJ/mol
# GULP energy per Si atom -5568.837705 kJ/mol
# Density = 1.317045 g / cm^3
# Si number density = 13.200495 Si / 1000 Ang^3
#
#
#
# Elastic Constant Matrix: (Units=GPa)
#
#
# Indices 1 2 3 4 5 6 
#
# 1 30.8518 45.0547 26.8117 0.0000 0.0000 0.0000
# 2 45.0547 121.6822 63.5564 0.0000 0.0000 0.0000
# 3 26.8117 63.5564 72.1029 0.0000 0.0000 0.0000
# 4 0.0000 0.0000 0.0000 26.1078 0.0000 0.0000
# 5 0.0000 0.0000 0.0000 0.0000 14.7721 0.0000
# 6 0.0000 0.0000 0.0000 0.0000 0.0000 18.7475
#
#
#
# Elastic Compliance Matrix: (Units=1/GPa)
#
#
# Indices 1 2 3 4 5 6 
#
# 1 0.071977 -0.023482 -0.006066 0.000000 0.000000 0.000000
# 2 -0.023482 0.022891 -0.011446 0.000000 0.000000 0.000000
# 3 -0.006066 -0.011446 0.026214 0.000000 0.000000 0.000000
# 4 0.000000 0.000000 0.000000 0.038303 0.000000 0.000000
# 5 0.000000 0.000000 0.000000 0.000000 0.067695 0.000000
# 6 0.000000 0.000000 0.000000 0.000000 0.000000 0.053340
#
#
# Mechanical properties :
#
#
# Convention : Reuss Voigt Hill
#
# Bulk Modulus (GPa) = 25.57946 55.05361 40.31653
# Shear Modulus (GPa) = 13.31769 17.87310 15.59540
#
# Velocity S-wave (km/s) = 3.17973 3.68363 3.44092
# Velocity P-wave (km/s) = 5.73591 7.73876 6.81135
#
# Compressibility (1/GPa) = 0.03909387
#
# Stress axis : x y z
#
# Youngs Moduli (GPa) = 13.89325 43.68517 38.14772
#
# Poissons Ratio (x) = 1.02582 0.23141
# Poissons Ratio (y) = 0.32624 0.43663
# Poissons Ratio (z) = 0.08428 0.50001
#
# Static dielectric constant tensor:
#      x y z
#    x 1.419100 0.000000 0.000000 
#    y 0.000000 1.449200 0.000000 
#    z 0.000000 0.000000 1.438200 
# 
# From -- ./inp_files/8952.got.cif
#   From: 2010.05.17/outbox.cif.g08.bks.cpg/sg63_5_cif.got.tgz:8952.got - 2010.06.03 15:47:04.
