data_PCOD9469565
_publ_section_title
;
Structure prediction by ZEFSAII (Michael W. Deem and Ramdas Pophale) SiO2 
 PCOD9469565
Probable space group: C M C M
;
_chemical_formula_sum "Si O2"
_cell_formula_units_Z 88
_cell_length_a 11.897661
_cell_length_b 14.999261
_cell_length_c 23.572773
_cell_angle_alpha 90.000000
_cell_angle_beta 90.000000
_cell_angle_gamma 90.000000
_cell_volume 4206.705669
_symmetry_space_group_name_H-M "C M C M"
_symmetry_group_IT_number 63
_symmetry_cell_setting 'orthorhombic'
loop_
_space_group_symop_operation_xyz
x,y,z
-x,-y,1/2+z
x,-y,-z
-x,y,1/2-z
-x,-y,-z
x,y,1/2-z
-x,y,z
x,-y,1/2+z
1/2+x,1/2+y,z
1/2-x,1/2-y,1/2+z
1/2+x,1/2-y,-z
1/2-x,1/2+y,1/2-z
1/2-x,1/2-y,-z
1/2+x,1/2+y,1/2-z
1/2-x,1/2+y,z
1/2+x,1/2-y,1/2+z
loop_
_atom_site_type_symbol
_atom_site_label
_atom_site_fract_x
_atom_site_fract_y
_atom_site_fract_z
Si Si1 0.240269 0.511781 0.817260
Si Si2 0.789301 0.171752 0.371681
Si Si3 0.500000 0.755514 0.313305
Si Si4 0.365310 0.667081 0.612816
Si Si5 0.500000 0.058756 0.853305
Si Si6 0.000000 0.396287 0.482622
Si Si7 0.250772 0.608320 0.495866
O O1 0.234762 0.525502 0.750000
O O2 0.289111 0.415917 0.833075
O O3 0.310035 0.591209 0.846882
O O4 0.115600 0.507837 0.844486
O O5 0.680826 0.236027 0.368574
O O6 0.801907 0.139641 0.436511
O O7 0.891823 0.229259 0.349027
O O8 0.500000 0.716358 0.250000
O O9 0.500000 0.861371 0.309273
O O10 0.500000 0.662374 0.613350
O O11 0.315359 0.646667 0.550196
O O12 0.500000 0.102724 0.915033
O O13 0.000000 0.500000 0.500000
O O14 0.119854 0.360127 0.503179
O O15 0.252177 0.500000 0.500000
#
# Coordination Sequence:
#
# PCOD9469565 Si02
#       7
#    16  16   8  16   8   8  16
#     4  12  26  47  73 103 140 190 243 296 356 424
#     4  12  27  46  74 107 142 185 240 295 360 429
#     4  12  26  48  75 103 140 188 249 303 343 422
#     4  12  28  47  70 106 150 189 233 297 371 433
#     4  12  22  46  74 102 135 190 243 295 349 421
#     4  10  18  36  70 105 139 172 230 294 353 414
#     4  11  22  44  73 106 142 188 236 293 359 438
#
# _framework density 20.918980999999999
#
# number of rings (size 3 to 8) (size 9 to 14) (size 15 to 20)
#    0.000    0.364    5.455    3.000    5.091    1.455 
#    0.000    0.000    0.000    0.000    0.000    0.000 
#    0.000    0.000    0.000    0.000    0.000    0.000 
#
# Total GULP energy -246129.463065 kJ/mol
# GULP energy per Si atom -5593.851433 kJ/mol
# Density = 2.087137 g / cm^3
# Si number density = 20.918981 Si / 1000 Ang^3
#
#
#
# Elastic Constant Matrix: (Units=GPa)
#
#
# Indices 1 2 3 4 5 6 
#
# 1 87.7194 -9.4466 21.5072 0.0000 0.0000 0.0000
# 2 -9.4466 76.3908 -7.7146 0.0000 0.0000 0.0000
# 3 21.5072 -7.7146 87.3463 0.0000 0.0000 0.0000
# 4 0.0000 0.0000 0.0000 20.0377 0.0000 0.0000
# 5 0.0000 0.0000 0.0000 0.0000 28.9548 0.0000
# 6 0.0000 0.0000 0.0000 0.0000 0.0000 40.6125
#
#
#
# Elastic Compliance Matrix: (Units=1/GPa)
#
#
# Indices 1 2 3 4 5 6 
#
# 1 0.012244 0.001221 -0.002907 0.000000 0.000000 0.000000
# 2 0.001221 0.013330 0.000877 0.000000 0.000000 0.000000
# 3 -0.002907 0.000877 0.012242 0.000000 0.000000 0.000000
# 4 0.000000 0.000000 0.000000 0.049906 0.000000 0.000000
# 5 0.000000 0.000000 0.000000 0.000000 0.034537 0.000000
# 6 0.000000 0.000000 0.000000 0.000000 0.000000 0.024623
#
#
# Mechanical properties :
#
#
# Convention : Reuss Voigt Hill
#
# Bulk Modulus (GPa) = 27.62679 28.90539 28.26609
# Shear Modulus (GPa) = 31.13973 34.39504 32.76739
#
# Velocity S-wave (km/s) = 3.86241 4.05928 3.96206
# Velocity P-wave (km/s) = 5.75553 5.98482 5.87130
#
# Compressibility (1/GPa) = 0.03619675
#
# Stress axis : x y z
#
# Youngs Moduli (GPa) = 81.67138 75.01840 81.68651
#
# Poissons Ratio (x) = -0.09156 0.23747
# Poissons Ratio (y) = -0.09968 -0.07162
# Poissons Ratio (z) = 0.23742 -0.06578
#
# Static dielectric constant tensor:
#      x y z
#    x 1.704030 0.000000 0.000000 
#    y 0.000000 1.735230 0.000000 
#    z 0.000000 0.000000 1.712940 
# 
# From -- ./inp_files/61285.got.cif
#   From: 2010.05.17/outbox.cif.g08.bks.cpg/sg63_31_cif.got.tgz:61285.got - 2010.06.03 15:47:04.
