data_PCOD9469227
_publ_section_title
;
Structure prediction by ZEFSAII (Michael W. Deem and Ramdas Pophale) SiO2 
 PCOD9469227
Probable space group: C M C M
;
_chemical_formula_sum "Si O2"
_cell_formula_units_Z 128
_cell_length_a 18.959329
_cell_length_b 21.836603
_cell_length_c 17.481239
_cell_angle_alpha 90.000000
_cell_angle_beta 90.000000
_cell_angle_gamma 90.000000
_cell_volume 7237.361267
_symmetry_space_group_name_H-M "C M C M"
_symmetry_group_IT_number 63
_symmetry_cell_setting 'orthorhombic'
loop_
_space_group_symop_operation_xyz
x,y,z
-x,-y,1/2+z
x,-y,-z
-x,y,1/2-z
-x,-y,-z
x,y,1/2-z
-x,y,z
x,-y,1/2+z
1/2+x,1/2+y,z
1/2-x,1/2-y,1/2+z
1/2+x,1/2-y,-z
1/2-x,1/2+y,1/2-z
1/2-x,1/2-y,-z
1/2+x,1/2+y,1/2-z
1/2-x,1/2+y,z
1/2+x,1/2-y,1/2+z
loop_
_atom_site_type_symbol
_atom_site_label
_atom_site_fract_x
_atom_site_fract_y
_atom_site_fract_z
Si Si1 0.578416 0.022620 0.667070
Si Si2 0.728256 0.470867 0.084965
Si Si3 0.081086 0.732829 0.841799
Si Si4 0.423472 0.503359 0.408066
Si Si5 0.282843 0.906006 0.840743
Si Si6 0.373002 0.630190 0.158143
Si Si7 0.844066 0.377527 0.409653
Si Si8 0.581560 0.903846 0.930914
O O1 0.587381 0.991163 0.750000
O O2 0.500000 0.048722 0.665556
O O3 0.628866 0.079267 0.658299
O O4 0.581615 0.974101 0.598585
O O5 0.648106 0.468265 0.115022
O O6 0.769550 0.522736 0.134469
O O7 0.766309 0.405306 0.078265
O O8 0.728050 0.500000 0.000000
O O9 0.089354 0.725571 0.750000
O O10 0.093948 0.804194 0.859585
O O11 0.137500 0.690934 0.885839
O O12 0.000000 0.715930 0.861355
O O13 0.425672 0.500000 0.500000
O O14 0.500000 0.482236 0.378790
O O15 0.410820 0.573340 0.382299
O O16 0.288655 0.902154 0.750000
O O17 0.209842 0.872863 0.863560
O O18 0.353133 0.879021 0.879821
O O19 0.377778 0.620907 0.250000
O O20 0.891720 0.395117 0.483096
O O21 0.500000 0.882461 0.921155
#
# Coordination Sequence:
#
# PCOD9469227 Si02
#       8
#    16  16  16  16  16  16  16  16
#     4  10  19  29  43  66  98 136 176 218 261 303
#     4  10  18  32  50  72 106 139 173 211 267 316
#     4  10  21  36  54  78 108 140 175 215 258 310
#     4   9  18  32  56  84 109 133 165 214 271 326
#     4  10  19  33  51  72  97 131 176 223 267 313
#     4   9  19  36  59  81 106 137 172 218 269 318
#     4  12  20  31  48  72 105 144 175 212 251 313
#     4  11  21  31  45  68 102 141 179 219 261 305
#
# _framework density 17.686004000000001
#
# number of rings (size 3 to 8) (size 9 to 14) (size 15 to 20)
#    0.000    1.875    2.500    2.625    0.000    4.000 
#    0.000    0.625    0.000    0.000    0.000    0.000 
#    0.000    1.000    0.000    0.000    0.000    0.000 
#
# Total GULP energy -356375.901588 kJ/mol
# GULP energy per Si atom -5568.373462 kJ/mol
# Density = 1.764575 g / cm^3
# Si number density = 17.686004 Si / 1000 Ang^3
#
#
#
# Elastic Constant Matrix: (Units=GPa)
#
#
# Indices 1 2 3 4 5 6 
#
# 1 142.2888 26.4049 19.4613 0.0000 0.0000 0.0000
# 2 26.4049 67.4728 24.2643 0.0000 0.0000 0.0000
# 3 19.4613 24.2643 61.0295 0.0000 0.0000 0.0000
# 4 0.0000 0.0000 0.0000 13.9255 0.0000 0.0000
# 5 0.0000 0.0000 0.0000 0.0000 13.1538 0.0000
# 6 0.0000 0.0000 0.0000 0.0000 0.0000 17.9104
#
#
#
# Elastic Compliance Matrix: (Units=1/GPa)
#
#
# Indices 1 2 3 4 5 6 
#
# 1 0.007689 -0.002482 -0.001465 0.000000 0.000000 0.000000
# 2 -0.002482 0.018095 -0.006403 0.000000 0.000000 0.000000
# 3 -0.001465 -0.006403 0.019398 0.000000 0.000000 0.000000
# 4 0.000000 0.000000 0.000000 0.071811 0.000000 0.000000
# 5 0.000000 0.000000 0.000000 0.000000 0.076024 0.000000
# 6 0.000000 0.000000 0.000000 0.000000 0.000000 0.055834
#
#
# Mechanical properties :
#
#
# Convention : Reuss Voigt Hill
#
# Bulk Modulus (GPa) = 40.84587 45.67245 43.25916
# Shear Modulus (GPa) = 18.00437 22.37530 20.18984
#
# Velocity S-wave (km/s) = 3.19407 3.56074 3.38238
# Velocity P-wave (km/s) = 6.06201 6.54105 6.30608
#
# Compressibility (1/GPa) = 0.02448228
#
# Stress axis : x y z
#
# Youngs Moduli (GPa) = 130.05669 55.26498 51.55105
#
# Poissons Ratio (x) = 0.13718 0.07552
# Poissons Ratio (y) = 0.32282 0.33006
# Poissons Ratio (z) = 0.19053 0.35384
#
# Static dielectric constant tensor:
#      x y z
#    x 1.701870 0.000000 0.000000 
#    y 0.000000 1.581910 0.000000 
#    z 0.000000 0.000000 1.626850 
# 
# From -- ./inp_files/47572.got.cif
#   From: 2010.05.17/outbox.cif.g08.bks.cpg/sg63_24_cif.got.tgz:47572.got - 2010.06.03 15:47:04.
