data_PCOD9469564
_publ_section_title
;
Structure prediction by ZEFSAII (Michael W. Deem and Ramdas Pophale) SiO2 
 PCOD9469564
Probable space group: C M C M
;
_chemical_formula_sum "Si O2"
_cell_formula_units_Z 56
_cell_length_a 26.904914
_cell_length_b 5.613536
_cell_length_c 17.698915
_cell_angle_alpha 90.000000
_cell_angle_beta 90.000000
_cell_angle_gamma 90.000000
_cell_volume 2673.097279
_symmetry_space_group_name_H-M "C M C M"
_symmetry_group_IT_number 63
_symmetry_cell_setting 'orthorhombic'
loop_
_space_group_symop_operation_xyz
x,y,z
-x,-y,1/2+z
x,-y,-z
-x,y,1/2-z
-x,-y,-z
x,y,1/2-z
-x,y,z
x,-y,1/2+z
1/2+x,1/2+y,z
1/2-x,1/2-y,1/2+z
1/2+x,1/2-y,-z
1/2-x,1/2+y,1/2-z
1/2-x,1/2-y,-z
1/2+x,1/2+y,1/2-z
1/2-x,1/2+y,z
1/2+x,1/2-y,1/2+z
loop_
_atom_site_type_symbol
_atom_site_label
_atom_site_fract_x
_atom_site_fract_y
_atom_site_fract_z
Si Si1 0.101927 0.500000 0.500000
Si Si2 0.778523 0.000000 0.500000
Si Si3 0.944663 0.106307 0.085968
Si Si4 0.281844 0.175524 0.250000
Si Si5 0.349020 0.655743 0.884333
O O1 0.068928 0.623174 0.565024
O O2 0.136267 0.677822 0.454302
O O3 0.750000 0.250000 0.500000
O O4 0.810592 0.978053 0.576665
O O5 0.000000 0.078071 0.117090
O O6 0.900515 0.982673 0.133014
O O7 0.944473 0.000000 0.000000
O O8 0.246973 0.419010 0.250000
O O9 0.319308 0.203918 0.179134
#
# Coordination Sequence:
#
# PCOD9469564 Si02
#       5
#     8   8  16   8  16
#     4  10  18  36  67  96 134 167 222 273 337 386
#     4  12  23  36  62  90 119 159 218 271 314 370
#     4   9  18  34  62  98 132 165 211 270 334 392
#     4  12  30  48  67  94 135 184 224 272 342 402
#     4  11  23  41  64  94 132 171 220 277 331 397
#
# _framework density 20.949480999999999
#
# number of rings (size 3 to 8) (size 9 to 14) (size 15 to 20)
#    0.000    1.429    4.286    3.000    4.000    1.143 
#    0.000    0.714    0.000    0.000    0.000    0.000 
#    0.000    0.000    0.000    0.000    0.000    0.000 
#
# Total GULP energy -156015.315115 kJ/mol
# GULP energy per Si atom -5571.975540 kJ/mol
# Density = 2.090180 g / cm^3
# Si number density = 20.949481 Si / 1000 Ang^3
#
#
#
# Elastic Constant Matrix: (Units=GPa)
#
#
# Indices 1 2 3 4 5 6 
#
# 1 144.2656 45.9207 15.1897 0.0000 0.0000 0.0000
# 2 45.9207 87.4970 -4.5615 0.0000 0.0000 0.0000
# 3 15.1897 -4.5615 29.2773 0.0000 0.0000 0.0000
# 4 0.0000 0.0000 0.0000 13.6285 0.0000 0.0000
# 5 0.0000 0.0000 0.0000 0.0000 26.9789 0.0000
# 6 0.0000 0.0000 0.0000 0.0000 0.0000 18.9246
#
#
#
# Elastic Compliance Matrix: (Units=1/GPa)
#
#
# Indices 1 2 3 4 5 6 
#
# 1 0.009131 -0.005080 -0.005529 0.000000 0.000000 0.000000
# 2 -0.005080 0.014349 0.004871 0.000000 0.000000 0.000000
# 3 -0.005529 0.004871 0.037784 0.000000 0.000000 0.000000
# 4 0.000000 0.000000 0.000000 0.073376 0.000000 0.000000
# 5 0.000000 0.000000 0.000000 0.000000 0.037066 0.000000
# 6 0.000000 0.000000 0.000000 0.000000 0.000000 0.052841
#
#
# Mechanical properties :
#
#
# Convention : Reuss Voigt Hill
#
# Bulk Modulus (GPa) = 20.08508 41.57086 30.82797
# Shear Modulus (GPa) = 19.79271 25.53913 22.66592
#
# Velocity S-wave (km/s) = 3.07707 3.49532 3.29284
# Velocity P-wave (km/s) = 4.71515 6.01466 5.40411
#
# Compressibility (1/GPa) = 0.04978820
#
# Stress axis : x y z
#
# Youngs Moduli (GPa) = 109.51819 69.69010 26.46652
#
# Poissons Ratio (x) = 0.35405 0.14633
# Poissons Ratio (y) = 0.55639 -0.12893
# Poissons Ratio (z) = 0.60551 -0.33949
#
# Static dielectric constant tensor:
#      x y z
#    x 1.836150 0.000000 0.000000 
#    y 0.000000 1.707060 0.000000 
#    z 0.000000 0.000000 1.761050 
# 
# From -- ./inp_files/48617.got.cif
#   From: 2010.05.17/outbox.cif.g08.bks.cpg/sg63_25_cif.got.tgz:48617.got - 2010.06.03 15:47:04.
