data_PCOD9469793
_publ_section_title
;
Structure prediction by ZEFSAII (Michael W. Deem and Ramdas Pophale) SiO2 
 PCOD9469793
Probable space group: C M C M
;
_chemical_formula_sum "Si O2"
_cell_formula_units_Z 104
_cell_length_a 22.569832
_cell_length_b 30.661024
_cell_length_c 9.273510
_cell_angle_alpha 90.000000
_cell_angle_beta 90.000000
_cell_angle_gamma 90.000000
_cell_volume 6417.400239
_symmetry_space_group_name_H-M "C M C M"
_symmetry_group_IT_number 63
_symmetry_cell_setting 'orthorhombic'
loop_
_space_group_symop_operation_xyz
x,y,z
-x,-y,1/2+z
x,-y,-z
-x,y,1/2-z
-x,-y,-z
x,y,1/2-z
-x,y,z
x,-y,1/2+z
1/2+x,1/2+y,z
1/2-x,1/2-y,1/2+z
1/2+x,1/2-y,-z
1/2-x,1/2+y,1/2-z
1/2-x,1/2-y,-z
1/2+x,1/2+y,1/2-z
1/2-x,1/2+y,z
1/2+x,1/2-y,1/2+z
loop_
_atom_site_type_symbol
_atom_site_label
_atom_site_fract_x
_atom_site_fract_y
_atom_site_fract_z
Si Si1 0.388628 0.608339 0.076928
Si Si2 0.929739 0.370781 0.921949
Si Si3 0.927951 0.282872 0.416062
Si Si4 0.000000 0.046355 0.077769
Si Si5 0.645833 0.955124 0.577139
Si Si6 0.428647 0.305174 0.079630
Si Si7 0.284033 0.455275 0.922292
O O1 0.390366 0.615977 0.250000
O O2 0.442241 0.575123 0.041846
O O3 0.327619 0.584048 0.039117
O O4 0.398780 0.653273 0.994407
O O5 0.921809 0.363978 0.750000
O O6 0.893766 0.413814 0.964932
O O7 0.000000 0.377183 0.947280
O O8 0.909801 0.327619 0.006366
O O9 0.908699 0.281145 0.250000
O O10 0.909848 0.239797 0.503209
O O11 0.000000 0.283000 0.417304
O O12 0.000000 0.039238 0.250000
O O13 0.000000 0.000000 0.000000
O O14 0.640898 0.960577 0.750000
O O15 0.715139 0.946810 0.542811
O O16 0.628150 0.000000 0.500000
O O17 0.416962 0.303501 0.250000
O O18 0.500000 0.309554 0.060208
O O19 0.288668 0.461576 0.750000
O O20 0.302094 0.500000 0.000000
#
# Coordination Sequence:
#
# PCOD9469793 Si02
#       7
#    16  16  16   8  16  16  16
#     4  10  19  31  46  65  91 122 156 196 239 280
#     4   9  17  30  48  71  99 127 154 187 230 277
#     4   9  17  29  47  70  96 125 154 188 230 279
#     4  10  20  30  42  62  90 120 150 190 239 282
#     4   9  18  32  49  70  96 126 159 193 229 272
#     4  10  19  30  46  69  95 123 155 192 235 282
#     4   9  18  32  49  67  89 122 161 197 233 275
#
# _framework density 16.205939000000001
#
# number of rings (size 3 to 8) (size 9 to 14) (size 15 to 20)
#    0.000    2.615    0.769    1.385    0.000    4.615 
#    0.000    0.000    0.000    0.923    0.000    0.000 
#    0.000    0.000    0.000    0.000    0.000    0.000 
#
# Total GULP energy -289926.242615 kJ/mol
# GULP energy per Si atom -5575.504666 kJ/mol
# Density = 1.616905 g / cm^3
# Si number density = 16.205939 Si / 1000 Ang^3
#
#
#
# Elastic Constant Matrix: (Units=GPa)
#
#
# Indices 1 2 3 4 5 6 
#
# 1 44.0600 68.2710 39.4913 0.0000 0.0000 0.0000
# 2 68.2710 199.6168 88.0314 0.0000 0.0000 0.0000
# 3 39.4913 88.0314 62.6549 0.0000 0.0000 0.0000
# 4 0.0000 0.0000 0.0000 37.4635 0.0000 0.0000
# 5 0.0000 0.0000 0.0000 0.0000 12.8795 0.0000
# 6 0.0000 0.0000 0.0000 0.0000 0.0000 19.6703
#
#
#
# Elastic Compliance Matrix: (Units=1/GPa)
#
#
# Indices 1 2 3 4 5 6 
#
# 1 0.058768 -0.009895 -0.023139 0.000000 0.000000 0.000000
# 2 -0.009895 0.014836 -0.014608 0.000000 0.000000 0.000000
# 3 -0.023139 -0.014608 0.051069 0.000000 0.000000 0.000000
# 4 0.000000 0.000000 0.000000 0.026693 0.000000 0.000000
# 5 0.000000 0.000000 0.000000 0.000000 0.077643 0.000000
# 6 0.000000 0.000000 0.000000 0.000000 0.000000 0.050838
#
#
# Mechanical properties :
#
#
# Convention : Reuss Voigt Hill
#
# Bulk Modulus (GPa) = 34.02534 77.54658 55.78596
# Shear Modulus (GPa) = 12.98950 21.37188 17.18069
#
# Velocity S-wave (km/s) = 2.83420 3.63542 3.25952
# Velocity P-wave (km/s) = 5.63484 8.09792 6.97595
#
# Compressibility (1/GPa) = 0.02938986
#
# Stress axis : x y z
#
# Youngs Moduli (GPa) = 17.01600 67.40386 19.58138
#
# Poissons Ratio (x) = 0.66697 0.45308
# Poissons Ratio (y) = 0.16838 0.28604
# Poissons Ratio (z) = 0.39373 0.98463
#
# Static dielectric constant tensor:
#      x y z
#    x 1.536220 0.000000 0.000000 
#    y 0.000000 1.514610 0.000000 
#    z 0.000000 0.000000 1.539830 
# 
# From -- ./inp_files/11083.got.cif
#   From: 2010.05.17/outbox.cif.g08.bks.cpg/sg63_6_cif.got.tgz:11083.got - 2010.06.03 15:47:04.
