data_PCOD9469581
_publ_section_title
;
Structure prediction by ZEFSAII (Michael W. Deem and Ramdas Pophale) SiO2 
 PCOD9469581
Probable space group: C M C M
;
_chemical_formula_sum "Si O2"
_cell_formula_units_Z 84
_cell_length_a 12.078246
_cell_length_b 29.200991
_cell_length_c 11.058224
_cell_angle_alpha 90.000000
_cell_angle_beta 90.000000
_cell_angle_gamma 90.000000
_cell_volume 3900.199696
_symmetry_space_group_name_H-M "C M C M"
_symmetry_group_IT_number 63
_symmetry_cell_setting 'orthorhombic'
loop_
_space_group_symop_operation_xyz
x,y,z
-x,-y,1/2+z
x,-y,-z
-x,y,1/2-z
-x,-y,-z
x,y,1/2-z
-x,y,z
x,-y,1/2+z
1/2+x,1/2+y,z
1/2-x,1/2-y,1/2+z
1/2+x,1/2-y,-z
1/2-x,1/2+y,1/2-z
1/2-x,1/2-y,-z
1/2+x,1/2+y,1/2-z
1/2-x,1/2+y,z
1/2+x,1/2-y,1/2+z
loop_
_atom_site_type_symbol
_atom_site_label
_atom_site_fract_x
_atom_site_fract_y
_atom_site_fract_z
Si Si1 0.263072 0.968083 0.113029
Si Si2 0.841454 0.333423 0.750000
Si Si3 0.701888 0.199566 0.998136
Si Si4 0.500000 0.936201 0.481499
Si Si5 0.624778 0.380828 0.750000
Si Si6 0.869428 0.885698 0.017953
Si Si7 0.000000 0.418838 0.750000
Si Si8 0.500000 0.839052 0.380932
O O1 0.256756 0.987118 0.250000
O O2 0.389013 0.953512 0.081789
O O3 0.187414 0.922753 0.103505
O O4 0.229218 0.000000 0.000000
O O5 0.863117 0.308742 0.624776
O O6 0.709638 0.339453 0.750000
O O7 0.895680 0.383823 0.750000
O O8 0.750000 0.250000 0.000000
O O9 0.797316 0.160962 0.980961
O O10 0.609270 0.190669 0.898048
O O11 0.500000 0.946741 0.625272
O O12 0.500000 0.881082 0.474177
O O13 0.500000 0.363513 0.750000
O O14 0.641222 0.404728 0.620951
O O15 0.000000 0.878663 0.042192
O O16 0.500000 0.861674 0.250000
#
# Coordination Sequence:
#
# PCOD9469581 Si02
#       8
#    16   8  16   8   8  16   4   8
#     4  12  28  47  72 103 138 178 228 287 351 421
#     4  10  18  38  56  90 132 171 227 278 322 393
#     4  11  24  40  66 101 139 181 233 283 340 402
#     4  12  23  44  74 101 142 177 228 279 350 418
#     4   8  16  34  64  92 119 166 219 269 327 389
#     4  10  22  43  68  97 138 182 228 286 345 410
#     4  12  20  38  74 100 130 186 226 276 342 408
#     4  12  24  43  68  98 139 189 227 278 348 407
#
# _framework density 21.537358999999999
#
# number of rings (size 3 to 8) (size 9 to 14) (size 15 to 20)
#    0.000    1.143    3.810    2.286    5.333    0.762 
#    0.000    0.000    0.000    0.000    0.000    0.000 
#    0.000    0.000    0.000    0.000    0.000    0.000 
#
# Total GULP energy -234510.908363 kJ/mol
# GULP energy per Si atom -5583.593056 kJ/mol
# Density = 2.148834 g / cm^3
# Si number density = 21.537359 Si / 1000 Ang^3
#
#
#
# Elastic Constant Matrix: (Units=GPa)
#
#
# Indices 1 2 3 4 5 6 
#
# 1 115.5169 45.7021 39.4241 0.0000 0.0000 0.0000
# 2 45.7021 110.3339 25.5534 0.0000 0.0000 0.0000
# 3 39.4241 25.5534 132.0897 0.0000 0.0000 0.0000
# 4 0.0000 0.0000 0.0000 21.4965 0.0000 0.0000
# 5 0.0000 0.0000 0.0000 0.0000 15.1334 0.0000
# 6 0.0000 0.0000 0.0000 0.0000 0.0000 11.6940
#
#
#
# Elastic Compliance Matrix: (Units=1/GPa)
#
#
# Indices 1 2 3 4 5 6 
#
# 1 0.011112 -0.004014 -0.002540 0.000000 0.000000 0.000000
# 2 -0.004014 0.010939 -0.000918 0.000000 0.000000 0.000000
# 3 -0.002540 -0.000918 0.008506 0.000000 0.000000 0.000000
# 4 0.000000 0.000000 0.000000 0.046519 0.000000 0.000000
# 5 0.000000 0.000000 0.000000 0.000000 0.066079 0.000000
# 6 0.000000 0.000000 0.000000 0.000000 0.000000 0.085514
#
#
# Mechanical properties :
#
#
# Convention : Reuss Voigt Hill
#
# Bulk Modulus (GPa) = 64.05214 64.36664 64.20939
# Shear Modulus (GPa) = 20.09501 26.14884 23.12192
#
# Velocity S-wave (km/s) = 3.05787 3.48820 3.28010
# Velocity P-wave (km/s) = 6.50169 6.79517 6.65005
#
# Compressibility (1/GPa) = 0.01561228
#
# Stress axis : x y z
#
# Youngs Moduli (GPa) = 89.99442 91.41715 117.56040
#
# Poissons Ratio (x) = 0.36699 0.29859
# Poissons Ratio (y) = 0.36128 0.10792
# Poissons Ratio (z) = 0.22857 0.08392
#
# Static dielectric constant tensor:
#      x y z
#    x 1.781410 0.000000 0.000000 
#    y 0.000000 1.749400 0.000000 
#    z 0.000000 0.000000 1.863370 
# 
# From -- ./inp_files/18065.got.cif
#   From: 2010.05.17/outbox.cif.g08.bks.cpg/sg63_10_cif.got.tgz:18065.got - 2010.06.03 15:47:04.
