data_PCOD9469676
_publ_section_title
;
Structure prediction by ZEFSAII (Michael W. Deem and Ramdas Pophale) SiO2 
 PCOD9469676
Probable space group: C M C M
;
_chemical_formula_sum "Si O2"
_cell_formula_units_Z 96
_cell_length_a 7.791731
_cell_length_b 29.421093
_cell_length_c 23.940780
_cell_angle_alpha 90.000000
_cell_angle_beta 90.000000
_cell_angle_gamma 90.000000
_cell_volume 5488.214151
_symmetry_space_group_name_H-M "C M C M"
_symmetry_group_IT_number 63
_symmetry_cell_setting 'orthorhombic'
loop_
_space_group_symop_operation_xyz
x,y,z
-x,-y,1/2+z
x,-y,-z
-x,y,1/2-z
-x,-y,-z
x,y,1/2-z
-x,y,z
x,-y,1/2+z
1/2+x,1/2+y,z
1/2-x,1/2-y,1/2+z
1/2+x,1/2-y,-z
1/2-x,1/2+y,1/2-z
1/2-x,1/2-y,-z
1/2+x,1/2+y,1/2-z
1/2-x,1/2+y,z
1/2+x,1/2-y,1/2+z
loop_
_atom_site_type_symbol
_atom_site_label
_atom_site_fract_x
_atom_site_fract_y
_atom_site_fract_z
Si Si1 0.198002 0.575192 0.684411
Si Si2 0.000000 0.097386 0.317601
Si Si3 0.500000 0.493089 0.317202
Si Si4 0.706685 0.303195 0.991527
Si Si5 0.790864 0.160363 0.608120
Si Si6 0.696095 0.674820 0.131178
Si Si7 0.299474 0.738250 0.689412
O O1 0.233465 0.587718 0.750000
O O2 0.331518 0.535848 0.667792
O O3 0.226277 0.617607 0.643410
O O4 0.000000 0.560439 0.681596
O O5 0.837284 0.125098 0.343081
O O6 0.000000 0.101018 0.250000
O O7 0.000000 0.045200 0.336172
O O8 0.500000 0.495833 0.250000
O O9 0.500000 0.306715 0.991909
O O10 0.768281 0.321232 0.931312
O O11 0.750000 0.250000 0.000000
O O12 0.768098 0.332622 0.044427
O O13 0.732163 0.205434 0.641371
O O14 0.000000 0.157969 0.607553
O O15 0.500000 0.693341 0.128145
O O16 0.788165 0.709455 0.171991
O O17 0.218840 0.730650 0.750000
O O18 0.500000 0.726626 0.693355
#
# Coordination Sequence:
#
# PCOD9469676 Si02
#       7
#    16   8   8  16  16  16  16
#     4  10  20  34  55  84 111 139 180 227 281 342
#     4   9  18  34  57  79 103 143 181 223 285 327
#     4   9  18  36  59  79 111 145 176 231 288 337
#     4  10  19  32  49  71 103 142 186 222 257 312
#     4  10  19  31  49  71 107 149 182 217 271 328
#     4   9  19  32  49  72 102 133 180 224 256 312
#     4  10  19  29  44  70 104 142 174 210 265 323
#
# _framework density 17.492028999999999
#
# number of rings (size 3 to 8) (size 9 to 14) (size 15 to 20)
#    0.500    1.833    2.500    1.000    0.000    2.000 
#    0.000    0.833    0.000    5.000    0.000    1.167 
#    0.000    0.000    0.000    0.000    0.000    0.000 
#
# Total GULP energy -267227.074265 kJ/mol
# GULP energy per Si atom -5567.230714 kJ/mol
# Density = 1.745222 g / cm^3
# Si number density = 17.492029 Si / 1000 Ang^3
#
#
#
# Elastic Constant Matrix: (Units=GPa)
#
#
# Indices 1 2 3 4 5 6 
#
# 1 39.9314 13.2515 10.2501 0.0000 0.0000 0.0000
# 2 13.2515 106.4483 26.9870 0.0000 0.0000 0.0000
# 3 10.2501 26.9870 96.4136 0.0000 0.0000 0.0000
# 4 0.0000 0.0000 0.0000 5.0168 0.0000 0.0000
# 5 0.0000 0.0000 0.0000 0.0000 12.8128 0.0000
# 6 0.0000 0.0000 0.0000 0.0000 0.0000 19.5646
#
#
#
# Elastic Compliance Matrix: (Units=1/GPa)
#
#
# Indices 1 2 3 4 5 6 
#
# 1 0.026489 -0.002781 -0.002038 0.000000 0.000000 0.000000
# 2 -0.002781 0.010404 -0.002616 0.000000 0.000000 0.000000
# 3 -0.002038 -0.002616 0.011321 0.000000 0.000000 0.000000
# 4 0.000000 0.000000 0.000000 0.199332 0.000000 0.000000
# 5 0.000000 0.000000 0.000000 0.000000 0.078047 0.000000
# 6 0.000000 0.000000 0.000000 0.000000 0.000000 0.051113
#
#
# Mechanical properties :
#
#
# Convention : Reuss Voigt Hill
#
# Bulk Modulus (GPa) = 29.99090 38.19671 34.09381
# Shear Modulus (GPa) = 12.41652 20.29915 16.35783
#
# Velocity S-wave (km/s) = 2.66717 3.41028 3.06135
# Velocity P-wave (km/s) = 5.16408 6.11479 5.65944
#
# Compressibility (1/GPa) = 0.03334344
#
# Stress axis : x y z
#
# Youngs Moduli (GPa) = 37.75164 96.11912 88.33151
#
# Poissons Ratio (x) = 0.26730 0.17999
# Poissons Ratio (y) = 0.10498 0.23112
# Poissons Ratio (z) = 0.07693 0.25149
#
# Static dielectric constant tensor:
#      x y z
#    x 1.569550 0.000000 0.000000 
#    y 0.000000 1.563180 0.000000 
#    z 0.000000 0.000000 1.636730 
# 
# From -- ./inp_files/60301.got.cif
#   From: 2010.05.17/outbox.cif.g08.bks.cpg/sg63_31_cif.got.tgz:60301.got - 2010.06.03 15:47:04.
