data_PCOD9469179
_publ_section_title
;
Structure prediction by ZEFSAII (Michael W. Deem and Ramdas Pophale) SiO2 
 PCOD9469179
Probable space group: C M C M
;
_chemical_formula_sum "Si O2"
_cell_formula_units_Z 80
_cell_length_a 20.989059
_cell_length_b 23.827717
_cell_length_c 8.226757
_cell_angle_alpha 90.000000
_cell_angle_beta 90.000000
_cell_angle_gamma 90.000000
_cell_volume 4114.376882
_symmetry_space_group_name_H-M "C M C M"
_symmetry_group_IT_number 63
_symmetry_cell_setting 'orthorhombic'
loop_
_space_group_symop_operation_xyz
x,y,z
-x,-y,1/2+z
x,-y,-z
-x,y,1/2-z
-x,-y,-z
x,y,1/2-z
-x,y,z
x,-y,1/2+z
1/2+x,1/2+y,z
1/2-x,1/2-y,1/2+z
1/2+x,1/2-y,-z
1/2-x,1/2+y,1/2-z
1/2-x,1/2-y,-z
1/2+x,1/2+y,1/2-z
1/2-x,1/2+y,z
1/2+x,1/2-y,1/2+z
loop_
_atom_site_type_symbol
_atom_site_label
_atom_site_fract_x
_atom_site_fract_y
_atom_site_fract_z
Si Si1 0.000000 0.063675 0.445743
Si Si2 0.124910 0.629292 0.943812
Si Si3 0.749600 0.435358 0.556664
Si Si4 0.500000 0.063928 0.055985
Si Si5 0.074728 0.251004 0.051415
Si Si6 0.375134 0.369208 0.948883
O O1 0.936525 0.095188 0.501380
O O2 0.000000 0.066012 0.250000
O O3 0.000000 0.000000 0.500000
O O4 0.131810 0.631331 0.750000
O O5 0.110607 0.692618 0.002876
O O6 0.186495 0.598105 0.012485
O O7 0.062407 0.594083 0.987903
O O8 0.750724 0.500000 0.500000
O O9 0.744287 0.437263 0.750000
O O10 0.688742 0.400072 0.493373
O O11 0.500000 0.067183 0.250000
O O12 0.500000 0.000000 0.000000
O O13 0.073496 0.251455 0.250000
O O14 0.111662 0.194805 0.000164
O O15 0.000000 0.250468 0.000801
O O16 0.373696 0.368840 0.750000
#
# Coordination Sequence:
#
# PCOD9469179 Si02
#       6
#     8  16  16   8  16  16
#     4  10  18  31  54  82 110 145 191 240 281 334
#     4  11  22  38  61  88 115 151 193 238 288 345
#     4  11  23  39  57  83 119 158 195 241 290 343
#     4  12  24  39  60  86 116 149 191 242 291 344
#     4   9  16  32  59  88 115 146 189 236 285 347
#     4   9  18  33  57  85 114 150 194 237 285 341
#
# _framework density 19.444013000000002
#
# number of rings (size 3 to 8) (size 9 to 14) (size 15 to 20)
#    0.000    1.800    2.000    3.300    0.000    0.800 
#    0.000    1.000    0.000    7.200    0.000    0.000 
#    0.000    0.000    0.000    0.000    0.000    0.000 
#
# Total GULP energy -223407.012071 kJ/mol
# GULP energy per Si atom -5585.175302 kJ/mol
# Density = 1.939976 g / cm^3
# Si number density = 19.444013 Si / 1000 Ang^3
#
#
#
# Elastic Constant Matrix: (Units=GPa)
#
#
# Indices 1 2 3 4 5 6 
#
# 1 194.1418 122.3059 8.9542 0.0000 0.0000 0.0000
# 2 122.3059 237.1176 13.1427 0.0000 0.0000 0.0000
# 3 8.9542 13.1427 19.3300 0.0000 0.0000 0.0000
# 4 0.0000 0.0000 0.0000 8.6099 0.0000 0.0000
# 5 0.0000 0.0000 0.0000 0.0000 -17.3174 0.0000
# 6 0.0000 0.0000 0.0000 0.0000 0.0000 51.3637
#
#
#
# Elastic Compliance Matrix: (Units=1/GPa)
#
#
# Indices 1 2 3 4 5 6 
#
# 1 0.007645 -0.003894 -0.000894 0.000000 0.000000 0.000000
# 2 -0.003894 0.006366 -0.002524 0.000000 0.000000 0.000000
# 3 -0.000894 -0.002524 0.053864 0.000000 0.000000 0.000000
# 4 0.000000 0.000000 0.000000 0.116145 0.000000 0.000000
# 5 0.000000 0.000000 0.000000 0.000000 -0.057745 0.000000
# 6 0.000000 0.000000 0.000000 0.000000 0.000000 0.019469
#
#
# Mechanical properties :
#
#
# Convention : Reuss Voigt Hill
#
# Bulk Modulus (GPa) = 18.77933 82.15499 50.46716
# Shear Modulus (GPa) = 28.07129 28.94367 28.50748
#
# Velocity S-wave (km/s) = 3.80373 3.86238 3.83316
# Velocity P-wave (km/s) = 5.38240 7.88888 6.75295
#
# Compressibility (1/GPa) = 0.05325004
#
# Stress axis : x y z
#
# Youngs Moduli (GPa) = 130.80172 157.09218 18.56541
#
# Poissons Ratio (x) = 0.61169 0.01660
# Poissons Ratio (y) = 0.50932 0.04687
# Poissons Ratio (z) = 0.11693 0.39656
#
# Static dielectric constant tensor:
#      x y z
#    x 1.663330 0.000000 0.000000 
#    y 0.000000 1.669560 0.000000 
#    z 0.000000 0.000000 1.678670 
# 
# From -- ./inp_files/8111.got.cif
#   From: 2010.05.17/outbox.cif.g08.bks.cpg/sg63_5_cif.got.tgz:8111.got - 2010.06.03 15:47:04.
