data_PCOD9469279
_publ_section_title
;
Structure prediction by ZEFSAII (Michael W. Deem and Ramdas Pophale) SiO2 
 PCOD9469279
Probable space group: C M C M
;
_chemical_formula_sum "Si O2"
_cell_formula_units_Z 88
_cell_length_a 23.050172
_cell_length_b 9.006124
_cell_length_c 23.425845
_cell_angle_alpha 90.000000
_cell_angle_beta 90.000000
_cell_angle_gamma 90.000000
_cell_volume 4863.034583
_symmetry_space_group_name_H-M "C M C M"
_symmetry_group_IT_number 63
_symmetry_cell_setting 'orthorhombic'
loop_
_space_group_symop_operation_xyz
x,y,z
-x,-y,1/2+z
x,-y,-z
-x,y,1/2-z
-x,-y,-z
x,y,1/2-z
-x,y,z
x,-y,1/2+z
1/2+x,1/2+y,z
1/2-x,1/2-y,1/2+z
1/2+x,1/2-y,-z
1/2-x,1/2+y,1/2-z
1/2-x,1/2-y,-z
1/2+x,1/2+y,1/2-z
1/2-x,1/2+y,z
1/2+x,1/2-y,1/2+z
loop_
_atom_site_type_symbol
_atom_site_label
_atom_site_fract_x
_atom_site_fract_y
_atom_site_fract_z
Si Si1 0.833693 0.288488 0.961524
Si Si2 0.065509 0.851247 0.886590
Si Si3 0.640687 0.079685 0.586365
Si Si4 0.751636 0.268766 0.367719
Si Si5 0.104006 0.000000 0.000000
Si Si6 0.671445 0.491255 0.682572
O O1 0.870142 0.405893 0.923165
O O2 0.771828 0.284596 0.929778
O O3 0.857049 0.122460 0.967857
O O4 0.839150 0.354677 0.024921
O O5 0.088528 0.681856 0.891705
O O6 0.112700 0.941277 0.849539
O O7 0.000000 0.860236 0.865096
O O8 0.068708 0.916804 0.950837
O O9 0.696369 0.113053 0.625161
O O10 0.697876 0.352204 0.338438
O O11 0.780732 0.133161 0.334471
O O12 0.662727 0.492898 0.750000
#
# Coordination Sequence:
#
# PCOD9469279 Si02
#       6
#    16  16  16  16   8  16
#     4  10  18  32  52  83 115 147 175 220 278 337
#     4  10  21  38  57  80 111 148 190 229 270 330
#     4   9  20  32  52  81 115 148 181 217 279 336
#     4  11  19  35  54  81 114 142 182 228 282 332
#     4  10  19  34  58  86 114 144 183 232 276 328
#     4  11  23  37  57  83 111 147 186 231 282 328
#
# _framework density 18.095697000000001
#
# number of rings (size 3 to 8) (size 9 to 14) (size 15 to 20)
#    0.000    1.818    3.636    1.364    0.000    1.818 
#    0.000    8.182    0.000    0.000    0.000    0.000 
#    0.000    0.000    0.000    0.000    0.000    0.000 
#
# Total GULP energy -245198.145855 kJ/mol
# GULP energy per Si atom -5572.685133 kJ/mol
# Density = 1.805451 g / cm^3
# Si number density = 18.095697 Si / 1000 Ang^3
#
#
#
# Elastic Constant Matrix: (Units=GPa)
#
#
# Indices 1 2 3 4 5 6 
#
# 1 107.3449 32.7559 32.0196 0.0000 0.0000 0.0000
# 2 32.7559 77.2814 3.9043 0.0000 0.0000 0.0000
# 3 32.0196 3.9043 67.0606 0.0000 0.0000 0.0000
# 4 0.0000 0.0000 0.0000 15.4980 0.0000 0.0000
# 5 0.0000 0.0000 0.0000 0.0000 8.4243 0.0000
# 6 0.0000 0.0000 0.0000 0.0000 0.0000 11.5500
#
#
#
# Elastic Compliance Matrix: (Units=1/GPa)
#
#
# Indices 1 2 3 4 5 6 
#
# 1 0.012552 -0.005032 -0.005700 0.000000 0.000000 0.000000
# 2 -0.005032 0.014995 0.001530 0.000000 0.000000 0.000000
# 3 -0.005700 0.001530 0.017544 0.000000 0.000000 0.000000
# 4 0.000000 0.000000 0.000000 0.064525 0.000000 0.000000
# 5 0.000000 0.000000 0.000000 0.000000 0.118704 0.000000
# 6 0.000000 0.000000 0.000000 0.000000 0.000000 0.086580
#
#
# Mechanical properties :
#
#
# Convention : Reuss Voigt Hill
#
# Bulk Modulus (GPa) = 37.47229 43.22738 40.34984
# Shear Modulus (GPa) = 14.61132 19.29493 16.95313
#
# Velocity S-wave (km/s) = 2.84464 3.26892 3.06414
# Velocity P-wave (km/s) = 5.61624 6.17964 5.90466
#
# Compressibility (1/GPa) = 0.02668638
#
# Stress axis : x y z
#
# Youngs Moduli (GPa) = 79.67166 66.68760 56.99808
#
# Poissons Ratio (x) = 0.33557 0.32489
# Poissons Ratio (y) = 0.40091 -0.08719
# Poissons Ratio (z) = 0.45413 -0.10201
#
# Static dielectric constant tensor:
#      x y z
#    x 1.610090 0.000000 0.000000 
#    y 0.000000 1.671490 0.000000 
#    z 0.000000 0.000000 1.625140 
# 
# From -- ./inp_files/64420.got.cif
#   From: 2010.05.17/outbox.cif.g08.bks.cpg/sg63_33_cif.got.tgz:64420.got - 2010.06.03 15:47:04.
