data_PCOD9469485
_publ_section_title
;
Structure prediction by ZEFSAII (Michael W. Deem and Ramdas Pophale) SiO2 
 PCOD9469485
Probable space group: C M C M
;
_chemical_formula_sum "Si O2"
_cell_formula_units_Z 96
_cell_length_a 14.128268
_cell_length_b 22.827064
_cell_length_c 14.947562
_cell_angle_alpha 90.000000
_cell_angle_beta 90.000000
_cell_angle_gamma 90.000000
_cell_volume 4820.691552
_symmetry_space_group_name_H-M "C M C M"
_symmetry_group_IT_number 63
_symmetry_cell_setting 'orthorhombic'
loop_
_space_group_symop_operation_xyz
x,y,z
-x,-y,1/2+z
x,-y,-z
-x,y,1/2-z
-x,-y,-z
x,y,1/2-z
-x,y,z
x,-y,1/2+z
1/2+x,1/2+y,z
1/2-x,1/2-y,1/2+z
1/2+x,1/2-y,-z
1/2-x,1/2+y,1/2-z
1/2-x,1/2-y,-z
1/2+x,1/2+y,1/2-z
1/2-x,1/2+y,z
1/2+x,1/2-y,1/2+z
loop_
_atom_site_type_symbol
_atom_site_label
_atom_site_fract_x
_atom_site_fract_y
_atom_site_fract_z
Si Si1 0.893668 0.493048 0.892060
Si Si2 0.388386 0.736042 0.649021
Si Si3 0.886829 0.908299 0.853271
Si Si4 0.391785 0.137286 0.428261
Si Si5 0.797656 0.143822 0.977681
Si Si6 0.692814 0.536981 0.850667
O O1 0.878151 0.423721 0.875973
O O2 0.806213 0.527916 0.852533
O O3 0.000000 0.509147 0.863424
O O4 0.889367 0.500000 0.000000
O O5 0.358340 0.721361 0.750000
O O6 0.500000 0.721310 0.639893
O O7 0.380149 0.805392 0.632034
O O8 0.330297 0.700909 0.575044
O O9 0.859496 0.896586 0.750000
O O10 0.000000 0.906774 0.859328
O O11 0.851012 0.974016 0.875502
O O12 0.842267 0.863836 0.924102
O O13 0.500000 0.136030 0.462083
O O14 0.314628 0.140716 0.506285
O O15 0.830763 0.088158 0.919260
O O16 0.661307 0.551376 0.750000
#
# Coordination Sequence:
#
# PCOD9469485 Si02
#       6
#    16  16  16  16  16  16
#     4  10  18  34  58  85 116 153 194 241 295 350
#     4  10  23  41  60  88 120 154 204 254 295 351
#     4  10  22  38  57  85 118 153 200 250 296 356
#     4  10  21  37  61  86 115 155 199 247 297 349
#     4  12  21  38  62  87 117 160 195 247 304 358
#     4  11  22  35  54  85 120 157 198 238 292 357
#
# _framework density 19.914155000000001
#
# number of rings (size 3 to 8) (size 9 to 14) (size 15 to 20)
#    0.000    1.500    3.333    2.000    0.000    3.667 
#    0.000    3.333    0.000    1.500    0.000    2.333 
#    0.000    0.000    0.000    0.000    0.000    0.000 
#
# Total GULP energy -268198.251817 kJ/mol
# GULP energy per Si atom -5587.463580 kJ/mol
# Density = 1.986883 g / cm^3
# Si number density = 19.914155 Si / 1000 Ang^3
#
#
#
# Elastic Constant Matrix: (Units=GPa)
#
#
# Indices 1 2 3 4 5 6 
#
# 1 48.3961 9.4414 12.3499 0.0000 0.0000 0.0000
# 2 9.4414 55.2904 20.8979 0.0000 0.0000 0.0000
# 3 12.3499 20.8979 71.3193 0.0000 0.0000 0.0000
# 4 0.0000 0.0000 0.0000 21.6242 0.0000 0.0000
# 5 0.0000 0.0000 0.0000 0.0000 15.1166 0.0000
# 6 0.0000 0.0000 0.0000 0.0000 0.0000 22.9325
#
#
#
# Elastic Compliance Matrix: (Units=1/GPa)
#
#
# Indices 1 2 3 4 5 6 
#
# 1 0.021945 -0.002599 -0.003039 0.000000 0.000000 0.000000
# 2 -0.002599 0.020647 -0.005600 0.000000 0.000000 0.000000
# 3 -0.003039 -0.005600 0.016188 0.000000 0.000000 0.000000
# 4 0.000000 0.000000 0.000000 0.046244 0.000000 0.000000
# 5 0.000000 0.000000 0.000000 0.000000 0.066152 0.000000
# 6 0.000000 0.000000 0.000000 0.000000 0.000000 0.043606
#
#
# Mechanical properties :
#
#
# Convention : Reuss Voigt Hill
#
# Bulk Modulus (GPa) = 27.54385 28.93158 28.23772
# Shear Modulus (GPa) = 20.05132 20.75576 20.40354
#
# Velocity S-wave (km/s) = 3.17659 3.23191 3.20437
# Velocity P-wave (km/s) = 5.22644 5.33729 5.28215
#
# Compressibility (1/GPa) = 0.03630574
#
# Stress axis : x y z
#
# Youngs Moduli (GPa) = 45.56799 48.43398 61.77231
#
# Poissons Ratio (x) = 0.12588 0.18770
# Poissons Ratio (y) = 0.11843 0.34591
# Poissons Ratio (z) = 0.13846 0.27122
#
# Static dielectric constant tensor:
#      x y z
#    x 1.709690 0.000000 0.000000 
#    y 0.000000 1.695720 0.000000 
#    z 0.000000 0.000000 1.705960 
# 
# From -- ./inp_files/31848.got.cif
#   From: 2010.05.17/outbox.cif.g08.bks.cpg/sg63_16_cif.got.tgz:31848.got - 2010.06.03 15:47:04.
