data_PCOD9469827
_publ_section_title
;
Structure prediction by ZEFSAII (Michael W. Deem and Ramdas Pophale) SiO2 
 PCOD9469827
Probable space group: C M C M
;
_chemical_formula_sum "Si O2"
_cell_formula_units_Z 96
_cell_length_a 8.610429
_cell_length_b 23.836124
_cell_length_c 28.032186
_cell_angle_alpha 90.000000
_cell_angle_beta 90.000000
_cell_angle_gamma 90.000000
_cell_volume 5753.304924
_symmetry_space_group_name_H-M "C M C M"
_symmetry_group_IT_number 63
_symmetry_cell_setting 'orthorhombic'
loop_
_space_group_symop_operation_xyz
x,y,z
-x,-y,1/2+z
x,-y,-z
-x,y,1/2-z
-x,-y,-z
x,y,1/2-z
-x,y,z
x,-y,1/2+z
1/2+x,1/2+y,z
1/2-x,1/2-y,1/2+z
1/2+x,1/2-y,-z
1/2-x,1/2+y,1/2-z
1/2-x,1/2-y,-z
1/2+x,1/2+y,1/2-z
1/2-x,1/2+y,z
1/2+x,1/2-y,1/2+z
loop_
_atom_site_type_symbol
_atom_site_label
_atom_site_fract_x
_atom_site_fract_y
_atom_site_fract_z
Si Si1 0.679904 0.641573 0.750000
Si Si2 0.181116 0.994208 0.250000
Si Si3 0.313882 0.858075 0.150975
Si Si4 0.187316 0.164843 0.471140
Si Si5 0.186971 0.512177 0.646567
Si Si6 0.188307 0.036952 0.453190
Si Si7 0.312298 0.779691 0.432689
O O1 0.500000 0.655899 0.750000
O O2 0.694003 0.573676 0.750000
O O3 0.761960 0.661607 0.797411
O O4 0.254655 0.010700 0.198422
O O5 0.000000 0.009727 0.250000
O O6 0.500000 0.859466 0.148681
O O7 0.261152 0.922327 0.143462
O O8 0.254154 0.815156 0.111802
O O9 0.238409 0.101620 0.460783
O O10 0.251812 0.188280 0.520761
O O11 0.233227 0.214207 0.434286
O O12 0.000000 0.163647 0.473546
O O13 0.248112 0.483878 0.597934
O O14 0.000000 0.510156 0.647075
O O15 0.000000 0.034703 0.451131
O O16 0.235188 0.000000 0.500000
O O17 0.500000 0.781280 0.433397
#
# Coordination Sequence:
#
# PCOD9469827 Si02
#       7
#     8   8  16  16  16  16  16
#     4   9  17  27  43  68  93 116 145 182 222 267
#     4   9  17  31  49  68  93 124 155 188 230 277
#     4   9  17  29  45  66  92 119 146 181 226 270
#     4   9  18  31  46  66  91 119 153 189 224 267
#     4  10  19  30  47  71  96 122 154 192 232 275
#     4  10  20  32  46  67  97 129 158 191 233 280
#     4   9  17  30  48  67  88 117 152 187 224 269
#
# _framework density 16.686060999999999
#
# number of rings (size 3 to 8) (size 9 to 14) (size 15 to 20)
#    0.000    2.667    0.000    2.000    0.000    4.333 
#    0.000    0.000    0.000    1.000    0.000    3.500 
#    0.000    0.000    0.000    0.000    0.000    0.000 
#
# Total GULP energy -267242.668465 kJ/mol
# GULP energy per Si atom -5567.555593 kJ/mol
# Density = 1.664808 g / cm^3
# Si number density = 16.686061 Si / 1000 Ang^3
#
#
#
# Elastic Constant Matrix: (Units=GPa)
#
#
# Indices 1 2 3 4 5 6 
#
# 1 8.7871 19.6394 24.6037 0.0000 0.0000 0.0000
# 2 19.6394 115.5129 81.9382 0.0000 0.0000 0.0000
# 3 24.6037 81.9382 143.1383 0.0000 0.0000 0.0000
# 4 0.0000 0.0000 0.0000 26.9180 0.0000 0.0000
# 5 0.0000 0.0000 0.0000 0.0000 30.3730 0.0000
# 6 0.0000 0.0000 0.0000 0.0000 0.0000 8.5402
#
#
#
# Elastic Compliance Matrix: (Units=1/GPa)
#
#
# Indices 1 2 3 4 5 6 
#
# 1 0.243413 -0.019709 -0.030557 0.000000 0.000000 0.000000
# 2 -0.019709 0.016171 -0.005869 0.000000 0.000000 0.000000
# 3 -0.030557 -0.005869 0.015599 0.000000 0.000000 0.000000
# 4 0.000000 0.000000 0.000000 0.037150 0.000000 0.000000
# 5 0.000000 0.000000 0.000000 0.000000 0.032924 0.000000
# 6 0.000000 0.000000 0.000000 0.000000 0.000000 0.117093
#
#
# Mechanical properties :
#
#
# Convention : Reuss Voigt Hill
#
# Bulk Modulus (GPa) = 6.13833 57.75566 31.94699
# Shear Modulus (GPa) = 7.95008 22.58338 15.26673
#
# Velocity S-wave (km/s) = 2.18514 3.68289 3.02808
# Velocity P-wave (km/s) = 3.17067 7.26451 5.60474
#
# Compressibility (1/GPa) = 0.16291088
#
# Stress axis : x y z
#
# Youngs Moduli (GPa) = 4.10825 61.83762 64.10846
#
# Poissons Ratio (x) = 1.21877 1.95898
# Poissons Ratio (y) = 0.08097 0.37628
# Poissons Ratio (z) = 0.12554 0.36295
#
# Static dielectric constant tensor:
#      x y z
#    x 1.562600 0.000000 0.000000 
#    y 0.000000 1.569080 0.000000 
#    z 0.000000 0.000000 1.561910 
# 
# From -- ./inp_files/67265.got.cif
#   From: 2010.05.17/outbox.cif.g08.bks.cpg/sg63_34_cif.got.tgz:67265.got - 2010.06.03 15:47:04.
