data_PCOD9469030
_publ_section_title
;
Structure prediction by ZEFSAII (Michael W. Deem and Ramdas Pophale) SiO2 
 PCOD9469030
Probable space group: C M C M
;
_chemical_formula_sum "Si O2"
_cell_formula_units_Z 88
_cell_length_a 14.186190
_cell_length_b 24.055730
_cell_length_c 13.480848
_cell_angle_alpha 90.000000
_cell_angle_beta 90.000000
_cell_angle_gamma 90.000000
_cell_volume 4600.462816
_symmetry_space_group_name_H-M "C M C M"
_symmetry_group_IT_number 63
_symmetry_cell_setting 'orthorhombic'
loop_
_space_group_symop_operation_xyz
x,y,z
-x,-y,1/2+z
x,-y,-z
-x,y,1/2-z
-x,-y,-z
x,y,1/2-z
-x,y,z
x,-y,1/2+z
1/2+x,1/2+y,z
1/2-x,1/2-y,1/2+z
1/2+x,1/2-y,-z
1/2-x,1/2+y,1/2-z
1/2-x,1/2-y,-z
1/2+x,1/2+y,1/2-z
1/2-x,1/2+y,z
1/2+x,1/2-y,1/2+z
loop_
_atom_site_type_symbol
_atom_site_label
_atom_site_fract_x
_atom_site_fract_y
_atom_site_fract_z
Si Si1 0.000000 0.439266 0.952006
Si Si2 0.136860 0.144675 0.861899
Si Si3 0.105612 0.061925 0.456778
Si Si4 0.000000 0.677636 0.543666
Si Si5 0.698731 0.194538 0.536271
Si Si6 0.303341 0.102352 0.366566
Si Si7 0.000000 0.753115 0.360183
O O1 0.099458 0.430905 0.892965
O O2 0.000000 0.500000 0.000000
O O3 0.000000 0.388949 0.033718
O O4 0.118540 0.124666 0.750000
O O5 0.243972 0.159278 0.883581
O O6 0.085677 0.204097 0.873523
O O7 0.106643 0.103261 0.948402
O O8 0.201418 0.074234 0.394396
O O9 0.000000 0.067988 0.409311
O O10 0.112358 0.000000 0.500000
O O11 0.096265 0.702649 0.583375
O O12 0.000000 0.702266 0.432515
O O13 0.750000 0.250000 0.500000
O O14 0.692048 0.155865 0.438426
O O15 0.303708 0.115338 0.250000
O O16 0.000000 0.731022 0.250000
#
# Coordination Sequence:
#
# PCOD9469030 Si02
#       7
#     8  16  16   8  16  16   8
#     4  10  21  40  63  86 119 154 202 260 313 357
#     4  10  20  35  56  83 112 150 197 247 295 347
#     4  10  21  37  57  83 119 158 198 245 301 362
#     4  10  20  34  56  83 114 153 195 240 299 361
#     4  10  20  35  56  84 119 158 192 244 301 359
#     4  10  22  38  60  89 120 156 203 250 303 364
#     4  10  18  30  55  85 112 141 190 244 286 340
#
# _framework density 19.128509999999999
#
# number of rings (size 3 to 8) (size 9 to 14) (size 15 to 20)
#    0.000    2.000    2.727    0.818    0.000    4.727 
#    0.000    2.273    0.000    4.364    0.000    0.000 
#    0.000    0.000    0.000    0.000    0.000    0.000 
#
# Total GULP energy -244959.154572 kJ/mol
# GULP energy per Si atom -5567.253513 kJ/mol
# Density = 1.908497 g / cm^3
# Si number density = 19.128510 Si / 1000 Ang^3
#
#
#
# Elastic Constant Matrix: (Units=GPa)
#
#
# Indices 1 2 3 4 5 6 
#
# 1 173.8567 18.3131 20.2685 0.0000 0.0000 0.0000
# 2 18.3131 69.2238 13.2062 0.0000 0.0000 0.0000
# 3 20.2685 13.2062 61.7357 0.0000 0.0000 0.0000
# 4 0.0000 0.0000 0.0000 13.2333 0.0000 0.0000
# 5 0.0000 0.0000 0.0000 0.0000 21.5607 0.0000
# 6 0.0000 0.0000 0.0000 0.0000 0.0000 24.3308
#
#
#
# Elastic Compliance Matrix: (Units=1/GPa)
#
#
# Indices 1 2 3 4 5 6 
#
# 1 0.006088 -0.001282 -0.001725 0.000000 0.000000 0.000000
# 2 -0.001282 0.015330 -0.002859 0.000000 0.000000 0.000000
# 3 -0.001725 -0.002859 0.017376 0.000000 0.000000 0.000000
# 4 0.000000 0.000000 0.000000 0.075567 0.000000 0.000000
# 5 0.000000 0.000000 0.000000 0.000000 0.046381 0.000000
# 6 0.000000 0.000000 0.000000 0.000000 0.000000 0.041100
#
#
# Mechanical properties :
#
#
# Convention : Reuss Voigt Hill
#
# Bulk Modulus (GPa) = 36.94885 45.37688 41.16287
# Shear Modulus (GPa) = 22.46255 28.69352 25.57803
#
# Velocity S-wave (km/s) = 3.43052 3.87724 3.66070
# Velocity P-wave (km/s) = 5.92025 6.61948 6.27961
#
# Compressibility (1/GPa) = 0.02706444
#
# Stress axis : x y z
#
# Youngs Moduli (GPa) = 164.26005 65.23030 57.55136
#
# Poissons Ratio (x) = 0.08360 0.09925
# Poissons Ratio (y) = 0.21051 0.16452
# Poissons Ratio (z) = 0.28328 0.18647
#
# Static dielectric constant tensor:
#      x y z
#    x 1.848210 0.000000 0.000000 
#    y 0.000000 1.643940 0.000000 
#    z 0.000000 0.000000 1.657010 
# 
# From -- ./inp_files/19554.got.cif
#   From: 2010.05.17/outbox.cif.g08.bks.cpg/sg63_10_cif.got.tgz:19554.got - 2010.06.03 15:47:04.
