data_PCOD9469671
_publ_section_title
;
Structure prediction by ZEFSAII (Michael W. Deem and Ramdas Pophale) SiO2 
 PCOD9469671
Probable space group: C M C M
;
_chemical_formula_sum "Si O2"
_cell_formula_units_Z 96
_cell_length_a 9.108900
_cell_length_b 28.077956
_cell_length_c 24.358430
_cell_angle_alpha 90.000000
_cell_angle_beta 90.000000
_cell_angle_gamma 90.000000
_cell_volume 6229.894845
_symmetry_space_group_name_H-M "C M C M"
_symmetry_group_IT_number 63
_symmetry_cell_setting 'orthorhombic'
loop_
_space_group_symop_operation_xyz
x,y,z
-x,-y,1/2+z
x,-y,-z
-x,y,1/2-z
-x,-y,-z
x,y,1/2-z
-x,y,z
x,-y,1/2+z
1/2+x,1/2+y,z
1/2-x,1/2-y,1/2+z
1/2+x,1/2-y,-z
1/2-x,1/2+y,1/2-z
1/2-x,1/2-y,-z
1/2+x,1/2+y,1/2-z
1/2-x,1/2+y,z
1/2+x,1/2-y,1/2+z
loop_
_atom_site_type_symbol
_atom_site_label
_atom_site_fract_x
_atom_site_fract_y
_atom_site_fract_z
Si Si1 0.676111 0.519363 0.912361
Si Si2 0.823948 0.924340 0.977100
Si Si3 0.324218 0.327377 0.187498
Si Si4 0.675812 0.728152 0.919831
Si Si5 0.324771 0.070702 0.686518
Si Si6 0.824814 0.324177 0.979029
O O1 0.500000 0.521541 0.904844
O O2 0.712835 0.466759 0.934803
O O3 0.756597 0.534776 0.857328
O O4 0.713013 0.555700 0.962098
O O5 0.744146 0.875048 0.965810
O O6 0.000000 0.917749 0.975719
O O7 0.288917 0.312746 0.250000
O O8 0.500000 0.335646 0.184653
O O9 0.286544 0.288876 0.141239
O O10 0.243417 0.377087 0.176031
O O11 0.500000 0.722092 0.927357
O O12 0.710486 0.782784 0.934786
O O13 0.757635 0.695154 0.963950
O O14 0.289763 0.058393 0.750000
O O15 0.500000 0.072647 0.680862
O O16 0.000000 0.327902 0.983517
#
# Coordination Sequence:
#
# PCOD9469671 Si02
#       6
#    16  16  16  16  16  16
#     4   9  18  32  49  67  88 118 153 184 218 265
#     4   9  18  32  48  67  91 117 147 186 227 263
#     4   9  17  30  48  66  85 115 152 183 214 258
#     4   9  18  31  45  64  91 119 148 183 219 259
#     4  10  20  31  44  67  97 121 143 180 227 266
#     4  10  19  29  44  67  92 119 149 180 220 268
#
# _framework density 15.409568999999999
#
# number of rings (size 3 to 8) (size 9 to 14) (size 15 to 20)
#    0.000    2.667    0.000    3.000    0.000    7.667 
#    0.000    1.667    0.000    1.000    0.000    2.333 
#    0.000    0.000    0.000    0.000    0.000    0.000 
#
# Total GULP energy -267600.249804 kJ/mol
# GULP energy per Si atom -5575.005204 kJ/mol
# Density = 1.537450 g / cm^3
# Si number density = 15.409569 Si / 1000 Ang^3
#
#
#
# Elastic Constant Matrix: (Units=GPa)
#
#
# Indices 1 2 3 4 5 6 
#
# 1 31.3688 50.6463 48.4724 0.0000 0.0000 0.0000
# 2 50.6463 123.0247 83.2844 0.0000 0.0000 0.0000
# 3 48.4724 83.2844 119.9883 0.0000 0.0000 0.0000
# 4 0.0000 0.0000 0.0000 20.3399 0.0000 0.0000
# 5 0.0000 0.0000 0.0000 0.0000 22.8186 0.0000
# 6 0.0000 0.0000 0.0000 0.0000 0.0000 28.3898
#
#
#
# Elastic Compliance Matrix: (Units=1/GPa)
#
#
# Indices 1 2 3 4 5 6 
#
# 1 0.135961 -0.035444 -0.030323 0.000000 0.000000 0.000000
# 2 -0.035444 0.024573 -0.002738 0.000000 0.000000 0.000000
# 3 -0.030323 -0.002738 0.022485 0.000000 0.000000 0.000000
# 4 0.000000 0.000000 0.000000 0.049164 0.000000 0.000000
# 5 0.000000 0.000000 0.000000 0.000000 0.043824 0.000000
# 6 0.000000 0.000000 0.000000 0.000000 0.000000 0.035224
#
#
# Mechanical properties :
#
#
# Convention : Reuss Voigt Hill
#
# Bulk Modulus (GPa) = 21.73508 71.02088 46.37798
# Shear Modulus (GPa) = 10.78570 20.44159 15.61364
#
# Velocity S-wave (km/s) = 2.64850 3.64614 3.18660
# Velocity P-wave (km/s) = 4.84647 7.99466 6.61071
#
# Compressibility (1/GPa) = 0.04600857
#
# Stress axis : x y z
#
# Youngs Moduli (GPa) = 7.35507 40.69452 44.47507
#
# Poissons Ratio (x) = 1.44236 1.34863
# Poissons Ratio (y) = 0.26069 0.12178
# Poissons Ratio (z) = 0.22303 0.11142
#
# Static dielectric constant tensor:
#      x y z
#    x 1.510520 0.000000 0.000000 
#    y 0.000000 1.494920 0.000000 
#    z 0.000000 0.000000 1.508170 
# 
# From -- ./inp_files/60175.got.cif
#   From: 2010.05.17/outbox.cif.g08.bks.cpg/sg63_31_cif.got.tgz:60175.got - 2010.06.03 15:47:04.
