data_PCOD9469946
_publ_section_title
;
Structure prediction by ZEFSAII (Michael W. Deem and Ramdas Pophale) SiO2 
 PCOD9469946
Probable space group: C M C M
;
_chemical_formula_sum "Si O2"
_cell_formula_units_Z 116
_cell_length_a 27.455272
_cell_length_b 28.500398
_cell_length_c 7.662398
_cell_angle_alpha 90.000000
_cell_angle_beta 90.000000
_cell_angle_gamma 90.000000
_cell_volume 5995.720535
_symmetry_space_group_name_H-M "C M C M"
_symmetry_group_IT_number 63
_symmetry_cell_setting 'orthorhombic'
loop_
_space_group_symop_operation_xyz
x,y,z
-x,-y,1/2+z
x,-y,-z
-x,y,1/2-z
-x,-y,-z
x,y,1/2-z
-x,y,z
x,-y,1/2+z
1/2+x,1/2+y,z
1/2-x,1/2-y,1/2+z
1/2+x,1/2-y,-z
1/2-x,1/2+y,1/2-z
1/2-x,1/2-y,-z
1/2+x,1/2+y,1/2-z
1/2-x,1/2+y,z
1/2+x,1/2-y,1/2+z
loop_
_atom_site_type_symbol
_atom_site_label
_atom_site_fract_x
_atom_site_fract_y
_atom_site_fract_z
Si Si1 0.053245 0.793107 0.548838
Si Si2 0.849726 0.893640 0.454521
Si Si3 0.945846 0.944675 0.039048
Si Si4 0.208165 0.804583 0.547379
Si Si5 0.751389 0.946306 0.957819
Si Si6 0.500000 0.660294 0.750000
Si Si7 0.802479 0.357317 0.540492
Si Si8 0.640541 0.773059 0.041078
O O1 0.063105 0.808431 0.750000
O O2 0.042391 0.833200 0.405398
O O3 0.092645 0.755319 0.486531
O O4 0.000000 0.768762 0.552408
O O5 0.855986 0.884636 0.250000
O O6 0.898451 0.917603 0.527287
O O7 0.833278 0.844831 0.539497
O O8 0.803631 0.928669 0.472933
O O9 0.947571 0.938853 0.250000
O O10 0.000000 0.930639 0.974725
O O11 0.940326 0.000000 0.000000
O O12 0.218734 0.795377 0.750000
O O13 0.256358 0.827467 0.468277
O O14 0.185682 0.757729 0.468150
O O15 0.755177 0.941838 0.750000
O O16 0.709399 0.910097 0.019437
O O17 0.741906 0.000000 0.000000
O O18 0.799550 0.358277 0.750000
O O19 0.850253 0.327365 0.498710
O O20 0.640871 0.769022 0.250000
#
# Coordination Sequence:
#
# PCOD9469946 Si02
#       8
#    16  16  16  16  16   4  16  16
#     4   8  16  29  45  69  94 121 162 203 236 284
#     4  10  19  31  47  67  87 117 155 194 238 287
#     4   9  18  31  46  64  87 110 143 192 245 293
#     4   9  19  34  46  64  94 127 159 198 238 280
#     4  10  20  34  50  70  94 122 151 189 231 277
#     4   8  14  28  48  66  92 124 156 200 252 270
#     4   9  19  31  47  70  96 122 158 195 231 283
#     4  10  19  31  49  69  96 129 159 196 242 281
#
# _framework density 19.347131999999998
#
# number of rings (size 3 to 8) (size 9 to 14) (size 15 to 20)
#    0.414    2.345    0.000    2.483    0.966    5.517 
#    0.000    0.690    0.000    0.828    0.000    0.000 
#    0.000    0.552    0.000    2.759    0.000    5.103 
#
# Total GULP energy -322887.463252 kJ/mol
# GULP energy per Si atom -5567.025228 kJ/mol
# Density = 1.930310 g / cm^3
# Si number density = 19.347132 Si / 1000 Ang^3
#
#
#
# Elastic Constant Matrix: (Units=GPa)
#
#
# Indices 1 2 3 4 5 6 
#
# 1 45.9944 42.2318 6.7638 0.0000 0.0000 0.0000
# 2 42.2318 111.4587 -1.1267 0.0000 0.0000 0.0000
# 3 6.7638 -1.1267 61.4752 0.0000 0.0000 0.0000
# 4 0.0000 0.0000 0.0000 20.7862 0.0000 0.0000
# 5 0.0000 0.0000 0.0000 0.0000 20.2877 0.0000
# 6 0.0000 0.0000 0.0000 0.0000 0.0000 13.5935
#
#
#
# Elastic Compliance Matrix: (Units=1/GPa)
#
#
# Indices 1 2 3 4 5 6 
#
# 1 0.034304 -0.013038 -0.004013 0.000000 0.000000 0.000000
# 2 -0.013038 0.013929 0.001690 0.000000 0.000000 0.000000
# 3 -0.004013 0.001690 0.016739 0.000000 0.000000 0.000000
# 4 0.000000 0.000000 0.000000 0.048109 0.000000 0.000000
# 5 0.000000 0.000000 0.000000 0.000000 0.049291 0.000000
# 6 0.000000 0.000000 0.000000 0.000000 0.000000 0.073565
#
#
# Mechanical properties :
#
#
# Convention : Reuss Voigt Hill
#
# Bulk Modulus (GPa) = 29.19809 34.96291 32.08050
# Shear Modulus (GPa) = 17.98068 22.33743 20.15906
#
# Velocity S-wave (km/s) = 3.05187 3.40157 3.23145
# Velocity P-wave (km/s) = 5.24814 5.79121 5.52635
#
# Compressibility (1/GPa) = 0.03424882
#
# Stress axis : x y z
#
# Youngs Moduli (GPa) = 29.15146 71.79158 59.73986
#
# Poissons Ratio (x) = 0.93604 0.23975
# Poissons Ratio (y) = 0.38008 -0.10095
# Poissons Ratio (z) = 0.11699 -0.12131
#
# Static dielectric constant tensor:
#      x y z
#    x 1.727390 0.000000 0.000000 
#    y 0.000000 1.671290 0.000000 
#    z 0.000000 0.000000 1.718220 
# 
# From -- ./inp_files/14928.got.cif
#   From: 2010.05.17/outbox.cif.g08.bks.cpg/sg63_8_cif.got.tgz:14928.got - 2010.06.03 15:47:04.
