data_PCOD9469765
_publ_section_title
;
Structure prediction by ZEFSAII (Michael W. Deem and Ramdas Pophale) SiO2 
 PCOD9469765
Probable space group: C M C M
;
_chemical_formula_sum "Si O2"
_cell_formula_units_Z 96
_cell_length_a 19.713478
_cell_length_b 12.316416
_cell_length_c 19.144038
_cell_angle_alpha 90.000000
_cell_angle_beta 90.000000
_cell_angle_gamma 90.000000
_cell_volume 4648.160861
_symmetry_space_group_name_H-M "C M C M"
_symmetry_group_IT_number 63
_symmetry_cell_setting 'orthorhombic'
loop_
_space_group_symop_operation_xyz
x,y,z
-x,-y,1/2+z
x,-y,-z
-x,y,1/2-z
-x,-y,-z
x,y,1/2-z
-x,y,z
x,-y,1/2+z
1/2+x,1/2+y,z
1/2-x,1/2-y,1/2+z
1/2+x,1/2-y,-z
1/2-x,1/2+y,1/2-z
1/2-x,1/2-y,-z
1/2+x,1/2+y,1/2-z
1/2-x,1/2+y,z
1/2+x,1/2-y,1/2+z
loop_
_atom_site_type_symbol
_atom_site_label
_atom_site_fract_x
_atom_site_fract_y
_atom_site_fract_z
Si Si1 0.195119 0.477814 0.172445
Si Si2 0.580329 0.796447 0.168550
Si Si3 0.427503 0.877165 0.526341
Si Si4 0.118995 0.303692 0.829296
Si Si5 0.332981 0.716039 0.053256
Si Si6 0.296039 0.355110 0.414588
O O1 0.218007 0.442969 0.250000
O O2 0.127227 0.404872 0.158088
O O3 0.176611 0.603405 0.174590
O O4 0.253414 0.452961 0.117458
O O5 0.587197 0.766864 0.250000
O O6 0.500000 0.815002 0.155889
O O7 0.615154 0.707880 0.117713
O O8 0.500000 0.833742 0.500710
O O9 0.426001 0.855987 0.609098
O O10 0.366073 0.813093 0.492645
O O11 0.422750 0.000000 0.500000
O O12 0.092030 0.292426 0.750000
O O13 0.148230 0.192019 0.861124
O O14 0.260823 0.759322 0.079464
O O15 0.323489 0.627631 0.992784
#
# Coordination Sequence:
#
# PCOD9469765 Si02
#       6
#    16  16  16  16  16  16
#     4   9  17  29  45  65  92 124 153 184 223 265
#     4   9  16  26  42  64  90 120 150 181 223 276
#     4  10  19  30  45  66  95 128 156 182 218 272
#     4  10  20  31  46  69  94 124 158 188 225 270
#     4   9  17  28  42  60  84 118 154 185 220 258
#     4   9  17  30  45  62  89 121 155 192 224 261
#
# _framework density 20.65333
#
# number of rings (size 3 to 8) (size 9 to 14) (size 15 to 20)
#    0.000    2.667    0.000    3.000    0.000    3.000 
#    0.000    1.667    0.000    0.000    0.000    0.000 
#    0.000   54.667    0.000  115.333    0.000    3.833 
#
# Total GULP energy -267334.011353 kJ/mol
# GULP energy per Si atom -5569.458570 kJ/mol
# Density = 2.060632 g / cm^3
# Si number density = 20.653330 Si / 1000 Ang^3
#
#
#
# Elastic Constant Matrix: (Units=GPa)
#
#
# Indices 1 2 3 4 5 6 
#
# 1 64.4613 11.3958 30.3708 0.0000 0.0000 0.0000
# 2 11.3958 21.9281 8.9499 0.0000 0.0000 0.0000
# 3 30.3708 8.9499 144.4712 0.0000 0.0000 0.0000
# 4 0.0000 0.0000 0.0000 18.1610 0.0000 0.0000
# 5 0.0000 0.0000 0.0000 0.0000 6.6612 0.0000
# 6 0.0000 0.0000 0.0000 0.0000 0.0000 -1.4895
#
#
#
# Elastic Compliance Matrix: (Units=1/GPa)
#
#
# Indices 1 2 3 4 5 6 
#
# 1 0.018573 -0.008268 -0.003392 0.000000 0.000000 0.000000
# 2 -0.008268 0.050467 -0.001388 0.000000 0.000000 0.000000
# 3 -0.003392 -0.001388 0.007721 0.000000 0.000000 0.000000
# 4 0.000000 0.000000 0.000000 0.055063 0.000000 0.000000
# 5 0.000000 0.000000 0.000000 0.000000 0.150123 0.000000
# 6 0.000000 0.000000 0.000000 0.000000 0.000000 -0.671371
#
#
# Mechanical properties :
#
#
# Convention : Reuss Voigt Hill
#
# Bulk Modulus (GPa) = 19.73780 36.92151 28.32965
# Shear Modulus (GPa) = -14.43254 16.67617 1.12181
#
# Velocity S-wave (km/s) = -2.64635 2.84462 0.73780
# Velocity P-wave (km/s) = 0.48980 5.35768 3.80425
#
# Compressibility (1/GPa) = 0.05066421
#
# Stress axis : x y z
#
# Youngs Moduli (GPa) = 53.84156 19.81503 129.51825
#
# Poissons Ratio (x) = 0.16382 0.43936
# Poissons Ratio (y) = 0.44514 0.17982
# Poissons Ratio (z) = 0.18264 0.02751
#
# Static dielectric constant tensor:
#      x y z
#    x 1.724340 0.000000 0.000000 
#    y 0.000000 1.728710 0.000000 
#    z 0.000000 0.000000 1.836510 
# 
# From -- ./inp_files/56717.got.cif
#   From: 2010.05.17/outbox.cif.g08.bks.cpg/sg63_29_cif.got.tgz:56717.got - 2010.06.03 15:47:04.
