data_PCOD9469632
_publ_section_title
;
Structure prediction by ZEFSAII (Michael W. Deem and Ramdas Pophale) SiO2 
 PCOD9469632
Probable space group: C M C M
;
_chemical_formula_sum "Si O2"
_cell_formula_units_Z 112
_cell_length_a 30.419262
_cell_length_b 13.946133
_cell_length_c 16.891218
_cell_angle_alpha 90.000000
_cell_angle_beta 90.000000
_cell_angle_gamma 90.000000
_cell_volume 7165.779547
_symmetry_space_group_name_H-M "C M C M"
_symmetry_group_IT_number 63
_symmetry_cell_setting 'orthorhombic'
loop_
_space_group_symop_operation_xyz
x,y,z
-x,-y,1/2+z
x,-y,-z
-x,y,1/2-z
-x,-y,-z
x,y,1/2-z
-x,y,z
x,-y,1/2+z
1/2+x,1/2+y,z
1/2-x,1/2-y,1/2+z
1/2+x,1/2-y,-z
1/2-x,1/2+y,1/2-z
1/2-x,1/2-y,-z
1/2+x,1/2+y,1/2-z
1/2-x,1/2+y,z
1/2+x,1/2-y,1/2+z
loop_
_atom_site_type_symbol
_atom_site_label
_atom_site_fract_x
_atom_site_fract_y
_atom_site_fract_z
Si Si1 0.316929 0.093511 0.843765
Si Si2 0.596307 0.226277 0.346151
Si Si3 0.500000 0.224828 0.154836
Si Si4 0.264351 0.736312 0.090066
Si Si5 0.000000 0.493146 0.594974
Si Si6 0.229962 0.027462 0.154512
Si Si7 0.319103 0.660201 0.844029
Si Si8 0.096406 0.506789 0.404875
O O1 0.315210 0.111777 0.750000
O O2 0.303092 0.190123 0.888501
O O3 0.278586 0.015661 0.861280
O O4 0.363771 0.052342 0.868203
O O5 0.598759 0.219912 0.250000
O O6 0.547707 0.266005 0.367781
O O7 0.636183 0.292709 0.375141
O O8 0.600524 0.118127 0.378908
O O9 0.500000 0.219111 0.250000
O O10 0.500000 0.117587 0.120688
O O11 0.275890 0.627872 0.111438
O O12 0.221838 0.769374 0.140526
O O13 0.250000 0.750000 0.000000
O O14 0.000000 0.500000 0.500000
O O15 0.952163 0.530273 0.621497
O O16 0.226152 0.040121 0.250000
O O17 0.196169 0.944534 0.127159
O O18 0.324301 0.650361 0.750000
O O19 0.098815 0.500000 0.500000
#
# Coordination Sequence:
#
# PCOD9469632 Si02
#       8
#    16  16   8  16   8  16  16  16
#     4  10  21  33  47  68  93 125 161 195 238 288
#     4   9  16  28  46  68  95 122 151 190 236 284
#     4   8  14  24  42  68  93 117 146 186 235 282
#     4  11  22  31  47  67  94 121 160 200 235 266
#     4   8  16  30  40  64  91 126 150 189 234 285
#     4   9  18  34  50  64  91 126 156 189 232 282
#     4   9  18  31  48  67  89 122 158 185 229 287
#     4  10  19  28  47  66  97 123 159 192 236 285
#
# _framework density 15.629842
#
# number of rings (size 3 to 8) (size 9 to 14) (size 15 to 20)
#    0.000    2.571    0.000    3.429    4.000    4.571 
#    0.000    0.000    0.000    0.000    0.000    1.000 
#    0.000    3.429    0.000    0.000    0.000    0.000 
#
# Total GULP energy -311893.177515 kJ/mol
# GULP energy per Si atom -5569.521027 kJ/mol
# Density = 1.559427 g / cm^3
# Si number density = 15.629842 Si / 1000 Ang^3
#
#
#
# Elastic Constant Matrix: (Units=GPa)
#
#
# Indices 1 2 3 4 5 6 
#
# 1 143.4719 68.0671 20.2365 0.0000 0.0000 0.0000
# 2 68.0671 101.7954 27.0112 0.0000 0.0000 0.0000
# 3 20.2365 27.0112 25.4636 0.0000 0.0000 0.0000
# 4 0.0000 0.0000 0.0000 -20.5354 0.0000 0.0000
# 5 0.0000 0.0000 0.0000 0.0000 18.0728 0.0000
# 6 0.0000 0.0000 0.0000 0.0000 0.0000 25.1702
#
#
#
# Elastic Compliance Matrix: (Units=1/GPa)
#
#
# Indices 1 2 3 4 5 6 
#
# 1 0.010236 -0.006521 -0.001217 0.000000 0.000000 0.000000
# 2 -0.006521 0.017827 -0.013728 0.000000 0.000000 0.000000
# 3 -0.001217 -0.013728 0.054801 0.000000 0.000000 0.000000
# 4 0.000000 0.000000 0.000000 -0.048696 0.000000 0.000000
# 5 0.000000 0.000000 0.000000 0.000000 0.055332 0.000000
# 6 0.000000 0.000000 0.000000 0.000000 0.000000 0.039730
#
#
# Mechanical properties :
#
#
# Convention : Reuss Voigt Hill
#
# Bulk Modulus (GPa) = 25.04281 55.70672 40.37477
# Shear Modulus (GPa) = 26.95859 14.90259 20.93059
#
# Velocity S-wave (km/s) = 4.15759 3.09118 3.66340
# Velocity P-wave (km/s) = 6.25337 6.96126 6.61679
#
# Compressibility (1/GPa) = 0.03993162
#
# Stress axis : x y z
#
# Youngs Moduli (GPa) = 97.69918 56.09553 18.24794
#
# Poissons Ratio (x) = 0.36581 0.02220
# Poissons Ratio (y) = 0.63712 0.25050
# Poissons Ratio (z) = 0.11888 0.77006
#
# Static dielectric constant tensor:
#      x y z
#    x 1.564040 0.000000 0.000000 
#    y 0.000000 1.499050 0.000000 
#    z 0.000000 0.000000 1.530210 
# 
# From -- ./inp_files/49663.got.cif
#   From: 2010.05.17/outbox.cif.g08.bks.cpg/sg63_25_cif.got.tgz:49663.got - 2010.06.03 15:47:04.
