data_PCOD9469873
_publ_section_title
;
Structure prediction by ZEFSAII (Michael W. Deem and Ramdas Pophale) SiO2 
 PCOD9469873
Probable space group: C M C M
;
_chemical_formula_sum "Si O2"
_cell_formula_units_Z 80
_cell_length_a 18.935858
_cell_length_b 13.355861
_cell_length_c 18.458005
_cell_angle_alpha 90.000000
_cell_angle_beta 90.000000
_cell_angle_gamma 90.000000
_cell_volume 4668.115984
_symmetry_space_group_name_H-M "C M C M"
_symmetry_group_IT_number 63
_symmetry_cell_setting 'orthorhombic'
loop_
_space_group_symop_operation_xyz
x,y,z
-x,-y,1/2+z
x,-y,-z
-x,y,1/2-z
-x,-y,-z
x,y,1/2-z
-x,y,z
x,-y,1/2+z
1/2+x,1/2+y,z
1/2-x,1/2-y,1/2+z
1/2+x,1/2-y,-z
1/2-x,1/2+y,1/2-z
1/2-x,1/2-y,-z
1/2+x,1/2+y,1/2-z
1/2-x,1/2+y,z
1/2+x,1/2-y,1/2+z
loop_
_atom_site_type_symbol
_atom_site_label
_atom_site_fract_x
_atom_site_fract_y
_atom_site_fract_z
Si Si1 0.314572 0.107427 0.461979
Si Si2 0.160063 0.805957 0.954398
Si Si3 0.915206 0.090696 0.331585
Si Si4 0.416580 0.381981 0.095557
Si Si5 0.916465 0.334032 0.665334
O O1 0.237665 0.149639 0.439876
O O2 0.339146 0.191208 0.520075
O O3 0.367139 0.110072 0.393027
O O4 0.310320 0.000000 0.500000
O O5 0.113603 0.825113 0.884356
O O6 0.126682 0.865323 0.022376
O O7 0.889162 0.101405 0.250000
O O8 0.000000 0.092535 0.330866
O O9 0.894372 0.982727 0.364048
O O10 0.500000 0.389713 0.077699
O O11 0.407820 0.284063 0.145845
O O12 0.899340 0.351538 0.750000
O O13 0.000000 0.357164 0.654704
#
# Coordination Sequence:
#
# PCOD9469873 Si02
#       5
#    16  16  16  16  16
#     4  10  21  36  53  73  97 127 165 206 246 291
#     4  10  20  34  52  73  99 131 165 201 242 291
#     4  10  19  30  48  77 109 135 159 194 244 297
#     4   9  16  29  52  77 101 131 165 201 240 284
#     4   9  18  33  52  74  98 126 166 211 247 282
#
# _framework density 17.137536000000001
#
# number of rings (size 3 to 8) (size 9 to 14) (size 15 to 20)
#    0.000    2.400    0.000    3.000    0.000    6.000 
#    0.000    1.000    0.000    3.600    0.000    0.000 
#    0.000    0.000    0.000    0.000    0.000    0.000 
#
# Total GULP energy -223098.183196 kJ/mol
# GULP energy per Si atom -5577.454580 kJ/mol
# Density = 1.709853 g / cm^3
# Si number density = 17.137536 Si / 1000 Ang^3
#
#
#
# Elastic Constant Matrix: (Units=GPa)
#
#
# Indices 1 2 3 4 5 6 
#
# 1 33.6879 19.4538 38.0555 0.0000 0.0000 0.0000
# 2 19.4538 68.4074 44.4507 0.0000 0.0000 0.0000
# 3 38.0555 44.4507 105.9288 0.0000 0.0000 0.0000
# 4 0.0000 0.0000 0.0000 11.9883 0.0000 0.0000
# 5 0.0000 0.0000 0.0000 0.0000 -89.0762 0.0000
# 6 0.0000 0.0000 0.0000 0.0000 0.0000 20.1808
#
#
#
# Elastic Compliance Matrix: (Units=1/GPa)
#
#
# Indices 1 2 3 4 5 6 
#
# 1 0.050576 -0.003542 -0.016683 0.000000 0.000000 0.000000
# 2 -0.003542 0.020347 -0.007266 0.000000 0.000000 0.000000
# 3 -0.016683 -0.007266 0.018483 0.000000 0.000000 0.000000
# 4 0.000000 0.000000 0.000000 0.083414 0.000000 0.000000
# 5 0.000000 0.000000 0.000000 0.000000 -0.011226 0.000000
# 6 0.000000 0.000000 0.000000 0.000000 0.000000 0.049552
#
#
# Mechanical properties :
#
#
# Convention : Reuss Voigt Hill
#
# Bulk Modulus (GPa) = 29.05001 45.77157 37.41079
# Shear Modulus (GPa) = 18.01142 -4.31046 6.85048
#
# Velocity S-wave (km/s) = 3.24542 -1.58766 2.00151
# Velocity P-wave (km/s) = 5.57060 4.83792 5.21714
#
# Compressibility (1/GPa) = 0.03442340
#
# Stress axis : x y z
#
# Youngs Moduli (GPa) = 19.77228 49.14795 54.10477
#
# Poissons Ratio (x) = 0.17409 0.90264
# Poissons Ratio (y) = 0.07004 0.39310
# Poissons Ratio (z) = 0.32987 0.35709
#
# Static dielectric constant tensor:
#      x y z
#    x 1.587110 0.000000 0.000000 
#    y 0.000000 1.568200 0.000000 
#    z 0.000000 0.000000 1.559300 
# 
# From -- ./inp_files/45394.got.cif
#   From: 2010.05.17/outbox.cif.g08.bks.cpg/sg63_23_cif.got.tgz:45394.got - 2010.06.03 15:47:04.
