data_PCOD9469202
_publ_section_title
;
Structure prediction by ZEFSAII (Michael W. Deem and Ramdas Pophale) SiO2 
 PCOD9469202
Probable space group: C M C M
;
_chemical_formula_sum "Si O2"
_cell_formula_units_Z 64
_cell_length_a 25.537271
_cell_length_b 14.941164
_cell_length_c 8.621944
_cell_angle_alpha 90.000000
_cell_angle_beta 90.000000
_cell_angle_gamma 90.000000
_cell_volume 3289.759242
_symmetry_space_group_name_H-M "C M C M"
_symmetry_group_IT_number 63
_symmetry_cell_setting 'orthorhombic'
loop_
_space_group_symop_operation_xyz
x,y,z
-x,-y,1/2+z
x,-y,-z
-x,y,1/2-z
-x,-y,-z
x,y,1/2-z
-x,y,z
x,-y,1/2+z
1/2+x,1/2+y,z
1/2-x,1/2-y,1/2+z
1/2+x,1/2-y,-z
1/2-x,1/2+y,1/2-z
1/2-x,1/2-y,-z
1/2+x,1/2+y,1/2-z
1/2-x,1/2+y,z
1/2+x,1/2-y,1/2+z
loop_
_atom_site_type_symbol
_atom_site_label
_atom_site_fract_x
_atom_site_fract_y
_atom_site_fract_z
Si Si1 0.000000 0.601168 0.936950
Si Si2 0.614530 0.898981 0.063420
Si Si3 0.109557 0.100623 0.563952
Si Si4 0.808440 0.748394 0.064415
Si Si5 0.000000 0.898338 0.935277
O O1 0.943295 0.637885 0.984952
O O2 0.000000 0.600378 0.750000
O O3 0.000000 0.500000 0.000000
O O4 0.616880 0.900866 0.250000
O O5 0.659628 0.836470 0.998023
O O6 0.619153 0.000000 0.000000
O O7 0.105423 0.096524 0.750000
O O8 0.157753 0.164014 0.519343
O O9 0.054853 0.139073 0.497184
O O10 0.116404 0.000000 0.500000
O O11 0.806762 0.745159 0.250000
O O12 0.750000 0.750000 0.000000
O O13 0.000000 0.897700 0.750000
O O14 0.000000 0.000000 0.000000
#
# Coordination Sequence:
#
# PCOD9469202 Si02
#       5
#     8  16  16  16   8
#     4   8  16  31  54  85 116 146 182 225 277 337
#     4  10  20  37  61  88 119 153 190 234 285 341
#     4  10  21  38  60  86 116 150 188 234 287 341
#     4  11  25  42  59  82 113 151 197 245 289 339
#     4  10  18  31  56  87 118 150 184 227 280 341
#
# _framework density 19.454311000000001
#
# number of rings (size 3 to 8) (size 9 to 14) (size 15 to 20)
#    0.000    2.000    0.000    4.875    0.000    7.000 
#    0.000    5.000    0.000    0.000    0.000    0.000 
#    0.000    0.000    0.000    0.000    0.000    0.000 
#
# Total GULP energy -178664.148804 kJ/mol
# GULP energy per Si atom -5583.254650 kJ/mol
# Density = 1.941003 g / cm^3
# Si number density = 19.454311 Si / 1000 Ang^3
#
#
#
# Elastic Constant Matrix: (Units=GPa)
#
#
# Indices 1 2 3 4 5 6 
#
# 1 237.8405 92.1108 64.6038 0.0000 0.0000 0.0000
# 2 92.1108 112.0175 36.7923 0.0000 0.0000 0.0000
# 3 64.6038 36.7923 67.9949 0.0000 0.0000 0.0000
# 4 0.0000 0.0000 0.0000 25.5891 0.0000 0.0000
# 5 0.0000 0.0000 0.0000 0.0000 22.5785 0.0000
# 6 0.0000 0.0000 0.0000 0.0000 0.0000 35.6288
#
#
#
# Elastic Compliance Matrix: (Units=1/GPa)
#
#
# Indices 1 2 3 4 5 6 
#
# 1 0.007092 -0.004401 -0.004357 0.000000 0.000000 0.000000
# 2 -0.004401 0.013587 -0.003171 0.000000 0.000000 0.000000
# 3 -0.004357 -0.003171 0.020563 0.000000 0.000000 0.000000
# 4 0.000000 0.000000 0.000000 0.039079 0.000000 0.000000
# 5 0.000000 0.000000 0.000000 0.000000 0.044290 0.000000
# 6 0.000000 0.000000 0.000000 0.000000 0.000000 0.028067
#
#
# Mechanical properties :
#
#
# Convention : Reuss Voigt Hill
#
# Bulk Modulus (GPa) = 57.52250 89.42962 73.47606
# Shear Modulus (GPa) = 27.42252 31.71569 29.56910
#
# Velocity S-wave (km/s) = 3.75852 4.04203 3.90285
# Velocity P-wave (km/s) = 6.96186 8.23729 7.62628
#
# Compressibility (1/GPa) = 0.01738450
#
# Stress axis : x y z
#
# Youngs Moduli (GPa) = 140.99519 73.59761 48.63149
#
# Poissons Ratio (x) = 0.32389 0.21191
# Poissons Ratio (y) = 0.62050 0.15420
# Poissons Ratio (z) = 0.61437 0.23337
#
# Static dielectric constant tensor:
#      x y z
#    x 1.694720 0.000000 0.000000 
#    y 0.000000 1.663110 0.000000 
#    z 0.000000 0.000000 1.654480 
# 
# From -- ./inp_files/9685.got.cif
#   From: 2010.05.17/outbox.cif.g08.bks.cpg/sg63_5_cif.got.tgz:9685.got - 2010.06.03 15:47:04.
