data_PCOD9469438
_publ_section_title
;
Structure prediction by ZEFSAII (Michael W. Deem and Ramdas Pophale) SiO2 
 PCOD9469438
Probable space group: C M C M
;
_chemical_formula_sum "Si O2"
_cell_formula_units_Z 80
_cell_length_a 13.692830
_cell_length_b 20.637651
_cell_length_c 13.078860
_cell_angle_alpha 90.000000
_cell_angle_beta 90.000000
_cell_angle_gamma 90.000000
_cell_volume 3695.926885
_symmetry_space_group_name_H-M "C M C M"
_symmetry_group_IT_number 63
_symmetry_cell_setting 'orthorhombic'
loop_
_space_group_symop_operation_xyz
x,y,z
-x,-y,1/2+z
x,-y,-z
-x,y,1/2-z
-x,-y,-z
x,y,1/2-z
-x,y,z
x,-y,1/2+z
1/2+x,1/2+y,z
1/2-x,1/2-y,1/2+z
1/2+x,1/2-y,-z
1/2-x,1/2+y,1/2-z
1/2-x,1/2-y,-z
1/2+x,1/2+y,1/2-z
1/2-x,1/2+y,z
1/2+x,1/2-y,1/2+z
loop_
_atom_site_type_symbol
_atom_site_label
_atom_site_fract_x
_atom_site_fract_y
_atom_site_fract_z
Si Si1 0.778977 0.047312 0.869488
Si Si2 0.000000 0.802495 0.409465
Si Si3 0.000000 0.652769 0.413049
Si Si4 0.331695 0.712887 0.433867
Si Si5 0.500000 0.802085 0.141933
Si Si6 0.208172 0.405232 0.917949
Si Si7 0.500000 0.444191 0.359413
O O1 0.775247 0.070532 0.750000
O O2 0.892983 0.041787 0.903134
O O3 0.734752 0.975299 0.875009
O O4 0.723651 0.088557 0.957599
O O5 0.000000 0.727623 0.373193
O O6 0.906537 0.810505 0.480561
O O7 0.000000 0.866834 0.345624
O O8 0.900587 0.616178 0.387903
O O9 0.000000 0.659034 0.536767
O O10 0.250000 0.750000 0.500000
O O11 0.401507 0.758281 0.365763
O O12 0.280377 0.651855 0.382206
O O13 0.500000 0.837777 0.250000
O O14 0.500000 0.479087 0.250000
#
# Coordination Sequence:
#
# PCOD9469438 Si02
#       7
#    16   8   8  16   8  16   8
#     4  10  24  39  59  90 121 162 213 261 317 376
#     4  10  18  33  60  89 115 147 200 247 297 376
#     4  10  22  39  63  88 120 164 216 248 316 381
#     4  10  18  36  60  88 122 162 199 245 322 384
#     4  10  22  35  59  99 129 155 207 264 316 376
#     4  11  21  40  64  84 122 170 208 257 317 374
#     4  10  20  37  59  90 121 150 201 258 308 376
#
# _framework density 21.64545
#
# number of rings (size 3 to 8) (size 9 to 14) (size 15 to 20)
#    0.000    2.000    6.000    0.000    0.000    6.400 
#    0.000    4.500    0.000    0.000    0.000    0.000 
#    0.000    0.000    0.000    0.000    0.000    0.000 
#
# Total GULP energy -222870.110106 kJ/mol
# GULP energy per Si atom -5571.752753 kJ/mol
# Density = 2.159618 g / cm^3
# Si number density = 21.645450 Si / 1000 Ang^3
#
#
#
# Elastic Constant Matrix: (Units=GPa)
#
#
# Indices 1 2 3 4 5 6 
#
# 1 174.6556 49.4147 -3.3222 0.0000 0.0000 0.0000
# 2 49.4147 79.7142 -11.6757 0.0000 0.0000 0.0000
# 3 -3.3222 -11.6757 82.6591 0.0000 0.0000 0.0000
# 4 0.0000 0.0000 0.0000 -8.6836 0.0000 0.0000
# 5 0.0000 0.0000 0.0000 0.0000 -1.3190 0.0000
# 6 0.0000 0.0000 0.0000 0.0000 0.0000 25.2467
#
#
#
# Elastic Compliance Matrix: (Units=1/GPa)
#
#
# Indices 1 2 3 4 5 6 
#
# 1 0.006952 -0.004359 -0.000336 0.000000 0.000000 0.000000
# 2 -0.004359 0.015543 0.002020 0.000000 0.000000 0.000000
# 3 -0.000336 0.002020 0.012370 0.000000 0.000000 0.000000
# 4 0.000000 0.000000 0.000000 -0.115160 0.000000 0.000000
# 5 0.000000 0.000000 0.000000 0.000000 -0.758122 0.000000
# 6 0.000000 0.000000 0.000000 0.000000 0.000000 0.039609
#
#
# Mechanical properties :
#
#
# Convention : Reuss Voigt Hill
#
# Bulk Modulus (GPa) = 33.88123 45.09583 39.48853
# Shear Modulus (GPa) = -6.38065 23.22294 8.42114
#
# Velocity S-wave (km/s) = -1.71878 3.27904 1.97457
# Velocity P-wave (km/s) = 3.42752 5.93424 4.84577
#
# Compressibility (1/GPa) = 0.02951487
#
# Stress axis : x y z
#
# Youngs Moduli (GPa) = 143.83412 64.33803 80.84254
#
# Poissons Ratio (x) = 0.28045 0.02719
# Poissons Ratio (y) = 0.62698 -0.16332
# Poissons Ratio (z) = 0.04837 -0.12998
#
# Static dielectric constant tensor:
#      x y z
#    x 1.727560 0.000000 0.000000 
#    y 0.000000 1.782320 0.000000 
#    z 0.000000 0.000000 1.912580 
# 
# From -- ./inp_files/29822.got.cif
#   From: 2010.05.17/outbox.cif.g08.bks.cpg/sg63_15_cif.got.tgz:29822.got - 2010.06.03 15:47:04.
