data_PCOD9469236
_publ_section_title
;
Structure prediction by ZEFSAII (Michael W. Deem and Ramdas Pophale) SiO2 
 PCOD9469236
Probable space group: C M C M
;
_chemical_formula_sum "Si O2"
_cell_formula_units_Z 112
_cell_length_a 30.053246
_cell_length_b 14.584948
_cell_length_c 14.656081
_cell_angle_alpha 90.000000
_cell_angle_beta 90.000000
_cell_angle_gamma 90.000000
_cell_volume 6424.127146
_symmetry_space_group_name_H-M "C M C M"
_symmetry_group_IT_number 63
_symmetry_cell_setting 'orthorhombic'
loop_
_space_group_symop_operation_xyz
x,y,z
-x,-y,1/2+z
x,-y,-z
-x,y,1/2-z
-x,-y,-z
x,y,1/2-z
-x,y,z
x,-y,1/2+z
1/2+x,1/2+y,z
1/2-x,1/2-y,1/2+z
1/2+x,1/2-y,-z
1/2-x,1/2+y,1/2-z
1/2-x,1/2-y,-z
1/2+x,1/2+y,1/2-z
1/2-x,1/2+y,z
1/2+x,1/2-y,1/2+z
loop_
_atom_site_type_symbol
_atom_site_label
_atom_site_fract_x
_atom_site_fract_y
_atom_site_fract_z
Si Si1 0.287286 0.742034 0.142265
Si Si2 0.644489 0.232775 0.482725
Si Si3 0.932555 0.500477 0.852972
Si Si4 0.164508 0.541656 0.398655
Si Si5 0.736766 0.530618 0.105887
Si Si6 0.049104 0.655520 0.501060
Si Si7 0.695141 0.651265 0.648208
O O1 0.297295 0.752517 0.250000
O O2 0.277641 0.635141 0.120557
O O3 0.242111 0.799304 0.123063
O O4 0.326609 0.774145 0.075188
O O5 0.659405 0.150005 0.415675
O O6 0.592159 0.220441 0.499622
O O7 0.659431 0.322406 0.427870
O O8 0.949263 0.498961 0.750000
O O9 0.878872 0.496385 0.850293
O O10 0.946572 0.588945 0.911152
O O11 0.946695 0.412907 0.913892
O O12 0.162229 0.500000 0.500000
O O13 0.212632 0.520742 0.358765
O O14 0.704707 0.456452 0.150026
O O15 0.738058 0.500000 0.000000
O O16 0.000000 0.698162 0.500287
O O17 0.682700 0.683089 0.750000
#
# Coordination Sequence:
#
# PCOD9469236 Si02
#       7
#    16  16  16  16  16  16  16
#     4  11  22  35  53  80 111 145 182 219 262 318
#     4  11  20  38  53  73 109 142 179 223 269 310
#     4  10  19  32  54  79 107 142 182 224 268 318
#     4  10  18  32  51  77 108 149 183 215 254 311
#     4  11  20  34  56  75 112 153 185 216 260 314
#     4  10  22  38  53  74 105 139 183 233 277 326
#     4  11  23  35  53  80 110 144 182 220 262 317
#
# _framework density 17.434275
#
# number of rings (size 3 to 8) (size 9 to 14) (size 15 to 20)
#    0.000    1.429    5.714    3.429    0.000    5.143 
#    0.000    0.000    0.000    0.000    0.000    2.000 
#    0.000    2.286    0.000    0.000    0.000    0.000 
#
# Total GULP energy -312652.391259 kJ/mol
# GULP energy per Si atom -5583.078415 kJ/mol
# Density = 1.739459 g / cm^3
# Si number density = 17.434275 Si / 1000 Ang^3
#
#
#
# Elastic Constant Matrix: (Units=GPa)
#
#
# Indices 1 2 3 4 5 6 
#
# 1 127.3033 17.0058 39.9001 0.0000 0.0000 0.0000
# 2 17.0058 54.0196 2.0804 0.0000 0.0000 0.0000
# 3 39.9001 2.0804 110.4340 0.0000 0.0000 0.0000
# 4 0.0000 0.0000 0.0000 6.0071 0.0000 0.0000
# 5 0.0000 0.0000 0.0000 0.0000 -14.8098 0.0000
# 6 0.0000 0.0000 0.0000 0.0000 0.0000 13.9658
#
#
#
# Elastic Compliance Matrix: (Units=1/GPa)
#
#
# Indices 1 2 3 4 5 6 
#
# 1 0.009260 -0.002788 -0.003293 0.000000 0.000000 0.000000
# 2 -0.002788 0.019365 0.000643 0.000000 0.000000 0.000000
# 3 -0.003293 0.000643 0.010233 0.000000 0.000000 0.000000
# 4 0.000000 0.000000 0.000000 0.166470 0.000000 0.000000
# 5 0.000000 0.000000 0.000000 0.000000 -0.067523 0.000000
# 6 0.000000 0.000000 0.000000 0.000000 0.000000 0.071604
#
#
# Mechanical properties :
#
#
# Convention : Reuss Voigt Hill
#
# Bulk Modulus (GPa) = 35.73971 45.52549 40.63260
# Shear Modulus (GPa) = 21.77584 16.55065 19.16325
#
# Velocity S-wave (km/s) = 3.53799 3.08444 3.31897
# Velocity P-wave (km/s) = 6.10197 6.23333 6.16800
#
# Compressibility (1/GPa) = 0.02798008
#
# Stress axis : x y z
#
# Youngs Moduli (GPa) = 107.99294 51.64003 97.72422
#
# Poissons Ratio (x) = 0.14399 0.32181
# Poissons Ratio (y) = 0.30111 -0.06280
# Poissons Ratio (z) = 0.35563 -0.03318
#
# Static dielectric constant tensor:
#      x y z
#    x 1.601880 0.000000 0.000000 
#    y 0.000000 1.623970 0.000000 
#    z 0.000000 0.000000 1.660950 
# 
# From -- ./inp_files/37957.got.cif
#   From: 2010.05.17/outbox.cif.g08.bks.cpg/sg63_19_cif.got.tgz:37957.got - 2010.06.03 15:47:04.
