data_PCOD9469537
_publ_section_title
;
Structure prediction by ZEFSAII (Michael W. Deem and Ramdas Pophale) SiO2 
 PCOD9469537
Probable space group: C M C M
;
_chemical_formula_sum "Si O2"
_cell_formula_units_Z 60
_cell_length_a 17.501455
_cell_length_b 13.630554
_cell_length_c 13.115338
_cell_angle_alpha 90.000000
_cell_angle_beta 90.000000
_cell_angle_gamma 90.000000
_cell_volume 3128.723259
_symmetry_space_group_name_H-M "C M C M"
_symmetry_group_IT_number 63
_symmetry_cell_setting 'orthorhombic'
loop_
_space_group_symop_operation_xyz
x,y,z
-x,-y,1/2+z
x,-y,-z
-x,y,1/2-z
-x,-y,-z
x,y,1/2-z
-x,y,z
x,-y,1/2+z
1/2+x,1/2+y,z
1/2-x,1/2-y,1/2+z
1/2+x,1/2-y,-z
1/2-x,1/2+y,1/2-z
1/2-x,1/2-y,-z
1/2+x,1/2+y,1/2-z
1/2-x,1/2+y,z
1/2+x,1/2-y,1/2+z
loop_
_atom_site_type_symbol
_atom_site_label
_atom_site_fract_x
_atom_site_fract_y
_atom_site_fract_z
Si Si1 0.335743 0.323323 0.977262
Si Si2 0.000000 0.023946 0.750000
Si Si3 0.192029 0.398570 0.445210
Si Si4 0.088637 0.362034 0.250000
Si Si5 0.000000 0.889095 0.035914
Si Si6 0.633508 0.360620 0.750000
O O1 0.324035 0.207386 0.997087
O O2 0.424467 0.340673 0.993709
O O3 0.284603 0.387770 0.054972
O O4 0.320348 0.354760 0.858188
O O5 0.074131 0.951319 0.750000
O O6 0.000000 0.097158 0.655596
O O7 0.174086 0.500000 0.500000
O O8 0.139732 0.394965 0.345673
O O9 0.089215 0.243412 0.250000
O O10 0.000000 0.395024 0.250000
O O11 0.000000 0.000000 0.000000
#
# Coordination Sequence:
#
# PCOD9469537 Si02
#       6
#    16   4  16   8   8   8
#     4  10  22  40  62  95 131 157 208 261 307 372
#     4  12  22  32  60 100 120 162 204 252 310 372
#     4  10  23  41  63  92 123 168 203 259 314 365
#     4  10  22  40  64  91 118 161 226 251 287 375
#     4  12  22  36  61  94 125 163 202 255 315 353
#     4  10  18  35  63  93 119 161 207 252 297 370
#
# _framework density 19.177152
#
# number of rings (size 3 to 8) (size 9 to 14) (size 15 to 20)
#    0.000    1.600    3.333    0.800    5.600    2.667 
#    0.000    4.000    0.000    0.000    0.000    0.000 
#    0.000    0.000    0.000    0.000    0.000    0.000 
#
# Total GULP energy -167016.405820 kJ/mol
# GULP energy per Si atom -5567.213527 kJ/mol
# Density = 1.913350 g / cm^3
# Si number density = 19.177152 Si / 1000 Ang^3
#
#
#
# Elastic Constant Matrix: (Units=GPa)
#
#
# Indices 1 2 3 4 5 6 
#
# 1 126.4608 23.2459 39.4736 0.0000 0.0000 0.0000
# 2 23.2459 90.9469 21.7369 0.0000 0.0000 0.0000
# 3 39.4736 21.7369 98.4405 0.0000 0.0000 0.0000
# 4 0.0000 0.0000 0.0000 23.2296 0.0000 0.0000
# 5 0.0000 0.0000 0.0000 0.0000 27.7450 0.0000
# 6 0.0000 0.0000 0.0000 0.0000 0.0000 13.6716
#
#
#
# Elastic Compliance Matrix: (Units=1/GPa)
#
#
# Indices 1 2 3 4 5 6 
#
# 1 0.009244 -0.001559 -0.003362 0.000000 0.000000 0.000000
# 2 -0.001559 0.011871 -0.001996 0.000000 0.000000 0.000000
# 3 -0.003362 -0.001996 0.011947 0.000000 0.000000 0.000000
# 4 0.000000 0.000000 0.000000 0.043048 0.000000 0.000000
# 5 0.000000 0.000000 0.000000 0.000000 0.036043 0.000000
# 6 0.000000 0.000000 0.000000 0.000000 0.000000 0.073144
#
#
# Mechanical properties :
#
#
# Convention : Reuss Voigt Hill
#
# Bulk Modulus (GPa) = 52.00986 53.86231 52.93609
# Shear Modulus (GPa) = 24.32596 28.35535 26.34065
#
# Velocity S-wave (km/s) = 3.56545 3.84943 3.71016
# Velocity P-wave (km/s) = 6.64300 6.92136 6.78361
#
# Compressibility (1/GPa) = 0.01922712
#
# Stress axis : x y z
#
# Youngs Moduli (GPa) = 108.18172 84.23888 83.69976
#
# Poissons Ratio (x) = 0.13133 0.28143
# Poissons Ratio (y) = 0.16866 0.16707
# Poissons Ratio (z) = 0.36375 0.16815
#
# Static dielectric constant tensor:
#      x y z
#    x 1.616410 0.000000 0.000000 
#    y 0.000000 1.761040 0.000000 
#    z 0.000000 0.000000 1.727140 
# 
# From -- ./inp_files/20504.got.cif
#   From: 2010.05.17/outbox.cif.g08.bks.cpg/sg63_11_cif.got.tgz:20504.got - 2010.06.03 15:47:04.
