data_PCOD9469730
_publ_section_title
;
Structure prediction by ZEFSAII (Michael W. Deem and Ramdas Pophale) SiO2 
 PCOD9469730
Probable space group: C M C M
;
_chemical_formula_sum "Si O2"
_cell_formula_units_Z 104
_cell_length_a 25.827075
_cell_length_b 20.244395
_cell_length_c 7.334443
_cell_angle_alpha 90.000000
_cell_angle_beta 90.000000
_cell_angle_gamma 90.000000
_cell_volume 3834.839252
_symmetry_space_group_name_H-M "C M C M"
_symmetry_group_IT_number 63
_symmetry_cell_setting 'orthorhombic'
loop_
_space_group_symop_operation_xyz
x,y,z
-x,-y,1/2+z
x,-y,-z
-x,y,1/2-z
-x,-y,-z
x,y,1/2-z
-x,y,z
x,-y,1/2+z
1/2+x,1/2+y,z
1/2-x,1/2-y,1/2+z
1/2+x,1/2-y,-z
1/2-x,1/2+y,1/2-z
1/2-x,1/2-y,-z
1/2+x,1/2+y,1/2-z
1/2-x,1/2+y,z
1/2+x,1/2-y,1/2+z
loop_
_atom_site_type_symbol
_atom_site_label
_atom_site_fract_x
_atom_site_fract_y
_atom_site_fract_z
Si Si1 0.000000 0.420921 0.468719
Si Si2 0.943562 0.097312 0.961565
Si Si3 0.167704 0.109208 0.973997
Si Si4 0.278446 0.891371 0.457109
Si Si5 0.442602 0.245470 0.968861
Si Si6 0.173891 0.260806 0.962061
Si Si7 0.889212 0.422336 0.468388
O O1 0.000000 0.500000 0.500000
O O2 0.055422 0.396279 0.537558
O O3 0.000000 0.409948 0.250000
O O4 0.944355 0.077090 0.750000
O O5 0.886784 0.078388 0.037214
O O6 0.000000 0.078155 0.040893
O O7 0.941506 0.177457 0.969094
O O8 0.166552 0.108695 0.750000
O O9 0.223987 0.083872 0.033789
O O10 0.170995 0.186090 0.032629
O O11 0.279684 0.916405 0.250000
O O12 0.285623 0.811536 0.451073
O O13 0.332716 0.908329 0.548152
O O14 0.443165 0.244373 0.750000
O O15 0.500000 0.221998 0.028350
O O16 0.386393 0.216233 0.020184
O O17 0.186204 0.258603 0.750000
O O18 0.894044 0.500000 0.500000
O O19 0.887498 0.407602 0.250000
#
# Coordination Sequence:
#
# PCOD9469730 Si02
#       7
#     8  16  16  16  16  16  16
#     4   8  14  28  48  68  84 104 136 172 220 270
#     4   8  13  23  40  60  81 108 141 177 214 249
#     4   8  15  27  43  62  87 118 149 180 215 258
#     4  10  19  31  45  64  88 115 147 179 219 267
#     4   9  16  26  40  57  78 108 145 183 221 257
#     4  10  19  30  43  60  85 118 152 185 219 257
#     4   9  18  32  51  69  87 111 140 182 229 273
#
# _framework density 27.119781
#
# number of rings (size 3 to 8) (size 9 to 14) (size 15 to 20)
#    0.000    3.077    0.000    2.308    0.000    1.538 
#    1.385    3.077    0.000    0.000    0.000    0.000 
#    0.000    0.615    0.000    0.462    0.000    1.077 
#
# Total GULP energy -290223.427618 kJ/mol
# GULP energy per Si atom -5581.219762 kJ/mol
# Density = 2.705806 g / cm^3
# Si number density = 27.119781 Si / 1000 Ang^3
#
#
#
# Elastic Constant Matrix: (Units=GPa)
#
#
# Indices 1 2 3 4 5 6 
#
# 1 348.5486 32.3918 15.0865 0.0000 0.0000 0.0000
# 2 32.3918 52.1801 -10.1383 0.0000 0.0000 0.0000
# 3 15.0865 -10.1383 123.2009 0.0000 0.0000 0.0000
# 4 0.0000 0.0000 0.0000 -7.1104 0.0000 0.0000
# 5 0.0000 0.0000 0.0000 0.0000 3.6153 0.0000
# 6 0.0000 0.0000 0.0000 0.0000 0.0000 20.3127
#
#
#
# Elastic Compliance Matrix: (Units=1/GPa)
#
#
# Indices 1 2 3 4 5 6 
#
# 1 0.003080 -0.002018 -0.000543 0.000000 0.000000 0.000000
# 2 -0.002018 0.020797 0.001958 0.000000 0.000000 0.000000
# 3 -0.000543 0.001958 0.008345 0.000000 0.000000 0.000000
# 4 0.000000 0.000000 0.000000 -0.140639 0.000000 0.000000
# 5 0.000000 0.000000 0.000000 0.000000 0.276605 0.000000
# 6 0.000000 0.000000 0.000000 0.000000 0.000000 0.049230
#
#
# Mechanical properties :
#
#
# Convention : Reuss Voigt Hill
#
# Bulk Modulus (GPa) = 32.23993 66.51217 49.37605
# Shear Modulus (GPa) = 21.83769 35.80281 28.82025
#
# Velocity S-wave (km/s) = 2.84074 3.63736 3.26345
# Velocity P-wave (km/s) = 4.76167 6.49762 5.69617
#
# Compressibility (1/GPa) = 0.03101744
#
# Stress axis : x y z
#
# Youngs Moduli (GPa) = 324.67018 48.08303 119.83933
#
# Poissons Ratio (x) = 0.09701 0.06510
# Poissons Ratio (y) = 0.65503 -0.23470
# Poissons Ratio (z) = 0.17636 -0.09417
#
# Static dielectric constant tensor:
#      x y z
#    x 2.179180 0.000000 0.000000 
#    y 0.000000 2.211000 0.000000 
#    z 0.000000 0.000000 1.952890 
# 
# From -- ./inp_files/10877.got.cif
#   From: 2010.05.17/outbox.cif.g08.bks.cpg/sg63_6_cif.got.tgz:10877.got - 2010.06.03 15:47:04.
