data_PCOD9469635
_publ_section_title
;
Structure prediction by ZEFSAII (Michael W. Deem and Ramdas Pophale) SiO2 
 PCOD9469635
Probable space group: C M C M
;
_chemical_formula_sum "Si O2"
_cell_formula_units_Z 64
_cell_length_a 11.465714
_cell_length_b 14.418674
_cell_length_c 14.688479
_cell_angle_alpha 90.000000
_cell_angle_beta 90.000000
_cell_angle_gamma 90.000000
_cell_volume 2428.305111
_symmetry_space_group_name_H-M "C M C M"
_symmetry_group_IT_number 63
_symmetry_cell_setting 'orthorhombic'
loop_
_space_group_symop_operation_xyz
x,y,z
-x,-y,1/2+z
x,-y,-z
-x,y,1/2-z
-x,-y,-z
x,y,1/2-z
-x,y,z
x,-y,1/2+z
1/2+x,1/2+y,z
1/2-x,1/2-y,1/2+z
1/2+x,1/2-y,-z
1/2-x,1/2+y,1/2-z
1/2-x,1/2-y,-z
1/2+x,1/2+y,1/2-z
1/2-x,1/2+y,z
1/2+x,1/2-y,1/2+z
loop_
_atom_site_type_symbol
_atom_site_label
_atom_site_fract_x
_atom_site_fract_y
_atom_site_fract_z
Si Si1 0.000000 0.506038 0.111094
Si Si2 0.000000 0.031674 0.350549
Si Si3 0.249737 0.269803 0.609246
Si Si4 0.248811 0.990075 0.891814
Si Si5 0.500000 0.265391 0.905027
Si Si6 0.000000 0.723168 0.117156
O O1 0.872764 0.469514 0.140547
O O2 0.000000 0.614022 0.139693
O O3 0.000000 0.500000 0.000000
O O4 0.878785 0.977783 0.360891
O O5 0.000000 0.121610 0.416318
O O6 0.000000 0.073924 0.250000
O O7 0.250000 0.250000 0.500000
O O8 0.248723 0.380087 0.627619
O O9 0.377679 0.238990 0.640306
O O10 0.124879 0.235596 0.644977
O O11 0.248357 0.000000 0.000000
O O12 0.500000 0.225015 0.006766
#
# Coordination Sequence:
#
# PCOD9469635 Si02
#       6
#     8   8  16  16   8   8
#     4   8  14  24  41  66  88 103 129 175 220 259
#     4  10  19  29  40  58  85 116 148 179 211 256
#     4   8  13  21  35  57  81 100 123 159 201 244
#     4   9  16  27  43  63  85 108 137 176 218 255
#     4   8  14  23  35  52  77 105 134 164 200 241
#     4   8  12  20  35  56  80 100 121 156 203 246
#
# _framework density 26.355831999999999
#
# number of rings (size 3 to 8) (size 9 to 14) (size 15 to 20)
#    0.000    3.500    0.000    0.375    0.000    0.000 
#    0.000    0.625    0.000    0.000    0.000   43.750 
#    0.000    0.000    0.000    0.000    0.000    0.000 
#
# Total GULP energy -178386.876466 kJ/mol
# GULP energy per Si atom -5574.589890 kJ/mol
# Density = 2.629584 g / cm^3
# Si number density = 26.355832 Si / 1000 Ang^3
#
#
#
# Elastic Constant Matrix: (Units=GPa)
#
#
# Indices 1 2 3 4 5 6 
#
# 1 434.9253 19.6064 19.8812 0.0000 0.0000 0.0000
# 2 19.6064 124.1820 -7.5452 0.0000 0.0000 0.0000
# 3 19.8812 -7.5452 88.6098 0.0000 0.0000 0.0000
# 4 0.0000 0.0000 0.0000 -16.4001 0.0000 0.0000
# 5 0.0000 0.0000 0.0000 0.0000 -66.0065 0.0000
# 6 0.0000 0.0000 0.0000 0.0000 0.0000 -11.7041
#
#
#
# Elastic Compliance Matrix: (Units=1/GPa)
#
#
# Indices 1 2 3 4 5 6 
#
# 1 0.002343 -0.000404 -0.000560 0.000000 0.000000 0.000000
# 2 -0.000404 0.008164 0.000786 0.000000 0.000000 0.000000
# 3 -0.000560 0.000786 0.011478 0.000000 0.000000 0.000000
# 4 0.000000 0.000000 0.000000 -0.060975 0.000000 0.000000
# 5 0.000000 0.000000 0.000000 0.000000 -0.015150 0.000000
# 6 0.000000 0.000000 0.000000 0.000000 0.000000 -0.085440
#
#
# Mechanical properties :
#
#
# Convention : Reuss Voigt Hill
#
# Bulk Modulus (GPa) = 46.23463 79.06689 62.65076
# Shear Modulus (GPa) = -37.87470 22.22951 -7.82260
#
# Velocity S-wave (km/s) = -3.79496 2.90735 -1.72468
# Velocity P-wave (km/s) = 1.27348 6.42924 4.45609
#
# Compressibility (1/GPa) = 0.02162881
#
# Stress axis : x y z
#
# Youngs Moduli (GPa) = 426.79240 122.48567 87.12306
#
# Poissons Ratio (x) = 0.04948 0.04880
# Poissons Ratio (y) = 0.17241 -0.06846
# Poissons Ratio (z) = 0.23905 -0.09625
#
# Static dielectric constant tensor:
#      x y z
#    x 2.169010 0.000000 0.000000 
#    y 0.000000 2.090580 0.000000 
#    z 0.000000 0.000000 1.943830 
# 
# From -- ./inp_files/41602.got.cif
#   From: 2010.05.17/outbox.cif.g08.bks.cpg/sg63_21_cif.got.tgz:41602.got - 2010.06.03 15:47:04.
