data_PCOD9469447
_publ_section_title
;
Structure prediction by ZEFSAII (Michael W. Deem and Ramdas Pophale) SiO2 
 PCOD9469447
Probable space group: C M C M
;
_chemical_formula_sum "Si O2"
_cell_formula_units_Z 68
_cell_length_a 23.498748
_cell_length_b 6.913660
_cell_length_c 16.341533
_cell_angle_alpha 90.000000
_cell_angle_beta 90.000000
_cell_angle_gamma 90.000000
_cell_volume 2654.883921
_symmetry_space_group_name_H-M "C M C M"
_symmetry_group_IT_number 63
_symmetry_cell_setting 'orthorhombic'
loop_
_space_group_symop_operation_xyz
x,y,z
-x,-y,1/2+z
x,-y,-z
-x,y,1/2-z
-x,-y,-z
x,y,1/2-z
-x,y,z
x,-y,1/2+z
1/2+x,1/2+y,z
1/2-x,1/2-y,1/2+z
1/2+x,1/2-y,-z
1/2-x,1/2+y,1/2-z
1/2-x,1/2-y,-z
1/2+x,1/2+y,1/2-z
1/2-x,1/2+y,z
1/2+x,1/2-y,1/2+z
loop_
_atom_site_type_symbol
_atom_site_label
_atom_site_fract_x
_atom_site_fract_y
_atom_site_fract_z
Si Si1 0.000000 0.203255 0.750000
Si Si2 0.436572 0.261593 0.580028
Si Si3 0.322389 0.359924 0.657392
Si Si4 0.799019 0.548587 0.404921
Si Si5 0.586346 0.199108 0.393268
O O1 0.049411 0.219113 0.678979
O O2 0.500000 0.315328 0.608021
O O3 0.385041 0.379759 0.619736
O O4 0.431574 0.275066 0.482339
O O5 0.427542 0.033861 0.602097
O O6 0.318288 0.431142 0.750000
O O7 0.267760 0.418377 0.604191
O O8 0.313741 0.127289 0.654519
O O9 0.811124 0.500000 0.500000
O O10 0.845003 0.713111 0.383520
#
# Coordination Sequence:
#
# PCOD9469447 Si02
#       5
#     4  16  16  16  16
#     4  12  20  26  56  88 122 152 192 256 304 356
#     4  10  18  34  52  80 118 153 197 246 302 362
#     4  11  24  37  60  92 120 159 207 253 298 358
#     4  11  22  40  60  87 124 164 202 246 310 365
#     4  10  19  31  52  84 118 152 193 243 314 357
#
# _framework density 25.613171999999999
#
# number of rings (size 3 to 8) (size 9 to 14) (size 15 to 20)
#    0.000    1.412    7.059    2.118    8.235    0.471 
#    0.000    0.000    0.000    0.706    3.059    0.000 
#    0.000    0.000    0.000    0.000    0.000    0.000 
#
# Total GULP energy -189975.626788 kJ/mol
# GULP energy per Si atom -5587.518435 kJ/mol
# Density = 2.555487 g / cm^3
# Si number density = 25.613172 Si / 1000 Ang^3
#
#
#
# Elastic Constant Matrix: (Units=GPa)
#
#
# Indices 1 2 3 4 5 6 
#
# 1 284.2830 34.7654 59.9614 0.0000 0.0000 0.0000
# 2 34.7654 63.8012 17.7548 0.0000 0.0000 0.0000
# 3 59.9614 17.7548 129.4609 0.0000 0.0000 0.0000
# 4 0.0000 0.0000 0.0000 9.2332 0.0000 0.0000
# 5 0.0000 0.0000 0.0000 0.0000 32.7028 0.0000
# 6 0.0000 0.0000 0.0000 0.0000 0.0000 31.3038
#
#
#
# Elastic Compliance Matrix: (Units=1/GPa)
#
#
# Indices 1 2 3 4 5 6 
#
# 1 0.004081 -0.001765 -0.001648 0.000000 0.000000 0.000000
# 2 -0.001765 0.017059 -0.001522 0.000000 0.000000 0.000000
# 3 -0.001648 -0.001522 0.008696 0.000000 0.000000 0.000000
# 4 0.000000 0.000000 0.000000 0.108305 0.000000 0.000000
# 5 0.000000 0.000000 0.000000 0.000000 0.030578 0.000000
# 6 0.000000 0.000000 0.000000 0.000000 0.000000 0.031945
#
#
# Mechanical properties :
#
#
# Convention : Reuss Voigt Hill
#
# Bulk Modulus (GPa) = 50.08504 78.05647 64.07075
# Shear Modulus (GPa) = 23.02125 38.98553 31.00339
#
# Velocity S-wave (km/s) = 3.00126 3.90563 3.48292
# Velocity P-wave (km/s) = 5.62201 7.13301 6.42210
#
# Compressibility (1/GPa) = 0.01996604
#
# Stress axis : x y z
#
# Youngs Moduli (GPa) = 245.03123 58.61981 114.98982
#
# Poissons Ratio (x) = 0.10347 0.18952
# Poissons Ratio (y) = 0.43252 0.17501
# Poissons Ratio (z) = 0.40384 0.08922
#
# Static dielectric constant tensor:
#      x y z
#    x 2.030450 0.000000 0.000000 
#    y 0.000000 2.152870 0.000000 
#    z 0.000000 0.000000 2.014550 
# 
# From -- ./inp_files/34955.got.cif
#   From: 2010.05.17/outbox.cif.g08.bks.cpg/sg63_18_cif.got.tgz:34955.got - 2010.06.03 15:47:04.
