data_PCOD9469084
_publ_section_title
;
Structure prediction by ZEFSAII (Michael W. Deem and Ramdas Pophale) SiO2 
 PCOD9469084
Probable space group: C M C M
;
_chemical_formula_sum "Si O2"
_cell_formula_units_Z 120
_cell_length_a 21.722548
_cell_length_b 14.292741
_cell_length_c 22.651235
_cell_angle_alpha 90.000000
_cell_angle_beta 90.000000
_cell_angle_gamma 90.000000
_cell_volume 7032.636579
_symmetry_space_group_name_H-M "C M C M"
_symmetry_group_IT_number 63
_symmetry_cell_setting 'orthorhombic'
loop_
_space_group_symop_operation_xyz
x,y,z
-x,-y,1/2+z
x,-y,-z
-x,y,1/2-z
-x,-y,-z
x,y,1/2-z
-x,y,z
x,-y,1/2+z
1/2+x,1/2+y,z
1/2-x,1/2-y,1/2+z
1/2+x,1/2-y,-z
1/2-x,1/2+y,1/2-z
1/2-x,1/2-y,-z
1/2+x,1/2+y,1/2-z
1/2-x,1/2+y,z
1/2+x,1/2-y,1/2+z
loop_
_atom_site_type_symbol
_atom_site_label
_atom_site_fract_x
_atom_site_fract_y
_atom_site_fract_z
Si Si1 0.102162 0.394021 0.317213
Si Si2 0.637948 0.000000 0.500000
Si Si3 0.066458 0.390016 0.820911
Si Si4 0.235684 0.642195 0.643688
Si Si5 0.807857 0.779954 0.540900
Si Si6 0.571700 0.821778 0.055755
Si Si7 0.691183 0.188233 0.181897
Si Si8 0.253119 0.949115 0.588438
O O1 0.082409 0.369181 0.250000
O O2 0.081723 0.500678 0.329589
O O3 0.176580 0.391298 0.319408
O O4 0.077971 0.332696 0.372391
O O5 0.596419 0.080117 0.528930
O O6 0.685076 0.040743 0.450966
O O7 0.063016 0.377677 0.750000
O O8 0.122122 0.325873 0.841712
O O9 0.000000 0.368787 0.847269
O O10 0.206577 0.713929 0.596790
O O11 0.284784 0.706334 0.676575
O O12 0.262950 0.552463 0.610405
O O13 0.750000 0.750000 0.500000
O O14 0.878708 0.752431 0.529149
O O15 0.797271 0.889533 0.552985
O O16 0.500000 0.805499 0.041882
O O17 0.693284 0.159492 0.250000
O O18 0.731456 0.116319 0.144137
#
# Coordination Sequence:
#
# PCOD9469084 Si02
#       8
#    16   8  16  16  16  16  16  16
#     4  10  18  31  50  77 109 141 172 208 270 338
#     4  12  19  36  54  82 107 144 174 230 281 328
#     4   9  16  27  44  66  97 137 170 201 249 310
#     4  10  19  31  50  78 104 138 175 223 270 317
#     4  10  19  34  55  74 106 143 186 221 265 328
#     4  11  22  34  52  82 113 143 179 226 276 332
#     4  10  20  31  48  75 106 139 175 220 267 318
#     4  11  19  33  55  78 108 141 185 218 272 322
#
# _framework density 17.063302
#
# number of rings (size 3 to 8) (size 9 to 14) (size 15 to 20)
#    0.000    1.733    5.333    1.000    0.000    1.333 
#    0.000    0.667    0.000    0.800    0.000    3.267 
#    0.000    0.000    0.000    0.000    0.000    0.000 
#
# Total GULP energy -334117.630233 kJ/mol
# GULP energy per Si atom -5568.627171 kJ/mol
# Density = 1.702447 g / cm^3
# Si number density = 17.063302 Si / 1000 Ang^3
#
#
#
# Elastic Constant Matrix: (Units=GPa)
#
#
# Indices 1 2 3 4 5 6 
#
# 1 114.8780 27.6139 11.0298 0.0000 0.0000 0.0000
# 2 27.6139 54.6872 0.2358 0.0000 0.0000 0.0000
# 3 11.0298 0.2358 51.3665 0.0000 0.0000 0.0000
# 4 0.0000 0.0000 0.0000 18.1755 0.0000 0.0000
# 5 0.0000 0.0000 0.0000 0.0000 14.0939 0.0000
# 6 0.0000 0.0000 0.0000 0.0000 0.0000 17.3717
#
#
#
# Elastic Compliance Matrix: (Units=1/GPa)
#
#
# Indices 1 2 3 4 5 6 
#
# 1 0.010140 -0.005111 -0.002154 0.000000 0.000000 0.000000
# 2 -0.005111 0.020862 0.001002 0.000000 0.000000 0.000000
# 3 -0.002154 0.001002 0.019926 0.000000 0.000000 0.000000
# 4 0.000000 0.000000 0.000000 0.055019 0.000000 0.000000
# 5 0.000000 0.000000 0.000000 0.000000 0.070953 0.000000
# 6 0.000000 0.000000 0.000000 0.000000 0.000000 0.057565
#
#
# Mechanical properties :
#
#
# Convention : Reuss Voigt Hill
#
# Bulk Modulus (GPa) = 26.04032 33.18785 29.61408
# Shear Modulus (GPa) = 19.24615 22.06502 20.65558
#
# Velocity S-wave (km/s) = 3.36210 3.59991 3.48304
# Velocity P-wave (km/s) = 5.51052 6.06393 5.79383
#
# Compressibility (1/GPa) = 0.03840199
#
# Stress axis : x y z
#
# Youngs Moduli (GPa) = 98.61697 47.93345 50.18605
#
# Poissons Ratio (x) = 0.24499 0.10810
# Poissons Ratio (y) = 0.50403 -0.05027
# Poissons Ratio (z) = 0.21241 -0.04802
#
# Static dielectric constant tensor:
#      x y z
#    x 1.640340 0.000000 0.000000 
#    y 0.000000 1.569750 0.000000 
#    z 0.000000 0.000000 1.658630 
# 
# From -- ./inp_files/64748.got.cif
#   From: 2010.05.17/outbox.cif.g08.bks.cpg/sg63_33_cif.got.tgz:64748.got - 2010.06.03 15:47:04.
