data_PCOD9469330
_publ_section_title
;
Structure prediction by ZEFSAII (Michael W. Deem and Ramdas Pophale) SiO2 
 PCOD9469330
Probable space group: C M C M
;
_chemical_formula_sum "Si O2"
_cell_formula_units_Z 112
_cell_length_a 14.229969
_cell_length_b 31.008688
_cell_length_c 14.393470
_cell_angle_alpha 90.000000
_cell_angle_beta 90.000000
_cell_angle_gamma 90.000000
_cell_volume 6351.157053
_symmetry_space_group_name_H-M "C M C M"
_symmetry_group_IT_number 63
_symmetry_cell_setting 'orthorhombic'
loop_
_space_group_symop_operation_xyz
x,y,z
-x,-y,1/2+z
x,-y,-z
-x,y,1/2-z
-x,-y,-z
x,y,1/2-z
-x,y,z
x,-y,1/2+z
1/2+x,1/2+y,z
1/2-x,1/2-y,1/2+z
1/2+x,1/2-y,-z
1/2-x,1/2+y,1/2-z
1/2-x,1/2-y,-z
1/2+x,1/2+y,1/2-z
1/2-x,1/2+y,z
1/2+x,1/2-y,1/2+z
loop_
_atom_site_type_symbol
_atom_site_label
_atom_site_fract_x
_atom_site_fract_y
_atom_site_fract_z
Si Si1 0.808925 0.481592 0.355338
Si Si2 0.605734 0.381673 0.962196
Si Si3 0.111200 0.562274 0.031259
Si Si4 0.790951 0.631673 0.356515
Si Si5 0.390991 0.282655 0.015194
Si Si6 0.747196 0.767236 0.642549
Si Si7 0.895672 0.033894 0.915210
O O1 0.843599 0.477903 0.250000
O O2 0.850047 0.446661 0.427939
O O3 0.839756 0.526867 0.401675
O O4 0.696156 0.477016 0.356668
O O5 0.500000 0.385318 0.922983
O O6 0.686770 0.384256 0.885511
O O7 0.614244 0.334556 0.008546
O O8 0.616612 0.419241 0.037687
O O9 0.139426 0.608363 0.072518
O O10 0.000000 0.555483 0.032565
O O11 0.812362 0.620226 0.250000
O O12 0.789590 0.683401 0.364867
O O13 0.500000 0.270308 0.019561
O O14 0.331121 0.264154 0.100314
O O15 0.338998 0.265131 0.922715
O O16 0.767566 0.758537 0.750000
O O17 0.000000 0.031939 0.871561
O O18 0.895253 0.000000 0.000000
#
# Coordination Sequence:
#
# PCOD9469330 Si02
#       7
#    16  16  16  16  16  16  16
#     4  11  21  36  56  76 102 138 179 219 264 314
#     4   9  17  32  54  78 108 141 173 210 261 322
#     4  11  23  38  54  76 105 137 179 227 270 312
#     4  10  19  33  55  81 108 137 171 217 275 323
#     4   9  18  33  54  78 108 145 178 216 267 321
#     4   9  19  34  54  82 110 138 178 225 270 320
#     4  10  18  32  55  80 108 139 171 211 260 314
#
# _framework density 17.634582000000002
#
# number of rings (size 3 to 8) (size 9 to 14) (size 15 to 20)
#    0.000    2.143    2.857    1.286    0.000    3.714 
#    0.000    5.000    0.000    6.857    0.000    2.000 
#    0.000    0.000    0.000    0.000    0.000    0.000 
#
# Total GULP energy -312270.873343 kJ/mol
# GULP energy per Si atom -5576.265595 kJ/mol
# Density = 1.759444 g / cm^3
# Si number density = 17.634582 Si / 1000 Ang^3
#
#
#
# Elastic Constant Matrix: (Units=GPa)
#
#
# Indices 1 2 3 4 5 6 
#
# 1 100.6424 28.7172 22.0232 0.0000 0.0000 0.0000
# 2 28.7172 23.8138 13.6101 0.0000 0.0000 0.0000
# 3 22.0232 13.6101 85.5982 0.0000 0.0000 0.0000
# 4 0.0000 0.0000 0.0000 13.4120 0.0000 0.0000
# 5 0.0000 0.0000 0.0000 0.0000 0.7239 0.0000
# 6 0.0000 0.0000 0.0000 0.0000 0.0000 25.7456
#
#
#
# Elastic Compliance Matrix: (Units=1/GPa)
#
#
# Indices 1 2 3 4 5 6 
#
# 1 0.015242 -0.017753 -0.001099 0.000000 0.000000 0.000000
# 2 -0.017753 0.066866 -0.006064 0.000000 0.000000 0.000000
# 3 -0.001099 -0.006064 0.012929 0.000000 0.000000 0.000000
# 4 0.000000 0.000000 0.000000 0.074560 0.000000 0.000000
# 5 0.000000 0.000000 0.000000 0.000000 1.381391 0.000000
# 6 0.000000 0.000000 0.000000 0.000000 0.000000 0.038842
#
#
# Mechanical properties :
#
#
# Convention : Reuss Voigt Hill
#
# Bulk Modulus (GPa) = 22.12076 37.63951 29.88014
# Shear Modulus (GPa) = 3.02164 17.68989 10.35576
#
# Velocity S-wave (km/s) = 1.31042 3.17067 2.42594
# Velocity P-wave (km/s) = 3.85497 5.89870 4.98274
#
# Compressibility (1/GPa) = 0.04520639
#
# Stress axis : x y z
#
# Youngs Moduli (GPa) = 65.60755 14.95520 77.34286
#
# Poissons Ratio (x) = 0.26549 0.08499
# Poissons Ratio (y) = 1.16470 0.46903
# Poissons Ratio (z) = 0.07210 0.09069
#
# Static dielectric constant tensor:
#      x y z
#    x 1.613830 0.000000 0.000000 
#    y 0.000000 1.605910 0.000000 
#    z 0.000000 0.000000 1.582050 
# 
# From -- ./inp_files/32785.got.cif
#   From: 2010.05.17/outbox.cif.g08.bks.cpg/sg63_17_cif.got.tgz:32785.got - 2010.06.03 15:47:04.
