data_PCOD9469043
_publ_section_title
;
Structure prediction by ZEFSAII (Michael W. Deem and Ramdas Pophale) SiO2 
 PCOD9469043
Probable space group: C M C M
;
_chemical_formula_sum "Si O2"
_cell_formula_units_Z 128
_cell_length_a 17.419695
_cell_length_b 26.837474
_cell_length_c 18.732576
_cell_angle_alpha 90.000000
_cell_angle_beta 90.000000
_cell_angle_gamma 90.000000
_cell_volume 8757.490738
_symmetry_space_group_name_H-M "C M C M"
_symmetry_group_IT_number 63
_symmetry_cell_setting 'orthorhombic'
loop_
_space_group_symop_operation_xyz
x,y,z
-x,-y,1/2+z
x,-y,-z
-x,y,1/2-z
-x,-y,-z
x,y,1/2-z
-x,y,z
x,-y,1/2+z
1/2+x,1/2+y,z
1/2-x,1/2-y,1/2+z
1/2+x,1/2-y,-z
1/2-x,1/2+y,1/2-z
1/2-x,1/2-y,-z
1/2+x,1/2+y,1/2-z
1/2-x,1/2+y,z
1/2+x,1/2-y,1/2+z
loop_
_atom_site_type_symbol
_atom_site_label
_atom_site_fract_x
_atom_site_fract_y
_atom_site_fract_z
Si Si1 0.089866 0.066602 0.327140
Si Si2 0.291045 0.021274 0.422976
Si Si3 0.665832 0.461965 0.335369
Si Si4 0.591695 0.629514 0.921913
Si Si5 0.804468 0.324226 0.833902
Si Si6 0.413002 0.268543 0.165843
Si Si7 0.588623 0.921296 0.666805
Si Si8 0.688798 0.378253 0.565475
O O1 0.127433 0.076311 0.250000
O O2 0.121050 0.105689 0.382220
O O3 0.000000 0.070933 0.322652
O O4 0.110352 0.009734 0.344716
O O5 0.364762 0.039177 0.379512
O O6 0.239898 0.071066 0.437032
O O7 0.310493 0.000000 0.500000
O O8 0.241955 0.981443 0.376548
O O9 0.677651 0.454257 0.250000
O O10 0.626228 0.414808 0.372881
O O11 0.500000 0.620393 0.937912
O O12 0.595921 0.681448 0.879404
O O13 0.647530 0.633185 0.990785
O O14 0.777983 0.323429 0.750000
O O15 0.849395 0.273144 0.849343
O O16 0.866467 0.368959 0.838699
O O17 0.739720 0.337310 0.892588
O O18 0.407647 0.280717 0.250000
O O19 0.500000 0.248815 0.153654
O O20 0.591707 0.935920 0.750000
O O21 0.500000 0.916199 0.645779
#
# Coordination Sequence:
#
# PCOD9469043 Si02
#       8
#    16  16  16  16  16  16  16  16
#     4   9  17  28  43  63  88 119 157 196 227 261
#     4  10  18  31  45  65  94 125 154 187 226 265
#     4  10  19  31  46  64  89 127 164 193 224 265
#     4  11  21  31  45  66  93 125 155 190 230 272
#     4   9  17  31  51  69  89 117 147 184 232 278
#     4   9  18  32  49  69  91 114 146 188 231 275
#     4   9  17  29  48  72  93 115 146 184 228 279
#     4  10  19  30  44  65  92 122 152 186 223 277
#
# _framework density 14.616059
#
# number of rings (size 3 to 8) (size 9 to 14) (size 15 to 20)
#    0.000    2.375    1.250    2.250    0.000    6.500 
#    0.000    1.875    0.000    0.000    0.000    0.000 
#    0.000    0.000    0.000    6.375    0.000    0.000 
#
# Total GULP energy -356295.525066 kJ/mol
# GULP energy per Si atom -5567.117579 kJ/mol
# Density = 1.458279 g / cm^3
# Si number density = 14.616059 Si / 1000 Ang^3
#
#
#
# Elastic Constant Matrix: (Units=GPa)
#
#
# Indices 1 2 3 4 5 6 
#
# 1 81.1227 39.5905 61.0293 0.0000 0.0000 0.0000
# 2 39.5905 68.1934 53.3232 0.0000 0.0000 0.0000
# 3 61.0293 53.3232 97.8461 0.0000 0.0000 0.0000
# 4 0.0000 0.0000 0.0000 19.6616 0.0000 0.0000
# 5 0.0000 0.0000 0.0000 0.0000 23.8513 0.0000
# 6 0.0000 0.0000 0.0000 0.0000 0.0000 20.0550
#
#
#
# Elastic Compliance Matrix: (Units=1/GPa)
#
#
# Indices 1 2 3 4 5 6 
#
# 1 0.023791 -0.003849 -0.012741 0.000000 0.000000 0.000000
# 2 -0.003849 0.026176 -0.011864 0.000000 0.000000 0.000000
# 3 -0.012741 -0.011864 0.024633 0.000000 0.000000 0.000000
# 4 0.000000 0.000000 0.000000 0.050861 0.000000 0.000000
# 5 0.000000 0.000000 0.000000 0.000000 0.041926 0.000000
# 6 0.000000 0.000000 0.000000 0.000000 0.000000 0.049863
#
#
# Mechanical properties :
#
#
# Convention : Reuss Voigt Hill
#
# Bulk Modulus (GPa) = 56.52831 61.67204 59.10018
# Shear Modulus (GPa) = 17.85351 18.92818 18.39084
#
# Velocity S-wave (km/s) = 3.49879 3.60255 3.55105
# Velocity P-wave (km/s) = 7.42169 7.71951 7.57206
#
# Compressibility (1/GPa) = 0.01769025
#
# Stress axis : x y z
#
# Youngs Moduli (GPa) = 42.03265 38.20279 40.59575
#
# Poissons Ratio (x) = 0.14705 0.51725
# Poissons Ratio (y) = 0.16179 0.48165
# Poissons Ratio (z) = 0.53556 0.45325
#
# Static dielectric constant tensor:
#      x y z
#    x 1.482480 0.000000 0.000000 
#    y 0.000000 1.459300 0.000000 
#    z 0.000000 0.000000 1.501280 
# 
# From -- ./inp_files/46314.got.cif
#   From: 2010.05.17/outbox.cif.g08.bks.cpg/sg63_24_cif.got.tgz:46314.got - 2010.06.03 15:47:04.
