data_PCOD9469405
_publ_section_title
;
Structure prediction by ZEFSAII (Michael W. Deem and Ramdas Pophale) SiO2 
 PCOD9469405
Probable space group: C M C M
;
_chemical_formula_sum "Si O2"
_cell_formula_units_Z 84
_cell_length_a 24.723718
_cell_length_b 9.283086
_cell_length_c 19.155432
_cell_angle_alpha 90.000000
_cell_angle_beta 90.000000
_cell_angle_gamma 90.000000
_cell_volume 4396.409180
_symmetry_space_group_name_H-M "C M C M"
_symmetry_group_IT_number 63
_symmetry_cell_setting 'orthorhombic'
loop_
_space_group_symop_operation_xyz
x,y,z
-x,-y,1/2+z
x,-y,-z
-x,y,1/2-z
-x,-y,-z
x,y,1/2-z
-x,y,z
x,-y,1/2+z
1/2+x,1/2+y,z
1/2-x,1/2-y,1/2+z
1/2+x,1/2-y,-z
1/2-x,1/2+y,1/2-z
1/2-x,1/2-y,-z
1/2+x,1/2+y,1/2-z
1/2-x,1/2+y,z
1/2+x,1/2-y,1/2+z
loop_
_atom_site_type_symbol
_atom_site_label
_atom_site_fract_x
_atom_site_fract_y
_atom_site_fract_z
Si Si1 0.000000 0.589394 0.898617
Si Si2 0.080333 0.661885 0.105944
Si Si3 0.000000 0.169522 0.512169
Si Si4 0.000000 0.727948 0.750000
Si Si5 0.703630 0.744242 0.170916
Si Si6 0.387525 0.601181 0.250000
Si Si7 0.941756 0.192675 0.750000
Si Si8 0.191294 0.430011 0.836628
O O1 0.948240 0.488642 0.913740
O O2 0.000000 0.630320 0.818186
O O3 0.000000 0.734986 0.942513
O O4 0.053357 0.779237 0.054953
O O5 0.061137 0.709346 0.182509
O O6 0.143795 0.644065 0.118932
O O7 0.000000 0.000000 0.500000
O O8 0.944859 0.819953 0.750000
O O9 0.722729 0.780011 0.250000
O O10 0.648600 0.654712 0.184287
O O11 0.752007 0.645447 0.144412
O O12 0.692795 0.901875 0.141509
O O13 0.396516 0.430876 0.250000
O O14 0.000000 0.116859 0.750000
O O15 0.181921 0.421593 0.750000
#
# Coordination Sequence:
#
# PCOD9469405 Si02
#       8
#     8  16   8   4  16   8   8  16
#     4  11  24  41  65  89 127 157 204 263 320 392
#     4  11  22  38  63  89 122 170 207 259 319 371
#     4  11  27  47  61  89 126 172 215 255 324 396
#     4  12  22  34  64 100 120 154 200 264 322 376
#     4   8  19  32  49  81 134 171 201 251 322 361
#     4  10  22  30  50  88 139 163 196 251 324 359
#     4  12  21  33  57  95 133 154 211 265 305 376
#     4  10  18  33  55  89 126 166 209 257 310 378
#
# _framework density 19.106503
#
# number of rings (size 3 to 8) (size 9 to 14) (size 15 to 20)
#    0.571    1.143    3.333    2.857    5.333    0.000 
#    0.000    0.000    0.000    0.000    0.000   18.667 
#    0.000    0.000    0.000    0.000    0.000    0.000 
#
# Total GULP energy -233888.775658 kJ/mol
# GULP energy per Si atom -5568.780373 kJ/mol
# Density = 1.906302 g / cm^3
# Si number density = 19.106503 Si / 1000 Ang^3
#
#
#
# Elastic Constant Matrix: (Units=GPa)
#
#
# Indices 1 2 3 4 5 6 
#
# 1 150.2089 51.0336 12.4134 0.0000 0.0000 0.0000
# 2 51.0336 131.5972 40.0261 0.0000 0.0000 0.0000
# 3 12.4134 40.0261 63.9258 0.0000 0.0000 0.0000
# 4 0.0000 0.0000 0.0000 16.8573 0.0000 0.0000
# 5 0.0000 0.0000 0.0000 0.0000 -39.9125 0.0000
# 6 0.0000 0.0000 0.0000 0.0000 0.0000 16.5270
#
#
#
# Elastic Compliance Matrix: (Units=1/GPa)
#
#
# Indices 1 2 3 4 5 6 
#
# 1 0.007679 -0.003118 0.000461 0.000000 0.000000 0.000000
# 2 -0.003118 0.010653 -0.006065 0.000000 0.000000 0.000000
# 3 0.000461 -0.006065 0.019351 0.000000 0.000000 0.000000
# 4 0.000000 0.000000 0.000000 0.059322 0.000000 0.000000
# 5 0.000000 0.000000 0.000000 0.000000 -0.025055 0.000000
# 6 0.000000 0.000000 0.000000 0.000000 0.000000 0.060507
#
#
# Mechanical properties :
#
#
# Convention : Reuss Voigt Hill
#
# Bulk Modulus (GPa) = 49.40853 61.40868 55.40861
# Shear Modulus (GPa) = 31.91923 14.84492 23.38207
#
# Velocity S-wave (km/s) = 4.09173 2.79042 3.50205
# Velocity P-wave (km/s) = 6.94540 6.52625 6.73908
#
# Compressibility (1/GPa) = 0.02023942
#
# Stress axis : x y z
#
# Youngs Moduli (GPa) = 130.23124 93.87278 51.67747
#
# Poissons Ratio (x) = 0.29270 -0.02384
# Poissons Ratio (y) = 0.40607 0.31340
# Poissons Ratio (z) = -0.06007 0.56930
#
# Static dielectric constant tensor:
#      x y z
#    x 1.701820 0.000000 0.000000 
#    y 0.000000 1.675580 0.000000 
#    z 0.000000 0.000000 1.669900 
# 
# From -- ./inp_files/58035.got.cif
#   From: 2010.05.17/outbox.cif.g08.bks.cpg/sg63_30_cif.got.tgz:58035.got - 2010.06.03 15:47:04.
