data_PCOD9469598
_publ_section_title
;
Structure prediction by ZEFSAII (Michael W. Deem and Ramdas Pophale) SiO2 
 PCOD9469598
Probable space group: C M C M
;
_chemical_formula_sum "Si O2"
_cell_formula_units_Z 64
_cell_length_a 8.519425
_cell_length_b 17.326832
_cell_length_c 15.211714
_cell_angle_alpha 90.000000
_cell_angle_beta 90.000000
_cell_angle_gamma 90.000000
_cell_volume 2245.471773
_symmetry_space_group_name_H-M "C M C M"
_symmetry_group_IT_number 63
_symmetry_cell_setting 'orthorhombic'
loop_
_space_group_symop_operation_xyz
x,y,z
-x,-y,1/2+z
x,-y,-z
-x,y,1/2-z
-x,-y,-z
x,y,1/2-z
-x,y,z
x,-y,1/2+z
1/2+x,1/2+y,z
1/2-x,1/2-y,1/2+z
1/2+x,1/2-y,-z
1/2-x,1/2+y,1/2-z
1/2-x,1/2-y,-z
1/2+x,1/2+y,1/2-z
1/2-x,1/2+y,z
1/2+x,1/2-y,1/2+z
loop_
_atom_site_type_symbol
_atom_site_label
_atom_site_fract_x
_atom_site_fract_y
_atom_site_fract_z
Si Si1 0.000000 0.128509 0.588530
Si Si2 0.500000 0.506844 0.750000
Si Si3 0.000000 0.266704 0.250000
Si Si4 0.500000 0.192733 0.352479
Si Si5 0.679736 0.706281 0.085351
Si Si6 0.831141 0.490850 0.750000
Si Si7 0.665384 0.926766 0.437041
O O1 0.167940 0.110433 0.545376
O O2 0.000000 0.217369 0.617175
O O3 0.000000 0.064946 0.667800
O O4 0.656899 0.454901 0.750000
O O5 0.861944 0.260210 0.328686
O O6 0.500000 0.199810 0.250000
O O7 0.666952 0.156907 0.384063
O O8 0.500000 0.675210 0.073069
O O9 0.750000 0.750000 0.000000
O O10 0.834713 0.544209 0.836439
O O11 0.000000 0.449578 0.750000
O O12 0.500000 0.882775 0.449687
O O13 0.659557 0.000000 0.500000
#
# Coordination Sequence:
#
# PCOD9469598 Si02
#       7
#     8   4   4   8  16   8  16
#     4  10  19  27  44  69  97 135 163 195 253 317
#     4   8  14  26  36  58  90 123 150 174 226 307
#     4   8  18  32  48  80 104 131 182 212 250 321
#     4  12  19  32  51  75 113 141 162 212 279 323
#     4  10  19  33  52  75 103 140 181 215 255 320
#     4   8  14  24  40  61  83 111 154 195 241 277
#     4   9  17  30  45  64  94 130 169 208 245 294
#
# _framework density 28.501804
#
# number of rings (size 3 to 8) (size 9 to 14) (size 15 to 20)
#    0.750    1.750    3.125    0.375    0.000    1.000 
#    0.000    0.000    0.000    0.000    0.000    7.000 
#    0.000    8.000    0.000    0.000    0.000    0.000 
#
# Total GULP energy -178323.808507 kJ/mol
# GULP energy per Si atom -5572.619016 kJ/mol
# Density = 2.843693 g / cm^3
# Si number density = 28.501804 Si / 1000 Ang^3
#
#
#
# Elastic Constant Matrix: (Units=GPa)
#
#
# Indices 1 2 3 4 5 6 
#
# 1 404.8895 60.6010 102.9961 0.0000 0.0000 0.0000
# 2 60.6010 77.0014 16.0135 0.0000 0.0000 0.0000
# 3 102.9961 16.0135 162.6540 0.0000 0.0000 0.0000
# 4 0.0000 0.0000 0.0000 3.7147 0.0000 0.0000
# 5 0.0000 0.0000 0.0000 0.0000 85.7700 0.0000
# 6 0.0000 0.0000 0.0000 0.0000 0.0000 49.6420
#
#
#
# Elastic Compliance Matrix: (Units=1/GPa)
#
#
# Indices 1 2 3 4 5 6 
#
# 1 0.003269 -0.002187 -0.001855 0.000000 0.000000 0.000000
# 2 -0.002187 0.014721 -0.000064 0.000000 0.000000 0.000000
# 3 -0.001855 -0.000064 0.007329 0.000000 0.000000 0.000000
# 4 0.000000 0.000000 0.000000 0.269197 0.000000 0.000000
# 5 0.000000 0.000000 0.000000 0.000000 0.011659 0.000000
# 6 0.000000 0.000000 0.000000 0.000000 0.000000 0.020144
#
#
# Mechanical properties :
#
#
# Convention : Reuss Voigt Hill
#
# Bulk Modulus (GPa) = 58.45617 111.52956 84.99286
# Shear Modulus (GPa) = 14.69576 58.82095 36.75835
#
# Velocity S-wave (km/s) = 2.27316 4.54779 3.59511
# Velocity P-wave (km/s) = 5.23869 8.17265 6.86426
#
# Compressibility (1/GPa) = 0.01710683
#
# Stress axis : x y z
#
# Youngs Moduli (GPa) = 305.91060 67.92842 136.44853
#
# Poissons Ratio (x) = 0.14856 0.25306
# Poissons Ratio (y) = 0.66902 0.00880
# Poissons Ratio (z) = 0.56736 0.00438
#
# Static dielectric constant tensor:
#      x y z
#    x 2.275680 0.000000 0.000000 
#    y 0.000000 2.229110 0.000000 
#    z 0.000000 0.000000 2.306460 
# 
# From -- ./inp_files/28075.got.cif
#   From: 2010.05.17/outbox.cif.g08.bks.cpg/sg63_15_cif.got.tgz:28075.got - 2010.06.03 15:47:04.
