data_PCOD9469669
_publ_section_title
;
Structure prediction by ZEFSAII (Michael W. Deem and Ramdas Pophale) SiO2 
 PCOD9469669
Probable space group: C M C M
;
_chemical_formula_sum "Si O2"
_cell_formula_units_Z 96
_cell_length_a 8.754097
_cell_length_b 28.312973
_cell_length_c 24.604117
_cell_angle_alpha 90.000000
_cell_angle_beta 90.000000
_cell_angle_gamma 90.000000
_cell_volume 6098.241412
_symmetry_space_group_name_H-M "C M C M"
_symmetry_group_IT_number 63
_symmetry_cell_setting 'orthorhombic'
loop_
_space_group_symop_operation_xyz
x,y,z
-x,-y,1/2+z
x,-y,-z
-x,y,1/2-z
-x,-y,-z
x,y,1/2-z
-x,y,z
x,-y,1/2+z
1/2+x,1/2+y,z
1/2-x,1/2-y,1/2+z
1/2+x,1/2-y,-z
1/2-x,1/2+y,1/2-z
1/2-x,1/2-y,-z
1/2+x,1/2+y,1/2-z
1/2-x,1/2+y,z
1/2+x,1/2-y,1/2+z
loop_
_atom_site_type_symbol
_atom_site_label
_atom_site_fract_x
_atom_site_fract_y
_atom_site_fract_z
Si Si1 0.313927 0.677115 0.688639
Si Si2 0.184348 0.425299 0.978255
Si Si3 0.816088 0.482222 0.085410
Si Si4 0.184089 0.068116 0.688171
Si Si5 0.815584 0.766105 0.083721
Si Si6 0.317497 0.321912 0.974452
O O1 0.265230 0.689796 0.750000
O O2 0.500000 0.677635 0.688420
O O3 0.268864 0.622695 0.677892
O O4 0.262979 0.711485 0.640572
O O5 0.229878 0.465610 0.934902
O O6 0.253706 0.374305 0.967957
O O7 0.000000 0.422182 0.977621
O O8 0.229904 0.445870 0.037399
O O9 0.749913 0.465606 0.142324
O O10 0.000000 0.481601 0.087741
O O11 0.230059 0.056089 0.750000
O O12 0.000000 0.066867 0.685939
O O13 0.747561 0.715309 0.068966
O O14 0.000000 0.762661 0.084459
O O15 0.773501 0.800987 0.033852
O O16 0.500000 0.322476 0.971571
#
# Coordination Sequence:
#
# PCOD9469669 Si02
#       6
#    16  16  16  16  16  16
#     4   8  14  26  45  67  89 115 147 179 213 259
#     4   9  18  32  47  65  91 120 148 183 227 266
#     4   9  18  31  47  67  91 119 150 184 222 265
#     4   9  17  29  46  69  96 122 147 180 222 264
#     4   9  17  29  45  65  90 118 146 180 220 260
#     4  10  19  29  44  67  91 117 149 182 219 265
#
# _framework density 15.742241999999999
#
# number of rings (size 3 to 8) (size 9 to 14) (size 15 to 20)
#    0.000    3.000    0.000    3.500    0.000    3.667 
#    0.000    2.500    0.000    2.500    0.000    2.333 
#    0.000    0.000    0.000    0.000    0.000    0.000 
#
# Total GULP energy -267461.844990 kJ/mol
# GULP energy per Si atom -5572.121771 kJ/mol
# Density = 1.570641 g / cm^3
# Si number density = 15.742242 Si / 1000 Ang^3
#
#
#
# Elastic Constant Matrix: (Units=GPa)
#
#
# Indices 1 2 3 4 5 6 
#
# 1 10.5873 30.8563 28.9990 0.0000 0.0000 0.0000
# 2 30.8563 144.9574 93.9763 0.0000 0.0000 0.0000
# 3 28.9990 93.9763 137.0109 0.0000 0.0000 0.0000
# 4 0.0000 0.0000 0.0000 24.8607 0.0000 0.0000
# 5 0.0000 0.0000 0.0000 0.0000 21.4762 0.0000
# 6 0.0000 0.0000 0.0000 0.0000 0.0000 17.4198
#
#
#
# Elastic Compliance Matrix: (Units=1/GPa)
#
#
# Indices 1 2 3 4 5 6 
#
# 1 0.338331 -0.046088 -0.039997 0.000000 0.000000 0.000000
# 2 -0.046088 0.018701 -0.003072 0.000000 0.000000 0.000000
# 3 -0.039997 -0.003072 0.017871 0.000000 0.000000 0.000000
# 4 0.000000 0.000000 0.000000 0.040224 0.000000 0.000000
# 5 0.000000 0.000000 0.000000 0.000000 0.046563 0.000000
# 6 0.000000 0.000000 0.000000 0.000000 0.000000 0.057406
#
#
# Mechanical properties :
#
#
# Convention : Reuss Voigt Hill
#
# Bulk Modulus (GPa) = 5.08679 66.69099 35.88889
# Shear Modulus (GPa) = 6.55359 21.99961 14.27660
#
# Velocity S-wave (km/s) = 2.04257 3.74236 3.01474
# Velocity P-wave (km/s) = 2.96667 7.81856 5.91317
#
# Compressibility (1/GPa) = 0.19658770
#
# Stress axis : x y z
#
# Youngs Moduli (GPa) = 2.95569 53.47341 55.95510
#
# Poissons Ratio (x) = 2.46451 2.23804
# Poissons Ratio (y) = 0.13622 0.17190
# Poissons Ratio (z) = 0.11822 0.16428
#
# Static dielectric constant tensor:
#      x y z
#    x 1.530070 0.000000 0.000000 
#    y 0.000000 1.504130 0.000000 
#    z 0.000000 0.000000 1.523540 
# 
# From -- ./inp_files/59892.got.cif
#   From: 2010.05.17/outbox.cif.g08.bks.cpg/sg63_30_cif.got.tgz:59892.got - 2010.06.03 15:47:04.
