data_PCOD9469314
_publ_section_title
;
Structure prediction by ZEFSAII (Michael W. Deem and Ramdas Pophale) SiO2 
 PCOD9469314
Probable space group: C M C M
;
_chemical_formula_sum "Si O2"
_cell_formula_units_Z 88
_cell_length_a 21.444858
_cell_length_b 20.464064
_cell_length_c 9.243723
_cell_angle_alpha 90.000000
_cell_angle_beta 90.000000
_cell_angle_gamma 90.000000
_cell_volume 4056.598101
_symmetry_space_group_name_H-M "C M C M"
_symmetry_group_IT_number 63
_symmetry_cell_setting 'orthorhombic'
loop_
_space_group_symop_operation_xyz
x,y,z
-x,-y,1/2+z
x,-y,-z
-x,y,1/2-z
-x,-y,-z
x,y,1/2-z
-x,y,z
x,-y,1/2+z
1/2+x,1/2+y,z
1/2-x,1/2-y,1/2+z
1/2+x,1/2-y,-z
1/2-x,1/2+y,1/2-z
1/2-x,1/2-y,-z
1/2+x,1/2+y,1/2-z
1/2-x,1/2+y,z
1/2+x,1/2-y,1/2+z
loop_
_atom_site_type_symbol
_atom_site_label
_atom_site_fract_x
_atom_site_fract_y
_atom_site_fract_z
Si Si1 0.500000 0.928550 0.925814
Si Si2 0.400154 0.566130 0.083715
Si Si3 0.070676 0.319760 0.082904
Si Si4 0.748977 0.314788 0.409281
Si Si5 0.104035 0.192721 0.912674
Si Si6 0.747274 0.935736 0.585351
O O1 0.500000 0.931161 0.750000
O O2 0.558698 0.885642 0.988799
O O3 0.500000 0.000000 0.000000
O O4 0.420664 0.564897 0.250000
O O5 0.323519 0.566342 0.087950
O O6 0.418142 0.500000 0.000000
O O7 0.422778 0.631928 0.003541
O O8 0.089535 0.332497 0.250000
O O9 0.000000 0.292433 0.091465
O O10 0.104920 0.261268 0.999262
O O11 0.775487 0.306189 0.250000
O O12 0.750000 0.250000 0.500000
O O13 0.675720 0.328681 0.394175
O O14 0.777699 0.373716 0.498420
O O15 0.077694 0.201058 0.750000
O O16 0.725999 0.935793 0.750000
O O17 0.728880 0.000000 0.500000
#
# Coordination Sequence:
#
# PCOD9469314 Si02
#       6
#     8  16  16  16  16  16
#     4  10  18  32  54  80 107 132 163 204 246 294
#     4   9  16  26  42  65  93 124 161 203 242 283
#     4   9  19  33  51  77 103 130 164 201 246 297
#     4  10  20  32  47  70  98 130 168 206 247 297
#     4  10  19  31  49  72  99 131 166 206 251 298
#     4   9  16  27  44  65  89 119 156 200 244 284
#
# _framework density 21.693052999999999
#
# number of rings (size 3 to 8) (size 9 to 14) (size 15 to 20)
#    0.545    2.000    0.000    3.273    0.000    6.545 
#    0.000    0.000    0.000    1.636    0.000    0.000 
#    0.000    0.000    0.000    0.000    0.000    0.000 
#
# Total GULP energy -245225.798788 kJ/mol
# GULP energy per Si atom -5573.313609 kJ/mol
# Density = 2.164368 g / cm^3
# Si number density = 21.693053 Si / 1000 Ang^3
#
#
#
# Elastic Constant Matrix: (Units=GPa)
#
#
# Indices 1 2 3 4 5 6 
#
# 1 34.7054 -13.4227 -2.3990 0.0000 0.0000 0.0000
# 2 -13.4227 215.1815 142.3171 0.0000 0.0000 0.0000
# 3 -2.3990 142.3171 271.7721 0.0000 0.0000 0.0000
# 4 0.0000 0.0000 0.0000 40.8541 0.0000 0.0000
# 5 0.0000 0.0000 0.0000 0.0000 5.6679 0.0000
# 6 0.0000 0.0000 0.0000 0.0000 0.0000 17.7529
#
#
#
# Elastic Compliance Matrix: (Units=1/GPa)
#
#
# Indices 1 2 3 4 5 6 
#
# 1 0.029734 0.002572 -0.001084 0.000000 0.000000 0.000000
# 2 0.002572 0.007332 -0.003817 0.000000 0.000000 0.000000
# 3 -0.001084 -0.003817 0.005669 0.000000 0.000000 0.000000
# 4 0.000000 0.000000 0.000000 0.024477 0.000000 0.000000
# 5 0.000000 0.000000 0.000000 0.000000 0.176431 0.000000
# 6 0.000000 0.000000 0.000000 0.000000 0.000000 0.056329
#
#
# Mechanical properties :
#
#
# Convention : Reuss Voigt Hill
#
# Bulk Modulus (GPa) = 26.26330 86.07220 56.16775
# Shear Modulus (GPa) = 15.75684 39.19922 27.47803
#
# Velocity S-wave (km/s) = 2.69802 4.25549 3.56290
# Velocity P-wave (km/s) = 4.67320 7.99431 6.54782
#
# Compressibility (1/GPa) = 0.03807594
#
# Stress axis : x y z
#
# Youngs Moduli (GPa) = 33.63187 136.38755 176.40698
#
# Poissons Ratio (x) = -0.35078 0.19129
# Poissons Ratio (y) = -0.08650 0.67331
# Poissons Ratio (z) = 0.03647 0.52057
#
# Static dielectric constant tensor:
#      x y z
#    x 2.061450 0.000000 0.000000 
#    y 0.000000 1.730190 0.000000 
#    z 0.000000 0.000000 1.783740 
# 
# From -- ./inp_files/14395.got.cif
#   From: 2010.05.17/outbox.cif.g08.bks.cpg/sg63_8_cif.got.tgz:14395.got - 2010.06.03 15:47:04.
