data_PCOD9469617
_publ_section_title
;
Structure prediction by ZEFSAII (Michael W. Deem and Ramdas Pophale) SiO2 
 PCOD9469617
Probable space group: C M C M
;
_chemical_formula_sum "Si O2"
_cell_formula_units_Z 96
_cell_length_a 7.312923
_cell_length_b 31.199602
_cell_length_c 19.794656
_cell_angle_alpha 90.000000
_cell_angle_beta 90.000000
_cell_angle_gamma 90.000000
_cell_volume 4516.354395
_symmetry_space_group_name_H-M "C M C M"
_symmetry_group_IT_number 63
_symmetry_cell_setting 'orthorhombic'
loop_
_space_group_symop_operation_xyz
x,y,z
-x,-y,1/2+z
x,-y,-z
-x,y,1/2-z
-x,-y,-z
x,y,1/2-z
-x,y,z
x,-y,1/2+z
1/2+x,1/2+y,z
1/2-x,1/2-y,1/2+z
1/2+x,1/2-y,-z
1/2-x,1/2+y,1/2-z
1/2-x,1/2-y,-z
1/2+x,1/2+y,1/2-z
1/2-x,1/2+y,z
1/2+x,1/2-y,1/2+z
loop_
_atom_site_type_symbol
_atom_site_label
_atom_site_fract_x
_atom_site_fract_y
_atom_site_fract_z
Si Si1 0.722494 0.705925 0.326880
Si Si2 0.279512 0.196279 0.673595
Si Si3 0.276162 0.371022 0.578115
Si Si4 0.277788 0.448505 0.826860
Si Si5 0.212166 0.119310 0.573829
Si Si6 0.723094 0.453728 0.173071
O O1 0.777137 0.694749 0.250000
O O2 0.500000 0.705805 0.327169
O O3 0.779282 0.754883 0.340675
O O4 0.783156 0.671237 0.381280
O O5 0.219739 0.184896 0.750000
O O6 0.500000 0.196160 0.673856
O O7 0.220037 0.162042 0.618706
O O8 0.500000 0.369979 0.578232
O O9 0.219238 0.412940 0.620036
O O10 0.212435 0.373304 0.500921
O O11 0.221696 0.438124 0.750000
O O12 0.500000 0.448258 0.827032
O O13 0.222280 0.497339 0.842035
O O14 0.289685 0.080705 0.618980
O O15 0.000000 0.108033 0.563258
O O16 0.779232 0.443213 0.250000
O O17 0.500000 0.452835 0.173244
#
# Coordination Sequence:
#
# PCOD9469617 Si02
#       6
#    16  16  16  16  16  16
#     4   8  14  26  43  60  80 109 145 184 218 244
#     4   9  18  32  48  63  80 109 149 184 211 246
#     4   9  16  24  37  61  89 114 141 173 213 260
#     4   8  13  22  37  57  83 115 147 177 209 247
#     4  10  19  28  41  65  95 119 136 166 216 263
#     4   8  14  24  37  55  82 115 145 172 207 249
#
# _framework density 21.256083
#
# number of rings (size 3 to 8) (size 9 to 14) (size 15 to 20)
#    0.000    3.333    0.000    3.000    0.000    4.333 
#    0.000    3.333    0.000    0.000    0.000    2.333 
#    0.000    3.333    0.000    0.333    0.000    0.000 
#
# Total GULP energy -267947.635013 kJ/mol
# GULP energy per Si atom -5582.242396 kJ/mol
# Density = 2.120770 g / cm^3
# Si number density = 21.256083 Si / 1000 Ang^3
#
#
#
# Elastic Constant Matrix: (Units=GPa)
#
#
# Indices 1 2 3 4 5 6 
#
# 1 82.4953 -5.4505 -0.6774 0.0000 0.0000 0.0000
# 2 -5.4505 152.2516 146.6102 0.0000 0.0000 0.0000
# 3 -0.6774 146.6102 207.5265 0.0000 0.0000 0.0000
# 4 0.0000 0.0000 0.0000 -11.1026 0.0000 0.0000
# 5 0.0000 0.0000 0.0000 0.0000 -3.6844 0.0000
# 6 0.0000 0.0000 0.0000 0.0000 0.0000 0.7801
#
#
#
# Elastic Compliance Matrix: (Units=1/GPa)
#
#
# Indices 1 2 3 4 5 6 
#
# 1 0.012197 0.001246 -0.000840 0.000000 0.000000 0.000000
# 2 0.001246 0.020671 -0.014599 0.000000 0.000000 0.000000
# 3 -0.000840 -0.014599 0.015130 0.000000 0.000000 0.000000
# 4 0.000000 0.000000 0.000000 -0.090069 0.000000 0.000000
# 5 0.000000 0.000000 0.000000 0.000000 -0.271411 0.000000
# 6 0.000000 0.000000 0.000000 0.000000 0.000000 1.281903
#
#
# Mechanical properties :
#
#
# Convention : Reuss Voigt Hill
#
# Bulk Modulus (GPa) = 50.99281 80.35978 65.67630
# Shear Modulus (GPa) = 4.98333 17.31801 11.15067
#
# Velocity S-wave (km/s) = 1.53281 2.85745 2.29287
# Velocity P-wave (km/s) = 5.21292 6.98386 6.16234
#
# Compressibility (1/GPa) = 0.01961061
#
# Stress axis : x y z
#
# Youngs Moduli (GPa) = 81.98525 48.37691 66.09468
#
# Poissons Ratio (x) = -0.06027 0.05554
# Poissons Ratio (y) = -0.10214 0.96494
# Poissons Ratio (z) = 0.06890 0.70627
#
# Static dielectric constant tensor:
#      x y z
#    x 1.876070 0.000000 0.000000 
#    y 0.000000 1.726990 0.000000 
#    z 0.000000 0.000000 1.724610 
# 
# From -- ./inp_files/42700.got.cif
#   From: 2010.05.17/outbox.cif.g08.bks.cpg/sg63_22_cif.got.tgz:42700.got - 2010.06.03 15:47:04.
