data_PCOD9469246
_publ_section_title
;
Structure prediction by ZEFSAII (Michael W. Deem and Ramdas Pophale) SiO2 
 PCOD9469246
Probable space group: C M C M
;
_chemical_formula_sum "Si O2"
_cell_formula_units_Z 88
_cell_length_a 20.321304
_cell_length_b 31.160488
_cell_length_c 8.531358
_cell_angle_alpha 90.000000
_cell_angle_beta 90.000000
_cell_angle_gamma 90.000000
_cell_volume 5402.241438
_symmetry_space_group_name_H-M "C M C M"
_symmetry_group_IT_number 63
_symmetry_cell_setting 'orthorhombic'
loop_
_space_group_symop_operation_xyz
x,y,z
-x,-y,1/2+z
x,-y,-z
-x,y,1/2-z
-x,-y,-z
x,y,1/2-z
-x,y,z
x,-y,1/2+z
1/2+x,1/2+y,z
1/2-x,1/2-y,1/2+z
1/2+x,1/2-y,-z
1/2-x,1/2+y,1/2-z
1/2-x,1/2-y,-z
1/2+x,1/2+y,1/2-z
1/2-x,1/2+y,z
1/2+x,1/2-y,1/2+z
loop_
_atom_site_type_symbol
_atom_site_label
_atom_site_fract_x
_atom_site_fract_y
_atom_site_fract_z
Si Si1 0.710317 0.707963 0.560844
Si Si2 0.926642 0.765253 0.936497
Si Si3 0.573823 0.169667 0.064803
Si Si4 0.000000 0.451095 0.062854
Si Si5 0.140597 0.452104 0.934950
Si Si6 0.298111 0.872170 0.066469
O O1 0.710261 0.709880 0.750000
O O2 0.750000 0.750000 0.500000
O O3 0.636378 0.708945 0.495328
O O4 0.746665 0.663995 0.511504
O O5 0.920069 0.756709 0.750000
O O6 0.000000 0.784079 0.961728
O O7 0.924606 0.720373 0.029568
O O8 0.585177 0.161675 0.250000
O O9 0.500000 0.154781 0.024524
O O10 0.631229 0.149599 0.963379
O O11 0.000000 0.449720 0.250000
O O12 0.000000 0.500000 0.000000
O O13 0.070237 0.435064 0.000516
O O14 0.134285 0.454923 0.750000
O O15 0.151994 0.500000 0.000000
O O16 0.196220 0.417915 0.981761
O O17 0.287685 0.879636 0.250000
#
# Coordination Sequence:
#
# PCOD9469246 Si02
#       6
#    16  16  16   8  16  16
#     4  11  22  35  53  75 104 136 171 212 256 305
#     4  10  20  34  52  73 100 135 173 212 255 301
#     4  10  20  32  47  69  97 131 174 216 256 302
#     4  10  18  32  52  72  96 128 166 212 260 304
#     4  11  22  37  54  72  97 128 167 213 258 307
#     4  11  23  36  51  73  99 133 171 212 260 307
#
# _framework density 16.289534
#
# number of rings (size 3 to 8) (size 9 to 14) (size 15 to 20)
#    0.000    1.455    1.818    5.727    1.273    4.364 
#    0.000    0.000    0.000    0.000    0.000    0.000 
#    0.000    0.727    0.000    2.364    0.000    3.455 
#
# Total GULP energy -245637.038178 kJ/mol
# GULP energy per Si atom -5582.659959 kJ/mol
# Density = 1.625246 g / cm^3
# Si number density = 16.289534 Si / 1000 Ang^3
#
#
#
# Elastic Constant Matrix: (Units=GPa)
#
#
# Indices 1 2 3 4 5 6 
#
# 1 91.0756 52.7970 21.0200 0.0000 0.0000 0.0000
# 2 52.7970 92.7230 25.7332 0.0000 0.0000 0.0000
# 3 21.0200 25.7332 74.0694 0.0000 0.0000 0.0000
# 4 0.0000 0.0000 0.0000 23.3408 0.0000 0.0000
# 5 0.0000 0.0000 0.0000 0.0000 23.6177 0.0000
# 6 0.0000 0.0000 0.0000 0.0000 0.0000 28.1269
#
#
#
# Elastic Compliance Matrix: (Units=1/GPa)
#
#
# Indices 1 2 3 4 5 6 
#
# 1 0.016554 -0.008989 -0.001575 0.000000 0.000000 0.000000
# 2 -0.008989 0.016817 -0.003291 0.000000 0.000000 0.000000
# 3 -0.001575 -0.003291 0.015091 0.000000 0.000000 0.000000
# 4 0.000000 0.000000 0.000000 0.042843 0.000000 0.000000
# 5 0.000000 0.000000 0.000000 0.000000 0.042341 0.000000
# 6 0.000000 0.000000 0.000000 0.000000 0.000000 0.035553
#
#
# Mechanical properties :
#
#
# Convention : Reuss Voigt Hill
#
# Bulk Modulus (GPa) = 48.18945 50.77429 49.48187
# Shear Modulus (GPa) = 24.53046 25.57160 25.05103
#
# Velocity S-wave (km/s) = 3.88481 3.96639 3.92581
# Velocity P-wave (km/s) = 7.05476 7.22592 7.14085
#
# Compressibility (1/GPa) = 0.02075143
#
# Stress axis : x y z
#
# Youngs Moduli (GPa) = 60.40691 59.46467 66.26319
#
# Poissons Ratio (x) = 0.53453 0.10436
# Poissons Ratio (y) = 0.54300 0.21810
# Poissons Ratio (z) = 0.09514 0.19573
#
# Static dielectric constant tensor:
#      x y z
#    x 1.556470 0.000000 0.000000 
#    y 0.000000 1.568680 0.000000 
#    z 0.000000 0.000000 1.552310 
# 
# From -- ./inp_files/6849.got.cif
#   From: 2010.05.17/outbox.cif.g08.bks.cpg/sg63_4_cif.got.tgz:6849.got - 2010.06.03 15:47:04.
