data_PCOD9469406
_publ_section_title
;
Structure prediction by ZEFSAII (Michael W. Deem and Ramdas Pophale) SiO2 
 PCOD9469406
Probable space group: C M C M
;
_chemical_formula_sum "Si O2"
_cell_formula_units_Z 128
_cell_length_a 19.935023
_cell_length_b 20.060749
_cell_length_c 17.672508
_cell_angle_alpha 90.000000
_cell_angle_beta 90.000000
_cell_angle_gamma 90.000000
_cell_volume 7067.439054
_symmetry_space_group_name_H-M "C M C M"
_symmetry_group_IT_number 63
_symmetry_cell_setting 'orthorhombic'
loop_
_space_group_symop_operation_xyz
x,y,z
-x,-y,1/2+z
x,-y,-z
-x,y,1/2-z
-x,-y,-z
x,y,1/2-z
-x,y,z
x,-y,1/2+z
1/2+x,1/2+y,z
1/2-x,1/2-y,1/2+z
1/2+x,1/2-y,-z
1/2-x,1/2+y,1/2-z
1/2-x,1/2-y,-z
1/2+x,1/2+y,1/2-z
1/2-x,1/2+y,z
1/2+x,1/2-y,1/2+z
loop_
_atom_site_type_symbol
_atom_site_label
_atom_site_fract_x
_atom_site_fract_y
_atom_site_fract_z
Si Si1 0.801629 0.243524 0.570225
Si Si2 0.804877 0.664434 0.658699
Si Si3 0.921640 0.147150 0.958682
Si Si4 0.723461 0.021467 0.658385
Si Si5 0.617225 0.606036 0.121712
Si Si6 0.725105 0.875476 0.659649
Si Si7 0.378893 0.540940 0.838295
Si Si8 0.571246 0.250283 0.839367
O O1 0.750000 0.250000 0.500000
O O2 0.764471 0.192204 0.626730
O O3 0.872967 0.211041 0.549975
O O4 0.804192 0.314509 0.612247
O O5 0.801920 0.667309 0.750000
O O6 0.815479 0.587825 0.635392
O O7 0.864229 0.711964 0.629926
O O8 0.913724 0.096833 0.888408
O O9 0.000000 0.163792 0.969255
O O10 0.893561 0.108274 0.031973
O O11 0.723757 0.018644 0.750000
O O12 0.800960 0.033599 0.636294
O O13 0.699352 0.948532 0.634333
O O14 0.694570 0.619327 0.145276
O O15 0.594146 0.534450 0.151912
O O16 0.578961 0.670802 0.151668
O O17 0.715085 0.865831 0.750000
O O18 0.380403 0.558806 0.750000
O O19 0.570455 0.235678 0.750000
O O20 0.500000 0.228762 0.872535
#
# Coordination Sequence:
#
# PCOD9469406 Si02
#       8
#    16  16  16  16  16  16  16  16
#     4  12  22  37  56  82 109 146 193 238 284 340
#     4  10  18  33  56  77 106 145 186 231 284 336
#     4  12  26  40  55  80 119 160 195 236 289 344
#     4   8  16  31  54  81 105 135 179 232 282 325
#     4  11  20  36  57  81 115 150 194 236 289 340
#     4  10  19  34  60  88 111 140 187 244 290 334
#     4  10  21  37  57  82 114 155 199 235 275 339
#     4  10  19  30  50  82 114 145 184 233 291 346
#
# _framework density 18.111228000000001
#
# number of rings (size 3 to 8) (size 9 to 14) (size 15 to 20)
#    0.000    1.625    3.750    3.000    0.000    2.250 
#    0.000    0.625    0.000    0.750    0.000    1.750 
#    0.000    4.000    0.000    0.000    0.000    0.000 
#
# Total GULP energy -357004.827569 kJ/mol
# GULP energy per Si atom -5578.200431 kJ/mol
# Density = 1.807001 g / cm^3
# Si number density = 18.111228 Si / 1000 Ang^3
#
#
#
# Elastic Constant Matrix: (Units=GPa)
#
#
# Indices 1 2 3 4 5 6 
#
# 1 48.5262 24.8392 10.9415 0.0000 0.0000 0.0000
# 2 24.8392 117.0343 23.2762 0.0000 0.0000 0.0000
# 3 10.9415 23.2762 59.7289 0.0000 0.0000 0.0000
# 4 0.0000 0.0000 0.0000 5.2698 0.0000 0.0000
# 5 0.0000 0.0000 0.0000 0.0000 9.0093 0.0000
# 6 0.0000 0.0000 0.0000 0.0000 0.0000 13.1138
#
#
#
# Elastic Compliance Matrix: (Units=1/GPa)
#
#
# Indices 1 2 3 4 5 6 
#
# 1 0.023474 -0.004474 -0.002557 0.000000 0.000000 0.000000
# 2 -0.004474 0.010115 -0.003122 0.000000 0.000000 0.000000
# 3 -0.002557 -0.003122 0.018427 0.000000 0.000000 0.000000
# 4 0.000000 0.000000 0.000000 0.189760 0.000000 0.000000
# 5 0.000000 0.000000 0.000000 0.000000 0.110997 0.000000
# 6 0.000000 0.000000 0.000000 0.000000 0.000000 0.076255
#
#
# Mechanical properties :
#
#
# Convention : Reuss Voigt Hill
#
# Bulk Modulus (GPa) = 31.53476 38.15590 34.84533
# Shear Modulus (GPa) = 10.87183 16.56076 13.71629
#
# Velocity S-wave (km/s) = 2.45272 3.02717 2.75496
# Velocity P-wave (km/s) = 5.04685 5.77336 5.42228
#
# Compressibility (1/GPa) = 0.03171104
#
# Stress axis : x y z
#
# Youngs Moduli (GPa) = 42.60069 98.86381 54.26702
#
# Poissons Ratio (x) = 0.44227 0.13875
# Poissons Ratio (y) = 0.19058 0.16944
# Poissons Ratio (z) = 0.10892 0.30868
#
# Static dielectric constant tensor:
#      x y z
#    x 1.644640 0.000000 0.000000 
#    y 0.000000 1.649040 0.000000 
#    z 0.000000 0.000000 1.676260 
# 
# From -- ./inp_files/48420.got.cif
#   From: 2010.05.17/outbox.cif.g08.bks.cpg/sg63_25_cif.got.tgz:48420.got - 2010.06.03 15:47:04.
