data_PCOD9469022
_publ_section_title
;
Structure prediction by ZEFSAII (Michael W. Deem and Ramdas Pophale) SiO2 
 PCOD9469022
Probable space group: C M C M
;
_chemical_formula_sum "Si O2"
_cell_formula_units_Z 64
_cell_length_a 7.827910
_cell_length_b 21.997708
_cell_length_c 21.323305
_cell_angle_alpha 90.000000
_cell_angle_beta 90.000000
_cell_angle_gamma 90.000000
_cell_volume 3671.789500
_symmetry_space_group_name_H-M "C M C M"
_symmetry_group_IT_number 63
_symmetry_cell_setting 'orthorhombic'
loop_
_space_group_symop_operation_xyz
x,y,z
-x,-y,1/2+z
x,-y,-z
-x,y,1/2-z
-x,-y,-z
x,y,1/2-z
-x,y,z
x,-y,1/2+z
1/2+x,1/2+y,z
1/2-x,1/2-y,1/2+z
1/2+x,1/2-y,-z
1/2-x,1/2+y,1/2-z
1/2-x,1/2-y,-z
1/2+x,1/2+y,1/2-z
1/2-x,1/2+y,z
1/2+x,1/2-y,1/2+z
loop_
_atom_site_type_symbol
_atom_site_label
_atom_site_fract_x
_atom_site_fract_y
_atom_site_fract_z
Si Si1 0.205752 0.171031 0.179089
Si Si2 0.000000 0.898478 0.513466
Si Si3 0.698071 0.805985 0.955586
Si Si4 0.808167 0.470896 0.676126
Si Si5 0.500000 0.518201 0.600165
O O1 0.258879 0.189417 0.250000
O O2 0.277943 0.206489 0.119033
O O3 0.261021 0.100596 0.170664
O O4 0.000000 0.173362 0.176547
O O5 0.832356 0.859168 0.528643
O O6 0.000000 0.958358 0.556226
O O7 0.000000 0.922497 0.442626
O O8 0.500000 0.821971 0.966398
O O9 0.750000 0.750000 0.000000
O O10 0.804762 0.484345 0.750000
O O11 0.668719 0.511034 0.641574
O O12 0.000000 0.479755 0.651849
#
# Coordination Sequence:
#
# PCOD9469022 Si02
#       5
#    16   8  16  16   8
#     4  10  18  32  55  84 116 145 187 243 293 338
#     4  11  24  38  52  88 110 161 194 222 296 337
#     4  12  22  38  61  82 117 154 196 241 287 345
#     4  10  18  30  53  82 110 146 188 234 291 341
#     4  11  21  36  56  76 131 143 184 240 278 365
#
# _framework density 17.430192999999999
#
# number of rings (size 3 to 8) (size 9 to 14) (size 15 to 20)
#    0.000    1.250    6.250    1.125    0.000    2.500 
#    0.000    2.500    0.000    3.000    0.000    3.500 
#    0.000    0.000    0.000    0.000    0.000    0.000 
#
# Total GULP energy -178560.375740 kJ/mol
# GULP energy per Si atom -5580.011742 kJ/mol
# Density = 1.739052 g / cm^3
# Si number density = 17.430193 Si / 1000 Ang^3
#
#
#
# Elastic Constant Matrix: (Units=GPa)
#
#
# Indices 1 2 3 4 5 6 
#
# 1 148.3566 27.6518 51.4819 0.0000 0.0000 0.0000
# 2 27.6518 37.2710 38.7799 0.0000 0.0000 0.0000
# 3 51.4819 38.7799 128.4383 0.0000 0.0000 0.0000
# 4 0.0000 0.0000 0.0000 34.9833 0.0000 0.0000
# 5 0.0000 0.0000 0.0000 0.0000 26.5277 0.0000
# 6 0.0000 0.0000 0.0000 0.0000 0.0000 1.4696
#
#
#
# Elastic Compliance Matrix: (Units=1/GPa)
#
#
# Indices 1 2 3 4 5 6 
#
# 1 0.008198 -0.003883 -0.002113 0.000000 0.000000 0.000000
# 2 -0.003883 0.040960 -0.010811 0.000000 0.000000 0.000000
# 3 -0.002113 -0.010811 0.011897 0.000000 0.000000 0.000000
# 4 0.000000 0.000000 0.000000 0.028585 0.000000 0.000000
# 5 0.000000 0.000000 0.000000 0.000000 0.037696 0.000000
# 6 0.000000 0.000000 0.000000 0.000000 0.000000 0.680480
#
#
# Mechanical properties :
#
#
# Convention : Reuss Voigt Hill
#
# Bulk Modulus (GPa) = 36.44282 61.09923 48.77102
# Shear Modulus (GPa) = 5.87836 25.67292 15.77564
#
# Velocity S-wave (km/s) = 1.83843 3.84200 3.01171
# Velocity P-wave (km/s) = 5.04576 7.40345 6.33525
#
# Compressibility (1/GPa) = 0.02744025
#
# Stress axis : x y z
#
# Youngs Moduli (GPa) = 121.98627 24.41420 84.05387
#
# Poissons Ratio (x) = 0.09480 0.17765
# Poissons Ratio (y) = 0.47366 0.90869
# Poissons Ratio (z) = 0.25782 0.26394
#
# Static dielectric constant tensor:
#      x y z
#    x 1.605100 0.000000 0.000000 
#    y 0.000000 1.550160 0.000000 
#    z 0.000000 0.000000 1.639170 
# 
# From -- ./inp_files/50631.got.cif
#   From: 2010.05.17/outbox.cif.g08.bks.cpg/sg63_26_cif.got.tgz:50631.got - 2010.06.03 15:47:04.
