data_PCOD9469909
_publ_section_title
;
Structure prediction by ZEFSAII (Michael W. Deem and Ramdas Pophale) SiO2 
 PCOD9469909
Probable space group: C M C M
;
_chemical_formula_sum "Si O2"
_cell_formula_units_Z 80
_cell_length_a 18.702649
_cell_length_b 20.098321
_cell_length_c 11.505897
_cell_angle_alpha 90.000000
_cell_angle_beta 90.000000
_cell_angle_gamma 90.000000
_cell_volume 4324.972830
_symmetry_space_group_name_H-M "C M C M"
_symmetry_group_IT_number 63
_symmetry_cell_setting 'orthorhombic'
loop_
_space_group_symop_operation_xyz
x,y,z
-x,-y,1/2+z
x,-y,-z
-x,y,1/2-z
-x,-y,-z
x,y,1/2-z
-x,y,z
x,-y,1/2+z
1/2+x,1/2+y,z
1/2-x,1/2-y,1/2+z
1/2+x,1/2-y,-z
1/2-x,1/2+y,1/2-z
1/2-x,1/2-y,-z
1/2+x,1/2+y,1/2-z
1/2-x,1/2+y,z
1/2+x,1/2-y,1/2+z
loop_
_atom_site_type_symbol
_atom_site_label
_atom_site_fract_x
_atom_site_fract_y
_atom_site_fract_z
Si Si1 0.417235 0.181139 0.250000
Si Si2 0.583408 0.657909 0.750000
Si Si3 0.321539 0.762987 0.380295
Si Si4 0.296405 0.847621 0.921610
Si Si5 0.914514 0.847946 0.992883
Si Si6 0.821664 0.043971 0.382710
O O1 0.500000 0.162334 0.250000
O O2 0.413866 0.261678 0.250000
O O3 0.372162 0.154739 0.140923
O O4 0.500000 0.637484 0.750000
O O5 0.612139 0.635823 0.624453
O O6 0.346751 0.770964 0.250000
O O7 0.304868 0.832210 0.442583
O O8 0.250932 0.716183 0.380383
O O9 0.378979 0.721288 0.454459
O O10 0.250385 0.911726 0.890647
O O11 0.000000 0.843581 0.993832
O O12 0.885830 0.903231 0.904280
O O13 0.827072 0.016269 0.250000
O O14 0.822954 0.000000 0.500000
#
# Coordination Sequence:
#
# PCOD9469909 Si02
#       6
#     8   8  16  16  16  16
#     4  11  18  32  59  86 113 139 176 226 282 347
#     4   9  18  30  51  86 118 149 184 222 275 339
#     4  10  19  30  52  81 114 153 178 222 282 338
#     4  10  19  35  53  79 112 139 185 227 277 344
#     4  10  20  35  55  82 120 156 189 230 277 333
#     4  11  25  41  59  80 107 151 198 241 284 329
#
# _framework density 18.497226000000001
#
# number of rings (size 3 to 8) (size 9 to 14) (size 15 to 20)
#    0.000    1.800    4.000    1.800    1.400    2.800 
#    0.000    0.000    0.000    0.600    0.000    0.000 
#    0.000    0.000    0.000    0.000    0.000    0.000 
#
# Total GULP energy -222940.785730 kJ/mol
# GULP energy per Si atom -5573.519643 kJ/mol
# Density = 1.845513 g / cm^3
# Si number density = 18.497226 Si / 1000 Ang^3
#
#
#
# Elastic Constant Matrix: (Units=GPa)
#
#
# Indices 1 2 3 4 5 6 
#
# 1 106.5147 5.6417 22.1171 0.0000 0.0000 0.0000
# 2 5.6417 11.9967 23.9525 0.0000 0.0000 0.0000
# 3 22.1171 23.9525 155.0926 0.0000 0.0000 0.0000
# 4 0.0000 0.0000 0.0000 22.3467 0.0000 0.0000
# 5 0.0000 0.0000 0.0000 0.0000 26.2304 0.0000
# 6 0.0000 0.0000 0.0000 0.0000 0.0000 7.1994
#
#
#
# Elastic Compliance Matrix: (Units=1/GPa)
#
#
# Indices 1 2 3 4 5 6 
#
# 1 0.009731 -0.002610 -0.000985 0.000000 0.000000 0.000000
# 2 -0.002610 0.121218 -0.018349 0.000000 0.000000 0.000000
# 3 -0.000985 -0.018349 0.009422 0.000000 0.000000 0.000000
# 4 0.000000 0.000000 0.000000 0.044749 0.000000 0.000000
# 5 0.000000 0.000000 0.000000 0.000000 0.038124 0.000000
# 6 0.000000 0.000000 0.000000 0.000000 0.000000 0.138901
#
#
# Mechanical properties :
#
#
# Convention : Reuss Voigt Hill
#
# Bulk Modulus (GPa) = 10.36442 41.89184 26.12813
# Shear Modulus (GPa) = 11.41047 25.94814 18.67930
#
# Velocity S-wave (km/s) = 2.48639 3.74948 3.18125
# Velocity P-wave (km/s) = 3.72267 6.43751 5.25832
#
# Compressibility (1/GPa) = 0.09648396
#
# Stress axis : x y z
#
# Youngs Moduli (GPa) = 102.76356 8.24957 106.13519
#
# Poissons Ratio (x) = 0.02154 0.10449
# Poissons Ratio (y) = 0.26826 1.94745
# Poissons Ratio (z) = 0.10118 0.15137
#
# Static dielectric constant tensor:
#      x y z
#    x 1.629350 0.000000 0.000000 
#    y 0.000000 1.637340 0.000000 
#    z 0.000000 0.000000 1.708990 
# 
# From -- ./inp_files/19459.got.cif
#   From: 2010.05.17/outbox.cif.g08.bks.cpg/sg63_10_cif.got.tgz:19459.got - 2010.06.03 15:47:04.
