data_PCOD9469219
_publ_section_title
;
Structure prediction by ZEFSAII (Michael W. Deem and Ramdas Pophale) SiO2 
 PCOD9469219
Probable space group: C M C M
;
_chemical_formula_sum "Si O2"
_cell_formula_units_Z 112
_cell_length_a 27.471645
_cell_length_b 11.743663
_cell_length_c 19.929892
_cell_angle_alpha 90.000000
_cell_angle_beta 90.000000
_cell_angle_gamma 90.000000
_cell_volume 6429.736734
_symmetry_space_group_name_H-M "C M C M"
_symmetry_group_IT_number 63
_symmetry_cell_setting 'orthorhombic'
loop_
_space_group_symop_operation_xyz
x,y,z
-x,-y,1/2+z
x,-y,-z
-x,y,1/2-z
-x,-y,-z
x,y,1/2-z
-x,y,z
x,-y,1/2+z
1/2+x,1/2+y,z
1/2-x,1/2-y,1/2+z
1/2+x,1/2-y,-z
1/2-x,1/2+y,1/2-z
1/2-x,1/2-y,-z
1/2+x,1/2+y,1/2-z
1/2-x,1/2+y,z
1/2+x,1/2-y,1/2+z
loop_
_atom_site_type_symbol
_atom_site_label
_atom_site_fract_x
_atom_site_fract_y
_atom_site_fract_z
Si Si1 0.305310 0.012642 0.910908
Si Si2 0.656436 0.497518 0.673497
Si Si3 0.445786 0.690375 0.987424
Si Si4 0.749375 0.151362 0.326336
Si Si5 0.347471 0.816747 0.492667
Si Si6 0.787550 0.154025 0.573929
Si Si7 0.054480 0.982783 0.887212
O O1 0.254931 0.064485 0.939938
O O2 0.287148 0.954651 0.842452
O O3 0.329955 0.911640 0.953492
O O4 0.340230 0.121814 0.920977
O O5 0.662168 0.539294 0.750000
O O6 0.695878 0.396349 0.665254
O O7 0.672051 0.591243 0.618819
O O8 0.600717 0.465010 0.659955
O O9 0.500000 0.741525 0.985559
O O10 0.442909 0.609063 0.052713
O O11 0.401813 0.777781 0.992507
O O12 0.441204 0.605513 0.924006
O O13 0.743242 0.190426 0.250000
O O14 0.736189 0.248813 0.379155
O O15 0.312086 0.710064 0.508700
O O16 0.000000 0.975581 0.857269
#
# Coordination Sequence:
#
# PCOD9469219 Si02
#       7
#    16  16  16  16  16  16  16
#     4   9  20  31  45  73 103 126 164 205 246 282
#     4  10  19  31  48  74  99 128 165 202 246 294
#     4   9  18  33  54  72  95 128 162 205 258 305
#     4   9  19  33  48  67  99 137 170 198 236 293
#     4  10  18  33  49  72 102 127 165 206 250 300
#     4  10  18  32  48  70 101 138 161 195 241 299
#     4   9  18  33  50  75  98 122 162 209 256 303
#
# _framework density 17.419063999999999
#
# number of rings (size 3 to 8) (size 9 to 14) (size 15 to 20)
#    0.000    2.571    1.429    1.714    2.000    0.857 
#    5.143    1.429    0.000    0.000    0.000    0.000 
#    0.000    1.429    0.000    0.000    0.000    0.000 
#
# Total GULP energy -311868.488652 kJ/mol
# GULP energy per Si atom -5569.080155 kJ/mol
# Density = 1.737942 g / cm^3
# Si number density = 17.419064 Si / 1000 Ang^3
#
#
#
# Elastic Constant Matrix: (Units=GPa)
#
#
# Indices 1 2 3 4 5 6 
#
# 1 137.8934 38.6796 24.8617 0.0000 0.0000 0.0000
# 2 38.6796 48.6216 16.5768 0.0000 0.0000 0.0000
# 3 24.8617 16.5768 41.9398 0.0000 0.0000 0.0000
# 4 0.0000 0.0000 0.0000 17.7489 0.0000 0.0000
# 5 0.0000 0.0000 0.0000 0.0000 21.0157 0.0000
# 6 0.0000 0.0000 0.0000 0.0000 0.0000 28.9819
#
#
#
# Elastic Compliance Matrix: (Units=1/GPa)
#
#
# Indices 1 2 3 4 5 6 
#
# 1 0.009674 -0.006635 -0.003112 0.000000 0.000000 0.000000
# 2 -0.006635 0.028321 -0.007261 0.000000 0.000000 0.000000
# 3 -0.003112 -0.007261 0.028558 0.000000 0.000000 0.000000
# 4 0.000000 0.000000 0.000000 0.056342 0.000000 0.000000
# 5 0.000000 0.000000 0.000000 0.000000 0.047583 0.000000
# 6 0.000000 0.000000 0.000000 0.000000 0.000000 0.034504
#
#
# Mechanical properties :
#
#
# Convention : Reuss Voigt Hill
#
# Bulk Modulus (GPa) = 30.73382 43.18790 36.96086
# Shear Modulus (GPa) = 20.01245 23.43842 21.72544
#
# Velocity S-wave (km/s) = 3.39319 3.67217 3.53543
# Velocity P-wave (km/s) = 5.74750 6.54424 6.15877
#
# Compressibility (1/GPa) = 0.03253745
#
# Stress axis : x y z
#
# Youngs Moduli (GPa) = 103.36703 35.30987 35.01593
#
# Poissons Ratio (x) = 0.23428 0.10898
# Poissons Ratio (y) = 0.68584 0.25424
# Poissons Ratio (z) = 0.32171 0.25637
#
# Static dielectric constant tensor:
#      x y z
#    x 1.606680 0.000000 0.000000 
#    y 0.000000 1.625340 0.000000 
#    z 0.000000 0.000000 1.611420 
# 
# From -- ./inp_files/58325.got.cif
#   From: 2010.05.17/outbox.cif.g08.bks.cpg/sg63_30_cif.got.tgz:58325.got - 2010.06.03 15:47:04.
