data_PCOD9469555
_publ_section_title
;
Structure prediction by ZEFSAII (Michael W. Deem and Ramdas Pophale) SiO2 
 PCOD9469555
Probable space group: C M C M
;
_chemical_formula_sum "Si O2"
_cell_formula_units_Z 96
_cell_length_a 8.234276
_cell_length_b 25.514855
_cell_length_c 24.389225
_cell_angle_alpha 90.000000
_cell_angle_beta 90.000000
_cell_angle_gamma 90.000000
_cell_volume 5124.087351
_symmetry_space_group_name_H-M "C M C M"
_symmetry_group_IT_number 63
_symmetry_cell_setting 'orthorhombic'
loop_
_space_group_symop_operation_xyz
x,y,z
-x,-y,1/2+z
x,-y,-z
-x,y,1/2-z
-x,-y,-z
x,y,1/2-z
-x,y,z
x,-y,1/2+z
1/2+x,1/2+y,z
1/2-x,1/2-y,1/2+z
1/2+x,1/2-y,-z
1/2-x,1/2+y,1/2-z
1/2-x,1/2-y,-z
1/2+x,1/2+y,1/2-z
1/2-x,1/2+y,z
1/2+x,1/2-y,1/2+z
loop_
_atom_site_type_symbol
_atom_site_label
_atom_site_fract_x
_atom_site_fract_y
_atom_site_fract_z
Si Si1 0.304222 0.106344 0.250000
Si Si2 0.191886 0.980383 0.059648
Si Si3 0.192546 0.427709 0.868937
Si Si4 0.192262 0.832569 0.943235
Si Si5 0.698429 0.765159 0.131701
Si Si6 0.691815 0.137333 0.561678
Si Si7 0.696457 0.273028 0.750000
O O1 0.500000 0.104820 0.250000
O O2 0.249177 0.079574 0.306508
O O3 0.249621 0.166595 0.250000
O O4 0.223900 0.918890 0.065013
O O5 0.000000 0.990731 0.061796
O O6 0.273978 0.015386 0.106219
O O7 0.252321 0.000000 0.000000
O O8 0.277015 0.384547 0.907409
O O9 0.000000 0.417231 0.870766
O O10 0.248862 0.782693 0.907829
O O11 0.000000 0.827324 0.953333
O O12 0.278849 0.838794 0.001361
O O13 0.500000 0.764829 0.131681
O O14 0.750711 0.820157 0.105899
O O15 0.752576 0.753976 0.193689
O O16 0.500000 0.129133 0.569366
O O17 0.500000 0.271952 0.750000
#
# Coordination Sequence:
#
# PCOD9469555 Si02
#       7
#     8  16  16  16  16  16   8
#     4  10  22  38  57  88 121 145 184 236 286 333
#     4  11  23  39  59  83 113 148 192 241 285 338
#     4  11  22  37  59  87 117 149 186 233 285 338
#     4  11  20  34  56  86 118 149 187 233 281 337
#     4   9  20  35  56  85 115 149 192 233 278 339
#     4  11  22  37  56  83 117 155 192 232 287 346
#     4  10  18  36  61  82 111 153 192 228 276 337
#
# _framework density 18.735043000000001
#
# number of rings (size 3 to 8) (size 9 to 14) (size 15 to 20)
#    0.000    1.500    3.333    2.500    0.000    1.333 
#    0.000    5.000    0.000    3.000    0.000    0.000 
#    0.000    0.000    0.000    0.000    0.000    0.000 
#
# Total GULP energy -268197.694039 kJ/mol
# GULP energy per Si atom -5587.451959 kJ/mol
# Density = 1.869240 g / cm^3
# Si number density = 18.735043 Si / 1000 Ang^3
#
#
#
# Elastic Constant Matrix: (Units=GPa)
#
#
# Indices 1 2 3 4 5 6 
#
# 1 10.7915 -11.0197 -4.3906 0.0000 0.0000 0.0000
# 2 -11.0197 119.6116 68.0340 0.0000 0.0000 0.0000
# 3 -4.3906 68.0340 147.0216 0.0000 0.0000 0.0000
# 4 0.0000 0.0000 0.0000 35.3978 0.0000 0.0000
# 5 0.0000 0.0000 0.0000 0.0000 11.5016 0.0000
# 6 0.0000 0.0000 0.0000 0.0000 0.0000 -1.3470
#
#
#
# Elastic Compliance Matrix: (Units=1/GPa)
#
#
# Indices 1 2 3 4 5 6 
#
# 1 0.102630 0.010467 -0.001779 0.000000 0.000000 0.000000
# 2 0.010467 0.012414 -0.005432 0.000000 0.000000 0.000000
# 3 -0.001779 -0.005432 0.009262 0.000000 0.000000 0.000000
# 4 0.000000 0.000000 0.000000 0.028250 0.000000 0.000000
# 5 0.000000 0.000000 0.000000 0.000000 0.086944 0.000000
# 6 0.000000 0.000000 0.000000 0.000000 0.000000 -0.742387
#
#
# Mechanical properties :
#
#
# Convention : Reuss Voigt Hill
#
# Bulk Modulus (GPa) = 7.64413 42.51913 25.08163
# Shear Modulus (GPa) = -10.73444 24.09722 6.68139
#
# Velocity S-wave (km/s) = -2.39626 3.59027 1.89050
# Velocity P-wave (km/s) = 1.88867 6.31909 4.26403
#
# Compressibility (1/GPa) = 0.13081936
#
# Stress axis : x y z
#
# Youngs Moduli (GPa) = 9.74370 80.55114 107.96405
#
# Poissons Ratio (x) = -0.84312 0.19203
# Poissons Ratio (y) = -0.10199 0.58648
# Poissons Ratio (z) = 0.01733 0.43757
#
# Static dielectric constant tensor:
#      x y z
#    x 1.643800 0.000000 0.000000 
#    y 0.000000 1.615620 0.000000 
#    z 0.000000 0.000000 1.645090 
# 
# From -- ./inp_files/60086.got.cif
#   From: 2010.05.17/outbox.cif.g08.bks.cpg/sg63_31_cif.got.tgz:60086.got - 2010.06.03 15:47:04.
