data_PCOD9469215
_publ_section_title
;
Structure prediction by ZEFSAII (Michael W. Deem and Ramdas Pophale) SiO2 
 PCOD9469215
Probable space group: C M C M
;
_chemical_formula_sum "Si O2"
_cell_formula_units_Z 104
_cell_length_a 12.304160
_cell_length_b 23.047324
_cell_length_c 22.280489
_cell_angle_alpha 90.000000
_cell_angle_beta 90.000000
_cell_angle_gamma 90.000000
_cell_volume 6318.255664
_symmetry_space_group_name_H-M "C M C M"
_symmetry_group_IT_number 63
_symmetry_cell_setting 'orthorhombic'
loop_
_space_group_symop_operation_xyz
x,y,z
-x,-y,1/2+z
x,-y,-z
-x,y,1/2-z
-x,-y,-z
x,y,1/2-z
-x,y,z
x,-y,1/2+z
1/2+x,1/2+y,z
1/2-x,1/2-y,1/2+z
1/2+x,1/2-y,-z
1/2-x,1/2+y,1/2-z
1/2-x,1/2-y,-z
1/2+x,1/2+y,1/2-z
1/2-x,1/2+y,z
1/2+x,1/2-y,1/2+z
loop_
_atom_site_type_symbol
_atom_site_label
_atom_site_fract_x
_atom_site_fract_y
_atom_site_fract_z
Si Si1 0.234821 0.981635 0.680667
Si Si2 0.869744 0.310668 0.453700
Si Si3 0.627572 0.864413 0.819588
Si Si4 0.796392 0.500000 0.000000
Si Si5 0.878653 0.071028 0.428033
Si Si6 0.235365 0.189595 0.077257
Si Si7 0.876116 0.430910 0.388393
O O1 0.202217 0.984973 0.750000
O O2 0.322103 0.928972 0.674093
O O3 0.140724 0.962400 0.634844
O O4 0.292602 0.040257 0.658035
O O5 0.820506 0.252152 0.425544
O O6 0.809404 0.318004 0.517642
O O7 0.849635 0.366249 0.411188
O O8 0.000000 0.306234 0.462366
O O9 0.642385 0.847352 0.750000
O O10 0.500000 0.866099 0.833098
O O11 0.689807 0.822471 0.865059
O O12 0.715349 0.546896 0.028949
O O13 0.865866 0.471045 0.052257
O O14 0.854952 0.139073 0.421144
O O15 0.000000 0.060825 0.450518
O O16 0.000000 0.432378 0.365838
#
# Coordination Sequence:
#
# PCOD9469215 Si02
#       7
#    16  16  16   8  16  16  16
#     4   9  19  33  50  74 102 130 165 207 252 303
#     4  10  20  33  50  73 102 135 169 204 250 303
#     4   9  17  31  52  76  99 127 164 206 253 300
#     4  10  18  32  46  74 100 128 158 202 246 300
#     4  10  19  31  50  72  98 133 169 208 249 291
#     4  10  19  33  50  72 103 133 170 209 250 292
#     4  10  19  31  50  74 101 129 160 201 252 303
#
# _framework density 16.460239000000001
#
# number of rings (size 3 to 8) (size 9 to 14) (size 15 to 20)
#    0.000    2.308    1.538    1.846    0.000    1.231 
#    0.000    0.769    0.000    2.308    0.000    0.000 
#    0.000    0.000    0.000    0.000    0.000    0.000 
#
# Total GULP energy -289897.346128 kJ/mol
# GULP energy per Si atom -5574.948964 kJ/mol
# Density = 1.642277 g / cm^3
# Si number density = 16.460239 Si / 1000 Ang^3
#
#
#
# Elastic Constant Matrix: (Units=GPa)
#
#
# Indices 1 2 3 4 5 6 
#
# 1 59.1130 24.6281 4.7165 0.0000 0.0000 0.0000
# 2 24.6281 82.1031 8.7343 0.0000 0.0000 0.0000
# 3 4.7165 8.7343 37.0133 0.0000 0.0000 0.0000
# 4 0.0000 0.0000 0.0000 21.6778 0.0000 0.0000
# 5 0.0000 0.0000 0.0000 0.0000 1.6908 0.0000
# 6 0.0000 0.0000 0.0000 0.0000 0.0000 14.3984
#
#
#
# Elastic Compliance Matrix: (Units=1/GPa)
#
#
# Indices 1 2 3 4 5 6 
#
# 1 0.019378 -0.005693 -0.001126 0.000000 0.000000 0.000000
# 2 -0.005693 0.014166 -0.002617 0.000000 0.000000 0.000000
# 3 -0.001126 -0.002617 0.027778 0.000000 0.000000 0.000000
# 4 0.000000 0.000000 0.000000 0.046130 0.000000 0.000000
# 5 0.000000 0.000000 0.000000 0.000000 0.591444 0.000000
# 6 0.000000 0.000000 0.000000 0.000000 0.000000 0.069452
#
#
# Mechanical properties :
#
#
# Convention : Reuss Voigt Hill
#
# Bulk Modulus (GPa) = 23.55706 28.26525 25.91115
# Shear Modulus (GPa) = 6.23930 16.89676 11.56803
#
# Velocity S-wave (km/s) = 1.94904 3.20741 2.65389
# Velocity P-wave (km/s) = 4.40540 5.56109 5.01664
#
# Compressibility (1/GPa) = 0.04245011
#
# Stress axis : x y z
#
# Youngs Moduli (GPa) = 51.60359 70.59164 35.99910
#
# Poissons Ratio (x) = 0.40189 0.04053
# Poissons Ratio (y) = 0.29378 0.09422
# Poissons Ratio (z) = 0.05810 0.18477
#
# Static dielectric constant tensor:
#      x y z
#    x 1.529340 0.000000 0.000000 
#    y 0.000000 1.546700 0.000000 
#    z 0.000000 0.000000 1.551340 
# 
# From -- ./inp_files/61787.got.cif
#   From: 2010.05.17/outbox.cif.g08.bks.cpg/sg63_31_cif.got.tgz:61787.got - 2010.06.03 15:47:04.
