data_PCOD9469363
_publ_section_title
;
Structure prediction by ZEFSAII (Michael W. Deem and Ramdas Pophale) SiO2 
 PCOD9469363
Probable space group: C M C M
;
_chemical_formula_sum "Si O2"
_cell_formula_units_Z 96
_cell_length_a 20.913115
_cell_length_b 14.758860
_cell_length_c 15.806838
_cell_angle_alpha 90.000000
_cell_angle_beta 90.000000
_cell_angle_gamma 90.000000
_cell_volume 4878.839610
_symmetry_space_group_name_H-M "C M C M"
_symmetry_group_IT_number 63
_symmetry_cell_setting 'orthorhombic'
loop_
_space_group_symop_operation_xyz
x,y,z
-x,-y,1/2+z
x,-y,-z
-x,y,1/2-z
-x,-y,-z
x,y,1/2-z
-x,y,z
x,-y,1/2+z
1/2+x,1/2+y,z
1/2-x,1/2-y,1/2+z
1/2+x,1/2-y,-z
1/2-x,1/2+y,1/2-z
1/2-x,1/2-y,-z
1/2+x,1/2+y,1/2-z
1/2-x,1/2+y,z
1/2+x,1/2-y,1/2+z
loop_
_atom_site_type_symbol
_atom_site_label
_atom_site_fract_x
_atom_site_fract_y
_atom_site_fract_z
Si Si1 0.865558 0.440271 0.647638
Si Si2 0.073839 0.246867 0.647777
Si Si3 0.814600 0.878160 0.084712
Si Si4 0.304173 0.768736 0.154339
Si Si5 0.428527 0.869034 0.353109
Si Si6 0.780616 0.071030 0.105358
O O1 0.855961 0.441517 0.750000
O O2 0.902390 0.348139 0.626137
O O3 0.905480 0.529637 0.625086
O O4 0.795986 0.440903 0.605511
O O5 0.079175 0.238781 0.750000
O O6 0.121270 0.174829 0.606433
O O7 0.000000 0.234609 0.624417
O O8 0.754944 0.813106 0.105950
O O9 0.808466 0.974212 0.133166
O O10 0.806873 0.904284 0.987149
O O11 0.299700 0.804843 0.250000
O O12 0.372428 0.801142 0.118805
O O13 0.297113 0.661036 0.156622
O O14 0.431316 0.864332 0.250000
O O15 0.500000 0.850227 0.384868
#
# Coordination Sequence:
#
# PCOD9469363 Si02
#       6
#    16  16  16  16  16  16
#     4  10  18  32  59  89 117 147 186 240 291 342
#     4  10  21  37  59  87 115 149 196 246 294 342
#     4  11  23  39  58  82 118 157 190 238 291 346
#     4  11  21  35  59  85 112 148 193 239 285 343
#     4   9  18  33  54  84 120 151 181 227 289 348
#     4  11  23  37  57  85 117 149 195 239 285 345
#
# _framework density 19.676811000000001
#
# number of rings (size 3 to 8) (size 9 to 14) (size 15 to 20)
#    0.000    1.667    3.333    2.000    0.000    4.000 
#    0.000    3.333    0.000    3.000    0.000    0.000 
#    0.000    0.000    0.000    0.000    0.000    0.000 
#
# Total GULP energy -268110.699591 kJ/mol
# GULP energy per Si atom -5585.639575 kJ/mol
# Density = 1.963203 g / cm^3
# Si number density = 19.676811 Si / 1000 Ang^3
#
#
#
# Elastic Constant Matrix: (Units=GPa)
#
#
# Indices 1 2 3 4 5 6 
#
# 1 143.4905 47.3652 4.2080 0.0000 0.0000 0.0000
# 2 47.3652 110.1623 3.8731 0.0000 0.0000 0.0000
# 3 4.2080 3.8731 15.5786 0.0000 0.0000 0.0000
# 4 0.0000 0.0000 0.0000 9.7893 0.0000 0.0000
# 5 0.0000 0.0000 0.0000 0.0000 -106.3404 0.0000
# 6 0.0000 0.0000 0.0000 0.0000 0.0000 27.3492
#
#
#
# Elastic Compliance Matrix: (Units=1/GPa)
#
#
# Indices 1 2 3 4 5 6 
#
# 1 0.008150 -0.003457 -0.001342 0.000000 0.000000 0.000000
# 2 -0.003457 0.010624 -0.001708 0.000000 0.000000 0.000000
# 3 -0.001342 -0.001708 0.064978 0.000000 0.000000 0.000000
# 4 0.000000 0.000000 0.000000 0.102152 0.000000 0.000000
# 5 0.000000 0.000000 0.000000 0.000000 -0.009404 0.000000
# 6 0.000000 0.000000 0.000000 0.000000 0.000000 0.036564
#
#
# Mechanical properties :
#
#
# Convention : Reuss Voigt Hill
#
# Bulk Modulus (GPa) = 14.13652 42.23598 28.18625
# Shear Modulus (GPa) = 20.02756 0.41195 10.21976
#
# Velocity S-wave (km/s) = 3.19380 0.45806 2.28147
# Velocity P-wave (km/s) = 4.56075 4.66810 4.61474
#
# Compressibility (1/GPa) = 0.07073876
#
# Stress axis : x y z
#
# Youngs Moduli (GPa) = 122.70675 94.12820 15.38987
#
# Poissons Ratio (x) = 0.32538 0.02065
# Poissons Ratio (y) = 0.42417 0.02628
# Poissons Ratio (z) = 0.16466 0.16073
#
# Static dielectric constant tensor:
#      x y z
#    x 1.658140 0.000000 0.000000 
#    y 0.000000 1.691520 0.000000 
#    z 0.000000 0.000000 2.413490 
# 
# From -- ./inp_files/35356.got.cif
#   From: 2010.05.17/outbox.cif.g08.bks.cpg/sg63_18_cif.got.tgz:35356.got - 2010.06.03 15:47:04.
