data_PCOD9469959
_publ_section_title
;
Structure prediction by ZEFSAII (Michael W. Deem and Ramdas Pophale) SiO2 
 PCOD9469959
Probable space group: C M C M
;
_chemical_formula_sum "Si O2"
_cell_formula_units_Z 96
_cell_length_a 10.092012
_cell_length_b 30.575286
_cell_length_c 20.158536
_cell_angle_alpha 90.000000
_cell_angle_beta 90.000000
_cell_angle_gamma 90.000000
_cell_volume 6220.241908
_symmetry_space_group_name_H-M "C M C M"
_symmetry_group_IT_number 63
_symmetry_cell_setting 'orthorhombic'
loop_
_space_group_symop_operation_xyz
x,y,z
-x,-y,1/2+z
x,-y,-z
-x,y,1/2-z
-x,-y,-z
x,y,1/2-z
-x,y,z
x,-y,1/2+z
1/2+x,1/2+y,z
1/2-x,1/2-y,1/2+z
1/2+x,1/2-y,-z
1/2-x,1/2+y,1/2-z
1/2-x,1/2-y,-z
1/2+x,1/2+y,1/2-z
1/2-x,1/2+y,z
1/2+x,1/2-y,1/2+z
loop_
_atom_site_type_symbol
_atom_site_label
_atom_site_fract_x
_atom_site_fract_y
_atom_site_fract_z
Si Si1 0.845752 0.448674 0.172254
Si Si2 0.655924 0.622287 0.610239
Si Si3 0.651746 0.295517 0.571116
Si Si4 0.843997 0.106028 0.047682
Si Si5 0.655950 0.025483 0.430660
Si Si6 0.848183 0.220721 0.911466
O O1 0.832158 0.457992 0.250000
O O2 0.749690 0.409590 0.150923
O O3 0.816321 0.491221 0.127976
O O4 0.000000 0.436921 0.158881
O O5 0.500000 0.616576 0.626193
O O6 0.671566 0.611054 0.532039
O O7 0.688954 0.673630 0.618730
O O8 0.500000 0.289321 0.593080
O O9 0.688192 0.346472 0.578675
O O10 0.750164 0.260498 0.602842
O O11 0.653168 0.286955 0.491396
O O12 0.749650 0.067497 0.071734
O O13 0.000000 0.097118 0.059952
O O14 0.500000 0.037640 0.428427
O O15 0.678507 0.000000 0.500000
O O16 0.000000 0.230760 0.893186
#
# Coordination Sequence:
#
# PCOD9469959 Si02
#       6
#    16  16  16  16  16  16
#     4  10  21  35  48  65  92 122 153 193 237 279
#     4   9  17  29  45  66  92 121 153 188 226 272
#     4   8  14  24  37  59  90 119 147 179 217 263
#     4   9  17  28  44  67  94 122 152 188 232 275
#     4  10  19  31  47  68  90 117 157 197 233 279
#     4   8  14  24  38  59  88 119 147 177 216 260
#
# _framework density 15.433484
#
# number of rings (size 3 to 8) (size 9 to 14) (size 15 to 20)
#    0.000    3.000    1.667    2.000    0.000    2.667 
#    0.000    3.333    0.000    0.000    0.000    1.167 
#    0.000    4.000    0.000    0.000    0.000    0.000 
#
# Total GULP energy -267283.713494 kJ/mol
# GULP energy per Si atom -5568.410698 kJ/mol
# Density = 1.539836 g / cm^3
# Si number density = 15.433484 Si / 1000 Ang^3
#
#
#
# Elastic Constant Matrix: (Units=GPa)
#
#
# Indices 1 2 3 4 5 6 
#
# 1 92.2193 110.4425 38.0011 0.0000 0.0000 0.0000
# 2 110.4425 159.4089 44.5003 0.0000 0.0000 0.0000
# 3 38.0011 44.5003 40.2584 0.0000 0.0000 0.0000
# 4 0.0000 0.0000 0.0000 11.6751 0.0000 0.0000
# 5 0.0000 0.0000 0.0000 0.0000 14.1548 0.0000
# 6 0.0000 0.0000 0.0000 0.0000 0.0000 39.2742
#
#
#
# Elastic Compliance Matrix: (Units=1/GPa)
#
#
# Indices 1 2 3 4 5 6 
#
# 1 0.072176 -0.044815 -0.018592 0.000000 0.000000 0.000000
# 2 -0.044815 0.036899 0.001515 0.000000 0.000000 0.000000
# 3 -0.018592 0.001515 0.040714 0.000000 0.000000 0.000000
# 4 0.000000 0.000000 0.000000 0.085652 0.000000 0.000000
# 5 0.000000 0.000000 0.000000 0.000000 0.070648 0.000000
# 6 0.000000 0.000000 0.000000 0.000000 0.000000 0.025462
#
#
# Mechanical properties :
#
#
# Convention : Reuss Voigt Hill
#
# Bulk Modulus (GPa) = 38.45314 75.30825 56.88070
# Shear Modulus (GPa) = 10.77578 19.61700 15.19639
#
# Velocity S-wave (km/s) = 2.64523 3.56907 3.14130
# Velocity P-wave (km/s) = 5.85655 8.11700 7.07760
#
# Compressibility (1/GPa) = 0.02600568
#
# Stress axis : x y z
#
# Youngs Moduli (GPa) = 13.85502 27.10070 24.56158
#
# Poissons Ratio (x) = 1.21453 0.45664
# Poissons Ratio (y) = 0.62092 -0.03721
# Poissons Ratio (z) = 0.25759 -0.04106
#
# Static dielectric constant tensor:
#      x y z
#    x 1.512380 0.000000 0.000000 
#    y 0.000000 1.505760 0.000000 
#    z 0.000000 0.000000 1.496900 
# 
# From -- ./inp_files/52849.got.cif
#   From: 2010.05.17/outbox.cif.g08.bks.cpg/sg63_27_cif.got.tgz:52849.got - 2010.06.03 15:47:04.
