data_PCOD9469655
_publ_section_title
;
Structure prediction by ZEFSAII (Michael W. Deem and Ramdas Pophale) SiO2 
 PCOD9469655
Probable space group: C M C M
;
_chemical_formula_sum "Si O2"
_cell_formula_units_Z 80
_cell_length_a 25.453353
_cell_length_b 24.011145
_cell_length_c 7.611712
_cell_angle_alpha 90.000000
_cell_angle_beta 90.000000
_cell_angle_gamma 90.000000
_cell_volume 4652.005492
_symmetry_space_group_name_H-M "C M C M"
_symmetry_group_IT_number 63
_symmetry_cell_setting 'orthorhombic'
loop_
_space_group_symop_operation_xyz
x,y,z
-x,-y,1/2+z
x,-y,-z
-x,y,1/2-z
-x,-y,-z
x,y,1/2-z
-x,y,z
x,-y,1/2+z
1/2+x,1/2+y,z
1/2-x,1/2-y,1/2+z
1/2+x,1/2-y,-z
1/2-x,1/2+y,1/2-z
1/2-x,1/2-y,-z
1/2+x,1/2+y,1/2-z
1/2-x,1/2+y,z
1/2+x,1/2-y,1/2+z
loop_
_atom_site_type_symbol
_atom_site_label
_atom_site_fract_x
_atom_site_fract_y
_atom_site_fract_z
Si Si1 0.331532 0.062477 0.041363
Si Si2 0.558004 0.893604 0.536069
Si Si3 0.334503 0.278912 0.451617
Si Si4 0.441668 0.236559 0.035287
Si Si5 0.771011 0.327863 0.456171
O O1 0.333199 0.069401 0.250000
O O2 0.390966 0.073303 0.973250
O O3 0.293170 0.110480 0.973636
O O4 0.314875 0.000000 0.000000
O O5 0.557512 0.895487 0.750000
O O6 0.500000 0.912643 0.476895
O O7 0.564305 0.828553 0.486128
O O8 0.341858 0.296889 0.250000
O O9 0.392361 0.272128 0.530876
O O10 0.287949 0.317265 0.526700
O O11 0.309789 0.216644 0.455073
O O12 0.440151 0.237235 0.250000
O O13 0.500000 0.254826 0.981476
O O14 0.770381 0.312679 0.250000
#
# Coordination Sequence:
#
# PCOD9469655 Si02
#       5
#    16  16  16  16  16
#     4  11  21  33  47  61  83 112 148 187 223 257
#     4   8  14  25  42  61  81 109 145 182 216 250
#     4   9  16  28  46  66  87 113 143 177 213 255
#     4   8  12  21  41  66  87 109 140 175 211 249
#     4  10  19  29  43  64  88 113 145 178 215 258
#
# _framework density 17.196885999999999
#
# number of rings (size 3 to 8) (size 9 to 14) (size 15 to 20)
#    0.000    2.800    2.000    2.400    0.000    1.200 
#    0.000    0.000    0.000    3.600    0.000    0.000 
#    0.000    0.800    0.000    1.400    0.000    2.000 
#
# Total GULP energy -222912.311807 kJ/mol
# GULP energy per Si atom -5572.807795 kJ/mol
# Density = 1.715774 g / cm^3
# Si number density = 17.196886 Si / 1000 Ang^3
#
#
#
# Elastic Constant Matrix: (Units=GPa)
#
#
# Indices 1 2 3 4 5 6 
#
# 1 126.5392 53.3228 -4.6995 0.0000 0.0000 0.0000
# 2 53.3228 73.6063 -5.8486 0.0000 0.0000 0.0000
# 3 -4.6995 -5.8486 41.4269 0.0000 0.0000 0.0000
# 4 0.0000 0.0000 0.0000 9.9850 0.0000 0.0000
# 5 0.0000 0.0000 0.0000 0.0000 5.0434 0.0000
# 6 0.0000 0.0000 0.0000 0.0000 0.0000 11.5070
#
#
#
# Elastic Compliance Matrix: (Units=1/GPa)
#
#
# Indices 1 2 3 4 5 6 
#
# 1 0.011376 -0.008231 0.000128 0.000000 0.000000 0.000000
# 2 -0.008231 0.019695 0.001847 0.000000 0.000000 0.000000
# 3 0.000128 0.001847 0.024414 0.000000 0.000000 0.000000
# 4 0.000000 0.000000 0.000000 0.100151 0.000000 0.000000
# 5 0.000000 0.000000 0.000000 0.000000 0.198280 0.000000
# 6 0.000000 0.000000 0.000000 0.000000 0.000000 0.086903
#
#
# Mechanical properties :
#
#
# Convention : Reuss Voigt Hill
#
# Bulk Modulus (GPa) = 23.26973 36.34684 29.80829
# Shear Modulus (GPa) = 10.69165 18.56026 14.62595
#
# Velocity S-wave (km/s) = 2.49614 3.28880 2.91950
# Velocity P-wave (km/s) = 4.67636 5.96685 5.36058
#
# Compressibility (1/GPa) = 0.04297428
#
# Stress axis : x y z
#
# Youngs Moduli (GPa) = 87.90521 50.77367 40.95973
#
# Poissons Ratio (x) = 0.41791 -0.00526
# Poissons Ratio (y) = 0.72354 -0.07565
# Poissons Ratio (z) = -0.01129 -0.09377
#
# Static dielectric constant tensor:
#      x y z
#    x 1.643030 0.000000 0.000000 
#    y 0.000000 1.567700 0.000000 
#    z 0.000000 0.000000 1.660010 
# 
# From -- ./inp_files/12064.got.cif
#   From: 2010.05.17/outbox.cif.g08.bks.cpg/sg63_7_cif.got.tgz:12064.got - 2010.06.03 15:47:04.
