data_PCOD9469454
_publ_section_title
;
Structure prediction by ZEFSAII (Michael W. Deem and Ramdas Pophale) SiO2 
 PCOD9469454
Probable space group: C M C M
;
_chemical_formula_sum "Si O2"
_cell_formula_units_Z 96
_cell_length_a 24.228674
_cell_length_b 26.184296
_cell_length_c 7.574772
_cell_angle_alpha 90.000000
_cell_angle_beta 90.000000
_cell_angle_gamma 90.000000
_cell_volume 4805.516950
_symmetry_space_group_name_H-M "C M C M"
_symmetry_group_IT_number 63
_symmetry_cell_setting 'orthorhombic'
loop_
_space_group_symop_operation_xyz
x,y,z
-x,-y,1/2+z
x,-y,-z
-x,y,1/2-z
-x,-y,-z
x,y,1/2-z
-x,y,z
x,-y,1/2+z
1/2+x,1/2+y,z
1/2-x,1/2-y,1/2+z
1/2+x,1/2-y,-z
1/2-x,1/2+y,1/2-z
1/2-x,1/2-y,-z
1/2+x,1/2+y,1/2-z
1/2-x,1/2+y,z
1/2+x,1/2-y,1/2+z
loop_
_atom_site_type_symbol
_atom_site_label
_atom_site_fract_x
_atom_site_fract_y
_atom_site_fract_z
Si Si1 0.322014 0.058038 0.537757
Si Si2 0.878766 0.151298 0.533318
Si Si3 0.110872 0.347451 0.045633
Si Si4 0.500000 0.325555 0.457625
Si Si5 0.500000 0.205642 0.534713
Si Si6 0.314629 0.753527 0.539873
Si Si7 0.303656 0.441915 0.461558
O O1 0.319548 0.064035 0.750000
O O2 0.363246 0.101094 0.467328
O O3 0.259122 0.064986 0.470733
O O4 0.338909 0.000000 0.500000
O O5 0.879261 0.151420 0.750000
O O6 0.941960 0.153795 0.470690
O O7 0.846613 0.202689 0.478833
O O8 0.845146 0.101544 0.474003
O O9 0.097868 0.358759 0.250000
O O10 0.054960 0.323200 0.970859
O O11 0.157428 0.303751 0.039085
O O12 0.500000 0.337946 0.250000
O O13 0.500000 0.264292 0.475933
O O14 0.500000 0.207109 0.750000
O O15 0.321771 0.756941 0.750000
O O16 0.250000 0.750000 0.500000
O O17 0.320853 0.500000 0.500000
O O18 0.301230 0.436682 0.250000
#
# Coordination Sequence:
#
# PCOD9469454 Si02
#       7
#    16  16  16   8   8  16  16
#     4   9  18  33  53  73 101 136 174 216 262 315
#     4   9  18  32  52  74 100 133 170 209 253 305
#     4  10  20  35  53  76 106 140 173 214 266 318
#     4  10  18  34  55  74  98 136 179 211 248 307
#     4  10  20  34  53  76 106 140 173 213 266 315
#     4  11  21  33  51  77 106 136 171 216 264 317
#     4   9  17  32  51  72  97 130 168 209 256 305
#
# _framework density 19.977039000000001
#
# number of rings (size 3 to 8) (size 9 to 14) (size 15 to 20)
#    0.000    2.333    1.667    1.500    0.000    3.333 
#    0.000    6.667    0.000    0.000    0.000    0.000 
#    0.000    0.000    0.000    0.000    0.000    0.000 
#
# Total GULP energy -267972.545376 kJ/mol
# GULP energy per Si atom -5582.761362 kJ/mol
# Density = 1.993157 g / cm^3
# Si number density = 19.977039 Si / 1000 Ang^3
#
#
#
# Elastic Constant Matrix: (Units=GPa)
#
#
# Indices 1 2 3 4 5 6 
#
# 1 93.2270 36.0665 -13.2257 0.0000 0.0000 0.0000
# 2 36.0665 102.0872 -16.2293 0.0000 0.0000 0.0000
# 3 -13.2257 -16.2293 45.1036 0.0000 0.0000 0.0000
# 4 0.0000 0.0000 0.0000 20.8215 0.0000 0.0000
# 5 0.0000 0.0000 0.0000 0.0000 74.7226 0.0000
# 6 0.0000 0.0000 0.0000 0.0000 0.0000 26.9547
#
#
#
# Elastic Compliance Matrix: (Units=1/GPa)
#
#
# Indices 1 2 3 4 5 6 
#
# 1 0.012632 -0.004109 0.002226 0.000000 0.000000 0.000000
# 2 -0.004109 0.011726 0.003015 0.000000 0.000000 0.000000
# 3 0.002226 0.003015 0.023908 0.000000 0.000000 0.000000
# 4 0.000000 0.000000 0.000000 0.048027 0.000000 0.000000
# 5 0.000000 0.000000 0.000000 0.000000 0.013383 0.000000
# 6 0.000000 0.000000 0.000000 0.000000 0.000000 0.037099
#
#
# Mechanical properties :
#
#
# Convention : Reuss Voigt Hill
#
# Bulk Modulus (GPa) = 19.79056 28.18234 23.98645
# Shear Modulus (GPa) = 30.98724 40.08684 35.53704
#
# Velocity S-wave (km/s) = 3.94273 4.48442 4.22227
# Velocity P-wave (km/s) = 5.53669 6.39932 5.98357
#
# Compressibility (1/GPa) = 0.05052913
#
# Stress axis : x y z
#
# Youngs Moduli (GPa) = 79.16507 85.27743 41.82618
#
# Poissons Ratio (x) = 0.35040 -0.09309
# Poissons Ratio (y) = 0.32528 -0.12609
# Poissons Ratio (z) = -0.17618 -0.25708
#
# Static dielectric constant tensor:
#      x y z
#    x 1.702650 0.000000 0.000000 
#    y 0.000000 1.671410 0.000000 
#    z 0.000000 0.000000 1.768840 
# 
# From -- ./inp_files/10529.got.cif
#   From: 2010.05.17/outbox.cif.g08.bks.cpg/sg63_6_cif.got.tgz:10529.got - 2010.06.03 15:47:04.
