data_PCOD9469782
_publ_section_title
;
Structure prediction by ZEFSAII (Michael W. Deem and Ramdas Pophale) SiO2 
 PCOD9469782
Probable space group: C M C M
;
_chemical_formula_sum "Si O2"
_cell_formula_units_Z 96
_cell_length_a 7.318745
_cell_length_b 37.181220
_cell_length_c 14.550437
_cell_angle_alpha 90.000000
_cell_angle_beta 90.000000
_cell_angle_gamma 90.000000
_cell_volume 3959.462995
_symmetry_space_group_name_H-M "C M C M"
_symmetry_group_IT_number 63
_symmetry_cell_setting 'orthorhombic'
loop_
_space_group_symop_operation_xyz
x,y,z
-x,-y,1/2+z
x,-y,-z
-x,y,1/2-z
-x,-y,-z
x,y,1/2-z
-x,y,z
x,-y,1/2+z
1/2+x,1/2+y,z
1/2-x,1/2-y,1/2+z
1/2+x,1/2-y,-z
1/2-x,1/2+y,1/2-z
1/2-x,1/2-y,-z
1/2+x,1/2+y,1/2-z
1/2-x,1/2+y,z
1/2+x,1/2-y,1/2+z
loop_
_atom_site_type_symbol
_atom_site_label
_atom_site_fract_x
_atom_site_fract_y
_atom_site_fract_z
Si Si1 0.777091 0.919794 0.149025
Si Si2 0.789176 0.841538 0.393742
Si Si3 0.722390 0.441930 0.750000
Si Si4 0.775145 0.188549 0.079258
Si Si5 0.220569 0.960447 0.961532
Si Si6 0.214111 0.738345 0.647911
Si Si7 0.278289 0.358825 0.750000
O O1 0.720537 0.935565 0.250000
O O2 0.718091 0.877787 0.150533
O O3 0.000000 0.923100 0.149680
O O4 0.719644 0.935200 0.048524
O O5 0.706853 0.832255 0.491237
O O6 0.788235 0.801947 0.349713
O O7 0.000000 0.850715 0.408673
O O8 0.500000 0.445486 0.750000
O O9 0.780185 0.455853 0.853502
O O10 0.777038 0.400040 0.750000
O O11 0.711314 0.229783 0.084803
O O12 0.721040 0.164181 0.163418
O O13 0.000000 0.190531 0.077267
O O14 0.000000 0.956156 0.957150
O O15 0.262848 0.000000 0.000000
O O16 0.233340 0.754016 0.750000
O O17 0.000000 0.733883 0.629610
O O18 0.500000 0.359607 0.750000
#
# Coordination Sequence:
#
# PCOD9469782 Si02
#       7
#    16  16   8  16  16  16   8
#     4   9  17  28  41  59  85 116 147 179 222 276
#     4  10  19  30  46  67  90 118 154 193 232 275
#     4   9  16  24  36  56  77 105 151 195 223 261
#     4   9  16  27  43  62  85 114 149 191 236 276
#     4   9  17  26  38  56  82 116 150 184 224 271
#     4  10  19  31  45  63  87 118 155 191 234 280
#     4   9  14  24  42  60  82 111 149 195 233 269
#
# _framework density 24.245714
#
# number of rings (size 3 to 8) (size 9 to 14) (size 15 to 20)
#    0.000    2.667    0.833    2.000    1.167    5.000 
#    0.000    0.000    0.000    0.000    0.000    0.000 
#    0.000    0.667    0.000    0.000    0.000    0.167 
#
# Total GULP energy -267355.001207 kJ/mol
# GULP energy per Si atom -5569.895858 kJ/mol
# Density = 2.419053 g / cm^3
# Si number density = 24.245714 Si / 1000 Ang^3
#
#
#
# Elastic Constant Matrix: (Units=GPa)
#
#
# Indices 1 2 3 4 5 6 
#
# 1 85.2479 -2.4345 10.4055 0.0000 0.0000 0.0000
# 2 -2.4345 130.6194 95.4689 0.0000 0.0000 0.0000
# 3 10.4055 95.4689 250.0842 0.0000 0.0000 0.0000
# 4 0.0000 0.0000 0.0000 34.5552 0.0000 0.0000
# 5 0.0000 0.0000 0.0000 0.0000 -7.5138 0.0000
# 6 0.0000 0.0000 0.0000 0.0000 0.0000 -1.5645
#
#
#
# Elastic Compliance Matrix: (Units=1/GPa)
#
#
# Indices 1 2 3 4 5 6 
#
# 1 0.011851 0.000806 -0.000801 0.000000 0.000000 0.000000
# 2 0.000806 0.010673 -0.004108 0.000000 0.000000 0.000000
# 3 -0.000801 -0.004108 0.005600 0.000000 0.000000 0.000000
# 4 0.000000 0.000000 0.000000 0.028939 0.000000 0.000000
# 5 0.000000 0.000000 0.000000 0.000000 -0.133088 0.000000
# 6 0.000000 0.000000 0.000000 0.000000 0.000000 -0.639169
#
#
# Mechanical properties :
#
#
# Convention : Reuss Voigt Hill
#
# Bulk Modulus (GPa) = 50.20216 74.75905 62.48060
# Shear Modulus (GPa) = -7.13932 29.26279 11.06174
#
# Velocity S-wave (km/s) = -1.71784 3.47785 2.13828
# Velocity P-wave (km/s) = 4.10072 6.85771 5.64996
#
# Compressibility (1/GPa) = 0.01991946
#
# Stress axis : x y z
#
# Youngs Moduli (GPa) = 84.37911 93.69045 178.56395
#
# Poissons Ratio (x) = -0.07554 0.14301
# Poissons Ratio (y) = -0.06803 0.73356
# Poissons Ratio (z) = 0.06758 0.38489
#
# Static dielectric constant tensor:
#      x y z
#    x 1.755340 0.000000 0.000000 
#    y 0.000000 1.911310 0.000000 
#    z 0.000000 0.000000 2.027660 
# 
# From -- ./inp_files/30357.got.cif
#   From: 2010.05.17/outbox.cif.g08.bks.cpg/sg63_16_cif.got.tgz:30357.got - 2010.06.03 15:47:04.
