data_PCOD9469930
_publ_section_title
;
Structure prediction by ZEFSAII (Michael W. Deem and Ramdas Pophale) SiO2 
 PCOD9469930
Probable space group: C M C M
;
_chemical_formula_sum "Si O2"
_cell_formula_units_Z 96
_cell_length_a 13.409695
_cell_length_b 20.519590
_cell_length_c 21.982930
_cell_angle_alpha 90.000000
_cell_angle_beta 90.000000
_cell_angle_gamma 90.000000
_cell_volume 6048.854750
_symmetry_space_group_name_H-M "C M C M"
_symmetry_group_IT_number 63
_symmetry_cell_setting 'orthorhombic'
loop_
_space_group_symop_operation_xyz
x,y,z
-x,-y,1/2+z
x,-y,-z
-x,y,1/2-z
-x,-y,-z
x,y,1/2-z
-x,y,z
x,-y,1/2+z
1/2+x,1/2+y,z
1/2-x,1/2-y,1/2+z
1/2+x,1/2-y,-z
1/2-x,1/2+y,1/2-z
1/2-x,1/2-y,-z
1/2+x,1/2+y,1/2-z
1/2-x,1/2+y,z
1/2+x,1/2-y,1/2+z
loop_
_atom_site_type_symbol
_atom_site_label
_atom_site_fract_x
_atom_site_fract_y
_atom_site_fract_z
Si Si1 0.239637 0.536667 0.938507
Si Si2 0.887852 0.203184 0.499619
Si Si3 0.884416 0.866072 0.126333
Si Si4 0.621458 0.854610 0.750000
Si Si5 0.675329 0.847358 0.985359
Si Si6 0.878284 0.203873 0.750000
Si Si7 0.115047 0.574352 0.372666
O O1 0.322923 0.572759 0.898811
O O2 0.179866 0.485093 0.898252
O O3 0.277505 0.500000 0.000000
O O4 0.170778 0.594662 0.965609
O O5 0.880598 0.186873 0.571717
O O6 0.793503 0.164855 0.472139
O O7 0.868467 0.279637 0.490965
O O8 0.000000 0.184920 0.479949
O O9 0.847120 0.834032 0.188863
O O10 0.000000 0.884116 0.134744
O O11 0.500000 0.852586 0.750000
O O12 0.654904 0.779274 0.750000
O O13 0.651809 0.893844 0.689891
O O14 0.621803 0.870474 0.924601
O O15 0.000000 0.205000 0.750000
O O16 0.000000 0.554266 0.365185
#
# Coordination Sequence:
#
# PCOD9469930 Si02
#       7
#    16  16  16   8  16   8  16
#     4   9  19  31  43  65  92 119 152 181 212 266
#     4   9  16  27  44  66  93 120 147 186 230 267
#     4   9  17  29  45  66  92 118 146 185 226 261
#     4   9  18  31  48  68  87 112 146 184 229 271
#     4   9  17  28  44  67  91 117 152 185 222 268
#     4   9  16  27  46  70  89 108 142 184 225 265
#     4  10  19  31  46  64  89 118 148 184 222 263
#
# _framework density 15.870772000000001
#
# number of rings (size 3 to 8) (size 9 to 14) (size 15 to 20)
#    0.000    2.833    0.000    1.500    0.000    7.333 
#    0.000    2.500    0.000    0.000    0.000    1.750 
#    0.000    1.333    0.000    0.000    0.000    0.000 
#
# Total GULP energy -267234.090125 kJ/mol
# GULP energy per Si atom -5567.376878 kJ/mol
# Density = 1.583465 g / cm^3
# Si number density = 15.870772 Si / 1000 Ang^3
#
#
#
# Elastic Constant Matrix: (Units=GPa)
#
#
# Indices 1 2 3 4 5 6 
#
# 1 51.5601 23.6815 28.9101 0.0000 0.0000 0.0000
# 2 23.6815 104.2590 52.5753 0.0000 0.0000 0.0000
# 3 28.9101 52.5753 92.7308 0.0000 0.0000 0.0000
# 4 0.0000 0.0000 0.0000 16.4078 0.0000 0.0000
# 5 0.0000 0.0000 0.0000 0.0000 16.5782 0.0000
# 6 0.0000 0.0000 0.0000 0.0000 0.0000 12.1816
#
#
#
# Elastic Compliance Matrix: (Units=1/GPa)
#
#
# Indices 1 2 3 4 5 6 
#
# 1 0.023904 -0.002341 -0.006125 0.000000 0.000000 0.000000
# 2 -0.002341 0.013661 -0.007016 0.000000 0.000000 0.000000
# 3 -0.006125 -0.007016 0.016671 0.000000 0.000000 0.000000
# 4 0.000000 0.000000 0.000000 0.060946 0.000000 0.000000
# 5 0.000000 0.000000 0.000000 0.000000 0.060320 0.000000
# 6 0.000000 0.000000 0.000000 0.000000 0.000000 0.082091
#
#
# Mechanical properties :
#
#
# Convention : Reuss Voigt Hill
#
# Bulk Modulus (GPa) = 42.96798 50.98707 46.97753
# Shear Modulus (GPa) = 16.87391 18.59240 17.73316
#
# Velocity S-wave (km/s) = 3.26422 3.42641 3.34630
# Velocity P-wave (km/s) = 6.42956 6.91736 6.67792
#
# Compressibility (1/GPa) = 0.02327314
#
# Stress axis : x y z
#
# Youngs Moduli (GPa) = 41.83314 73.20132 59.98390
#
# Poissons Ratio (x) = 0.17135 0.36742
# Poissons Ratio (y) = 0.09792 0.42082
# Poissons Ratio (z) = 0.25624 0.51355
#
# Static dielectric constant tensor:
#      x y z
#    x 1.537530 0.000000 0.000000 
#    y 0.000000 1.534720 0.000000 
#    z 0.000000 0.000000 1.523200 
# 
# From -- ./inp_files/61712.got.cif
#   From: 2010.05.17/outbox.cif.g08.bks.cpg/sg63_31_cif.got.tgz:61712.got - 2010.06.03 15:47:04.
