data_PCOD9469559
_publ_section_title
;
Structure prediction by ZEFSAII (Michael W. Deem and Ramdas Pophale) SiO2 
 PCOD9469559
Probable space group: C M C M
;
_chemical_formula_sum "Si O2"
_cell_formula_units_Z 80
_cell_length_a 7.438265
_cell_length_b 24.725473
_cell_length_c 16.931729
_cell_angle_alpha 90.000000
_cell_angle_beta 90.000000
_cell_angle_gamma 90.000000
_cell_volume 3113.992512
_symmetry_space_group_name_H-M "C M C M"
_symmetry_group_IT_number 63
_symmetry_cell_setting 'orthorhombic'
loop_
_space_group_symop_operation_xyz
x,y,z
-x,-y,1/2+z
x,-y,-z
-x,y,1/2-z
-x,-y,-z
x,y,1/2-z
-x,y,z
x,-y,1/2+z
1/2+x,1/2+y,z
1/2-x,1/2-y,1/2+z
1/2+x,1/2-y,-z
1/2-x,1/2+y,1/2-z
1/2-x,1/2-y,-z
1/2+x,1/2+y,1/2-z
1/2-x,1/2+y,z
1/2+x,1/2-y,1/2+z
loop_
_atom_site_type_symbol
_atom_site_label
_atom_site_fract_x
_atom_site_fract_y
_atom_site_fract_z
Si Si1 0.285626 0.352819 0.250000
Si Si2 0.210500 0.271671 0.107528
Si Si3 0.779620 0.471411 0.080852
Si Si4 0.284279 0.655164 0.337089
Si Si5 0.794948 0.521177 0.750000
Si Si6 0.286089 0.136404 0.992670
O O1 0.500000 0.358763 0.250000
O O2 0.227788 0.316534 0.175868
O O3 0.204327 0.412947 0.250000
O O4 0.286925 0.215409 0.140399
O O5 0.000000 0.157528 0.168136
O O6 0.286064 0.304525 0.031946
O O7 0.714152 0.493663 0.164939
O O8 0.000000 0.472256 0.084122
O O9 0.726697 0.500000 0.000000
O O10 0.718791 0.409912 0.065634
O O11 0.218456 0.638508 0.250000
O O12 0.243237 0.621754 0.415955
O O13 0.000000 0.638734 0.517777
O O14 0.000000 0.501211 0.750000
O O15 0.500000 0.238522 0.905114
#
# Coordination Sequence:
#
# PCOD9469559 Si02
#       6
#     8  16  16  16   8  16
#     4  12  22  30  52  87 114 139 185 240 273 315
#     4  10  19  36  57  77 107 150 189 220 272 330
#     4   9  18  34  58  88 111 138 185 232 280 334
#     4  10  21  36  54  75 109 154 192 219 261 337
#     4  10  18  36  62  79 110 151 179 226 287 343
#     4  10  20  34  56  82 110 139 179 236 280 323
#
# _framework density 25.690491999999999
#
# number of rings (size 3 to 8) (size 9 to 14) (size 15 to 20)
#    0.000    2.000    3.000    1.500    0.000    2.000 
#    1.800    0.000    0.000    2.400    0.000    0.000 
#    0.000    0.000    0.000    0.000    0.000    0.000 
#
# Total GULP energy -223542.184674 kJ/mol
# GULP energy per Si atom -5588.554617 kJ/mol
# Density = 2.563202 g / cm^3
# Si number density = 25.690492 Si / 1000 Ang^3
#
#
#
# Elastic Constant Matrix: (Units=GPa)
#
#
# Indices 1 2 3 4 5 6 
#
# 1 106.6185 -2.6438 0.6671 0.0000 0.0000 0.0000
# 2 -2.6438 30.3550 15.8346 0.0000 0.0000 0.0000
# 3 0.6671 15.8346 226.1843 0.0000 0.0000 0.0000
# 4 0.0000 0.0000 0.0000 42.9950 0.0000 0.0000
# 5 0.0000 0.0000 0.0000 0.0000 10.9057 0.0000
# 6 0.0000 0.0000 0.0000 0.0000 0.0000 -1.6422
#
#
#
# Elastic Compliance Matrix: (Units=1/GPa)
#
#
# Indices 1 2 3 4 5 6 
#
# 1 0.009401 0.000865 -0.000088 0.000000 0.000000 0.000000
# 2 0.000865 0.034272 -0.002402 0.000000 0.000000 0.000000
# 3 -0.000088 -0.002402 0.004590 0.000000 0.000000 0.000000
# 4 0.000000 0.000000 0.000000 0.023259 0.000000 0.000000
# 5 0.000000 0.000000 0.000000 0.000000 0.091695 0.000000
# 6 0.000000 0.000000 0.000000 0.000000 0.000000 -0.608940
#
#
# Mechanical properties :
#
#
# Convention : Reuss Voigt Hill
#
# Bulk Modulus (GPa) = 22.21628 43.43038 32.82333
# Shear Modulus (GPa) = -11.69673 33.73837 11.02082
#
# Velocity S-wave (km/s) = -2.13608 3.62783 2.07344
# Velocity P-wave (km/s) = 1.60707 5.87283 4.30539
#
# Compressibility (1/GPa) = 0.04501204
#
# Stress axis : x y z
#
# Youngs Moduli (GPa) = 106.36902 29.17860 217.88485
#
# Poissons Ratio (x) = -0.02524 0.01923
# Poissons Ratio (y) = -0.09200 0.52332
# Poissons Ratio (z) = 0.00939 0.07008
#
# Static dielectric constant tensor:
#      x y z
#    x 1.953510 0.000000 0.000000 
#    y 0.000000 2.041480 0.000000 
#    z 0.000000 0.000000 2.086840 
# 
# From -- ./inp_files/40568.got.cif
#   From: 2010.05.17/outbox.cif.g08.bks.cpg/sg63_21_cif.got.tgz:40568.got - 2010.06.03 15:47:04.
