data_PCOD9469864
_publ_section_title
;
Structure prediction by ZEFSAII (Michael W. Deem and Ramdas Pophale) SiO2 
 PCOD9469864
Probable space group: C M C M
;
_chemical_formula_sum "Si O2"
_cell_formula_units_Z 80
_cell_length_a 9.878409
_cell_length_b 14.868530
_cell_length_c 26.341198
_cell_angle_alpha 90.000000
_cell_angle_beta 90.000000
_cell_angle_gamma 90.000000
_cell_volume 3868.927217
_symmetry_space_group_name_H-M "C M C M"
_symmetry_group_IT_number 63
_symmetry_cell_setting 'orthorhombic'
loop_
_space_group_symop_operation_xyz
x,y,z
-x,-y,1/2+z
x,-y,-z
-x,y,1/2-z
-x,-y,-z
x,y,1/2-z
-x,y,z
x,-y,1/2+z
1/2+x,1/2+y,z
1/2-x,1/2-y,1/2+z
1/2+x,1/2-y,-z
1/2-x,1/2+y,1/2-z
1/2-x,1/2-y,-z
1/2+x,1/2+y,1/2-z
1/2-x,1/2+y,z
1/2+x,1/2-y,1/2+z
loop_
_atom_site_type_symbol
_atom_site_label
_atom_site_fract_x
_atom_site_fract_y
_atom_site_fract_z
Si Si1 0.344313 0.653633 0.806949
Si Si2 0.847551 0.869978 0.603602
Si Si3 0.654005 0.873468 0.692095
Si Si4 0.346644 0.105986 0.008034
Si Si5 0.848135 0.656279 0.896262
O O1 0.298934 0.628200 0.750000
O O2 0.500000 0.625128 0.813714
O O3 0.345093 0.763572 0.808319
O O4 0.249224 0.621304 0.852317
O O5 0.763170 0.905839 0.651538
O O6 0.756950 0.879506 0.553463
O O7 0.859481 0.762903 0.611968
O O8 0.000000 0.906719 0.598665
O O9 0.683054 0.900900 0.750000
O O10 0.500000 0.900554 0.678910
O O11 0.500000 0.141516 0.018636
O O12 0.298143 0.143850 0.953851
O O13 0.357431 0.000000 0.000000
O O14 0.000000 0.616658 0.893839
#
# Coordination Sequence:
#
# PCOD9469864 Si02
#       5
#    16  16  16  16  16
#     4   8  14  25  43  69  98 125 152 184 227 278
#     4  10  19  30  48  74 100 123 151 193 241 284
#     4   8  14  26  45  69  97 127 156 186 224 274
#     4  10  21  36  51  66  90 126 165 201 235 278
#     4   9  18  31  48  72  97 122 155 194 236 278
#
# _framework density 20.677567
#
# number of rings (size 3 to 8) (size 9 to 14) (size 15 to 20)
#    0.000    3.000    0.000    2.400    0.000    2.800 
#    0.000    4.000    0.000    1.200    0.000    2.800 
#    0.000    0.000    0.000    0.000    0.000    0.000 
#
# Total GULP energy -223096.786688 kJ/mol
# GULP energy per Si atom -5577.419667 kJ/mol
# Density = 2.063050 g / cm^3
# Si number density = 20.677567 Si / 1000 Ang^3
#
#
#
# Elastic Constant Matrix: (Units=GPa)
#
#
# Indices 1 2 3 4 5 6 
#
# 1 153.6650 2.2534 144.2549 0.0000 0.0000 0.0000
# 2 2.2534 29.4764 -4.6533 0.0000 0.0000 0.0000
# 3 144.2549 -4.6533 190.0603 0.0000 0.0000 0.0000
# 4 0.0000 0.0000 0.0000 -42.8025 0.0000 0.0000
# 5 0.0000 0.0000 0.0000 0.0000 -72.1601 0.0000
# 6 0.0000 0.0000 0.0000 0.0000 0.0000 -8.6940
#
#
#
# Elastic Compliance Matrix: (Units=1/GPa)
#
#
# Indices 1 2 3 4 5 6 
#
# 1 0.023236 -0.004578 -0.017748 0.000000 0.000000 0.000000
# 2 -0.004578 0.034959 0.004331 0.000000 0.000000 0.000000
# 3 -0.017748 0.004331 0.018838 0.000000 0.000000 0.000000
# 4 0.000000 0.000000 0.000000 -0.023363 0.000000 0.000000
# 5 0.000000 0.000000 0.000000 0.000000 -0.013858 0.000000
# 6 0.000000 0.000000 0.000000 0.000000 0.000000 -0.115022
#
#
# Mechanical properties :
#
#
# Convention : Reuss Voigt Hill
#
# Bulk Modulus (GPa) = 24.36516 72.99020 48.67768
# Shear Modulus (GPa) = -195.79142 -9.30821 -102.54982
#
# Velocity S-wave (km/s) = -9.74132 -2.12400 -7.04999
# Velocity P-wave (km/s) = 10.71054 5.41855 6.53280
#
# Compressibility (1/GPa) = 0.04104221
#
# Stress axis : x y z
#
# Youngs Moduli (GPa) = 43.03631 28.60488 53.08317
#
# Poissons Ratio (x) = 0.13096 0.94213
# Poissons Ratio (y) = 0.19703 -0.22989
# Poissons Ratio (z) = 0.76382 -0.12388
#
# Static dielectric constant tensor:
#      x y z
#    x 1.756450 0.000000 0.000000 
#    y 0.000000 1.767240 0.000000 
#    z 0.000000 0.000000 1.728360 
# 
# From -- ./inp_files/66574.got.cif
#   From: 2010.05.17/outbox.cif.g08.bks.cpg/sg63_34_cif.got.tgz:66574.got - 2010.06.03 15:47:04.
