data_PCOD9469070
_publ_section_title
;
Structure prediction by ZEFSAII (Michael W. Deem and Ramdas Pophale) SiO2 
 PCOD9469070
Probable space group: C M C M
;
_chemical_formula_sum "Si O2"
_cell_formula_units_Z 104
_cell_length_a 13.014071
_cell_length_b 24.008293
_cell_length_c 17.066366
_cell_angle_alpha 90.000000
_cell_angle_beta 90.000000
_cell_angle_gamma 90.000000
_cell_volume 5332.311471
_symmetry_space_group_name_H-M "C M C M"
_symmetry_group_IT_number 63
_symmetry_cell_setting 'orthorhombic'
loop_
_space_group_symop_operation_xyz
x,y,z
-x,-y,1/2+z
x,-y,-z
-x,y,1/2-z
-x,-y,-z
x,y,1/2-z
-x,y,z
x,-y,1/2+z
1/2+x,1/2+y,z
1/2-x,1/2-y,1/2+z
1/2+x,1/2-y,-z
1/2-x,1/2+y,1/2-z
1/2-x,1/2-y,-z
1/2+x,1/2+y,1/2-z
1/2-x,1/2+y,z
1/2+x,1/2-y,1/2+z
loop_
_atom_site_type_symbol
_atom_site_label
_atom_site_fract_x
_atom_site_fract_y
_atom_site_fract_z
Si Si1 0.611531 0.796321 0.113317
Si Si2 0.686376 0.886755 0.001215
Si Si3 0.825816 0.235850 0.666849
Si Si4 0.619234 0.448417 0.661247
Si Si5 0.111907 0.190380 0.997383
Si Si6 0.795164 0.000000 0.000000
Si Si7 0.686800 0.869163 0.834959
O O1 0.500000 0.792600 0.151561
O O2 0.712268 0.790524 0.164800
O O3 0.620726 0.852875 0.063481
O O4 0.620361 0.744242 0.052918
O O5 0.635532 0.888777 0.915344
O O6 0.724614 0.947627 0.023039
O O7 0.791116 0.849670 0.992580
O O8 0.875827 0.222790 0.750000
O O9 0.882389 0.213127 0.591017
O O10 0.812459 0.302393 0.661672
O O11 0.632084 0.474993 0.750000
O O12 0.500000 0.431520 0.657056
O O13 0.644689 0.482560 0.580669
O O14 0.699787 0.397220 0.662516
O O15 0.000000 0.163756 0.011246
O O16 0.641774 0.884905 0.750000
#
# Coordination Sequence:
#
# PCOD9469070 Si02
#       7
#    16  16  16  16  16   8  16
#     4  10  19  33  52  72  97 132 166 203 251 301
#     4  10  18  35  51  73 101 133 170 212 250 300
#     4  10  18  31  49  73 104 132 165 207 250 301
#     4   9  18  31  46  69 100 131 168 212 256 305
#     4  10  19  32  51  73 100 135 164 196 248 305
#     4  10  21  32  53  72  96 134 178 210 258 304
#     4   9  16  27  46  70  99 129 157 202 255 298
#
# _framework density 19.503736
#
# number of rings (size 3 to 8) (size 9 to 14) (size 15 to 20)
#    0.000    2.308    3.077    1.154    0.000    4.308 
#    0.000    5.000    0.000    0.462    0.000    0.000 
#    0.000    1.231    0.000    0.000    0.000    0.000 
#
# Total GULP energy -289568.147142 kJ/mol
# GULP energy per Si atom -5568.618214 kJ/mol
# Density = 1.945934 g / cm^3
# Si number density = 19.503736 Si / 1000 Ang^3
#
#
#
# Elastic Constant Matrix: (Units=GPa)
#
#
# Indices 1 2 3 4 5 6 
#
# 1 61.9998 7.7827 1.9179 0.0000 0.0000 0.0000
# 2 7.7827 63.7062 8.3828 0.0000 0.0000 0.0000
# 3 1.9179 8.3828 116.9160 0.0000 0.0000 0.0000
# 4 0.0000 0.0000 0.0000 18.9195 0.0000 0.0000
# 5 0.0000 0.0000 0.0000 0.0000 -1.7518 0.0000
# 6 0.0000 0.0000 0.0000 0.0000 0.0000 6.5574
#
#
#
# Elastic Compliance Matrix: (Units=1/GPa)
#
#
# Indices 1 2 3 4 5 6 
#
# 1 0.016382 -0.001985 -0.000126 0.000000 0.000000 0.000000
# 2 -0.001985 0.016087 -0.001121 0.000000 0.000000 0.000000
# 3 -0.000126 -0.001121 0.008636 0.000000 0.000000 0.000000
# 4 0.000000 0.000000 0.000000 0.052855 0.000000 0.000000
# 5 0.000000 0.000000 0.000000 0.000000 -0.570834 0.000000
# 6 0.000000 0.000000 0.000000 0.000000 0.000000 0.152499
#
#
# Mechanical properties :
#
#
# Convention : Reuss Voigt Hill
#
# Bulk Modulus (GPa) = 28.86776 30.97653 29.92214
# Shear Modulus (GPa) = -16.32043 19.71427 1.69692
#
# Velocity S-wave (km/s) = -2.89586 3.18275 0.93378
# Velocity P-wave (km/s) = 1.91100 5.42433 4.06665
#
# Compressibility (1/GPa) = 0.03464072
#
# Stress axis : x y z
#
# Youngs Moduli (GPa) = 61.04216 62.16196 115.79984
#
# Poissons Ratio (x) = 0.12337 0.01464
# Poissons Ratio (y) = 0.12115 0.12980
# Poissons Ratio (z) = 0.00772 0.06968
#
# Static dielectric constant tensor:
#      x y z
#    x 1.701590 0.000000 0.000000 
#    y 0.000000 1.648250 0.000000 
#    z 0.000000 0.000000 1.750790 
# 
# From -- ./inp_files/44576.got.cif
#   From: 2010.05.17/outbox.cif.g08.bks.cpg/sg63_23_cif.got.tgz:44576.got - 2010.06.03 15:47:04.
