data_PCOD9469503
_publ_section_title
;
Structure prediction by ZEFSAII (Michael W. Deem and Ramdas Pophale) SiO2 
 PCOD9469503
Probable space group: C M C M
;
_chemical_formula_sum "Si O2"
_cell_formula_units_Z 108
_cell_length_a 23.627052
_cell_length_b 14.963165
_cell_length_c 15.725252
_cell_angle_alpha 90.000000
_cell_angle_beta 90.000000
_cell_angle_gamma 90.000000
_cell_volume 5559.434475
_symmetry_space_group_name_H-M "C M C M"
_symmetry_group_IT_number 63
_symmetry_cell_setting 'orthorhombic'
loop_
_space_group_symop_operation_xyz
x,y,z
-x,-y,1/2+z
x,-y,-z
-x,y,1/2-z
-x,-y,-z
x,y,1/2-z
-x,y,z
x,-y,1/2+z
1/2+x,1/2+y,z
1/2-x,1/2-y,1/2+z
1/2+x,1/2-y,-z
1/2-x,1/2+y,1/2-z
1/2-x,1/2-y,-z
1/2+x,1/2+y,1/2-z
1/2-x,1/2+y,z
1/2+x,1/2-y,1/2+z
loop_
_atom_site_type_symbol
_atom_site_label
_atom_site_fract_x
_atom_site_fract_y
_atom_site_fract_z
Si Si1 0.500000 0.678460 0.250000
Si Si2 0.788796 0.883415 0.645910
Si Si3 0.061628 0.310009 0.942740
Si Si4 0.677045 0.225967 0.352529
Si Si5 0.095123 0.500000 0.000000
Si Si6 0.650667 0.086667 0.656490
Si Si7 0.402646 0.275644 0.884994
Si Si8 0.217206 0.086445 0.649952
O O1 0.549946 0.683495 0.324129
O O2 0.788843 0.881993 0.750000
O O3 0.730278 0.834974 0.618665
O O4 0.844785 0.832118 0.616125
O O5 0.790414 0.986434 0.615976
O O6 0.115988 0.306129 0.882466
O O7 0.061293 0.410154 0.980880
O O8 0.000000 0.291287 0.904109
O O9 0.073658 0.243173 0.021018
O O10 0.679545 0.227247 0.250000
O O11 0.685445 0.327496 0.385903
O O12 0.132584 0.521556 0.917905
O O13 0.643141 0.045589 0.750000
O O14 0.614779 0.177243 0.649889
O O15 0.716393 0.109644 0.646491
O O16 0.201658 0.080778 0.750000
#
# Coordination Sequence:
#
# PCOD9469503 Si02
#       8
#     4  16  16  16   8  16  16  16
#     4  12  20  36  64  90 112 156 200 244 300 368
#     4  10  18  34  61  90 119 150 197 254 301 353
#     4  11  24  41  57  82 122 158 200 253 297 355
#     4  10  21  39  63  88 119 164 202 241 300 362
#     4  10  23  36  56  90 116 154 205 246 300 367
#     4  10  18  36  58  83 121 156 192 247 302 360
#     4  11  21  36  62  88 114 152 199 245 308 357
#     4   9  18  33  59  88 119 154 197 246 299 355
#
# _framework density 19.426437
#
# number of rings (size 3 to 8) (size 9 to 14) (size 15 to 20)
#    0.000    1.778    3.704    1.111    0.000    2.667 
#    2.667    0.000    1.630    0.889    0.000    0.000 
#    0.000    0.000    0.000    0.000    0.000    0.000 
#
# Total GULP energy -300811.367157 kJ/mol
# GULP energy per Si atom -5570.580873 kJ/mol
# Density = 1.938222 g / cm^3
# Si number density = 19.426437 Si / 1000 Ang^3
#
#
#
# Elastic Constant Matrix: (Units=GPa)
#
#
# Indices 1 2 3 4 5 6 
#
# 1 149.8606 56.7607 28.5739 0.0000 0.0000 0.0000
# 2 56.7607 96.9694 15.7946 0.0000 0.0000 0.0000
# 3 28.5739 15.7946 38.9597 0.0000 0.0000 0.0000
# 4 0.0000 0.0000 0.0000 10.8179 0.0000 0.0000
# 5 0.0000 0.0000 0.0000 0.0000 -168.5588 0.0000
# 6 0.0000 0.0000 0.0000 0.0000 0.0000 -3.3703
#
#
#
# Elastic Compliance Matrix: (Units=1/GPa)
#
#
# Indices 1 2 3 4 5 6 
#
# 1 0.009401 -0.004690 -0.004994 0.000000 0.000000 0.000000
# 2 -0.004690 0.013381 -0.001985 0.000000 0.000000 0.000000
# 3 -0.004994 -0.001985 0.030135 0.000000 0.000000 0.000000
# 4 0.000000 0.000000 0.000000 0.092439 0.000000 0.000000
# 5 0.000000 0.000000 0.000000 0.000000 -0.005933 0.000000
# 6 0.000000 0.000000 0.000000 0.000000 0.000000 -0.296708
#
#
# Mechanical properties :
#
#
# Convention : Reuss Voigt Hill
#
# Bulk Modulus (GPa) = 33.80700 54.22755 44.01728
# Shear Modulus (GPa) = -40.29433 -19.91152 -30.10293
#
# Velocity S-wave (km/s) = -4.55928 -3.20499 -3.94075
# Velocity P-wave (km/s) = 3.20557 3.77875 1.41479
#
# Compressibility (1/GPa) = 0.02957967
#
# Stress axis : x y z
#
# Youngs Moduli (GPa) = 106.36880 74.73321 33.18399
#
# Poissons Ratio (x) = 0.35047 0.16572
# Poissons Ratio (y) = 0.49882 0.06588
# Poissons Ratio (z) = 0.53119 0.14837
#
# Static dielectric constant tensor:
#      x y z
#    x 1.660040 0.000000 0.000000 
#    y 0.000000 1.710150 0.000000 
#    z 0.000000 0.000000 1.680010 
# 
# From -- ./inp_files/36976.got.cif
#   From: 2010.05.17/outbox.cif.g08.bks.cpg/sg63_19_cif.got.tgz:36976.got - 2010.06.03 15:47:04.
