data_PCOD9469901
_publ_section_title
;
Structure prediction by ZEFSAII (Michael W. Deem and Ramdas Pophale) SiO2 
 PCOD9469901
Probable space group: C M C M
;
_chemical_formula_sum "Si O2"
_cell_formula_units_Z 80
_cell_length_a 8.214818
_cell_length_b 29.621756
_cell_length_c 15.240223
_cell_angle_alpha 90.000000
_cell_angle_beta 90.000000
_cell_angle_gamma 90.000000
_cell_volume 3708.515240
_symmetry_space_group_name_H-M "C M C M"
_symmetry_group_IT_number 63
_symmetry_cell_setting 'orthorhombic'
loop_
_space_group_symop_operation_xyz
x,y,z
-x,-y,1/2+z
x,-y,-z
-x,y,1/2-z
-x,-y,-z
x,y,1/2-z
-x,y,z
x,-y,1/2+z
1/2+x,1/2+y,z
1/2-x,1/2-y,1/2+z
1/2+x,1/2-y,-z
1/2-x,1/2+y,1/2-z
1/2-x,1/2-y,-z
1/2+x,1/2+y,1/2-z
1/2-x,1/2+y,z
1/2+x,1/2-y,1/2+z
loop_
_atom_site_type_symbol
_atom_site_label
_atom_site_fract_x
_atom_site_fract_y
_atom_site_fract_z
Si Si1 0.000000 0.953808 0.357893
Si Si2 0.000000 0.851729 0.146492
Si Si3 0.317370 0.201434 0.394245
Si Si4 0.821979 0.294800 0.395316
Si Si5 0.315620 0.397545 0.855488
Si Si6 0.679047 0.991731 0.857293
O O1 0.000000 0.954679 0.250000
O O2 0.000000 0.902384 0.390316
O O3 0.165104 0.979212 0.385635
O O4 0.164416 0.824830 0.124358
O O5 0.000000 0.856851 0.250000
O O6 0.500000 0.205162 0.358029
O O7 0.211290 0.243791 0.362701
O O8 0.328467 0.206468 0.499185
O O9 0.247764 0.152087 0.376794
O O10 0.000000 0.310901 0.363910
O O11 0.319616 0.400624 0.750000
O O12 0.500000 0.403172 0.887812
O O13 0.207910 0.439829 0.885421
O O14 0.679440 0.992671 0.750000
O O15 0.500000 0.007654 0.885741
#
# Coordination Sequence:
#
# PCOD9469901 Si02
#       6
#     8   8  16  16  16  16
#     4   9  18  34  53  77 109 146 189 229 277 338
#     4  11  24  40  61  87 116 150 189 242 292 326
#     4  10  20  36  59  83 112 154 195 229 276 343
#     4  10  22  40  60  83 111 150 198 236 274 340
#     4  10  19  30  50  85 121 148 182 234 289 339
#     4   9  16  29  50  76 110 148 184 227 280 340
#
# _framework density 21.571974000000001
#
# number of rings (size 3 to 8) (size 9 to 14) (size 15 to 20)
#    0.000    2.200    2.000    1.200    2.800    3.200 
#    0.000    2.000    0.000    2.400    0.000    4.200 
#    0.000    0.000    0.000    0.000    0.000    0.000 
#
# Total GULP energy -223328.568887 kJ/mol
# GULP energy per Si atom -5583.214222 kJ/mol
# Density = 2.152288 g / cm^3
# Si number density = 21.571974 Si / 1000 Ang^3
#
#
#
# Elastic Constant Matrix: (Units=GPa)
#
#
# Indices 1 2 3 4 5 6 
#
# 1 221.5653 97.7942 9.3945 0.0000 0.0000 0.0000
# 2 97.7942 156.4611 1.1167 0.0000 0.0000 0.0000
# 3 9.3945 1.1167 32.3576 0.0000 0.0000 0.0000
# 4 0.0000 0.0000 0.0000 28.9544 0.0000 0.0000
# 5 0.0000 0.0000 0.0000 0.0000 6.9718 0.0000
# 6 0.0000 0.0000 0.0000 0.0000 0.0000 25.6695
#
#
#
# Elastic Compliance Matrix: (Units=1/GPa)
#
#
# Indices 1 2 3 4 5 6 
#
# 1 0.006325 -0.003941 -0.001700 0.000000 0.000000 0.000000
# 2 -0.003941 0.008849 0.000839 0.000000 0.000000 0.000000
# 3 -0.001700 0.000839 0.031369 0.000000 0.000000 0.000000
# 4 0.000000 0.000000 0.000000 0.034537 0.000000 0.000000
# 5 0.000000 0.000000 0.000000 0.000000 0.143434 0.000000
# 6 0.000000 0.000000 0.000000 0.000000 0.000000 0.038957
#
#
# Mechanical properties :
#
#
# Convention : Reuss Voigt Hill
#
# Bulk Modulus (GPa) = 27.07256 69.66609 48.36933
# Shear Modulus (GPa) = 17.51994 32.45773 24.98883
#
# Velocity S-wave (km/s) = 2.85294 3.88316 3.40721
# Velocity P-wave (km/s) = 4.84040 7.24362 6.16034
#
# Compressibility (1/GPa) = 0.03693776
#
# Stress axis : x y z
#
# Youngs Moduli (GPa) = 158.10231 113.00961 31.87824
#
# Poissons Ratio (x) = 0.44540 0.05420
# Poissons Ratio (y) = 0.62312 -0.02674
# Poissons Ratio (z) = 0.26883 -0.09480
#
# Static dielectric constant tensor:
#      x y z
#    x 3.906450 0.000000 0.000000 
#    y 0.000000 1.775450 0.000000 
#    z 0.000000 0.000000 1.797740 
# 
# From -- ./inp_files/40593.got.cif
#   From: 2010.05.17/outbox.cif.g08.bks.cpg/sg63_21_cif.got.tgz:40593.got - 2010.06.03 15:47:04.
