data_PCOD9469350
_publ_section_title
;
Structure prediction by ZEFSAII (Michael W. Deem and Ramdas Pophale) SiO2 
 PCOD9469350
Probable space group: C M C M
;
_chemical_formula_sum "Si O2"
_cell_formula_units_Z 72
_cell_length_a 24.274479
_cell_length_b 17.787123
_cell_length_c 8.481094
_cell_angle_alpha 90.000000
_cell_angle_beta 90.000000
_cell_angle_gamma 90.000000
_cell_volume 3661.908619
_symmetry_space_group_name_H-M "C M C M"
_symmetry_group_IT_number 63
_symmetry_cell_setting 'orthorhombic'
loop_
_space_group_symop_operation_xyz
x,y,z
-x,-y,1/2+z
x,-y,-z
-x,y,1/2-z
-x,-y,-z
x,y,1/2-z
-x,y,z
x,-y,1/2+z
1/2+x,1/2+y,z
1/2-x,1/2-y,1/2+z
1/2+x,1/2-y,-z
1/2-x,1/2+y,1/2-z
1/2-x,1/2-y,-z
1/2+x,1/2+y,1/2-z
1/2-x,1/2+y,z
1/2+x,1/2-y,1/2+z
loop_
_atom_site_type_symbol
_atom_site_label
_atom_site_fract_x
_atom_site_fract_y
_atom_site_fract_z
Si Si1 0.558619 0.586243 0.940103
Si Si2 0.777404 0.674055 0.065448
Si Si3 0.176571 0.915466 0.440102
Si Si4 0.617633 0.913832 0.062480
Si Si5 0.500000 0.085753 0.062027
O O1 0.558946 0.583623 0.750000
O O2 0.500000 0.620824 0.991586
O O3 0.617423 0.621791 0.984195
O O4 0.557956 0.500000 0.000000
O O5 0.787978 0.683061 0.250000
O O6 0.750000 0.750000 0.000000
O O7 0.728900 0.615824 0.029085
O O8 0.832716 0.640924 0.987873
O O9 0.183983 0.911127 0.250000
O O10 0.171210 0.000000 0.500000
O O11 0.615077 0.918827 0.250000
O O12 0.558620 0.884127 0.999031
O O13 0.626497 0.000000 0.000000
O O14 0.500000 0.086911 0.250000
O O15 0.500000 0.000000 0.000000
#
# Coordination Sequence:
#
# PCOD9469350 Si02
#       5
#    16  16  16  16   8
#     4   8  14  25  44  71 102 134 169 212 259 307
#     4  12  25  41  58  79 110 149 192 237 290 349
#     4  10  19  33  54  81 110 142 183 229 278 330
#     4  11  21  37  61  91 122 155 194 241 292 348
#     4  10  18  32  56  90 124 154 189 236 291 346
#
# _framework density 19.661878000000002
#
# number of rings (size 3 to 8) (size 9 to 14) (size 15 to 20)
#    0.000    1.778    0.000    7.667    0.000    0.889 
#    0.000    0.000    2.444    0.000    0.000    0.000 
#    0.000    0.000    0.000    0.000    0.000    0.000 
#
# Total GULP energy -200635.179939 kJ/mol
# GULP energy per Si atom -5573.199443 kJ/mol
# Density = 1.961713 g / cm^3
# Si number density = 19.661878 Si / 1000 Ang^3
#
#
#
# Elastic Constant Matrix: (Units=GPa)
#
#
# Indices 1 2 3 4 5 6 
#
# 1 202.7339 44.4348 52.0663 0.0000 0.0000 0.0000
# 2 44.4348 39.8070 22.8774 0.0000 0.0000 0.0000
# 3 52.0663 22.8774 135.7597 0.0000 0.0000 0.0000
# 4 0.0000 0.0000 0.0000 23.3035 0.0000 0.0000
# 5 0.0000 0.0000 0.0000 0.0000 25.5557 0.0000
# 6 0.0000 0.0000 0.0000 0.0000 0.0000 4.0300
#
#
#
# Elastic Compliance Matrix: (Units=1/GPa)
#
#
# Indices 1 2 3 4 5 6 
#
# 1 0.006785 -0.006730 -0.001468 0.000000 0.000000 0.000000
# 2 -0.006730 0.034490 -0.003231 0.000000 0.000000 0.000000
# 3 -0.001468 -0.003231 0.008473 0.000000 0.000000 0.000000
# 4 0.000000 0.000000 0.000000 0.042912 0.000000 0.000000
# 5 0.000000 0.000000 0.000000 0.000000 0.039130 0.000000
# 6 0.000000 0.000000 0.000000 0.000000 0.000000 0.248137
#
#
# Mechanical properties :
#
#
# Convention : Reuss Voigt Hill
#
# Bulk Modulus (GPa) = 37.18764 68.56195 52.87479
# Shear Modulus (GPa) = 12.14334 27.83933 19.99133
#
# Velocity S-wave (km/s) = 2.48787 3.76693 3.19212
# Velocity P-wave (km/s) = 5.21606 7.33934 6.36684
#
# Compressibility (1/GPa) = 0.02689065
#
# Stress axis : x y z
#
# Youngs Moduli (GPa) = 147.39334 28.99379 118.01590
#
# Poissons Ratio (x) = 0.19512 0.17324
# Poissons Ratio (y) = 0.99191 0.38133
# Poissons Ratio (z) = 0.21637 0.09368
#
# Static dielectric constant tensor:
#      x y z
#    x 1.831350 0.000000 0.000000 
#    y 0.000000 1.704530 0.000000 
#    z 0.000000 0.000000 1.675650 
# 
# From -- ./inp_files/9857.got.cif
#   From: 2010.05.17/outbox.cif.g08.bks.cpg/sg63_5_cif.got.tgz:9857.got - 2010.06.03 15:47:04.
