data_PCOD9469301
_publ_section_title
;
Structure prediction by ZEFSAII (Michael W. Deem and Ramdas Pophale) SiO2 
 PCOD9469301
Probable space group: C M C M
;
_chemical_formula_sum "Si O2"
_cell_formula_units_Z 72
_cell_length_a 9.642243
_cell_length_b 29.428612
_cell_length_c 14.784099
_cell_angle_alpha 90.000000
_cell_angle_beta 90.000000
_cell_angle_gamma 90.000000
_cell_volume 4195.103822
_symmetry_space_group_name_H-M "C M C M"
_symmetry_group_IT_number 63
_symmetry_cell_setting 'orthorhombic'
loop_
_space_group_symop_operation_xyz
x,y,z
-x,-y,1/2+z
x,-y,-z
-x,y,1/2-z
-x,-y,-z
x,y,1/2-z
-x,y,z
x,-y,1/2+z
1/2+x,1/2+y,z
1/2-x,1/2-y,1/2+z
1/2+x,1/2-y,-z
1/2-x,1/2+y,1/2-z
1/2-x,1/2-y,-z
1/2+x,1/2+y,1/2-z
1/2-x,1/2+y,z
1/2+x,1/2-y,1/2+z
loop_
_atom_site_type_symbol
_atom_site_label
_atom_site_fract_x
_atom_site_fract_y
_atom_site_fract_z
Si Si1 0.161896 0.299227 0.750000
Si Si2 0.835019 0.781253 0.930736
Si Si3 0.243841 0.900939 0.750000
Si Si4 0.333811 0.005447 0.750000
Si Si5 0.161842 0.455300 0.438110
Si Si6 0.652314 0.612665 0.047050
O O1 0.249329 0.282441 0.836751
O O2 0.164219 0.354773 0.750000
O O3 0.000000 0.284922 0.750000
O O4 0.832279 0.833435 0.964394
O O5 0.000000 0.769158 0.920493
O O6 0.750000 0.750000 0.000000
O O7 0.164608 0.896995 0.845391
O O8 0.308311 0.951296 0.750000
O O9 0.500000 0.010240 0.750000
O O10 0.280678 0.029928 0.840404
O O11 0.171002 0.500000 0.500000
O O12 0.237403 0.415114 0.489997
O O13 0.000000 0.443553 0.428355
O O14 0.500000 0.598333 0.016653
#
# Coordination Sequence:
#
# PCOD9469301 Si02
#       6
#     8  16   8   8  16  16
#     4  10  20  33  57  88 114 142 180 226 285 342
#     4  10  21  38  59  83 113 146 186 234 284 335
#     4  10  18  32  53  81 109 141 177 225 272 323
#     4  10  19  33  50  75 109 141 181 227 267 309
#     4  10  20  34  53  76 105 144 184 223 265 320
#     4  10  21  36  54  80 112 142 177 226 277 326
#
# _framework density 17.162866000000001
#
# number of rings (size 3 to 8) (size 9 to 14) (size 15 to 20)
#    0.000    2.000    2.222    1.667    0.000    7.556 
#    0.000    1.667    0.000    5.333    0.000    0.000 
#    0.000    0.000    0.000    0.000    0.000    0.000 
#
# Total GULP energy -200569.770375 kJ/mol
# GULP energy per Si atom -5571.382510 kJ/mol
# Density = 1.712380 g / cm^3
# Si number density = 17.162866 Si / 1000 Ang^3
#
#
#
# Elastic Constant Matrix: (Units=GPa)
#
#
# Indices 1 2 3 4 5 6 
#
# 1 122.3510 52.1069 66.1506 0.0000 0.0000 0.0000
# 2 52.1069 69.0474 62.0020 0.0000 0.0000 0.0000
# 3 66.1506 62.0020 124.3010 0.0000 0.0000 0.0000
# 4 0.0000 0.0000 0.0000 30.1635 0.0000 0.0000
# 5 0.0000 0.0000 0.0000 0.0000 13.3343 0.0000
# 6 0.0000 0.0000 0.0000 0.0000 0.0000 22.5137
#
#
#
# Elastic Compliance Matrix: (Units=1/GPa)
#
#
# Indices 1 2 3 4 5 6 
#
# 1 0.012892 -0.006463 -0.003637 0.000000 0.000000 0.000000
# 2 -0.006463 0.029473 -0.011262 0.000000 0.000000 0.000000
# 3 -0.003637 -0.011262 0.015598 0.000000 0.000000 0.000000
# 4 0.000000 0.000000 0.000000 0.033153 0.000000 0.000000
# 5 0.000000 0.000000 0.000000 0.000000 0.074995 0.000000
# 6 0.000000 0.000000 0.000000 0.000000 0.000000 0.044417
#
#
# Mechanical properties :
#
#
# Convention : Reuss Voigt Hill
#
# Bulk Modulus (GPa) = 65.62049 75.13538 70.37794
# Shear Modulus (GPa) = 19.35500 22.23163 20.79331
#
# Velocity S-wave (km/s) = 3.36181 3.60298 3.48448
# Velocity P-wave (km/s) = 7.30657 7.82186 7.56860
#
# Compressibility (1/GPa) = 0.01523914
#
# Stress axis : x y z
#
# Youngs Moduli (GPa) = 77.56636 33.92959 64.11100
#
# Poissons Ratio (x) = 0.21929 0.23318
# Poissons Ratio (y) = 0.50132 0.72199
# Poissons Ratio (z) = 0.28212 0.38210
#
# Static dielectric constant tensor:
#      x y z
#    x 1.592080 0.000000 0.000000 
#    y 0.000000 1.553430 0.000000 
#    z 0.000000 0.000000 1.611660 
# 
# From -- ./inp_files/27977.got.cif
#   From: 2010.05.17/outbox.cif.g08.bks.cpg/sg63_14_cif.got.tgz:27977.got - 2010.06.03 15:47:04.
