data_PCOD9469890
_publ_section_title
;
Structure prediction by ZEFSAII (Michael W. Deem and Ramdas Pophale) SiO2 
 PCOD9469890
Probable space group: C M C M
;
_chemical_formula_sum "Si O2"
_cell_formula_units_Z 88
_cell_length_a 24.776533
_cell_length_b 25.050724
_cell_length_c 9.541905
_cell_angle_alpha 90.000000
_cell_angle_beta 90.000000
_cell_angle_gamma 90.000000
_cell_volume 5922.375034
_symmetry_space_group_name_H-M "C M C M"
_symmetry_group_IT_number 63
_symmetry_cell_setting 'orthorhombic'
loop_
_space_group_symop_operation_xyz
x,y,z
-x,-y,1/2+z
x,-y,-z
-x,y,1/2-z
-x,-y,-z
x,y,1/2-z
-x,y,z
x,-y,1/2+z
1/2+x,1/2+y,z
1/2-x,1/2-y,1/2+z
1/2+x,1/2-y,-z
1/2-x,1/2+y,1/2-z
1/2-x,1/2-y,-z
1/2+x,1/2+y,1/2-z
1/2-x,1/2+y,z
1/2+x,1/2-y,1/2+z
loop_
_atom_site_type_symbol
_atom_site_label
_atom_site_fract_x
_atom_site_fract_y
_atom_site_fract_z
Si Si1 0.500000 0.553677 0.086755
Si Si2 0.240594 0.831757 0.416085
Si Si3 0.911840 0.104318 0.906049
Si Si4 0.335474 0.251242 0.584893
Si Si5 0.936378 0.770081 0.410251
Si Si6 0.292405 0.554406 0.913254
O O1 0.500000 0.545052 0.250000
O O2 0.500000 0.500000 0.000000
O O3 0.447924 0.584705 0.032982
O O4 0.224963 0.829721 0.250000
O O5 0.296662 0.800160 0.431146
O O6 0.196698 0.799084 0.506343
O O7 0.243170 0.894056 0.456327
O O8 0.931651 0.087158 0.750000
O O9 0.917729 0.167980 0.907439
O O10 0.852780 0.079293 0.922105
O O11 0.340629 0.263169 0.750000
O O12 0.393619 0.243200 0.513872
O O13 0.931103 0.750143 0.250000
O O14 0.000000 0.767426 0.448566
O O15 0.281804 0.542439 0.750000
O O16 0.287476 0.500000 0.000000
#
# Coordination Sequence:
#
# PCOD9469890 Si02
#       6
#     8  16  16  16  16  16
#     4  12  24  34  44  58  80 112 156 206 241 274
#     4   9  18  34  50  67  94 128 156 188 240 291
#     4  10  19  34  49  61  83 120 158 192 232 277
#     4  10  19  30  50  74  94 118 157 201 235 277
#     4  10  19  33  51  67  92 128 158 188 237 289
#     4  10  20  33  49  66  90 121 155 193 231 275
#
# _framework density 14.858903
#
# number of rings (size 3 to 8) (size 9 to 14) (size 15 to 20)
#    0.000    2.000    2.727    1.909    0.000    4.727 
#    0.000    0.000    0.000    0.000    0.000    0.000 
#    0.000    0.727    0.000    1.636    0.000    2.909 
#
# Total GULP energy -245179.931599 kJ/mol
# GULP energy per Si atom -5572.271173 kJ/mol
# Density = 1.482508 g / cm^3
# Si number density = 14.858903 Si / 1000 Ang^3
#
#
#
# Elastic Constant Matrix: (Units=GPa)
#
#
# Indices 1 2 3 4 5 6 
#
# 1 83.8850 42.9019 55.4612 0.0000 0.0000 0.0000
# 2 42.9019 77.4570 42.9914 0.0000 0.0000 0.0000
# 3 55.4612 42.9914 93.5179 0.0000 0.0000 0.0000
# 4 0.0000 0.0000 0.0000 22.3229 0.0000 0.0000
# 5 0.0000 0.0000 0.0000 0.0000 15.2715 0.0000
# 6 0.0000 0.0000 0.0000 0.0000 0.0000 19.8069
#
#
#
# Elastic Compliance Matrix: (Units=1/GPa)
#
#
# Indices 1 2 3 4 5 6 
#
# 1 0.021862 -0.006595 -0.009933 0.000000 0.000000 0.000000
# 2 -0.006595 0.019323 -0.004971 0.000000 0.000000 0.000000
# 3 -0.009933 -0.004971 0.018869 0.000000 0.000000 0.000000
# 4 0.000000 0.000000 0.000000 0.044797 0.000000 0.000000
# 5 0.000000 0.000000 0.000000 0.000000 0.065481 0.000000
# 6 0.000000 0.000000 0.000000 0.000000 0.000000 0.050487
#
#
# Mechanical properties :
#
#
# Convention : Reuss Voigt Hill
#
# Bulk Modulus (GPa) = 58.63801 59.72989 59.18395
# Shear Modulus (GPa) = 18.55258 19.04730 18.79994
#
# Velocity S-wave (km/s) = 3.53736 3.58422 3.56087
# Velocity P-wave (km/s) = 7.49885 7.57721 7.53813
#
# Compressibility (1/GPa) = 0.01705379
#
# Stress axis : x y z
#
# Youngs Moduli (GPa) = 45.74234 51.75220 52.99571
#
# Poissons Ratio (x) = 0.34133 0.52641
# Poissons Ratio (y) = 0.30169 0.26347
# Poissons Ratio (z) = 0.45436 0.25729
#
# Static dielectric constant tensor:
#      x y z
#    x 1.510550 0.000000 0.000000 
#    y 0.000000 1.503740 0.000000 
#    z 0.000000 0.000000 1.538180 
# 
# From -- ./inp_files/9003.got.cif
#   From: 2010.05.17/outbox.cif.g08.bks.cpg/sg63_5_cif.got.tgz:9003.got - 2010.06.03 15:47:04.
