data_PCOD9469810
_publ_section_title
;
Structure prediction by ZEFSAII (Michael W. Deem and Ramdas Pophale) SiO2 
 PCOD9469810
Probable space group: C M C M
;
_chemical_formula_sum "Si O2"
_cell_formula_units_Z 128
_cell_length_a 18.910579
_cell_length_b 24.197557
_cell_length_c 17.505427
_cell_angle_alpha 90.000000
_cell_angle_beta 90.000000
_cell_angle_gamma 90.000000
_cell_volume 8010.305072
_symmetry_space_group_name_H-M "C M C M"
_symmetry_group_IT_number 63
_symmetry_cell_setting 'orthorhombic'
loop_
_space_group_symop_operation_xyz
x,y,z
-x,-y,1/2+z
x,-y,-z
-x,y,1/2-z
-x,-y,-z
x,y,1/2-z
-x,y,z
x,-y,1/2+z
1/2+x,1/2+y,z
1/2-x,1/2-y,1/2+z
1/2+x,1/2-y,-z
1/2-x,1/2+y,1/2-z
1/2-x,1/2-y,-z
1/2+x,1/2+y,1/2-z
1/2-x,1/2+y,z
1/2+x,1/2-y,1/2+z
loop_
_atom_site_type_symbol
_atom_site_label
_atom_site_fract_x
_atom_site_fract_y
_atom_site_fract_z
Si Si1 0.083784 0.701196 0.112754
Si Si2 0.622118 0.377013 0.048741
Si Si3 0.690077 0.716521 0.165853
Si Si4 0.919479 0.975382 0.341050
Si Si5 0.300033 0.884440 0.838922
Si Si6 0.077002 0.770555 0.534605
Si Si7 0.318354 0.299494 0.166816
Si Si8 0.198702 0.957071 0.567226
O O1 0.129434 0.646615 0.131137
O O2 0.121041 0.752397 0.157082
O O3 0.000000 0.696420 0.129763
O O4 0.091453 0.720963 0.024818
O O5 0.585612 0.420406 0.106210
O O6 0.678013 0.344264 0.100850
O O7 0.576491 0.327160 0.014506
O O8 0.657698 0.409136 0.978930
O O9 0.656296 0.714913 0.250000
O O10 0.738645 0.662308 0.158131
O O11 0.635713 0.722738 0.098114
O O12 0.745271 0.766780 0.163406
O O13 0.909404 0.965518 0.250000
O O14 0.000000 0.997704 0.350652
O O15 0.858136 0.014959 0.374945
O O16 0.310078 0.899661 0.750000
O O17 0.266890 0.933694 0.888723
O O18 0.000000 0.762010 0.569213
O O19 0.327279 0.325595 0.250000
O O20 0.217907 0.000000 0.500000
#
# Coordination Sequence:
#
# PCOD9469810 Si02
#       8
#    16  16  16  16  16  16  16  16
#     4   9  19  31  49  76 101 127 155 191 241 291
#     4  10  19  31  50  69  94 128 164 197 235 289
#     4   9  18  31  47  70  99 133 166 196 233 280
#     4  10  21  36  51  67  94 129 165 206 246 283
#     4  10  19  33  52  72  98 127 160 201 241 291
#     4  10  19  30  46  72 104 131 161 199 232 278
#     4   9  18  30  48  73 101 128 158 197 232 280
#     4  10  21  34  50  72  92 125 165 209 242 280
#
# _framework density 15.979417
#
# number of rings (size 3 to 8) (size 9 to 14) (size 15 to 20)
#    0.000    2.375    1.250    2.250    1.750    6.000 
#    0.000    0.000    0.000    0.375    0.000    0.000 
#    0.000    0.000    0.000    0.000    0.000    0.000 
#
# Total GULP energy -356418.043766 kJ/mol
# GULP energy per Si atom -5569.031934 kJ/mol
# Density = 1.594305 g / cm^3
# Si number density = 15.979417 Si / 1000 Ang^3
#
#
#
# Elastic Constant Matrix: (Units=GPa)
#
#
# Indices 1 2 3 4 5 6 
#
# 1 83.4356 31.7649 63.0208 0.0000 0.0000 0.0000
# 2 31.7649 55.3532 31.8189 0.0000 0.0000 0.0000
# 3 63.0208 31.8189 100.2084 0.0000 0.0000 0.0000
# 4 0.0000 0.0000 0.0000 20.5804 0.0000 0.0000
# 5 0.0000 0.0000 0.0000 0.0000 20.5413 0.0000
# 6 0.0000 0.0000 0.0000 0.0000 0.0000 11.2560
#
#
#
# Elastic Compliance Matrix: (Units=1/GPa)
#
#
# Indices 1 2 3 4 5 6 
#
# 1 0.024541 -0.006375 -0.013409 0.000000 0.000000 0.000000
# 2 -0.006375 0.023755 -0.003534 0.000000 0.000000 0.000000
# 3 -0.013409 -0.003534 0.019534 0.000000 0.000000 0.000000
# 4 0.000000 0.000000 0.000000 0.048590 0.000000 0.000000
# 5 0.000000 0.000000 0.000000 0.000000 0.048682 0.000000
# 6 0.000000 0.000000 0.000000 0.000000 0.000000 0.088842
#
#
# Mechanical properties :
#
#
# Convention : Reuss Voigt Hill
#
# Bulk Modulus (GPa) = 47.18224 54.68959 50.93591
# Shear Modulus (GPa) = 16.25247 17.96837 17.11042
#
# Velocity S-wave (km/s) = 3.19264 3.35695 3.27583
# Velocity P-wave (km/s) = 6.57127 7.02316 6.80097
#
# Compressibility (1/GPa) = 0.02119442
#
# Stress axis : x y z
#
# Youngs Moduli (GPa) = 40.74871 42.09572 51.19152
#
# Poissons Ratio (x) = 0.26835 0.68645
# Poissons Ratio (y) = 0.25976 0.18091
# Poissons Ratio (z) = 0.54642 0.14877
#
# Static dielectric constant tensor:
#      x y z
#    x 1.519490 0.000000 0.000000 
#    y 0.000000 1.539840 0.000000 
#    z 0.000000 0.000000 1.549270 
# 
# From -- ./inp_files/46328.got.cif
#   From: 2010.05.17/outbox.cif.g08.bks.cpg/sg63_24_cif.got.tgz:46328.got - 2010.06.03 15:47:04.
