data_PCOD9469653
_publ_section_title
;
Structure prediction by ZEFSAII (Michael W. Deem and Ramdas Pophale) SiO2 
 PCOD9469653
Probable space group: C M C M
;
_chemical_formula_sum "Si O2"
_cell_formula_units_Z 80
_cell_length_a 17.145630
_cell_length_b 17.466390
_cell_length_c 14.255920
_cell_angle_alpha 90.000000
_cell_angle_beta 90.000000
_cell_angle_gamma 90.000000
_cell_volume 4269.252586
_symmetry_space_group_name_H-M "C M C M"
_symmetry_group_IT_number 63
_symmetry_cell_setting 'orthorhombic'
loop_
_space_group_symop_operation_xyz
x,y,z
-x,-y,1/2+z
x,-y,-z
-x,y,1/2-z
-x,-y,-z
x,y,1/2-z
-x,y,z
x,-y,1/2+z
1/2+x,1/2+y,z
1/2-x,1/2-y,1/2+z
1/2+x,1/2-y,-z
1/2-x,1/2+y,1/2-z
1/2-x,1/2-y,-z
1/2+x,1/2+y,1/2-z
1/2-x,1/2+y,z
1/2+x,1/2-y,1/2+z
loop_
_atom_site_type_symbol
_atom_site_label
_atom_site_fract_x
_atom_site_fract_y
_atom_site_fract_z
Si Si1 0.410113 0.038787 0.635552
Si Si2 0.908510 0.769856 0.139789
Si Si3 0.406384 0.794649 0.142959
Si Si4 0.812500 0.816756 0.980659
Si Si5 0.185932 0.389152 0.637791
O O1 0.410880 0.042557 0.750000
O O2 0.500000 0.028884 0.606417
O O3 0.380374 0.122300 0.603909
O O4 0.359681 0.965767 0.609979
O O5 0.902743 0.787099 0.250000
O O6 0.870384 0.685305 0.125785
O O7 0.000000 0.768125 0.113685
O O8 0.858244 0.828923 0.077653
O O9 0.378458 0.788103 0.250000
O O10 0.500000 0.797241 0.143278
O O11 0.375598 0.723554 0.085919
O O12 0.763453 0.879128 0.924182
O O13 0.750000 0.750000 0.000000
O O14 0.203578 0.392286 0.750000
#
# Coordination Sequence:
#
# PCOD9469653 Si02
#       5
#    16  16  16  16  16
#     4   8  14  26  46  72 101 133 164 190 223 276
#     4   9  17  29  44  60  82 118 162 204 242 279
#     4   9  17  30  49  72 100 133 163 192 231 283
#     4  10  19  29  42  65  97 129 159 195 240 288
#     4   9  16  27  45  69  98 127 154 191 237 287
#
# _framework density 18.738644000000001
#
# number of rings (size 3 to 8) (size 9 to 14) (size 15 to 20)
#    0.000    3.000    0.000    3.000    0.000    3.200 
#    0.000    4.000    0.000   10.800    0.000    1.400 
#    0.000   35.200    0.000  122.000    0.000    0.000 
#
# Total GULP energy -223041.950715 kJ/mol
# GULP energy per Si atom -5576.048768 kJ/mol
# Density = 1.869599 g / cm^3
# Si number density = 18.738644 Si / 1000 Ang^3
#
#
#
# Elastic Constant Matrix: (Units=GPa)
#
#
# Indices 1 2 3 4 5 6 
#
# 1 78.0371 25.1138 40.1165 0.0000 0.0000 0.0000
# 2 25.1138 43.0037 14.5461 0.0000 0.0000 0.0000
# 3 40.1165 14.5461 67.5224 0.0000 0.0000 0.0000
# 4 0.0000 0.0000 0.0000 12.1718 0.0000 0.0000
# 5 0.0000 0.0000 0.0000 0.0000 26.0125 0.0000
# 6 0.0000 0.0000 0.0000 0.0000 0.0000 19.3249
#
#
#
# Elastic Compliance Matrix: (Units=1/GPa)
#
#
# Indices 1 2 3 4 5 6 
#
# 1 0.021098 -0.008716 -0.010657 0.000000 0.000000 0.000000
# 2 -0.008716 0.028682 -0.001000 0.000000 0.000000 0.000000
# 3 -0.010657 -0.001000 0.021357 0.000000 0.000000 0.000000
# 4 0.000000 0.000000 0.000000 0.082157 0.000000 0.000000
# 5 0.000000 0.000000 0.000000 0.000000 0.038443 0.000000
# 6 0.000000 0.000000 0.000000 0.000000 0.000000 0.051747
#
#
# Mechanical properties :
#
#
# Convention : Reuss Voigt Hill
#
# Bulk Modulus (GPa) = 32.90567 38.67957 35.79262
# Shear Modulus (GPa) = 16.98591 18.75428 17.87009
#
# Velocity S-wave (km/s) = 3.01402 3.16703 3.09147
# Velocity P-wave (km/s) = 5.45077 5.83608 5.64671
#
# Compressibility (1/GPa) = 0.03038990
#
# Stress axis : x y z
#
# Youngs Moduli (GPa) = 47.39802 34.86456 46.82305
#
# Poissons Ratio (x) = 0.30389 0.49899
# Poissons Ratio (y) = 0.41313 0.04684
# Poissons Ratio (z) = 0.50512 0.03488
#
# Static dielectric constant tensor:
#      x y z
#    x 1.634020 0.000000 0.000000 
#    y 0.000000 1.635390 0.000000 
#    z 0.000000 0.000000 1.774700 
# 
# From -- ./inp_files/33836.got.cif
#   From: 2010.05.17/outbox.cif.g08.bks.cpg/sg63_17_cif.got.tgz:33836.got - 2010.06.03 15:47:04.
