data_PCOD9469333
_publ_section_title
;
Structure prediction by ZEFSAII (Michael W. Deem and Ramdas Pophale) SiO2 
 PCOD9469333
Probable space group: C M C M
;
_chemical_formula_sum "Si O2"
_cell_formula_units_Z 96
_cell_length_a 29.104671
_cell_length_b 20.712884
_cell_length_c 8.829102
_cell_angle_alpha 90.000000
_cell_angle_beta 90.000000
_cell_angle_gamma 90.000000
_cell_volume 5322.550632
_symmetry_space_group_name_H-M "C M C M"
_symmetry_group_IT_number 63
_symmetry_cell_setting 'orthorhombic'
loop_
_space_group_symop_operation_xyz
x,y,z
-x,-y,1/2+z
x,-y,-z
-x,y,1/2-z
-x,-y,-z
x,y,1/2-z
-x,y,z
x,-y,1/2+z
1/2+x,1/2+y,z
1/2-x,1/2-y,1/2+z
1/2+x,1/2-y,-z
1/2-x,1/2+y,1/2-z
1/2-x,1/2-y,-z
1/2+x,1/2+y,1/2-z
1/2-x,1/2+y,z
1/2+x,1/2-y,1/2+z
loop_
_atom_site_type_symbol
_atom_site_label
_atom_site_fract_x
_atom_site_fract_y
_atom_site_fract_z
Si Si1 0.090716 0.200066 0.568040
Si Si2 0.052219 0.661860 0.434592
Si Si3 0.555164 0.565094 0.576148
Si Si4 0.310847 0.698796 0.076057
Si Si5 0.637844 0.928276 0.932722
Si Si6 0.278474 0.151840 0.925038
O O1 0.085021 0.200794 0.750000
O O2 0.067293 0.266385 0.513478
O O3 0.069190 0.133721 0.507509
O O4 0.143849 0.197724 0.524881
O O5 0.051983 0.662338 0.250000
O O6 0.091905 0.611467 0.479330
O O7 0.000000 0.646984 0.483687
O O8 0.572862 0.500000 0.500000
O O9 0.570643 0.564376 0.750000
O O10 0.500000 0.562806 0.574604
O O11 0.320920 0.681429 0.250000
O O12 0.294525 0.773375 0.074400
O O13 0.270299 0.654323 0.010132
O O14 0.639400 0.930292 0.750000
O O15 0.682579 0.890474 0.993936
O O16 0.636597 0.000000 0.000000
O O17 0.273401 0.131606 0.750000
#
# Coordination Sequence:
#
# PCOD9469333 Si02
#       6
#    16  16  16  16  16  16
#     4  10  18  32  55  82 110 144 186 230 275 327
#     4   9  18  33  55  82 110 144 190 239 283 331
#     4   9  18  32  51  75 105 143 183 222 266 321
#     4  10  20  33  55  84 113 139 173 223 278 331
#     4  11  22  37  58  82 113 151 191 235 287 340
#     4  10  20  36  57  81 109 141 181 223 271 332
#
# _framework density 18.036465
#
# number of rings (size 3 to 8) (size 9 to 14) (size 15 to 20)
#    0.000    2.167    1.667    2.000    0.000    4.333 
#    0.000    0.833    0.000    7.000    0.000    0.000 
#    0.000    0.000    0.000    0.000    0.000    0.000 
#
# Total GULP energy -267604.065394 kJ/mol
# GULP energy per Si atom -5575.084696 kJ/mol
# Density = 1.799541 g / cm^3
# Si number density = 18.036465 Si / 1000 Ang^3
#
#
#
# Elastic Constant Matrix: (Units=GPa)
#
#
# Indices 1 2 3 4 5 6 
#
# 1 67.8397 45.7926 3.4712 0.0000 0.0000 0.0000
# 2 45.7926 113.0789 34.4284 0.0000 0.0000 0.0000
# 3 3.4712 34.4284 29.2430 0.0000 0.0000 0.0000
# 4 0.0000 0.0000 0.0000 24.7932 0.0000 0.0000
# 5 0.0000 0.0000 0.0000 0.0000 22.0925 0.0000
# 6 0.0000 0.0000 0.0000 0.0000 0.0000 13.2723
#
#
#
# Elastic Compliance Matrix: (Units=1/GPa)
#
#
# Indices 1 2 3 4 5 6 
#
# 1 0.023014 -0.013231 0.012845 0.000000 0.000000 0.000000
# 2 -0.013231 0.021391 -0.023613 0.000000 0.000000 0.000000
# 3 0.012845 -0.023613 0.060472 0.000000 0.000000 0.000000
# 4 0.000000 0.000000 0.000000 0.040334 0.000000 0.000000
# 5 0.000000 0.000000 0.000000 0.000000 0.045264 0.000000
# 6 0.000000 0.000000 0.000000 0.000000 0.000000 0.075345
#
#
# Mechanical properties :
#
#
# Convention : Reuss Voigt Hill
#
# Bulk Modulus (GPa) = 17.58129 41.94956 29.76543
# Shear Modulus (GPa) = 15.02510 20.46288 17.74399
#
# Velocity S-wave (km/s) = 2.88937 3.37193 3.13994
# Velocity P-wave (km/s) = 4.57166 6.20230 5.44833
#
# Compressibility (1/GPa) = 0.05687865
#
# Stress axis : x y z
#
# Youngs Moduli (GPa) = 43.45140 46.74951 16.53670
#
# Poissons Ratio (x) = 0.61853 -0.21241
# Poissons Ratio (y) = 0.57489 0.39048
# Poissons Ratio (z) = -0.55813 1.10390
#
# Static dielectric constant tensor:
#      x y z
#    x 1.603700 0.000000 0.000000 
#    y 0.000000 1.618860 0.000000 
#    z 0.000000 0.000000 1.627700 
# 
# From -- ./inp_files/12353.got.cif
#   From: 2010.05.17/outbox.cif.g08.bks.cpg/sg63_7_cif.got.tgz:12353.got - 2010.06.03 15:47:04.
