data_PCOD9469217
_publ_section_title
;
Structure prediction by ZEFSAII (Michael W. Deem and Ramdas Pophale) SiO2 
 PCOD9469217
Probable space group: C M C M
;
_chemical_formula_sum "Si O2"
_cell_formula_units_Z 88
_cell_length_a 22.229900
_cell_length_b 5.621512
_cell_length_c 31.971417
_cell_angle_alpha 90.000000
_cell_angle_beta 90.000000
_cell_angle_gamma 90.000000
_cell_volume 3995.328894
_symmetry_space_group_name_H-M "C M C M"
_symmetry_group_IT_number 63
_symmetry_cell_setting 'orthorhombic'
loop_
_space_group_symop_operation_xyz
x,y,z
-x,-y,1/2+z
x,-y,-z
-x,y,1/2-z
-x,-y,-z
x,y,1/2-z
-x,y,z
x,-y,1/2+z
1/2+x,1/2+y,z
1/2-x,1/2-y,1/2+z
1/2+x,1/2-y,-z
1/2-x,1/2+y,1/2-z
1/2-x,1/2-y,-z
1/2+x,1/2+y,1/2-z
1/2-x,1/2+y,z
1/2+x,1/2-y,1/2+z
loop_
_atom_site_type_symbol
_atom_site_label
_atom_site_fract_x
_atom_site_fract_y
_atom_site_fract_z
Si Si1 0.929002 0.384783 0.299605
Si Si2 0.308204 0.613249 0.459845
Si Si3 0.431483 0.614146 0.831104
Si Si4 0.728829 0.121895 0.379686
Si Si5 0.606563 0.774618 0.582261
Si Si6 0.104999 0.500000 0.500000
O O1 0.925707 0.349672 0.250000
O O2 0.903730 0.646880 0.310636
O O3 0.000000 0.399431 0.312284
O O4 0.903802 0.145264 0.321369
O O5 0.275977 0.500000 0.500000
O O6 0.262138 0.675081 0.423881
O O7 0.354659 0.432461 0.438686
O O8 0.350949 0.810255 0.479062
O O9 0.500000 0.598112 0.814473
O O10 0.432275 0.666672 0.880503
O O11 0.741264 0.384820 0.359317
O O12 0.659137 0.079105 0.392723
O O13 0.574522 0.896643 0.542286
#
# Coordination Sequence:
#
# PCOD9469217 Si02
#       6
#    16  16  16  16  16   8
#     4   9  18  35  60  85 105 127 159 207 270 327
#     4   9  19  30  46  69  98 132 177 227 274 304
#     4  10  21  35  55  80 111 140 166 206 255 311
#     4  10  19  30  45  69  97 128 170 215 270 313
#     4  10  21  31  48  71 106 141 180 215 263 303
#     4  10  18  32  47  68 100 142 185 228 258 302
#
# _framework density 22.025722999999999
#
# number of rings (size 3 to 8) (size 9 to 14) (size 15 to 20)
#    0.000    2.364    1.818    0.545    3.818    4.364 
#    0.000    0.455    0.000    4.909    0.000    0.000 
#    0.000   58.182    0.000    0.000    0.000    0.000 
#
# Total GULP energy -244952.174454 kJ/mol
# GULP energy per Si atom -5567.094874 kJ/mol
# Density = 2.197559 g / cm^3
# Si number density = 22.025723 Si / 1000 Ang^3
#
#
#
# Elastic Constant Matrix: (Units=GPa)
#
#
# Indices 1 2 3 4 5 6 
#
# 1 30.0835 3.2733 -4.4792 0.0000 0.0000 0.0000
# 2 3.2733 144.4091 24.3080 0.0000 0.0000 0.0000
# 3 -4.4792 24.3080 53.5736 0.0000 0.0000 0.0000
# 4 0.0000 0.0000 0.0000 28.8049 0.0000 0.0000
# 5 0.0000 0.0000 0.0000 0.0000 -166.3574 0.0000
# 6 0.0000 0.0000 0.0000 0.0000 0.0000 2.7640
#
#
#
# Elastic Compliance Matrix: (Units=1/GPa)
#
#
# Indices 1 2 3 4 5 6 
#
# 1 0.033901 -0.001349 0.003446 0.000000 0.000000 0.000000
# 2 -0.001349 0.007551 -0.003539 0.000000 0.000000 0.000000
# 3 0.003446 -0.003539 0.020560 0.000000 0.000000 0.000000
# 4 0.000000 0.000000 0.000000 0.034716 0.000000 0.000000
# 5 0.000000 0.000000 0.000000 0.000000 -0.006011 0.000000
# 6 0.000000 0.000000 0.000000 0.000000 0.000000 0.361798
#
#
# Mechanical properties :
#
#
# Convention : Reuss Voigt Hill
#
# Bulk Modulus (GPa) = 16.91216 30.47448 23.69332
# Shear Modulus (GPa) = 10.52396 -13.29343 -1.38473
#
# Velocity S-wave (km/s) = 2.18824 -2.45937 -0.79376
# Velocity P-wave (km/s) = 3.75228 2.40857 3.15284
#
# Compressibility (1/GPa) = 0.05912906
#
# Stress axis : x y z
#
# Youngs Moduli (GPa) = 29.49798 132.43227 48.63872
#
# Poissons Ratio (x) = 0.17859 -0.16762
# Poissons Ratio (y) = 0.03978 0.17213
# Poissons Ratio (z) = -0.10166 0.46866
#
# Static dielectric constant tensor:
#      x y z
#    x 1.820620 0.000000 0.000000 
#    y 0.000000 1.993630 0.000000 
#    z 0.000000 0.000000 1.805990 
# 
# From -- ./inp_files/74242.got.cif
#   From: 2010.05.17/outbox.cif.g08.bks.cpg/sg63_38_cif.got.tgz:74242.got - 2010.06.03 15:47:04.
