data_PCOD9469517
_publ_section_title
;
Structure prediction by ZEFSAII (Michael W. Deem and Ramdas Pophale) SiO2 
 PCOD9469517
Probable space group: C M C M
;
_chemical_formula_sum "Si O2"
_cell_formula_units_Z 80
_cell_length_a 18.218201
_cell_length_b 13.959190
_cell_length_c 18.462937
_cell_angle_alpha 90.000000
_cell_angle_beta 90.000000
_cell_angle_gamma 90.000000
_cell_volume 4695.334050
_symmetry_space_group_name_H-M "C M C M"
_symmetry_group_IT_number 63
_symmetry_cell_setting 'orthorhombic'
loop_
_space_group_symop_operation_xyz
x,y,z
-x,-y,1/2+z
x,-y,-z
-x,y,1/2-z
-x,-y,-z
x,y,1/2-z
-x,y,z
x,-y,1/2+z
1/2+x,1/2+y,z
1/2-x,1/2-y,1/2+z
1/2+x,1/2-y,-z
1/2-x,1/2+y,1/2-z
1/2-x,1/2-y,-z
1/2+x,1/2+y,1/2-z
1/2-x,1/2+y,z
1/2+x,1/2-y,1/2+z
loop_
_atom_site_type_symbol
_atom_site_label
_atom_site_fract_x
_atom_site_fract_y
_atom_site_fract_z
Si Si1 0.657545 0.790479 0.330717
Si Si2 0.000000 0.886107 0.512504
Si Si3 0.235771 0.961308 0.334263
Si Si4 0.154401 0.830905 0.440211
Si Si5 0.000000 0.212606 0.332673
Si Si6 0.753150 0.652172 0.425808
O O1 0.678401 0.756049 0.250000
O O2 0.691979 0.894720 0.337789
O O3 0.571376 0.778804 0.338031
O O4 0.694840 0.722445 0.388288
O O5 0.925443 0.846553 0.474937
O O6 0.000000 0.858770 0.598321
O O7 0.000000 0.000000 0.500000
O O8 0.219645 0.982191 0.250000
O O9 0.170813 0.896875 0.370073
O O10 0.252465 0.056334 0.379407
O O11 0.173991 0.718396 0.428206
O O12 0.218219 0.866095 0.495741
O O13 0.000000 0.169746 0.250000
#
# Coordination Sequence:
#
# PCOD9469517 Si02
#       6
#    16   8  16  16   8  16
#     4   9  18  32  53  82 108 137 181 230 271 320
#     4  12  22  38  55  81 119 151 181 223 281 332
#     4  10  20  35  57  81 106 141 187 230 276 329
#     4  10  22  35  54  80 112 143 183 230 272 329
#     4  10  20  36  57  79 109 145 183 225 271 322
#     4  10  18  35  56  78 107 143 181 228 276 324
#
# _framework density 17.038191000000001
#
# number of rings (size 3 to 8) (size 9 to 14) (size 15 to 20)
#    0.000    2.000    2.000    2.400    0.000    0.800 
#    0.000    1.500    0.000    1.200    0.000    0.000 
#    0.000    0.000    0.000    0.000    0.000    0.000 
#
# Total GULP energy -222848.287662 kJ/mol
# GULP energy per Si atom -5571.207192 kJ/mol
# Density = 1.699941 g / cm^3
# Si number density = 17.038191 Si / 1000 Ang^3
#
#
#
# Elastic Constant Matrix: (Units=GPa)
#
#
# Indices 1 2 3 4 5 6 
#
# 1 95.1781 31.1675 32.2796 0.0000 0.0000 0.0000
# 2 31.1675 73.7958 42.3461 0.0000 0.0000 0.0000
# 3 32.2796 42.3461 107.9395 0.0000 0.0000 0.0000
# 4 0.0000 0.0000 0.0000 33.4794 0.0000 0.0000
# 5 0.0000 0.0000 0.0000 0.0000 24.5502 0.0000
# 6 0.0000 0.0000 0.0000 0.0000 0.0000 11.7455
#
#
#
# Elastic Compliance Matrix: (Units=1/GPa)
#
#
# Indices 1 2 3 4 5 6 
#
# 1 0.012573 -0.004068 -0.002164 0.000000 0.000000 0.000000
# 2 -0.004068 0.018804 -0.006160 0.000000 0.000000 0.000000
# 3 -0.002164 -0.006160 0.012328 0.000000 0.000000 0.000000
# 4 0.000000 0.000000 0.000000 0.029869 0.000000 0.000000
# 5 0.000000 0.000000 0.000000 0.000000 0.040733 0.000000
# 6 0.000000 0.000000 0.000000 0.000000 0.000000 0.085139
#
#
# Mechanical properties :
#
#
# Convention : Reuss Voigt Hill
#
# Bulk Modulus (GPa) = 52.85429 54.27775 53.56602
# Shear Modulus (GPa) = 21.68837 25.36304 23.52571
#
# Velocity S-wave (km/s) = 3.57168 3.86242 3.71989
# Velocity P-wave (km/s) = 6.93524 7.19839 7.06804
#
# Compressibility (1/GPa) = 0.01891994
#
# Stress axis : x y z
#
# Youngs Moduli (GPa) = 79.53717 53.17949 81.11366
#
# Poissons Ratio (x) = 0.21636 0.17552
# Poissons Ratio (y) = 0.32359 0.49970
# Poissons Ratio (z) = 0.17210 0.32761
#
# Static dielectric constant tensor:
#      x y z
#    x 1.569430 0.000000 0.000000 
#    y 0.000000 1.579570 0.000000 
#    z 0.000000 0.000000 1.658430 
# 
# From -- ./inp_files/45452.got.cif
#   From: 2010.05.17/outbox.cif.g08.bks.cpg/sg63_23_cif.got.tgz:45452.got - 2010.06.03 15:47:04.
