data_PCOD9469034
_publ_section_title
;
Structure prediction by ZEFSAII (Michael W. Deem and Ramdas Pophale) SiO2 
 PCOD9469034
Probable space group: C M C M
;
_chemical_formula_sum "Si O2"
_cell_formula_units_Z 104
_cell_length_a 16.601743
_cell_length_b 21.856490
_cell_length_c 14.321789
_cell_angle_alpha 90.000000
_cell_angle_beta 90.000000
_cell_angle_gamma 90.000000
_cell_volume 5196.744633
_symmetry_space_group_name_H-M "C M C M"
_symmetry_group_IT_number 63
_symmetry_cell_setting 'orthorhombic'
loop_
_space_group_symop_operation_xyz
x,y,z
-x,-y,1/2+z
x,-y,-z
-x,y,1/2-z
-x,-y,-z
x,y,1/2-z
-x,y,z
x,-y,1/2+z
1/2+x,1/2+y,z
1/2-x,1/2-y,1/2+z
1/2+x,1/2-y,-z
1/2-x,1/2+y,1/2-z
1/2-x,1/2-y,-z
1/2+x,1/2+y,1/2-z
1/2-x,1/2+y,z
1/2+x,1/2-y,1/2+z
loop_
_atom_site_type_symbol
_atom_site_label
_atom_site_fract_x
_atom_site_fract_y
_atom_site_fract_z
Si Si1 0.500000 0.616444 0.856983
Si Si2 0.675923 0.097207 0.640619
Si Si3 0.414350 0.218892 0.861112
Si Si4 0.759165 0.208725 0.136510
Si Si5 0.337099 0.323061 0.362995
Si Si6 0.176229 0.924150 0.639418
Si Si7 0.281680 0.000000 0.500000
Si Si8 0.500000 0.474757 0.604295
O O1 0.500000 0.638329 0.750000
O O2 0.581877 0.644658 0.900211
O O3 0.500000 0.542560 0.849237
O O4 0.678348 0.076418 0.750000
O O5 0.606495 0.147745 0.632152
O O6 0.760162 0.133011 0.620964
O O7 0.666805 0.047449 0.560330
O O8 0.417376 0.232494 0.750000
O O9 0.500000 0.234784 0.903593
O O10 0.338717 0.255927 0.896096
O O11 0.755996 0.208565 0.250000
O O12 0.685801 0.253493 0.107172
O O13 0.779813 0.139333 0.110360
O O14 0.342729 0.320620 0.250000
O O15 0.189163 0.931938 0.750000
O O16 0.222415 0.973229 0.578239
O O17 0.080341 0.935023 0.624110
O O18 0.500000 0.500000 0.500000
#
# Coordination Sequence:
#
# PCOD9469034 Si02
#       8
#     8  16  16  16  16  16   8   8
#     4  10  18  30  56  82 108 152 195 230 273 330
#     4   9  18  33  53  78 109 140 181 232 275 326
#     4   8  14  28  53  81 105 137 181 229 280 330
#     4   8  16  31  53  81 109 139 180 231 285 336
#     4   8  15  30  52  79 107 141 186 232 277 325
#     4  11  23  38  56  79 113 152 185 224 275 335
#     4  12  22  35  53  78 106 148 190 220 268 326
#     4  12  24  38  52  81 125 152 189 230 274 339
#
# _framework density 20.012529000000001
#
# number of rings (size 3 to 8) (size 9 to 14) (size 15 to 20)
#    0.000    2.615    0.769    3.923    1.077    1.231 
#    0.000    3.462    0.000    0.000    2.000    0.000 
#    0.000    0.000    0.000    0.000    0.000    0.000 
#
# Total GULP energy -289581.941490 kJ/mol
# GULP energy per Si atom -5568.883490 kJ/mol
# Density = 1.996698 g / cm^3
# Si number density = 20.012529 Si / 1000 Ang^3
#
#
#
# Elastic Constant Matrix: (Units=GPa)
#
#
# Indices 1 2 3 4 5 6 
#
# 1 40.9916 6.6637 -12.0734 0.0000 0.0000 0.0000
# 2 6.6637 67.0711 14.0159 0.0000 0.0000 0.0000
# 3 -12.0734 14.0159 82.5299 0.0000 0.0000 0.0000
# 4 0.0000 0.0000 0.0000 -72.2406 0.0000 0.0000
# 5 0.0000 0.0000 0.0000 0.0000 -7.1800 0.0000
# 6 0.0000 0.0000 0.0000 0.0000 0.0000 6.0604
#
#
#
# Elastic Compliance Matrix: (Units=1/GPa)
#
#
# Indices 1 2 3 4 5 6 
#
# 1 0.026280 -0.003540 0.004446 0.000000 0.000000 0.000000
# 2 -0.003540 0.015935 -0.003224 0.000000 0.000000 0.000000
# 3 0.004446 -0.003224 0.013315 0.000000 0.000000 0.000000
# 4 0.000000 0.000000 0.000000 -0.013843 0.000000 0.000000
# 5 0.000000 0.000000 0.000000 0.000000 -0.139276 0.000000
# 6 0.000000 0.000000 0.000000 0.000000 0.000000 0.165006
#
#
# Mechanical properties :
#
#
# Convention : Reuss Voigt Hill
#
# Bulk Modulus (GPa) = 19.64902 23.08946 21.36924
# Shear Modulus (GPa) = 56.16826 -2.53961 26.81433
#
# Velocity S-wave (km/s) = 5.30353 -1.12772 3.66440
# Velocity P-wave (km/s) = 6.88062 3.14116 5.34836
#
# Compressibility (1/GPa) = 0.05089311
#
# Stress axis : x y z
#
# Youngs Moduli (GPa) = 38.05155 62.75492 75.10473
#
# Poissons Ratio (x) = 0.22216 -0.33390
# Poissons Ratio (y) = 0.13470 0.24214
# Poissons Ratio (z) = -0.16917 0.20233
#
# Static dielectric constant tensor:
#      x y z
#    x 1.725720 0.000000 0.000000 
#    y 0.000000 1.767730 0.000000 
#    z 0.000000 0.000000 1.513580 
# 
# From -- ./inp_files/34237.got.cif
#   From: 2010.05.17/outbox.cif.g08.bks.cpg/sg63_18_cif.got.tgz:34237.got - 2010.06.03 15:47:04.
