data_PCOD9469739
_publ_section_title
;
Structure prediction by ZEFSAII (Michael W. Deem and Ramdas Pophale) SiO2 
 PCOD9469739
Probable space group: C M C M
;
_chemical_formula_sum "Si O2"
_cell_formula_units_Z 104
_cell_length_a 25.605255
_cell_length_b 34.085576
_cell_length_c 8.275484
_cell_angle_alpha 90.000000
_cell_angle_beta 90.000000
_cell_angle_gamma 90.000000
_cell_volume 7222.593056
_symmetry_space_group_name_H-M "C M C M"
_symmetry_group_IT_number 63
_symmetry_cell_setting 'orthorhombic'
loop_
_space_group_symop_operation_xyz
x,y,z
-x,-y,1/2+z
x,-y,-z
-x,y,1/2-z
-x,-y,-z
x,y,1/2-z
-x,y,z
x,-y,1/2+z
1/2+x,1/2+y,z
1/2-x,1/2-y,1/2+z
1/2+x,1/2-y,-z
1/2-x,1/2+y,1/2-z
1/2-x,1/2-y,-z
1/2+x,1/2+y,1/2-z
1/2-x,1/2+y,z
1/2+x,1/2-y,1/2+z
loop_
_atom_site_type_symbol
_atom_site_label
_atom_site_fract_x
_atom_site_fract_y
_atom_site_fract_z
Si Si1 0.056910 0.338001 0.054603
Si Si2 0.730187 0.188737 0.442476
Si Si3 0.000000 0.454603 0.554772
Si Si4 0.056881 0.752366 0.054615
Si Si5 0.114610 0.455363 0.942948
Si Si6 0.838690 0.619831 0.557492
Si Si7 0.829427 0.767398 0.054722
O O1 0.057561 0.339342 0.250000
O O2 0.108026 0.359891 0.991995
O O3 0.000000 0.353568 0.999463
O O4 0.059772 0.292853 0.000325
O O5 0.727753 0.188627 0.250000
O O6 0.708532 0.147521 0.504185
O O7 0.788253 0.200457 0.496113
O O8 0.692989 0.224836 0.500818
O O9 0.000000 0.500000 0.500000
O O10 0.056986 0.440670 0.495650
O O11 0.000000 0.451814 0.750000
O O12 0.057078 0.753041 0.250000
O O13 0.110791 0.772225 0.999599
O O14 0.000000 0.767811 0.000027
O O15 0.113006 0.455537 0.750000
O O16 0.122234 0.500000 0.000000
O O17 0.158083 0.424852 0.000013
O O18 0.840601 0.620113 0.750000
O O19 0.828635 0.767244 0.250000
#
# Coordination Sequence:
#
# PCOD9469739 Si02
#       7
#    16  16   8  16  16  16  16
#     4   9  18  29  39  55  79 105 133 168 210 252
#     4  10  19  30  44  61  80 107 140 173 208 247
#     4   8  16  30  46  62  78 100 130 166 208 256
#     4   9  16  27  43  61  81 106 136 170 208 250
#     4  10  20  34  48  62  80 103 133 169 211 257
#     4  11  21  31  45  62  82 105 135 173 214 256
#     4   9  17  29  43  60  83 108 136 170 209 248
#
# _framework density 14.399260999999999
#
# number of rings (size 3 to 8) (size 9 to 14) (size 15 to 20)
#    0.000    2.462    1.538    1.385    1.077    2.462 
#    0.000    0.000    0.000    0.000    0.000    0.000 
#    0.000    0.000    0.000    0.000    0.000    0.769 
#
# Total GULP energy -289759.240101 kJ/mol
# GULP energy per Si atom -5572.293079 kJ/mol
# Density = 1.436649 g / cm^3
# Si number density = 14.399261 Si / 1000 Ang^3
#
#
#
# Elastic Constant Matrix: (Units=GPa)
#
#
# Indices 1 2 3 4 5 6 
#
# 1 105.2539 52.1509 19.7492 0.0000 0.0000 0.0000
# 2 52.1509 72.6615 10.7733 0.0000 0.0000 0.0000
# 3 19.7492 10.7733 14.9433 0.0000 0.0000 0.0000
# 4 0.0000 0.0000 0.0000 17.2232 0.0000 0.0000
# 5 0.0000 0.0000 0.0000 0.0000 13.6881 0.0000
# 6 0.0000 0.0000 0.0000 0.0000 0.0000 17.0109
#
#
#
# Elastic Compliance Matrix: (Units=1/GPa)
#
#
# Indices 1 2 3 4 5 6 
#
# 1 0.017543 -0.010249 -0.015796 0.000000 0.000000 0.000000
# 2 -0.010249 0.021397 -0.001881 0.000000 0.000000 0.000000
# 3 -0.015796 -0.001881 0.089151 0.000000 0.000000 0.000000
# 4 0.000000 0.000000 0.000000 0.058061 0.000000 0.000000
# 5 0.000000 0.000000 0.000000 0.000000 0.073056 0.000000
# 6 0.000000 0.000000 0.000000 0.000000 0.000000 0.058786
#
#
# Mechanical properties :
#
#
# Convention : Reuss Voigt Hill
#
# Bulk Modulus (GPa) = 13.84281 39.80062 26.82172
# Shear Modulus (GPa) = 12.56516 16.93014 14.74765
#
# Velocity S-wave (km/s) = 2.95723 3.43266 3.20378
# Velocity P-wave (km/s) = 4.61462 6.58875 5.68798
#
# Compressibility (1/GPa) = 0.07223968
#
# Stress axis : x y z
#
# Youngs Moduli (GPa) = 57.00373 46.73505 11.21688
#
# Poissons Ratio (x) = 0.47898 0.17718
# Poissons Ratio (y) = 0.58422 0.02110
# Poissons Ratio (z) = 0.90041 0.08792
#
# Static dielectric constant tensor:
#      x y z
#    x 1.509800 0.000000 0.000000 
#    y 0.000000 1.455510 0.000000 
#    z 0.000000 0.000000 1.484520 
# 
# From -- ./inp_files/13303.got.cif
#   From: 2010.05.17/outbox.cif.g08.bks.cpg/sg63_7_cif.got.tgz:13303.got - 2010.06.03 15:47:04.
