data_PCOD9469148
_publ_section_title
;
Structure prediction by ZEFSAII (Michael W. Deem and Ramdas Pophale) SiO2 
 PCOD9469148
Probable space group: C M C M
;
_chemical_formula_sum "Si O2"
_cell_formula_units_Z 72
_cell_length_a 29.774658
_cell_length_b 14.233745
_cell_length_c 8.639693
_cell_angle_alpha 90.000000
_cell_angle_beta 90.000000
_cell_angle_gamma 90.000000
_cell_volume 3661.544137
_symmetry_space_group_name_H-M "C M C M"
_symmetry_group_IT_number 63
_symmetry_cell_setting 'orthorhombic'
loop_
_space_group_symop_operation_xyz
x,y,z
-x,-y,1/2+z
x,-y,-z
-x,y,1/2-z
-x,-y,-z
x,y,1/2-z
-x,y,z
x,-y,1/2+z
1/2+x,1/2+y,z
1/2-x,1/2-y,1/2+z
1/2+x,1/2-y,-z
1/2-x,1/2+y,1/2-z
1/2-x,1/2-y,-z
1/2+x,1/2+y,1/2-z
1/2-x,1/2+y,z
1/2+x,1/2-y,1/2+z
loop_
_atom_site_type_symbol
_atom_site_label
_atom_site_fract_x
_atom_site_fract_y
_atom_site_fract_z
Si Si1 0.678180 0.105871 0.565728
Si Si2 0.591147 0.209003 0.436209
Si Si3 0.229095 0.892958 0.564979
Si Si4 0.365667 0.396213 0.065541
Si Si5 0.000000 0.605694 0.062739
O O1 0.681435 0.103056 0.750000
O O2 0.633647 0.158621 0.512463
O O3 0.724623 0.148916 0.499816
O O4 0.674888 0.000000 0.500000
O O5 0.594930 0.197945 0.250000
O O6 0.596113 0.319819 0.469402
O O7 0.544816 0.161181 0.486349
O O8 0.230035 0.892593 0.750000
O O9 0.181110 0.857631 0.505312
O O10 0.229357 0.000000 0.500000
O O11 0.359890 0.403439 0.250000
O O12 0.374294 0.500000 0.000000
O O13 0.000000 0.602291 0.250000
O O14 0.000000 0.500000 0.000000
#
# Coordination Sequence:
#
# PCOD9469148 Si02
#       5
#    16  16  16  16   8
#     4  11  21  34  54  81 115 151 189 233 280 334
#     4  10  22  39  59  83 111 146 188 232 281 336
#     4  10  18  31  52  78 112 151 190 230 275 328
#     4  10  20  36  57  81 113 150 188 231 277 327
#     4  10  22  42  65  88 114 144 179 224 281 336
#
# _framework density 19.663834999999999
#
# number of rings (size 3 to 8) (size 9 to 14) (size 15 to 20)
#    0.000    1.778    0.000    8.000    0.000    5.333 
#    0.000    0.556    0.000    0.000    0.000    0.000 
#    0.000    0.000    0.000    0.000    0.000    0.000 
#
# Total GULP energy -201140.056179 kJ/mol
# GULP energy per Si atom -5587.223783 kJ/mol
# Density = 1.961908 g / cm^3
# Si number density = 19.663835 Si / 1000 Ang^3
#
#
#
# Elastic Constant Matrix: (Units=GPa)
#
#
# Indices 1 2 3 4 5 6 
#
# 1 157.7637 90.2643 57.6330 0.0000 0.0000 0.0000
# 2 90.2643 125.0141 49.9430 0.0000 0.0000 0.0000
# 3 57.6330 49.9430 97.1024 0.0000 0.0000 0.0000
# 4 0.0000 0.0000 0.0000 18.8885 0.0000 0.0000
# 5 0.0000 0.0000 0.0000 0.0000 18.9701 0.0000
# 6 0.0000 0.0000 0.0000 0.0000 0.0000 37.9166
#
#
#
# Elastic Compliance Matrix: (Units=1/GPa)
#
#
# Indices 1 2 3 4 5 6 
#
# 1 0.011553 -0.007051 -0.003230 0.000000 0.000000 0.000000
# 2 -0.007051 0.014371 -0.003207 0.000000 0.000000 0.000000
# 3 -0.003230 -0.003207 0.013865 0.000000 0.000000 0.000000
# 4 0.000000 0.000000 0.000000 0.052942 0.000000 0.000000
# 5 0.000000 0.000000 0.000000 0.000000 0.052715 0.000000
# 6 0.000000 0.000000 0.000000 0.000000 0.000000 0.026374
#
#
# Mechanical properties :
#
#
# Convention : Reuss Voigt Hill
#
# Bulk Modulus (GPa) = 78.04542 86.17343 82.10942
# Shear Modulus (GPa) = 24.62241 27.29101 25.95671
#
# Velocity S-wave (km/s) = 3.54244 3.72947 3.63715
# Velocity P-wave (km/s) = 7.51717 7.90340 7.71270
#
# Compressibility (1/GPa) = 0.01281305
#
# Stress axis : x y z
#
# Youngs Moduli (GPa) = 86.55790 69.58341 72.12400
#
# Poissons Ratio (x) = 0.49064 0.23299
# Poissons Ratio (y) = 0.61033 0.23127
# Poissons Ratio (z) = 0.27962 0.22313
#
# Static dielectric constant tensor:
#      x y z
#    x 1.690210 0.000000 0.000000 
#    y 0.000000 1.628250 0.000000 
#    z 0.000000 0.000000 1.658260 
# 
# From -- ./inp_files/11688.got.cif
#   From: 2010.05.17/outbox.cif.g08.bks.cpg/sg63_6_cif.got.tgz:11688.got - 2010.06.03 15:47:04.
