data_PCOD9469891
_publ_section_title
;
Structure prediction by ZEFSAII (Michael W. Deem and Ramdas Pophale) SiO2 
 PCOD9469891
Probable space group: C M C M
;
_chemical_formula_sum "Si O2"
_cell_formula_units_Z 112
_cell_length_a 19.657774
_cell_length_b 12.803209
_cell_length_c 27.580062
_cell_angle_alpha 90.000000
_cell_angle_beta 90.000000
_cell_angle_gamma 90.000000
_cell_volume 6941.421409
_symmetry_space_group_name_H-M "C M C M"
_symmetry_group_IT_number 63
_symmetry_cell_setting 'orthorhombic'
loop_
_space_group_symop_operation_xyz
x,y,z
-x,-y,1/2+z
x,-y,-z
-x,y,1/2-z
-x,-y,-z
x,y,1/2-z
-x,y,z
x,-y,1/2+z
1/2+x,1/2+y,z
1/2-x,1/2-y,1/2+z
1/2+x,1/2-y,-z
1/2-x,1/2+y,1/2-z
1/2-x,1/2-y,-z
1/2+x,1/2+y,1/2-z
1/2-x,1/2+y,z
1/2+x,1/2-y,1/2+z
loop_
_atom_site_type_symbol
_atom_site_label
_atom_site_fract_x
_atom_site_fract_y
_atom_site_fract_z
Si Si1 0.924346 0.606529 0.529880
Si Si2 0.282797 0.637870 0.055479
Si Si3 0.580083 0.520892 0.306617
Si Si4 0.577600 0.771638 0.193384
Si Si5 0.325562 0.570064 0.890834
Si Si6 0.849511 0.244701 0.963424
Si Si7 0.177107 0.660435 0.613826
O O1 0.921584 0.500000 0.500000
O O2 0.910230 0.700775 0.492200
O O3 0.865906 0.608024 0.570439
O O4 0.000000 0.618276 0.551241
O O5 0.309743 0.526569 0.072836
O O6 0.202152 0.661657 0.051752
O O7 0.309362 0.722997 0.093906
O O8 0.311138 0.672465 0.003188
O O9 0.595129 0.495195 0.250000
O O10 0.500000 0.496342 0.315254
O O11 0.586995 0.646489 0.311728
O O12 0.629321 0.466925 0.345495
O O13 0.585088 0.796241 0.250000
O O14 0.500000 0.794904 0.178697
O O15 0.630819 0.832147 0.160816
O O16 0.361217 0.666669 0.918918
O O17 0.249932 0.608910 0.876926
#
# Coordination Sequence:
#
# PCOD9469891 Si02
#       7
#    16  16  16  16  16  16  16
#     4  10  20  34  50  70 101 139 175 208 244 297
#     4   9  17  31  45  67 103 133 161 198 253 298
#     4   9  19  35  53  72  99 135 168 204 259 317
#     4   9  17  32  52  71  96 130 167 207 252 304
#     4  11  19  30  52  76 101 128 167 212 256 300
#     4   9  19  30  47  71  97 134 169 204 245 296
#     4  10  19  30  50  75 100 131 167 211 249 302
#
# _framework density 16.135024999999999
#
# number of rings (size 3 to 8) (size 9 to 14) (size 15 to 20)
#    0.000    2.429    1.429    3.429    0.000    1.143 
#    0.000    0.000    0.000    2.571    0.000    0.000 
#    0.000   17.714    0.000    0.000    0.000    0.000 
#
# Total GULP energy -311972.417001 kJ/mol
# GULP energy per Si atom -5570.936018 kJ/mol
# Density = 1.609830 g / cm^3
# Si number density = 16.135025 Si / 1000 Ang^3
#
#
#
# Elastic Constant Matrix: (Units=GPa)
#
#
# Indices 1 2 3 4 5 6 
#
# 1 76.7223 28.4394 50.4568 0.0000 0.0000 0.0000
# 2 28.4394 55.6946 29.0066 0.0000 0.0000 0.0000
# 3 50.4568 29.0066 81.9780 0.0000 0.0000 0.0000
# 4 0.0000 0.0000 0.0000 23.7993 0.0000 0.0000
# 5 0.0000 0.0000 0.0000 0.0000 26.0041 0.0000
# 6 0.0000 0.0000 0.0000 0.0000 0.0000 17.1637
#
#
#
# Elastic Compliance Matrix: (Units=1/GPa)
#
#
# Indices 1 2 3 4 5 6 
#
# 1 0.023148 -0.005394 -0.012339 0.000000 0.000000 0.000000
# 2 -0.005394 0.023268 -0.004913 0.000000 0.000000 0.000000
# 3 -0.012339 -0.004913 0.021531 0.000000 0.000000 0.000000
# 4 0.000000 0.000000 0.000000 0.042018 0.000000 0.000000
# 5 0.000000 0.000000 0.000000 0.000000 0.038456 0.000000
# 6 0.000000 0.000000 0.000000 0.000000 0.000000 0.058263
#
#
# Mechanical properties :
#
#
# Convention : Reuss Voigt Hill
#
# Bulk Modulus (GPa) = 44.13903 47.80006 45.96954
# Shear Modulus (GPa) = 19.26575 20.49289 19.87932
#
# Velocity S-wave (km/s) = 3.45923 3.56769 3.51388
# Velocity P-wave (km/s) = 6.58562 6.83086 6.70936
#
# Compressibility (1/GPa) = 0.02265569
#
# Stress axis : x y z
#
# Youngs Moduli (GPa) = 43.19991 42.97706 46.44378
#
# Poissons Ratio (x) = 0.23181 0.57307
# Poissons Ratio (y) = 0.23301 0.22819
# Poissons Ratio (z) = 0.53304 0.21116
#
# Static dielectric constant tensor:
#      x y z
#    x 1.548490 0.000000 0.000000 
#    y 0.000000 1.532470 0.000000 
#    z 0.000000 0.000000 1.535210 
# 
# From -- ./inp_files/64646.got.cif
#   From: 2010.05.17/outbox.cif.g08.bks.cpg/sg63_33_cif.got.tgz:64646.got - 2010.06.03 15:47:04.
