data_PCOD9469063
_publ_section_title
;
Structure prediction by ZEFSAII (Michael W. Deem and Ramdas Pophale) SiO2 
 PCOD9469063
Probable space group: C M C M
;
_chemical_formula_sum "Si O2"
_cell_formula_units_Z 128
_cell_length_a 10.759566
_cell_length_b 26.451138
_cell_length_c 24.215478
_cell_angle_alpha 90.000000
_cell_angle_beta 90.000000
_cell_angle_gamma 90.000000
_cell_volume 6891.791997
_symmetry_space_group_name_H-M "C M C M"
_symmetry_group_IT_number 63
_symmetry_cell_setting 'orthorhombic'
loop_
_space_group_symop_operation_xyz
x,y,z
-x,-y,1/2+z
x,-y,-z
-x,y,1/2-z
-x,-y,-z
x,y,1/2-z
-x,y,z
x,-y,1/2+z
1/2+x,1/2+y,z
1/2-x,1/2-y,1/2+z
1/2+x,1/2-y,-z
1/2-x,1/2+y,1/2-z
1/2-x,1/2-y,-z
1/2+x,1/2+y,1/2-z
1/2-x,1/2+y,z
1/2+x,1/2-y,1/2+z
loop_
_atom_site_type_symbol
_atom_site_label
_atom_site_fract_x
_atom_site_fract_y
_atom_site_fract_z
Si Si1 0.644158 0.231856 0.925365
Si Si2 0.360650 0.183745 0.688784
Si Si3 0.862303 0.522727 0.561070
Si Si4 0.142440 0.002135 0.356862
Si Si5 0.851560 0.111051 0.310479
Si Si6 0.150447 0.154641 0.427689
Si Si7 0.635575 0.611510 0.659125
Si Si8 0.239915 0.125825 0.542672
O O1 0.500000 0.229462 0.942435
O O2 0.650312 0.224800 0.859136
O O3 0.692243 0.287564 0.938216
O O4 0.711430 0.182647 0.948700
O O5 0.352562 0.205604 0.750000
O O6 0.500000 0.160977 0.682536
O O7 0.251858 0.143131 0.680907
O O8 0.855968 0.500000 0.500000
O O9 0.749667 0.500785 0.597178
O O10 0.841927 0.583023 0.555079
O O11 0.000000 0.512393 0.584267
O O12 0.147902 0.947694 0.327246
O O13 0.000000 0.006694 0.379315
O O14 0.162804 0.050792 0.318982
O O15 0.801518 0.126323 0.250000
O O16 0.804654 0.136053 0.367545
O O17 0.000000 0.121213 0.309450
O O18 0.192147 0.121692 0.480172
O O19 0.000000 0.154474 0.426639
O O20 0.500000 0.629733 0.677878
O O21 0.642300 0.616178 0.592145
#
# Coordination Sequence:
#
# PCOD9469063 Si02
#       8
#    16  16  16  16  16  16  16  16
#     4   9  18  31  47  69  96 128 168 211 255 302
#     4   9  18  32  49  70  99 133 166 204 253 306
#     4  10  20  32  49  75 104 134 168 202 240 293
#     4   9  18  32  50  72  99 131 163 197 243 293
#     4   9  18  32  49  71  99 129 164 208 254 298
#     4  10  19  30  48  73  98 128 168 212 257 305
#     4   9  18  30  47  73 101 130 164 203 246 296
#     4  10  18  31  49  69 102 135 166 208 255 305
#
# _framework density 18.572818000000002
#
# number of rings (size 3 to 8) (size 9 to 14) (size 15 to 20)
#    0.000    2.625    0.000    1.875    0.000    5.000 
#    0.000    3.750    0.000    1.125    0.000    0.000 
#    0.000    0.000    0.000    0.000    0.000    0.000 
#
# Total GULP energy -356407.194846 kJ/mol
# GULP energy per Si atom -5568.862419 kJ/mol
# Density = 1.853055 g / cm^3
# Si number density = 18.572818 Si / 1000 Ang^3
#
#
#
# Elastic Constant Matrix: (Units=GPa)
#
#
# Indices 1 2 3 4 5 6 
#
# 1 71.3565 0.8155 13.3262 0.0000 0.0000 0.0000
# 2 0.8155 43.3264 6.8906 0.0000 0.0000 0.0000
# 3 13.3262 6.8906 96.6491 0.0000 0.0000 0.0000
# 4 0.0000 0.0000 0.0000 10.2433 0.0000 0.0000
# 5 0.0000 0.0000 0.0000 0.0000 46.5107 0.0000
# 6 0.0000 0.0000 0.0000 0.0000 0.0000 -15.6577
#
#
#
# Elastic Compliance Matrix: (Units=1/GPa)
#
#
# Indices 1 2 3 4 5 6 
#
# 1 0.014385 0.000045 -0.001987 0.000000 0.000000 0.000000
# 2 0.000045 0.023345 -0.001671 0.000000 0.000000 0.000000
# 3 -0.001987 -0.001671 0.010740 0.000000 0.000000 0.000000
# 4 0.000000 0.000000 0.000000 0.097624 0.000000 0.000000
# 5 0.000000 0.000000 0.000000 0.000000 0.021500 0.000000
# 6 0.000000 0.000000 0.000000 0.000000 0.000000 -0.063866
#
#
# Mechanical properties :
#
#
# Convention : Reuss Voigt Hill
#
# Bulk Modulus (GPa) = 24.24494 28.15518 26.20006
# Shear Modulus (GPa) = 40.09587 20.90591 30.50089
#
# Velocity S-wave (km/s) = 4.65138 3.35866 4.05684
# Velocity P-wave (km/s) = 6.47530 5.49846 6.00677
#
# Compressibility (1/GPa) = 0.04124571
#
# Stress axis : x y z
#
# Youngs Moduli (GPa) = 69.51868 42.83485 93.11218
#
# Poissons Ratio (x) = -0.00194 0.18498
# Poissons Ratio (y) = -0.00314 0.15556
# Poissons Ratio (z) = 0.13811 0.07156
#
# Static dielectric constant tensor:
#      x y z
#    x 1.636510 0.000000 0.000000 
#    y 0.000000 1.644070 0.000000 
#    z 0.000000 0.000000 1.680670 
# 
# From -- ./inp_files/62046.got.cif
#   From: 2010.05.17/outbox.cif.g08.bks.cpg/sg63_32_cif.got.tgz:62046.got - 2010.06.03 15:47:04.
