data_PCOD9469036
_publ_section_title
;
Structure prediction by ZEFSAII (Michael W. Deem and Ramdas Pophale) SiO2 
 PCOD9469036
Probable space group: C M C M
;
_chemical_formula_sum "Si O2"
_cell_formula_units_Z 116
_cell_length_a 15.818551
_cell_length_b 12.248817
_cell_length_c 26.692447
_cell_angle_alpha 90.000000
_cell_angle_beta 90.000000
_cell_angle_gamma 90.000000
_cell_volume 5171.889464
_symmetry_space_group_name_H-M "C M C M"
_symmetry_group_IT_number 63
_symmetry_cell_setting 'orthorhombic'
loop_
_space_group_symop_operation_xyz
x,y,z
-x,-y,1/2+z
x,-y,-z
-x,y,1/2-z
-x,-y,-z
x,y,1/2-z
-x,y,z
x,-y,1/2+z
1/2+x,1/2+y,z
1/2-x,1/2-y,1/2+z
1/2+x,1/2-y,-z
1/2-x,1/2+y,1/2-z
1/2-x,1/2-y,-z
1/2+x,1/2+y,1/2-z
1/2-x,1/2+y,z
1/2+x,1/2-y,1/2+z
loop_
_atom_site_type_symbol
_atom_site_label
_atom_site_fract_x
_atom_site_fract_y
_atom_site_fract_z
Si Si1 0.153439 0.391622 0.529009
Si Si2 0.652520 0.180340 0.806685
Si Si3 0.652941 0.272554 0.179085
Si Si4 0.135103 0.114411 0.373872
Si Si5 0.500000 0.664961 0.750000
Si Si6 0.408632 0.389232 0.407132
Si Si7 0.666791 0.051246 0.141624
Si Si8 0.146390 0.842839 0.987878
O O1 0.127702 0.500000 0.500000
O O2 0.133843 0.420098 0.586445
O O3 0.120238 0.277070 0.508290
O O4 0.254129 0.370633 0.518990
O O5 0.618916 0.169883 0.750000
O O6 0.753763 0.200150 0.802490
O O7 0.617313 0.287067 0.835752
O O8 0.645065 0.069011 0.838770
O O9 0.575805 0.328989 0.207091
O O10 0.655677 0.309928 0.120792
O O11 0.636236 0.143411 0.180255
O O12 0.232374 0.075879 0.364043
O O13 0.116975 0.152971 0.430610
O O14 0.089408 0.998557 0.374147
O O15 0.500000 0.336666 0.407549
O O16 0.383022 0.414364 0.464147
#
# Coordination Sequence:
#
# PCOD9469036 Si02
#       8
#    16  16  16  16   4  16  16  16
#     4  10  18  30  56  89 126 161 197 258 318 369
#     4  11  23  40  64  94 124 158 208 274 332 372
#     4  11  23  40  61  93 122 163 210 262 318 371
#     4  10  22  37  58  92 128 164 207 259 323 379
#     4  12  24  44  60  88 126 168 214 256 314 382
#     4  12  23  41  63  91 133 174 212 255 312 395
#     4  10  20  36  62  90 125 155 205 269 316 365
#     4  10  20  34  55  89 127 164 211 251 311 378
#
# _framework density 22.428939
#
# number of rings (size 3 to 8) (size 9 to 14) (size 15 to 20)
#    0.000    1.379    4.138    2.897    2.897    1.655 
#    1.241    0.000    1.517    0.414    0.000    0.000 
#    0.000    0.000    0.000    0.000    0.000    0.000 
#
# Total GULP energy -322881.690590 kJ/mol
# GULP energy per Si atom -5566.925700 kJ/mol
# Density = 2.237789 g / cm^3
# Si number density = 22.428939 Si / 1000 Ang^3
#
#
#
# Elastic Constant Matrix: (Units=GPa)
#
#
# Indices 1 2 3 4 5 6 
#
# 1 23.7093 -9.5131 8.7052 0.0000 0.0000 0.0000
# 2 -9.5131 153.0208 63.2552 0.0000 0.0000 0.0000
# 3 8.7052 63.2552 146.3337 0.0000 0.0000 0.0000
# 4 0.0000 0.0000 0.0000 -15.5162 0.0000 0.0000
# 5 0.0000 0.0000 0.0000 0.0000 9.2690 0.0000
# 6 0.0000 0.0000 0.0000 0.0000 0.0000 -3.0360
#
#
#
# Elastic Compliance Matrix: (Units=1/GPa)
#
#
# Indices 1 2 3 4 5 6 
#
# 1 0.045895 0.004848 -0.004826 0.000000 0.000000 0.000000
# 2 0.004848 0.008469 -0.003949 0.000000 0.000000 0.000000
# 3 -0.004826 -0.003949 0.008828 0.000000 0.000000 0.000000
# 4 0.000000 0.000000 0.000000 -0.064449 0.000000 0.000000
# 5 0.000000 0.000000 0.000000 0.000000 0.107887 0.000000
# 6 0.000000 0.000000 0.000000 0.000000 0.000000 -0.329386
#
#
# Mechanical properties :
#
#
# Convention : Reuss Voigt Hill
#
# Bulk Modulus (GPa) = 18.07089 49.77315 33.92202
# Shear Modulus (GPa) = -25.45103 15.51779 -4.96662
#
# Velocity S-wave (km/s) = -3.37225 2.63319 -1.48969
# Velocity P-wave (km/s) = 2.66238 5.61111 3.49258
#
# Compressibility (1/GPa) = 0.05533761
#
# Stress axis : x y z
#
# Youngs Moduli (GPa) = 21.78897 118.07771 113.27692
#
# Poissons Ratio (x) = -0.57246 0.54666
# Poissons Ratio (y) = -0.10564 0.44736
# Poissons Ratio (z) = 0.10515 0.46632
#
# Static dielectric constant tensor:
#      x y z
#    x 1.850170 0.000000 0.000000 
#    y 0.000000 1.879050 0.000000 
#    z 0.000000 0.000000 1.871390 
# 
# From -- ./inp_files/70043.got.cif
#   From: 2010.05.17/outbox.cif.g08.bks.cpg/sg63_36_cif.got.tgz:70043.got - 2010.06.03 15:47:04.
