data_PCOD9469590
_publ_section_title
;
Structure prediction by ZEFSAII (Michael W. Deem and Ramdas Pophale) SiO2 
 PCOD9469590
Probable space group: C M C M
;
_chemical_formula_sum "Si O2"
_cell_formula_units_Z 52
_cell_length_a 7.535516
_cell_length_b 16.583919
_cell_length_c 24.543347
_cell_angle_alpha 90.000000
_cell_angle_beta 90.000000
_cell_angle_gamma 90.000000
_cell_volume 3067.142485
_symmetry_space_group_name_H-M "C M C M"
_symmetry_group_IT_number 63
_symmetry_cell_setting 'orthorhombic'
loop_
_space_group_symop_operation_xyz
x,y,z
-x,-y,1/2+z
x,-y,-z
-x,y,1/2-z
-x,-y,-z
x,y,1/2-z
-x,y,z
x,-y,1/2+z
1/2+x,1/2+y,z
1/2-x,1/2-y,1/2+z
1/2+x,1/2-y,-z
1/2-x,1/2+y,1/2-z
1/2-x,1/2-y,-z
1/2+x,1/2+y,1/2-z
1/2-x,1/2+y,z
1/2+x,1/2-y,1/2+z
loop_
_atom_site_type_symbol
_atom_site_label
_atom_site_fract_x
_atom_site_fract_y
_atom_site_fract_z
Si Si1 0.696176 0.813096 0.953487
Si Si2 0.500000 0.555369 0.053407
Si Si3 0.000000 0.762348 0.141095
Si Si4 0.500000 0.452080 0.336678
Si Si5 0.000000 0.342220 0.750000
Si Si6 0.295663 0.000499 0.750000
O O1 0.665491 0.764887 0.896914
O O2 0.000000 0.654529 0.032892
O O3 0.832455 0.884971 0.947746
O O4 0.750000 0.750000 0.000000
O O5 0.500000 0.500933 0.107188
O O6 0.500000 0.500000 0.000000
O O7 0.000000 0.856826 0.152044
O O8 0.000000 0.712467 0.196624
O O9 0.324762 0.474443 0.301409
O O10 0.166215 0.404343 0.750000
O O11 0.500000 0.034040 0.750000
#
# Coordination Sequence:
#
# PCOD9469590 Si02
#       6
#    16   8   8   8   4   8
#     4  10  21  40  60  90 120 162 207 253 305 367
#     4  12  23  38  62  91 125 161 206 254 310 361
#     4  10  22  38  65  83 122 159 195 254 299 371
#     4  11  21  40  61  89 121 155 198 256 308 359
#     4  10  18  40  60  84 114 156 198 236 308 358
#     4   9  22  39  63  86 118 153 201 251 299 362
#
# _framework density 16.953890999999999
#
# number of rings (size 3 to 8) (size 9 to 14) (size 15 to 20)
#    1.385    0.308    1.538    4.615    0.000    0.615 
#    2.769    0.000    6.769    0.000    0.000    0.000 
#    0.000    0.000    0.000    0.000    0.000    0.000 
#
# Total GULP energy -144816.828585 kJ/mol
# GULP energy per Si atom -5569.878023 kJ/mol
# Density = 1.691530 g / cm^3
# Si number density = 16.953891 Si / 1000 Ang^3
#
#
#
# Elastic Constant Matrix: (Units=GPa)
#
#
# Indices 1 2 3 4 5 6 
#
# 1 152.1784 82.3774 70.3403 0.0000 0.0000 0.0000
# 2 82.3774 181.9369 104.9896 0.0000 0.0000 0.0000
# 3 70.3403 104.9896 184.4783 0.0000 0.0000 0.0000
# 4 0.0000 0.0000 0.0000 43.5282 0.0000 0.0000
# 5 0.0000 0.0000 0.0000 0.0000 28.5672 0.0000
# 6 0.0000 0.0000 0.0000 0.0000 0.0000 26.2140
#
#
#
# Elastic Compliance Matrix: (Units=1/GPa)
#
#
# Indices 1 2 3 4 5 6 
#
# 1 0.009035 -0.003131 -0.001663 0.000000 0.000000 0.000000
# 2 -0.003131 0.009269 -0.004081 0.000000 0.000000 0.000000
# 3 -0.001663 -0.004081 0.008378 0.000000 0.000000 0.000000
# 4 0.000000 0.000000 0.000000 0.022974 0.000000 0.000000
# 5 0.000000 0.000000 0.000000 0.000000 0.035005 0.000000
# 6 0.000000 0.000000 0.000000 0.000000 0.000000 0.038148
#
#
# Mechanical properties :
#
#
# Convention : Reuss Voigt Hill
#
# Bulk Modulus (GPa) = 111.97335 114.88980 113.43157
# Shear Modulus (GPa) = 34.83439 37.05429 35.94434
#
# Velocity S-wave (km/s) = 4.53775 4.68010 4.60947
# Velocity P-wave (km/s) = 9.67699 9.85483 9.76631
#
# Compressibility (1/GPa) = 0.00893070
#
# Stress axis : x y z
#
# Youngs Moduli (GPa) = 110.68252 107.88136 119.36599
#
# Poissons Ratio (x) = 0.33780 0.19850
# Poissons Ratio (y) = 0.34657 0.48719
# Poissons Ratio (z) = 0.18406 0.44032
#
# Static dielectric constant tensor:
#      x y z
#    x 1.585710 0.000000 0.000000 
#    y 0.000000 1.532660 0.000000 
#    z 0.000000 0.000000 1.563350 
# 
# From -- ./inp_files/58955.got.cif
#   From: 2010.05.17/outbox.cif.g08.bks.cpg/sg63_30_cif.got.tgz:58955.got - 2010.06.03 15:47:04.
