data_PCOD9469857
_publ_section_title
;
Structure prediction by ZEFSAII (Michael W. Deem and Ramdas Pophale) SiO2 
 PCOD9469857
Probable space group: C M C M
;
_chemical_formula_sum "Si O2"
_cell_formula_units_Z 96
_cell_length_a 9.168807
_cell_length_b 24.109395
_cell_length_c 26.669617
_cell_angle_alpha 90.000000
_cell_angle_beta 90.000000
_cell_angle_gamma 90.000000
_cell_volume 5895.435908
_symmetry_space_group_name_H-M "C M C M"
_symmetry_group_IT_number 63
_symmetry_cell_setting 'orthorhombic'
loop_
_space_group_symop_operation_xyz
x,y,z
-x,-y,1/2+z
x,-y,-z
-x,y,1/2-z
-x,-y,-z
x,y,1/2-z
-x,y,z
x,-y,1/2+z
1/2+x,1/2+y,z
1/2-x,1/2-y,1/2+z
1/2+x,1/2-y,-z
1/2-x,1/2+y,1/2-z
1/2-x,1/2-y,-z
1/2+x,1/2+y,1/2-z
1/2-x,1/2+y,z
1/2+x,1/2-y,1/2+z
loop_
_atom_site_type_symbol
_atom_site_label
_atom_site_fract_x
_atom_site_fract_y
_atom_site_fract_z
Si Si1 0.169587 0.666834 0.040636
Si Si2 0.826845 0.353800 0.427479
Si Si3 0.675706 0.017938 0.942604
Si Si4 0.824866 0.342920 0.690900
Si Si5 0.169312 0.240768 0.624229
Si Si6 0.826260 0.918788 0.889288
O O1 0.179750 0.722076 0.073623
O O2 0.274699 0.622369 0.066197
O O3 0.000000 0.646895 0.044420
O O4 0.203229 0.672343 0.982336
O O5 0.783541 0.418223 0.432046
O O6 0.752494 0.316043 0.385645
O O7 0.000000 0.352295 0.419794
O O8 0.500000 0.012621 0.937653
O O9 0.756021 0.977310 0.904205
O O10 0.711316 0.000000 0.000000
O O11 0.798885 0.345417 0.750000
O O12 0.779350 0.283414 0.667340
O O13 0.743215 0.390840 0.660168
O O14 0.000000 0.347865 0.681696
O O15 0.000000 0.228650 0.633541
O O16 0.000000 0.921576 0.885847
#
# Coordination Sequence:
#
# PCOD9469857 Si02
#       6
#    16  16  16  16  16  16
#     4   9  17  32  48  66  98 141 178 202 237 298
#     4  10  19  30  48  70  98 139 178 207 242 292
#     4  10  19  34  52  68  98 145 186 214 242 295
#     4   9  19  38  61  78  96 130 171 207 253 315
#     4   9  18  30  48  74 102 127 160 210 258 302
#     4  11  21  31  49  79 108 131 165 218 266 299
#
# _framework density 16.283784000000001
#
# number of rings (size 3 to 8) (size 9 to 14) (size 15 to 20)
#    0.000    2.333    1.667    3.000    0.000    4.667 
#    0.000    0.000    0.000    1.000    0.000    4.667 
#    0.000    0.000    0.000    0.000    0.000    0.000 
#
# Total GULP energy -267589.238474 kJ/mol
# GULP energy per Si atom -5574.775802 kJ/mol
# Density = 1.624672 g / cm^3
# Si number density = 16.283784 Si / 1000 Ang^3
#
#
#
# Elastic Constant Matrix: (Units=GPa)
#
#
# Indices 1 2 3 4 5 6 
#
# 1 48.0725 45.7013 43.4520 0.0000 0.0000 0.0000
# 2 45.7013 84.9133 49.9689 0.0000 0.0000 0.0000
# 3 43.4520 49.9689 92.5552 0.0000 0.0000 0.0000
# 4 0.0000 0.0000 0.0000 12.5482 0.0000 0.0000
# 5 0.0000 0.0000 0.0000 0.0000 16.2554 0.0000
# 6 0.0000 0.0000 0.0000 0.0000 0.0000 26.0697
#
#
#
# Elastic Compliance Matrix: (Units=1/GPa)
#
#
# Indices 1 2 3 4 5 6 
#
# 1 0.052263 -0.020065 -0.013704 0.000000 0.000000 0.000000
# 2 -0.020065 0.024963 -0.004058 0.000000 0.000000 0.000000
# 3 -0.013704 -0.004058 0.019428 0.000000 0.000000 0.000000
# 4 0.000000 0.000000 0.000000 0.079693 0.000000 0.000000
# 5 0.000000 0.000000 0.000000 0.000000 0.061518 0.000000
# 6 0.000000 0.000000 0.000000 0.000000 0.000000 0.038359
#
#
# Mechanical properties :
#
#
# Convention : Reuss Voigt Hill
#
# Bulk Modulus (GPa) = 47.61072 55.97616 51.79344
# Shear Modulus (GPa) = 13.93234 16.73592 15.33413
#
# Velocity S-wave (km/s) = 2.92823 3.20936 3.07201
# Velocity P-wave (km/s) = 6.38234 6.94142 6.66774
#
# Compressibility (1/GPa) = 0.02100367
#
# Stress axis : x y z
#
# Youngs Moduli (GPa) = 19.13388 40.05854 51.47081
#
# Poissons Ratio (x) = 0.80376 0.70534
# Poissons Ratio (y) = 0.38391 0.20885
# Poissons Ratio (z) = 0.26220 0.16254
#
# Static dielectric constant tensor:
#      x y z
#    x 1.548180 0.000000 0.000000 
#    y 0.000000 1.558440 0.000000 
#    z 0.000000 0.000000 1.534040 
# 
# From -- ./inp_files/67176.got.cif
#   From: 2010.05.17/outbox.cif.g08.bks.cpg/sg63_34_cif.got.tgz:67176.got - 2010.06.03 15:47:04.
