data_PCOD9469478
_publ_section_title
;
Structure prediction by ZEFSAII (Michael W. Deem and Ramdas Pophale) SiO2 
 PCOD9469478
Probable space group: C M C M
;
_chemical_formula_sum "Si O2"
_cell_formula_units_Z 104
_cell_length_a 26.521810
_cell_length_b 20.653805
_cell_length_c 8.696153
_cell_angle_alpha 90.000000
_cell_angle_beta 90.000000
_cell_angle_gamma 90.000000
_cell_volume 4763.546445
_symmetry_space_group_name_H-M "C M C M"
_symmetry_group_IT_number 63
_symmetry_cell_setting 'orthorhombic'
loop_
_space_group_symop_operation_xyz
x,y,z
-x,-y,1/2+z
x,-y,-z
-x,y,1/2-z
-x,-y,-z
x,y,1/2-z
-x,y,z
x,-y,1/2+z
1/2+x,1/2+y,z
1/2-x,1/2-y,1/2+z
1/2+x,1/2-y,-z
1/2-x,1/2+y,1/2-z
1/2-x,1/2-y,-z
1/2+x,1/2+y,1/2-z
1/2-x,1/2+y,z
1/2+x,1/2-y,1/2+z
loop_
_atom_site_type_symbol
_atom_site_label
_atom_site_fract_x
_atom_site_fract_y
_atom_site_fract_z
Si Si1 0.500000 0.573807 0.432806
Si Si2 0.310909 0.098974 0.071842
Si Si3 0.585046 0.932400 0.069179
Si Si4 0.701781 0.628356 0.067683
Si Si5 0.336599 0.749249 0.927997
Si Si6 0.055750 0.293249 0.935968
Si Si7 0.399031 0.428072 0.068308
O O1 0.500000 0.500000 0.500000
O O2 0.500000 0.570721 0.250000
O O3 0.551369 0.604310 0.495381
O O4 0.316780 0.076913 0.250000
O O5 0.253183 0.092481 0.019564
O O6 0.319579 0.176384 0.072662
O O7 0.354960 0.070505 0.968033
O O8 0.576042 0.930438 0.250000
O O9 0.562995 0.867344 0.992412
O O10 0.565679 0.000000 0.000000
O O11 0.696918 0.618819 0.250000
O O12 0.699328 0.704511 0.029166
O O13 0.652883 0.603857 0.979761
O O14 0.335774 0.726560 0.750000
O O15 0.394905 0.752598 0.985167
O O16 0.057773 0.293871 0.750000
O O17 0.000000 0.270451 0.983992
O O18 0.405255 0.430205 0.250000
O O19 0.396489 0.500000 0.000000
#
# Coordination Sequence:
#
# PCOD9469478 Si02
#       7
#     8  16  16  16  16  16  16
#     4  10  18  34  58  80 104 136 174 214 261 318
#     4   9  20  38  58  79 110 149 188 231 282 334
#     4  11  22  36  57  84 115 150 190 235 283 340
#     4  11  22  36  56  84 114 147 187 232 278 331
#     4   9  18  35  57  82 111 146 186 230 281 336
#     4   9  19  38  61  83 113 152 190 234 286 336
#     4  11  22  38  58  81 110 145 182 225 275 330
#
# _framework density 21.832473
#
# number of rings (size 3 to 8) (size 9 to 14) (size 15 to 20)
#    0.000    2.000    0.000    6.231    0.000    4.923 
#    1.385    0.000    0.000    0.000    0.000    0.000 
#    0.000    0.000    0.000    0.000    0.000    0.000 
#
# Total GULP energy -290533.190885 kJ/mol
# GULP energy per Si atom -5587.176748 kJ/mol
# Density = 2.178278 g / cm^3
# Si number density = 21.832473 Si / 1000 Ang^3
#
#
#
# Elastic Constant Matrix: (Units=GPa)
#
#
# Indices 1 2 3 4 5 6 
#
# 1 119.1890 -7.2325 21.8226 0.0000 0.0000 0.0000
# 2 -7.2325 29.4587 -4.9916 0.0000 0.0000 0.0000
# 3 21.8226 -4.9916 73.1705 0.0000 0.0000 0.0000
# 4 0.0000 0.0000 0.0000 27.3908 0.0000 0.0000
# 5 0.0000 0.0000 0.0000 0.0000 19.1978 0.0000
# 6 0.0000 0.0000 0.0000 0.0000 0.0000 15.5531
#
#
#
# Elastic Compliance Matrix: (Units=1/GPa)
#
#
# Indices 1 2 3 4 5 6 
#
# 1 0.008965 0.001768 -0.002553 0.000000 0.000000 0.000000
# 2 0.001768 0.034692 0.001839 0.000000 0.000000 0.000000
# 3 -0.002553 0.001839 0.014554 0.000000 0.000000 0.000000
# 4 0.000000 0.000000 0.000000 0.036509 0.000000 0.000000
# 5 0.000000 0.000000 0.000000 0.000000 0.052089 0.000000
# 6 0.000000 0.000000 0.000000 0.000000 0.000000 0.064296
#
#
# Mechanical properties :
#
#
# Convention : Reuss Voigt Hill
#
# Bulk Modulus (GPa) = 16.57850 26.77946 21.67898
# Shear Modulus (GPa) = 21.82446 26.57635 24.20041
#
# Velocity S-wave (km/s) = 3.16513 3.49275 3.33297
# Velocity P-wave (km/s) = 4.57901 5.34399 4.97622
#
# Compressibility (1/GPa) = 0.06031910
#
# Stress axis : x y z
#
# Youngs Moduli (GPa) = 111.54753 28.82542 68.71149
#
# Poissons Ratio (x) = -0.05097 0.17542
# Poissons Ratio (y) = -0.19726 -0.12638
# Poissons Ratio (z) = 0.28479 -0.05302
#
# Static dielectric constant tensor:
#      x y z
#    x 1.868530 0.000000 0.000000 
#    y 0.000000 1.859050 0.000000 
#    z 0.000000 0.000000 1.741090 
# 
# From -- ./inp_files/12546.got.cif
#   From: 2010.05.17/outbox.cif.g08.bks.cpg/sg63_7_cif.got.tgz:12546.got - 2010.06.03 15:47:04.
