data_PCOD9469420
_publ_section_title
;
Structure prediction by ZEFSAII (Michael W. Deem and Ramdas Pophale) SiO2 
 PCOD9469420
Probable space group: C M C M
;
_chemical_formula_sum "Si O2"
_cell_formula_units_Z 96
_cell_length_a 20.900079
_cell_length_b 15.436620
_cell_length_c 16.418010
_cell_angle_alpha 90.000000
_cell_angle_beta 90.000000
_cell_angle_gamma 90.000000
_cell_volume 5296.886376
_symmetry_space_group_name_H-M "C M C M"
_symmetry_group_IT_number 63
_symmetry_cell_setting 'orthorhombic'
loop_
_space_group_symop_operation_xyz
x,y,z
-x,-y,1/2+z
x,-y,-z
-x,y,1/2-z
-x,-y,-z
x,y,1/2-z
-x,y,z
x,-y,1/2+z
1/2+x,1/2+y,z
1/2-x,1/2-y,1/2+z
1/2+x,1/2-y,-z
1/2-x,1/2+y,1/2-z
1/2-x,1/2-y,-z
1/2+x,1/2+y,1/2-z
1/2-x,1/2+y,z
1/2+x,1/2-y,1/2+z
loop_
_atom_site_type_symbol
_atom_site_label
_atom_site_fract_x
_atom_site_fract_y
_atom_site_fract_z
Si Si1 0.396798 0.302565 0.841684
Si Si2 0.204976 0.854821 0.072649
Si Si3 0.299193 0.988873 0.345663
Si Si4 0.071764 0.600351 0.652121
Si Si5 0.251797 0.673167 0.113429
Si Si6 0.930486 0.896785 0.493259
O O1 0.420346 0.321560 0.750000
O O2 0.411350 0.201657 0.859845
O O3 0.320794 0.319189 0.844382
O O4 0.424501 0.357892 0.915807
O O5 0.242095 0.935460 0.111904
O O6 0.218536 0.766234 0.120657
O O7 0.233942 0.843295 0.982085
O O8 0.129762 0.867777 0.059816
O O9 0.297029 0.967537 0.250000
O O10 0.368177 0.956161 0.378312
O O11 0.287634 0.090800 0.356348
O O12 0.069018 0.587504 0.750000
O O13 0.000000 0.582249 0.620036
O O14 0.000000 0.871742 0.459698
O O15 0.927073 0.000000 0.500000
#
# Coordination Sequence:
#
# PCOD9469420 Si02
#       6
#    16  16  16  16  16  16
#     4  10  18  33  57  84 107 137 186 238 282 325
#     4  10  20  37  55  76 109 149 181 226 277 328
#     4  11  21  34  57  85 110 140 185 235 279 335
#     4   9  18  32  51  79 114 144 172 223 289 334
#     4  10  20  33  54  81 109 143 183 225 274 333
#     4  10  21  36  54  79 113 150 185 227 283 335
#
# _framework density 18.123854999999999
#
# number of rings (size 3 to 8) (size 9 to 14) (size 15 to 20)
#    0.000    2.000    1.667    3.500    0.000    1.667 
#    0.000    0.833    0.000    3.500    0.000    0.000 
#    0.000    0.000    0.000    0.000    0.000    0.000 
#
# Total GULP energy -267754.396889 kJ/mol
# GULP energy per Si atom -5578.216602 kJ/mol
# Density = 1.808260 g / cm^3
# Si number density = 18.123855 Si / 1000 Ang^3
#
#
#
# Elastic Constant Matrix: (Units=GPa)
#
#
# Indices 1 2 3 4 5 6 
#
# 1 141.1138 47.5279 19.7394 0.0000 0.0000 0.0000
# 2 47.5279 68.2319 6.4367 0.0000 0.0000 0.0000
# 3 19.7394 6.4367 31.5645 0.0000 0.0000 0.0000
# 4 0.0000 0.0000 0.0000 26.1992 0.0000 0.0000
# 5 0.0000 0.0000 0.0000 0.0000 -11.5110 0.0000
# 6 0.0000 0.0000 0.0000 0.0000 0.0000 -30.7847
#
#
#
# Elastic Compliance Matrix: (Units=1/GPa)
#
#
# Indices 1 2 3 4 5 6 
#
# 1 0.009951 -0.006469 -0.004904 0.000000 0.000000 0.000000
# 2 -0.006469 0.019149 0.000141 0.000000 0.000000 0.000000
# 3 -0.004904 0.000141 0.034719 0.000000 0.000000 0.000000
# 4 0.000000 0.000000 0.000000 0.038169 0.000000 0.000000
# 5 0.000000 0.000000 0.000000 0.000000 -0.086874 0.000000
# 6 0.000000 0.000000 0.000000 0.000000 0.000000 -0.032484
#
#
# Mechanical properties :
#
#
# Convention : Reuss Voigt Hill
#
# Bulk Modulus (GPa) = 24.18115 43.14646 33.66381
# Shear Modulus (GPa) = 264.81618 7.92777 136.37197
#
# Velocity S-wave (km/s) = 12.10091 2.09373 8.68377
# Velocity P-wave (km/s) = 14.44347 5.45005 10.91597
#
# Compressibility (1/GPa) = 0.04135452
#
# Stress axis : x y z
#
# Youngs Moduli (GPa) = 100.48952 52.22268 28.80241
#
# Poissons Ratio (x) = 0.33783 0.14125
# Poissons Ratio (y) = 0.65008 -0.00405
# Poissons Ratio (z) = 0.49280 -0.00735
#
# Static dielectric constant tensor:
#      x y z
#    x 1.644750 0.000000 0.000000 
#    y 0.000000 1.604970 0.000000 
#    z 0.000000 0.000000 1.635070 
# 
# From -- ./inp_files/35347.got.cif
#   From: 2010.05.17/outbox.cif.g08.bks.cpg/sg63_18_cif.got.tgz:35347.got - 2010.06.03 15:47:04.
