data_PCOD9469589
_publ_section_title
;
Structure prediction by ZEFSAII (Michael W. Deem and Ramdas Pophale) SiO2 
 PCOD9469589
Probable space group: C M C M
;
_chemical_formula_sum "Si O2"
_cell_formula_units_Z 80
_cell_length_a 24.644443
_cell_length_b 17.380088
_cell_length_c 8.454785
_cell_angle_alpha 90.000000
_cell_angle_beta 90.000000
_cell_angle_gamma 90.000000
_cell_volume 3621.375393
_symmetry_space_group_name_H-M "C M C M"
_symmetry_group_IT_number 63
_symmetry_cell_setting 'orthorhombic'
loop_
_space_group_symop_operation_xyz
x,y,z
-x,-y,1/2+z
x,-y,-z
-x,y,1/2-z
-x,-y,-z
x,y,1/2-z
-x,y,z
x,-y,1/2+z
1/2+x,1/2+y,z
1/2-x,1/2-y,1/2+z
1/2+x,1/2-y,-z
1/2-x,1/2+y,1/2-z
1/2-x,1/2-y,-z
1/2+x,1/2+y,1/2-z
1/2-x,1/2+y,z
1/2+x,1/2-y,1/2+z
loop_
_atom_site_type_symbol
_atom_site_label
_atom_site_fract_x
_atom_site_fract_y
_atom_site_fract_z
Si Si1 0.412289 0.415601 0.069379
Si Si2 0.768872 0.418170 0.562552
Si Si3 0.500000 0.148431 0.067692
Si Si4 0.685378 0.696940 0.930652
Si Si5 0.500000 0.308978 0.927654
Si Si6 0.120973 0.349305 0.556851
O O1 0.433192 0.415679 0.250000
O O2 0.353880 0.376821 0.072445
O O3 0.411119 0.500000 0.000000
O O4 0.449088 0.362736 0.959584
O O5 0.747431 0.500000 0.500000
O O6 0.766654 0.421995 0.750000
O O7 0.737859 0.339401 0.513983
O O8 0.831646 0.408118 0.511628
O O9 0.500000 0.122077 0.250000
O O10 0.439858 0.130194 0.998798
O O11 0.500000 0.241017 0.054644
O O12 0.700088 0.717512 0.750000
O O13 0.647098 0.766572 0.992791
O O14 0.500000 0.277184 0.750000
O O15 0.116836 0.345502 0.750000
#
# Coordination Sequence:
#
# PCOD9469589 Si02
#       6
#    16  16   8  16   8  16
#     4  11  22  36  54  77 112 154 197 239 285 339
#     4  11  23  39  59  87 121 157 195 240 294 349
#     4  10  18  39  66  87 113 149 193 243 294 350
#     4  10  20  37  61  88 115 150 195 240 289 345
#     4  12  23  35  52  79 114 149 193 239 289 344
#     4   9  19  37  64  91 115 150 196 240 292 351
#
# _framework density 22.091054
#
# number of rings (size 3 to 8) (size 9 to 14) (size 15 to 20)
#    0.000    1.600    2.000    3.600    0.000    3.200 
#    0.000    3.500    0.000    0.000    0.000    0.000 
#    0.000    0.000    0.000    0.000    0.000    0.000 
#
# Total GULP energy -223113.022194 kJ/mol
# GULP energy per Si atom -5577.825555 kJ/mol
# Density = 2.204077 g / cm^3
# Si number density = 22.091054 Si / 1000 Ang^3
#
#
#
# Elastic Constant Matrix: (Units=GPa)
#
#
# Indices 1 2 3 4 5 6 
#
# 1 133.3694 3.9651 19.1651 0.0000 0.0000 0.0000
# 2 3.9651 40.5094 -2.9161 0.0000 0.0000 0.0000
# 3 19.1651 -2.9161 40.5271 0.0000 0.0000 0.0000
# 4 0.0000 0.0000 0.0000 14.7225 0.0000 0.0000
# 5 0.0000 0.0000 0.0000 0.0000 49.0737 0.0000
# 6 0.0000 0.0000 0.0000 0.0000 0.0000 195.1187
#
#
#
# Elastic Compliance Matrix: (Units=1/GPa)
#
#
# Indices 1 2 3 4 5 6 
#
# 1 0.008091 -0.001073 -0.003903 0.000000 0.000000 0.000000
# 2 -0.001073 0.024956 0.002303 0.000000 0.000000 0.000000
# 3 -0.003903 0.002303 0.026686 0.000000 0.000000 0.000000
# 4 0.000000 0.000000 0.000000 0.067923 0.000000 0.000000
# 5 0.000000 0.000000 0.000000 0.000000 0.020378 0.000000
# 6 0.000000 0.000000 0.000000 0.000000 0.000000 0.005125
#
#
# Mechanical properties :
#
#
# Convention : Reuss Voigt Hill
#
# Bulk Modulus (GPa) = 18.38657 28.31487 23.35072
# Shear Modulus (GPa) = 28.30698 64.72911 46.51804
#
# Velocity S-wave (km/s) = 3.58352 5.41892 4.59381
# Velocity P-wave (km/s) = 5.04611 7.21097 6.22340
#
# Compressibility (1/GPa) = 0.05438751
#
# Stress axis : x y z
#
# Youngs Moduli (GPa) = 123.59761 40.06978 37.47224
#
# Poissons Ratio (x) = 0.04299 0.14626
# Poissons Ratio (y) = 0.13261 -0.08630
# Poissons Ratio (z) = 0.48244 -0.09229
#
# Static dielectric constant tensor:
#      x y z
#    x 1.900460 0.000000 0.000000 
#    y 0.000000 1.780800 0.000000 
#    z 0.000000 0.000000 1.832450 
# 
# From -- ./inp_files/10112.got.cif
#   From: 2010.05.17/outbox.cif.g08.bks.cpg/sg63_6_cif.got.tgz:10112.got - 2010.06.03 15:47:04.
