data_PCOD9469421
_publ_section_title
;
Structure prediction by ZEFSAII (Michael W. Deem and Ramdas Pophale) SiO2 
 PCOD9469421
Probable space group: C M C M
;
_chemical_formula_sum "Si O2"
_cell_formula_units_Z 96
_cell_length_a 22.438772
_cell_length_b 8.806919
_cell_length_c 24.497414
_cell_angle_alpha 90.000000
_cell_angle_beta 90.000000
_cell_angle_gamma 90.000000
_cell_volume 4841.091927
_symmetry_space_group_name_H-M "C M C M"
_symmetry_group_IT_number 63
_symmetry_cell_setting 'orthorhombic'
loop_
_space_group_symop_operation_xyz
x,y,z
-x,-y,1/2+z
x,-y,-z
-x,y,1/2-z
-x,-y,-z
x,y,1/2-z
-x,y,z
x,-y,1/2+z
1/2+x,1/2+y,z
1/2-x,1/2-y,1/2+z
1/2+x,1/2-y,-z
1/2-x,1/2+y,1/2-z
1/2-x,1/2-y,-z
1/2+x,1/2+y,1/2-z
1/2-x,1/2+y,z
1/2+x,1/2-y,1/2+z
loop_
_atom_site_type_symbol
_atom_site_label
_atom_site_fract_x
_atom_site_fract_y
_atom_site_fract_z
Si Si1 0.794531 0.836989 0.188764
Si Si2 0.930172 0.663196 0.620785
Si Si3 0.649285 0.872642 0.904439
Si Si4 0.269683 0.381682 0.959601
Si Si5 0.065606 0.315197 0.503693
Si Si6 0.677606 0.679831 0.343737
O O1 0.811780 0.792263 0.250000
O O2 0.827803 0.736984 0.143145
O O3 0.724462 0.799831 0.180904
O O4 0.808254 0.014085 0.179913
O O5 0.895391 0.502121 0.616932
O O6 0.927577 0.731487 0.559042
O O7 0.890323 0.766482 0.660361
O O8 0.000000 0.645860 0.634233
O O9 0.708078 0.945364 0.932706
O O10 0.615444 0.779808 0.952047
O O11 0.307252 0.329626 0.908185
O O12 0.299849 0.500000 0.000000
O O13 0.250000 0.250000 0.000000
O O14 0.066379 0.500000 0.500000
O O15 0.000000 0.268704 0.523211
#
# Coordination Sequence:
#
# PCOD9469421 Si02
#       6
#    16  16  16  16  16  16
#     4  11  24  41  63  85 110 148 195 254 304 342
#     4  10  20  36  60  88 121 158 192 228 278 352
#     4  10  18  33  57  86 116 150 192 234 287 343
#     4  11  19  29  50  84 122 149 178 230 290 351
#     4   8  14  27  51  83 118 154 187 220 266 335
#     4  11  22  38  59  86 116 151 193 237 293 351
#
# _framework density 19.830237
#
# number of rings (size 3 to 8) (size 9 to 14) (size 15 to 20)
#    0.000    1.833    0.000    9.500    0.000    0.000 
#    0.000    2.500    0.000   10.500    0.000    0.000 
#    0.000    0.000    0.000    0.000    0.000    0.000 
#
# Total GULP energy -267906.180479 kJ/mol
# GULP energy per Si atom -5581.378760 kJ/mol
# Density = 1.978510 g / cm^3
# Si number density = 19.830237 Si / 1000 Ang^3
#
#
#
# Elastic Constant Matrix: (Units=GPa)
#
#
# Indices 1 2 3 4 5 6 
#
# 1 153.5742 32.2443 25.2552 0.0000 0.0000 0.0000
# 2 32.2443 61.5041 22.3096 0.0000 0.0000 0.0000
# 3 25.2552 22.3096 56.5727 0.0000 0.0000 0.0000
# 4 0.0000 0.0000 0.0000 17.4027 0.0000 0.0000
# 5 0.0000 0.0000 0.0000 0.0000 8.9612 0.0000
# 6 0.0000 0.0000 0.0000 0.0000 0.0000 24.2941
#
#
#
# Elastic Compliance Matrix: (Units=1/GPa)
#
#
# Indices 1 2 3 4 5 6 
#
# 1 0.007526 -0.003182 -0.002105 0.000000 0.000000 0.000000
# 2 -0.003182 0.020318 -0.006592 0.000000 0.000000 0.000000
# 3 -0.002105 -0.006592 0.021216 0.000000 0.000000 0.000000
# 4 0.000000 0.000000 0.000000 0.057462 0.000000 0.000000
# 5 0.000000 0.000000 0.000000 0.000000 0.111592 0.000000
# 6 0.000000 0.000000 0.000000 0.000000 0.000000 0.041162
#
#
# Mechanical properties :
#
#
# Convention : Reuss Voigt Hill
#
# Bulk Modulus (GPa) = 39.52264 47.91880 43.72072
# Shear Modulus (GPa) = 17.15454 22.92106 20.03780
#
# Velocity S-wave (km/s) = 2.94440 3.40349 3.18223
# Velocity P-wave (km/s) = 5.61543 6.29777 5.96636
#
# Compressibility (1/GPa) = 0.02530195
#
# Stress axis : x y z
#
# Youngs Moduli (GPa) = 132.87748 49.21638 47.13511
#
# Poissons Ratio (x) = 0.15660 0.09921
# Poissons Ratio (y) = 0.42281 0.31072
# Poissons Ratio (z) = 0.27968 0.32444
#
# Static dielectric constant tensor:
#      x y z
#    x 1.733710 0.000000 0.000000 
#    y 0.000000 1.741920 0.000000 
#    z 0.000000 0.000000 1.746640 
# 
# From -- ./inp_files/70628.got.cif
#   From: 2010.05.17/outbox.cif.g08.bks.cpg/sg63_36_cif.got.tgz:70628.got - 2010.06.03 15:47:04.
