data_PCOD9469211
_publ_section_title
;
Structure prediction by ZEFSAII (Michael W. Deem and Ramdas Pophale) SiO2 
 PCOD9469211
Probable space group: C M C M
;
_chemical_formula_sum "Si O2"
_cell_formula_units_Z 56
_cell_length_a 34.988101
_cell_length_b 6.909729
_cell_length_c 10.310690
_cell_angle_alpha 90.000000
_cell_angle_beta 90.000000
_cell_angle_gamma 90.000000
_cell_volume 2492.694846
_symmetry_space_group_name_H-M "C M C M"
_symmetry_group_IT_number 63
_symmetry_cell_setting 'orthorhombic'
loop_
_space_group_symop_operation_xyz
x,y,z
-x,-y,1/2+z
x,-y,-z
-x,y,1/2-z
-x,-y,-z
x,y,1/2-z
-x,y,z
x,-y,1/2+z
1/2+x,1/2+y,z
1/2-x,1/2-y,1/2+z
1/2+x,1/2-y,-z
1/2-x,1/2+y,1/2-z
1/2-x,1/2-y,-z
1/2+x,1/2+y,1/2-z
1/2-x,1/2+y,z
1/2+x,1/2-y,1/2+z
loop_
_atom_site_type_symbol
_atom_site_label
_atom_site_fract_x
_atom_site_fract_y
_atom_site_fract_z
Si Si1 0.663911 0.234825 0.980052
Si Si2 0.304831 0.285607 0.250000
Si Si3 0.417351 0.820788 0.099908
Si Si4 0.000000 0.321541 0.100046
Si Si5 0.215749 0.336382 0.250000
O O1 0.621982 0.288877 0.928789
O O2 0.697999 0.262832 0.877102
O O3 0.673401 0.329908 0.117367
O O4 0.662531 0.000000 0.000000
O O5 0.261117 0.353963 0.250000
O O6 0.300442 0.052825 0.250000
O O7 0.414526 0.887682 0.250000
O O8 0.458812 0.718889 0.084919
O O9 0.418418 0.000000 0.000000
O O10 0.000000 0.392990 0.250000
O O11 0.000000 0.500000 0.000000
#
# Coordination Sequence:
#
# PCOD9469211 Si02
#       5
#    16   8  16   8   8
#     4   9  17  27  41  58  80 107 140 169 205 247
#     4  10  20  30  46  61  83 109 141 176 208 248
#     4   9  15  23  36  53  77 106 139 170 202 244
#     4   8  14  22  32  50  74 104 135 167 200 238
#     4  10  18  32  44  63  81 109 139 176 210 244
#
# _framework density 22.465644000000001
#
# number of rings (size 3 to 8) (size 9 to 14) (size 15 to 20)
#    0.000    2.857    1.429    0.857    6.000    0.000 
#    0.000    0.000    0.000    0.000    0.000    0.000 
#    0.000    0.000    0.000    7.714    0.000    8.571 
#
# Total GULP energy -156126.764347 kJ/mol
# GULP energy per Si atom -5575.955870 kJ/mol
# Density = 2.241451 g / cm^3
# Si number density = 22.465644 Si / 1000 Ang^3
#
#
#
# Elastic Constant Matrix: (Units=GPa)
#
#
# Indices 1 2 3 4 5 6 
#
# 1 230.1511 -9.2216 94.8450 0.0000 0.0000 0.0000
# 2 -9.2216 57.2050 3.7988 0.0000 0.0000 0.0000
# 3 94.8450 3.7988 171.2135 0.0000 0.0000 0.0000
# 4 0.0000 0.0000 0.0000 -7.4201 0.0000 0.0000
# 5 0.0000 0.0000 0.0000 0.0000 44.9997 0.0000
# 6 0.0000 0.0000 0.0000 0.0000 0.0000 4.9663
#
#
#
# Elastic Compliance Matrix: (Units=1/GPa)
#
#
# Indices 1 2 3 4 5 6 
#
# 1 0.005702 0.001131 -0.003184 0.000000 0.000000 0.000000
# 2 0.001131 0.017731 -0.001020 0.000000 0.000000 0.000000
# 3 -0.003184 -0.001020 0.007627 0.000000 0.000000 0.000000
# 4 0.000000 0.000000 0.000000 -0.134769 0.000000 0.000000
# 5 0.000000 0.000000 0.000000 0.000000 0.022222 0.000000
# 6 0.000000 0.000000 0.000000 0.000000 0.000000 0.201359
#
#
# Mechanical properties :
#
#
# Convention : Reuss Voigt Hill
#
# Bulk Modulus (GPa) = 40.13748 70.82376 55.48062
# Shear Modulus (GPa) = 37.22350 33.11899 35.17125
#
# Velocity S-wave (km/s) = 4.07493 3.84370 3.96100
# Velocity P-wave (km/s) = 6.32811 7.16188 6.75787
#
# Compressibility (1/GPa) = 0.02491437
#
# Stress axis : x y z
#
# Youngs Moduli (GPa) = 175.36522 56.39842 131.11200
#
# Poissons Ratio (x) = -0.06377 0.41746
# Poissons Ratio (y) = -0.19828 0.13370
# Poissons Ratio (z) = 0.55836 0.05751
#
# Static dielectric constant tensor:
#      x y z
#    x 1.862200 0.000000 0.000000 
#    y 0.000000 1.880760 0.000000 
#    z 0.000000 0.000000 1.832110 
# 
# From -- ./inp_files/13840.got.cif
#   From: 2010.05.17/outbox.cif.g08.bks.cpg/sg63_7_cif.got.tgz:13840.got - 2010.06.03 15:47:04.
