data_PCOD9469512
_publ_section_title
;
Structure prediction by ZEFSAII (Michael W. Deem and Ramdas Pophale) SiO2 
 PCOD9469512
Probable space group: C M C M
;
_chemical_formula_sum "Si O2"
_cell_formula_units_Z 88
_cell_length_a 21.915551
_cell_length_b 22.747438
_cell_length_c 10.093060
_cell_angle_alpha 90.000000
_cell_angle_beta 90.000000
_cell_angle_gamma 90.000000
_cell_volume 5031.618893
_symmetry_space_group_name_H-M "C M C M"
_symmetry_group_IT_number 63
_symmetry_cell_setting 'orthorhombic'
loop_
_space_group_symop_operation_xyz
x,y,z
-x,-y,1/2+z
x,-y,-z
-x,y,1/2-z
-x,-y,-z
x,y,1/2-z
-x,y,z
x,-y,1/2+z
1/2+x,1/2+y,z
1/2-x,1/2-y,1/2+z
1/2+x,1/2-y,-z
1/2-x,1/2+y,1/2-z
1/2-x,1/2-y,-z
1/2+x,1/2+y,1/2-z
1/2-x,1/2+y,z
1/2+x,1/2-y,1/2+z
loop_
_atom_site_type_symbol
_atom_site_label
_atom_site_fract_x
_atom_site_fract_y
_atom_site_fract_z
Si Si1 0.000000 0.555182 0.406022
Si Si2 0.929100 0.940410 0.250000
Si Si3 0.863779 0.121588 0.992187
Si Si4 0.568409 0.580780 0.250000
Si Si5 0.381509 0.133203 0.091853
Si Si6 0.259206 0.061341 0.085024
Si Si7 0.072207 0.759701 0.410941
O O1 0.000000 0.500000 0.500000
O O2 0.059636 0.593505 0.433186
O O3 0.000000 0.539356 0.250000
O O4 0.892212 0.917519 0.124537
O O5 0.000000 0.919071 0.250000
O O6 0.930365 0.010393 0.250000
O O7 0.883445 0.187786 0.956354
O O8 0.899556 0.104457 0.122294
O O9 0.795163 0.102250 0.027631
O O10 0.500000 0.601679 0.250000
O O11 0.375778 0.140430 0.250000
O O12 0.321353 0.097007 0.053493
O O13 0.398188 0.198254 0.040821
O O14 0.254198 0.053299 0.250000
O O15 0.257847 0.000000 0.000000
O O16 0.071245 0.760126 0.250000
O O17 0.000000 0.765605 0.450901
#
# Coordination Sequence:
#
# PCOD9469512 Si02
#       7
#     8   8  16   8  16  16  16
#     4  10  18  34  64  94 122 150 195 255 306 352
#     4  11  22  38  58  87 112 149 211 264 301 349
#     4  12  23  36  59  87 117 160 202 247 302 361
#     4  11  22  36  54  79 120 157 195 254 313 359
#     4   9  19  37  62  92 118 158 202 249 301 356
#     4  11  24  41  62  88 124 163 202 246 305 368
#     4  10  19  36  63  90 120 155 207 254 295 358
#
# _framework density 17.4894
#
# number of rings (size 3 to 8) (size 9 to 14) (size 15 to 20)
#    0.000    1.455    2.727    3.818    1.273    2.182 
#    0.000    0.000    4.000    0.000    0.000    0.000 
#    0.000    0.000    0.000    0.000    0.000    0.000 
#
# Total GULP energy -245193.976033 kJ/mol
# GULP energy per Si atom -5572.590364 kJ/mol
# Density = 1.744959 g / cm^3
# Si number density = 17.489400 Si / 1000 Ang^3
#
#
#
# Elastic Constant Matrix: (Units=GPa)
#
#
# Indices 1 2 3 4 5 6 
#
# 1 173.6130 71.5279 43.1905 0.0000 0.0000 0.0000
# 2 71.5279 126.9026 33.1577 0.0000 0.0000 0.0000
# 3 43.1905 33.1577 80.7406 0.0000 0.0000 0.0000
# 4 0.0000 0.0000 0.0000 0.2586 0.0000 0.0000
# 5 0.0000 0.0000 0.0000 0.0000 40.2939 0.0000
# 6 0.0000 0.0000 0.0000 0.0000 0.0000 776.6070
#
#
#
# Elastic Compliance Matrix: (Units=1/GPa)
#
#
# Indices 1 2 3 4 5 6 
#
# 1 0.008002 -0.003800 -0.002720 0.000000 0.000000 0.000000
# 2 -0.003800 0.010631 -0.002333 0.000000 0.000000 0.000000
# 3 -0.002720 -0.002333 0.014799 0.000000 0.000000 0.000000
# 4 0.000000 0.000000 0.000000 3.866473 0.000000 0.000000
# 5 0.000000 0.000000 0.000000 0.000000 0.024818 0.000000
# 6 0.000000 0.000000 0.000000 0.000000 0.000000 0.001288
#
#
# Mechanical properties :
#
#
# Convention : Reuss Voigt Hill
#
# Bulk Modulus (GPa) = 63.59008 75.22316 69.40662
# Shear Modulus (GPa) = 1.26616 178.99060 90.12838
#
# Velocity S-wave (km/s) = 0.85178 10.12741 7.18645
# Velocity P-wave (km/s) = 6.11600 13.41107 10.42263
#
# Compressibility (1/GPa) = 0.01572572
#
# Stress axis : x y z
#
# Youngs Moduli (GPa) = 124.96790 94.06128 67.57334
#
# Poissons Ratio (x) = 0.35739 0.18381
# Poissons Ratio (y) = 0.47482 0.15768
# Poissons Ratio (z) = 0.33993 0.21949
#
# Static dielectric constant tensor:
#      x y z
#    x 1.628100 0.000000 0.000000 
#    y 0.000000 1.613520 0.000000 
#    z 0.000000 0.000000 1.635110 
# 
# From -- ./inp_files/8283.got.cif
#   From: 2010.05.17/outbox.cif.g08.bks.cpg/sg63_5_cif.got.tgz:8283.got - 2010.06.03 15:47:04.
