data_PCOD9469260
_publ_section_title
;
Structure prediction by ZEFSAII (Michael W. Deem and Ramdas Pophale) SiO2 
 PCOD9469260
Probable space group: C M C M
;
_chemical_formula_sum "Si O2"
_cell_formula_units_Z 60
_cell_length_a 9.798605
_cell_length_b 17.986283
_cell_length_c 16.263664
_cell_angle_alpha 90.000000
_cell_angle_beta 90.000000
_cell_angle_gamma 90.000000
_cell_volume 2866.315991
_symmetry_space_group_name_H-M "C M C M"
_symmetry_group_IT_number 63
_symmetry_cell_setting 'orthorhombic'
loop_
_space_group_symop_operation_xyz
x,y,z
-x,-y,1/2+z
x,-y,-z
-x,y,1/2-z
-x,-y,-z
x,y,1/2-z
-x,y,z
x,-y,1/2+z
1/2+x,1/2+y,z
1/2-x,1/2-y,1/2+z
1/2+x,1/2-y,-z
1/2-x,1/2+y,1/2-z
1/2-x,1/2-y,-z
1/2+x,1/2+y,1/2-z
1/2-x,1/2+y,z
1/2+x,1/2-y,1/2+z
loop_
_atom_site_type_symbol
_atom_site_label
_atom_site_fract_x
_atom_site_fract_y
_atom_site_fract_z
Si Si1 0.704556 0.839369 0.750000
Si Si2 0.000000 0.085885 0.250000
Si Si3 0.155409 0.320006 0.103327
Si Si4 0.229249 0.653409 0.074669
Si Si5 0.839807 0.838928 0.250000
Si Si6 0.000000 0.058148 0.072195
O O1 0.658336 0.868909 0.839218
O O2 0.670471 0.751786 0.750000
O O3 0.866726 0.860639 0.750000
O O4 0.000000 0.036031 0.331690
O O5 0.220828 0.238256 0.089797
O O6 0.254694 0.360898 0.168245
O O7 0.000000 0.314098 0.134776
O O8 0.152443 0.352734 0.011363
O O9 0.365983 0.607215 0.063047
O O10 0.000000 0.858275 0.250000
O O11 0.000000 0.000000 0.000000
#
# Coordination Sequence:
#
# PCOD9469260 Si02
#       6
#     8   4  16  16   8   8
#     4   8  16  28  47  65 100 129 176 216 256 296
#     4   8  16  32  50  74  88 138 188 222 256 322
#     4  10  19  32  51  72 107 146 175 211 269 327
#     4   9  18  29  50  76 102 133 180 216 262 317
#     4  10  21  29  45  75 108 143 175 219 263 315
#     4  10  18  32  52  74 106 140 179 231 273 310
#
# _framework density 20.932793
#
# number of rings (size 3 to 8) (size 9 to 14) (size 15 to 20)
#    0.000    2.667    1.333    0.400    7.467    6.400 
#    0.000    1.333    0.000    0.800    0.000    0.000 
#    0.000    0.000    0.000    0.000    0.000    0.000 
#
# Total GULP energy -167043.618967 kJ/mol
# GULP energy per Si atom -5568.120632 kJ/mol
# Density = 2.088515 g / cm^3
# Si number density = 20.932793 Si / 1000 Ang^3
#
#
#
# Elastic Constant Matrix: (Units=GPa)
#
#
# Indices 1 2 3 4 5 6 
#
# 1 130.8286 -4.7036 66.5004 0.0000 0.0000 0.0000
# 2 -4.7036 6.5584 21.6432 0.0000 0.0000 0.0000
# 3 66.5004 21.6432 193.7758 0.0000 0.0000 0.0000
# 4 0.0000 0.0000 0.0000 21.2313 0.0000 0.0000
# 5 0.0000 0.0000 0.0000 0.0000 31.5158 0.0000
# 6 0.0000 0.0000 0.0000 0.0000 0.0000 17.7669
#
#
#
# Elastic Compliance Matrix: (Units=1/GPa)
#
#
# Indices 1 2 3 4 5 6 
#
# 1 0.013799 0.040425 -0.009251 0.000000 0.000000 0.000000
# 2 0.040425 0.359912 -0.054072 0.000000 0.000000 0.000000
# 3 -0.009251 -0.054072 0.014375 0.000000 0.000000 0.000000
# 4 0.000000 0.000000 0.000000 0.047100 0.000000 0.000000
# 5 0.000000 0.000000 0.000000 0.000000 0.031730 0.000000
# 6 0.000000 0.000000 0.000000 0.000000 0.000000 0.056284
#
#
# Mechanical properties :
#
#
# Convention : Reuss Voigt Hill
#
# Bulk Modulus (GPa) = 2.92151 55.33808 29.12979
# Shear Modulus (GPa) = 7.31965 30.61766 18.96865
#
# Velocity S-wave (km/s) = 1.87199 3.82863 3.01353
# Velocity P-wave (km/s) = 2.46397 6.78513 5.10437
#
# Compressibility (1/GPa) = 0.34228901
#
# Stress axis : x y z
#
# Youngs Moduli (GPa) = 72.46845 2.77846 69.56669
#
# Poissons Ratio (x) = -0.11232 0.64354
# Poissons Ratio (y) = -2.92951 3.76162
# Poissons Ratio (z) = 0.67038 0.15024
#
# Static dielectric constant tensor:
#      x y z
#    x 1.735830 0.000000 0.000000 
#    y 0.000000 1.717360 0.000000 
#    z 0.000000 0.000000 1.866090 
# 
# From -- ./inp_files/39691.got.cif
#   From: 2010.05.17/outbox.cif.g08.bks.cpg/sg63_20_cif.got.tgz:39691.got - 2010.06.03 15:47:04.
