data_PCOD9469522
_publ_section_title
;
Structure prediction by ZEFSAII (Michael W. Deem and Ramdas Pophale) SiO2 
 PCOD9469522
Probable space group: C M C M
;
_chemical_formula_sum "Si O2"
_cell_formula_units_Z 116
_cell_length_a 21.407759
_cell_length_b 9.686906
_cell_length_c 34.008761
_cell_angle_alpha 90.000000
_cell_angle_beta 90.000000
_cell_angle_gamma 90.000000
_cell_volume 7052.565081
_symmetry_space_group_name_H-M "C M C M"
_symmetry_group_IT_number 63
_symmetry_cell_setting 'orthorhombic'
loop_
_space_group_symop_operation_xyz
x,y,z
-x,-y,1/2+z
x,-y,-z
-x,y,1/2-z
-x,-y,-z
x,y,1/2-z
-x,y,z
x,-y,1/2+z
1/2+x,1/2+y,z
1/2-x,1/2-y,1/2+z
1/2+x,1/2-y,-z
1/2-x,1/2+y,1/2-z
1/2-x,1/2-y,-z
1/2+x,1/2+y,1/2-z
1/2-x,1/2+y,z
1/2+x,1/2-y,1/2+z
loop_
_atom_site_type_symbol
_atom_site_label
_atom_site_fract_x
_atom_site_fract_y
_atom_site_fract_z
Si Si1 0.000000 0.089753 0.250000
Si Si2 0.927632 0.052293 0.894179
Si Si3 0.209652 0.085065 0.703548
Si Si4 0.839878 0.402354 0.341972
Si Si5 0.318676 0.513594 0.046469
Si Si6 0.649909 0.791449 0.856521
Si Si7 0.895596 0.125017 0.182054
Si Si8 0.736464 0.778508 0.086920
O O1 0.054626 0.091852 0.284461
O O2 0.882975 0.013869 0.930321
O O3 0.916513 0.941882 0.859235
O O4 0.000000 0.057945 0.904503
O O5 0.902795 0.197289 0.876534
O O6 0.212506 0.103001 0.750000
O O7 0.170281 0.948118 0.692791
O O8 0.278090 0.077691 0.684708
O O9 0.173057 0.210325 0.682303
O O10 0.869072 0.552642 0.347961
O O11 0.884053 0.287513 0.322959
O O12 0.814310 0.341668 0.383215
O O13 0.293255 0.662842 0.059413
O O14 0.269870 0.399964 0.062834
O O15 0.325456 0.500000 0.000000
O O16 0.709868 0.790039 0.885631
#
# Coordination Sequence:
#
# PCOD9469522 Si02
#       8
#     4  16  16  16  16  16  16  16
#     4  12  24  40  56  82 110 148 210 238 274 324
#     4  10  21  40  59  77 106 156 199 228 271 329
#     4  10  20  33  53  82 111 141 180 231 291 342
#     4  11  20  34  56  83 113 143 181 232 290 346
#     4  11  21  34  59  91 120 148 183 230 284 341
#     4   9  20  34  55  79 108 148 187 226 280 341
#     4  11  22  38  61  78 110 153 190 236 281 335
#     4  10  18  35  56  86 120 147 176 223 292 346
#
# _framework density 16.447915999999999
#
# number of rings (size 3 to 8) (size 9 to 14) (size 15 to 20)
#    0.000    1.655    4.138    2.897    0.966    1.931 
#    1.241    0.000    0.000    3.310    0.000    0.966 
#    0.000    0.000    0.000    0.000    0.000    0.000 
#
# Total GULP energy -323283.373816 kJ/mol
# GULP energy per Si atom -5573.851273 kJ/mol
# Density = 1.641048 g / cm^3
# Si number density = 16.447916 Si / 1000 Ang^3
#
#
#
# Elastic Constant Matrix: (Units=GPa)
#
#
# Indices 1 2 3 4 5 6 
#
# 1 58.1286 8.1437 14.5971 0.0000 0.0000 0.0000
# 2 8.1437 81.7561 11.8179 0.0000 0.0000 0.0000
# 3 14.5971 11.8179 111.0612 0.0000 0.0000 0.0000
# 4 0.0000 0.0000 0.0000 8.0909 0.0000 0.0000
# 5 0.0000 0.0000 0.0000 0.0000 7.7310 0.0000
# 6 0.0000 0.0000 0.0000 0.0000 0.0000 2.4546
#
#
#
# Elastic Compliance Matrix: (Units=1/GPa)
#
#
# Indices 1 2 3 4 5 6 
#
# 1 0.017963 -0.001471 -0.002204 0.000000 0.000000 0.000000
# 2 -0.001471 0.012543 -0.001141 0.000000 0.000000 0.000000
# 3 -0.002204 -0.001141 0.009415 0.000000 0.000000 0.000000
# 4 0.000000 0.000000 0.000000 0.123596 0.000000 0.000000
# 5 0.000000 0.000000 0.000000 0.000000 0.129349 0.000000
# 6 0.000000 0.000000 0.000000 0.000000 0.000000 0.407402
#
#
# Mechanical properties :
#
#
# Convention : Reuss Voigt Hill
#
# Bulk Modulus (GPa) = 33.01619 35.56258 34.28938
# Shear Modulus (GPa) = 6.94448 18.08111 12.51279
#
# Velocity S-wave (km/s) = 2.05700 3.31916 2.76117
# Velocity P-wave (km/s) = 5.07528 6.02971 5.57296
#
# Compressibility (1/GPa) = 0.03028818
#
# Stress axis : x y z
#
# Youngs Moduli (GPa) = 55.67047 79.72581 106.21082
#
# Poissons Ratio (x) = 0.11725 0.23413
# Poissons Ratio (y) = 0.08187 0.12123
# Poissons Ratio (z) = 0.12272 0.09100
#
# Static dielectric constant tensor:
#      x y z
#    x 1.534460 0.000000 0.000000 
#    y 0.000000 1.562160 0.000000 
#    z 0.000000 0.000000 1.531800 
# 
# From -- ./inp_files/74333.got.cif
#   From: 2010.05.17/outbox.cif.g08.bks.cpg/sg63_38_cif.got.tgz:74333.got - 2010.06.03 15:47:04.
