data_PCOD9469821
_publ_section_title
;
Structure prediction by ZEFSAII (Michael W. Deem and Ramdas Pophale) SiO2 
 PCOD9469821
Probable space group: C M C M
;
_chemical_formula_sum "Si O2"
_cell_formula_units_Z 96
_cell_length_a 7.514313
_cell_length_b 24.508916
_cell_length_c 26.166345
_cell_angle_alpha 90.000000
_cell_angle_beta 90.000000
_cell_angle_gamma 90.000000
_cell_volume 4818.994689
_symmetry_space_group_name_H-M "C M C M"
_symmetry_group_IT_number 63
_symmetry_cell_setting 'orthorhombic'
loop_
_space_group_symop_operation_xyz
x,y,z
-x,-y,1/2+z
x,-y,-z
-x,y,1/2-z
-x,-y,-z
x,y,1/2-z
-x,y,z
x,-y,1/2+z
1/2+x,1/2+y,z
1/2-x,1/2-y,1/2+z
1/2+x,1/2-y,-z
1/2-x,1/2+y,1/2-z
1/2-x,1/2-y,-z
1/2+x,1/2+y,1/2-z
1/2-x,1/2+y,z
1/2+x,1/2-y,1/2+z
loop_
_atom_site_type_symbol
_atom_site_label
_atom_site_fract_x
_atom_site_fract_y
_atom_site_fract_z
Si Si1 0.781801 0.366227 0.403374
Si Si2 0.787285 0.434939 0.307677
Si Si3 0.713605 0.251379 0.560520
Si Si4 0.288819 0.633252 0.399836
Si Si5 0.785204 0.437780 0.500371
Si Si6 0.714157 0.560171 0.191996
O O1 0.720936 0.393506 0.350620
O O2 0.722251 0.304467 0.413591
O O3 0.725329 0.403777 0.451002
O O4 0.000000 0.366166 0.403167
O O5 0.716409 0.427496 0.250000
O O6 0.754929 0.497763 0.323116
O O7 0.000000 0.427932 0.305199
O O8 0.500000 0.251889 0.565801
O O9 0.750000 0.250000 0.500000
O O10 0.783896 0.307190 0.585448
O O11 0.500000 0.639971 0.391675
O O12 0.265151 0.593913 0.448363
O O13 0.216792 0.602913 0.349643
O O14 0.720695 0.500000 0.500000
O O15 0.000000 0.439239 0.498516
O O16 0.780231 0.568463 0.250000
O O17 0.500000 0.564607 0.193363
#
# Coordination Sequence:
#
# PCOD9469821 Si02
#       6
#    16  16  16  16  16  16
#     4   9  17  30  47  69  97 124 154 195 240 282
#     4   9  17  31  52  75  96 122 159 199 237 282
#     4  10  19  33  50  68  94 129 164 197 237 283
#     4  10  20  32  48  71  96 124 162 201 235 280
#     4  10  19  30  47  70  96 127 157 191 242 294
#     4   9  18  33  50  69  97 129 156 190 240 289
#
# _framework density 19.921168000000002
#
# number of rings (size 3 to 8) (size 9 to 14) (size 15 to 20)
#    0.000    2.500    1.667    1.000    0.000    2.333 
#    0.000    2.500    0.000    5.000    0.000    0.000 
#    0.000    6.667    0.000    0.000    0.000    0.000 
#
# Total GULP energy -267970.242495 kJ/mol
# GULP energy per Si atom -5582.713385 kJ/mol
# Density = 1.987583 g / cm^3
# Si number density = 19.921168 Si / 1000 Ang^3
#
#
#
# Elastic Constant Matrix: (Units=GPa)
#
#
# Indices 1 2 3 4 5 6 
#
# 1 53.2754 4.3007 2.3124 0.0000 0.0000 0.0000
# 2 4.3007 218.3886 125.6652 0.0000 0.0000 0.0000
# 3 2.3124 125.6652 150.7117 0.0000 0.0000 0.0000
# 4 0.0000 0.0000 0.0000 19.5868 0.0000 0.0000
# 5 0.0000 0.0000 0.0000 0.0000 15.7750 0.0000
# 6 0.0000 0.0000 0.0000 0.0000 0.0000 1.8532
#
#
#
# Elastic Compliance Matrix: (Units=1/GPa)
#
#
# Indices 1 2 3 4 5 6 
#
# 1 0.018800 -0.000393 0.000039 0.000000 0.000000 0.000000
# 2 -0.000393 0.008810 -0.007340 0.000000 0.000000 0.000000
# 3 0.000039 -0.007340 0.012755 0.000000 0.000000 0.000000
# 4 0.000000 0.000000 0.000000 0.051055 0.000000 0.000000
# 5 0.000000 0.000000 0.000000 0.000000 0.063391 0.000000
# 6 0.000000 0.000000 0.000000 0.000000 0.000000 0.539601
#
#
# Mechanical properties :
#
#
# Convention : Reuss Voigt Hill
#
# Bulk Modulus (GPa) = 40.03536 76.32583 58.18060
# Shear Modulus (GPa) = 6.96256 26.78282 16.87269
#
# Velocity S-wave (km/s) = 1.87153 3.67064 2.91344
# Velocity P-wave (km/s) = 4.98104 7.50746 6.37074
#
# Compressibility (1/GPa) = 0.02497792
#
# Stress axis : x y z
#
# Youngs Moduli (GPa) = 53.19038 113.50171 78.40091
#
# Poissons Ratio (x) = 0.04456 -0.00305
# Poissons Ratio (y) = 0.02088 0.57548
# Poissons Ratio (z) = -0.00207 0.83313
#
# Static dielectric constant tensor:
#      x y z
#    x 1.757730 0.000000 0.000000 
#    y 0.000000 1.684430 0.000000 
#    z 0.000000 0.000000 1.681890 
# 
# From -- ./inp_files/59906.got.cif
#   From: 2010.05.17/outbox.cif.g08.bks.cpg/sg63_30_cif.got.tgz:59906.got - 2010.06.03 15:47:04.
