data_PCOD9469156
_publ_section_title
;
Structure prediction by ZEFSAII (Michael W. Deem and Ramdas Pophale) SiO2 
 PCOD9469156
Probable space group: C M C M
;
_chemical_formula_sum "Si O2"
_cell_formula_units_Z 80
_cell_length_a 26.612190
_cell_length_b 10.008408
_cell_length_c 16.854929
_cell_angle_alpha 90.000000
_cell_angle_beta 90.000000
_cell_angle_gamma 90.000000
_cell_volume 4489.237109
_symmetry_space_group_name_H-M "C M C M"
_symmetry_group_IT_number 63
_symmetry_cell_setting 'orthorhombic'
loop_
_space_group_symop_operation_xyz
x,y,z
-x,-y,1/2+z
x,-y,-z
-x,y,1/2-z
-x,-y,-z
x,y,1/2-z
-x,y,z
x,-y,1/2+z
1/2+x,1/2+y,z
1/2-x,1/2-y,1/2+z
1/2+x,1/2-y,-z
1/2-x,1/2+y,1/2-z
1/2-x,1/2-y,-z
1/2+x,1/2+y,1/2-z
1/2-x,1/2+y,z
1/2+x,1/2-y,1/2+z
loop_
_atom_site_type_symbol
_atom_site_label
_atom_site_fract_x
_atom_site_fract_y
_atom_site_fract_z
Si Si1 0.665832 0.295041 0.346244
Si Si2 0.862070 0.509946 0.406029
Si Si3 0.218018 0.303359 0.154199
Si Si4 0.363116 0.413368 0.653396
Si Si5 0.057298 0.303166 0.345819
O O1 0.664808 0.289783 0.250000
O O2 0.640118 0.162540 0.378818
O O3 0.724382 0.297558 0.371469
O O4 0.640829 0.434054 0.372807
O O5 0.863039 0.500000 0.500000
O O6 0.812528 0.432324 0.374872
O O7 0.909656 0.429513 0.371938
O O8 0.217740 0.307522 0.250000
O O9 0.185668 0.173667 0.129408
O O10 0.362924 0.415318 0.750000
O O11 0.411680 0.328490 0.628187
O O12 0.056668 0.301809 0.250000
O O13 0.000000 0.306191 0.374232
#
# Coordination Sequence:
#
# PCOD9469156 Si02
#       5
#    16  16  16  16  16
#     4  10  18  31  53  77 100 128 168 214 248 286
#     4  11  22  33  48  75 110 140 167 204 252 309
#     4   9  17  32  52  72  99 137 173 201 241 299
#     4   8  15  28  49  75  95 117 160 212 252 288
#     4   9  18  36  58  73  92 129 173 214 259 310
#
# _framework density 17.820398999999998
#
# number of rings (size 3 to 8) (size 9 to 14) (size 15 to 20)
#    0.000    2.600    0.000    4.200    0.000    4.400 
#    0.000    5.000    0.000    4.800    0.000    0.000 
#    0.000    0.000    0.000    0.000    0.000    0.000 
#
# Total GULP energy -223119.297536 kJ/mol
# GULP energy per Si atom -5577.982438 kJ/mol
# Density = 1.777984 g / cm^3
# Si number density = 17.820399 Si / 1000 Ang^3
#
#
#
# Elastic Constant Matrix: (Units=GPa)
#
#
# Indices 1 2 3 4 5 6 
#
# 1 144.1005 82.4107 18.7160 0.0000 0.0000 0.0000
# 2 82.4107 174.5523 13.0483 0.0000 0.0000 0.0000
# 3 18.7160 13.0483 9.5642 0.0000 0.0000 0.0000
# 4 0.0000 0.0000 0.0000 -11.2100 0.0000 0.0000
# 5 0.0000 0.0000 0.0000 0.0000 -53.6514 0.0000
# 6 0.0000 0.0000 0.0000 0.0000 0.0000 5.1453
#
#
#
# Elastic Compliance Matrix: (Units=1/GPa)
#
#
# Indices 1 2 3 4 5 6 
#
# 1 0.011516 -0.004178 -0.016834 0.000000 0.000000 0.000000
# 2 -0.004178 0.007896 -0.002595 0.000000 0.000000 0.000000
# 3 -0.016834 -0.002595 0.141039 0.000000 0.000000 0.000000
# 4 0.000000 0.000000 0.000000 -0.089206 0.000000 0.000000
# 5 0.000000 0.000000 0.000000 0.000000 -0.018639 0.000000
# 6 0.000000 0.000000 0.000000 0.000000 0.000000 0.194354
#
#
# Mechanical properties :
#
#
# Convention : Reuss Voigt Hill
#
# Bulk Modulus (GPa) = 8.83119 61.84076 35.33598
# Shear Modulus (GPa) = 15.06385 2.32623 8.69504
#
# Velocity S-wave (km/s) = 2.91058 1.14377 2.21130
# Velocity P-wave (km/s) = 4.03259 6.04333 5.13730
#
# Compressibility (1/GPa) = 0.11323500
#
# Stress axis : x y z
#
# Youngs Moduli (GPa) = 86.83793 126.65109 7.09022
#
# Poissons Ratio (x) = 0.52921 0.11936
# Poissons Ratio (y) = 0.36285 0.01840
# Poissons Ratio (z) = 1.46184 0.32869
#
# Static dielectric constant tensor:
#      x y z
#    x 1.599870 0.000000 0.000000 
#    y 0.000000 1.606730 0.000000 
#    z 0.000000 0.000000 1.596870 
# 
# From -- ./inp_files/48748.got.cif
#   From: 2010.05.17/outbox.cif.g08.bks.cpg/sg63_25_cif.got.tgz:48748.got - 2010.06.03 15:47:04.
