data_PCOD9469186
_publ_section_title
;
Structure prediction by ZEFSAII (Michael W. Deem and Ramdas Pophale) SiO2 
 PCOD9469186
Probable space group: C M C M
;
_chemical_formula_sum "Si O2"
_cell_formula_units_Z 88
_cell_length_a 14.785583
_cell_length_b 14.792683
_cell_length_c 21.432152
_cell_angle_alpha 90.000000
_cell_angle_beta 90.000000
_cell_angle_gamma 90.000000
_cell_volume 4687.606900
_symmetry_space_group_name_H-M "C M C M"
_symmetry_group_IT_number 63
_symmetry_cell_setting 'orthorhombic'
loop_
_space_group_symop_operation_xyz
x,y,z
-x,-y,1/2+z
x,-y,-z
-x,y,1/2-z
-x,-y,-z
x,y,1/2-z
-x,y,z
x,-y,1/2+z
1/2+x,1/2+y,z
1/2-x,1/2-y,1/2+z
1/2+x,1/2-y,-z
1/2-x,1/2+y,1/2-z
1/2-x,1/2-y,-z
1/2+x,1/2+y,1/2-z
1/2-x,1/2+y,z
1/2+x,1/2-y,1/2+z
loop_
_atom_site_type_symbol
_atom_site_label
_atom_site_fract_x
_atom_site_fract_y
_atom_site_fract_z
Si Si1 0.704699 0.410026 0.906084
Si Si2 0.607122 0.562387 0.822679
Si Si3 0.595447 0.856116 0.409931
Si Si4 0.399955 0.690924 0.995089
Si Si5 0.221946 0.215181 0.625360
Si Si6 0.656757 0.000000 0.000000
O O1 0.666693 0.490790 0.863015
O O2 0.622873 0.381323 0.951733
O O3 0.746943 0.320763 0.871460
O O4 0.779438 0.439636 0.956246
O O5 0.613968 0.537704 0.750000
O O6 0.500000 0.559777 0.839527
O O7 0.649367 0.663240 0.831756
O O8 0.500000 0.846476 0.375902
O O9 0.599730 0.781974 0.464717
O O10 0.684403 0.840066 0.369817
O O11 0.600380 0.947188 0.448770
O O12 0.500000 0.676822 0.967878
O O13 0.323075 0.698668 0.942889
#
# Coordination Sequence:
#
# PCOD9469186 Si02
#       6
#    16  16  16  16  16   8
#     4  11  20  35  60  86 120 155 189 235 294 355
#     4  11  25  43  62  84 111 151 206 257 297 340
#     4  10  19  30  49  82 118 150 180 217 273 348
#     4  10  18  31  54  86 120 148 181 228 287 355
#     4  11  20  37  59  85 119 153 192 237 293 354
#     4  12  17  32  53  84 118 154 183 218 281 354
#
# _framework density 18.772904
#
# number of rings (size 3 to 8) (size 9 to 14) (size 15 to 20)
#    0.000    1.273    5.455    2.455    0.000    1.455 
#    0.000    2.727    0.000    0.545    0.000    0.000 
#    0.000    0.000    0.000    0.000    0.000    0.000 
#
# Total GULP energy -244970.546063 kJ/mol
# GULP energy per Si atom -5567.512411 kJ/mol
# Density = 1.873018 g / cm^3
# Si number density = 18.772904 Si / 1000 Ang^3
#
#
#
# Elastic Constant Matrix: (Units=GPa)
#
#
# Indices 1 2 3 4 5 6 
#
# 1 125.6443 29.8126 8.3673 0.0000 0.0000 0.0000
# 2 29.8126 66.7650 14.2569 0.0000 0.0000 0.0000
# 3 8.3673 14.2569 27.5016 0.0000 0.0000 0.0000
# 4 0.0000 0.0000 0.0000 12.2065 0.0000 0.0000
# 5 0.0000 0.0000 0.0000 0.0000 17.7930 0.0000
# 6 0.0000 0.0000 0.0000 0.0000 0.0000 59.0652
#
#
#
# Elastic Compliance Matrix: (Units=1/GPa)
#
#
# Indices 1 2 3 4 5 6 
#
# 1 0.008915 -0.003825 -0.000729 0.000000 0.000000 0.000000
# 2 -0.003825 0.018484 -0.008418 0.000000 0.000000 0.000000
# 3 -0.000729 -0.008418 0.040947 0.000000 0.000000 0.000000
# 4 0.000000 0.000000 0.000000 0.081924 0.000000 0.000000
# 5 0.000000 0.000000 0.000000 0.000000 0.056202 0.000000
# 6 0.000000 0.000000 0.000000 0.000000 0.000000 0.016930
#
#
# Mechanical properties :
#
#
# Convention : Reuss Voigt Hill
#
# Bulk Modulus (GPa) = 23.58452 36.08719 29.83586
# Shear Modulus (GPa) = 18.97669 28.97788 23.97728
#
# Velocity S-wave (km/s) = 3.18284 3.93313 3.57771
# Velocity P-wave (km/s) = 5.10859 6.31591 5.74406
#
# Compressibility (1/GPa) = 0.04240069
#
# Stress axis : x y z
#
# Youngs Moduli (GPa) = 112.16828 54.10216 24.42152
#
# Poissons Ratio (x) = 0.20695 0.01781
# Poissons Ratio (y) = 0.42906 0.20558
# Poissons Ratio (z) = 0.08182 0.45544
#
# Static dielectric constant tensor:
#      x y z
#    x 1.702090 0.000000 0.000000 
#    y 0.000000 1.850990 0.000000 
#    z 0.000000 0.000000 1.653970 
# 
# From -- ./inp_files/54100.got.cif
#   From: 2010.05.17/outbox.cif.g08.bks.cpg/sg63_28_cif.got.tgz:54100.got - 2010.06.03 15:47:04.
