data_PCOD9469608
_publ_section_title
;
Structure prediction by ZEFSAII (Michael W. Deem and Ramdas Pophale) SiO2 
 PCOD9469608
Probable space group: C M C M
;
_chemical_formula_sum "Si O2"
_cell_formula_units_Z 112
_cell_length_a 14.743777
_cell_length_b 30.484115
_cell_length_c 14.509453
_cell_angle_alpha 90.000000
_cell_angle_beta 90.000000
_cell_angle_gamma 90.000000
_cell_volume 6521.288067
_symmetry_space_group_name_H-M "C M C M"
_symmetry_group_IT_number 63
_symmetry_cell_setting 'orthorhombic'
loop_
_space_group_symop_operation_xyz
x,y,z
-x,-y,1/2+z
x,-y,-z
-x,y,1/2-z
-x,-y,-z
x,y,1/2-z
-x,y,z
x,-y,1/2+z
1/2+x,1/2+y,z
1/2-x,1/2-y,1/2+z
1/2+x,1/2-y,-z
1/2-x,1/2+y,1/2-z
1/2-x,1/2-y,-z
1/2+x,1/2+y,1/2-z
1/2-x,1/2+y,z
1/2+x,1/2-y,1/2+z
loop_
_atom_site_type_symbol
_atom_site_label
_atom_site_fract_x
_atom_site_fract_y
_atom_site_fract_z
Si Si1 0.396176 0.775952 0.643554
Si Si2 0.393860 0.896854 0.056409
Si Si3 0.392072 0.720800 0.469989
Si Si4 0.725953 0.339115 0.854043
Si Si5 0.340397 0.082325 0.149268
Si Si6 0.395688 0.010616 0.891540
Si Si7 0.889338 0.306779 0.143396
O O1 0.394395 0.762227 0.750000
O O2 0.500000 0.790758 0.621219
O O3 0.374386 0.736631 0.573882
O O4 0.322753 0.814381 0.633288
O O5 0.500000 0.896935 0.079734
O O6 0.357642 0.939945 0.110088
O O7 0.356752 0.850300 0.090174
O O8 0.388014 0.904060 0.946357
O O9 0.500000 0.715039 0.459454
O O10 0.339885 0.679135 0.431391
O O11 0.361615 0.762276 0.407396
O O12 0.693628 0.327927 0.750000
O O13 0.746980 0.390715 0.857118
O O14 0.380368 0.095636 0.250000
O O15 0.339394 0.029669 0.148788
O O16 0.500000 0.008770 0.856329
O O17 0.401729 0.000000 0.000000
O O18 0.861732 0.307336 0.250000
O O19 0.000000 0.306843 0.140705
#
# Coordination Sequence:
#
# PCOD9469608 Si02
#       7
#    16  16  16  16  16  16  16
#     4   9  18  31  46  66  91 118 150 190 237 286
#     4   9  17  29  43  62  89 117 149 190 230 270
#     4  10  19  32  50  68  90 124 163 202 240 277
#     4  10  20  31  44  65  93 125 161 200 237 274
#     4  10  19  28  40  60  86 117 151 185 224 270
#     4   8  15  27  41  58  83 115 150 185 221 266
#     4   9  17  28  42  60  82 112 151 191 230 272
#
# _framework density 17.174520000000001
#
# number of rings (size 3 to 8) (size 9 to 14) (size 15 to 20)
#    0.000    2.714    0.000    3.000    0.000    4.857 
#    0.000    4.286    0.000    0.000    0.000    0.000 
#    0.000    5.143    0.000    0.286    0.000   21.571 
#
# Total GULP energy -311870.222443 kJ/mol
# GULP energy per Si atom -5569.111115 kJ/mol
# Density = 1.713543 g / cm^3
# Si number density = 17.174520 Si / 1000 Ang^3
#
#
#
# Elastic Constant Matrix: (Units=GPa)
#
#
# Indices 1 2 3 4 5 6 
#
# 1 31.3067 19.6843 21.0460 0.0000 0.0000 0.0000
# 2 19.6843 88.4623 33.7614 0.0000 0.0000 0.0000
# 3 21.0460 33.7614 84.0708 0.0000 0.0000 0.0000
# 4 0.0000 0.0000 0.0000 16.9842 0.0000 0.0000
# 5 0.0000 0.0000 0.0000 0.0000 11.4693 0.0000
# 6 0.0000 0.0000 0.0000 0.0000 0.0000 21.8227
#
#
#
# Elastic Compliance Matrix: (Units=1/GPa)
#
#
# Indices 1 2 3 4 5 6 
#
# 1 0.041062 -0.006158 -0.007806 0.000000 0.000000 0.000000
# 2 -0.006158 0.014274 -0.004191 0.000000 0.000000 0.000000
# 3 -0.007806 -0.004191 0.015532 0.000000 0.000000 0.000000
# 4 0.000000 0.000000 0.000000 0.058878 0.000000 0.000000
# 5 0.000000 0.000000 0.000000 0.000000 0.087190 0.000000
# 6 0.000000 0.000000 0.000000 0.000000 0.000000 0.045824
#
#
# Mechanical properties :
#
#
# Convention : Reuss Voigt Hill
#
# Bulk Modulus (GPa) = 28.93692 39.20257 34.06974
# Shear Modulus (GPa) = 16.09853 18.67844 17.38849
#
# Velocity S-wave (km/s) = 3.06494 3.30141 3.18537
# Velocity P-wave (km/s) = 5.42314 6.11620 5.78007
#
# Compressibility (1/GPa) = 0.03455793
#
# Stress axis : x y z
#
# Youngs Moduli (GPa) = 24.35367 70.05870 64.38381
#
# Poissons Ratio (x) = 0.43139 0.50261
# Poissons Ratio (y) = 0.14996 0.26981
# Poissons Ratio (z) = 0.19012 0.29359
#
# Static dielectric constant tensor:
#      x y z
#    x 1.577670 0.000000 0.000000 
#    y 0.000000 1.625360 0.000000 
#    z 0.000000 0.000000 1.630030 
# 
# From -- ./inp_files/32570.got.cif
#   From: 2010.05.17/outbox.cif.g08.bks.cpg/sg63_17_cif.got.tgz:32570.got - 2010.06.03 15:47:04.
