data_PCOD9469147
_publ_section_title
;
Structure prediction by ZEFSAII (Michael W. Deem and Ramdas Pophale) SiO2 
 PCOD9469147
Probable space group: C M C M
;
_chemical_formula_sum "Si O2"
_cell_formula_units_Z 80
_cell_length_a 9.011546
_cell_length_b 20.505428
_cell_length_c 25.222879
_cell_angle_alpha 90.000000
_cell_angle_beta 90.000000
_cell_angle_gamma 90.000000
_cell_volume 4660.825023
_symmetry_space_group_name_H-M "C M C M"
_symmetry_group_IT_number 63
_symmetry_cell_setting 'orthorhombic'
loop_
_space_group_symop_operation_xyz
x,y,z
-x,-y,1/2+z
x,-y,-z
-x,y,1/2-z
-x,-y,-z
x,y,1/2-z
-x,y,z
x,-y,1/2+z
1/2+x,1/2+y,z
1/2-x,1/2-y,1/2+z
1/2+x,1/2-y,-z
1/2-x,1/2+y,1/2-z
1/2-x,1/2-y,-z
1/2+x,1/2+y,1/2-z
1/2-x,1/2+y,z
1/2+x,1/2-y,1/2+z
loop_
_atom_site_type_symbol
_atom_site_label
_atom_site_fract_x
_atom_site_fract_y
_atom_site_fract_z
Si Si1 0.827591 0.485995 0.250000
Si Si2 0.170268 0.644614 0.250000
Si Si3 0.322332 0.486155 0.360050
Si Si4 0.176977 0.140942 0.358718
Si Si5 0.324854 0.065643 0.965272
Si Si6 0.821317 0.813674 0.974299
O O1 0.823567 0.565304 0.250000
O O2 0.744169 0.465297 0.196559
O O3 0.000000 0.466320 0.250000
O O4 0.247779 0.664861 0.195318
O O5 0.000000 0.664855 0.250000
O O6 0.500000 0.478541 0.361163
O O7 0.288950 0.563779 0.366276
O O8 0.245735 0.448562 0.408111
O O9 0.220523 0.177999 0.412306
O O10 0.000000 0.145672 0.352308
O O11 0.500000 0.080362 0.960816
O O12 0.240231 0.123648 0.994692
O O13 0.308612 0.000000 0.000000
O O14 0.000000 0.811742 0.977438
O O15 0.750000 0.750000 0.000000
#
# Coordination Sequence:
#
# PCOD9469147 Si02
#       6
#     8   8  16  16  16  16
#     4   9  17  29  45  74 111 142 175 222 277 325
#     4   9  17  27  47  76 105 136 175 222 269 313
#     4  10  18  31  52  78 108 143 183 225 272 328
#     4   9  18  32  51  75 107 142 178 219 269 324
#     4  11  22  35  55  82 111 144 182 227 275 325
#     4  11  23  39  57  80 111 149 187 228 277 332
#
# _framework density 17.164342999999999
#
# number of rings (size 3 to 8) (size 9 to 14) (size 15 to 20)
#    0.000    2.000    2.000    2.400    0.000    5.600 
#    0.000    0.000    0.000    1.200    0.000    4.200 
#    0.000    0.000    0.000    0.000    0.000    0.000 
#
# Total GULP energy -223235.824543 kJ/mol
# GULP energy per Si atom -5580.895614 kJ/mol
# Density = 1.712528 g / cm^3
# Si number density = 17.164343 Si / 1000 Ang^3
#
#
#
# Elastic Constant Matrix: (Units=GPa)
#
#
# Indices 1 2 3 4 5 6 
#
# 1 85.4813 42.8484 83.5823 0.0000 0.0000 0.0000
# 2 42.8484 57.0306 54.2958 0.0000 0.0000 0.0000
# 3 83.5823 54.2958 203.4070 0.0000 0.0000 0.0000
# 4 0.0000 0.0000 0.0000 18.0212 0.0000 0.0000
# 5 0.0000 0.0000 0.0000 0.0000 32.8528 0.0000
# 6 0.0000 0.0000 0.0000 0.0000 0.0000 23.4698
#
#
#
# Elastic Compliance Matrix: (Units=1/GPa)
#
#
# Indices 1 2 3 4 5 6 
#
# 1 0.024260 -0.011713 -0.006842 0.000000 0.000000 0.000000
# 2 -0.011713 0.029164 -0.002972 0.000000 0.000000 0.000000
# 3 -0.006842 -0.002972 0.008521 0.000000 0.000000 0.000000
# 4 0.000000 0.000000 0.000000 0.055490 0.000000 0.000000
# 5 0.000000 0.000000 0.000000 0.000000 0.030439 0.000000
# 6 0.000000 0.000000 0.000000 0.000000 0.000000 0.042608
#
#
# Mechanical properties :
#
#
# Convention : Reuss Voigt Hill
#
# Bulk Modulus (GPa) = 52.93500 78.59689 65.76595
# Shear Modulus (GPa) = 20.84788 25.88157 23.36473
#
# Velocity S-wave (km/s) = 3.48890 3.88734 3.69350
# Velocity P-wave (km/s) = 6.86563 8.12642 7.52249
#
# Compressibility (1/GPa) = 0.01889109
#
# Stress axis : x y z
#
# Youngs Moduli (GPa) = 41.22047 34.28889 117.35706
#
# Poissons Ratio (x) = 0.40162 0.80296
# Poissons Ratio (y) = 0.48281 0.34876
# Poissons Ratio (z) = 0.28203 0.10190
#
# Static dielectric constant tensor:
#      x y z
#    x 1.569850 0.000000 0.000000 
#    y 0.000000 1.560610 0.000000 
#    z 0.000000 0.000000 1.574480 
# 
# From -- ./inp_files/59532.got.cif
#   From: 2010.05.17/outbox.cif.g08.bks.cpg/sg63_30_cif.got.tgz:59532.got - 2010.06.03 15:47:04.
