data_PCOD9469320
_publ_section_title
;
Structure prediction by ZEFSAII (Michael W. Deem and Ramdas Pophale) SiO2 
 PCOD9469320
Probable space group: C M C M
;
_chemical_formula_sum "Si O2"
_cell_formula_units_Z 64
_cell_length_a 18.527709
_cell_length_b 9.477124
_cell_length_c 17.794655
_cell_angle_alpha 90.000000
_cell_angle_beta 90.000000
_cell_angle_gamma 90.000000
_cell_volume 3124.552717
_symmetry_space_group_name_H-M "C M C M"
_symmetry_group_IT_number 63
_symmetry_cell_setting 'orthorhombic'
loop_
_space_group_symop_operation_xyz
x,y,z
-x,-y,1/2+z
x,-y,-z
-x,y,1/2-z
-x,-y,-z
x,y,1/2-z
-x,y,z
x,-y,1/2+z
1/2+x,1/2+y,z
1/2-x,1/2-y,1/2+z
1/2+x,1/2-y,-z
1/2-x,1/2+y,1/2-z
1/2-x,1/2-y,-z
1/2+x,1/2+y,1/2-z
1/2-x,1/2+y,z
1/2+x,1/2-y,1/2+z
loop_
_atom_site_type_symbol
_atom_site_label
_atom_site_fract_x
_atom_site_fract_y
_atom_site_fract_z
Si Si1 0.269376 0.545209 0.833936
Si Si2 0.291399 0.804788 0.573929
Si Si3 0.916599 0.877039 0.832321
Si Si4 0.584108 0.666128 0.496339
O O1 0.240805 0.521012 0.750000
O O2 0.267873 0.707730 0.856224
O O3 0.227840 0.459995 0.898971
O O4 0.352828 0.492076 0.834202
O O5 0.250000 0.750000 0.500000
O O6 0.372593 0.765852 0.551933
O O7 0.910968 0.806515 0.750000
O O8 0.905862 0.790216 0.908933
O O9 0.000000 0.931695 0.837613
O O10 0.607845 0.500000 0.500000
O O11 0.500000 0.667604 0.514105
#
# Coordination Sequence:
#
# PCOD9469320 Si02
#       4
#    16  16  16  16
#     4  11  23  37  56  82 115 151 188 232 285 341
#     4  12  21  37  57  85 113 147 187 235 283 338
#     4   9  17  31  52  80 111 143 183 231 281 329
#     4  10  18  32  54  82 111 141 182 237 286 324
#
# _framework density 20.482931000000001
#
# number of rings (size 3 to 8) (size 9 to 14) (size 15 to 20)
#    0.000    1.500    5.000    1.500    0.000    0.000 
#    0.000    0.000    0.000    6.750    0.000    0.000 
#    0.000    0.000    0.000    0.000    0.000    0.000 
#
# Total GULP energy -178437.369473 kJ/mol
# GULP energy per Si atom -5576.167796 kJ/mol
# Density = 2.043631 g / cm^3
# Si number density = 20.482931 Si / 1000 Ang^3
#
#
#
# Elastic Constant Matrix: (Units=GPa)
#
#
# Indices 1 2 3 4 5 6 
#
# 1 63.3241 6.4678 14.4532 0.0000 0.0000 0.0000
# 2 6.4678 33.4210 7.4204 0.0000 0.0000 0.0000
# 3 14.4532 7.4204 129.1709 0.0000 0.0000 0.0000
# 4 0.0000 0.0000 0.0000 26.1031 0.0000 0.0000
# 5 0.0000 0.0000 0.0000 0.0000 32.5297 0.0000
# 6 0.0000 0.0000 0.0000 0.0000 0.0000 11.7811
#
#
#
# Elastic Compliance Matrix: (Units=1/GPa)
#
#
# Indices 1 2 3 4 5 6 
#
# 1 0.016463 -0.002813 -0.001680 0.000000 0.000000 0.000000
# 2 -0.002813 0.030788 -0.001454 0.000000 0.000000 0.000000
# 3 -0.001680 -0.001454 0.008013 0.000000 0.000000 0.000000
# 4 0.000000 0.000000 0.000000 0.038310 0.000000 0.000000
# 5 0.000000 0.000000 0.000000 0.000000 0.030741 0.000000
# 6 0.000000 0.000000 0.000000 0.000000 0.000000 0.084882
#
#
# Mechanical properties :
#
#
# Convention : Reuss Voigt Hill
#
# Bulk Modulus (GPa) = 23.05746 31.39985 27.22865
# Shear Modulus (GPa) = 21.22708 27.25442 24.24075
#
# Velocity S-wave (km/s) = 3.22270 3.65168 3.44388
# Velocity P-wave (km/s) = 5.01289 5.75698 5.39777
#
# Compressibility (1/GPa) = 0.04336992
#
# Stress axis : x y z
#
# Youngs Moduli (GPa) = 60.74370 32.47967 124.79350
#
# Poissons Ratio (x) = 0.09136 0.20971
# Poissons Ratio (y) = 0.17086 0.18144
# Poissons Ratio (z) = 0.10208 0.04722
#
# Static dielectric constant tensor:
#      x y z
#    x 1.795610 0.000000 0.000000 
#    y 0.000000 1.700650 0.000000 
#    z 0.000000 0.000000 1.793970 
# 
# From -- ./inp_files/45150.got.cif
#   From: 2010.05.17/outbox.cif.g08.bks.cpg/sg63_23_cif.got.tgz:45150.got - 2010.06.03 15:47:04.
