data_PCOD9469607
_publ_section_title
;
Structure prediction by ZEFSAII (Michael W. Deem and Ramdas Pophale) SiO2 
 PCOD9469607
Probable space group: C M C M
;
_chemical_formula_sum "Si O2"
_cell_formula_units_Z 104
_cell_length_a 25.834264
_cell_length_b 33.572028
_cell_length_c 7.733057
_cell_angle_alpha 90.000000
_cell_angle_beta 90.000000
_cell_angle_gamma 90.000000
_cell_volume 6706.947106
_symmetry_space_group_name_H-M "C M C M"
_symmetry_group_IT_number 63
_symmetry_cell_setting 'orthorhombic'
loop_
_space_group_symop_operation_xyz
x,y,z
-x,-y,1/2+z
x,-y,-z
-x,y,1/2-z
-x,-y,-z
x,y,1/2-z
-x,y,z
x,-y,1/2+z
1/2+x,1/2+y,z
1/2-x,1/2-y,1/2+z
1/2+x,1/2-y,-z
1/2-x,1/2+y,1/2-z
1/2-x,1/2-y,-z
1/2+x,1/2+y,1/2-z
1/2-x,1/2+y,z
1/2+x,1/2-y,1/2+z
loop_
_atom_site_type_symbol
_atom_site_label
_atom_site_fract_x
_atom_site_fract_y
_atom_site_fract_z
Si Si1 0.272571 0.305947 0.452511
Si Si2 0.113213 0.046323 0.955835
Si Si3 0.500000 0.547182 0.542180
Si Si4 0.332688 0.770632 0.048322
Si Si5 0.943587 0.746113 0.539081
Si Si6 0.443904 0.339935 0.539764
Si Si7 0.662261 0.377122 0.546866
O O1 0.272350 0.295406 0.250000
O O2 0.313306 0.275281 0.536932
O O3 0.215401 0.296054 0.524146
O O4 0.291560 0.350979 0.471219
O O5 0.111145 0.049328 0.750000
O O6 0.056365 0.060256 0.026548
O O7 0.157708 0.075798 0.019870
O O8 0.120512 0.000000 0.000000
O O9 0.500000 0.500000 0.500000
O O10 0.500000 0.552309 0.750000
O O11 0.337038 0.781483 0.250000
O O12 0.390431 0.773344 0.973581
O O13 0.942893 0.744145 0.750000
O O14 0.941563 0.793108 0.496675
O O15 0.000000 0.730758 0.481877
O O16 0.443872 0.342859 0.750000
O O17 0.500000 0.355655 0.478764
O O18 0.392144 0.360395 0.472791
O O19 0.663293 0.368916 0.750000
#
# Coordination Sequence:
#
# PCOD9469607 Si02
#       7
#    16  16   8  16  16  16  16
#     4  10  19  28  40  58  80 105 132 166 203 240
#     4  10  20  34  47  61  80 101 128 162 204 249
#     4   8  16  30  46  60  78 100 124 158 200 250
#     4   9  16  28  43  58  78 104 134 165 201 242
#     4   8  12  21  39  59  77  97 128 167 201 236
#     4   8  14  23  36  55  75  96 126 164 203 239
#     4  11  20  30  45  60  77 101 134 169 204 245
#
# _framework density 15.506311
#
# number of rings (size 3 to 8) (size 9 to 14) (size 15 to 20)
#    0.000    2.769    1.538    2.308    1.077    1.231 
#    0.000    0.000    0.000    1.385    0.000    0.000 
#    0.000    0.000    0.000    0.000    0.000    0.769 
#
# Total GULP energy -289709.379196 kJ/mol
# GULP energy per Si atom -5571.334215 kJ/mol
# Density = 1.547102 g / cm^3
# Si number density = 15.506311 Si / 1000 Ang^3
#
#
#
# Elastic Constant Matrix: (Units=GPa)
#
#
# Indices 1 2 3 4 5 6 
#
# 1 116.1815 39.8685 0.9967 0.0000 0.0000 0.0000
# 2 39.8685 57.1664 -3.0403 0.0000 0.0000 0.0000
# 3 0.9967 -3.0403 29.9308 0.0000 0.0000 0.0000
# 4 0.0000 0.0000 0.0000 11.9525 0.0000 0.0000
# 5 0.0000 0.0000 0.0000 0.0000 7.8506 0.0000
# 6 0.0000 0.0000 0.0000 0.0000 0.0000 25.2901
#
#
#
# Elastic Compliance Matrix: (Units=1/GPa)
#
#
# Indices 1 2 3 4 5 6 
#
# 1 0.011357 -0.007984 -0.001189 0.000000 0.000000 0.000000
# 2 -0.007984 0.023200 0.002622 0.000000 0.000000 0.000000
# 3 -0.001189 0.002622 0.033716 0.000000 0.000000 0.000000
# 4 0.000000 0.000000 0.000000 0.083665 0.000000 0.000000
# 5 0.000000 0.000000 0.000000 0.000000 0.127379 0.000000
# 6 0.000000 0.000000 0.000000 0.000000 0.000000 0.039541
#
#
# Mechanical properties :
#
#
# Convention : Reuss Voigt Hill
#
# Bulk Modulus (GPa) = 18.12489 30.99204 24.55847
# Shear Modulus (GPa) = 14.27141 20.04889 17.16015
#
# Velocity S-wave (km/s) = 3.03704 3.59966 3.33025
# Velocity P-wave (km/s) = 4.90023 6.10794 5.53711
#
# Compressibility (1/GPa) = 0.05517274
#
# Stress axis : x y z
#
# Youngs Moduli (GPa) = 88.05038 43.10292 29.65919
#
# Poissons Ratio (x) = 0.34413 0.03527
# Poissons Ratio (y) = 0.70298 -0.07778
# Poissons Ratio (z) = 0.10471 -0.11304
#
# Static dielectric constant tensor:
#      x y z
#    x 1.571880 0.000000 0.000000 
#    y 0.000000 1.508920 0.000000 
#    z 0.000000 0.000000 1.575040 
# 
# From -- ./inp_files/13293.got.cif
#   From: 2010.05.17/outbox.cif.g08.bks.cpg/sg63_7_cif.got.tgz:13293.got - 2010.06.03 15:47:04.
