data_PCOD9469519
_publ_section_title
;
Structure prediction by ZEFSAII (Michael W. Deem and Ramdas Pophale) SiO2 
 PCOD9469519
Probable space group: C M C M
;
_chemical_formula_sum "Si O2"
_cell_formula_units_Z 48
_cell_length_a 25.806913
_cell_length_b 8.929116
_cell_length_c 8.003170
_cell_angle_alpha 90.000000
_cell_angle_beta 90.000000
_cell_angle_gamma 90.000000
_cell_volume 1844.193831
_symmetry_space_group_name_H-M "C M C M"
_symmetry_group_IT_number 63
_symmetry_cell_setting 'orthorhombic'
loop_
_space_group_symop_operation_xyz
x,y,z
-x,-y,1/2+z
x,-y,-z
-x,y,1/2-z
-x,-y,-z
x,y,1/2-z
-x,y,z
x,-y,1/2+z
1/2+x,1/2+y,z
1/2-x,1/2-y,1/2+z
1/2+x,1/2-y,-z
1/2-x,1/2+y,1/2-z
1/2-x,1/2-y,-z
1/2+x,1/2+y,1/2-z
1/2-x,1/2+y,z
1/2+x,1/2-y,1/2+z
loop_
_atom_site_type_symbol
_atom_site_label
_atom_site_fract_x
_atom_site_fract_y
_atom_site_fract_z
Si Si1 0.500000 0.824999 0.951389
Si Si2 0.174218 0.067093 0.250000
Si Si3 0.672910 0.000000 0.500000
Si Si4 0.244391 0.670216 0.750000
Si Si5 0.890138 0.789207 0.440801
O O1 0.500000 0.822104 0.750000
O O2 0.552041 0.741074 0.008023
O O3 0.500000 0.000000 0.000000
O O4 0.230178 0.155858 0.250000
O O5 0.142817 0.126118 0.413342
O O6 0.198394 0.897570 0.250000
O O7 0.712297 0.103836 0.598615
O O8 0.635425 0.124690 0.422605
O O9 0.896419 0.854711 0.250000
#
# Coordination Sequence:
#
# PCOD9469519 Si02
#       5
#     8   8   8   8  16
#     4  10  20  28  54  82 122 154 200 232 314 376
#     4  10  24  41  60  84 130 159 208 244 304 346
#     4  10  18  35  56  80 122 155 198 232 296 348
#     4  10  22  38  58  86 116 172 198 252 290 356
#     4  10  20  35  53  85 120 163 192 248 305 366
#
# _framework density 26.027631
#
# number of rings (size 3 to 8) (size 9 to 14) (size 15 to 20)
#    0.000    2.000    3.333    0.000    2.333    5.333 
#    3.000    0.000    0.000    0.000    0.000    0.000 
#    0.000   45.333    0.000    3.000    0.000    0.000 
#
# Total GULP energy -134034.998562 kJ/mol
# GULP energy per Si atom -5584.791607 kJ/mol
# Density = 2.596839 g / cm^3
# Si number density = 26.027631 Si / 1000 Ang^3
#
#
#
# Elastic Constant Matrix: (Units=GPa)
#
#
# Indices 1 2 3 4 5 6 
#
# 1 221.8801 46.9715 43.8313 0.0000 0.0000 0.0000
# 2 46.9715 108.6962 46.5645 0.0000 0.0000 0.0000
# 3 43.8313 46.5645 135.0191 0.0000 0.0000 0.0000
# 4 0.0000 0.0000 0.0000 42.4169 0.0000 0.0000
# 5 0.0000 0.0000 0.0000 0.0000 42.4719 0.0000
# 6 0.0000 0.0000 0.0000 0.0000 0.0000 29.3204
#
#
#
# Elastic Compliance Matrix: (Units=1/GPa)
#
#
# Indices 1 2 3 4 5 6 
#
# 1 0.005084 -0.001748 -0.001047 0.000000 0.000000 0.000000
# 2 -0.001748 0.011396 -0.003363 0.000000 0.000000 0.000000
# 3 -0.001047 -0.003363 0.008906 0.000000 0.000000 0.000000
# 4 0.000000 0.000000 0.000000 0.023575 0.000000 0.000000
# 5 0.000000 0.000000 0.000000 0.000000 0.023545 0.000000
# 6 0.000000 0.000000 0.000000 0.000000 0.000000 0.034106
#
#
# Mechanical properties :
#
#
# Convention : Reuss Voigt Hill
#
# Bulk Modulus (GPa) = 76.51517 82.25887 79.38702
# Shear Modulus (GPa) = 40.55627 44.72374 42.64001
#
# Velocity S-wave (km/s) = 3.95169 4.14976 4.05193
# Velocity P-wave (km/s) = 7.09102 7.39146 7.24280
#
# Compressibility (1/GPa) = 0.01306930
#
# Stress axis : x y z
#
# Youngs Moduli (GPa) = 196.69709 87.75051 112.28278
#
# Poissons Ratio (x) = 0.15341 0.11762
# Poissons Ratio (y) = 0.34387 0.37757
# Poissons Ratio (z) = 0.20604 0.29507
#
# Static dielectric constant tensor:
#      x y z
#    x 2.031800 0.000000 0.000000 
#    y 0.000000 2.180240 0.000000 
#    z 0.000000 0.000000 2.110870 
# 
# From -- ./inp_files/11335.got.cif
#   From: 2010.05.17/outbox.cif.g08.bks.cpg/sg63_6_cif.got.tgz:11335.got - 2010.06.03 15:47:04.
