data_PCOD9469391
_publ_section_title
;
Structure prediction by ZEFSAII (Michael W. Deem and Ramdas Pophale) SiO2 
 PCOD9469391
Probable space group: C M C M
;
_chemical_formula_sum "Si O2"
_cell_formula_units_Z 116
_cell_length_a 7.610023
_cell_length_b 29.238671
_cell_length_c 27.780668
_cell_angle_alpha 90.000000
_cell_angle_beta 90.000000
_cell_angle_gamma 90.000000
_cell_volume 6181.391950
_symmetry_space_group_name_H-M "C M C M"
_symmetry_group_IT_number 63
_symmetry_cell_setting 'orthorhombic'
loop_
_space_group_symop_operation_xyz
x,y,z
-x,-y,1/2+z
x,-y,-z
-x,y,1/2-z
-x,-y,-z
x,y,1/2-z
-x,y,z
x,-y,1/2+z
1/2+x,1/2+y,z
1/2-x,1/2-y,1/2+z
1/2+x,1/2-y,-z
1/2-x,1/2+y,1/2-z
1/2-x,1/2-y,-z
1/2+x,1/2+y,1/2-z
1/2-x,1/2+y,z
1/2+x,1/2-y,1/2+z
loop_
_atom_site_type_symbol
_atom_site_label
_atom_site_fract_x
_atom_site_fract_y
_atom_site_fract_z
Si Si1 0.705746 0.799459 0.451886
Si Si2 0.289400 0.056716 0.804453
Si Si3 0.297775 0.699697 0.439015
Si Si4 0.785819 0.050365 0.514211
Si Si5 0.204914 0.451882 0.675507
Si Si6 0.793024 0.889910 0.101659
Si Si7 0.213769 0.897546 0.581458
Si Si8 0.000000 0.077508 0.250000
O O1 0.500000 0.792576 0.463064
O O2 0.777442 0.750670 0.433012
O O3 0.793089 0.809720 0.503389
O O4 0.720845 0.840972 0.414863
O O5 0.222193 0.063964 0.750000
O O6 0.500000 0.057714 0.802485
O O7 0.235762 0.093550 0.844149
O O8 0.240430 0.005391 0.821090
O O9 0.500000 0.702211 0.423014
O O10 0.221602 0.654729 0.413870
O O11 0.724080 0.071220 0.564768
O O12 0.736076 0.084040 0.471046
O O13 0.000000 0.048187 0.516112
O O14 0.723638 0.000000 0.500000
O O15 0.219078 0.431423 0.622240
O O16 0.344018 0.425530 0.708464
O O17 0.000000 0.448981 0.691071
O O18 0.000000 0.886427 0.093491
O O19 0.000000 0.897680 0.583271
#
# Coordination Sequence:
#
# PCOD9469391 Si02
#       8
#    16  16  16  16  16  16  16   4
#     4  10  19  32  51  78 111 148 184 233 286 336
#     4  10  22  39  56  80 112 143 183 242 288 333
#     4   9  18  33  54  77 109 148 191 229 277 342
#     4   9  17  29  46  73 110 148 183 220 269 333
#     4  11  23  38  59  88 117 147 196 243 285 340
#     4  11  21  33  54  79 108 146 192 232 277 342
#     4  10  18  33  54  79 113 151 188 231 284 342
#     4  12  22  40  64  82 114 160 190 248 290 334
#
# _framework density 18.766000999999999
#
# number of rings (size 3 to 8) (size 9 to 14) (size 15 to 20)
#    0.000    1.931    2.759    1.862    0.966    2.483 
#    0.000    0.000    0.000    2.897    1.793    0.000 
#    0.000    0.000    0.000    0.000    0.000    0.000 
#
# Total GULP energy -323064.490594 kJ/mol
# GULP energy per Si atom -5570.077424 kJ/mol
# Density = 1.872329 g / cm^3
# Si number density = 18.766001 Si / 1000 Ang^3
#
#
#
# Elastic Constant Matrix: (Units=GPa)
#
#
# Indices 1 2 3 4 5 6 
#
# 1 60.3228 -1.1028 -1.6714 0.0000 0.0000 0.0000
# 2 -1.1028 124.4326 54.4359 0.0000 0.0000 0.0000
# 3 -1.6714 54.4359 97.3728 0.0000 0.0000 0.0000
# 4 0.0000 0.0000 0.0000 3.5676 0.0000 0.0000
# 5 0.0000 0.0000 0.0000 0.0000 17.6066 0.0000
# 6 0.0000 0.0000 0.0000 0.0000 0.0000 12.0517
#
#
#
# Elastic Compliance Matrix: (Units=1/GPa)
#
#
# Indices 1 2 3 4 5 6 
#
# 1 0.016585 0.000030 0.000268 0.000000 0.000000 0.000000
# 2 0.000030 0.010638 -0.005947 0.000000 0.000000 0.000000
# 3 0.000268 -0.005947 0.013599 0.000000 0.000000 0.000000
# 4 0.000000 0.000000 0.000000 0.280297 0.000000 0.000000
# 5 0.000000 0.000000 0.000000 0.000000 0.056797 0.000000
# 6 0.000000 0.000000 0.000000 0.000000 0.000000 0.082976
#
#
# Mechanical properties :
#
#
# Convention : Reuss Voigt Hill
#
# Bulk Modulus (GPa) = 33.86998 42.82798 38.34898
# Shear Modulus (GPa) = 10.37274 22.00960 16.19117
#
# Velocity S-wave (km/s) = 2.35360 3.42840 2.94052
# Velocity P-wave (km/s) = 5.04714 6.20834 5.65761
#
# Compressibility (1/GPa) = 0.02952467
#
# Stress axis : x y z
#
# Youngs Moduli (GPa) = 60.29385 93.99992 73.53507
#
# Poissons Ratio (x) = -0.00279 -0.01971
# Poissons Ratio (y) = -0.00179 0.43730
# Poissons Ratio (z) = -0.01616 0.55900
#
# Static dielectric constant tensor:
#      x y z
#    x 1.692480 0.000000 0.000000 
#    y 0.000000 1.680820 0.000000 
#    z 0.000000 0.000000 1.611260 
# 
# From -- ./inp_files/67698.got.cif
#   From: 2010.05.17/outbox.cif.g08.bks.cpg/sg63_34_cif.got.tgz:67698.got - 2010.06.03 15:47:04.
