data_PCOD9469496
_publ_section_title
;
Structure prediction by ZEFSAII (Michael W. Deem and Ramdas Pophale) SiO2 
 PCOD9469496
Probable space group: C M C M
;
_chemical_formula_sum "Si O2"
_cell_formula_units_Z 68
_cell_length_a 17.538812
_cell_length_b 24.062250
_cell_length_c 7.715849
_cell_angle_alpha 90.000000
_cell_angle_beta 90.000000
_cell_angle_gamma 90.000000
_cell_volume 3256.267896
_symmetry_space_group_name_H-M "C M C M"
_symmetry_group_IT_number 63
_symmetry_cell_setting 'orthorhombic'
loop_
_space_group_symop_operation_xyz
x,y,z
-x,-y,1/2+z
x,-y,-z
-x,y,1/2-z
-x,-y,-z
x,y,1/2-z
-x,y,z
x,-y,1/2+z
1/2+x,1/2+y,z
1/2-x,1/2-y,1/2+z
1/2+x,1/2-y,-z
1/2-x,1/2+y,1/2-z
1/2-x,1/2-y,-z
1/2+x,1/2+y,1/2-z
1/2-x,1/2+y,z
1/2+x,1/2-y,1/2+z
loop_
_atom_site_type_symbol
_atom_site_label
_atom_site_fract_x
_atom_site_fract_y
_atom_site_fract_z
Si Si1 0.000000 0.379786 0.250000
Si Si2 0.123659 0.360938 0.943066
Si Si3 0.414314 0.617436 0.956805
Si Si4 0.589263 0.256265 0.542447
Si Si5 0.737366 0.563215 0.542664
O O1 0.066275 0.377503 0.403270
O O2 0.093331 0.371914 0.750000
O O3 0.135316 0.294480 0.962475
O O4 0.201366 0.394711 0.965534
O O5 0.419230 0.609902 0.750000
O O6 0.500000 0.609471 0.028778
O O7 0.347639 0.577849 0.022985
O O8 0.390802 0.681395 0.989689
O O9 0.592628 0.251668 0.750000
O O10 0.500000 0.247808 0.492343
O O11 0.757257 0.500000 0.500000
O O12 0.738180 0.570326 0.750000
#
# Coordination Sequence:
#
# PCOD9469496 Si02
#       5
#     4  16  16  16  16
#     4  12  22  44  66 102 128 172 218 268 306 406
#     4  12  23  40  69  96 133 174 214 262 329 382
#     4   9  20  38  63  95 127 171 219 264 325 391
#     4  10  18  34  59  93 134 166 208 265 314 385
#     4  11  24  44  64  88 130 170 219 281 324 380
#
# _framework density 20.882802000000002
#
# number of rings (size 3 to 8) (size 9 to 14) (size 15 to 20)
#    0.000    1.412    3.529    1.765    0.000    4.235 
#    0.000    0.588    0.000    0.000    0.000    0.000 
#    0.000    0.000    0.000    0.000    0.000    0.000 
#
# Total GULP energy -189422.675072 kJ/mol
# GULP energy per Si atom -5571.255149 kJ/mol
# Density = 2.083527 g / cm^3
# Si number density = 20.882802 Si / 1000 Ang^3
#
#
#
# Elastic Constant Matrix: (Units=GPa)
#
#
# Indices 1 2 3 4 5 6 
#
# 1 27.4741 -48.4839 14.6666 0.0000 0.0000 0.0000
# 2 -48.4839 -54.5342 -24.6547 0.0000 0.0000 0.0000
# 3 14.6666 -24.6547 120.2846 0.0000 0.0000 0.0000
# 4 0.0000 0.0000 0.0000 6.8275 0.0000 0.0000
# 5 0.0000 0.0000 0.0000 0.0000 -0.8059 0.0000
# 6 0.0000 0.0000 0.0000 0.0000 0.0000 167.7767
#
#
#
# Elastic Compliance Matrix: (Units=1/GPa)
#
#
# Indices 1 2 3 4 5 6 
#
# 1 0.016558 -0.012637 -0.004609 0.000000 0.000000 0.000000
# 2 -0.012637 -0.007137 0.000078 0.000000 0.000000 0.000000
# 3 -0.004609 0.000078 0.008892 0.000000 0.000000 0.000000
# 4 0.000000 0.000000 0.000000 0.146467 0.000000 0.000000
# 5 0.000000 0.000000 0.000000 0.000000 -1.240907 0.000000
# 6 0.000000 0.000000 0.000000 0.000000 0.000000 0.005960
#
#
# Mechanical properties :
#
#
# Convention : Reuss Voigt Hill
#
# Bulk Modulus (GPa) = -62.40479 -2.63550 -32.52014
# Shear Modulus (GPa) = -4.80228 44.87276 20.03524
#
# Velocity S-wave (km/s) = -1.51810 4.64053 3.10080
# Velocity P-wave (km/s) = 5.74639 5.23908 1.66930
#
# Compressibility (1/GPa) = -0.01602441
#
# Stress axis : x y z
#
# Youngs Moduli (GPa) = 60.39457 -140.10762 112.46588
#
# Poissons Ratio (x) = -1.77054 0.51837
# Poissons Ratio (y) = 0.76321 -0.00876
# Poissons Ratio (z) = 0.27837 0.01092
#
# Static dielectric constant tensor:
#      x y z
#    x 1.724920 0.000000 0.000000 
#    y 0.000000 1.731770 0.000000 
#    z 0.000000 0.000000 1.738170 
# 
# From -- ./inp_files/5896.got.cif
#   From: 2010.05.17/outbox.cif.g08.bks.cpg/sg63_3_cif.got.tgz:5896.got - 2010.06.03 15:47:04.
