data_PCOD9469722
_publ_section_title
;
Structure prediction by ZEFSAII (Michael W. Deem and Ramdas Pophale) SiO2 
 PCOD9469722
Probable space group: C M C M
;
_chemical_formula_sum "Si O2"
_cell_formula_units_Z 80
_cell_length_a 20.284584
_cell_length_b 25.703392
_cell_length_c 9.246294
_cell_angle_alpha 90.000000
_cell_angle_beta 90.000000
_cell_angle_gamma 90.000000
_cell_volume 4820.856937
_symmetry_space_group_name_H-M "C M C M"
_symmetry_group_IT_number 63
_symmetry_cell_setting 'orthorhombic'
loop_
_space_group_symop_operation_xyz
x,y,z
-x,-y,1/2+z
x,-y,-z
-x,y,1/2-z
-x,-y,-z
x,y,1/2-z
-x,y,z
x,-y,1/2+z
1/2+x,1/2+y,z
1/2-x,1/2-y,1/2+z
1/2+x,1/2-y,-z
1/2-x,1/2+y,1/2-z
1/2-x,1/2-y,-z
1/2+x,1/2+y,1/2-z
1/2-x,1/2+y,z
1/2+x,1/2-y,1/2+z
loop_
_atom_site_type_symbol
_atom_site_label
_atom_site_fract_x
_atom_site_fract_y
_atom_site_fract_z
Si Si1 0.500000 0.757119 0.914018
Si Si2 0.853786 0.740773 0.422822
Si Si3 0.596434 0.051730 0.583267
Si Si4 0.500000 0.880942 0.586759
Si Si5 0.255053 0.552237 0.917031
Si Si6 0.752468 0.332068 0.422385
O O1 0.500000 0.734954 0.750000
O O2 0.572476 0.745878 0.978181
O O3 0.500000 0.819455 0.906036
O O4 0.859052 0.729722 0.250000
O O5 0.816308 0.692594 0.499010
O O6 0.805957 0.790312 0.441690
O O7 0.576429 0.051054 0.750000
O O8 0.563194 0.098856 0.499500
O O9 0.675314 0.052837 0.579274
O O10 0.575062 0.000000 0.500000
O O11 0.500000 0.902006 0.750000
O O12 0.276487 0.548360 0.750000
O O13 0.270267 0.610522 0.973224
O O14 0.276881 0.500000 0.000000
O O15 0.766680 0.336436 0.250000
#
# Coordination Sequence:
#
# PCOD9469722 Si02
#       6
#     8  16  16   8  16  16
#     4   9  18  30  44  65  88 113 145 177 212 257
#     4   9  17  30  48  67  90 119 149 181 218 263
#     4  10  19  30  41  54  76 106 140 174 209 246
#     4  11  20  28  39  55  78 107 141 175 204 241
#     4   9  18  30  44  63  85 109 139 177 217 257
#     4   9  17  30  47  68  92 116 146 184 223 261
#
# _framework density 16.594560999999999
#
# number of rings (size 3 to 8) (size 9 to 14) (size 15 to 20)
#    0.000    2.600    0.000    2.400    0.000    1.600 
#    0.000    1.500    0.000    0.000    0.000    0.700 
#    0.000    0.000    0.000    0.000    0.000    0.000 
#
# Total GULP energy -222746.928545 kJ/mol
# GULP energy per Si atom -5568.673214 kJ/mol
# Density = 1.655679 g / cm^3
# Si number density = 16.594561 Si / 1000 Ang^3
#
#
#
# Elastic Constant Matrix: (Units=GPa)
#
#
# Indices 1 2 3 4 5 6 
#
# 1 71.2578 16.0931 16.2806 0.0000 0.0000 0.0000
# 2 16.0931 99.7313 30.1900 0.0000 0.0000 0.0000
# 3 16.2806 30.1900 61.3610 0.0000 0.0000 0.0000
# 4 0.0000 0.0000 0.0000 20.7563 0.0000 0.0000
# 5 0.0000 0.0000 0.0000 0.0000 13.6819 0.0000
# 6 0.0000 0.0000 0.0000 0.0000 0.0000 20.2851
#
#
#
# Elastic Compliance Matrix: (Units=1/GPa)
#
#
# Indices 1 2 3 4 5 6 
#
# 1 0.015113 -0.001439 -0.003302 0.000000 0.000000 0.000000
# 2 -0.001439 0.011919 -0.005482 0.000000 0.000000 0.000000
# 3 -0.003302 -0.005482 0.019870 0.000000 0.000000 0.000000
# 4 0.000000 0.000000 0.000000 0.048178 0.000000 0.000000
# 5 0.000000 0.000000 0.000000 0.000000 0.073089 0.000000
# 6 0.000000 0.000000 0.000000 0.000000 0.000000 0.049297
#
#
# Mechanical properties :
#
#
# Convention : Reuss Voigt Hill
#
# Bulk Modulus (GPa) = 37.79914 39.71973 38.75944
# Shear Modulus (GPa) = 20.26493 22.26375 21.26434
#
# Velocity S-wave (km/s) = 3.49833 3.66680 3.58355
# Velocity P-wave (km/s) = 6.25661 6.47415 6.36631
#
# Compressibility (1/GPa) = 0.02645563
#
# Stress axis : x y z
#
# Youngs Moduli (GPa) = 66.16845 83.90150 50.32624
#
# Poissons Ratio (x) = 0.12075 0.16616
# Poissons Ratio (y) = 0.09523 0.27590
# Poissons Ratio (z) = 0.21847 0.45997
#
# Static dielectric constant tensor:
#      x y z
#    x 1.574500 0.000000 0.000000 
#    y 0.000000 1.580230 0.000000 
#    z 0.000000 0.000000 1.576330 
# 
# From -- ./inp_files/8091.got.cif
#   From: 2010.05.17/outbox.cif.g08.bks.cpg/sg63_5_cif.got.tgz:8091.got - 2010.06.03 15:47:04.
