data_PCOD9469136
_publ_section_title
;
Structure prediction by ZEFSAII (Michael W. Deem and Ramdas Pophale) SiO2 
 PCOD9469136
Probable space group: C M C M
;
_chemical_formula_sum "Si O2"
_cell_formula_units_Z 80
_cell_length_a 20.946811
_cell_length_b 22.058141
_cell_length_c 7.617884
_cell_angle_alpha 90.000000
_cell_angle_beta 90.000000
_cell_angle_gamma 90.000000
_cell_volume 3519.825861
_symmetry_space_group_name_H-M "C M C M"
_symmetry_group_IT_number 63
_symmetry_cell_setting 'orthorhombic'
loop_
_space_group_symop_operation_xyz
x,y,z
-x,-y,1/2+z
x,-y,-z
-x,y,1/2-z
-x,-y,-z
x,y,1/2-z
-x,y,z
x,-y,1/2+z
1/2+x,1/2+y,z
1/2-x,1/2-y,1/2+z
1/2+x,1/2-y,-z
1/2-x,1/2+y,1/2-z
1/2-x,1/2-y,-z
1/2+x,1/2+y,1/2-z
1/2-x,1/2+y,z
1/2+x,1/2-y,1/2+z
loop_
_atom_site_type_symbol
_atom_site_label
_atom_site_fract_x
_atom_site_fract_y
_atom_site_fract_z
Si Si1 0.174273 0.251666 0.445812
Si Si2 0.932705 0.572423 0.038463
Si Si3 0.427681 0.393070 0.250000
Si Si4 0.297239 0.928960 0.539521
Si Si5 0.838183 0.891074 0.946581
Si Si6 0.076300 0.255502 0.750000
O O1 0.170073 0.278028 0.250000
O O2 0.250000 0.250000 0.500000
O O3 0.155511 0.180963 0.432922
O O4 0.121504 0.275461 0.585560
O O5 0.932359 0.579454 0.250000
O O6 0.864759 0.594112 0.968632
O O7 0.000000 0.597662 0.971273
O O8 0.933413 0.500000 0.000000
O O9 0.500000 0.412200 0.250000
O O10 0.390735 0.414746 0.421773
O O11 0.425678 0.318561 0.250000
O O12 0.297680 0.919307 0.750000
O O13 0.232113 0.900896 0.474301
O O14 0.294148 0.000000 0.500000
O O15 0.841640 0.917288 0.750000
O O16 0.000000 0.274361 0.750000
#
# Coordination Sequence:
#
# PCOD9469136 Si02
#       6
#    16  16   8  16  16   8
#     4  10  18  31  52  76 103 135 167 206 254 304
#     4   8  13  22  37  57  83 112 146 187 227 265
#     4   9  18  32  52  74  96 123 157 203 253 294
#     4   9  17  28  43  67  92 122 160 200 243 287
#     4   9  19  32  48  74 101 125 162 202 245 295
#     4   9  18  32  50  78 106 127 167 213 251 300
#
# _framework density 22.728396
#
# number of rings (size 3 to 8) (size 9 to 14) (size 15 to 20)
#    0.000    3.000    1.000    0.000    1.400    0.800 
#    0.000    4.000    0.000    1.800    0.000    0.000 
#    0.000    0.000    0.000    0.000    0.000    0.000 
#
# Total GULP energy -222973.651056 kJ/mol
# GULP energy per Si atom -5574.341276 kJ/mol
# Density = 2.267667 g / cm^3
# Si number density = 22.728396 Si / 1000 Ang^3
#
#
#
# Elastic Constant Matrix: (Units=GPa)
#
#
# Indices 1 2 3 4 5 6 
#
# 1 247.6581 9.3759 106.3473 0.0000 0.0000 0.0000
# 2 9.3759 36.5677 -0.4938 0.0000 0.0000 0.0000
# 3 106.3473 -0.4938 136.7100 0.0000 0.0000 0.0000
# 4 0.0000 0.0000 0.0000 8.8775 0.0000 0.0000
# 5 0.0000 0.0000 0.0000 0.0000 56.2006 0.0000
# 6 0.0000 0.0000 0.0000 0.0000 0.0000 22.5157
#
#
#
# Elastic Compliance Matrix: (Units=1/GPa)
#
#
# Indices 1 2 3 4 5 6 
#
# 1 0.006160 -0.001644 -0.004798 0.000000 0.000000 0.000000
# 2 -0.001644 0.027787 0.001379 0.000000 0.000000 0.000000
# 3 -0.004798 0.001379 0.011052 0.000000 0.000000 0.000000
# 4 0.000000 0.000000 0.000000 0.112644 0.000000 0.000000
# 5 0.000000 0.000000 0.000000 0.000000 0.017793 0.000000
# 6 0.000000 0.000000 0.000000 0.000000 0.000000 0.044414
#
#
# Mechanical properties :
#
#
# Convention : Reuss Voigt Hill
#
# Bulk Modulus (GPa) = 28.67509 72.37718 50.52614
# Shear Modulus (GPa) = 20.69525 37.89917 29.29721
#
# Velocity S-wave (km/s) = 3.02080 4.08791 3.59418
# Velocity P-wave (km/s) = 4.98104 7.36172 6.28513
#
# Compressibility (1/GPa) = 0.03487347
#
# Stress axis : x y z
#
# Youngs Moduli (GPa) = 162.32509 35.98831 90.47913
#
# Poissons Ratio (x) = 0.05918 0.43414
# Poissons Ratio (y) = 0.26692 -0.12481
# Poissons Ratio (z) = 0.77887 -0.04965
#
# Static dielectric constant tensor:
#      x y z
#    x 1.869650 0.000000 0.000000 
#    y 0.000000 1.869770 0.000000 
#    z 0.000000 0.000000 1.765430 
# 
# From -- ./inp_files/6699.got.cif
#   From: 2010.05.17/outbox.cif.g08.bks.cpg/sg63_4_cif.got.tgz:6699.got - 2010.06.03 15:47:04.
