data_PCOD9469851
_publ_section_title
;
Structure prediction by ZEFSAII (Michael W. Deem and Ramdas Pophale) SiO2 
 PCOD9469851
Probable space group: C M C M
;
_chemical_formula_sum "Si O2"
_cell_formula_units_Z 80
_cell_length_a 27.441833
_cell_length_b 17.679864
_cell_length_c 7.881307
_cell_angle_alpha 90.000000
_cell_angle_beta 90.000000
_cell_angle_gamma 90.000000
_cell_volume 3823.756972
_symmetry_space_group_name_H-M "C M C M"
_symmetry_group_IT_number 63
_symmetry_cell_setting 'orthorhombic'
loop_
_space_group_symop_operation_xyz
x,y,z
-x,-y,1/2+z
x,-y,-z
-x,y,1/2-z
-x,-y,-z
x,y,1/2-z
-x,y,z
x,-y,1/2+z
1/2+x,1/2+y,z
1/2-x,1/2-y,1/2+z
1/2+x,1/2-y,-z
1/2-x,1/2+y,1/2-z
1/2-x,1/2-y,-z
1/2+x,1/2+y,1/2-z
1/2-x,1/2+y,z
1/2+x,1/2-y,1/2+z
loop_
_atom_site_type_symbol
_atom_site_label
_atom_site_fract_x
_atom_site_fract_y
_atom_site_fract_z
Si Si1 0.658556 0.377707 0.549851
Si Si2 0.947907 0.881511 0.452548
Si Si3 0.236626 0.581797 0.045456
Si Si4 0.842165 0.299003 0.955574
Si Si5 0.947824 0.297711 0.544045
O O1 0.660473 0.386440 0.750000
O O2 0.605748 0.409712 0.498908
O O3 0.708159 0.412552 0.476030
O O4 0.661591 0.288388 0.507584
O O5 0.950146 0.886602 0.250000
O O6 0.947245 0.791990 0.497488
O O7 0.000000 0.911829 0.521344
O O8 0.238354 0.588020 0.250000
O O9 0.202114 0.649404 0.982668
O O10 0.216073 0.500000 0.000000
O O11 0.841877 0.300282 0.750000
O O12 0.895571 0.328226 0.013676
O O13 0.948242 0.302471 0.750000
O O14 0.000000 0.328709 0.482838
#
# Coordination Sequence:
#
# PCOD9469851 Si02
#       5
#    16  16  16  16  16
#     4  10  19  30  47  74 101 123 154 198 245 288
#     4   8  14  26  45  69  96 126 157 187 227 282
#     4  10  22  36  49  67  93 127 165 203 245 290
#     4   9  17  31  50  71  95 125 162 199 235 283
#     4   7  10  19  39  66  91 114 144 183 223 265
#
# _framework density 20.921831999999998
#
# number of rings (size 3 to 8) (size 9 to 14) (size 15 to 20)
#    0.000    3.200    0.000    3.600    0.000    2.800 
#    0.000    0.000    0.000    1.200    0.000    0.000 
#    0.000    0.000    0.000    0.000    0.000    0.000 
#
# Total GULP energy -222749.246679 kJ/mol
# GULP energy per Si atom -5568.731167 kJ/mol
# Density = 2.087421 g / cm^3
# Si number density = 20.921832 Si / 1000 Ang^3
#
#
#
# Elastic Constant Matrix: (Units=GPa)
#
#
# Indices 1 2 3 4 5 6 
#
# 1 161.5545 37.8731 12.6579 0.0000 0.0000 0.0000
# 2 37.8731 52.5841 -6.1110 0.0000 0.0000 0.0000
# 3 12.6579 -6.1110 18.4519 0.0000 0.0000 0.0000
# 4 0.0000 0.0000 0.0000 3.0211 0.0000 0.0000
# 5 0.0000 0.0000 0.0000 0.0000 15.0707 0.0000
# 6 0.0000 0.0000 0.0000 0.0000 0.0000 1.1629
#
#
#
# Elastic Compliance Matrix: (Units=1/GPa)
#
#
# Indices 1 2 3 4 5 6 
#
# 1 0.008484 -0.007058 -0.008157 0.000000 0.000000 0.000000
# 2 -0.007058 0.025651 0.013337 0.000000 0.000000 0.000000
# 3 -0.008157 0.013337 0.064208 0.000000 0.000000 0.000000
# 4 0.000000 0.000000 0.000000 0.331004 0.000000 0.000000
# 5 0.000000 0.000000 0.000000 0.000000 0.066354 0.000000
# 6 0.000000 0.000000 0.000000 0.000000 0.000000 0.859950
#
#
# Mechanical properties :
#
#
# Convention : Reuss Voigt Hill
#
# Bulk Modulus (GPa) = 10.57245 35.71450 23.14347
# Shear Modulus (GPa) = 3.59470 16.39564 9.99517
#
# Velocity S-wave (km/s) = 1.31221 2.80243 2.18809
# Velocity P-wave (km/s) = 2.71296 5.25157 4.17966
#
# Compressibility (1/GPa) = 0.09458547
#
# Stress axis : x y z
#
# Youngs Moduli (GPa) = 117.87368 38.98524 15.57437
#
# Poissons Ratio (x) = 0.27517 0.12705
# Poissons Ratio (y) = 0.83198 -0.20772
# Poissons Ratio (z) = 0.96154 -0.51995
#
# Static dielectric constant tensor:
#      x y z
#    x 1.614710 0.000000 0.000000 
#    y 0.000000 1.713600 0.000000 
#    z 0.000000 0.000000 1.748440 
# 
# From -- ./inp_files/12007.got.cif
#   From: 2010.05.17/outbox.cif.g08.bks.cpg/sg63_7_cif.got.tgz:12007.got - 2010.06.03 15:47:04.
