data_PCOD9469132
_publ_section_title
;
Structure prediction by ZEFSAII (Michael W. Deem and Ramdas Pophale) SiO2 
 PCOD9469132
Probable space group: C M C M
;
_chemical_formula_sum "Si O2"
_cell_formula_units_Z 80
_cell_length_a 13.903280
_cell_length_b 12.710804
_cell_length_c 22.268723
_cell_angle_alpha 90.000000
_cell_angle_beta 90.000000
_cell_angle_gamma 90.000000
_cell_volume 3935.370305
_symmetry_space_group_name_H-M "C M C M"
_symmetry_group_IT_number 63
_symmetry_cell_setting 'orthorhombic'
loop_
_space_group_symop_operation_xyz
x,y,z
-x,-y,1/2+z
x,-y,-z
-x,y,1/2-z
-x,-y,-z
x,y,1/2-z
-x,y,z
x,-y,1/2+z
1/2+x,1/2+y,z
1/2-x,1/2-y,1/2+z
1/2+x,1/2-y,-z
1/2-x,1/2+y,1/2-z
1/2-x,1/2-y,-z
1/2+x,1/2+y,1/2-z
1/2-x,1/2+y,z
1/2+x,1/2-y,1/2+z
loop_
_atom_site_type_symbol
_atom_site_label
_atom_site_fract_x
_atom_site_fract_y
_atom_site_fract_z
Si Si1 0.802126 0.625109 0.068266
Si Si2 0.707391 0.758511 0.818120
Si Si3 0.104307 0.106321 0.315725
Si Si4 0.609867 0.708979 0.489848
Si Si5 0.317460 0.436171 0.097293
O O1 0.840937 0.662634 0.133298
O O2 0.870965 0.675916 0.018538
O O3 0.772293 0.503387 0.071435
O O4 0.699091 0.684659 0.054461
O O5 0.668729 0.754677 0.750000
O O6 0.813546 0.807263 0.814949
O O7 0.709258 0.647563 0.851718
O O8 0.110020 0.051979 0.250000
O O9 0.000000 0.155653 0.321033
O O10 0.119325 0.022218 0.367996
O O11 0.500000 0.698972 0.468469
O O12 0.628922 0.624828 0.543826
#
# Coordination Sequence:
#
# PCOD9469132 Si02
#       5
#    16  16  16  16  16
#     4   9  20  34  51  78 109 133 168 215 256 302
#     4   9  18  32  50  72 101 136 169 206 256 306
#     4   9  17  29  46  71 101 131 168 213 256 302
#     4  10  20  35  55  77 104 138 172 209 256 307
#     4  10  18  31  52  76 101 130 170 213 256 304
#
# _framework density 20.328454000000001
#
# number of rings (size 3 to 8) (size 9 to 14) (size 15 to 20)
#    0.000    2.600    0.000    1.800    0.000    5.600 
#    0.000    1.000    0.000   21.000    0.000    0.000 
#    0.000    0.000    0.000    0.000    0.000    0.000 
#
# Total GULP energy -222790.926515 kJ/mol
# GULP energy per Si atom -5569.773163 kJ/mol
# Density = 2.028219 g / cm^3
# Si number density = 20.328454 Si / 1000 Ang^3
#
#
#
# Elastic Constant Matrix: (Units=GPa)
#
#
# Indices 1 2 3 4 5 6 
#
# 1 29.9271 9.1987 3.2256 0.0000 0.0000 0.0000
# 2 9.1987 38.3662 -2.5239 0.0000 0.0000 0.0000
# 3 3.2256 -2.5239 112.2016 0.0000 0.0000 0.0000
# 4 0.0000 0.0000 0.0000 34.1765 0.0000 0.0000
# 5 0.0000 0.0000 0.0000 0.0000 13.0670 0.0000
# 6 0.0000 0.0000 0.0000 0.0000 0.0000 9.6457
#
#
#
# Elastic Compliance Matrix: (Units=1/GPa)
#
#
# Indices 1 2 3 4 5 6 
#
# 1 0.036244 -0.008771 -0.001239 0.000000 0.000000 0.000000
# 2 -0.008771 0.028226 0.000887 0.000000 0.000000 0.000000
# 3 -0.001239 0.000887 0.008968 0.000000 0.000000 0.000000
# 4 0.000000 0.000000 0.000000 0.029260 0.000000 0.000000
# 5 0.000000 0.000000 0.000000 0.000000 0.076529 0.000000
# 6 0.000000 0.000000 0.000000 0.000000 0.000000 0.103673
#
#
# Mechanical properties :
#
#
# Convention : Reuss Voigt Hill
#
# Bulk Modulus (GPa) = 18.11887 22.25507 20.18697
# Shear Modulus (GPa) = 15.64728 22.75080 19.19904
#
# Velocity S-wave (km/s) = 2.77740 3.34901 3.07651
# Velocity P-wave (km/s) = 4.38380 5.09176 4.75098
#
# Compressibility (1/GPa) = 0.05519108
#
# Stress axis : x y z
#
# Youngs Moduli (GPa) = 27.59064 35.42829 111.50621
#
# Poissons Ratio (x) = 0.31076 0.13818
# Poissons Ratio (y) = 0.24201 -0.09891
# Poissons Ratio (z) = 0.03419 -0.03143
#
# Static dielectric constant tensor:
#      x y z
#    x 1.712810 0.000000 0.000000 
#    y 0.000000 1.742020 0.000000 
#    z 0.000000 0.000000 1.830910 
# 
# From -- ./inp_files/62779.got.cif
#   From: 2010.05.17/outbox.cif.g08.bks.cpg/sg63_32_cif.got.tgz:62779.got - 2010.06.03 15:47:04.
