data_PCOD9469100
_publ_section_title
;
Structure prediction by ZEFSAII (Michael W. Deem and Ramdas Pophale) SiO2 
 PCOD9469100
Probable space group: C M C M
;
_chemical_formula_sum "Si O2"
_cell_formula_units_Z 116
_cell_length_a 27.417781
_cell_length_b 27.831826
_cell_length_c 8.526141
_cell_angle_alpha 90.000000
_cell_angle_beta 90.000000
_cell_angle_gamma 90.000000
_cell_volume 6506.186591
_symmetry_space_group_name_H-M "C M C M"
_symmetry_group_IT_number 63
_symmetry_cell_setting 'orthorhombic'
loop_
_space_group_symop_operation_xyz
x,y,z
-x,-y,1/2+z
x,-y,-z
-x,y,1/2-z
-x,-y,-z
x,y,1/2-z
-x,y,z
x,-y,1/2+z
1/2+x,1/2+y,z
1/2-x,1/2-y,1/2+z
1/2+x,1/2-y,-z
1/2-x,1/2+y,1/2-z
1/2-x,1/2-y,-z
1/2+x,1/2+y,1/2-z
1/2-x,1/2+y,z
1/2+x,1/2-y,1/2+z
loop_
_atom_site_type_symbol
_atom_site_label
_atom_site_fract_x
_atom_site_fract_y
_atom_site_fract_z
Si Si1 0.209974 0.174622 0.567056
Si Si2 0.081645 0.926597 0.435755
Si Si3 0.056701 0.816251 0.061265
Si Si4 0.293036 0.050012 0.436274
Si Si5 0.500000 0.500000 0.000000
Si Si6 0.822611 0.649859 0.934172
Si Si7 0.639813 0.247837 0.562263
Si Si8 0.315355 0.574701 0.065923
O O1 0.198357 0.164436 0.750000
O O2 0.268118 0.172146 0.549281
O O3 0.184462 0.223527 0.516858
O O4 0.188763 0.131988 0.460807
O O5 0.070774 0.932325 0.250000
O O6 0.074062 0.870494 0.476221
O O7 0.136867 0.941266 0.473510
O O8 0.042715 0.959155 0.523073
O O9 0.060699 0.811479 0.250000
O O10 0.000000 0.811068 0.017781
O O11 0.091574 0.777038 0.983533
O O12 0.290479 0.048016 0.250000
O O13 0.321284 0.098269 0.483959
O O14 0.236771 0.055528 0.495185
O O15 0.313324 0.000000 0.500000
O O16 0.830740 0.641114 0.750000
O O17 0.858514 0.692094 0.989046
O O18 0.646455 0.248541 0.750000
O O19 0.320565 0.563844 0.250000
#
# Coordination Sequence:
#
# PCOD9469100 Si02
#       8
#    16  16  16  16   4  16  16  16
#     4  10  18  31  51  74 103 141 174 209 261 318
#     4  11  23  40  57  72  95 130 174 228 285 331
#     4  10  21  39  59  76  99 136 178 220 273 334
#     4  10  21  36  54  77 106 141 178 215 257 308
#     4  12  26  40  56  78  94 128 184 238 288 328
#     4   9  20  35  51  75 109 142 175 216 259 310
#     4  11  21  33  52  80 108 136 173 219 268 317
#     4  10  21  35  52  76 100 129 173 222 267 320
#
# _framework density 17.829183
#
# number of rings (size 3 to 8) (size 9 to 14) (size 15 to 20)
#    0.000    1.793    2.069    2.276    0.966    4.690 
#    0.000    0.000    0.000    0.000    0.000    0.000 
#    0.000    0.552    0.000    1.793    0.000    2.621 
#
# Total GULP energy -323324.524121 kJ/mol
# GULP energy per Si atom -5574.560761 kJ/mol
# Density = 1.778860 g / cm^3
# Si number density = 17.829183 Si / 1000 Ang^3
#
#
#
# Elastic Constant Matrix: (Units=GPa)
#
#
# Indices 1 2 3 4 5 6 
#
# 1 34.5326 29.6493 9.4962 0.0000 0.0000 0.0000
# 2 29.6493 126.4571 18.5586 0.0000 0.0000 0.0000
# 3 9.4962 18.5586 22.4094 0.0000 0.0000 0.0000
# 4 0.0000 0.0000 0.0000 10.4316 0.0000 0.0000
# 5 0.0000 0.0000 0.0000 0.0000 6.9995 0.0000
# 6 0.0000 0.0000 0.0000 0.0000 0.0000 35.7626
#
#
#
# Elastic Compliance Matrix: (Units=1/GPa)
#
#
# Indices 1 2 3 4 5 6 
#
# 1 0.038115 -0.007475 -0.009961 0.000000 0.000000 0.000000
# 2 -0.007475 0.010468 -0.005502 0.000000 0.000000 0.000000
# 3 -0.009961 -0.005502 0.053401 0.000000 0.000000 0.000000
# 4 0.000000 0.000000 0.000000 0.095863 0.000000 0.000000
# 5 0.000000 0.000000 0.000000 0.000000 0.142866 0.000000
# 6 0.000000 0.000000 0.000000 0.000000 0.000000 0.027962
#
#
# Mechanical properties :
#
#
# Convention : Reuss Voigt Hill
#
# Bulk Modulus (GPa) = 17.82241 33.20081 25.51161
# Shear Modulus (GPa) = 11.54059 19.01842 15.27950
#
# Velocity S-wave (km/s) = 2.54694 3.26958 2.93062
# Velocity P-wave (km/s) = 4.32055 5.73721 5.07852
#
# Compressibility (1/GPa) = 0.05610912
#
# Stress axis : x y z
#
# Youngs Moduli (GPa) = 26.23640 95.53193 18.72609
#
# Poissons Ratio (x) = 0.71406 0.18654
# Poissons Ratio (y) = 0.19611 0.10302
# Poissons Ratio (z) = 0.26135 0.52557
#
# Static dielectric constant tensor:
#      x y z
#    x 1.588240 0.000000 0.000000 
#    y 0.000000 1.632490 0.000000 
#    z 0.000000 0.000000 1.641720 
# 
# From -- ./inp_files/13139.got.cif
#   From: 2010.05.17/outbox.cif.g08.bks.cpg/sg63_7_cif.got.tgz:13139.got - 2010.06.03 15:47:04.
