data_PCOD9469325
_publ_section_title
;
Structure prediction by ZEFSAII (Michael W. Deem and Ramdas Pophale) SiO2 
 PCOD9469325
Probable space group: C M C M
;
_chemical_formula_sum "Si O2"
_cell_formula_units_Z 60
_cell_length_a 8.112282
_cell_length_b 27.679069
_cell_length_c 15.115862
_cell_angle_alpha 90.000000
_cell_angle_beta 90.000000
_cell_angle_gamma 90.000000
_cell_volume 3394.121900
_symmetry_space_group_name_H-M "C M C M"
_symmetry_group_IT_number 63
_symmetry_cell_setting 'orthorhombic'
loop_
_space_group_symop_operation_xyz
x,y,z
-x,-y,1/2+z
x,-y,-z
-x,y,1/2-z
-x,-y,-z
x,y,1/2-z
-x,y,z
x,-y,1/2+z
1/2+x,1/2+y,z
1/2-x,1/2-y,1/2+z
1/2+x,1/2-y,-z
1/2-x,1/2+y,1/2-z
1/2-x,1/2-y,-z
1/2+x,1/2+y,1/2-z
1/2-x,1/2+y,z
1/2+x,1/2-y,1/2+z
loop_
_atom_site_type_symbol
_atom_site_label
_atom_site_fract_x
_atom_site_fract_y
_atom_site_fract_z
Si Si1 0.197099 0.704279 0.441382
Si Si2 0.500000 0.939540 0.250000
Si Si3 0.500000 0.047113 0.558851
Si Si4 0.820096 0.115771 0.947747
Si Si5 0.741681 0.353421 0.250000
Si Si6 0.801004 0.745918 0.250000
O O1 0.250000 0.750000 0.500000
O O2 0.287474 0.657947 0.481513
O O3 0.234072 0.716580 0.339267
O O4 0.000000 0.697226 0.449960
O O5 0.500000 0.969135 0.338945
O O6 0.353815 0.900954 0.250000
O O7 0.335855 0.079771 0.546843
O O8 0.500000 0.000000 0.500000
O O9 0.828352 0.140049 0.849606
O O10 0.000000 0.092769 0.962903
O O11 0.792869 0.297253 0.250000
O O12 0.000000 0.757665 0.250000
#
# Coordination Sequence:
#
# PCOD9469325 Si02
#       6
#    16   4   8  16   8   8
#     4  11  21  34  51  79 116 159 196 231 283 345
#     4   8  20  36  58  88 110 140 196 242 300 342
#     4  10  22  42  64  86 114 146 196 248 302 348
#     4  11  21  37  59  86 118 152 191 242 293 346
#     4  10  18  32  54  84 117 150 185 244 290 330
#     4  10  20  32  49  73 114 161 201 228 281 337
#
# _framework density 17.677620999999998
#
# number of rings (size 3 to 8) (size 9 to 14) (size 15 to 20)
#    0.000    1.600    4.000    2.000    0.000    0.533 
#    2.400    1.333    0.000    0.000    0.000    0.000 
#    0.000    0.000    0.000    0.000    0.000    0.000 
#
# Total GULP energy -167007.765510 kJ/mol
# GULP energy per Si atom -5566.925517 kJ/mol
# Density = 1.763739 g / cm^3
# Si number density = 17.677621 Si / 1000 Ang^3
#
#
#
# Elastic Constant Matrix: (Units=GPa)
#
#
# Indices 1 2 3 4 5 6 
#
# 1 103.7558 40.3669 45.0297 0.0000 0.0000 0.0000
# 2 40.3669 82.8537 63.6243 0.0000 0.0000 0.0000
# 3 45.0297 63.6243 159.0441 0.0000 0.0000 0.0000
# 4 0.0000 0.0000 0.0000 39.1953 0.0000 0.0000
# 5 0.0000 0.0000 0.0000 0.0000 -50.1341 0.0000
# 6 0.0000 0.0000 0.0000 0.0000 0.0000 14.1238
#
#
#
# Elastic Compliance Matrix: (Units=1/GPa)
#
#
# Indices 1 2 3 4 5 6 
#
# 1 0.012150 -0.004732 -0.001547 0.000000 0.000000 0.000000
# 2 -0.004732 0.019264 -0.006367 0.000000 0.000000 0.000000
# 3 -0.001547 -0.006367 0.009273 0.000000 0.000000 0.000000
# 4 0.000000 0.000000 0.000000 0.025513 0.000000 0.000000
# 5 0.000000 0.000000 0.000000 0.000000 -0.019946 0.000000
# 6 0.000000 0.000000 0.000000 0.000000 0.000000 0.070802
#
#
# Mechanical properties :
#
#
# Convention : Reuss Voigt Hill
#
# Bulk Modulus (GPa) = 64.95331 71.52170 68.23750
# Shear Modulus (GPa) = 33.90319 13.74585 23.82452
#
# Velocity S-wave (km/s) = 4.38409 2.79155 3.67512
# Velocity P-wave (km/s) = 7.90253 7.13702 7.52951
#
# Compressibility (1/GPa) = 0.01539567
#
# Stress axis : x y z
#
# Youngs Moduli (GPa) = 82.30191 51.91090 107.84491
#
# Poissons Ratio (x) = 0.24562 0.16687
# Poissons Ratio (y) = 0.38942 0.68661
# Poissons Ratio (z) = 0.12734 0.33050
#
# Static dielectric constant tensor:
#      x y z
#    x 1.679370 0.000000 0.000000 
#    y 0.000000 1.542680 0.000000 
#    z 0.000000 0.000000 1.605870 
# 
# From -- ./inp_files/16156.got.cif
#   From: 2010.05.17/outbox.cif.g08.bks.cpg/sg63_9_cif.got.tgz:16156.got - 2010.06.03 15:47:04.
