data_PCOD9469271
_publ_section_title
;
Structure prediction by ZEFSAII (Michael W. Deem and Ramdas Pophale) SiO2 
 PCOD9469271
Probable space group: C M C M
;
_chemical_formula_sum "Si O2"
_cell_formula_units_Z 128
_cell_length_a 22.846285
_cell_length_b 20.788827
_cell_length_c 15.838710
_cell_angle_alpha 90.000000
_cell_angle_beta 90.000000
_cell_angle_gamma 90.000000
_cell_volume 7522.555186
_symmetry_space_group_name_H-M "C M C M"
_symmetry_group_IT_number 63
_symmetry_cell_setting 'orthorhombic'
loop_
_space_group_symop_operation_xyz
x,y,z
-x,-y,1/2+z
x,-y,-z
-x,y,1/2-z
-x,-y,-z
x,y,1/2-z
-x,y,z
x,-y,1/2+z
1/2+x,1/2+y,z
1/2-x,1/2-y,1/2+z
1/2+x,1/2-y,-z
1/2-x,1/2+y,1/2-z
1/2-x,1/2-y,-z
1/2+x,1/2+y,1/2-z
1/2-x,1/2+y,z
1/2+x,1/2-y,1/2+z
loop_
_atom_site_type_symbol
_atom_site_label
_atom_site_fract_x
_atom_site_fract_y
_atom_site_fract_z
Si Si1 0.433374 0.749285 0.457109
Si Si2 0.182400 0.944035 0.851314
Si Si3 0.936248 0.880515 0.648754
Si Si4 0.169084 0.430540 0.456425
Si Si5 0.767508 0.662029 0.073934
Si Si6 0.676118 0.711057 0.931733
Si Si7 0.569469 0.121853 0.649990
Si Si8 0.784788 0.085211 0.850271
O O1 0.500000 0.757560 0.490390
O O2 0.433791 0.688313 0.395058
O O3 0.385007 0.734009 0.527911
O O4 0.419584 0.810473 0.397944
O O5 0.180837 0.946823 0.750000
O O6 0.119601 0.919590 0.881799
O O7 0.232436 0.892725 0.875432
O O8 0.192103 0.016350 0.882398
O O9 0.932139 0.872929 0.750000
O O10 0.000000 0.909981 0.630189
O O11 0.176729 0.500000 0.500000
O O12 0.179726 0.375740 0.527193
O O13 0.109222 0.426795 0.403813
O O14 0.220572 0.412490 0.391011
O O15 0.794291 0.726993 0.113593
O O16 0.719150 0.689378 0.008289
O O17 0.676392 0.646429 0.876570
O O18 0.584602 0.124354 0.750000
O O19 0.500000 0.108338 0.644607
O O20 0.780197 0.083741 0.750000
#
# Coordination Sequence:
#
# PCOD9469271 Si02
#       8
#    16  16  16  16  16  16  16  16
#     4  10  18  32  52  77 106 138 178 220 268 325
#     4  10  19  33  52  75 106 141 179 218 269 328
#     4   9  17  29  48  74 105 138 172 216 267 319
#     4  11  20  34  57  79 109 145 178 224 274 328
#     4  10  19  34  50  78 104 139 176 217 269 326
#     4  10  20  33  53  74 108 135 175 225 272 325
#     4  10  21  36  55  81 113 145 180 226 279 333
#     4  10  22  36  53  79 109 144 182 226 278 327
#
# _framework density 17.015495000000001
#
# number of rings (size 3 to 8) (size 9 to 14) (size 15 to 20)
#    0.000    2.000    3.750    0.750    0.000    2.250 
#    0.000    0.625    0.000    2.625    0.000    0.000 
#    0.000    0.000    0.000    0.000    0.000    0.000 
#
# Total GULP energy -356294.850523 kJ/mol
# GULP energy per Si atom -5567.107039 kJ/mol
# Density = 1.697677 g / cm^3
# Si number density = 17.015495 Si / 1000 Ang^3
#
#
#
# Elastic Constant Matrix: (Units=GPa)
#
#
# Indices 1 2 3 4 5 6 
#
# 1 72.8460 34.9944 28.8373 0.0000 0.0000 0.0000
# 2 34.9944 98.0611 24.5491 0.0000 0.0000 0.0000
# 3 28.8373 24.5491 35.9869 0.0000 0.0000 0.0000
# 4 0.0000 0.0000 0.0000 24.7833 0.0000 0.0000
# 5 0.0000 0.0000 0.0000 0.0000 25.4820 0.0000
# 6 0.0000 0.0000 0.0000 0.0000 0.0000 22.1413
#
#
#
# Elastic Compliance Matrix: (Units=1/GPa)
#
#
# Indices 1 2 3 4 5 6 
#
# 1 0.021344 -0.004022 -0.014360 0.000000 0.000000 0.000000
# 2 -0.004022 0.013056 -0.005683 0.000000 0.000000 0.000000
# 3 -0.014360 -0.005683 0.043172 0.000000 0.000000 0.000000
# 4 0.000000 0.000000 0.000000 0.040350 0.000000 0.000000
# 5 0.000000 0.000000 0.000000 0.000000 0.039243 0.000000
# 6 0.000000 0.000000 0.000000 0.000000 0.000000 0.045165
#
#
# Mechanical properties :
#
#
# Convention : Reuss Voigt Hill
#
# Bulk Modulus (GPa) = 33.96590 42.62839 38.29715
# Shear Modulus (GPa) = 19.21047 22.38219 20.79633
#
# Velocity S-wave (km/s) = 3.36370 3.63078 3.49979
# Velocity P-wave (km/s) = 5.92377 6.53329 6.23598
#
# Compressibility (1/GPa) = 0.02944129
#
# Stress axis : x y z
#
# Youngs Moduli (GPa) = 46.85054 76.59413 23.16317
#
# Poissons Ratio (x) = 0.30807 0.33263
# Poissons Ratio (y) = 0.18844 0.13164
# Poissons Ratio (z) = 0.67278 0.43530
#
# Static dielectric constant tensor:
#      x y z
#    x 1.600210 0.000000 0.000000 
#    y 0.000000 1.599670 0.000000 
#    z 0.000000 0.000000 1.566510 
# 
# From -- ./inp_files/48427.got.cif
#   From: 2010.05.17/outbox.cif.g08.bks.cpg/sg63_25_cif.got.tgz:48427.got - 2010.06.03 15:47:04.
