data_PCOD9469807
_publ_section_title
;
Structure prediction by ZEFSAII (Michael W. Deem and Ramdas Pophale) SiO2 
 PCOD9469807
Probable space group: C M C M
;
_chemical_formula_sum "Si O2"
_cell_formula_units_Z 88
_cell_length_a 21.742885
_cell_length_b 25.394581
_cell_length_c 7.838681
_cell_angle_alpha 90.000000
_cell_angle_beta 90.000000
_cell_angle_gamma 90.000000
_cell_volume 4328.139114
_symmetry_space_group_name_H-M "C M C M"
_symmetry_group_IT_number 63
_symmetry_cell_setting 'orthorhombic'
loop_
_space_group_symop_operation_xyz
x,y,z
-x,-y,1/2+z
x,-y,-z
-x,y,1/2-z
-x,-y,-z
x,y,1/2-z
-x,y,z
x,-y,1/2+z
1/2+x,1/2+y,z
1/2-x,1/2-y,1/2+z
1/2+x,1/2-y,-z
1/2-x,1/2+y,1/2-z
1/2-x,1/2-y,-z
1/2+x,1/2+y,1/2-z
1/2-x,1/2+y,z
1/2+x,1/2-y,1/2+z
loop_
_atom_site_type_symbol
_atom_site_label
_atom_site_fract_x
_atom_site_fract_y
_atom_site_fract_z
Si Si1 0.568905 0.828971 0.540677
Si Si2 0.500000 0.437835 0.044445
Si Si3 0.867752 0.938476 0.044558
Si Si4 0.381683 0.943035 0.546568
Si Si5 0.308264 0.216545 0.439932
Si Si6 0.739389 0.893413 0.049057
O O1 0.571002 0.828273 0.750000
O O2 0.500000 0.814382 0.488555
O O3 0.583080 0.889794 0.489672
O O4 0.624013 0.790865 0.476984
O O5 0.500000 0.432983 0.250000
O O6 0.433965 0.417338 0.981581
O O7 0.500000 0.500000 0.000000
O O8 0.867524 0.934414 0.250000
O O9 0.805963 0.910733 0.984356
O O10 0.864128 0.000000 0.000000
O O11 0.377550 0.940555 0.750000
O O12 0.312883 0.937581 0.471354
O O13 0.408554 0.000000 0.500000
O O14 0.320281 0.236049 0.250000
O O15 0.250000 0.250000 0.500000
O O16 0.284613 0.156632 0.446725
O O17 0.743282 0.879464 0.250000
#
# Coordination Sequence:
#
# PCOD9469807 Si02
#       6
#    16   8  16  16  16  16
#     4   8  16  32  53  76 101 131 170 211 251 298
#     4   8  14  26  40  58  84 116 156 194 230 274
#     4   9  17  27  43  65  91 124 159 197 237 283
#     4  10  19  30  46  71 104 140 173 208 248 293
#     4  10  20  35  57  79  99 126 160 204 254 304
#     4  10  19  31  48  71  97 127 165 207 250 296
#
# _framework density 20.332065
#
# number of rings (size 3 to 8) (size 9 to 14) (size 15 to 20)
#    0.000    2.727    0.000    3.273    0.000    3.273 
#    0.000    0.000    2.000   19.091    0.000    0.000 
#    0.000    0.000    0.000    0.000    0.000    0.000 
#
# Total GULP energy -244988.917797 kJ/mol
# GULP energy per Si atom -5567.929950 kJ/mol
# Density = 2.028579 g / cm^3
# Si number density = 20.332065 Si / 1000 Ang^3
#
#
#
# Elastic Constant Matrix: (Units=GPa)
#
#
# Indices 1 2 3 4 5 6 
#
# 1 189.0646 28.9551 4.9299 0.0000 0.0000 0.0000
# 2 28.9551 41.8475 -2.2756 0.0000 0.0000 0.0000
# 3 4.9299 -2.2756 32.0308 0.0000 0.0000 0.0000
# 4 0.0000 0.0000 0.0000 21.4683 0.0000 0.0000
# 5 0.0000 0.0000 0.0000 0.0000 14.3088 0.0000
# 6 0.0000 0.0000 0.0000 0.0000 0.0000 19.2857
#
#
#
# Elastic Compliance Matrix: (Units=1/GPa)
#
#
# Indices 1 2 3 4 5 6 
#
# 1 0.005963 -0.004192 -0.001216 0.000000 0.000000 0.000000
# 2 -0.004192 0.026936 0.002559 0.000000 0.000000 0.000000
# 3 -0.001216 0.002559 0.031589 0.000000 0.000000 0.000000
# 4 0.000000 0.000000 0.000000 0.046580 0.000000 0.000000
# 5 0.000000 0.000000 0.000000 0.000000 0.069887 0.000000
# 6 0.000000 0.000000 0.000000 0.000000 0.000000 0.051852
#
#
# Mechanical properties :
#
#
# Convention : Reuss Voigt Hill
#
# Bulk Modulus (GPa) = 17.00962 36.24019 26.62490
# Shear Modulus (GPa) = 19.37228 26.43481 22.90355
#
# Velocity S-wave (km/s) = 3.09009 3.60968 3.35994
# Velocity P-wave (km/s) = 4.59517 5.93598 5.30808
#
# Compressibility (1/GPa) = 0.05879026
#
# Stress axis : x y z
#
# Youngs Moduli (GPa) = 167.70414 37.12521 31.65672
#
# Poissons Ratio (x) = 0.15563 0.03848
# Poissons Ratio (y) = 0.70300 -0.08100
# Poissons Ratio (z) = 0.20386 -0.09500
#
# Static dielectric constant tensor:
#      x y z
#    x 1.811570 0.000000 0.000000 
#    y 0.000000 1.707810 0.000000 
#    z 0.000000 0.000000 1.755860 
# 
# From -- ./inp_files/8157.got.cif
#   From: 2010.05.17/outbox.cif.g08.bks.cpg/sg63_5_cif.got.tgz:8157.got - 2010.06.03 15:47:04.
