data_PCOD9469965
_publ_section_title
;
Structure prediction by ZEFSAII (Michael W. Deem and Ramdas Pophale) SiO2 
 PCOD9469965
Probable space group: C M C M
;
_chemical_formula_sum "Si O2"
_cell_formula_units_Z 104
_cell_length_a 27.272431
_cell_length_b 19.795327
_cell_length_c 7.293357
_cell_angle_alpha 90.000000
_cell_angle_beta 90.000000
_cell_angle_gamma 90.000000
_cell_volume 3937.440501
_symmetry_space_group_name_H-M "C M C M"
_symmetry_group_IT_number 63
_symmetry_cell_setting 'orthorhombic'
loop_
_space_group_symop_operation_xyz
x,y,z
-x,-y,1/2+z
x,-y,-z
-x,y,1/2-z
-x,-y,-z
x,y,1/2-z
-x,y,z
x,-y,1/2+z
1/2+x,1/2+y,z
1/2-x,1/2-y,1/2+z
1/2+x,1/2-y,-z
1/2-x,1/2+y,1/2-z
1/2-x,1/2-y,-z
1/2+x,1/2+y,1/2-z
1/2-x,1/2+y,z
1/2+x,1/2-y,1/2+z
loop_
_atom_site_type_symbol
_atom_site_label
_atom_site_fract_x
_atom_site_fract_y
_atom_site_fract_z
Si Si1 0.707405 0.891205 0.958110
Si Si2 0.918687 0.073406 0.468279
Si Si3 0.163641 0.256345 0.470170
Si Si4 0.445640 0.725278 0.472944
Si Si5 0.500000 0.081474 0.469260
Si Si6 0.897716 0.420785 0.532005
Si Si7 0.812451 0.897168 0.972609
O O1 0.705637 0.918039 0.750000
O O2 0.655220 0.905706 0.048621
O O3 0.758366 0.916350 0.039690
O O4 0.701930 0.810145 0.952006
O O5 0.916364 0.080951 0.250000
O O6 0.940822 0.145381 0.529586
O O7 0.862562 0.069742 0.539848
O O8 0.942300 0.000000 0.500000
O O9 0.164141 0.262237 0.250000
O O10 0.105926 0.260911 0.530115
O O11 0.180239 0.181342 0.516693
O O12 0.445256 0.726744 0.250000
O O13 0.500000 0.749218 0.532998
O O14 0.500000 0.090155 0.250000
O O15 0.448586 0.109257 0.542193
O O16 0.500000 0.000000 0.500000
O O17 0.902827 0.500000 0.500000
O O18 0.896018 0.406686 0.750000
O O19 0.811028 0.903274 0.750000
#
# Coordination Sequence:
#
# PCOD9469965 Si02
#       7
#    16  16  16  16   8  16  16
#     4  10  19  31  47  69  94 120 149 185 234 280
#     4   9  17  30  48  70  95 125 159 194 232 275
#     4   9  17  31  50  69  88 117 158 195 223 264
#     4   8  15  30  50  68  92 127 160 190 231 281
#     4   8  14  28  46  60  78 108 142 170 203 250
#     4   9  18  31  47  65  87 116 146 179 219 265
#     4   8  16  31  48  64  90 126 156 183 223 276
#
# _framework density 26.413097
#
# number of rings (size 3 to 8) (size 9 to 14) (size 15 to 20)
#    0.000    3.231    0.000    2.308    0.000    1.538 
#    1.385    3.846    0.000    0.923    0.000    0.000 
#    0.000    0.000    0.000    0.000    0.000    0.000 
#
# Total GULP energy -290204.013800 kJ/mol
# GULP energy per Si atom -5580.846419 kJ/mol
# Density = 2.635298 g / cm^3
# Si number density = 26.413097 Si / 1000 Ang^3
#
#
#
# Elastic Constant Matrix: (Units=GPa)
#
#
# Indices 1 2 3 4 5 6 
#
# 1 211.0651 3.7368 11.2893 0.0000 0.0000 0.0000
# 2 3.7368 62.7974 -9.6774 0.0000 0.0000 0.0000
# 3 11.2893 -9.6774 123.2628 0.0000 0.0000 0.0000
# 4 0.0000 0.0000 0.0000 15.5891 0.0000 0.0000
# 5 0.0000 0.0000 0.0000 0.0000 -3.0926 0.0000
# 6 0.0000 0.0000 0.0000 0.0000 0.0000 -10.8907
#
#
#
# Elastic Compliance Matrix: (Units=1/GPa)
#
#
# Indices 1 2 3 4 5 6 
#
# 1 0.004769 -0.000355 -0.000465 0.000000 0.000000 0.000000
# 2 -0.000355 0.016146 0.001300 0.000000 0.000000 0.000000
# 3 -0.000465 0.001300 0.008257 0.000000 0.000000 0.000000
# 4 0.000000 0.000000 0.000000 0.064148 0.000000 0.000000
# 5 0.000000 0.000000 0.000000 0.000000 -0.323347 0.000000
# 6 0.000000 0.000000 0.000000 0.000000 0.000000 -0.091822
#
#
# Mechanical properties :
#
#
# Convention : Reuss Voigt Hill
#
# Bulk Modulus (GPa) = 33.18699 45.31363 39.25031
# Shear Modulus (GPa) = -15.98641 26.43959 5.22659
#
# Velocity S-wave (km/s) = -2.46284 3.16730 1.40822
# Velocity P-wave (km/s) = 2.12236 5.52889 4.18767
#
# Compressibility (1/GPa) = 0.03013229
#
# Stress axis : x y z
#
# Youngs Moduli (GPa) = 209.68659 61.93587 121.10375
#
# Poissons Ratio (x) = 0.02201 0.05627
# Poissons Ratio (y) = 0.07452 -0.15745
# Poissons Ratio (z) = 0.09744 -0.08053
#
# Static dielectric constant tensor:
#      x y z
#    x 2.129280 0.000000 0.000000 
#    y 0.000000 2.146840 0.000000 
#    z 0.000000 0.000000 1.979180 
# 
# From -- ./inp_files/14495.got.cif
#   From: 2010.05.17/outbox.cif.g08.bks.cpg/sg63_8_cif.got.tgz:14495.got - 2010.06.03 15:47:04.
