data_PCOD9469704
_publ_section_title
;
Structure prediction by ZEFSAII (Michael W. Deem and Ramdas Pophale) SiO2 
 PCOD9469704
Probable space group: C M C M
;
_chemical_formula_sum "Si O2"
_cell_formula_units_Z 112
_cell_length_a 13.398315
_cell_length_b 26.699146
_cell_length_c 15.218459
_cell_angle_alpha 90.000000
_cell_angle_beta 90.000000
_cell_angle_gamma 90.000000
_cell_volume 5444.001458
_symmetry_space_group_name_H-M "C M C M"
_symmetry_group_IT_number 63
_symmetry_cell_setting 'orthorhombic'
loop_
_space_group_symop_operation_xyz
x,y,z
-x,-y,1/2+z
x,-y,-z
-x,y,1/2-z
-x,-y,-z
x,y,1/2-z
-x,y,z
x,-y,1/2+z
1/2+x,1/2+y,z
1/2-x,1/2-y,1/2+z
1/2+x,1/2-y,-z
1/2-x,1/2+y,1/2-z
1/2-x,1/2-y,-z
1/2+x,1/2+y,1/2-z
1/2-x,1/2+y,z
1/2+x,1/2-y,1/2+z
loop_
_atom_site_type_symbol
_atom_site_label
_atom_site_fract_x
_atom_site_fract_y
_atom_site_fract_z
Si Si1 0.111951 0.241198 0.348976
Si Si2 0.271739 0.848002 0.846178
Si Si3 0.182051 0.973497 0.148596
Si Si4 0.609513 0.629232 0.919702
Si Si5 0.889044 0.432149 0.144583
Si Si6 0.608629 0.576603 0.391303
Si Si7 0.677423 0.834015 0.042972
O O1 0.117971 0.263894 0.250000
O O2 0.191848 0.197210 0.352329
O O3 0.131976 0.282547 0.422403
O O4 0.000000 0.220596 0.359513
O O5 0.322602 0.844495 0.750000
O O6 0.204473 0.898146 0.847077
O O7 0.330292 0.843556 0.938313
O O8 0.180380 0.988888 0.250000
O O9 0.134125 0.918417 0.141317
O O10 0.296532 0.967152 0.118311
O O11 0.125954 0.017573 0.099218
O O12 0.500000 0.650931 0.899587
O O13 0.705608 0.664930 0.926395
O O14 0.605845 0.603443 0.014925
O O15 0.879672 0.423779 0.250000
O O16 0.873315 0.380071 0.094094
O O17 0.000000 0.452001 0.127465
O O18 0.500000 0.585066 0.349368
#
# Coordination Sequence:
#
# PCOD9469704 Si02
#       7
#    16  16  16  16  16  16  16
#     4  10  20  35  58  85 107 130 168 218 265 307
#     4  10  21  35  51  75 108 141 173 211 254 304
#     4  10  19  29  47  76 105 134 170 211 258 310
#     4   9  19  33  48  71 105 139 170 208 254 308
#     4   9  18  34  56  81 106 132 171 224 270 305
#     4  10  19  32  51  73 101 139 177 211 252 304
#     4  10  19  33  55  80 105 136 173 214 261 311
#
# _framework density 20.573101999999999
#
# number of rings (size 3 to 8) (size 9 to 14) (size 15 to 20)
#    0.000    2.286    0.000    3.000    0.000    6.000 
#    0.000    0.000    0.000   20.571    0.000    4.000 
#    0.000    0.000    0.000    0.000    0.000    0.000 
#
# Total GULP energy -312364.951041 kJ/mol
# GULP energy per Si atom -5577.945554 kJ/mol
# Density = 2.052628 g / cm^3
# Si number density = 20.573102 Si / 1000 Ang^3
#
#
#
# Elastic Constant Matrix: (Units=GPa)
#
#
# Indices 1 2 3 4 5 6 
#
# 1 64.1866 -12.2905 6.7700 0.0000 0.0000 0.0000
# 2 -12.2905 30.7657 16.3111 0.0000 0.0000 0.0000
# 3 6.7700 16.3111 70.0468 0.0000 0.0000 0.0000
# 4 0.0000 0.0000 0.0000 -5.8829 0.0000 0.0000
# 5 0.0000 0.0000 0.0000 0.0000 13.6336 0.0000
# 6 0.0000 0.0000 0.0000 0.0000 0.0000 9.9510
#
#
#
# Elastic Compliance Matrix: (Units=1/GPa)
#
#
# Indices 1 2 3 4 5 6 
#
# 1 0.017730 0.009117 -0.003837 0.000000 0.000000 0.000000
# 2 0.009117 0.041770 -0.010608 0.000000 0.000000 0.000000
# 3 -0.003837 -0.010608 0.017117 0.000000 0.000000 0.000000
# 4 0.000000 0.000000 0.000000 -0.169984 0.000000 0.000000
# 5 0.000000 0.000000 0.000000 0.000000 0.073348 0.000000
# 6 0.000000 0.000000 0.000000 0.000000 0.000000 0.100492
#
#
# Mechanical properties :
#
#
# Convention : Reuss Voigt Hill
#
# Bulk Modulus (GPa) = 15.16020 20.73114 17.94567
# Shear Modulus (GPa) = 44.20289 13.82091 29.01190
#
# Velocity S-wave (km/s) = 4.64030 2.59471 3.75932
# Velocity P-wave (km/s) = 6.00790 4.36754 5.25215
#
# Compressibility (1/GPa) = 0.06596218
#
# Stress axis : x y z
#
# Youngs Moduli (GPa) = 56.40171 23.94077 58.42114
#
# Poissons Ratio (x) = -0.21827 0.22414
# Poissons Ratio (y) = -0.51421 0.61971
# Poissons Ratio (z) = 0.21639 0.25396
#
# Static dielectric constant tensor:
#      x y z
#    x 1.768140 0.000000 0.000000 
#    y 0.000000 1.710990 0.000000 
#    z 0.000000 0.000000 1.792730 
# 
# From -- ./inp_files/32309.got.cif
#   From: 2010.05.17/outbox.cif.g08.bks.cpg/sg63_17_cif.got.tgz:32309.got - 2010.06.03 15:47:04.
