data_PCOD9469218
_publ_section_title
;
Structure prediction by ZEFSAII (Michael W. Deem and Ramdas Pophale) SiO2 
 PCOD9469218
Probable space group: C M C M
;
_chemical_formula_sum "Si O2"
_cell_formula_units_Z 96
_cell_length_a 8.112511
_cell_length_b 28.686619
_cell_length_c 23.151267
_cell_angle_alpha 90.000000
_cell_angle_beta 90.000000
_cell_angle_gamma 90.000000
_cell_volume 5387.774714
_symmetry_space_group_name_H-M "C M C M"
_symmetry_group_IT_number 63
_symmetry_cell_setting 'orthorhombic'
loop_
_space_group_symop_operation_xyz
x,y,z
-x,-y,1/2+z
x,-y,-z
-x,y,1/2-z
-x,-y,-z
x,y,1/2-z
-x,y,z
x,-y,1/2+z
1/2+x,1/2+y,z
1/2-x,1/2-y,1/2+z
1/2+x,1/2-y,-z
1/2-x,1/2+y,1/2-z
1/2-x,1/2-y,-z
1/2+x,1/2+y,1/2-z
1/2-x,1/2+y,z
1/2+x,1/2-y,1/2+z
loop_
_atom_site_type_symbol
_atom_site_label
_atom_site_fract_x
_atom_site_fract_y
_atom_site_fract_z
Si Si1 0.696115 0.193808 0.945495
Si Si2 0.309921 0.368797 0.250000
Si Si3 0.797285 0.219646 0.129724
Si Si4 0.303881 0.762848 0.250000
Si Si5 0.306232 0.897824 0.128912
Si Si6 0.307621 0.360427 0.554724
Si Si7 0.698671 0.448344 0.014623
O O1 0.500000 0.195869 0.958773
O O2 0.751936 0.242251 0.918313
O O3 0.718380 0.154151 0.896780
O O4 0.791341 0.175282 0.001024
O O5 0.500000 0.356602 0.250000
O O6 0.219585 0.318637 0.250000
O O7 0.269539 0.397560 0.307672
O O8 0.739984 0.238528 0.191627
O O9 0.740267 0.168581 0.109122
O O10 0.000000 0.219683 0.129908
O O11 0.500000 0.755242 0.250000
O O12 0.500000 0.905909 0.134113
O O13 0.238664 0.932095 0.079619
O O14 0.500000 0.369197 0.566586
O O15 0.235326 0.408628 0.529660
O O16 0.500000 0.448355 0.009527
O O17 0.759452 0.500000 0.000000
#
# Coordination Sequence:
#
# PCOD9469218 Si02
#       7
#    16   8  16   8  16  16  16
#     4   9  16  27  43  65  92 122 153 191 238 280
#     4  12  22  32  48  73 104 133 163 194 237 293
#     4   9  16  27  44  64  89 123 161 197 231 278
#     4  10  18  32  48  63  92 133 165 194 235 279
#     4  10  19  32  51  73  99 130 167 203 240 292
#     4   9  17  28  44  67  91 121 160 198 242 292
#     4   9  18  33  51  72 101 131 161 209 267 306
#
# _framework density 17.818117999999998
#
# number of rings (size 3 to 8) (size 9 to 14) (size 15 to 20)
#    0.000    2.500    1.667    1.750    0.000    1.000 
#    0.000    0.833    0.000    1.000    0.000    4.667 
#    0.000    0.000    0.000    0.000    0.000    0.000 
#
# Total GULP energy -267502.077099 kJ/mol
# GULP energy per Si atom -5572.959940 kJ/mol
# Density = 1.777756 g / cm^3
# Si number density = 17.818118 Si / 1000 Ang^3
#
#
#
# Elastic Constant Matrix: (Units=GPa)
#
#
# Indices 1 2 3 4 5 6 
#
# 1 5.1662 2.0320 -3.8322 0.0000 0.0000 0.0000
# 2 2.0320 116.3753 54.4145 0.0000 0.0000 0.0000
# 3 -3.8322 54.4145 54.0927 0.0000 0.0000 0.0000
# 4 0.0000 0.0000 0.0000 10.4764 0.0000 0.0000
# 5 0.0000 0.0000 0.0000 0.0000 14.4987 0.0000
# 6 0.0000 0.0000 0.0000 0.0000 0.0000 1.1129
#
#
#
# Elastic Compliance Matrix: (Units=1/GPa)
#
#
# Indices 1 2 3 4 5 6 
#
# 1 0.230817 -0.022046 0.038529 0.000000 0.000000 0.000000
# 2 -0.022046 0.018330 -0.020001 0.000000 0.000000 0.000000
# 3 0.038529 -0.020001 0.041336 0.000000 0.000000 0.000000
# 4 0.000000 0.000000 0.000000 0.095452 0.000000 0.000000
# 5 0.000000 0.000000 0.000000 0.000000 0.068972 0.000000
# 6 0.000000 0.000000 0.000000 0.000000 0.000000 0.898583
#
#
# Mechanical properties :
#
#
# Convention : Reuss Voigt Hill
#
# Bulk Modulus (GPa) = 3.52798 31.20699 17.36749
# Shear Modulus (GPa) = 3.43641 13.41893 8.42767
#
# Velocity S-wave (km/s) = 1.39025 2.74725 2.17718
# Velocity P-wave (km/s) = 2.13573 5.25504 4.01103
#
# Compressibility (1/GPa) = 0.28344831
#
# Stress axis : x y z
#
# Youngs Moduli (GPa) = 4.33244 54.55644 24.19200
#
# Poissons Ratio (x) = 1.20274 -0.93210
# Poissons Ratio (y) = 0.09551 0.48385
# Poissons Ratio (z) = -0.16693 1.09116
#
# Static dielectric constant tensor:
#      x y z
#    x 1.633670 0.000000 0.000000 
#    y 0.000000 1.624180 0.000000 
#    z 0.000000 0.000000 1.635900 
# 
# From -- ./inp_files/60295.got.cif
#   From: 2010.05.17/outbox.cif.g08.bks.cpg/sg63_31_cif.got.tgz:60295.got - 2010.06.03 15:47:04.
