data_PCOD9469910
_publ_section_title
;
Structure prediction by ZEFSAII (Michael W. Deem and Ramdas Pophale) SiO2 
 PCOD9469910
Probable space group: C M C M
;
_chemical_formula_sum "Si O2"
_cell_formula_units_Z 80
_cell_length_a 16.293226
_cell_length_b 29.629875
_cell_length_c 7.518580
_cell_angle_alpha 90.000000
_cell_angle_beta 90.000000
_cell_angle_gamma 90.000000
_cell_volume 3629.716670
_symmetry_space_group_name_H-M "C M C M"
_symmetry_group_IT_number 63
_symmetry_cell_setting 'orthorhombic'
loop_
_space_group_symop_operation_xyz
x,y,z
-x,-y,1/2+z
x,-y,-z
-x,y,1/2-z
-x,-y,-z
x,y,1/2-z
-x,y,z
x,-y,1/2+z
1/2+x,1/2+y,z
1/2-x,1/2-y,1/2+z
1/2+x,1/2-y,-z
1/2-x,1/2+y,1/2-z
1/2-x,1/2-y,-z
1/2+x,1/2+y,1/2-z
1/2-x,1/2+y,z
1/2+x,1/2-y,1/2+z
loop_
_atom_site_type_symbol
_atom_site_label
_atom_site_fract_x
_atom_site_fract_y
_atom_site_fract_z
Si Si1 0.410619 0.397682 0.043907
Si Si2 0.852343 0.199358 0.457177
Si Si3 0.090304 0.393782 0.032723
Si Si4 0.840791 0.701495 0.965799
Si Si5 0.250247 0.947133 0.463382
O O1 0.414340 0.411861 0.250000
O O2 0.500000 0.407162 0.963532
O O3 0.331315 0.422536 0.964939
O O4 0.393606 0.344143 0.041415
O O5 0.874505 0.198058 0.250000
O O6 0.871816 0.249509 0.527679
O O7 0.753601 0.195249 0.475847
O O8 0.090530 0.394628 0.250000
O O9 0.107845 0.342022 0.980166
O O10 0.166046 0.424149 0.970111
O O11 0.000000 0.408461 0.974124
O O12 0.839531 0.702945 0.750000
O O13 0.250736 0.940248 0.250000
O O14 0.248327 0.000000 0.500000
#
# Coordination Sequence:
#
# PCOD9469910 Si02
#       5
#    16  16  16  16  16
#     4  10  21  38  58  78 106 146 184 218 267 330
#     4  10  19  30  52  83 113 144 181 225 266 307
#     4   9  17  32  56  81 105 139 180 216 256 316
#     4   9  17  32  53  78 111 150 185 215 257 316
#     4  10  21  38  58  79 104 136 177 223 274 328
#
# _framework density 22.040285999999998
#
# number of rings (size 3 to 8) (size 9 to 14) (size 15 to 20)
#    0.000    2.400    2.000    0.600    0.000    3.600 
#    0.000    2.000    0.000    1.800    0.000    0.000 
#    0.000    0.000    0.000    0.000    0.000    0.000 
#
# Total GULP energy -223372.892793 kJ/mol
# GULP energy per Si atom -5584.322320 kJ/mol
# Density = 2.199012 g / cm^3
# Si number density = 22.040286 Si / 1000 Ang^3
#
#
#
# Elastic Constant Matrix: (Units=GPa)
#
#
# Indices 1 2 3 4 5 6 
#
# 1 195.5763 103.2200 6.5917 0.0000 0.0000 0.0000
# 2 103.2200 136.9173 -3.5779 0.0000 0.0000 0.0000
# 3 6.5917 -3.5779 58.0706 0.0000 0.0000 0.0000
# 4 0.0000 0.0000 0.0000 15.1922 0.0000 0.0000
# 5 0.0000 0.0000 0.0000 0.0000 -4.8772 0.0000
# 6 0.0000 0.0000 0.0000 0.0000 0.0000 -1.0773
#
#
#
# Elastic Compliance Matrix: (Units=1/GPa)
#
#
# Indices 1 2 3 4 5 6 
#
# 1 0.008601 -0.006520 -0.001378 0.000000 0.000000 0.000000
# 2 -0.006520 0.012258 0.001495 0.000000 0.000000 0.000000
# 3 -0.001378 0.001495 0.017469 0.000000 0.000000 0.000000
# 4 0.000000 0.000000 0.000000 0.065823 0.000000 0.000000
# 5 0.000000 0.000000 0.000000 0.000000 -0.205037 0.000000
# 6 0.000000 0.000000 0.000000 0.000000 0.000000 -0.928243
#
#
# Mechanical properties :
#
#
# Convention : Reuss Voigt Hill
#
# Bulk Modulus (GPa) = 39.18110 67.00354 53.09232
# Shear Modulus (GPa) = -4.96122 20.80290 7.92084
#
# Velocity S-wave (km/s) = -1.50195 3.07556 1.89779
# Velocity P-wave (km/s) = 3.84809 6.56343 5.37989
#
# Compressibility (1/GPa) = 0.02552251
#
# Stress axis : x y z
#
# Youngs Moduli (GPa) = 116.27183 81.57959 57.24439
#
# Poissons Ratio (x) = 0.53189 0.07888
# Poissons Ratio (y) = 0.75807 -0.08560
# Poissons Ratio (z) = 0.16022 -0.12199
#
# Static dielectric constant tensor:
#      x y z
#    x 1.810470 0.000000 0.000000 
#    y 0.000000 1.767480 0.000000 
#    z 0.000000 0.000000 1.900060 
# 
# From -- ./inp_files/6437.got.cif
#   From: 2010.05.17/outbox.cif.g08.bks.cpg/sg63_4_cif.got.tgz:6437.got - 2010.06.03 15:47:04.
