data_PCOD9469173
_publ_section_title
;
Structure prediction by ZEFSAII (Michael W. Deem and Ramdas Pophale) SiO2 
 PCOD9469173
Probable space group: C M C M
;
_chemical_formula_sum "Si O2"
_cell_formula_units_Z 72
_cell_length_a 14.122149
_cell_length_b 31.864996
_cell_length_c 8.404574
_cell_angle_alpha 90.000000
_cell_angle_beta 90.000000
_cell_angle_gamma 90.000000
_cell_volume 3782.076970
_symmetry_space_group_name_H-M "C M C M"
_symmetry_group_IT_number 63
_symmetry_cell_setting 'orthorhombic'
loop_
_space_group_symop_operation_xyz
x,y,z
-x,-y,1/2+z
x,-y,-z
-x,y,1/2-z
-x,-y,-z
x,y,1/2-z
-x,y,z
x,-y,1/2+z
1/2+x,1/2+y,z
1/2-x,1/2-y,1/2+z
1/2+x,1/2-y,-z
1/2-x,1/2+y,1/2-z
1/2-x,1/2-y,-z
1/2+x,1/2+y,1/2-z
1/2-x,1/2+y,z
1/2+x,1/2-y,1/2+z
loop_
_atom_site_type_symbol
_atom_site_label
_atom_site_fract_x
_atom_site_fract_y
_atom_site_fract_z
Si Si1 0.842026 0.390605 0.568223
Si Si2 0.500000 0.818796 0.924426
Si Si3 0.500000 0.952502 0.440160
Si Si4 0.500000 0.371784 0.750000
Si Si5 0.000000 0.266891 0.250000
Si Si6 0.000000 0.130185 0.916537
Si Si7 0.162862 0.199237 0.250000
Si Si8 0.204435 0.830929 0.075532
O O1 0.811073 0.398614 0.750000
O O2 0.907395 0.428111 0.505359
O O3 0.756441 0.375246 0.458349
O O4 0.910940 0.350136 0.570587
O O5 0.500000 0.796896 0.750000
O O6 0.500000 0.792332 0.085091
O O7 0.500000 0.950510 0.250000
O O8 0.500000 0.000000 0.500000
O O9 0.500000 0.394829 0.581702
O O10 0.407202 0.341652 0.750000
O O11 0.092817 0.238079 0.250000
O O12 0.092563 0.159606 0.917409
O O13 0.000000 0.106064 0.750000
O O14 0.219957 0.196357 0.415756
O O15 0.234335 0.814527 0.250000
#
# Coordination Sequence:
#
# PCOD9469173 Si02
#       8
#    16   8   8   4   4   8   8  16
#     4  10  20  37  59  83 113 151 190 238 279 341
#     4   9  22  38  55  74 103 145 196 237 290 357
#     4  11  22  37  60  94 125 154 189 225 278 331
#     4   7  12  24  42  56  90 120 154 204 282 308
#     4  11  22  36  60  72 104 148 194 242 314 340
#     4   8  15  25  41  72 102 129 171 227 271 324
#     4   9  18  32  46  75  97 132 178 243 280 337
#     4  10  18  31  54  79 108 143 188 236 292 339
#
# _framework density 19.037158999999999
#
# number of rings (size 3 to 8) (size 9 to 14) (size 15 to 20)
#    0.000    2.444    1.111    3.000    4.667    0.889 
#    0.000    2.222    0.000    0.000    0.000    0.778 
#    0.000    0.000    0.000    0.000    0.000    0.000 
#
# Total GULP energy -200542.888703 kJ/mol
# GULP energy per Si atom -5570.635797 kJ/mol
# Density = 1.899383 g / cm^3
# Si number density = 19.037159 Si / 1000 Ang^3
#
#
#
# Elastic Constant Matrix: (Units=GPa)
#
#
# Indices 1 2 3 4 5 6 
#
# 1 44.5254 17.5217 10.3579 0.0000 0.0000 0.0000
# 2 17.5217 67.9639 49.6595 0.0000 0.0000 0.0000
# 3 10.3579 49.6595 229.6752 0.0000 0.0000 0.0000
# 4 0.0000 0.0000 0.0000 22.7297 0.0000 0.0000
# 5 0.0000 0.0000 0.0000 0.0000 19.4155 0.0000
# 6 0.0000 0.0000 0.0000 0.0000 0.0000 -18.1273
#
#
#
# Elastic Compliance Matrix: (Units=1/GPa)
#
#
# Indices 1 2 3 4 5 6 
#
# 1 0.025014 -0.006680 0.000316 0.000000 0.000000 0.000000
# 2 -0.006680 0.019258 -0.003863 0.000000 0.000000 0.000000
# 3 0.000316 -0.003863 0.005175 0.000000 0.000000 0.000000
# 4 0.000000 0.000000 0.000000 0.043995 0.000000 0.000000
# 5 0.000000 0.000000 0.000000 0.000000 0.051505 0.000000
# 6 0.000000 0.000000 0.000000 0.000000 0.000000 -0.055165
#
#
# Mechanical properties :
#
#
# Convention : Reuss Voigt Hill
#
# Bulk Modulus (GPa) = 34.48930 55.24919 44.86925
# Shear Modulus (GPa) = 41.70138 22.44528 32.07333
#
# Velocity S-wave (km/s) = 4.68538 3.43742 4.10905
# Velocity P-wave (km/s) = 6.88670 6.69621 6.79212
#
# Compressibility (1/GPa) = 0.02899450
#
# Stress axis : x y z
#
# Youngs Moduli (GPa) = 39.97726 51.92596 193.24099
#
# Poissons Ratio (x) = 0.34686 -0.06111
# Poissons Ratio (y) = 0.26705 0.74643
# Poissons Ratio (z) = -0.01264 0.20057
#
# Static dielectric constant tensor:
#      x y z
#    x 1.705870 0.000000 0.000000 
#    y 0.000000 1.602120 0.000000 
#    z 0.000000 0.000000 1.783040 
# 
# From -- ./inp_files/4787.got.cif
#   From: 2010.05.17/outbox.cif.g08.bks.cpg/sg63_3_cif.got.tgz:4787.got - 2010.06.03 15:47:04.
