data_PCOD9469370
_publ_section_title
;
Structure prediction by ZEFSAII (Michael W. Deem and Ramdas Pophale) SiO2 
 PCOD9469370
Probable space group: C M C M
;
_chemical_formula_sum "Si O2"
_cell_formula_units_Z 104
_cell_length_a 20.269545
_cell_length_b 16.833041
_cell_length_c 15.502882
_cell_angle_alpha 90.000000
_cell_angle_beta 90.000000
_cell_angle_gamma 90.000000
_cell_volume 5289.553604
_symmetry_space_group_name_H-M "C M C M"
_symmetry_group_IT_number 63
_symmetry_cell_setting 'orthorhombic'
loop_
_space_group_symop_operation_xyz
x,y,z
-x,-y,1/2+z
x,-y,-z
-x,y,1/2-z
-x,-y,-z
x,y,1/2-z
-x,y,z
x,-y,1/2+z
1/2+x,1/2+y,z
1/2-x,1/2-y,1/2+z
1/2+x,1/2-y,-z
1/2-x,1/2+y,1/2-z
1/2-x,1/2-y,-z
1/2+x,1/2+y,1/2-z
1/2-x,1/2+y,z
1/2+x,1/2-y,1/2+z
loop_
_atom_site_type_symbol
_atom_site_label
_atom_site_fract_x
_atom_site_fract_y
_atom_site_fract_z
Si Si1 0.500000 0.716948 0.646111
Si Si2 0.163060 0.621598 0.903767
Si Si3 0.206585 0.192098 0.654243
Si Si4 0.500000 0.467446 0.354163
Si Si5 0.121892 0.312401 0.569900
Si Si6 0.352747 0.484206 0.352284
Si Si7 0.424375 0.982922 0.896046
Si Si8 0.742963 0.500000 0.500000
O O1 0.500000 0.722267 0.750000
O O2 0.500000 0.624852 0.621342
O O3 0.563252 0.759767 0.607136
O O4 0.216412 0.669687 0.849894
O O5 0.117464 0.555962 0.858483
O O6 0.118949 0.674503 0.967203
O O7 0.210395 0.570480 0.967861
O O8 0.188304 0.219098 0.750000
O O9 0.187237 0.262705 0.590887
O O10 0.165390 0.110205 0.638959
O O11 0.500000 0.470001 0.250000
O O12 0.428396 0.501001 0.379077
O O13 0.112386 0.398946 0.613199
O O14 0.343562 0.502550 0.250000
O O15 0.302611 0.524324 0.419115
O O16 0.500000 0.978045 0.865907
O O17 0.427091 0.000000 0.000000
#
# Coordination Sequence:
#
# PCOD9469370 Si02
#       8
#     8  16  16   8  16  16  16   8
#     4  11  20  30  46  78 113 131 158 213 276 323
#     4  10  20  35  54  76 105 145 185 213 262 333
#     4  10  20  34  51  74 108 141 174 224 272 317
#     4   9  16  31  49  70 101 134 167 214 274 322
#     4  11  18  31  53  79 104 136 177 215 265 321
#     4   9  18  31  50  73 101 138 174 217 271 323
#     4   9  17  31  52  78 108 140 174 218 268 321
#     4  10  18  33  51  72 106 136 178 214 254 322
#
# _framework density 19.661394999999999
#
# number of rings (size 3 to 8) (size 9 to 14) (size 15 to 20)
#    0.000    2.154    4.615    0.923    1.077    0.308 
#    0.000    3.077    0.000    0.000    0.000    0.000 
#    0.000    0.000    0.000    0.000    0.000    0.000 
#
# Total GULP energy -289803.646038 kJ/mol
# GULP energy per Si atom -5573.147039 kJ/mol
# Density = 1.961664 g / cm^3
# Si number density = 19.661395 Si / 1000 Ang^3
#
#
#
# Elastic Constant Matrix: (Units=GPa)
#
#
# Indices 1 2 3 4 5 6 
#
# 1 104.8768 11.7469 16.6158 0.0000 0.0000 0.0000
# 2 11.7469 32.8704 4.3386 0.0000 0.0000 0.0000
# 3 16.6158 4.3386 46.8181 0.0000 0.0000 0.0000
# 4 0.0000 0.0000 0.0000 12.7122 0.0000 0.0000
# 5 0.0000 0.0000 0.0000 0.0000 18.8144 0.0000
# 6 0.0000 0.0000 0.0000 0.0000 0.0000 17.6763
#
#
#
# Elastic Compliance Matrix: (Units=1/GPa)
#
#
# Indices 1 2 3 4 5 6 
#
# 1 0.010442 -0.003283 -0.003402 0.000000 0.000000 0.000000
# 2 -0.003283 0.031831 -0.001785 0.000000 0.000000 0.000000
# 3 -0.003402 -0.001785 0.022732 0.000000 0.000000 0.000000
# 4 0.000000 0.000000 0.000000 0.078664 0.000000 0.000000
# 5 0.000000 0.000000 0.000000 0.000000 0.053151 0.000000
# 6 0.000000 0.000000 0.000000 0.000000 0.000000 0.056573
#
#
# Mechanical properties :
#
#
# Convention : Reuss Voigt Hill
#
# Bulk Modulus (GPa) = 20.80434 27.77419 24.28927
# Shear Modulus (GPa) = 17.46099 19.96487 18.71293
#
# Velocity S-wave (km/s) = 2.98331 3.19005 3.08841
# Velocity P-wave (km/s) = 4.74037 5.26550 5.00982
#
# Compressibility (1/GPa) = 0.04806689
#
# Stress axis : x y z
#
# Youngs Moduli (GPa) = 95.77103 31.41580 43.99115
#
# Poissons Ratio (x) = 0.10312 0.14964
# Poissons Ratio (y) = 0.31437 0.07851
# Poissons Ratio (z) = 0.32577 0.05607
#
# Static dielectric constant tensor:
#      x y z
#    x 1.751950 0.000000 0.000000 
#    y 0.000000 1.697540 0.000000 
#    z 0.000000 0.000000 1.716950 
# 
# From -- ./inp_files/47180.got.cif
#   From: 2010.05.17/outbox.cif.g08.bks.cpg/sg63_24_cif.got.tgz:47180.got - 2010.06.03 15:47:04.
