data_PCOD9469550
_publ_section_title
;
Structure prediction by ZEFSAII (Michael W. Deem and Ramdas Pophale) SiO2 
 PCOD9469550
Probable space group: C M C M
;
_chemical_formula_sum "Si O2"
_cell_formula_units_Z 96
_cell_length_a 21.868858
_cell_length_b 12.509017
_cell_length_c 18.830675
_cell_angle_alpha 90.000000
_cell_angle_beta 90.000000
_cell_angle_gamma 90.000000
_cell_volume 5151.280219
_symmetry_space_group_name_H-M "C M C M"
_symmetry_group_IT_number 63
_symmetry_cell_setting 'orthorhombic'
loop_
_space_group_symop_operation_xyz
x,y,z
-x,-y,1/2+z
x,-y,-z
-x,y,1/2-z
-x,-y,-z
x,y,1/2-z
-x,y,z
x,-y,1/2+z
1/2+x,1/2+y,z
1/2-x,1/2-y,1/2+z
1/2+x,1/2-y,-z
1/2-x,1/2+y,1/2-z
1/2-x,1/2-y,-z
1/2+x,1/2+y,1/2-z
1/2-x,1/2+y,z
1/2+x,1/2-y,1/2+z
loop_
_atom_site_type_symbol
_atom_site_label
_atom_site_fract_x
_atom_site_fract_y
_atom_site_fract_z
Si Si1 0.130354 0.829275 0.670797
Si Si2 0.309910 0.253932 0.415146
Si Si3 0.303487 0.389881 0.538937
Si Si4 0.212809 0.384753 0.331363
Si Si5 0.379152 0.077099 0.164410
Si Si6 0.000000 0.507982 0.914086
Si Si7 0.000000 0.728327 0.667847
O O1 0.139985 0.872337 0.750000
O O2 0.158206 0.902539 0.610381
O O3 0.166687 0.716459 0.666317
O O4 0.060117 0.799616 0.660127
O O5 0.337686 0.308055 0.485254
O O6 0.260231 0.167054 0.441869
O O7 0.270124 0.346459 0.377217
O O8 0.354574 0.191316 0.362732
O O9 0.293347 0.500000 0.500000
O O10 0.232293 0.400099 0.250000
O O11 0.173630 0.488598 0.352000
O O12 0.388848 0.074769 0.250000
O O13 0.439733 0.044986 0.121175
O O14 0.000000 0.630435 0.886533
O O15 0.000000 0.500000 0.000000
O O16 0.000000 0.685652 0.750000
#
# Coordination Sequence:
#
# PCOD9469550 Si02
#       7
#    16  16  16  16  16   8   8
#     4   9  18  33  57  80 104 139 190 238 278 331
#     4  10  21  34  56  83 115 153 190 235 297 352
#     4  10  21  37  55  81 116 148 186 241 294 344
#     4   9  17  32  54  80 109 148 193 235 276 336
#     4  11  22  38  58  85 124 159 196 240 293 359
#     4  12  26  34  58  88 123 160 196 241 296 355
#     4  10  18  36  59  82 108 144 195 247 284 322
#
# _framework density 18.636144000000002
#
# number of rings (size 3 to 8) (size 9 to 14) (size 15 to 20)
#    0.000    2.000    1.667    2.250    2.333    2.667 
#    0.000    2.083    0.000    1.000    0.000    2.333 
#    0.000    0.000    0.000    0.000    0.000    0.000 
#
# Total GULP energy -267882.373937 kJ/mol
# GULP energy per Si atom -5580.882790 kJ/mol
# Density = 1.859373 g / cm^3
# Si number density = 18.636144 Si / 1000 Ang^3
#
#
#
# Elastic Constant Matrix: (Units=GPa)
#
#
# Indices 1 2 3 4 5 6 
#
# 1 59.1222 31.9000 55.6360 0.0000 0.0000 0.0000
# 2 31.9000 60.8155 55.4150 0.0000 0.0000 0.0000
# 3 55.6360 55.4150 132.5662 0.0000 0.0000 0.0000
# 4 0.0000 0.0000 0.0000 36.4453 0.0000 0.0000
# 5 0.0000 0.0000 0.0000 0.0000 21.8540 0.0000
# 6 0.0000 0.0000 0.0000 0.0000 0.0000 9.1422
#
#
#
# Elastic Compliance Matrix: (Units=1/GPa)
#
#
# Indices 1 2 3 4 5 6 
#
# 1 0.029596 -0.006794 -0.009581 0.000000 0.000000 0.000000
# 2 -0.006794 0.028119 -0.008903 0.000000 0.000000 0.000000
# 3 -0.009581 -0.008903 0.015286 0.000000 0.000000 0.000000
# 4 0.000000 0.000000 0.000000 0.027438 0.000000 0.000000
# 5 0.000000 0.000000 0.000000 0.000000 0.045758 0.000000
# 6 0.000000 0.000000 0.000000 0.000000 0.000000 0.109383
#
#
# Mechanical properties :
#
#
# Convention : Reuss Voigt Hill
#
# Bulk Modulus (GPa) = 44.55284 59.82289 52.18787
# Shear Modulus (GPa) = 15.94294 20.79181 18.36738
#
# Velocity S-wave (km/s) = 2.92804 3.34379 3.14280
# Velocity P-wave (km/s) = 5.94893 6.86135 6.42137
#
# Compressibility (1/GPa) = 0.02244526
#
# Stress axis : x y z
#
# Youngs Moduli (GPa) = 33.78850 35.56267 65.41940
#
# Poissons Ratio (x) = 0.24161 0.62678
# Poissons Ratio (y) = 0.22956 0.58243
# Poissons Ratio (z) = 0.32372 0.31662
#
# Static dielectric constant tensor:
#      x y z
#    x 1.627910 0.000000 0.000000 
#    y 0.000000 1.632670 0.000000 
#    z 0.000000 0.000000 1.688270 
# 
# From -- ./inp_files/48086.got.cif
#   From: 2010.05.17/outbox.cif.g08.bks.cpg/sg63_25_cif.got.tgz:48086.got - 2010.06.03 15:47:04.
