data_PCOD9469603
_publ_section_title
;
Structure prediction by ZEFSAII (Michael W. Deem and Ramdas Pophale) SiO2 
 PCOD9469603
Probable space group: C M C M
;
_chemical_formula_sum "Si O2"
_cell_formula_units_Z 80
_cell_length_a 29.234548
_cell_length_b 22.838631
_cell_length_c 9.165494
_cell_angle_alpha 90.000000
_cell_angle_beta 90.000000
_cell_angle_gamma 90.000000
_cell_volume 6119.590034
_symmetry_space_group_name_H-M "C M C M"
_symmetry_group_IT_number 63
_symmetry_cell_setting 'orthorhombic'
loop_
_space_group_symop_operation_xyz
x,y,z
-x,-y,1/2+z
x,-y,-z
-x,y,1/2-z
-x,-y,-z
x,y,1/2-z
-x,y,z
x,-y,1/2+z
1/2+x,1/2+y,z
1/2-x,1/2-y,1/2+z
1/2+x,1/2-y,-z
1/2-x,1/2+y,1/2-z
1/2-x,1/2-y,-z
1/2+x,1/2+y,1/2-z
1/2-x,1/2+y,z
1/2+x,1/2-y,1/2+z
loop_
_atom_site_type_symbol
_atom_site_label
_atom_site_fract_x
_atom_site_fract_y
_atom_site_fract_z
Si Si1 0.321977 0.758423 0.581564
Si Si2 0.283634 0.937606 0.077680
Si Si3 0.874346 0.642039 0.577728
Si Si4 0.554558 0.061428 0.421636
Si Si5 0.269889 0.661097 0.418423
O O1 0.334652 0.748706 0.750000
O O2 0.358857 0.797367 0.496231
O O3 0.308509 0.698768 0.499865
O O4 0.275559 0.797758 0.581608
O O5 0.275338 0.944139 0.250000
O O6 0.331541 0.902752 0.060048
O O7 0.245076 0.896974 0.003791
O O8 0.286359 0.000000 0.000000
O O9 0.882281 0.649406 0.750000
O O10 0.917078 0.612545 0.498050
O O11 0.565804 0.057768 0.250000
O O12 0.500000 0.070234 0.435913
O O13 0.565956 0.000000 0.500000
O O14 0.281516 0.649380 0.250000
#
# Coordination Sequence:
#
# PCOD9469603 Si02
#       5
#    16  16  16  16  16
#     4   9  16  26  40  56  74  95 120 152 188 224
#     4  10  19  28  38  54  75  99 127 158 192 227
#     4  10  19  29  42  58  75  96 125 160 195 231
#     4  10  20  32  44  57  74  97 125 158 197 238
#     4   9  16  26  39  54  73  96 122 152 186 223
#
# _framework density 13.072770999999999
#
# number of rings (size 3 to 8) (size 9 to 14) (size 15 to 20)
#    0.000    2.400    0.000    3.600    0.000   10.000 
#    0.000    0.000    0.000    0.000    0.000    0.000 
#    0.000    0.000    0.000    0.000    0.000    1.000 
#
# Total GULP energy -223028.028572 kJ/mol
# GULP energy per Si atom -5575.700714 kJ/mol
# Density = 1.304302 g / cm^3
# Si number density = 13.072771 Si / 1000 Ang^3
#
#
#
# Elastic Constant Matrix: (Units=GPa)
#
#
# Indices 1 2 3 4 5 6 
#
# 1 29.6200 12.4009 33.3261 0.0000 0.0000 0.0000
# 2 12.4009 35.1951 42.2629 0.0000 0.0000 0.0000
# 3 33.3261 42.2629 123.2420 0.0000 0.0000 0.0000
# 4 0.0000 0.0000 0.0000 25.1823 0.0000 0.0000
# 5 0.0000 0.0000 0.0000 0.0000 18.6538 0.0000
# 6 0.0000 0.0000 0.0000 0.0000 0.0000 26.0908
#
#
#
# Elastic Compliance Matrix: (Units=1/GPa)
#
#
# Indices 1 2 3 4 5 6 
#
# 1 0.048632 -0.002284 -0.012367 0.000000 0.000000 0.000000
# 2 -0.002284 0.048412 -0.015984 0.000000 0.000000 0.000000
# 3 -0.012367 -0.015984 0.016940 0.000000 0.000000 0.000000
# 4 0.000000 0.000000 0.000000 0.039710 0.000000 0.000000
# 5 0.000000 0.000000 0.000000 0.000000 0.053608 0.000000
# 6 0.000000 0.000000 0.000000 0.000000 0.000000 0.038328
#
#
# Mechanical properties :
#
#
# Convention : Reuss Voigt Hill
#
# Bulk Modulus (GPa) = 18.97097 40.44854 29.70975
# Shear Modulus (GPa) = 15.40966 20.65654 18.03310
#
# Velocity S-wave (km/s) = 3.43703 3.97938 3.71811
# Velocity P-wave (km/s) = 5.50402 7.21957 6.41936
#
# Compressibility (1/GPa) = 0.05271213
#
# Stress axis : x y z
#
# Youngs Moduli (GPa) = 20.56259 20.65614 59.03296
#
# Poissons Ratio (x) = 0.04719 0.73008
# Poissons Ratio (y) = 0.04697 0.94358
# Poissons Ratio (z) = 0.25430 0.33017
#
# Static dielectric constant tensor:
#      x y z
#    x 1.405700 0.000000 0.000000 
#    y 0.000000 1.408720 0.000000 
#    z 0.000000 0.000000 1.436200 
# 
# From -- ./inp_files/14035.got.cif
#   From: 2010.05.17/outbox.cif.g08.bks.cpg/sg63_8_cif.got.tgz:14035.got - 2010.06.03 15:47:04.
