data_PCOD9469044
_publ_section_title
;
Structure prediction by ZEFSAII (Michael W. Deem and Ramdas Pophale) SiO2 
 PCOD9469044
Probable space group: C M C M
;
_chemical_formula_sum "Si O2"
_cell_formula_units_Z 72
_cell_length_a 23.367997
_cell_length_b 23.004805
_cell_length_c 9.104640
_cell_angle_alpha 90.000000
_cell_angle_beta 90.000000
_cell_angle_gamma 90.000000
_cell_volume 4894.437903
_symmetry_space_group_name_H-M "C M C M"
_symmetry_group_IT_number 63
_symmetry_cell_setting 'orthorhombic'
loop_
_space_group_symop_operation_xyz
x,y,z
-x,-y,1/2+z
x,-y,-z
-x,y,1/2-z
-x,-y,-z
x,y,1/2-z
-x,y,z
x,-y,1/2+z
1/2+x,1/2+y,z
1/2-x,1/2-y,1/2+z
1/2+x,1/2-y,-z
1/2-x,1/2+y,1/2-z
1/2-x,1/2-y,-z
1/2+x,1/2+y,1/2-z
1/2-x,1/2+y,z
1/2+x,1/2-y,1/2+z
loop_
_atom_site_type_symbol
_atom_site_label
_atom_site_fract_x
_atom_site_fract_y
_atom_site_fract_z
Si Si1 0.710012 0.832168 0.919182
Si Si2 0.000000 0.563033 0.073941
Si Si3 0.903835 0.639896 0.576366
Si Si4 0.322243 0.694468 0.918759
Si Si5 0.935279 0.775918 0.924126
O O1 0.708496 0.851330 0.750000
O O2 0.694592 0.763166 0.920428
O O3 0.660719 0.861882 0.015606
O O4 0.772825 0.837086 0.988881
O O5 0.000000 0.559521 0.250000
O O6 0.000000 0.500000 0.000000
O O7 0.945016 0.598259 0.015045
O O8 0.906532 0.626756 0.750000
O O9 0.925532 0.706481 0.557084
O O10 0.322077 0.675447 0.750000
O O11 0.384924 0.691886 0.989711
O O12 0.929693 0.787244 0.750000
O O13 0.000000 0.790077 0.970624
#
# Coordination Sequence:
#
# PCOD9469044 Si02
#       5
#    16   8  16  16  16
#     4   9  16  26  39  56  75  98 126 159 197 238
#     4  12  24  36  48  62  80 102 132 170 212 254
#     4  10  18  31  46  60  76  98 128 165 206 246
#     4   9  16  24  35  54  76 100 128 162 196 229
#     4   9  16  26  39  55  77 105 133 163 200 240
#
# _framework density 14.710577000000001
#
# number of rings (size 3 to 8) (size 9 to 14) (size 15 to 20)
#    0.000    2.444    1.111    3.000    0.000    6.667 
#    0.000    0.000    0.000    0.000    0.000    0.000 
#    0.000    0.000    0.000    0.000    0.000    1.111 
#
# Total GULP energy -200629.257655 kJ/mol
# GULP energy per Si atom -5573.034935 kJ/mol
# Density = 1.467709 g / cm^3
# Si number density = 14.710577 Si / 1000 Ang^3
#
#
#
# Elastic Constant Matrix: (Units=GPa)
#
#
# Indices 1 2 3 4 5 6 
#
# 1 147.6626 17.6412 69.8841 0.0000 0.0000 0.0000
# 2 17.6412 18.1972 22.2030 0.0000 0.0000 0.0000
# 3 69.8841 22.2030 111.0711 0.0000 0.0000 0.0000
# 4 0.0000 0.0000 0.0000 12.4153 0.0000 0.0000
# 5 0.0000 0.0000 0.0000 0.0000 31.6342 0.0000
# 6 0.0000 0.0000 0.0000 0.0000 0.0000 2.9345
#
#
#
# Elastic Compliance Matrix: (Units=1/GPa)
#
#
# Indices 1 2 3 4 5 6 
#
# 1 0.009736 -0.002598 -0.005606 0.000000 0.000000 0.000000
# 2 -0.002598 0.073374 -0.013033 0.000000 0.000000 0.000000
# 3 -0.005606 -0.013033 0.015136 0.000000 0.000000 0.000000
# 4 0.000000 0.000000 0.000000 0.080546 0.000000 0.000000
# 5 0.000000 0.000000 0.000000 0.000000 0.031611 0.000000
# 6 0.000000 0.000000 0.000000 0.000000 0.000000 0.340775
#
#
# Mechanical properties :
#
#
# Convention : Reuss Voigt Hill
#
# Bulk Modulus (GPa) = 17.93034 55.15417 36.54225
# Shear Modulus (GPa) = 8.16671 20.54364 14.35517
#
# Velocity S-wave (km/s) = 2.35874 3.74106 3.12723
# Velocity P-wave (km/s) = 4.43096 7.49900 6.15907
#
# Compressibility (1/GPa) = 0.05577140
#
# Stress axis : x y z
#
# Youngs Moduli (GPa) = 102.71310 13.62887 66.06823
#
# Poissons Ratio (x) = 0.03541 0.37040
# Poissons Ratio (y) = 0.26684 0.86105
# Poissons Ratio (z) = 0.57584 0.17762
#
# Static dielectric constant tensor:
#      x y z
#    x 1.494680 0.000000 0.000000 
#    y 0.000000 1.450890 0.000000 
#    z 0.000000 0.000000 1.490590 
# 
# From -- ./inp_files/7807.got.cif
#   From: 2010.05.17/outbox.cif.g08.bks.cpg/sg63_4_cif.got.tgz:7807.got - 2010.06.03 15:47:04.
