data_PCOD9469430
_publ_section_title
;
Structure prediction by ZEFSAII (Michael W. Deem and Ramdas Pophale) SiO2 
 PCOD9469430
Probable space group: C M C M
;
_chemical_formula_sum "Si O2"
_cell_formula_units_Z 64
_cell_length_a 25.579360
_cell_length_b 14.986201
_cell_length_c 8.497299
_cell_angle_alpha 90.000000
_cell_angle_beta 90.000000
_cell_angle_gamma 90.000000
_cell_volume 3257.332764
_symmetry_space_group_name_H-M "C M C M"
_symmetry_group_IT_number 63
_symmetry_cell_setting 'orthorhombic'
loop_
_space_group_symop_operation_xyz
x,y,z
-x,-y,1/2+z
x,-y,-z
-x,y,1/2-z
-x,-y,-z
x,y,1/2-z
-x,y,z
x,-y,1/2+z
1/2+x,1/2+y,z
1/2-x,1/2-y,1/2+z
1/2+x,1/2-y,-z
1/2-x,1/2+y,1/2-z
1/2-x,1/2-y,-z
1/2+x,1/2+y,1/2-z
1/2-x,1/2+y,z
1/2+x,1/2-y,1/2+z
loop_
_atom_site_type_symbol
_atom_site_label
_atom_site_fract_x
_atom_site_fract_y
_atom_site_fract_z
Si Si1 0.886161 0.399154 0.440096
Si Si2 0.191161 0.755122 0.939296
Si Si3 0.000000 0.398214 0.439982
Si Si4 0.610622 0.398624 0.437611
Si Si5 0.500000 0.601986 0.062220
O O1 0.879672 0.500000 0.500000
O O2 0.886001 0.401850 0.250000
O O3 0.840799 0.332826 0.491536
O O4 0.943480 0.362998 0.491869
O O5 0.191034 0.758659 0.750000
O O6 0.250000 0.750000 0.000000
O O7 0.158538 0.839018 0.003420
O O8 0.000000 0.500000 0.500000
O O9 0.000000 0.395708 0.250000
O O10 0.615838 0.500000 0.500000
O O11 0.608638 0.400654 0.250000
O O12 0.555129 0.360723 0.501475
O O13 0.500000 0.603792 0.250000
O O14 0.500000 0.500000 0.000000
#
# Coordination Sequence:
#
# PCOD9469430 Si02
#       5
#    16  16   8  16   8
#     4   9  19  35  58  84 113 146 182 225 281 340
#     4  11  24  41  58  82 114 154 201 248 293 344
#     4   8  14  29  52  81 110 138 172 215 267 331
#     4  11  22  39  62  89 119 154 194 242 296 354
#     4  10  18  33  58  89 122 154 188 233 288 353
#
# _framework density 19.647977000000001
#
# number of rings (size 3 to 8) (size 9 to 14) (size 15 to 20)
#    0.000    2.000    0.000    5.625    0.000    4.000 
#    0.000    5.000    0.000    3.000    0.000    0.000 
#    0.000    0.000    0.000    0.000    0.000    0.000 
#
# Total GULP energy -178645.439751 kJ/mol
# GULP energy per Si atom -5582.669992 kJ/mol
# Density = 1.960326 g / cm^3
# Si number density = 19.647977 Si / 1000 Ang^3
#
#
#
# Elastic Constant Matrix: (Units=GPa)
#
#
# Indices 1 2 3 4 5 6 
#
# 1 235.8467 91.6602 62.2592 0.0000 0.0000 0.0000
# 2 91.6602 111.1138 31.9539 0.0000 0.0000 0.0000
# 3 62.2592 31.9539 104.6611 0.0000 0.0000 0.0000
# 4 0.0000 0.0000 0.0000 23.2409 0.0000 0.0000
# 5 0.0000 0.0000 0.0000 0.0000 44.0696 0.0000
# 6 0.0000 0.0000 0.0000 0.0000 0.0000 37.5222
#
#
#
# Elastic Compliance Matrix: (Units=1/GPa)
#
#
# Indices 1 2 3 4 5 6 
#
# 1 0.006815 -0.004885 -0.002563 0.000000 0.000000 0.000000
# 2 -0.004885 0.013367 -0.001175 0.000000 0.000000 0.000000
# 3 -0.002563 -0.001175 0.011438 0.000000 0.000000 0.000000
# 4 0.000000 0.000000 0.000000 0.043028 0.000000 0.000000
# 5 0.000000 0.000000 0.000000 0.000000 0.022691 0.000000
# 6 0.000000 0.000000 0.000000 0.000000 0.000000 0.026651
#
#
# Mechanical properties :
#
#
# Convention : Reuss Voigt Hill
#
# Bulk Modulus (GPa) = 69.56685 91.48535 80.52610
# Shear Modulus (GPa) = 34.24012 38.68308 36.46160
#
# Velocity S-wave (km/s) = 4.17907 4.44194 4.31251
# Velocity P-wave (km/s) = 7.66614 8.54231 8.11606
#
# Compressibility (1/GPa) = 0.01437466
#
# Stress axis : x y z
#
# Youngs Moduli (GPa) = 146.73498 74.80864 87.42870
#
# Poissons Ratio (x) = 0.36543 0.22405
# Poissons Ratio (y) = 0.71679 0.10276
# Poissons Ratio (z) = 0.37602 0.08792
#
# Static dielectric constant tensor:
#      x y z
#    x 1.701930 0.000000 0.000000 
#    y 0.000000 1.678060 0.000000 
#    z 0.000000 0.000000 1.669080 
# 
# From -- ./inp_files/9678.got.cif
#   From: 2010.05.17/outbox.cif.g08.bks.cpg/sg63_5_cif.got.tgz:9678.got - 2010.06.03 15:47:04.
