data_PCOD9469114
_publ_section_title
;
Structure prediction by ZEFSAII (Michael W. Deem and Ramdas Pophale) SiO2 
 PCOD9469114
Probable space group: C M C M
;
_chemical_formula_sum "Si O2"
_cell_formula_units_Z 88
_cell_length_a 12.651456
_cell_length_b 27.954021
_cell_length_c 15.572193
_cell_angle_alpha 90.000000
_cell_angle_beta 90.000000
_cell_angle_gamma 90.000000
_cell_volume 5507.247243
_symmetry_space_group_name_H-M "C M C M"
_symmetry_group_IT_number 63
_symmetry_cell_setting 'orthorhombic'
loop_
_space_group_symop_operation_xyz
x,y,z
-x,-y,1/2+z
x,-y,-z
-x,y,1/2-z
-x,-y,-z
x,y,1/2-z
-x,y,z
x,-y,1/2+z
1/2+x,1/2+y,z
1/2-x,1/2-y,1/2+z
1/2+x,1/2-y,-z
1/2-x,1/2+y,1/2-z
1/2-x,1/2-y,-z
1/2+x,1/2+y,1/2-z
1/2-x,1/2+y,z
1/2+x,1/2-y,1/2+z
loop_
_atom_site_type_symbol
_atom_site_label
_atom_site_fract_x
_atom_site_fract_y
_atom_site_fract_z
Si Si1 0.249868 0.323342 0.750000
Si Si2 0.372347 0.997467 0.900991
Si Si3 0.129084 0.424309 0.750000
Si Si4 0.873762 0.786719 0.913513
Si Si5 0.876741 0.604235 0.849761
Si Si6 0.247492 0.189266 0.914026
Si Si7 0.124974 0.775143 0.250000
O O1 0.188697 0.373624 0.750000
O O2 0.322775 0.314578 0.833310
O O3 0.166305 0.279514 0.750000
O O4 0.500000 0.993722 0.905013
O O5 0.347453 0.048812 0.859606
O O6 0.340952 0.955184 0.835386
O O7 0.334096 0.000000 0.000000
O O8 0.000000 0.418508 0.750000
O O9 0.835402 0.731381 0.909415
O O10 0.000000 0.789762 0.914072
O O11 0.820135 0.806163 0.999983
O O12 0.867479 0.618532 0.750000
O O13 0.805154 0.638864 0.905454
O O14 0.000000 0.608811 0.874683
O O15 0.172005 0.199205 0.833482
O O16 0.000000 0.776176 0.250000
#
# Coordination Sequence:
#
# PCOD9469114 Si02
#       7
#     8  16   8  16  16  16   8
#     4  10  22  34  52  76  98 142 182 206 252 302
#     4   9  18  31  49  73 104 137 163 200 257 309
#     4  10  19  34  50  75 109 134 166 211 255 309
#     4  10  21  37  52  73 105 137 175 217 249 296
#     4  10  18  31  51  78 109 136 165 205 252 309
#     4  10  20  33  53  79 103 135 173 205 256 310
#     4  10  19  34  50  73 107 136 168 211 253 297
#
# _framework density 15.978945
#
# number of rings (size 3 to 8) (size 9 to 14) (size 15 to 20)
#    0.000    2.182    1.818    1.636    2.545    0.000 
#    0.000    1.818    0.000    0.000    0.000    8.909 
#    0.000    0.000    0.000    0.000    0.000    0.000 
#
# Total GULP energy -245304.347426 kJ/mol
# GULP energy per Si atom -5575.098805 kJ/mol
# Density = 1.594258 g / cm^3
# Si number density = 15.978945 Si / 1000 Ang^3
#
#
#
# Elastic Constant Matrix: (Units=GPa)
#
#
# Indices 1 2 3 4 5 6 
#
# 1 95.6133 48.9448 41.7435 0.0000 0.0000 0.0000
# 2 48.9448 83.1428 39.0402 0.0000 0.0000 0.0000
# 3 41.7435 39.0402 118.4690 0.0000 0.0000 0.0000
# 4 0.0000 0.0000 0.0000 6.6630 0.0000 0.0000
# 5 0.0000 0.0000 0.0000 0.0000 1.0027 0.0000
# 6 0.0000 0.0000 0.0000 0.0000 0.0000 21.9326
#
#
#
# Elastic Compliance Matrix: (Units=1/GPa)
#
#
# Indices 1 2 3 4 5 6 
#
# 1 0.015801 -0.007912 -0.002960 0.000000 0.000000 0.000000
# 2 -0.007912 0.018191 -0.003207 0.000000 0.000000 0.000000
# 3 -0.002960 -0.003207 0.010541 0.000000 0.000000 0.000000
# 4 0.000000 0.000000 0.000000 0.150083 0.000000 0.000000
# 5 0.000000 0.000000 0.000000 0.000000 0.997340 0.000000
# 6 0.000000 0.000000 0.000000 0.000000 0.000000 0.045594
#
#
# Mechanical properties :
#
#
# Convention : Reuss Voigt Hill
#
# Bulk Modulus (GPa) = 61.06913 61.85357 61.46135
# Shear Modulus (GPa) = 3.93339 17.08608 10.50974
#
# Velocity S-wave (km/s) = 1.57065 3.27354 2.56740
# Velocity P-wave (km/s) = 6.44909 7.28571 6.88013
#
# Compressibility (1/GPa) = 0.01637489
#
# Stress axis : x y z
#
# Youngs Moduli (GPa) = 63.28532 54.97250 94.86823
#
# Poissons Ratio (x) = 0.43494 0.28085
# Poissons Ratio (y) = 0.50071 0.30422
# Poissons Ratio (z) = 0.18735 0.17629
#
# Static dielectric constant tensor:
#      x y z
#    x 1.492780 0.000000 0.000000 
#    y 0.000000 1.522020 0.000000 
#    z 0.000000 0.000000 1.561720 
# 
# From -- ./inp_files/30179.got.cif
#   From: 2010.05.17/outbox.cif.g08.bks.cpg/sg63_16_cif.got.tgz:30179.got - 2010.06.03 15:47:04.
