data_PCOD9469860
_publ_section_title
;
Structure prediction by ZEFSAII (Michael W. Deem and Ramdas Pophale) SiO2 
 PCOD9469860
Probable space group: C M C M
;
_chemical_formula_sum "Si O2"
_cell_formula_units_Z 48
_cell_length_a 5.423221
_cell_length_b 23.090480
_cell_length_c 18.510125
_cell_angle_alpha 90.000000
_cell_angle_beta 90.000000
_cell_angle_gamma 90.000000
_cell_volume 2317.926258
_symmetry_space_group_name_H-M "C M C M"
_symmetry_group_IT_number 63
_symmetry_cell_setting 'orthorhombic'
loop_
_space_group_symop_operation_xyz
x,y,z
-x,-y,1/2+z
x,-y,-z
-x,y,1/2-z
-x,-y,-z
x,y,1/2-z
-x,y,z
x,-y,1/2+z
1/2+x,1/2+y,z
1/2-x,1/2-y,1/2+z
1/2+x,1/2-y,-z
1/2-x,1/2+y,1/2-z
1/2-x,1/2-y,-z
1/2+x,1/2+y,1/2-z
1/2-x,1/2+y,z
1/2+x,1/2-y,1/2+z
loop_
_atom_site_type_symbol
_atom_site_label
_atom_site_fract_x
_atom_site_fract_y
_atom_site_fract_z
Si Si1 0.000000 0.210762 0.089282
Si Si2 0.000000 0.918397 0.556227
Si Si3 0.000000 0.259421 0.569550
Si Si4 0.500000 0.882540 0.011915
Si Si5 0.500000 0.520987 0.669733
Si Si6 0.500000 0.097345 0.670188
O O1 0.000000 0.142178 0.101695
O O2 0.751548 0.242150 0.113083
O O3 0.000000 0.217560 0.000162
O O4 0.250386 0.916196 0.509342
O O5 0.000000 0.972854 0.608350
O O6 0.000000 0.323793 0.534508
O O7 0.500000 0.867307 0.096096
O O8 0.500000 0.493669 0.750000
O O9 0.749927 0.558903 0.665702
O O10 0.500000 0.125240 0.750000
#
# Coordination Sequence:
#
# PCOD9469860 Si02
#       6
#     8   8   8   8   8   8
#     4   8  14  25  41  63  90 115 140 175 220 265
#     4  10  19  30  48  72  92 115 151 191 224 257
#     4   8  14  25  41  63  90 115 140 175 220 265
#     4  10  19  30  48  72  92 115 151 191 224 257
#     4  10  21  35  48  64  91 125 153 181 226 276
#     4  10  21  35  48  64  91 125 153 181 226 276
#
# _framework density 20.708165999999999
#
# number of rings (size 3 to 8) (size 9 to 14) (size 15 to 20)
#    0.000    2.667    0.000    2.000    0.000    4.000 
#    0.000    0.000    0.000    1.000    0.000    0.000 
#    0.000   34.667    0.000    0.000    0.000    5.333 
#
# Total GULP energy -133823.750236 kJ/mol
# GULP energy per Si atom -5575.989593 kJ/mol
# Density = 2.066103 g / cm^3
# Si number density = 20.708166 Si / 1000 Ang^3
#
#
#
# Elastic Constant Matrix: (Units=GPa)
#
#
# Indices 1 2 3 4 5 6 
#
# 1 204.6130 15.2382 19.6933 0.0000 0.0000 0.0000
# 2 15.2382 29.8350 13.8625 0.0000 0.0000 0.0000
# 3 19.6933 13.8625 77.9031 0.0000 0.0000 0.0000
# 4 0.0000 0.0000 0.0000 0.3727 0.0000 0.0000
# 5 0.0000 0.0000 0.0000 0.0000 22.3640 0.0000
# 6 0.0000 0.0000 0.0000 0.0000 0.0000 -2.7525
#
#
#
# Elastic Compliance Matrix: (Units=1/GPa)
#
#
# Indices 1 2 3 4 5 6 
#
# 1 0.005139 -0.002203 -0.000907 0.000000 0.000000 0.000000
# 2 -0.002203 0.037483 -0.006113 0.000000 0.000000 0.000000
# 3 -0.000907 -0.006113 0.014154 0.000000 0.000000 0.000000
# 4 0.000000 0.000000 0.000000 2.682832 0.000000 0.000000
# 5 0.000000 0.000000 0.000000 0.000000 0.044715 0.000000
# 6 0.000000 0.000000 0.000000 0.000000 0.000000 -0.363301
#
#
# Mechanical properties :
#
#
# Convention : Reuss Voigt Hill
#
# Bulk Modulus (GPa) = 26.08979 45.54879 35.81929
# Shear Modulus (GPa) = 2.03895 21.56731 11.80313
#
# Velocity S-wave (km/s) = 0.99335 3.23071 2.39000
# Velocity P-wave (km/s) = 3.73387 5.99666 4.99509
#
# Compressibility (1/GPa) = 0.03832917
#
# Stress axis : x y z
#
# Youngs Moduli (GPa) = 194.60394 26.67850 70.65375
#
# Poissons Ratio (x) = 0.05878 0.06408
# Poissons Ratio (y) = 0.42874 0.43191
# Poissons Ratio (z) = 0.17650 0.16309
#
# Static dielectric constant tensor:
#      x y z
#    x 1.874380 0.000000 0.000000 
#    y 0.000000 1.748180 0.000000 
#    z 0.000000 0.000000 1.707280 
# 
# From -- ./inp_files/551.got.cif
#   From: 2010.05.17/outbox.cif.g08.bks.cpg/sg63_1_cif.got.tgz:551.got - 2010.06.03 15:47:04.
