data_PCOD9469059
_publ_section_title
;
Structure prediction by ZEFSAII (Michael W. Deem and Ramdas Pophale) SiO2 
 PCOD9469059
Probable space group: C M C M
;
_chemical_formula_sum "Si O2"
_cell_formula_units_Z 116
_cell_length_a 28.181319
_cell_length_b 26.716020
_cell_length_c 7.643646
_cell_angle_alpha 90.000000
_cell_angle_beta 90.000000
_cell_angle_gamma 90.000000
_cell_volume 5754.845137
_symmetry_space_group_name_H-M "C M C M"
_symmetry_group_IT_number 63
_symmetry_cell_setting 'orthorhombic'
loop_
_space_group_symop_operation_xyz
x,y,z
-x,-y,1/2+z
x,-y,-z
-x,y,1/2-z
-x,-y,-z
x,y,1/2-z
-x,y,z
x,-y,1/2+z
1/2+x,1/2+y,z
1/2-x,1/2-y,1/2+z
1/2+x,1/2-y,-z
1/2-x,1/2+y,1/2-z
1/2-x,1/2-y,-z
1/2+x,1/2+y,1/2-z
1/2-x,1/2+y,z
1/2+x,1/2-y,1/2+z
loop_
_atom_site_type_symbol
_atom_site_label
_atom_site_fract_x
_atom_site_fract_y
_atom_site_fract_z
Si Si1 0.500000 0.540121 0.250000
Si Si2 0.318378 0.277777 0.540315
Si Si3 0.675951 0.443311 0.958751
Si Si4 0.078974 0.818201 0.544224
Si Si5 0.432021 0.426644 0.439439
Si Si6 0.252046 0.860958 0.964638
Si Si7 0.948288 0.294952 0.539190
Si Si8 0.349775 0.168645 0.049699
O O1 0.459141 0.548032 0.403414
O O2 0.316057 0.269290 0.750000
O O3 0.364809 0.312146 0.509566
O O4 0.272909 0.308869 0.481349
O O5 0.328964 0.225227 0.451004
O O6 0.670362 0.436419 0.750000
O O7 0.716816 0.405140 0.018334
O O8 0.689981 0.500000 0.000000
O O9 0.624413 0.433969 0.041072
O O10 0.072221 0.827150 0.750000
O O11 0.059348 0.866828 0.450103
O O12 0.057639 0.764089 0.500193
O O13 0.447837 0.445657 0.250000
O O14 0.253102 0.860496 0.750000
O O15 0.306344 0.863091 0.027572
O O16 0.947226 0.299365 0.750000
O O17 0.902078 0.324298 0.469232
O O18 0.000000 0.311577 0.475939
O O19 0.356352 0.151917 0.250000
#
# Coordination Sequence:
#
# PCOD9469059 Si02
#       8
#     4  16  16  16  16  16  16  16
#     4  12  26  44  62  86 114 144 176 248 282 336
#     4   9  16  28  46  68 101 140 169 214 272 319
#     4  11  22  42  64  84 108 136 174 227 286 351
#     4  10  18  31  48  72 104 141 185 232 275 321
#     4  12  24  41  63  85 109 144 186 230 287 343
#     4   9  17  31  53  75 103 136 169 218 278 336
#     4   9  18  29  42  66 103 146 190 234 269 319
#     4   9  17  29  45  71 102 140 181 218 266 325
#
# _framework density 20.156929999999999
#
# number of rings (size 3 to 8) (size 9 to 14) (size 15 to 20)
#    0.000    2.069    2.759    1.448    0.966    0.828 
#    0.000    1.724    0.000    0.000    0.000    0.000 
#    0.000    0.552    0.000    0.414    0.000    0.828 
#
# Total GULP energy -323609.915945 kJ/mol
# GULP energy per Si atom -5579.481309 kJ/mol
# Density = 2.011105 g / cm^3
# Si number density = 20.156930 Si / 1000 Ang^3
#
#
#
# Elastic Constant Matrix: (Units=GPa)
#
#
# Indices 1 2 3 4 5 6 
#
# 1 181.9278 36.5765 24.0710 0.0000 0.0000 0.0000
# 2 36.5765 43.6405 8.9806 0.0000 0.0000 0.0000
# 3 24.0710 8.9806 86.1851 0.0000 0.0000 0.0000
# 4 0.0000 0.0000 0.0000 9.6715 0.0000 0.0000
# 5 0.0000 0.0000 0.0000 0.0000 32.8714 0.0000
# 6 0.0000 0.0000 0.0000 0.0000 0.0000 -30.3287
#
#
#
# Elastic Compliance Matrix: (Units=1/GPa)
#
#
# Indices 1 2 3 4 5 6 
#
# 1 0.006756 -0.005389 -0.001325 0.000000 0.000000 0.000000
# 2 -0.005389 0.027716 -0.001383 0.000000 0.000000 0.000000
# 3 -0.001325 -0.001383 0.012117 0.000000 0.000000 0.000000
# 4 0.000000 0.000000 0.000000 0.103397 0.000000 0.000000
# 5 0.000000 0.000000 0.000000 0.000000 0.030422 0.000000
# 6 0.000000 0.000000 0.000000 0.000000 0.000000 -0.032972
#
#
# Mechanical properties :
#
#
# Convention : Reuss Voigt Hill
#
# Bulk Modulus (GPa) = 32.90124 50.11217 41.50670
# Shear Modulus (GPa) = 28.77516 18.58453 23.67984
#
# Velocity S-wave (km/s) = 3.78240 3.03973 3.43122
# Velocity P-wave (km/s) = 5.95260 6.10204 6.02778
#
# Compressibility (1/GPa) = 0.03039399
#
# Stress axis : x y z
#
# Youngs Moduli (GPa) = 148.02650 36.08016 82.52769
#
# Poissons Ratio (x) = 0.19445 0.10937
# Poissons Ratio (y) = 0.79776 0.11412
# Poissons Ratio (z) = 0.19617 0.04989
#
# Static dielectric constant tensor:
#      x y z
#    x 1.769910 0.000000 0.000000 
#    y 0.000000 1.708740 0.000000 
#    z 0.000000 0.000000 1.734860 
# 
# From -- ./inp_files/13383.got.cif
#   From: 2010.05.17/outbox.cif.g08.bks.cpg/sg63_7_cif.got.tgz:13383.got - 2010.06.03 15:47:04.
