data_PCOD9469961
_publ_section_title
;
Structure prediction by ZEFSAII (Michael W. Deem and Ramdas Pophale) SiO2 
 PCOD9469961
Probable space group: C M C M
;
_chemical_formula_sum "Si O2"
_cell_formula_units_Z 96
_cell_length_a 21.633519
_cell_length_b 21.283828
_cell_length_c 9.423117
_cell_angle_alpha 90.000000
_cell_angle_beta 90.000000
_cell_angle_gamma 90.000000
_cell_volume 4338.818602
_symmetry_space_group_name_H-M "C M C M"
_symmetry_group_IT_number 63
_symmetry_cell_setting 'orthorhombic'
loop_
_space_group_symop_operation_xyz
x,y,z
-x,-y,1/2+z
x,-y,-z
-x,y,1/2-z
-x,-y,-z
x,y,1/2-z
-x,y,z
x,-y,1/2+z
1/2+x,1/2+y,z
1/2-x,1/2-y,1/2+z
1/2+x,1/2-y,-z
1/2-x,1/2+y,1/2-z
1/2-x,1/2-y,-z
1/2+x,1/2+y,1/2-z
1/2-x,1/2+y,z
1/2+x,1/2-y,1/2+z
loop_
_atom_site_type_symbol
_atom_site_label
_atom_site_fract_x
_atom_site_fract_y
_atom_site_fract_z
Si Si1 0.924484 0.939126 0.410347
Si Si2 0.743401 0.185420 0.587689
Si Si3 0.903825 0.680292 0.589071
Si Si4 0.596046 0.938791 0.588012
Si Si5 0.747105 0.062622 0.086033
Si Si6 0.926374 0.179497 0.410151
O O1 0.901555 0.942452 0.250000
O O2 0.904656 0.875856 0.489051
O O3 0.000000 0.938826 0.404997
O O4 0.906970 0.000000 0.500000
O O5 0.767964 0.189582 0.750000
O O6 0.750000 0.250000 0.500000
O O7 0.669949 0.174596 0.599703
O O8 0.766385 0.125569 0.497757
O O9 0.928721 0.676207 0.750000
O O10 0.925574 0.624298 0.489849
O O11 0.916143 0.750367 0.533812
O O12 0.575559 0.942108 0.750000
O O13 0.671576 0.937588 0.589788
O O14 0.577563 0.000000 0.500000
O O15 0.768201 0.062057 0.250000
O O16 0.764999 0.000000 0.000000
O O17 0.899803 0.175936 0.250000
O O18 0.000000 0.171083 0.397780
#
# Coordination Sequence:
#
# PCOD9469961 Si02
#       6
#    16  16  16  16  16  16
#     4   9  16  26  42  65  91 118 150 188 226 264
#     4  10  19  31  47  68  94 123 154 188 227 270
#     4   9  18  31  47  68  94 122 151 186 227 270
#     4   9  16  26  43  66  91 118 150 189 228 267
#     4   9  16  27  44  67  92 118 150 188 229 270
#     4   9  17  30  48  69  93 121 151 184 225 271
#
# _framework density 22.125837000000001
#
# number of rings (size 3 to 8) (size 9 to 14) (size 15 to 20)
#    0.000    2.833    0.000    2.000    0.000    7.333 
#    0.000    0.000    0.000    1.500    0.000    4.667 
#    0.000    0.000    0.000    0.000    0.000    0.000 
#
# Total GULP energy -268199.252686 kJ/mol
# GULP energy per Si atom -5587.484431 kJ/mol
# Density = 2.207548 g / cm^3
# Si number density = 22.125837 Si / 1000 Ang^3
#
#
#
# Elastic Constant Matrix: (Units=GPa)
#
#
# Indices 1 2 3 4 5 6 
#
# 1 67.7283 -2.3711 7.4605 0.0000 0.0000 0.0000
# 2 -2.3711 266.6788 170.1512 0.0000 0.0000 0.0000
# 3 7.4605 170.1512 213.7009 0.0000 0.0000 0.0000
# 4 0.0000 0.0000 0.0000 32.3035 0.0000 0.0000
# 5 0.0000 0.0000 0.0000 0.0000 15.5770 0.0000
# 6 0.0000 0.0000 0.0000 0.0000 0.0000 17.2470
#
#
#
# Elastic Compliance Matrix: (Units=1/GPa)
#
#
# Indices 1 2 3 4 5 6 
#
# 1 0.014938 0.000946 -0.001275 0.000000 0.000000 0.000000
# 2 0.000946 0.007682 -0.006149 0.000000 0.000000 0.000000
# 3 -0.001275 -0.006149 0.009620 0.000000 0.000000 0.000000
# 4 0.000000 0.000000 0.000000 0.030956 0.000000 0.000000
# 5 0.000000 0.000000 0.000000 0.000000 0.064197 0.000000
# 6 0.000000 0.000000 0.000000 0.000000 0.000000 0.057981
#
#
# Mechanical properties :
#
#
# Convention : Reuss Voigt Hill
#
# Bulk Modulus (GPa) = 51.85563 99.84323 75.84943
# Shear Modulus (GPa) = 24.41894 37.88333 31.15113
#
# Velocity S-wave (km/s) = 3.32571 4.14233 3.75628
# Velocity P-wave (km/s) = 6.18342 8.25238 7.29165
#
# Compressibility (1/GPa) = 0.01928431
#
# Stress axis : x y z
#
# Youngs Moduli (GPa) = 66.94135 130.17857 103.94875
#
# Poissons Ratio (x) = -0.12319 0.13253
# Poissons Ratio (y) = -0.06335 0.63922
# Poissons Ratio (z) = 0.08535 0.80051
#
# Static dielectric constant tensor:
#      x y z
#    x 1.884110 0.000000 0.000000 
#    y 0.000000 1.761650 0.000000 
#    z 0.000000 0.000000 1.759620 
# 
# From -- ./inp_files/12327.got.cif
#   From: 2010.05.17/outbox.cif.g08.bks.cpg/sg63_7_cif.got.tgz:12327.got - 2010.06.03 15:47:04.
