data_PCOD9469906
_publ_section_title
;
Structure prediction by ZEFSAII (Michael W. Deem and Ramdas Pophale) SiO2 
 PCOD9469906
Probable space group: C M C M
;
_chemical_formula_sum "Si O2"
_cell_formula_units_Z 80
_cell_length_a 11.544751
_cell_length_b 22.847537
_cell_length_c 17.519236
_cell_angle_alpha 90.000000
_cell_angle_beta 90.000000
_cell_angle_gamma 90.000000
_cell_volume 4621.033561
_symmetry_space_group_name_H-M "C M C M"
_symmetry_group_IT_number 63
_symmetry_cell_setting 'orthorhombic'
loop_
_space_group_symop_operation_xyz
x,y,z
-x,-y,1/2+z
x,-y,-z
-x,y,1/2-z
-x,-y,-z
x,y,1/2-z
-x,y,z
x,-y,1/2+z
1/2+x,1/2+y,z
1/2-x,1/2-y,1/2+z
1/2+x,1/2-y,-z
1/2-x,1/2+y,1/2-z
1/2-x,1/2-y,-z
1/2+x,1/2+y,1/2-z
1/2-x,1/2+y,z
1/2+x,1/2-y,1/2+z
loop_
_atom_site_type_symbol
_atom_site_label
_atom_site_fract_x
_atom_site_fract_y
_atom_site_fract_z
Si Si1 0.134130 0.224481 0.091835
Si Si2 0.638850 0.933435 0.525076
Si Si3 0.219618 0.632130 0.338234
Si Si4 0.000000 0.155515 0.658271
Si Si5 0.500000 0.207230 0.341368
Si Si6 0.720091 0.663695 0.935552
O O1 0.169296 0.172926 0.149976
O O2 0.209110 0.283302 0.103874
O O3 0.000000 0.239252 0.095234
O O4 0.163213 0.195450 0.009527
O O5 0.500000 0.924573 0.532975
O O6 0.705505 0.921679 0.604842
O O7 0.693871 0.886337 0.466731
O O8 0.657041 0.000000 0.500000
O O9 0.203780 0.616876 0.250000
O O10 0.114963 0.674502 0.366891
O O11 0.880829 0.136576 0.617440
O O12 0.000000 0.146636 0.750000
O O13 0.000000 0.225175 0.640596
O O14 0.500000 0.203337 0.250000
#
# Coordination Sequence:
#
# PCOD9469906 Si02
#       6
#    16  16  16   8   8  16
#     4  10  19  30  51  81 113 140 168 214 276 334
#     4  10  21  37  57  80 107 143 187 230 269 318
#     4  10  19  32  54  81 109 141 178 223 273 323
#     4  11  20  34  55  78 109 147 184 220 269 332
#     4   9  16  28  49  80 106 131 172 220 265 314
#     4  10  20  33  52  79 109 141 179 219 266 324
#
# _framework density 17.312144
#
# number of rings (size 3 to 8) (size 9 to 14) (size 15 to 20)
#    0.000    2.000    4.000    0.600    0.000    0.400 
#    0.000    1.500    0.000    3.000    0.000    0.000 
#    0.000    0.000    0.000    0.000    0.000    0.000 
#
# Total GULP energy -222910.180434 kJ/mol
# GULP energy per Si atom -5572.754511 kJ/mol
# Density = 1.727274 g / cm^3
# Si number density = 17.312144 Si / 1000 Ang^3
#
#
#
# Elastic Constant Matrix: (Units=GPa)
#
#
# Indices 1 2 3 4 5 6 
#
# 1 87.1764 30.5721 23.6469 0.0000 0.0000 0.0000
# 2 30.5721 78.8326 41.0671 0.0000 0.0000 0.0000
# 3 23.6469 41.0671 79.6839 0.0000 0.0000 0.0000
# 4 0.0000 0.0000 0.0000 17.0812 0.0000 0.0000
# 5 0.0000 0.0000 0.0000 0.0000 22.1491 0.0000
# 6 0.0000 0.0000 0.0000 0.0000 0.0000 23.3675
#
#
#
# Elastic Compliance Matrix: (Units=1/GPa)
#
#
# Indices 1 2 3 4 5 6 
#
# 1 0.013459 -0.004291 -0.001783 0.000000 0.000000 0.000000
# 2 -0.004291 0.018709 -0.008369 0.000000 0.000000 0.000000
# 3 -0.001783 -0.008369 0.017392 0.000000 0.000000 0.000000
# 4 0.000000 0.000000 0.000000 0.058544 0.000000 0.000000
# 5 0.000000 0.000000 0.000000 0.000000 0.045149 0.000000
# 6 0.000000 0.000000 0.000000 0.000000 0.000000 0.042794
#
#
# Mechanical properties :
#
#
# Convention : Reuss Voigt Hill
#
# Bulk Modulus (GPa) = 48.36749 48.47391 48.42070
# Shear Modulus (GPa) = 21.56817 22.54668 22.05743
#
# Velocity S-wave (km/s) = 3.53348 3.61274 3.57333
# Velocity P-wave (km/s) = 6.68180 6.74264 6.71229
#
# Compressibility (1/GPa) = 0.02067504
#
# Stress axis : x y z
#
# Youngs Moduli (GPa) = 74.29756 53.45091 57.49902
#
# Poissons Ratio (x) = 0.22936 0.10250
# Poissons Ratio (y) = 0.31881 0.48119
# Poissons Ratio (z) = 0.13245 0.44731
#
# Static dielectric constant tensor:
#      x y z
#    x 1.628560 0.000000 0.000000 
#    y 0.000000 1.566260 0.000000 
#    z 0.000000 0.000000 1.604920 
# 
# From -- ./inp_files/42190.got.cif
#   From: 2010.05.17/outbox.cif.g08.bks.cpg/sg63_22_cif.got.tgz:42190.got - 2010.06.03 15:47:04.
