data_PCOD9469473
_publ_section_title
;
Structure prediction by ZEFSAII (Michael W. Deem and Ramdas Pophale) SiO2 
 PCOD9469473
Probable space group: C M C M
;
_chemical_formula_sum "Si O2"
_cell_formula_units_Z 96
_cell_length_a 7.856371
_cell_length_b 25.787160
_cell_length_c 24.537242
_cell_angle_alpha 90.000000
_cell_angle_beta 90.000000
_cell_angle_gamma 90.000000
_cell_volume 4971.085639
_symmetry_space_group_name_H-M "C M C M"
_symmetry_group_IT_number 63
_symmetry_cell_setting 'orthorhombic'
loop_
_space_group_symop_operation_xyz
x,y,z
-x,-y,1/2+z
x,-y,-z
-x,y,1/2-z
-x,-y,-z
x,y,1/2-z
-x,y,z
x,-y,1/2+z
1/2+x,1/2+y,z
1/2-x,1/2-y,1/2+z
1/2+x,1/2-y,-z
1/2-x,1/2+y,1/2-z
1/2-x,1/2-y,-z
1/2+x,1/2+y,1/2-z
1/2-x,1/2+y,z
1/2+x,1/2-y,1/2+z
loop_
_atom_site_type_symbol
_atom_site_label
_atom_site_fract_x
_atom_site_fract_y
_atom_site_fract_z
Si Si1 0.791985 0.417951 0.938890
Si Si2 0.802445 0.138125 0.250000
Si Si3 0.203575 0.607948 0.559705
Si Si4 0.202953 0.772524 0.059274
Si Si5 0.205843 0.680166 0.134057
Si Si6 0.708872 0.984007 0.132991
Si Si7 0.800658 0.520086 0.250000
O O1 0.738715 0.368498 0.903070
O O2 0.739943 0.470388 0.908646
O O3 0.000000 0.417859 0.939935
O O4 0.731549 0.411327 0.000761
O O5 0.760279 0.169894 0.195642
O O6 0.709519 0.082539 0.250000
O O7 0.000000 0.125187 0.250000
O O8 0.237875 0.668662 0.565937
O O9 0.265324 0.570742 0.608056
O O10 0.000000 0.601546 0.557980
O O11 0.267640 0.732816 0.105444
O O12 0.000000 0.772683 0.062382
O O13 0.250000 0.750000 0.000000
O O14 0.000000 0.680481 0.133251
O O15 0.500000 0.984897 0.134615
O O16 0.771223 0.997769 0.193529
O O17 0.000000 0.506252 0.250000
#
# Coordination Sequence:
#
# PCOD9469473 Si02
#       7
#    16   8  16  16  16  16   8
#     4   9  15  28  53  82 107 139 182 226 268 318
#     4  12  24  36  55  86 115 141 176 232 292 327
#     4  10  19  33  53  82 114 146 185 230 276 323
#     4  11  22  37  58  83 111 147 188 228 276 332
#     4  10  20  37  59  80 106 147 190 224 268 333
#     4   9  17  29  53  82 109 142 188 232 264 317
#     4  10  18  34  57  80 107 149 192 224 268 331
#
# _framework density 19.311677
#
# number of rings (size 3 to 8) (size 9 to 14) (size 15 to 20)
#    0.000    2.000    3.333    1.750    0.000    3.333 
#    0.000    1.667    0.000    2.000    0.000    0.000 
#    0.000    0.000    0.000    0.000    0.000    0.000 
#
# Total GULP energy -267987.293457 kJ/mol
# GULP energy per Si atom -5583.068614 kJ/mol
# Density = 1.926772 g / cm^3
# Si number density = 19.311677 Si / 1000 Ang^3
#
#
#
# Elastic Constant Matrix: (Units=GPa)
#
#
# Indices 1 2 3 4 5 6 
#
# 1 17.2553 -4.0228 3.8490 0.0000 0.0000 0.0000
# 2 -4.0228 165.4402 103.8497 0.0000 0.0000 0.0000
# 3 3.8490 103.8497 175.3203 0.0000 0.0000 0.0000
# 4 0.0000 0.0000 0.0000 36.4311 0.0000 0.0000
# 5 0.0000 0.0000 0.0000 0.0000 6.0661 0.0000
# 6 0.0000 0.0000 0.0000 0.0000 0.0000 20.8320
#
#
#
# Elastic Compliance Matrix: (Units=1/GPa)
#
#
# Indices 1 2 3 4 5 6 
#
# 1 0.059564 0.003612 -0.003447 0.000000 0.000000 0.000000
# 2 0.003612 0.009841 -0.005909 0.000000 0.000000 0.000000
# 3 -0.003447 -0.005909 0.009280 0.000000 0.000000 0.000000
# 4 0.000000 0.000000 0.000000 0.027449 0.000000 0.000000
# 5 0.000000 0.000000 0.000000 0.000000 0.164849 0.000000
# 6 0.000000 0.000000 0.000000 0.000000 0.000000 0.048003
#
#
# Mechanical properties :
#
#
# Convention : Reuss Voigt Hill
#
# Bulk Modulus (GPa) = 14.88147 62.81864 38.85005
# Shear Modulus (GPa) = 14.16937 29.62183 21.89560
#
# Velocity S-wave (km/s) = 2.71167 3.92073 3.37085
# Velocity P-wave (km/s) = 4.18651 7.28667 5.94233
#
# Compressibility (1/GPa) = 0.06719768
#
# Stress axis : x y z
#
# Youngs Moduli (GPa) = 16.78853 101.61207 107.76393
#
# Poissons Ratio (x) = -0.36706 0.37151
# Poissons Ratio (y) = -0.06065 0.63675
# Poissons Ratio (z) = 0.05788 0.60040
#
# Static dielectric constant tensor:
#      x y z
#    x 1.718300 0.000000 0.000000 
#    y 0.000000 1.629510 0.000000 
#    z 0.000000 0.000000 1.666520 
# 
# From -- ./inp_files/60055.got.cif
#   From: 2010.05.17/outbox.cif.g08.bks.cpg/sg63_31_cif.got.tgz:60055.got - 2010.06.03 15:47:04.
