data_PCOD9469135
_publ_section_title
;
Structure prediction by ZEFSAII (Michael W. Deem and Ramdas Pophale) SiO2 
 PCOD9469135
Probable space group: C M C M
;
_chemical_formula_sum "Si O2"
_cell_formula_units_Z 80
_cell_length_a 18.191279
_cell_length_b 28.955220
_cell_length_c 8.587478
_cell_angle_alpha 90.000000
_cell_angle_beta 90.000000
_cell_angle_gamma 90.000000
_cell_volume 4523.303631
_symmetry_space_group_name_H-M "C M C M"
_symmetry_group_IT_number 63
_symmetry_cell_setting 'orthorhombic'
loop_
_space_group_symop_operation_xyz
x,y,z
-x,-y,1/2+z
x,-y,-z
-x,y,1/2-z
-x,-y,-z
x,y,1/2-z
-x,y,z
x,-y,1/2+z
1/2+x,1/2+y,z
1/2-x,1/2-y,1/2+z
1/2+x,1/2-y,-z
1/2-x,1/2+y,1/2-z
1/2-x,1/2-y,-z
1/2+x,1/2+y,1/2-z
1/2-x,1/2+y,z
1/2+x,1/2-y,1/2+z
loop_
_atom_site_type_symbol
_atom_site_label
_atom_site_fract_x
_atom_site_fract_y
_atom_site_fract_z
Si Si1 0.085201 0.285325 0.063609
Si Si2 0.704478 0.142704 0.435389
Si Si3 0.742427 0.448024 0.437354
Si Si4 0.078318 0.052303 0.937984
Si Si5 0.189364 0.214110 0.935898
O O1 0.093799 0.284892 0.250000
O O2 0.000000 0.292585 0.024533
O O3 0.137177 0.325820 0.996645
O O4 0.114263 0.236279 0.997893
O O5 0.705239 0.144540 0.250000
O O6 0.702946 0.090339 0.495618
O O7 0.779307 0.166164 0.500887
O O8 0.753989 0.500000 0.500000
O O9 0.746027 0.448638 0.250000
O O10 0.659505 0.432202 0.486845
O O11 0.078774 0.052225 0.750000
O O12 0.000000 0.074643 0.987370
O O13 0.075498 0.000000 0.000000
O O14 0.189243 0.213514 0.750000
O O15 0.250000 0.250000 0.000000
#
# Coordination Sequence:
#
# PCOD9469135 Si02
#       5
#    16  16  16  16  16
#     4  10  20  35  56  81 108 136 168 210 261 317
#     4  11  21  34  53  76 105 140 178 217 259 309
#     4  10  19  32  50  73 102 137 180 225 267 312
#     4   8  14  25  42  63  87 117 154 198 246 293
#     4  10  18  31  52  76 103 133 166 205 251 305
#
# _framework density 17.686188999999999
#
# number of rings (size 3 to 8) (size 9 to 14) (size 15 to 20)
#    0.000    2.200    0.000    7.200    0.000    2.400 
#    0.000    1.000    0.000    4.200    0.000    0.000 
#    0.000    0.000    0.000    0.000    0.000    0.000 
#
# Total GULP energy -222779.516660 kJ/mol
# GULP energy per Si atom -5569.487916 kJ/mol
# Density = 1.764593 g / cm^3
# Si number density = 17.686189 Si / 1000 Ang^3
#
#
#
# Elastic Constant Matrix: (Units=GPa)
#
#
# Indices 1 2 3 4 5 6 
#
# 1 96.7235 51.0685 48.5976 0.0000 0.0000 0.0000
# 2 51.0685 106.2226 42.3183 0.0000 0.0000 0.0000
# 3 48.5976 42.3183 103.3137 0.0000 0.0000 0.0000
# 4 0.0000 0.0000 0.0000 22.8642 0.0000 0.0000
# 5 0.0000 0.0000 0.0000 0.0000 21.5004 0.0000
# 6 0.0000 0.0000 0.0000 0.0000 0.0000 21.4106
#
#
#
# Elastic Compliance Matrix: (Units=1/GPa)
#
#
# Indices 1 2 3 4 5 6 
#
# 1 0.015888 -0.005570 -0.005192 0.000000 0.000000 0.000000
# 2 -0.005570 0.013203 -0.002788 0.000000 0.000000 0.000000
# 3 -0.005192 -0.002788 0.013264 0.000000 0.000000 0.000000
# 4 0.000000 0.000000 0.000000 0.043736 0.000000 0.000000
# 5 0.000000 0.000000 0.000000 0.000000 0.046511 0.000000
# 6 0.000000 0.000000 0.000000 0.000000 0.000000 0.046706
#
#
# Mechanical properties :
#
#
# Convention : Reuss Voigt Hill
#
# Bulk Modulus (GPa) = 65.55469 65.58096 65.56782
# Shear Modulus (GPa) = 23.64144 24.10673 23.87409
#
# Velocity S-wave (km/s) = 3.66008 3.69592 3.67805
# Velocity P-wave (km/s) = 7.41671 7.44137 7.42905
#
# Compressibility (1/GPa) = 0.01525444
#
# Stress axis : x y z
#
# Youngs Moduli (GPa) = 62.93885 75.74146 75.39467
#
# Poissons Ratio (x) = 0.42189 0.39146
# Poissons Ratio (y) = 0.35058 0.21019
# Poissons Ratio (z) = 0.32679 0.21116
#
# Static dielectric constant tensor:
#      x y z
#    x 1.644070 0.000000 0.000000 
#    y 0.000000 1.593320 0.000000 
#    z 0.000000 0.000000 1.586280 
# 
# From -- ./inp_files/6659.got.cif
#   From: 2010.05.17/outbox.cif.g08.bks.cpg/sg63_4_cif.got.tgz:6659.got - 2010.06.03 15:47:04.
