data_PCOD9469518
_publ_section_title
;
Structure prediction by ZEFSAII (Michael W. Deem and Ramdas Pophale) SiO2 
 PCOD9469518
Probable space group: C M C M
;
_chemical_formula_sum "Si O2"
_cell_formula_units_Z 112
_cell_length_a 16.542459
_cell_length_b 21.075333
_cell_length_c 17.428700
_cell_angle_alpha 90.000000
_cell_angle_beta 90.000000
_cell_angle_gamma 90.000000
_cell_volume 6076.304184
_symmetry_space_group_name_H-M "C M C M"
_symmetry_group_IT_number 63
_symmetry_cell_setting 'orthorhombic'
loop_
_space_group_symop_operation_xyz
x,y,z
-x,-y,1/2+z
x,-y,-z
-x,y,1/2-z
-x,-y,-z
x,y,1/2-z
-x,y,z
x,-y,1/2+z
1/2+x,1/2+y,z
1/2-x,1/2-y,1/2+z
1/2+x,1/2-y,-z
1/2-x,1/2+y,1/2-z
1/2-x,1/2-y,-z
1/2+x,1/2+y,1/2-z
1/2-x,1/2+y,z
1/2+x,1/2-y,1/2+z
loop_
_atom_site_type_symbol
_atom_site_label
_atom_site_fract_x
_atom_site_fract_y
_atom_site_fract_z
Si Si1 0.253026 0.244921 0.093913
Si Si2 0.832971 0.570133 0.516882
Si Si3 0.587678 0.697655 0.434971
Si Si4 0.258219 0.613524 0.658730
Si Si5 0.151281 0.935526 0.955534
Si Si6 0.908165 0.975419 0.341223
Si Si7 0.588576 0.810470 0.560158
O O1 0.167465 0.213147 0.114475
O O2 0.259425 0.314109 0.130344
O O3 0.250000 0.250000 0.000000
O O4 0.333711 0.205497 0.112108
O O5 0.864874 0.500000 0.500000
O O6 0.809205 0.579724 0.605895
O O7 0.745838 0.575009 0.473095
O O8 0.889432 0.626097 0.486775
O O9 0.500000 0.697391 0.395907
O O10 0.604181 0.628854 0.471712
O O11 0.584407 0.751952 0.500041
O O12 0.244854 0.609141 0.750000
O O13 0.343410 0.579465 0.639054
O O14 0.129515 0.958446 0.870314
O O15 0.126707 0.000000 0.000000
O O16 0.912312 0.975755 0.250000
O O17 0.000000 0.966405 0.370284
O O18 0.500000 0.815833 0.596780
#
# Coordination Sequence:
#
# PCOD9469518 Si02
#       7
#    16  16  16  16  16  16  16
#     4  10  18  35  56  79 116 149 195 247 274 342
#     4  11  19  36  59  86 114 148 198 254 289 342
#     4  10  19  31  53  80 114 150 183 235 292 339
#     4  11  21  37  59  86 119 161 195 234 299 356
#     4  11  20  33  54  85 114 154 194 235 286 344
#     4  10  22  37  52  81 123 155 193 246 294 354
#     4  10  20  34  58  85 114 150 193 248 301 338
#
# _framework density 18.432257
#
# number of rings (size 3 to 8) (size 9 to 14) (size 15 to 20)
#    0.000    1.571    7.143    1.286    0.000    2.000 
#    0.000    0.714    0.000    3.429    0.000    0.000 
#    0.000    0.000    0.000    0.000    0.000    0.000 
#
# Total GULP energy -311951.715643 kJ/mol
# GULP energy per Si atom -5570.566351 kJ/mol
# Density = 1.839030 g / cm^3
# Si number density = 18.432257 Si / 1000 Ang^3
#
#
#
# Elastic Constant Matrix: (Units=GPa)
#
#
# Indices 1 2 3 4 5 6 
#
# 1 125.4273 37.2075 12.9891 0.0000 0.0000 0.0000
# 2 37.2075 143.2121 28.2720 0.0000 0.0000 0.0000
# 3 12.9891 28.2720 36.8112 0.0000 0.0000 0.0000
# 4 0.0000 0.0000 0.0000 23.9883 0.0000 0.0000
# 5 0.0000 0.0000 0.0000 0.0000 11.9188 0.0000
# 6 0.0000 0.0000 0.0000 0.0000 0.0000 -1.7919
#
#
#
# Elastic Compliance Matrix: (Units=1/GPa)
#
#
# Indices 1 2 3 4 5 6 
#
# 1 0.008715 -0.001953 -0.001575 0.000000 0.000000 0.000000
# 2 -0.001953 0.008668 -0.005968 0.000000 0.000000 0.000000
# 3 -0.001575 -0.005968 0.032305 0.000000 0.000000 0.000000
# 4 0.000000 0.000000 0.000000 0.041687 0.000000 0.000000
# 5 0.000000 0.000000 0.000000 0.000000 0.083901 0.000000
# 6 0.000000 0.000000 0.000000 0.000000 0.000000 -0.558053
#
#
# Mechanical properties :
#
#
# Convention : Reuss Voigt Hill
#
# Bulk Modulus (GPa) = 32.57805 51.37644 41.97724
# Shear Modulus (GPa) = -14.14225 21.95516 3.90646
#
# Velocity S-wave (km/s) = -2.77294 3.45502 1.45738
# Velocity P-wave (km/s) = 2.73140 6.62192 5.06509
#
# Compressibility (1/GPa) = 0.03069551
#
# Stress axis : x y z
#
# Youngs Moduli (GPa) = 114.74057 115.36191 30.95479
#
# Poissons Ratio (x) = 0.22534 0.04875
# Poissons Ratio (y) = 0.22413 0.18475
# Poissons Ratio (z) = 0.18072 0.68851
#
# Static dielectric constant tensor:
#      x y z
#    x 1.694080 0.000000 0.000000 
#    y 0.000000 1.648190 0.000000 
#    z 0.000000 0.000000 1.677520 
# 
# From -- ./inp_files/46117.got.cif
#   From: 2010.05.17/outbox.cif.g08.bks.cpg/sg63_24_cif.got.tgz:46117.got - 2010.06.03 15:47:04.
