data_PCOD9469455
_publ_section_title
;
Structure prediction by ZEFSAII (Michael W. Deem and Ramdas Pophale) SiO2 
 PCOD9469455
Probable space group: C M C M
;
_chemical_formula_sum "Si O2"
_cell_formula_units_Z 96
_cell_length_a 7.585210
_cell_length_b 25.664182
_cell_length_c 24.551693
_cell_angle_alpha 90.000000
_cell_angle_beta 90.000000
_cell_angle_gamma 90.000000
_cell_volume 4779.434128
_symmetry_space_group_name_H-M "C M C M"
_symmetry_group_IT_number 63
_symmetry_cell_setting 'orthorhombic'
loop_
_space_group_symop_operation_xyz
x,y,z
-x,-y,1/2+z
x,-y,-z
-x,y,1/2-z
-x,-y,-z
x,y,1/2-z
-x,y,z
x,-y,1/2+z
1/2+x,1/2+y,z
1/2-x,1/2-y,1/2+z
1/2+x,1/2-y,-z
1/2-x,1/2+y,1/2-z
1/2-x,1/2-y,-z
1/2+x,1/2+y,1/2-z
1/2-x,1/2+y,z
1/2+x,1/2-y,1/2+z
loop_
_atom_site_type_symbol
_atom_site_label
_atom_site_fract_x
_atom_site_fract_y
_atom_site_fract_z
Si Si1 0.286475 0.605557 0.556288
Si Si2 0.788605 0.775934 0.441809
Si Si3 0.783854 0.317376 0.867889
Si Si4 0.791441 0.420302 0.567075
Si Si5 0.285748 0.526373 0.250000
Si Si6 0.203978 0.019316 0.862993
Si Si7 0.209454 0.649198 0.250000
O O1 0.500000 0.606202 0.558906
O O2 0.221353 0.664989 0.560280
O O3 0.240551 0.582649 0.497163
O O4 0.218887 0.568104 0.604196
O O5 0.750000 0.750000 0.500000
O O6 0.724242 0.736193 0.395542
O O7 0.000000 0.778829 0.436478
O O8 0.729146 0.366554 0.905003
O O9 0.722066 0.327007 0.806396
O O10 0.000000 0.317274 0.868030
O O11 0.709193 0.469864 0.596661
O O12 0.000000 0.424204 0.576739
O O13 0.500000 0.525458 0.250000
O O14 0.220164 0.498763 0.305104
O O15 0.236240 0.587103 0.250000
O O16 0.000000 0.032426 0.852018
O O17 0.000000 0.658553 0.250000
#
# Coordination Sequence:
#
# PCOD9469455 Si02
#       7
#    16  16  16  16   8  16   8
#     4  10  21  35  52  74 106 143 172 206 258 314
#     4  10  19  34  53  75 101 133 170 208 251 301
#     4   9  18  31  51  78 104 127 163 211 255 299
#     4  11  20  32  53  80 107 134 169 214 258 305
#     4  10  20  34  53  73  99 135 174 213 250 300
#     4  10  21  36  51  74 106 137 173 213 257 309
#     4  10  18  34  55  75 103 133 164 211 264 304
#
# _framework density 20.08606
#
# number of rings (size 3 to 8) (size 9 to 14) (size 15 to 20)
#    0.000    2.000    3.333    1.000    0.000    2.667 
#    0.000    1.667    0.000    5.000    0.000    0.000 
#    0.000    4.000    0.000    0.000    0.000    0.000 
#
# Total GULP energy -268085.479169 kJ/mol
# GULP energy per Si atom -5585.114149 kJ/mol
# Density = 2.004034 g / cm^3
# Si number density = 20.086060 Si / 1000 Ang^3
#
#
#
# Elastic Constant Matrix: (Units=GPa)
#
#
# Indices 1 2 3 4 5 6 
#
# 1 44.2061 -10.0144 -8.1299 0.0000 0.0000 0.0000
# 2 -10.0144 137.2363 92.1424 0.0000 0.0000 0.0000
# 3 -8.1299 92.1424 186.4336 0.0000 0.0000 0.0000
# 4 0.0000 0.0000 0.0000 39.7993 0.0000 0.0000
# 5 0.0000 0.0000 0.0000 0.0000 8.4191 0.0000
# 6 0.0000 0.0000 0.0000 0.0000 0.0000 13.5756
#
#
#
# Elastic Compliance Matrix: (Units=1/GPa)
#
#
# Indices 1 2 3 4 5 6 
#
# 1 0.023010 0.001505 0.000260 0.000000 0.000000 0.000000
# 2 0.001505 0.011004 -0.005373 0.000000 0.000000 0.000000
# 3 0.000260 -0.005373 0.008031 0.000000 0.000000 0.000000
# 4 0.000000 0.000000 0.000000 0.025126 0.000000 0.000000
# 5 0.000000 0.000000 0.000000 0.000000 0.118777 0.000000
# 6 0.000000 0.000000 0.000000 0.000000 0.000000 0.073661
#
#
# Mechanical properties :
#
#
# Convention : Reuss Voigt Hill
#
# Bulk Modulus (GPa) = 28.71289 57.31911 43.01600
# Shear Modulus (GPa) = 17.95749 31.95068 24.95409
#
# Velocity S-wave (km/s) = 2.99327 3.99267 3.52853
# Velocity P-wave (km/s) = 5.12564 7.06073 6.16953
#
# Compressibility (1/GPa) = 0.03482756
#
# Stress axis : x y z
#
# Youngs Moduli (GPa) = 43.45945 90.87622 124.52244
#
# Poissons Ratio (x) = -0.13674 -0.03234
# Poissons Ratio (y) = -0.06539 0.66905
# Poissons Ratio (z) = -0.01129 0.48827
#
# Static dielectric constant tensor:
#      x y z
#    x 1.762250 0.000000 0.000000 
#    y 0.000000 1.692510 0.000000 
#    z 0.000000 0.000000 1.692940 
# 
# From -- ./inp_files/59978.got.cif
#   From: 2010.05.17/outbox.cif.g08.bks.cpg/sg63_30_cif.got.tgz:59978.got - 2010.06.03 15:47:04.
