data_PCOD9469685
_publ_section_title
;
Structure prediction by ZEFSAII (Michael W. Deem and Ramdas Pophale) SiO2 
 PCOD9469685
Probable space group: C M C M
;
_chemical_formula_sum "Si O2"
_cell_formula_units_Z 80
_cell_length_a 14.532075
_cell_length_b 35.589477
_cell_length_c 7.361195
_cell_angle_alpha 90.000000
_cell_angle_beta 90.000000
_cell_angle_gamma 90.000000
_cell_volume 3807.128705
_symmetry_space_group_name_H-M "C M C M"
_symmetry_group_IT_number 63
_symmetry_cell_setting 'orthorhombic'
loop_
_space_group_symop_operation_xyz
x,y,z
-x,-y,1/2+z
x,-y,-z
-x,y,1/2-z
-x,-y,-z
x,y,1/2-z
-x,y,z
x,-y,1/2+z
1/2+x,1/2+y,z
1/2-x,1/2-y,1/2+z
1/2+x,1/2-y,-z
1/2-x,1/2+y,1/2-z
1/2-x,1/2-y,-z
1/2+x,1/2+y,1/2-z
1/2-x,1/2+y,z
1/2+x,1/2-y,1/2+z
loop_
_atom_site_type_symbol
_atom_site_label
_atom_site_fract_x
_atom_site_fract_y
_atom_site_fract_z
Si Si1 0.231653 0.108460 0.041031
Si Si2 0.392542 0.679787 0.970308
Si Si3 0.893872 0.343311 0.972898
Si Si4 0.112103 0.738660 0.037117
Si Si5 0.104132 0.956685 0.532709
O O1 0.251716 0.098411 0.250000
O O2 0.326731 0.124030 0.962359
O O3 0.176696 0.073435 0.959841
O O4 0.164992 0.144650 0.037631
O O5 0.389055 0.679880 0.750000
O O6 0.500000 0.675813 0.021241
O O7 0.357990 0.720833 0.036196
O O8 0.891283 0.342287 0.750000
O O9 0.860427 0.301994 0.036963
O O10 0.000000 0.348324 0.024234
O O11 0.136017 0.738753 0.250000
O O12 0.000000 0.738996 0.026588
O O13 0.099651 0.951260 0.750000
O O14 0.000000 0.950686 0.462577
O O15 0.129133 0.000000 0.500000
#
# Coordination Sequence:
#
# PCOD9469685 Si02
#       5
#    16  16  16  16  16
#     4  10  19  29  45  70  93 112 141 186 230 258
#     4   9  17  28  42  62  90 123 154 181 213 259
#     4   8  14  26  44  64  87 118 154 186 216 254
#     4   7  11  22  39  58  83 117 154 185 210 245
#     4   9  18  32  48  66  89 114 138 168 211 265
#
# _framework density 21.013210999999998
#
# number of rings (size 3 to 8) (size 9 to 14) (size 15 to 20)
#    0.000    3.400    0.000    3.000    0.000    2.800 
#    0.000    2.000    0.000    1.200    0.000    2.800 
#    0.000    0.000    0.000    0.000    0.000    0.000 
#
# Total GULP energy -223153.018971 kJ/mol
# GULP energy per Si atom -5578.825474 kJ/mol
# Density = 2.096538 g / cm^3
# Si number density = 21.013211 Si / 1000 Ang^3
#
#
#
# Elastic Constant Matrix: (Units=GPa)
#
#
# Indices 1 2 3 4 5 6 
#
# 1 104.0037 83.8086 -2.9263 0.0000 0.0000 0.0000
# 2 83.8086 148.8414 -4.9391 0.0000 0.0000 0.0000
# 3 -2.9263 -4.9391 77.4100 0.0000 0.0000 0.0000
# 4 0.0000 0.0000 0.0000 -6.5693 0.0000 0.0000
# 5 0.0000 0.0000 0.0000 0.0000 1.4474 0.0000
# 6 0.0000 0.0000 0.0000 0.0000 0.0000 34.4247
#
#
#
# Elastic Compliance Matrix: (Units=1/GPa)
#
#
# Indices 1 2 3 4 5 6 
#
# 1 0.017602 -0.009910 0.000033 0.000000 0.000000 0.000000
# 2 -0.009910 0.012312 0.000411 0.000000 0.000000 0.000000
# 3 0.000033 0.000411 0.012946 0.000000 0.000000 0.000000
# 4 0.000000 0.000000 0.000000 -0.152223 0.000000 0.000000
# 5 0.000000 0.000000 0.000000 0.000000 0.690892 0.000000
# 6 0.000000 0.000000 0.000000 0.000000 0.000000 0.029049
#
#
# Mechanical properties :
#
#
# Convention : Reuss Voigt Hill
#
# Bulk Modulus (GPa) = 41.79240 53.57129 47.68184
# Shear Modulus (GPa) = 7.84333 22.81467 15.32900
#
# Velocity S-wave (km/s) = 1.93408 3.29862 2.70384
# Velocity P-wave (km/s) = 4.99193 6.32908 5.69985
#
# Compressibility (1/GPa) = 0.02392780
#
# Stress axis : x y z
#
# Youngs Moduli (GPa) = 56.81296 81.22022 77.24571
#
# Poissons Ratio (x) = 0.80488 -0.00256
# Poissons Ratio (y) = 0.56301 -0.03174
# Poissons Ratio (z) = -0.00188 -0.03338
#
# Static dielectric constant tensor:
#      x y z
#    x 1.773740 0.000000 0.000000 
#    y 0.000000 1.746350 0.000000 
#    z 0.000000 0.000000 1.783920 
# 
# From -- ./inp_files/17846.got.cif
#   From: 2010.05.17/outbox.cif.g08.bks.cpg/sg63_9_cif.got.tgz:17846.got - 2010.06.03 15:47:04.
