data_PCOD9469885
_publ_section_title
;
Structure prediction by ZEFSAII (Michael W. Deem and Ramdas Pophale) SiO2 
 PCOD9469885
Probable space group: C M C M
;
_chemical_formula_sum "Si O2"
_cell_formula_units_Z 96
_cell_length_a 20.439712
_cell_length_b 11.633737
_cell_length_c 22.468716
_cell_angle_alpha 90.000000
_cell_angle_beta 90.000000
_cell_angle_gamma 90.000000
_cell_volume 5342.841230
_symmetry_space_group_name_H-M "C M C M"
_symmetry_group_IT_number 63
_symmetry_cell_setting 'orthorhombic'
loop_
_space_group_symop_operation_xyz
x,y,z
-x,-y,1/2+z
x,-y,-z
-x,y,1/2-z
-x,-y,-z
x,y,1/2-z
-x,y,z
x,-y,1/2+z
1/2+x,1/2+y,z
1/2-x,1/2-y,1/2+z
1/2+x,1/2-y,-z
1/2-x,1/2+y,1/2-z
1/2-x,1/2-y,-z
1/2+x,1/2+y,1/2-z
1/2-x,1/2+y,z
1/2+x,1/2-y,1/2+z
loop_
_atom_site_type_symbol
_atom_site_label
_atom_site_fract_x
_atom_site_fract_y
_atom_site_fract_z
Si Si1 0.314807 0.046536 0.895261
Si Si2 0.672215 0.559204 0.109358
Si Si3 0.229941 0.257590 0.181645
Si Si4 0.364322 0.202268 0.384341
Si Si5 0.924404 0.104239 0.819421
Si Si6 0.328019 0.752053 0.014253
O O1 0.306896 0.126944 0.837552
O O2 0.337618 0.131910 0.947344
O O3 0.241001 0.000980 0.907955
O O4 0.359396 0.935572 0.884987
O O5 0.687775 0.647596 0.163008
O O6 0.619972 0.470923 0.135738
O O7 0.654078 0.641392 0.054033
O O8 0.247403 0.257375 0.250000
O O9 0.294785 0.245610 0.141989
O O10 0.416385 0.265300 0.343000
O O11 0.366352 0.242257 0.452636
O O12 0.903162 0.095354 0.750000
O O13 0.000000 0.068990 0.822627
O O14 0.250000 0.750000 0.000000
#
# Coordination Sequence:
#
# PCOD9469885 Si02
#       6
#    16  16  16  16  16  16
#     4  10  19  30  52  82 116 145 173 227 287 347
#     4  10  20  34  54  80 111 146 188 230 279 341
#     4  10  19  30  49  80 114 142 176 233 292 339
#     4  11  21  32  52  81 112 144 186 226 278 339
#     4  11  24  42  59  76 108 155 200 238 277 328
#     4  11  18  32  53  84 118 149 174 219 290 349
#
# _framework density 17.967967999999999
#
# number of rings (size 3 to 8) (size 9 to 14) (size 15 to 20)
#    0.000    1.500    6.667    1.500    0.000    5.333 
#    0.000    1.667    0.000    6.000    0.000    9.333 
#    0.000    0.000    0.000    0.000    0.000    0.000 
#
# Total GULP energy -267768.022526 kJ/mol
# GULP energy per Si atom -5578.500469 kJ/mol
# Density = 1.792707 g / cm^3
# Si number density = 17.967968 Si / 1000 Ang^3
#
#
#
# Elastic Constant Matrix: (Units=GPa)
#
#
# Indices 1 2 3 4 5 6 
#
# 1 28.8309 14.6693 7.2299 0.0000 0.0000 0.0000
# 2 14.6693 104.8538 44.8004 0.0000 0.0000 0.0000
# 3 7.2299 44.8004 113.8152 0.0000 0.0000 0.0000
# 4 0.0000 0.0000 0.0000 12.4966 0.0000 0.0000
# 5 0.0000 0.0000 0.0000 0.0000 13.4380 0.0000
# 6 0.0000 0.0000 0.0000 0.0000 0.0000 15.9719
#
#
#
# Elastic Compliance Matrix: (Units=1/GPa)
#
#
# Indices 1 2 3 4 5 6 
#
# 1 0.037357 -0.005064 -0.000380 0.000000 0.000000 0.000000
# 2 -0.005064 0.012152 -0.004462 0.000000 0.000000 0.000000
# 3 -0.000380 -0.004462 0.010566 0.000000 0.000000 0.000000
# 4 0.000000 0.000000 0.000000 0.080022 0.000000 0.000000
# 5 0.000000 0.000000 0.000000 0.000000 0.074416 0.000000
# 6 0.000000 0.000000 0.000000 0.000000 0.000000 0.062610
#
#
# Mechanical properties :
#
#
# Convention : Reuss Voigt Hill
#
# Bulk Modulus (GPa) = 24.83580 42.32213 33.57896
# Shear Modulus (GPa) = 16.11056 20.43462 18.27259
#
# Velocity S-wave (km/s) = 2.99762 3.37602 3.19243
# Velocity P-wave (km/s) = 5.08264 6.22913 5.68486
#
# Compressibility (1/GPa) = 0.04026446
#
# Stress axis : x y z
#
# Youngs Moduli (GPa) = 26.76887 82.29203 94.63891
#
# Poissons Ratio (x) = 0.41673 0.03593
# Poissons Ratio (y) = 0.13556 0.42224
# Poissons Ratio (z) = 0.01016 0.36715
#
# Static dielectric constant tensor:
#      x y z
#    x 1.594910 0.000000 0.000000 
#    y 0.000000 1.665940 0.000000 
#    z 0.000000 0.000000 1.618230 
# 
# From -- ./inp_files/56577.got.cif
#   From: 2010.05.17/outbox.cif.g08.bks.cpg/sg63_29_cif.got.tgz:56577.got - 2010.06.03 15:47:04.
