data_PCOD9469684
_publ_section_title
;
Structure prediction by ZEFSAII (Michael W. Deem and Ramdas Pophale) SiO2 
 PCOD9469684
Probable space group: C M C M
;
_chemical_formula_sum "Si O2"
_cell_formula_units_Z 96
_cell_length_a 9.306129
_cell_length_b 25.702075
_cell_length_c 25.758503
_cell_angle_alpha 90.000000
_cell_angle_beta 90.000000
_cell_angle_gamma 90.000000
_cell_volume 6161.094563
_symmetry_space_group_name_H-M "C M C M"
_symmetry_group_IT_number 63
_symmetry_cell_setting 'orthorhombic'
loop_
_space_group_symop_operation_xyz
x,y,z
-x,-y,1/2+z
x,-y,-z
-x,y,1/2-z
-x,-y,-z
x,y,1/2-z
-x,y,z
x,-y,1/2+z
1/2+x,1/2+y,z
1/2-x,1/2-y,1/2+z
1/2+x,1/2-y,-z
1/2-x,1/2+y,1/2-z
1/2-x,1/2-y,-z
1/2+x,1/2+y,1/2-z
1/2-x,1/2+y,z
1/2+x,1/2-y,1/2+z
loop_
_atom_site_type_symbol
_atom_site_label
_atom_site_fract_x
_atom_site_fract_y
_atom_site_fract_z
Si Si1 0.828281 0.149416 0.189141
Si Si2 0.171516 0.552066 0.892339
Si Si3 0.663846 0.437044 0.005411
Si Si4 0.665032 0.746016 0.686895
Si Si5 0.327014 0.558351 0.109729
Si Si6 0.828577 0.358366 0.189321
O O1 0.794868 0.139974 0.250000
O O2 0.746998 0.201445 0.171459
O O3 0.791229 0.099948 0.153914
O O4 0.000000 0.157815 0.185306
O O5 0.232900 0.574275 0.946664
O O6 0.246493 0.496319 0.883301
O O7 0.205486 0.592279 0.846342
O O8 0.000000 0.545502 0.895567
O O9 0.500000 0.420373 0.016496
O O10 0.661974 0.500000 0.000000
O O11 0.707532 0.419331 0.947774
O O12 0.666905 0.745959 0.750000
O O13 0.500000 0.746193 0.669801
O O14 0.746015 0.693323 0.671340
O O15 0.500000 0.549145 0.110112
O O16 0.793475 0.368128 0.250000
O O17 0.000000 0.349016 0.186301
#
# Coordination Sequence:
#
# PCOD9469684 Si02
#       6
#    16  16  16  16  16  16
#     4   9  17  30  48  68  91 120 150 180 218 265
#     4  10  19  29  45  69  92 116 149 187 223 260
#     4   8  15  29  46  62  85 118 152 184 218 259
#     4   9  17  29  46  68  90 114 149 188 221 257
#     4   9  18  31  46  66  92 122 152 179 216 267
#     4   9  18  32  47  64  90 122 150 178 220 271
#
# _framework density 15.581647
#
# number of rings (size 3 to 8) (size 9 to 14) (size 15 to 20)
#    0.000    3.000    0.000    2.000    0.000    7.667 
#    0.000    0.000    0.000    1.000    0.000    0.000 
#    0.000    0.000    0.000    0.000    0.000    0.000 
#
# Total GULP energy -267283.528431 kJ/mol
# GULP energy per Si atom -5568.406842 kJ/mol
# Density = 1.554618 g / cm^3
# Si number density = 15.581647 Si / 1000 Ang^3
#
#
#
# Elastic Constant Matrix: (Units=GPa)
#
#
# Indices 1 2 3 4 5 6 
#
# 1 56.7136 63.2022 51.7534 0.0000 0.0000 0.0000
# 2 63.2022 109.8975 69.7382 0.0000 0.0000 0.0000
# 3 51.7534 69.7382 92.0481 0.0000 0.0000 0.0000
# 4 0.0000 0.0000 0.0000 -1.5208 0.0000 0.0000
# 5 0.0000 0.0000 0.0000 0.0000 21.0803 0.0000
# 6 0.0000 0.0000 0.0000 0.0000 0.0000 19.4320
#
#
#
# Elastic Compliance Matrix: (Units=1/GPa)
#
#
# Indices 1 2 3 4 5 6 
#
# 1 0.057053 -0.023989 -0.013903 0.000000 0.000000 0.000000
# 2 -0.023989 0.027611 -0.007432 0.000000 0.000000 0.000000
# 3 -0.013903 -0.007432 0.024311 0.000000 0.000000 0.000000
# 4 0.000000 0.000000 0.000000 -0.657567 0.000000 0.000000
# 5 0.000000 0.000000 0.000000 0.000000 0.047438 0.000000
# 6 0.000000 0.000000 0.000000 0.000000 0.000000 0.051461
#
#
# Mechanical properties :
#
#
# Convention : Reuss Voigt Hill
#
# Bulk Modulus (GPa) = 54.55963 69.78299 62.17131
# Shear Modulus (GPa) = -14.16683 12.72934 -0.71874
#
# Velocity S-wave (km/s) = -3.01856 2.86132 -0.67991
# Velocity P-wave (km/s) = 4.78982 7.46986 6.27460
#
# Compressibility (1/GPa) = 0.01832857
#
# Stress axis : x y z
#
# Youngs Moduli (GPa) = 17.52764 36.21729 41.13338
#
# Poissons Ratio (x) = 0.86880 0.57188
# Poissons Ratio (y) = 0.42046 0.30568
# Poissons Ratio (z) = 0.24369 0.26915
#
# Static dielectric constant tensor:
#      x y z
#    x 1.523130 0.000000 0.000000 
#    y 0.000000 1.491280 0.000000 
#    z 0.000000 0.000000 1.531510 
# 
# From -- ./inp_files/60174.got.cif
#   From: 2010.05.17/outbox.cif.g08.bks.cpg/sg63_31_cif.got.tgz:60174.got - 2010.06.03 15:47:04.
