data_PCOD9469957
_publ_section_title
;
Structure prediction by ZEFSAII (Michael W. Deem and Ramdas Pophale) SiO2 
 PCOD9469957
Probable space group: C M C M
;
_chemical_formula_sum "Si O2"
_cell_formula_units_Z 104
_cell_length_a 29.484099
_cell_length_b 24.776261
_cell_length_c 8.567310
_cell_angle_alpha 90.000000
_cell_angle_beta 90.000000
_cell_angle_gamma 90.000000
_cell_volume 6258.469064
_symmetry_space_group_name_H-M "C M C M"
_symmetry_group_IT_number 63
_symmetry_cell_setting 'orthorhombic'
loop_
_space_group_symop_operation_xyz
x,y,z
-x,-y,1/2+z
x,-y,-z
-x,y,1/2-z
-x,-y,-z
x,y,1/2-z
-x,y,z
x,-y,1/2+z
1/2+x,1/2+y,z
1/2-x,1/2-y,1/2+z
1/2+x,1/2-y,-z
1/2-x,1/2+y,1/2-z
1/2-x,1/2-y,-z
1/2+x,1/2+y,1/2-z
1/2-x,1/2+y,z
1/2+x,1/2-y,1/2+z
loop_
_atom_site_type_symbol
_atom_site_label
_atom_site_fract_x
_atom_site_fract_y
_atom_site_fract_z
Si Si1 0.775486 0.061109 0.938012
Si Si2 0.911274 0.372069 0.061285
Si Si3 0.176318 0.438750 0.438965
Si Si4 0.125031 0.061165 0.937520
Si Si5 0.500000 0.060696 0.938413
Si Si6 0.447367 0.237415 0.063279
Si Si7 0.552337 0.355078 0.563107
O O1 0.775514 0.060695 0.750000
O O2 0.726227 0.083205 0.987292
O O3 0.824774 0.083011 0.986648
O O4 0.775298 0.000000 0.000000
O O5 0.911366 0.370393 0.250000
O O6 0.865307 0.401598 0.009058
O O7 0.954942 0.407279 0.010903
O O8 0.917751 0.311872 0.998892
O O9 0.171176 0.500000 0.500000
O O10 0.175203 0.441020 0.250000
O O11 0.123355 0.059563 0.750000
O O12 0.085711 0.099430 0.999798
O O13 0.120393 0.000000 0.000000
O O14 0.500000 0.059238 0.750000
O O15 0.500000 0.000000 0.000000
O O16 0.445903 0.238860 0.250000
O O17 0.500000 0.227812 0.014272
O O18 0.434141 0.295833 0.997735
O O19 0.553384 0.355163 0.750000
O O20 0.500000 0.364365 0.512569
#
# Coordination Sequence:
#
# PCOD9469957 Si02
#       7
#    16  16  16  16   8  16  16
#     4   8  15  28  46  69  96 127 162 198 237 282
#     4  10  19  31  47  67  95 130 165 204 247 293
#     4   9  17  29  46  69  97 129 164 203 247 291
#     4  10  19  32  52  77 105 133 161 195 235 284
#     4  10  20  30  42  64  96 130 163 200 247 294
#     4  10  20  34  52  72  93 123 165 207 244 287
#     4  10  21  36  54  75 100 129 159 195 238 287
#
# _framework density 16.617483
#
# number of rings (size 3 to 8) (size 9 to 14) (size 15 to 20)
#    0.000    2.462    0.769    1.846    0.000    3.692 
#    0.000    0.000    0.000    0.923    0.000    0.000 
#    0.000    0.000    0.000    0.000    0.000    0.000 
#
# Total GULP energy -289779.466404 kJ/mol
# GULP energy per Si atom -5572.682046 kJ/mol
# Density = 1.657966 g / cm^3
# Si number density = 16.617483 Si / 1000 Ang^3
#
#
#
# Elastic Constant Matrix: (Units=GPa)
#
#
# Indices 1 2 3 4 5 6 
#
# 1 154.9928 91.0783 30.0449 0.0000 0.0000 0.0000
# 2 91.0783 109.7059 24.4612 0.0000 0.0000 0.0000
# 3 30.0449 24.4612 19.1040 0.0000 0.0000 0.0000
# 4 0.0000 0.0000 0.0000 29.7944 0.0000 0.0000
# 5 0.0000 0.0000 0.0000 0.0000 12.5372 0.0000
# 6 0.0000 0.0000 0.0000 0.0000 0.0000 8.4145
#
#
#
# Elastic Compliance Matrix: (Units=1/GPa)
#
#
# Indices 1 2 3 4 5 6 
#
# 1 0.013806 -0.009266 -0.009848 0.000000 0.000000 0.000000
# 2 -0.009266 0.018976 -0.009725 0.000000 0.000000 0.000000
# 3 -0.009848 -0.009725 0.080286 0.000000 0.000000 0.000000
# 4 0.000000 0.000000 0.000000 0.033563 0.000000 0.000000
# 5 0.000000 0.000000 0.000000 0.000000 0.079763 0.000000
# 6 0.000000 0.000000 0.000000 0.000000 0.000000 0.118843
#
#
# Mechanical properties :
#
#
# Convention : Reuss Voigt Hill
#
# Bulk Modulus (GPa) = 18.05401 63.88571 40.96986
# Shear Modulus (GPa) = 11.86580 19.36377 15.61479
#
# Velocity S-wave (km/s) = 2.67508 3.41730 3.06871
# Velocity P-wave (km/s) = 4.51990 7.35520 6.10444
#
# Compressibility (1/GPa) = 0.05538934
#
# Stress axis : x y z
#
# Youngs Moduli (GPa) = 72.43316 52.69757 12.45545
#
# Poissons Ratio (x) = 0.48828 0.12267
# Poissons Ratio (y) = 0.67115 0.12113
# Poissons Ratio (z) = 0.71335 0.51250
#
# Static dielectric constant tensor:
#      x y z
#    x 1.602030 0.000000 0.000000 
#    y 0.000000 1.511110 0.000000 
#    z 0.000000 0.000000 1.559850 
# 
# From -- ./inp_files/14469.got.cif
#   From: 2010.05.17/outbox.cif.g08.bks.cpg/sg63_8_cif.got.tgz:14469.got - 2010.06.03 15:47:04.
