data_PCOD9469177
_publ_section_title
;
Structure prediction by ZEFSAII (Michael W. Deem and Ramdas Pophale) SiO2 
 PCOD9469177
Probable space group: C M C M
;
_chemical_formula_sum "Si O2"
_cell_formula_units_Z 112
_cell_length_a 28.560918
_cell_length_b 11.497100
_cell_length_c 18.657828
_cell_angle_alpha 90.000000
_cell_angle_beta 90.000000
_cell_angle_gamma 90.000000
_cell_volume 6126.628633
_symmetry_space_group_name_H-M "C M C M"
_symmetry_group_IT_number 63
_symmetry_cell_setting 'orthorhombic'
loop_
_space_group_symop_operation_xyz
x,y,z
-x,-y,1/2+z
x,-y,-z
-x,y,1/2-z
-x,-y,-z
x,y,1/2-z
-x,y,z
x,-y,1/2+z
1/2+x,1/2+y,z
1/2-x,1/2-y,1/2+z
1/2+x,1/2-y,-z
1/2-x,1/2+y,1/2-z
1/2-x,1/2-y,-z
1/2+x,1/2+y,1/2-z
1/2-x,1/2+y,z
1/2+x,1/2-y,1/2+z
loop_
_atom_site_type_symbol
_atom_site_label
_atom_site_fract_x
_atom_site_fract_y
_atom_site_fract_z
Si Si1 0.220686 0.007340 0.836621
Si Si2 0.624883 0.527895 0.418164
Si Si3 0.551654 0.981551 0.414964
Si Si4 0.553408 0.323713 0.390151
Si Si5 0.279288 0.775438 0.836981
Si Si6 0.381399 0.140707 0.331237
Si Si7 0.051737 0.780478 0.557008
O O1 0.220986 0.008337 0.750000
O O2 0.234186 0.141804 0.859458
O O3 0.168893 0.984338 0.866803
O O4 0.250651 0.892274 0.859367
O O5 0.639691 0.500000 0.500000
O O6 0.584867 0.436916 0.396871
O O7 0.596774 0.648273 0.418952
O O8 0.500000 0.027131 0.390730
O O9 0.551856 0.843584 0.405598
O O10 0.553985 0.000000 0.500000
O O11 0.595930 0.038767 0.377458
O O12 0.500000 0.347608 0.371888
O O13 0.578910 0.238746 0.335792
O O14 0.554527 0.267897 0.470404
O O15 0.277264 0.773014 0.750000
O O16 0.333126 0.802254 0.858353
O O17 0.373236 0.101771 0.250000
O O18 0.000000 0.836374 0.569605
#
# Coordination Sequence:
#
# PCOD9469177 Si02
#       7
#    16  16  16  16  16  16  16
#     4  10  20  39  61  79 105 146 191 236 286 340
#     4  10  20  34  56  84 114 142 184 230 277 329
#     4  10  19  33  52  75 110 153 189 220 267 335
#     4  10  18  31  54  81 112 145 179 222 271 329
#     4   9  20  37  59  81 106 143 189 236 285 344
#     4  11  21  34  54  83 111 138 183 238 282 325
#     4   9  18  33  53  78 110 151 191 220 261 332
#
# _framework density 18.280853
#
# number of rings (size 3 to 8) (size 9 to 14) (size 15 to 20)
#    0.000    2.143    2.857    0.857    0.000    4.000 
#    0.000    3.571    0.000    2.143    0.000    0.000 
#    0.000    0.000    0.000    0.000    0.000    0.000 
#
# Total GULP energy -311776.831078 kJ/mol
# GULP energy per Si atom -5567.443412 kJ/mol
# Density = 1.823924 g / cm^3
# Si number density = 18.280853 Si / 1000 Ang^3
#
#
#
# Elastic Constant Matrix: (Units=GPa)
#
#
# Indices 1 2 3 4 5 6 
#
# 1 96.9899 50.6685 16.2600 0.0000 0.0000 0.0000
# 2 50.6685 108.4494 19.1627 0.0000 0.0000 0.0000
# 3 16.2600 19.1627 13.5651 0.0000 0.0000 0.0000
# 4 0.0000 0.0000 0.0000 20.3343 0.0000 0.0000
# 5 0.0000 0.0000 0.0000 0.0000 26.5940 0.0000
# 6 0.0000 0.0000 0.0000 0.0000 0.0000 18.5584
#
#
#
# Elastic Compliance Matrix: (Units=1/GPa)
#
#
# Indices 1 2 3 4 5 6 
#
# 1 0.014690 -0.005000 -0.010545 0.000000 0.000000 0.000000
# 2 -0.005000 0.013990 -0.013769 0.000000 0.000000 0.000000
# 3 -0.010545 -0.013769 0.105810 0.000000 0.000000 0.000000
# 4 0.000000 0.000000 0.000000 0.049178 0.000000 0.000000
# 5 0.000000 0.000000 0.000000 0.000000 0.037603 0.000000
# 6 0.000000 0.000000 0.000000 0.000000 0.000000 0.053884
#
#
# Mechanical properties :
#
#
# Convention : Reuss Voigt Hill
#
# Bulk Modulus (GPa) = 13.18209 43.46519 28.32364
# Shear Modulus (GPa) = 13.92481 21.95821 17.94151
#
# Velocity S-wave (km/s) = 2.76291 3.46953 3.13619
# Velocity P-wave (km/s) = 4.17190 6.31492 5.35177
#
# Compressibility (1/GPa) = 0.07586052
#
# Stress axis : x y z
#
# Youngs Moduli (GPa) = 68.07195 71.47957 9.45091
#
# Poissons Ratio (x) = 0.35741 0.09966
# Poissons Ratio (y) = 0.34037 0.13013
# Poissons Ratio (z) = 0.71784 0.98423
#
# Static dielectric constant tensor:
#      x y z
#    x 1.618810 0.000000 0.000000 
#    y 0.000000 1.696460 0.000000 
#    z 0.000000 0.000000 1.596820 
# 
# From -- ./inp_files/57625.got.cif
#   From: 2010.05.17/outbox.cif.g08.bks.cpg/sg63_29_cif.got.tgz:57625.got - 2010.06.03 15:47:04.
