data_PCOD9469801
_publ_section_title
;
Structure prediction by ZEFSAII (Michael W. Deem and Ramdas Pophale) SiO2 
 PCOD9469801
Probable space group: C M C M
;
_chemical_formula_sum "Si O2"
_cell_formula_units_Z 96
_cell_length_a 14.004744
_cell_length_b 14.196760
_cell_length_c 26.893203
_cell_angle_alpha 90.000000
_cell_angle_beta 90.000000
_cell_angle_gamma 90.000000
_cell_volume 5346.960123
_symmetry_space_group_name_H-M "C M C M"
_symmetry_group_IT_number 63
_symmetry_cell_setting 'orthorhombic'
loop_
_space_group_symop_operation_xyz
x,y,z
-x,-y,1/2+z
x,-y,-z
-x,y,1/2-z
-x,-y,-z
x,y,1/2-z
-x,y,z
x,-y,1/2+z
1/2+x,1/2+y,z
1/2-x,1/2-y,1/2+z
1/2+x,1/2-y,-z
1/2-x,1/2+y,1/2-z
1/2-x,1/2-y,-z
1/2+x,1/2+y,1/2-z
1/2-x,1/2+y,z
1/2+x,1/2-y,1/2+z
loop_
_atom_site_type_symbol
_atom_site_label
_atom_site_fract_x
_atom_site_fract_y
_atom_site_fract_z
Si Si1 0.888856 0.710793 0.008767
Si Si2 0.889299 0.916503 0.536367
Si Si3 0.615968 0.905249 0.089305
Si Si4 0.787929 0.609480 0.403563
Si Si5 0.889844 0.391697 0.805824
Si Si6 0.888286 0.620731 0.803750
O O1 0.827154 0.681894 0.055740
O O2 0.000000 0.687586 0.019061
O O3 0.883221 0.819606 0.994199
O O4 0.859002 0.651844 0.960031
O O5 0.822419 0.907528 0.584240
O O6 0.000000 0.932818 0.549421
O O7 0.856454 0.000000 0.500000
O O8 0.500000 0.911345 0.091593
O O9 0.649352 0.855815 0.141030
O O10 0.658267 0.009898 0.086978
O O11 0.817595 0.639660 0.348382
O O12 0.869608 0.357620 0.750000
O O13 0.886097 0.506133 0.803985
O O14 0.000000 0.367536 0.818654
O O15 0.846459 0.651151 0.750000
O O16 0.000000 0.648689 0.803106
#
# Coordination Sequence:
#
# PCOD9469801 Si02
#       6
#    16  16  16  16  16  16
#     4  10  19  30  46  70  98 123 150 192 245 293
#     4  10  22  37  48  61  87 128 175 210 233 266
#     4   9  16  25  42  72 102 119 138 181 242 299
#     4  11  18  28  49  73  98 125 153 188 236 291
#     4   8  14  25  43  71 104 129 147 175 226 293
#     4   7  10  18  33  56  90 126 147 160 196 266
#
# _framework density 17.954125999999999
#
# number of rings (size 3 to 8) (size 9 to 14) (size 15 to 20)
#    0.000    2.833    0.000    5.500    0.000    1.333 
#    0.000    0.000    0.000    1.500    0.000    5.833 
#    0.000    4.000    0.000    0.333    0.000    0.167 
#
# Total GULP energy -267434.340851 kJ/mol
# GULP energy per Si atom -5571.548768 kJ/mol
# Density = 1.791326 g / cm^3
# Si number density = 17.954126 Si / 1000 Ang^3
#
#
#
# Elastic Constant Matrix: (Units=GPa)
#
#
# Indices 1 2 3 4 5 6 
#
# 1 64.9851 -2.0421 51.4060 0.0000 0.0000 0.0000
# 2 -2.0421 21.6077 -0.1475 0.0000 0.0000 0.0000
# 3 51.4060 -0.1475 118.2266 0.0000 0.0000 0.0000
# 4 0.0000 0.0000 0.0000 -4.4267 0.0000 0.0000
# 5 0.0000 0.0000 0.0000 0.0000 19.4279 0.0000
# 6 0.0000 0.0000 0.0000 0.0000 0.0000 6.4784
#
#
#
# Elastic Compliance Matrix: (Units=1/GPa)
#
#
# Indices 1 2 3 4 5 6 
#
# 1 0.023556 0.002156 -0.010240 0.000000 0.000000 0.000000
# 2 0.002156 0.046478 -0.000880 0.000000 0.000000 0.000000
# 3 -0.010240 -0.000880 0.012910 0.000000 0.000000 0.000000
# 4 0.000000 0.000000 0.000000 -0.225902 0.000000 0.000000
# 5 0.000000 0.000000 0.000000 0.000000 0.051472 0.000000
# 6 0.000000 0.000000 0.000000 0.000000 0.000000 0.154360
#
#
# Mechanical properties :
#
#
# Convention : Reuss Voigt Hill
#
# Bulk Modulus (GPa) = 15.38056 33.69469 24.53763
# Shear Modulus (GPa) = 48.79418 14.66945 31.73181
#
# Velocity S-wave (km/s) = 5.21883 2.86151 4.20859
# Velocity P-wave (km/s) = 6.70075 5.45211 6.10842
#
# Compressibility (1/GPa) = 0.06501714
#
# Stress axis : x y z
#
# Youngs Moduli (GPa) = 42.45227 21.51575 77.46226
#
# Poissons Ratio (x) = -0.04639 0.79318
# Poissons Ratio (y) = -0.09154 0.06813
# Poissons Ratio (z) = 0.43469 0.01892
#
# Static dielectric constant tensor:
#      x y z
#    x 1.634700 0.000000 0.000000 
#    y 0.000000 1.606300 0.000000 
#    z 0.000000 0.000000 1.663700 
# 
# From -- ./inp_files/73487.got.cif
#   From: 2010.05.17/outbox.cif.g08.bks.cpg/sg63_37_cif.got.tgz:73487.got - 2010.06.03 15:47:04.
