data_PCOD9469450
_publ_section_title
;
Structure prediction by ZEFSAII (Michael W. Deem and Ramdas Pophale) SiO2 
 PCOD9469450
Probable space group: C M C M
;
_chemical_formula_sum "Si O2"
_cell_formula_units_Z 64
_cell_length_a 7.451824
_cell_length_b 37.222547
_cell_length_c 10.128391
_cell_angle_alpha 90.000000
_cell_angle_beta 90.000000
_cell_angle_gamma 90.000000
_cell_volume 2809.371256
_symmetry_space_group_name_H-M "C M C M"
_symmetry_group_IT_number 63
_symmetry_cell_setting 'orthorhombic'
loop_
_space_group_symop_operation_xyz
x,y,z
-x,-y,1/2+z
x,-y,-z
-x,y,1/2-z
-x,-y,-z
x,y,1/2-z
-x,y,z
x,-y,1/2+z
1/2+x,1/2+y,z
1/2-x,1/2-y,1/2+z
1/2+x,1/2-y,-z
1/2-x,1/2+y,1/2-z
1/2-x,1/2-y,-z
1/2+x,1/2+y,1/2-z
1/2-x,1/2+y,z
1/2+x,1/2-y,1/2+z
loop_
_atom_site_type_symbol
_atom_site_label
_atom_site_fract_x
_atom_site_fract_y
_atom_site_fract_z
Si Si1 0.788761 0.970177 0.600041
Si Si2 0.783594 0.590150 0.894190
Si Si3 0.792191 0.310640 0.750000
Si Si4 0.782889 0.272802 0.250000
Si Si5 0.780390 0.670064 0.965190
O O1 0.715630 0.969418 0.750000
O O2 0.772773 0.933125 0.519533
O O3 0.000000 0.978107 0.612818
O O4 0.710315 0.000000 0.500000
O O5 0.723044 0.575940 0.750000
O O6 0.726345 0.631526 0.908762
O O7 0.000000 0.589735 0.893347
O O8 0.785600 0.267526 0.750000
O O9 0.714638 0.324968 0.613793
O O10 0.000000 0.322077 0.750000
O O11 0.725402 0.296315 0.124129
O O12 0.000000 0.270795 0.250000
O O13 0.000000 0.670499 0.963900
#
# Coordination Sequence:
#
# PCOD9469450 Si02
#       5
#    16  16   8   8  16
#     4  10  22  40  61  85 115 150 184 220 271 331
#     4  10  20  36  59  85 112 146 190 233 274 325
#     4  10  20  32  50  76 105 136 179 227 272 325
#     4  10  18  34  54  72 101 140 179 221 272 327
#     4   9  18  33  53  76 104 141 180 221 273 327
#
# _framework density 22.780898000000001
#
# number of rings (size 3 to 8) (size 9 to 14) (size 15 to 20)
#    0.000    2.250    1.250    1.500    1.750    2.500 
#    0.000    2.500    0.000    0.000    0.000    0.000 
#    0.000    0.000    0.000    0.000    0.000    0.000 
#
# Total GULP energy -178795.192028 kJ/mol
# GULP energy per Si atom -5587.349751 kJ/mol
# Density = 2.272905 g / cm^3
# Si number density = 22.780898 Si / 1000 Ang^3
#
#
#
# Elastic Constant Matrix: (Units=GPa)
#
#
# Indices 1 2 3 4 5 6 
#
# 1 69.6542 -10.9250 9.4545 0.0000 0.0000 0.0000
# 2 -10.9250 70.7796 46.6863 0.0000 0.0000 0.0000
# 3 9.4545 46.6863 224.0607 0.0000 0.0000 0.0000
# 4 0.0000 0.0000 0.0000 34.5261 0.0000 0.0000
# 5 0.0000 0.0000 0.0000 0.0000 -10.0691 0.0000
# 6 0.0000 0.0000 0.0000 0.0000 0.0000 23.7506
#
#
#
# Elastic Compliance Matrix: (Units=1/GPa)
#
#
# Indices 1 2 3 4 5 6 
#
# 1 0.015030 0.003175 -0.001296 0.000000 0.000000 0.000000
# 2 0.003175 0.017050 -0.003687 0.000000 0.000000 0.000000
# 3 -0.001296 -0.003687 0.005286 0.000000 0.000000 0.000000
# 4 0.000000 0.000000 0.000000 0.028964 0.000000 0.000000
# 5 0.000000 0.000000 0.000000 0.000000 -0.099313 0.000000
# 6 0.000000 0.000000 0.000000 0.000000 0.000000 0.042104
#
#
# Mechanical properties :
#
#
# Convention : Reuss Voigt Hill
#
# Bulk Modulus (GPa) = 29.62868 50.54736 40.08802
# Shear Modulus (GPa) = 208.45000 30.92675 119.68838
#
# Velocity S-wave (km/s) = 9.57605 3.68852 7.25624
# Velocity P-wave (km/s) = 11.63193 6.35428 9.37227
#
# Compressibility (1/GPa) = 0.03375108
#
# Stress axis : x y z
#
# Youngs Moduli (GPa) = 66.53166 58.65082 189.18241
#
# Poissons Ratio (x) = -0.18619 0.24513
# Poissons Ratio (y) = -0.21121 0.69744
# Poissons Ratio (z) = 0.08621 0.21622
#
# Static dielectric constant tensor:
#      x y z
#    x 1.873330 0.000000 0.000000 
#    y 0.000000 1.794120 0.000000 
#    z 0.000000 0.000000 1.857120 
# 
# From -- ./inp_files/3206.got.cif
#   From: 2010.05.17/outbox.cif.g08.bks.cpg/sg63_2_cif.got.tgz:3206.got - 2010.06.03 15:47:04.
