data_PCOD9469877
_publ_section_title
;
Structure prediction by ZEFSAII (Michael W. Deem and Ramdas Pophale) SiO2 
 PCOD9469877
Probable space group: C M C M
;
_chemical_formula_sum "Si O2"
_cell_formula_units_Z 68
_cell_length_a 27.262518
_cell_length_b 10.970188
_cell_length_c 9.503123
_cell_angle_alpha 90.000000
_cell_angle_beta 90.000000
_cell_angle_gamma 90.000000
_cell_volume 2842.146015
_symmetry_space_group_name_H-M "C M C M"
_symmetry_group_IT_number 63
_symmetry_cell_setting 'orthorhombic'
loop_
_space_group_symop_operation_xyz
x,y,z
-x,-y,1/2+z
x,-y,-z
-x,y,1/2-z
-x,-y,-z
x,y,1/2-z
-x,y,z
x,-y,1/2+z
1/2+x,1/2+y,z
1/2-x,1/2-y,1/2+z
1/2+x,1/2-y,-z
1/2-x,1/2+y,1/2-z
1/2-x,1/2-y,-z
1/2+x,1/2+y,1/2-z
1/2-x,1/2+y,z
1/2+x,1/2-y,1/2+z
loop_
_atom_site_type_symbol
_atom_site_label
_atom_site_fract_x
_atom_site_fract_y
_atom_site_fract_z
Si Si1 0.276857 0.500000 0.000000
Si Si2 0.000000 0.870592 0.578121
Si Si3 0.420742 0.821302 0.969400
Si Si4 0.158050 0.934016 0.750000
Si Si5 0.844806 0.225768 0.750000
Si Si6 0.738002 0.158364 0.750000
Si Si7 0.376927 0.811995 0.250000
Si Si8 0.500000 0.909370 0.750000
O O1 0.310769 0.578710 0.105702
O O2 0.246558 0.418766 0.107710
O O3 0.046289 0.794353 0.518627
O O4 0.000000 0.876542 0.750000
O O5 0.000000 0.000000 0.500000
O O6 0.373221 0.779437 0.882531
O O7 0.457252 0.896731 0.872383
O O8 0.399928 0.873175 0.114098
O O9 0.115181 0.835712 0.750000
O O10 0.146436 0.078888 0.750000
O O11 0.785993 0.246978 0.750000
O O12 0.681597 0.190359 0.750000
#
# Coordination Sequence:
#
# PCOD9469877 Si02
#       8
#     8   8  16   8   8   8   8   4
#     4   8  18  38  52  68 106 152 186 214 272 330
#     4  11  24  35  47  73 107 150 198 236 264 303
#     4  10  21  35  51  75 107 151 192 229 265 320
#     4  10  19  30  49  75 106 149 185 233 263 306
#     4   9  20  35  51  73 110 153 198 217 264 323
#     4  10  21  38  54  80 109 144 180 233 278 331
#     4  12  22  31  55  84 111 139 188 235 278 320
#     4   8  20  40  50  64 108 140 182 218 272 318
#
# _framework density 23.925583
#
# number of rings (size 3 to 8) (size 9 to 14) (size 15 to 20)
#    0.000    2.353    1.176    2.824    8.235    3.765 
#    0.000    3.529    0.000    0.000    0.000    0.000 
#    0.000   24.471    0.000    0.000    0.000    0.000 
#
# Total GULP energy -189447.409943 kJ/mol
# GULP energy per Si atom -5571.982645 kJ/mol
# Density = 2.387113 g / cm^3
# Si number density = 23.925583 Si / 1000 Ang^3
#
#
#
# Elastic Constant Matrix: (Units=GPa)
#
#
# Indices 1 2 3 4 5 6 
#
# 1 182.1212 37.9790 83.2418 0.0000 0.0000 0.0000
# 2 37.9790 50.4505 39.5541 0.0000 0.0000 0.0000
# 3 83.2418 39.5541 236.1919 0.0000 0.0000 0.0000
# 4 0.0000 0.0000 0.0000 -2.5661 0.0000 0.0000
# 5 0.0000 0.0000 0.0000 0.0000 33.7147 0.0000
# 6 0.0000 0.0000 0.0000 0.0000 0.0000 20.3288
#
#
#
# Elastic Compliance Matrix: (Units=1/GPa)
#
#
# Indices 1 2 3 4 5 6 
#
# 1 0.007163 -0.003929 -0.001867 0.000000 0.000000 0.000000
# 2 -0.003929 0.024972 -0.002797 0.000000 0.000000 0.000000
# 3 -0.001867 -0.002797 0.005360 0.000000 0.000000 0.000000
# 4 0.000000 0.000000 0.000000 -0.389702 0.000000 0.000000
# 5 0.000000 0.000000 0.000000 0.000000 0.029661 0.000000
# 6 0.000000 0.000000 0.000000 0.000000 0.000000 0.049191
#
#
# Mechanical properties :
#
#
# Convention : Reuss Voigt Hill
#
# Bulk Modulus (GPa) = 49.23711 87.81262 68.52487
# Shear Modulus (GPa) = -20.04827 30.82807 5.38990
#
# Velocity S-wave (km/s) = -2.89786 3.59346 1.50255
# Velocity P-wave (km/s) = 3.07036 7.34842 5.63145
#
# Compressibility (1/GPa) = 0.02030988
#
# Stress axis : x y z
#
# Youngs Moduli (GPa) = 139.59870 40.04425 186.56187
#
# Poissons Ratio (x) = 0.15734 0.34824
# Poissons Ratio (y) = 0.54850 0.52186
# Poissons Ratio (z) = 0.26058 0.11201
#
# Static dielectric constant tensor:
#      x y z
#    x 1.882020 0.000000 0.000000 
#    y 0.000000 2.012800 0.000000 
#    z 0.000000 0.000000 1.894880 
# 
# From -- ./inp_files/9929.got.cif
#   From: 2010.05.17/outbox.cif.g08.bks.cpg/sg63_5_cif.got.tgz:9929.got - 2010.06.03 15:47:04.
