data_PCOD9469786
_publ_section_title
;
Structure prediction by ZEFSAII (Michael W. Deem and Ramdas Pophale) SiO2 
 PCOD9469786
Probable space group: C M C M
;
_chemical_formula_sum "Si O2"
_cell_formula_units_Z 112
_cell_length_a 27.653683
_cell_length_b 14.796583
_cell_length_c 17.559784
_cell_angle_alpha 90.000000
_cell_angle_beta 90.000000
_cell_angle_gamma 90.000000
_cell_volume 7185.112694
_symmetry_space_group_name_H-M "C M C M"
_symmetry_group_IT_number 63
_symmetry_cell_setting 'orthorhombic'
loop_
_space_group_symop_operation_xyz
x,y,z
-x,-y,1/2+z
x,-y,-z
-x,y,1/2-z
-x,-y,-z
x,y,1/2-z
-x,y,z
x,-y,1/2+z
1/2+x,1/2+y,z
1/2-x,1/2-y,1/2+z
1/2+x,1/2-y,-z
1/2-x,1/2+y,1/2-z
1/2-x,1/2-y,-z
1/2+x,1/2+y,1/2-z
1/2-x,1/2+y,z
1/2+x,1/2-y,1/2+z
loop_
_atom_site_type_symbol
_atom_site_label
_atom_site_fract_x
_atom_site_fract_y
_atom_site_fract_z
Si Si1 0.944614 0.767210 0.837244
Si Si2 0.351184 0.051550 0.923364
Si Si3 0.266835 0.655568 0.339766
Si Si4 0.554207 0.047375 0.661901
Si Si5 0.212220 0.217250 0.934743
Si Si6 0.753048 0.449622 0.160600
Si Si7 0.355197 0.733474 0.063699
O O1 0.931415 0.793238 0.750000
O O2 0.944394 0.657280 0.838408
O O3 0.905692 0.797838 0.899617
O O4 0.000000 0.795687 0.851563
O O5 0.402184 0.016101 0.891177
O O6 0.309569 0.044138 0.860333
O O7 0.356028 0.157908 0.940253
O O8 0.336687 0.000000 0.000000
O O9 0.267667 0.669755 0.250000
O O10 0.218644 0.701711 0.374506
O O11 0.268044 0.548906 0.355573
O O12 0.313171 0.702870 0.377829
O O13 0.561361 0.019988 0.750000
O O14 0.500000 0.020080 0.638001
O O15 0.230013 0.127054 0.892767
O O16 0.250000 0.250000 0.000000
O O17 0.162448 0.202897 0.980088
O O18 0.746743 0.428290 0.250000
#
# Coordination Sequence:
#
# PCOD9469786 Si02
#       7
#    16  16  16  16  16  16  16
#     4   8  14  26  46  70  94 120 156 199 243 295
#     4  11  20  29  46  67  96 129 165 200 246 293
#     4  10  20  32  48  69  94 127 168 206 242 290
#     4   8  15  28  44  63  89 124 164 203 242 285
#     4  10  19  31  46  67  94 130 161 196 240 289
#     4  11  22  33  48  69  96 130 169 206 241 289
#     4  10  19  30  46  68  94 129 155 197 247 292
#
# _framework density 15.587785999999999
#
# number of rings (size 3 to 8) (size 9 to 14) (size 15 to 20)
#    0.000    2.286    2.857    3.000    2.000    1.429 
#    0.000    0.000    0.000    0.000    0.000    2.000 
#    0.000    3.429    0.000    0.000    0.000    3.143 
#
# Total GULP energy -311815.013587 kJ/mol
# GULP energy per Si atom -5568.125243 kJ/mol
# Density = 1.555231 g / cm^3
# Si number density = 15.587786 Si / 1000 Ang^3
#
#
#
# Elastic Constant Matrix: (Units=GPa)
#
#
# Indices 1 2 3 4 5 6 
#
# 1 77.7271 17.9078 42.2046 0.0000 0.0000 0.0000
# 2 17.9078 57.0269 46.4770 0.0000 0.0000 0.0000
# 3 42.2046 46.4770 82.2698 0.0000 0.0000 0.0000
# 4 0.0000 0.0000 0.0000 21.4005 0.0000 0.0000
# 5 0.0000 0.0000 0.0000 0.0000 28.3703 0.0000
# 6 0.0000 0.0000 0.0000 0.0000 0.0000 11.4886
#
#
#
# Elastic Compliance Matrix: (Units=1/GPa)
#
#
# Indices 1 2 3 4 5 6 
#
# 1 0.018205 0.003511 -0.011323 0.000000 0.000000 0.000000
# 2 0.003511 0.033176 -0.020544 0.000000 0.000000 0.000000
# 3 -0.011323 -0.020544 0.029569 0.000000 0.000000 0.000000
# 4 0.000000 0.000000 0.000000 0.046728 0.000000 0.000000
# 5 0.000000 0.000000 0.000000 0.000000 0.035248 0.000000
# 6 0.000000 0.000000 0.000000 0.000000 0.000000 0.087043
#
#
# Mechanical properties :
#
#
# Convention : Reuss Voigt Hill
#
# Bulk Modulus (GPa) = 41.25377 47.80028 44.52702
# Shear Modulus (GPa) = 15.88516 19.61416 17.74966
#
# Velocity S-wave (km/s) = 3.19576 3.55110 3.37811
# Velocity P-wave (km/s) = 6.33562 6.89533 6.62139
#
# Compressibility (1/GPa) = 0.02424021
#
# Stress axis : x y z
#
# Youngs Moduli (GPa) = 54.93123 30.14226 33.81867
#
# Poissons Ratio (x) = -0.10584 0.38292
# Poissons Ratio (y) = -0.19288 0.69476
# Poissons Ratio (z) = 0.62197 0.61923
#
# Static dielectric constant tensor:
#      x y z
#    x 1.545260 0.000000 0.000000 
#    y 0.000000 1.515320 0.000000 
#    z 0.000000 0.000000 1.557760 
# 
# From -- ./inp_files/38687.got.cif
#   From: 2010.05.17/outbox.cif.g08.bks.cpg/sg63_20_cif.got.tgz:38687.got - 2010.06.03 15:47:04.
