data_PCOD9469672
_publ_section_title
;
Structure prediction by ZEFSAII (Michael W. Deem and Ramdas Pophale) SiO2 
 PCOD9469672
Probable space group: C M C M
;
_chemical_formula_sum "Si O2"
_cell_formula_units_Z 128
_cell_length_a 26.010475
_cell_length_b 17.615029
_cell_length_c 18.063711
_cell_angle_alpha 90.000000
_cell_angle_beta 90.000000
_cell_angle_gamma 90.000000
_cell_volume 8276.345690
_symmetry_space_group_name_H-M "C M C M"
_symmetry_group_IT_number 63
_symmetry_cell_setting 'orthorhombic'
loop_
_space_group_symop_operation_xyz
x,y,z
-x,-y,1/2+z
x,-y,-z
-x,y,1/2-z
-x,-y,-z
x,y,1/2-z
-x,y,z
x,-y,1/2+z
1/2+x,1/2+y,z
1/2-x,1/2-y,1/2+z
1/2+x,1/2-y,-z
1/2-x,1/2+y,1/2-z
1/2-x,1/2-y,-z
1/2+x,1/2+y,1/2-z
1/2-x,1/2+y,z
1/2+x,1/2-y,1/2+z
loop_
_atom_site_type_symbol
_atom_site_label
_atom_site_fract_x
_atom_site_fract_y
_atom_site_fract_z
Si Si1 0.294690 0.087031 0.475870
Si Si2 0.353930 0.796410 0.062934
Si Si3 0.196331 0.823983 0.453278
Si Si4 0.846530 0.021872 0.914005
Si Si5 0.940479 0.942965 0.662167
Si Si6 0.438655 0.736363 0.335702
Si Si7 0.232862 0.254263 0.334032
Si Si8 0.260656 0.579517 0.165827
O O1 0.342773 0.131276 0.511062
O O2 0.244128 0.132457 0.506646
O O3 0.288495 0.084684 0.387573
O O4 0.292711 0.000000 0.500000
O O5 0.408191 0.782164 0.101688
O O6 0.314372 0.800392 0.131849
O O7 0.335128 0.724685 0.013073
O O8 0.163178 0.888407 0.413222
O O9 0.221190 0.769459 0.391576
O O10 0.900327 0.994010 0.881413
O O11 0.801681 0.977565 0.870045
O O12 0.843335 0.000000 0.000000
O O13 0.935801 0.957510 0.750000
O O14 0.928521 0.853528 0.651641
O O15 0.000000 0.955403 0.640947
O O16 0.423085 0.753231 0.250000
O O17 0.500000 0.747270 0.340155
O O18 0.245543 0.275871 0.250000
O O19 0.217847 0.165523 0.333688
O O20 0.249361 0.557805 0.250000
#
# Coordination Sequence:
#
# PCOD9469672 Si02
#       8
#    16  16  16  16  16  16  16  16
#     4  11  19  35  48  69 101 130 159 201 241 291
#     4  11  19  32  51  70  96 132 162 199 251 289
#     4  11  19  31  46  66 101 130 165 202 236 282
#     4  12  20  30  47  68  95 131 169 201 242 283
#     4   9  19  34  49  69  98 130 167 209 249 288
#     4   9  18  33  53  77 101 124 157 204 254 300
#     4  10  19  29  44  67  94 127 166 198 234 285
#     4  11  19  31  47  65  94 131 163 193 238 292
#
# _framework density 15.465762
#
# number of rings (size 3 to 8) (size 9 to 14) (size 15 to 20)
#    0.000    1.500    5.000    3.750    0.000    3.250 
#    0.000    1.250    0.000    0.375    0.000    0.000 
#    0.000    1.500    0.000    0.250    0.000    0.000 
#
# Total GULP energy -356844.840724 kJ/mol
# GULP energy per Si atom -5575.700636 kJ/mol
# Density = 1.543056 g / cm^3
# Si number density = 15.465762 Si / 1000 Ang^3
#
#
#
# Elastic Constant Matrix: (Units=GPa)
#
#
# Indices 1 2 3 4 5 6 
#
# 1 57.3519 26.5037 43.7456 0.0000 0.0000 0.0000
# 2 26.5037 70.6443 39.0934 0.0000 0.0000 0.0000
# 3 43.7456 39.0934 115.4740 0.0000 0.0000 0.0000
# 4 0.0000 0.0000 0.0000 19.9155 0.0000 0.0000
# 5 0.0000 0.0000 0.0000 0.0000 28.5736 0.0000
# 6 0.0000 0.0000 0.0000 0.0000 0.0000 22.8509
#
#
#
# Elastic Compliance Matrix: (Units=1/GPa)
#
#
# Indices 1 2 3 4 5 6 
#
# 1 0.026043 -0.005305 -0.008070 0.000000 0.000000 0.000000
# 2 -0.005305 0.018499 -0.004253 0.000000 0.000000 0.000000
# 3 -0.008070 -0.004253 0.013157 0.000000 0.000000 0.000000
# 4 0.000000 0.000000 0.000000 0.050212 0.000000 0.000000
# 5 0.000000 0.000000 0.000000 0.000000 0.034997 0.000000
# 6 0.000000 0.000000 0.000000 0.000000 0.000000 0.043762
#
#
# Mechanical properties :
#
#
# Convention : Reuss Voigt Hill
#
# Bulk Modulus (GPa) = 44.55673 51.35064 47.95369
# Shear Modulus (GPa) = 21.79516 23.20983 22.50250
#
# Velocity S-wave (km/s) = 3.75807 3.87812 3.81857
# Velocity P-wave (km/s) = 6.90676 7.30260 7.10743
#
# Compressibility (1/GPa) = 0.02244330
#
# Stress axis : x y z
#
# Youngs Moduli (GPa) = 38.39760 54.05612 76.00428
#
# Poissons Ratio (x) = 0.28676 0.61337
# Poissons Ratio (y) = 0.20369 0.32326
# Poissons Ratio (z) = 0.30988 0.22991
#
# Static dielectric constant tensor:
#      x y z
#    x 1.513790 0.000000 0.000000 
#    y 0.000000 1.543210 0.000000 
#    z 0.000000 0.000000 1.536170 
# 
# From -- ./inp_files/48438.got.cif
#   From: 2010.05.17/outbox.cif.g08.bks.cpg/sg63_25_cif.got.tgz:48438.got - 2010.06.03 15:47:04.
