data_PCOD9469850
_publ_section_title
;
Structure prediction by ZEFSAII (Michael W. Deem and Ramdas Pophale) SiO2 
 PCOD9469850
Probable space group: C M C M
;
_chemical_formula_sum "Si O2"
_cell_formula_units_Z 112
_cell_length_a 27.614293
_cell_length_b 16.556481
_cell_length_c 14.174046
_cell_angle_alpha 90.000000
_cell_angle_beta 90.000000
_cell_angle_gamma 90.000000
_cell_volume 6480.310294
_symmetry_space_group_name_H-M "C M C M"
_symmetry_group_IT_number 63
_symmetry_cell_setting 'orthorhombic'
loop_
_space_group_symop_operation_xyz
x,y,z
-x,-y,1/2+z
x,-y,-z
-x,y,1/2-z
-x,-y,-z
x,y,1/2-z
-x,y,z
x,-y,1/2+z
1/2+x,1/2+y,z
1/2-x,1/2-y,1/2+z
1/2+x,1/2-y,-z
1/2-x,1/2+y,1/2-z
1/2-x,1/2-y,-z
1/2+x,1/2+y,1/2-z
1/2-x,1/2+y,z
1/2+x,1/2-y,1/2+z
loop_
_atom_site_type_symbol
_atom_site_label
_atom_site_fract_x
_atom_site_fract_y
_atom_site_fract_z
Si Si1 0.206634 0.412369 0.977515
Si Si2 0.790358 0.135602 0.141906
Si Si3 0.056699 0.964548 0.357837
Si Si4 0.943438 0.797415 0.039823
Si Si5 0.851965 0.277808 0.863853
Si Si6 0.900418 0.140241 0.138241
Si Si7 0.242757 0.813684 0.142424
O O1 0.255235 0.422583 0.914948
O O2 0.170556 0.354444 0.919169
O O3 0.185703 0.500000 0.000000
O O4 0.227088 0.367158 0.070033
O O5 0.793170 0.108369 0.250000
O O6 0.844732 0.146061 0.107433
O O7 0.765775 0.223830 0.139064
O O8 0.065765 0.938127 0.250000
O O9 0.065945 0.888777 0.423690
O O10 0.000000 0.985476 0.366761
O O11 0.084801 0.046907 0.374381
O O12 0.904575 0.743169 0.094997
O O13 0.000000 0.778433 0.057606
O O14 0.931902 0.802479 0.928652
O O15 0.852381 0.290296 0.750000
O O16 0.813613 0.204096 0.881447
O O17 0.904870 0.159106 0.250000
O O18 0.245905 0.843519 0.250000
#
# Coordination Sequence:
#
# PCOD9469850 Si02
#       7
#    16  16  16  16  16  16  16
#     4  11  21  33  53  78 105 134 167 208 258 312
#     4   9  18  33  51  73 102 137 173 203 236 291
#     4   9  18  31  45  66  98 134 172 213 255 297
#     4  11  21  33  52  74  97 133 182 227 265 310
#     4  10  21  38  56  75 102 134 170 214 261 307
#     4  10  19  30  47  73 109 146 175 209 254 304
#     4   9  18  33  53  74 101 135 167 203 246 299
#
# _framework density 17.283124000000001
#
# number of rings (size 3 to 8) (size 9 to 14) (size 15 to 20)
#    0.000    2.143    0.000    6.000    0.000    6.286 
#    0.000    2.857    0.000    0.429    0.000    0.000 
#    0.000    0.000    0.000    0.000    0.000    0.000 
#
# Total GULP energy -312360.235160 kJ/mol
# GULP energy per Si atom -5577.861342 kJ/mol
# Density = 1.724379 g / cm^3
# Si number density = 17.283124 Si / 1000 Ang^3
#
#
#
# Elastic Constant Matrix: (Units=GPa)
#
#
# Indices 1 2 3 4 5 6 
#
# 1 94.9265 33.7561 54.7844 0.0000 0.0000 0.0000
# 2 33.7561 32.2277 37.3631 0.0000 0.0000 0.0000
# 3 54.7844 37.3631 101.6807 0.0000 0.0000 0.0000
# 4 0.0000 0.0000 0.0000 7.4948 0.0000 0.0000
# 5 0.0000 0.0000 0.0000 0.0000 19.8690 0.0000
# 6 0.0000 0.0000 0.0000 0.0000 0.0000 143.4237
#
#
#
# Elastic Compliance Matrix: (Units=1/GPa)
#
#
# Indices 1 2 3 4 5 6 
#
# 1 0.018059 -0.013302 -0.004842 0.000000 0.000000 0.000000
# 2 -0.013302 0.063856 -0.016297 0.000000 0.000000 0.000000
# 3 -0.004842 -0.016297 0.018432 0.000000 0.000000 0.000000
# 4 0.000000 0.000000 0.000000 0.133426 0.000000 0.000000
# 5 0.000000 0.000000 0.000000 0.000000 0.050330 0.000000
# 6 0.000000 0.000000 0.000000 0.000000 0.000000 0.006972
#
#
# Mechanical properties :
#
#
# Convention : Reuss Voigt Hill
#
# Bulk Modulus (GPa) = 31.78167 53.40469 42.59318
# Shear Modulus (GPa) = 13.49720 41.01959 27.25839
#
# Velocity S-wave (km/s) = 2.79757 4.87703 3.97567
# Velocity P-wave (km/s) = 5.37252 7.91713 6.76553
#
# Compressibility (1/GPa) = 0.03146468
#
# Stress axis : x y z
#
# Youngs Moduli (GPa) = 55.37343 15.66016 54.25268
#
# Poissons Ratio (x) = 0.20831 0.26271
# Poissons Ratio (y) = 0.73656 0.88418
# Poissons Ratio (z) = 0.26813 0.25522
#
# Static dielectric constant tensor:
#      x y z
#    x 1.597780 0.000000 0.000000 
#    y 0.000000 1.581020 0.000000 
#    z 0.000000 0.000000 1.659480 
# 
# From -- ./inp_files/37972.got.cif
#   From: 2010.05.17/outbox.cif.g08.bks.cpg/sg63_19_cif.got.tgz:37972.got - 2010.06.03 15:47:04.
