data_PCOD9469306
_publ_section_title
;
Structure prediction by ZEFSAII (Michael W. Deem and Ramdas Pophale) SiO2 
 PCOD9469306
Probable space group: C M C M
;
_chemical_formula_sum "Si O2"
_cell_formula_units_Z 96
_cell_length_a 7.420531
_cell_length_b 20.472223
_cell_length_c 28.655376
_cell_angle_alpha 90.000000
_cell_angle_beta 90.000000
_cell_angle_gamma 90.000000
_cell_volume 4353.174723
_symmetry_space_group_name_H-M "C M C M"
_symmetry_group_IT_number 63
_symmetry_cell_setting 'orthorhombic'
loop_
_space_group_symop_operation_xyz
x,y,z
-x,-y,1/2+z
x,-y,-z
-x,y,1/2-z
-x,-y,-z
x,y,1/2-z
-x,y,z
x,-y,1/2+z
1/2+x,1/2+y,z
1/2-x,1/2-y,1/2+z
1/2+x,1/2-y,-z
1/2-x,1/2+y,1/2-z
1/2-x,1/2-y,-z
1/2+x,1/2+y,1/2-z
1/2-x,1/2+y,z
1/2+x,1/2-y,1/2+z
loop_
_atom_site_type_symbol
_atom_site_label
_atom_site_fract_x
_atom_site_fract_y
_atom_site_fract_z
Si Si1 0.790667 0.285564 0.096715
Si Si2 0.220148 0.153764 0.448006
Si Si3 0.720285 0.526550 0.395761
Si Si4 0.795177 0.909014 0.043249
Si Si5 0.780654 0.959404 0.301506
Si Si6 0.217096 0.807628 0.198628
O O1 0.716888 0.225525 0.066429
O O2 0.701073 0.354059 0.083452
O O3 0.776052 0.271629 0.151786
O O4 0.000000 0.294309 0.085426
O O5 0.283354 0.126203 0.497800
O O6 0.000000 0.157648 0.449056
O O7 0.270837 0.099320 0.410064
O O8 0.500000 0.523694 0.395940
O O9 0.783826 0.474636 0.434871
O O10 0.780576 0.501757 0.345255
O O11 0.000000 0.926026 0.029759
O O12 0.724975 0.982457 0.250000
O O13 0.725434 0.883565 0.306102
O O14 0.000000 0.959342 0.302201
O O15 0.277036 0.784236 0.250000
O O16 0.000000 0.806936 0.198737
#
# Coordination Sequence:
#
# PCOD9469306 Si02
#       6
#    16  16  16  16  16  16
#     4  11  21  32  47  73 109 136 158 196 251 308
#     4   9  19  31  45  71 104 133 163 206 255 297
#     4   9  15  27  49  74  96 122 164 214 254 285
#     4  10  18  32  54  73  92 129 179 216 241 280
#     4   8  13  23  44  74  97 112 147 205 251 280
#     4   9  17  32  54  77  97 123 167 211 241 282
#
# _framework density 22.052871
#
# number of rings (size 3 to 8) (size 9 to 14) (size 15 to 20)
#    0.000    2.667    1.667    2.500    0.000    2.333 
#    0.000    1.667    0.000    7.000    0.000    0.000 
#    0.000    0.000    0.000    0.000    0.000    0.000 
#
# Total GULP energy -267988.534422 kJ/mol
# GULP energy per Si atom -5583.094467 kJ/mol
# Density = 2.200268 g / cm^3
# Si number density = 22.052871 Si / 1000 Ang^3
#
#
#
# Elastic Constant Matrix: (Units=GPa)
#
#
# Indices 1 2 3 4 5 6 
#
# 1 74.4543 -0.3669 -4.6420 0.0000 0.0000 0.0000
# 2 -0.3669 46.2769 -16.2503 0.0000 0.0000 0.0000
# 3 -4.6420 -16.2503 90.0367 0.0000 0.0000 0.0000
# 4 0.0000 0.0000 0.0000 14.9428 0.0000 0.0000
# 5 0.0000 0.0000 0.0000 0.0000 6.9202 0.0000
# 6 0.0000 0.0000 0.0000 0.0000 0.0000 -6.3950
#
#
#
# Elastic Compliance Matrix: (Units=1/GPa)
#
#
# Indices 1 2 3 4 5 6 
#
# 1 0.013480 0.000375 0.000763 0.000000 0.000000 0.000000
# 2 0.000375 0.023082 0.004185 0.000000 0.000000 0.000000
# 3 0.000763 0.004185 0.011901 0.000000 0.000000 0.000000
# 4 0.000000 0.000000 0.000000 0.066922 0.000000 0.000000
# 5 0.000000 0.000000 0.000000 0.000000 0.144504 0.000000
# 6 0.000000 0.000000 0.000000 0.000000 0.000000 -0.156373
#
#
# Mechanical properties :
#
#
# Convention : Reuss Voigt Hill
#
# Bulk Modulus (GPa) = 16.91804 18.69438 17.80621
# Shear Modulus (GPa) = 44.41522 18.56209 31.48866
#
# Velocity S-wave (km/s) = 4.49267 2.90437 3.78282
# Velocity P-wave (km/s) = 5.88220 4.44327 5.21263
#
# Compressibility (1/GPa) = 0.05910850
#
# Stress axis : x y z
#
# Youngs Moduli (GPa) = 74.18154 43.32441 84.02459
#
# Poissons Ratio (x) = -0.01623 -0.06408
# Poissons Ratio (y) = -0.02780 -0.35166
# Poissons Ratio (z) = -0.05657 -0.18132
#
# Static dielectric constant tensor:
#      x y z
#    x 1.886670 0.000000 0.000000 
#    y 0.000000 1.750750 0.000000 
#    z 0.000000 0.000000 1.828980 
# 
# From -- ./inp_files/66937.got.cif
#   From: 2010.05.17/outbox.cif.g08.bks.cpg/sg63_34_cif.got.tgz:66937.got - 2010.06.03 15:47:04.
