data_PCOD9469544
_publ_section_title
;
Structure prediction by ZEFSAII (Michael W. Deem and Ramdas Pophale) SiO2 
 PCOD9469544
Probable space group: C M C M
;
_chemical_formula_sum "Si O2"
_cell_formula_units_Z 92
_cell_length_a 11.812272
_cell_length_b 24.235895
_cell_length_c 19.854107
_cell_angle_alpha 90.000000
_cell_angle_beta 90.000000
_cell_angle_gamma 90.000000
_cell_volume 5683.853286
_symmetry_space_group_name_H-M "C M C M"
_symmetry_group_IT_number 63
_symmetry_cell_setting 'orthorhombic'
loop_
_space_group_symop_operation_xyz
x,y,z
-x,-y,1/2+z
x,-y,-z
-x,y,1/2-z
-x,-y,-z
x,y,1/2-z
-x,y,z
x,-y,1/2+z
1/2+x,1/2+y,z
1/2-x,1/2-y,1/2+z
1/2+x,1/2-y,-z
1/2-x,1/2+y,1/2-z
1/2-x,1/2-y,-z
1/2+x,1/2+y,1/2-z
1/2-x,1/2+y,z
1/2+x,1/2-y,1/2+z
loop_
_atom_site_type_symbol
_atom_site_label
_atom_site_fract_x
_atom_site_fract_y
_atom_site_fract_z
Si Si1 0.125113 0.726560 0.173003
Si Si2 0.500000 0.953763 0.250000
Si Si3 0.306187 0.113781 0.110717
Si Si4 0.297321 0.792725 0.406315
Si Si5 0.000000 0.563784 0.481519
Si Si6 0.132463 0.177124 0.027207
Si Si7 0.500000 0.126986 0.622518
Si Si8 0.131167 0.562496 0.250000
O O1 0.138582 0.708276 0.250000
O O2 0.138021 0.673511 0.125639
O O3 0.218801 0.769973 0.152857
O O4 0.000000 0.750119 0.164282
O O5 0.500000 0.915793 0.184020
O O6 0.605669 0.996892 0.250000
O O7 0.389606 0.080636 0.061623
O O8 0.187496 0.130943 0.076528
O O9 0.306891 0.082578 0.182415
O O10 0.214590 0.819613 0.462240
O O11 0.354748 0.738167 0.439376
O O12 0.390090 0.834239 0.378761
O O13 0.000000 0.500000 0.500000
O O14 0.000000 0.596381 0.551110
O O15 0.000000 0.167456 0.012929
O O16 0.000000 0.585914 0.250000
#
# Coordination Sequence:
#
# PCOD9469544 Si02
#       8
#    16   4  16  16   8  16   8   8
#     4  10  19  31  52  82 110 151 192 226 275 338
#     4  10  26  38  60  80 120 146 188 238 308 356
#     4  11  19  33  58  84 116 140 186 247 282 336
#     4  10  21  32  54  78 120 152 187 225 279 355
#     4  12  22  35  59  90 108 139 193 244 297 332
#     4  10  20  35  53  83 115 157 188 226 284 348
#     4  12  22  40  53  87 115 157 179 235 300 346
#     4  10  18  36  56  84 106 144 183 242 299 335
#
# _framework density 16.186202999999999
#
# number of rings (size 3 to 8) (size 9 to 14) (size 15 to 20)
#    0.261    1.217    5.217    1.565    1.217    0.000 
#    0.000    0.435    0.000    0.522    0.000    2.435 
#    0.000    0.000    0.000    0.000    0.000    0.000 
#
# Total GULP energy -256475.779473 kJ/mol
# GULP energy per Si atom -5575.560423 kJ/mol
# Density = 1.614936 g / cm^3
# Si number density = 16.186203 Si / 1000 Ang^3
#
#
#
# Elastic Constant Matrix: (Units=GPa)
#
#
# Indices 1 2 3 4 5 6 
#
# 1 113.8323 52.4676 40.9810 0.0000 0.0000 0.0000
# 2 52.4676 97.6119 44.8874 0.0000 0.0000 0.0000
# 3 40.9810 44.8874 85.3624 0.0000 0.0000 0.0000
# 4 0.0000 0.0000 0.0000 29.4446 0.0000 0.0000
# 5 0.0000 0.0000 0.0000 0.0000 19.7844 0.0000
# 6 0.0000 0.0000 0.0000 0.0000 0.0000 21.7420
#
#
#
# Elastic Compliance Matrix: (Units=1/GPa)
#
#
# Indices 1 2 3 4 5 6 
#
# 1 0.012309 -0.005142 -0.003205 0.000000 0.000000 0.000000
# 2 -0.005142 0.015660 -0.005766 0.000000 0.000000 0.000000
# 3 -0.003205 -0.005766 0.016286 0.000000 0.000000 0.000000
# 4 0.000000 0.000000 0.000000 0.033962 0.000000 0.000000
# 5 0.000000 0.000000 0.000000 0.000000 0.050545 0.000000
# 6 0.000000 0.000000 0.000000 0.000000 0.000000 0.045994
#
#
# Mechanical properties :
#
#
# Convention : Reuss Voigt Hill
#
# Bulk Modulus (GPa) = 62.39281 63.71985 63.05633
# Shear Modulus (GPa) = 24.00088 24.75892 24.37990
#
# Velocity S-wave (km/s) = 3.85489 3.91529 3.88521
# Velocity P-wave (km/s) = 7.64488 7.73897 7.69207
#
# Compressibility (1/GPa) = 0.01602749
#
# Stress axis : x y z
#
# Youngs Moduli (GPa) = 81.24169 63.85577 61.40364
#
# Poissons Ratio (x) = 0.32836 0.19682
# Poissons Ratio (y) = 0.41776 0.35407
# Poissons Ratio (z) = 0.26040 0.36820
#
# Static dielectric constant tensor:
#      x y z
#    x 1.533680 0.000000 0.000000 
#    y 0.000000 1.538860 0.000000 
#    z 0.000000 0.000000 1.562700 
# 
# From -- ./inp_files/42598.got.cif
#   From: 2010.05.17/outbox.cif.g08.bks.cpg/sg63_22_cif.got.tgz:42598.got - 2010.06.03 15:47:04.
