data_PCOD9469693
_publ_section_title
;
Structure prediction by ZEFSAII (Michael W. Deem and Ramdas Pophale) SiO2 
 PCOD9469693
Probable space group: C M C M
;
_chemical_formula_sum "Si O2"
_cell_formula_units_Z 96
_cell_length_a 9.520454
_cell_length_b 14.234509
_cell_length_c 31.665468
_cell_angle_alpha 90.000000
_cell_angle_beta 90.000000
_cell_angle_gamma 90.000000
_cell_volume 4291.272183
_symmetry_space_group_name_H-M "C M C M"
_symmetry_group_IT_number 63
_symmetry_cell_setting 'orthorhombic'
loop_
_space_group_symop_operation_xyz
x,y,z
-x,-y,1/2+z
x,-y,-z
-x,y,1/2-z
-x,-y,-z
x,y,1/2-z
-x,y,z
x,-y,1/2+z
1/2+x,1/2+y,z
1/2-x,1/2-y,1/2+z
1/2+x,1/2-y,-z
1/2-x,1/2+y,1/2-z
1/2-x,1/2-y,-z
1/2+x,1/2+y,1/2-z
1/2-x,1/2+y,z
1/2+x,1/2-y,1/2+z
loop_
_atom_site_type_symbol
_atom_site_label
_atom_site_fract_x
_atom_site_fract_y
_atom_site_fract_z
Si Si1 0.340688 0.400553 0.111489
Si Si2 0.160780 0.622314 0.533156
Si Si3 0.660441 0.349816 0.952064
Si Si4 0.161549 0.940830 0.296048
Si Si5 0.343986 0.666710 0.297693
Si Si6 0.655762 0.818027 0.624146
O O1 0.500000 0.440922 0.110112
O O2 0.243380 0.424562 0.072027
O O3 0.275918 0.417208 0.158154
O O4 0.356976 0.288254 0.107996
O O5 0.245190 0.610256 0.489769
O O6 0.156529 0.735970 0.541043
O O7 0.000000 0.590857 0.530628
O O8 0.500000 0.382764 0.953960
O O9 0.733621 0.366953 0.906934
O O10 0.222457 0.912983 0.250000
O O11 0.000000 0.904417 0.297208
O O12 0.153854 0.053630 0.295719
O O13 0.321985 0.700669 0.250000
O O14 0.500000 0.697737 0.312223
O O15 0.221660 0.690823 0.329635
O O16 0.500000 0.860796 0.624145
#
# Coordination Sequence:
#
# PCOD9469693 Si02
#       6
#    16  16  16  16  16  16
#     4   9  17  29  47  71  96 122 155 193 232 275
#     4   9  16  26  42  66  96 125 153 188 231 276
#     4   9  16  27  44  65  92 126 160 190 223 270
#     4   8  15  30  51  70  88 118 161 199 227 266
#     4   9  18  33  51  68  89 122 161 195 229 274
#     4  10  19  29  45  72 101 124 150 190 238 280
#
# _framework density 22.370987
#
# number of rings (size 3 to 8) (size 9 to 14) (size 15 to 20)
#    0.000    3.000    0.000    2.500    0.000    5.667 
#    0.000    2.500    0.000    2.500    0.000    7.000 
#    0.000    0.000    0.000    0.000    0.000    0.000 
#
# Total GULP energy -267842.623495 kJ/mol
# GULP energy per Si atom -5580.054656 kJ/mol
# Density = 2.232007 g / cm^3
# Si number density = 22.370987 Si / 1000 Ang^3
#
#
#
# Elastic Constant Matrix: (Units=GPa)
#
#
# Indices 1 2 3 4 5 6 
#
# 1 162.8771 -3.6525 88.6111 0.0000 0.0000 0.0000
# 2 -3.6525 44.3962 -8.0153 0.0000 0.0000 0.0000
# 3 88.6111 -8.0153 142.7557 0.0000 0.0000 0.0000
# 4 0.0000 0.0000 0.0000 28.8148 0.0000 0.0000
# 5 0.0000 0.0000 0.0000 0.0000 22.0964 0.0000
# 6 0.0000 0.0000 0.0000 0.0000 0.0000 1.4265
#
#
#
# Elastic Compliance Matrix: (Units=1/GPa)
#
#
# Indices 1 2 3 4 5 6 
#
# 1 0.009273 -0.000279 -0.005772 0.000000 0.000000 0.000000
# 2 -0.000279 0.022763 0.001451 0.000000 0.000000 0.000000
# 3 -0.005772 0.001451 0.010669 0.000000 0.000000 0.000000
# 4 0.000000 0.000000 0.000000 0.034704 0.000000 0.000000
# 5 0.000000 0.000000 0.000000 0.000000 0.045256 0.000000
# 6 0.000000 0.000000 0.000000 0.000000 0.000000 0.700995
#
#
# Mechanical properties :
#
#
# Convention : Reuss Voigt Hill
#
# Bulk Modulus (GPa) = 29.84465 55.99064 42.91765
# Shear Modulus (GPa) = 5.92396 28.67325 17.29861
#
# Velocity S-wave (km/s) = 1.62905 3.58399 2.78377
# Velocity P-wave (km/s) = 4.11195 6.49686 5.43679
#
# Compressibility (1/GPa) = 0.03350684
#
# Stress axis : x y z
#
# Youngs Moduli (GPa) = 107.83473 43.92998 93.72797
#
# Poissons Ratio (x) = 0.01226 0.54099
# Poissons Ratio (y) = 0.03010 -0.13603
# Poissons Ratio (z) = 0.62241 -0.06376
#
# Static dielectric constant tensor:
#      x y z
#    x 1.802780 0.000000 0.000000 
#    y 0.000000 1.877830 0.000000 
#    z 0.000000 0.000000 1.835990 
# 
# From -- ./inp_files/66921.got.cif
#   From: 2010.05.17/outbox.cif.g08.bks.cpg/sg63_34_cif.got.tgz:66921.got - 2010.06.03 15:47:04.
