data_PCOD9469184
_publ_section_title
;
Structure prediction by ZEFSAII (Michael W. Deem and Ramdas Pophale) SiO2 
 PCOD9469184
Probable space group: C M C M
;
_chemical_formula_sum "Si O2"
_cell_formula_units_Z 96
_cell_length_a 8.628556
_cell_length_b 24.286316
_cell_length_c 25.910801
_cell_angle_alpha 90.000000
_cell_angle_beta 90.000000
_cell_angle_gamma 90.000000
_cell_volume 5429.759607
_symmetry_space_group_name_H-M "C M C M"
_symmetry_group_IT_number 63
_symmetry_cell_setting 'orthorhombic'
loop_
_space_group_symop_operation_xyz
x,y,z
-x,-y,1/2+z
x,-y,-z
-x,y,1/2-z
-x,-y,-z
x,y,1/2-z
-x,y,z
x,-y,1/2+z
1/2+x,1/2+y,z
1/2-x,1/2-y,1/2+z
1/2+x,1/2-y,-z
1/2-x,1/2+y,1/2-z
1/2-x,1/2-y,-z
1/2+x,1/2+y,1/2-z
1/2-x,1/2+y,z
1/2+x,1/2-y,1/2+z
loop_
_atom_site_type_symbol
_atom_site_label
_atom_site_fract_x
_atom_site_fract_y
_atom_site_fract_z
Si Si1 0.184364 0.118780 0.152957
Si Si2 0.314456 0.811292 0.939385
Si Si3 0.187532 0.503685 0.189196
Si Si4 0.187674 0.690614 0.750000
Si Si5 0.811485 0.616019 0.847613
Si Si6 0.312706 0.190459 0.941354
Si Si7 0.184678 0.686304 0.250000
O O1 0.241993 0.145300 0.099713
O O2 0.243376 0.056872 0.161659
O O3 0.251938 0.155326 0.199614
O O4 0.000000 0.120392 0.155337
O O5 0.500000 0.813250 0.935446
O O6 0.256684 0.749682 0.926408
O O7 0.269974 0.821271 0.999244
O O8 0.229057 0.504100 0.250000
O O9 0.239463 0.446114 0.163939
O O10 0.000000 0.506468 0.186546
O O11 0.233339 0.655873 0.699520
O O12 0.259605 0.750847 0.750000
O O13 0.000000 0.695682 0.750000
O O14 0.762322 0.643655 0.901237
O O15 0.000000 0.614583 0.847630
O O16 0.500000 0.194912 0.939052
O O17 0.000000 0.683370 0.250000
#
# Coordination Sequence:
#
# PCOD9469184 Si02
#       7
#    16  16  16   8  16  16   8
#     4  12  24  38  56  79 108 145 186 230 278 332
#     4  10  20  35  56  82 113 150 189 232 279 326
#     4  10  19  35  58  81 108 145 184 227 273 325
#     4  10  18  31  54  85 117 146 176 216 271 336
#     4   9  17  32  56  84 111 144 185 223 270 330
#     4   9  18  34  57  84 115 150 188 229 276 334
#     4  12  24  37  54  81 113 142 176 224 279 336
#
# _framework density 17.680340999999999
#
# number of rings (size 3 to 8) (size 9 to 14) (size 15 to 20)
#    0.000    1.833    1.667    3.750    0.000    2.000 
#    0.000    2.500    0.000    5.000    0.000    0.000 
#    0.000    0.000    0.000    0.000    0.000    0.000 
#
# Total GULP energy -268086.132934 kJ/mol
# GULP energy per Si atom -5585.127769 kJ/mol
# Density = 1.764010 g / cm^3
# Si number density = 17.680341 Si / 1000 Ang^3
#
#
#
# Elastic Constant Matrix: (Units=GPa)
#
#
# Indices 1 2 3 4 5 6 
#
# 1 46.3253 46.9836 38.7841 0.0000 0.0000 0.0000
# 2 46.9836 193.5075 106.2927 0.0000 0.0000 0.0000
# 3 38.7841 106.2927 121.4518 0.0000 0.0000 0.0000
# 4 0.0000 0.0000 0.0000 16.2369 0.0000 0.0000
# 5 0.0000 0.0000 0.0000 0.0000 13.3417 0.0000
# 6 0.0000 0.0000 0.0000 0.0000 0.0000 30.5467
#
#
#
# Elastic Compliance Matrix: (Units=1/GPa)
#
#
# Indices 1 2 3 4 5 6 
#
# 1 0.031010 -0.004024 -0.006380 0.000000 0.000000 0.000000
# 2 -0.004024 0.010474 -0.007882 0.000000 0.000000 0.000000
# 3 -0.006380 -0.007882 0.017169 0.000000 0.000000 0.000000
# 4 0.000000 0.000000 0.000000 0.061588 0.000000 0.000000
# 5 0.000000 0.000000 0.000000 0.000000 0.074953 0.000000
# 6 0.000000 0.000000 0.000000 0.000000 0.000000 0.032737
#
#
# Mechanical properties :
#
#
# Convention : Reuss Voigt Hill
#
# Bulk Modulus (GPa) = 45.28978 82.82281 64.05629
# Shear Modulus (GPa) = 18.39148 23.30667 20.84908
#
# Velocity S-wave (km/s) = 3.22875 3.63468 3.43771
# Velocity P-wave (km/s) = 6.29057 8.03497 7.21568
#
# Compressibility (1/GPa) = 0.02208004
#
# Stress axis : x y z
#
# Youngs Moduli (GPa) = 32.24777 95.47151 58.24353
#
# Poissons Ratio (x) = 0.38422 0.37162
# Poissons Ratio (y) = 0.12978 0.45906
# Poissons Ratio (z) = 0.20576 0.75249
#
# Static dielectric constant tensor:
#      x y z
#    x 1.598390 0.000000 0.000000 
#    y 0.000000 1.573660 0.000000 
#    z 0.000000 0.000000 1.597010 
# 
# From -- ./inp_files/60048.got.cif
#   From: 2010.05.17/outbox.cif.g08.bks.cpg/sg63_31_cif.got.tgz:60048.got - 2010.06.03 15:47:04.
