data_PCOD9469958
_publ_section_title
;
Structure prediction by ZEFSAII (Michael W. Deem and Ramdas Pophale) SiO2 
 PCOD9469958
Probable space group: C M C M
;
_chemical_formula_sum "Si O2"
_cell_formula_units_Z 112
_cell_length_a 21.841293
_cell_length_b 28.576380
_cell_length_c 10.756119
_cell_angle_alpha 90.000000
_cell_angle_beta 90.000000
_cell_angle_gamma 90.000000
_cell_volume 6713.378845
_symmetry_space_group_name_H-M "C M C M"
_symmetry_group_IT_number 63
_symmetry_cell_setting 'orthorhombic'
loop_
_space_group_symop_operation_xyz
x,y,z
-x,-y,1/2+z
x,-y,-z
-x,y,1/2-z
-x,-y,-z
x,y,1/2-z
-x,y,z
x,-y,1/2+z
1/2+x,1/2+y,z
1/2-x,1/2-y,1/2+z
1/2+x,1/2-y,-z
1/2-x,1/2+y,1/2-z
1/2-x,1/2-y,-z
1/2+x,1/2+y,1/2-z
1/2-x,1/2+y,z
1/2+x,1/2-y,1/2+z
loop_
_atom_site_type_symbol
_atom_site_label
_atom_site_fract_x
_atom_site_fract_y
_atom_site_fract_z
Si Si1 0.430325 0.642940 0.399163
Si Si2 0.692555 0.861090 0.893047
Si Si3 0.354425 0.270854 0.995179
Si Si4 0.389176 0.462575 0.605440
Si Si5 0.931398 0.311385 0.602888
Si Si6 0.741328 0.034328 0.389680
Si Si7 0.737103 0.201879 0.617264
O O1 0.427768 0.647640 0.250000
O O2 0.500000 0.652570 0.439973
O O3 0.383620 0.680442 0.454720
O O4 0.413692 0.589080 0.426299
O O5 0.707172 0.846460 0.750000
O O6 0.620657 0.850740 0.914235
O O7 0.711205 0.914869 0.904261
O O8 0.726592 0.830968 0.997949
O O9 0.406926 0.234564 0.033575
O O10 0.305695 0.278714 0.105365
O O11 0.311572 0.244052 0.895562
O O12 0.408274 0.500000 0.500000
O O13 0.407084 0.473669 0.750000
O O14 0.315097 0.460329 0.603631
O O15 0.932624 0.301333 0.750000
O O16 0.000000 0.324300 0.563532
O O17 0.726980 0.016816 0.250000
O O18 0.722264 0.000000 0.500000
O O19 0.728360 0.177922 0.750000
#
# Coordination Sequence:
#
# PCOD9469958 Si02
#       7
#    16  16  16  16  16  16  16
#     4  10  20  33  50  70  93 127 167 201 236 282
#     4   9  18  32  50  72  99 129 161 197 239 288
#     4  10  19  31  47  68 100 128 160 201 243 284
#     4   9  18  33  51  70  93 121 155 196 240 286
#     4   9  17  30  48  68  93 129 168 200 231 276
#     4   9  17  30  49  73  97 122 153 194 244 290
#     4  10  20  31  48  73  99 129 162 199 244 290
#
# _framework density 16.683105000000001
#
# number of rings (size 3 to 8) (size 9 to 14) (size 15 to 20)
#    0.000    2.571    0.000    2.143    0.000    6.000 
#    0.000    4.286    0.000    6.000    0.000    0.000 
#    0.000    0.000    0.000    0.000    0.000    0.000 
#
# Total GULP energy -311982.306194 kJ/mol
# GULP energy per Si atom -5571.112611 kJ/mol
# Density = 1.664513 g / cm^3
# Si number density = 16.683105 Si / 1000 Ang^3
#
#
#
# Elastic Constant Matrix: (Units=GPa)
#
#
# Indices 1 2 3 4 5 6 
#
# 1 52.3177 25.5202 31.2087 0.0000 0.0000 0.0000
# 2 25.5202 79.3536 52.9884 0.0000 0.0000 0.0000
# 3 31.2087 52.9884 96.6961 0.0000 0.0000 0.0000
# 4 0.0000 0.0000 0.0000 19.1312 0.0000 0.0000
# 5 0.0000 0.0000 0.0000 0.0000 -0.7621 0.0000
# 6 0.0000 0.0000 0.0000 0.0000 0.0000 16.1929
#
#
#
# Elastic Compliance Matrix: (Units=1/GPa)
#
#
# Indices 1 2 3 4 5 6 
#
# 1 0.024488 -0.004097 -0.005658 0.000000 0.000000 0.000000
# 2 -0.004097 0.020560 -0.009944 0.000000 0.000000 0.000000
# 3 -0.005658 -0.009944 0.017617 0.000000 0.000000 0.000000
# 4 0.000000 0.000000 0.000000 0.052271 0.000000 0.000000
# 5 0.000000 0.000000 0.000000 0.000000 -1.312229 0.000000
# 6 0.000000 0.000000 0.000000 0.000000 0.000000 0.061755
#
#
# Mechanical properties :
#
#
# Convention : Reuss Voigt Hill
#
# Bulk Modulus (GPa) = 42.98169 49.75576 46.36872
# Shear Modulus (GPa) = -4.59396 14.82242 5.11423
#
# Velocity S-wave (km/s) = -1.66122 2.98395 1.75276
# Velocity P-wave (km/s) = 4.70532 6.46226 5.65247
#
# Compressibility (1/GPa) = 0.02326572
#
# Stress axis : x y z
#
# Youngs Moduli (GPa) = 40.83667 48.63905 56.76261
#
# Poissons Ratio (x) = 0.19927 0.32119
# Poissons Ratio (y) = 0.16730 0.56446
# Poissons Ratio (z) = 0.23107 0.48368
#
# Static dielectric constant tensor:
#      x y z
#    x 1.569570 0.000000 0.000000 
#    y 0.000000 1.541210 0.000000 
#    z 0.000000 0.000000 1.591950 
# 
# From -- ./inp_files/22981.got.cif
#   From: 2010.05.17/outbox.cif.g08.bks.cpg/sg63_12_cif.got.tgz:22981.got - 2010.06.03 15:47:04.
