data_PCOD9469409
_publ_section_title
;
Structure prediction by ZEFSAII (Michael W. Deem and Ramdas Pophale) SiO2 
 PCOD9469409
Probable space group: C M C M
;
_chemical_formula_sum "Si O2"
_cell_formula_units_Z 68
_cell_length_a 7.448768
_cell_length_b 28.803250
_cell_length_c 14.436586
_cell_angle_alpha 90.000000
_cell_angle_beta 90.000000
_cell_angle_gamma 90.000000
_cell_volume 3097.351147
_symmetry_space_group_name_H-M "C M C M"
_symmetry_group_IT_number 63
_symmetry_cell_setting 'orthorhombic'
loop_
_space_group_symop_operation_xyz
x,y,z
-x,-y,1/2+z
x,-y,-z
-x,y,1/2-z
-x,-y,-z
x,y,1/2-z
-x,y,z
x,-y,1/2+z
1/2+x,1/2+y,z
1/2-x,1/2-y,1/2+z
1/2+x,1/2-y,-z
1/2-x,1/2+y,1/2-z
1/2-x,1/2-y,-z
1/2+x,1/2+y,1/2-z
1/2-x,1/2+y,z
1/2+x,1/2-y,1/2+z
loop_
_atom_site_type_symbol
_atom_site_label
_atom_site_fract_x
_atom_site_fract_y
_atom_site_fract_z
Si Si1 0.283507 0.404225 0.351138
Si Si2 0.000000 0.959235 0.750000
Si Si3 0.795766 0.507914 0.106766
Si Si4 0.214178 0.734559 0.354172
Si Si5 0.784814 0.822140 0.474047
O O1 0.246666 0.382592 0.250000
O O2 0.500000 0.409838 0.357525
O O3 0.206005 0.455406 0.354415
O O4 0.219706 0.370493 0.432266
O O5 0.157421 0.963361 0.831515
O O6 0.000000 0.526187 0.108709
O O7 0.739788 0.500000 0.000000
O O8 0.284620 0.730733 0.250000
O O9 0.283974 0.779454 0.410472
O O10 0.245918 0.690539 0.420215
O O11 0.000000 0.740365 0.347992
O O12 0.000000 0.822872 0.464450
#
# Coordination Sequence:
#
# PCOD9469409 Si02
#       5
#    16   4  16  16  16
#     4  10  18  33  56  81 108 140 180 233 290 337
#     4  12  20  40  64  88 120 160 188 236 292 360
#     4  11  23  38  61  91 120 153 194 240 293 348
#     4   9  17  31  48  69 102 143 179 217 270 327
#     4   9  18  30  50  77 102 134 179 226 272 326
#
# _framework density 21.954242000000001
#
# number of rings (size 3 to 8) (size 9 to 14) (size 15 to 20)
#    0.000    2.118    2.353    1.412    0.000    4.235 
#    0.000    0.000    2.588    4.235    0.000    0.000 
#    0.000    0.000    0.000    0.000    0.000    0.000 
#
# Total GULP energy -189290.996895 kJ/mol
# GULP energy per Si atom -5567.382262 kJ/mol
# Density = 2.190427 g / cm^3
# Si number density = 21.954242 Si / 1000 Ang^3
#
#
#
# Elastic Constant Matrix: (Units=GPa)
#
#
# Indices 1 2 3 4 5 6 
#
# 1 96.5448 -20.5396 20.0672 0.0000 0.0000 0.0000
# 2 -20.5396 15.9899 -6.2662 0.0000 0.0000 0.0000
# 3 20.0672 -6.2662 150.3999 0.0000 0.0000 0.0000
# 4 0.0000 0.0000 0.0000 19.1551 0.0000 0.0000
# 5 0.0000 0.0000 0.0000 0.0000 30.5251 0.0000
# 6 0.0000 0.0000 0.0000 0.0000 0.0000 11.7047
#
#
#
# Elastic Compliance Matrix: (Units=1/GPa)
#
#
# Indices 1 2 3 4 5 6 
#
# 1 0.014454 0.018107 -0.001174 0.000000 0.000000 0.000000
# 2 0.018107 0.086260 0.001178 0.000000 0.000000 0.000000
# 3 -0.001174 0.001178 0.006855 0.000000 0.000000 0.000000
# 4 0.000000 0.000000 0.000000 0.052205 0.000000 0.000000
# 5 0.000000 0.000000 0.000000 0.000000 0.032760 0.000000
# 6 0.000000 0.000000 0.000000 0.000000 0.000000 0.085436
#
#
# Mechanical properties :
#
#
# Convention : Reuss Voigt Hill
#
# Bulk Modulus (GPa) = 6.95460 27.71750 17.33605
# Shear Modulus (GPa) = 17.26050 30.25519 23.75785
#
# Velocity S-wave (km/s) = 2.80697 3.71631 3.29318
# Velocity P-wave (km/s) = 3.69866 5.57379 4.73008
#
# Compressibility (1/GPa) = 0.14378969
#
# Stress axis : x y z
#
# Youngs Moduli (GPa) = 69.18458 11.59287 145.88572
#
# Poissons Ratio (x) = -0.20991 0.17129
# Poissons Ratio (y) = -1.25270 -0.17185
# Poissons Ratio (z) = 0.08123 -0.01366
#
# Static dielectric constant tensor:
#      x y z
#    x 1.845240 0.000000 0.000000 
#    y 0.000000 1.800010 0.000000 
#    z 0.000000 0.000000 1.823110 
# 
# From -- ./inp_files/27757.got.cif
#   From: 2010.05.17/outbox.cif.g08.bks.cpg/sg63_14_cif.got.tgz:27757.got - 2010.06.03 15:47:04.
