data_PCOD9469159
_publ_section_title
;
Structure prediction by ZEFSAII (Michael W. Deem and Ramdas Pophale) SiO2 
 PCOD9469159
Probable space group: C M C M
;
_chemical_formula_sum "Si O2"
_cell_formula_units_Z 96
_cell_length_a 11.169194
_cell_length_b 17.980925
_cell_length_c 26.722612
_cell_angle_alpha 90.000000
_cell_angle_beta 90.000000
_cell_angle_gamma 90.000000
_cell_volume 5366.767361
_symmetry_space_group_name_H-M "C M C M"
_symmetry_group_IT_number 63
_symmetry_cell_setting 'orthorhombic'
loop_
_space_group_symop_operation_xyz
x,y,z
-x,-y,1/2+z
x,-y,-z
-x,y,1/2-z
-x,-y,-z
x,y,1/2-z
-x,y,z
x,-y,1/2+z
1/2+x,1/2+y,z
1/2-x,1/2-y,1/2+z
1/2+x,1/2-y,-z
1/2-x,1/2+y,1/2-z
1/2-x,1/2-y,-z
1/2+x,1/2+y,1/2-z
1/2-x,1/2+y,z
1/2+x,1/2-y,1/2+z
loop_
_atom_site_type_symbol
_atom_site_label
_atom_site_fract_x
_atom_site_fract_y
_atom_site_fract_z
Si Si1 0.139817 0.432631 0.610227
Si Si2 0.205357 0.042806 0.545863
Si Si3 0.130978 0.872192 0.358661
Si Si4 0.368903 0.181458 0.976911
Si Si5 0.136417 0.557576 0.809494
Si Si6 0.293497 0.227153 0.084720
O O1 0.196811 0.485905 0.568357
O O2 0.148875 0.479221 0.661461
O O3 0.205536 0.353556 0.609498
O O4 0.000000 0.418801 0.599656
O O5 0.132617 0.072532 0.593323
O O6 0.272461 0.115982 0.525721
O O7 0.144266 0.000000 0.500000
O O8 0.251155 0.893142 0.328069
O O9 0.147530 0.789218 0.380373
O O10 0.000000 0.878881 0.333722
O O11 0.500000 0.150451 0.967951
O O12 0.333243 0.240406 0.934185
O O13 0.361576 0.218330 0.031499
O O14 0.142115 0.549272 0.750000
O O15 0.000000 0.585129 0.822237
#
# Coordination Sequence:
#
# PCOD9469159 Si02
#       6
#    16  16  16  16  16  16
#     4  10  18  31  53  78 106 134 172 225 268 309
#     4  10  19  30  48  76 104 141 189 220 254 296
#     4  10  21  35  52  77 111 146 175 208 260 322
#     4  10  19  31  47  68 106 152 188 220 256 302
#     4   9  20  40  64  84 100 126 172 228 277 320
#     4  10  20  31  46  75 109 142 180 215 259 308
#
# _framework density 17.887864
#
# number of rings (size 3 to 8) (size 9 to 14) (size 15 to 20)
#    0.000    2.167    1.667    2.000    0.000    5.333 
#    0.000    4.167    0.000    2.000    0.000    0.000 
#    0.000    0.000    0.000    0.000    0.000    0.000 
#
# Total GULP energy -267415.679111 kJ/mol
# GULP energy per Si atom -5571.159981 kJ/mol
# Density = 1.784715 g / cm^3
# Si number density = 17.887864 Si / 1000 Ang^3
#
#
#
# Elastic Constant Matrix: (Units=GPa)
#
#
# Indices 1 2 3 4 5 6 
#
# 1 96.1367 29.7612 33.5954 0.0000 0.0000 0.0000
# 2 29.7612 104.6995 29.3594 0.0000 0.0000 0.0000
# 3 33.5954 29.3594 69.5933 0.0000 0.0000 0.0000
# 4 0.0000 0.0000 0.0000 16.0926 0.0000 0.0000
# 5 0.0000 0.0000 0.0000 0.0000 6.7494 0.0000
# 6 0.0000 0.0000 0.0000 0.0000 0.0000 5.5184
#
#
#
# Elastic Compliance Matrix: (Units=1/GPa)
#
#
# Indices 1 2 3 4 5 6 
#
# 1 0.012939 -0.002185 -0.005324 0.000000 0.000000 0.000000
# 2 -0.002185 0.011202 -0.003671 0.000000 0.000000 0.000000
# 3 -0.005324 -0.003671 0.018488 0.000000 0.000000 0.000000
# 4 0.000000 0.000000 0.000000 0.062140 0.000000 0.000000
# 5 0.000000 0.000000 0.000000 0.000000 0.148161 0.000000
# 6 0.000000 0.000000 0.000000 0.000000 0.000000 0.181212
#
#
# Mechanical properties :
#
#
# Convention : Reuss Voigt Hill
#
# Bulk Modulus (GPa) = 49.33814 50.65128 49.99471
# Shear Modulus (GPa) = 10.79312 17.51966 14.15639
#
# Velocity S-wave (km/s) = 2.45904 3.13296 2.81623
# Velocity P-wave (km/s) = 5.97531 6.43931 6.21164
#
# Compressibility (1/GPa) = 0.02026829
#
# Stress axis : x y z
#
# Youngs Moduli (GPa) = 77.28667 89.27305 54.08879
#
# Poissons Ratio (x) = 0.19505 0.28799
# Poissons Ratio (y) = 0.16886 0.19855
# Poissons Ratio (z) = 0.41150 0.32771
#
# Static dielectric constant tensor:
#      x y z
#    x 1.662840 0.000000 0.000000 
#    y 0.000000 1.605340 0.000000 
#    z 0.000000 0.000000 1.613480 
# 
# From -- ./inp_files/68298.got.cif
#   From: 2010.05.17/outbox.cif.g08.bks.cpg/sg63_35_cif.got.tgz:68298.got - 2010.06.03 15:47:04.
