data_PCOD9469248
_publ_section_title
;
Structure prediction by ZEFSAII (Michael W. Deem and Ramdas Pophale) SiO2 
 PCOD9469248
Probable space group: C M C M
;
_chemical_formula_sum "Si O2"
_cell_formula_units_Z 72
_cell_length_a 16.819062
_cell_length_b 29.057057
_cell_length_c 8.574697
_cell_angle_alpha 90.000000
_cell_angle_beta 90.000000
_cell_angle_gamma 90.000000
_cell_volume 4190.561121
_symmetry_space_group_name_H-M "C M C M"
_symmetry_group_IT_number 63
_symmetry_cell_setting 'orthorhombic'
loop_
_space_group_symop_operation_xyz
x,y,z
-x,-y,1/2+z
x,-y,-z
-x,y,1/2-z
-x,-y,-z
x,y,1/2-z
-x,y,z
x,-y,1/2+z
1/2+x,1/2+y,z
1/2-x,1/2-y,1/2+z
1/2+x,1/2-y,-z
1/2-x,1/2+y,1/2-z
1/2-x,1/2-y,-z
1/2+x,1/2+y,1/2-z
1/2-x,1/2+y,z
1/2+x,1/2-y,1/2+z
loop_
_atom_site_type_symbol
_atom_site_label
_atom_site_fract_x
_atom_site_fract_y
_atom_site_fract_z
Si Si1 0.755979 0.365040 0.437188
Si Si2 0.000000 0.947790 0.064085
Si Si3 0.827724 0.224058 0.937541
Si Si4 0.411301 0.813164 0.938906
Si Si5 0.333068 0.551699 0.064919
O O1 0.754922 0.368886 0.250000
O O2 0.686920 0.328418 0.487808
O O3 0.840084 0.343310 0.489836
O O4 0.735893 0.413843 0.512115
O O5 0.000000 0.947583 0.250000
O O6 0.083410 0.928719 0.002508
O O7 0.000000 0.000000 0.000000
O O8 0.826782 0.223138 0.750000
O O9 0.897459 0.259214 0.983184
O O10 0.750000 0.250000 0.000000
O O11 0.405467 0.816026 0.750000
O O12 0.500000 0.827588 0.985436
O O13 0.338922 0.549065 0.250000
O O14 0.321945 0.500000 0.000000
#
# Coordination Sequence:
#
# PCOD9469248 Si02
#       5
#    16   8  16  16  16
#     4  10  19  32  50  75 104 136 175 213 258 306
#     4  10  18  32  52  74 100 130 164 204 250 298
#     4   8  15  28  46  68  95 128 165 205 249 297
#     4   9  17  31  51  74 101 135 175 214 257 306
#     4  11  21  35  54  76 104 136 173 212 256 304
#
# _framework density 17.181470000000001
#
# number of rings (size 3 to 8) (size 9 to 14) (size 15 to 20)
#    0.000    2.444    0.000    5.000    0.000    1.333 
#    2.000    0.000    0.000    0.667    0.000    0.000 
#    0.000    0.000    0.000    0.000    0.000    0.000 
#
# Total GULP energy -200415.443607 kJ/mol
# GULP energy per Si atom -5567.095656 kJ/mol
# Density = 1.714236 g / cm^3
# Si number density = 17.181470 Si / 1000 Ang^3
#
#
#
# Elastic Constant Matrix: (Units=GPa)
#
#
# Indices 1 2 3 4 5 6 
#
# 1 93.5071 49.1225 35.1993 0.0000 0.0000 0.0000
# 2 49.1225 100.0320 36.2587 0.0000 0.0000 0.0000
# 3 35.1993 36.2587 85.0109 0.0000 0.0000 0.0000
# 4 0.0000 0.0000 0.0000 18.6718 0.0000 0.0000
# 5 0.0000 0.0000 0.0000 0.0000 22.3373 0.0000
# 6 0.0000 0.0000 0.0000 0.0000 0.0000 23.4748
#
#
#
# Elastic Compliance Matrix: (Units=1/GPa)
#
#
# Indices 1 2 3 4 5 6 
#
# 1 0.015343 -0.006189 -0.003713 0.000000 0.000000 0.000000
# 2 -0.006189 0.014321 -0.003546 0.000000 0.000000 0.000000
# 3 -0.003713 -0.003546 0.014813 0.000000 0.000000 0.000000
# 4 0.000000 0.000000 0.000000 0.053557 0.000000 0.000000
# 5 0.000000 0.000000 0.000000 0.000000 0.044768 0.000000
# 6 0.000000 0.000000 0.000000 0.000000 0.000000 0.042599
#
#
# Mechanical properties :
#
#
# Convention : Reuss Voigt Hill
#
# Bulk Modulus (GPa) = 56.87679 57.74568 57.31124
# Shear Modulus (GPa) = 22.91922 23.42807 23.17364
#
# Velocity S-wave (km/s) = 3.65629 3.69666 3.67653
# Velocity P-wave (km/s) = 7.14143 7.20435 7.17296
#
# Compressibility (1/GPa) = 0.01758186
#
# Stress axis : x y z
#
# Youngs Moduli (GPa) = 65.17495 69.82724 67.50776
#
# Poissons Ratio (x) = 0.43213 0.25069
# Poissons Ratio (y) = 0.40334 0.23937
# Poissons Ratio (z) = 0.24202 0.24759
#
# Static dielectric constant tensor:
#      x y z
#    x 1.594040 0.000000 0.000000 
#    y 0.000000 1.594770 0.000000 
#    z 0.000000 0.000000 1.577470 
# 
# From -- ./inp_files/4589.got.cif
#   From: 2010.05.17/outbox.cif.g08.bks.cpg/sg63_3_cif.got.tgz:4589.got - 2010.06.03 15:47:04.
