data_PCOD9469331
_publ_section_title
;
Structure prediction by ZEFSAII (Michael W. Deem and Ramdas Pophale) SiO2 
 PCOD9469331
Probable space group: C M C M
;
_chemical_formula_sum "Si O2"
_cell_formula_units_Z 96
_cell_length_a 13.740164
_cell_length_b 26.675268
_cell_length_c 15.182836
_cell_angle_alpha 90.000000
_cell_angle_beta 90.000000
_cell_angle_gamma 90.000000
_cell_volume 5564.851874
_symmetry_space_group_name_H-M "C M C M"
_symmetry_group_IT_number 63
_symmetry_cell_setting 'orthorhombic'
loop_
_space_group_symop_operation_xyz
x,y,z
-x,-y,1/2+z
x,-y,-z
-x,y,1/2-z
-x,-y,-z
x,y,1/2-z
-x,y,z
x,-y,1/2+z
1/2+x,1/2+y,z
1/2-x,1/2-y,1/2+z
1/2+x,1/2-y,-z
1/2-x,1/2+y,1/2-z
1/2-x,1/2-y,-z
1/2+x,1/2+y,1/2-z
1/2-x,1/2+y,z
1/2+x,1/2-y,1/2+z
loop_
_atom_site_type_symbol
_atom_site_label
_atom_site_fract_x
_atom_site_fract_y
_atom_site_fract_z
Si Si1 0.119231 0.920014 0.250000
Si Si2 0.882281 0.037959 0.250000
Si Si3 0.117338 0.886390 0.601739
Si Si4 0.616298 0.255445 0.146362
Si Si5 0.116940 0.775920 0.654568
Si Si6 0.116316 0.309938 0.015448
Si Si7 0.797693 0.138393 0.916720
O O1 0.170492 0.894786 0.334041
O O2 0.000000 0.911737 0.250000
O O3 0.139069 0.979371 0.250000
O O4 0.848297 0.068377 0.163682
O O5 0.000000 0.041494 0.250000
O O6 0.149486 0.832752 0.640994
O O7 0.151777 0.885586 0.501903
O O8 0.000000 0.887088 0.602441
O O9 0.638323 0.249348 0.250000
O O10 0.500000 0.261706 0.138797
O O11 0.661970 0.306047 0.106653
O O12 0.640857 0.208149 0.083788
O O13 0.148823 0.756256 0.750000
O O14 0.139301 0.738760 0.575672
O O15 0.000000 0.778125 0.656056
O O16 0.185237 0.352874 0.055253
O O17 0.000000 0.320201 0.021146
#
# Coordination Sequence:
#
# PCOD9469331 Si02
#       7
#     8   8  16  16  16  16  16
#     4  11  24  40  58  81 113 143 179 223 280 349
#     4   9  20  38  57  83 113 141 170 225 289 341
#     4  10  18  32  55  81 110 139 177 219 272 331
#     4  10  19  33  52  75 112 153 188 221 263 321
#     4   9  16  27  47  73 106 144 174 211 259 308
#     4  10  22  37  50  77 115 151 191 231 261 313
#     4  12  22  34  53  82 108 153 188 224 270 326
#
# _framework density 17.251132999999999
#
# number of rings (size 3 to 8) (size 9 to 14) (size 15 to 20)
#    0.000    1.833    3.333    2.000    1.167    0.667 
#    1.500    2.500    0.000    0.000    0.000    3.500 
#    0.000    0.000    0.000    0.000    0.000    0.000 
#
# Total GULP energy -267674.886331 kJ/mol
# GULP energy per Si atom -5576.560132 kJ/mol
# Density = 1.721187 g / cm^3
# Si number density = 17.251133 Si / 1000 Ang^3
#
#
#
# Elastic Constant Matrix: (Units=GPa)
#
#
# Indices 1 2 3 4 5 6 
#
# 1 94.3516 48.0527 38.8646 0.0000 0.0000 0.0000
# 2 48.0527 73.8281 51.0228 0.0000 0.0000 0.0000
# 3 38.8646 51.0228 158.4627 0.0000 0.0000 0.0000
# 4 0.0000 0.0000 0.0000 18.2168 0.0000 0.0000
# 5 0.0000 0.0000 0.0000 0.0000 -1.7388 0.0000
# 6 0.0000 0.0000 0.0000 0.0000 0.0000 6.7905
#
#
#
# Elastic Compliance Matrix: (Units=1/GPa)
#
#
# Indices 1 2 3 4 5 6 
#
# 1 0.015920 -0.009857 -0.000731 0.000000 0.000000 0.000000
# 2 -0.009857 0.023524 -0.005157 0.000000 0.000000 0.000000
# 3 -0.000731 -0.005157 0.008150 0.000000 0.000000 0.000000
# 4 0.000000 0.000000 0.000000 0.054894 0.000000 0.000000
# 5 0.000000 0.000000 0.000000 0.000000 -0.575103 0.000000
# 6 0.000000 0.000000 0.000000 0.000000 0.000000 0.147266
#
#
# Mechanical properties :
#
#
# Convention : Reuss Voigt Hill
#
# Bulk Modulus (GPa) = 62.09065 66.94695 64.51880
# Shear Modulus (GPa) = -17.33152 17.23384 -0.04884
#
# Velocity S-wave (km/s) = -3.17308 3.16412 -0.16844
# Velocity P-wave (km/s) = 4.75876 7.22775 6.11908
#
# Compressibility (1/GPa) = 0.01610548
#
# Stress axis : x y z
#
# Youngs Moduli (GPa) = 62.81585 42.50899 122.69371
#
# Poissons Ratio (x) = 0.41899 0.08966
# Poissons Ratio (y) = 0.61915 0.63275
# Poissons Ratio (z) = 0.04590 0.21922
#
# Static dielectric constant tensor:
#      x y z
#    x 1.621270 0.000000 0.000000 
#    y 0.000000 1.557470 0.000000 
#    z 0.000000 0.000000 1.639650 
# 
# From -- ./inp_files/32195.got.cif
#   From: 2010.05.17/outbox.cif.g08.bks.cpg/sg63_17_cif.got.tgz:32195.got - 2010.06.03 15:47:04.
