data_PCOD9469694
_publ_section_title
;
Structure prediction by ZEFSAII (Michael W. Deem and Ramdas Pophale) SiO2 
 PCOD9469694
Probable space group: C M C M
;
_chemical_formula_sum "Si O2"
_cell_formula_units_Z 112
_cell_length_a 20.643230
_cell_length_b 14.694482
_cell_length_c 24.133204
_cell_angle_alpha 90.000000
_cell_angle_beta 90.000000
_cell_angle_gamma 90.000000
_cell_volume 7320.604030
_symmetry_space_group_name_H-M "C M C M"
_symmetry_group_IT_number 63
_symmetry_cell_setting 'orthorhombic'
loop_
_space_group_symop_operation_xyz
x,y,z
-x,-y,1/2+z
x,-y,-z
-x,y,1/2-z
-x,-y,-z
x,y,1/2-z
-x,y,z
x,-y,1/2+z
1/2+x,1/2+y,z
1/2-x,1/2-y,1/2+z
1/2+x,1/2-y,-z
1/2-x,1/2+y,1/2-z
1/2-x,1/2-y,-z
1/2+x,1/2+y,1/2-z
1/2-x,1/2+y,z
1/2+x,1/2-y,1/2+z
loop_
_atom_site_type_symbol
_atom_site_label
_atom_site_fract_x
_atom_site_fract_y
_atom_site_fract_z
Si Si1 0.422484 0.871692 0.611561
Si Si2 0.928097 0.745748 0.683322
Si Si3 0.825383 0.739801 0.183982
Si Si4 0.870354 0.423226 0.126254
Si Si5 0.231539 0.934591 0.316301
Si Si6 0.306702 0.363805 0.817049
Si Si7 0.573684 0.891956 0.487488
O O1 0.500000 0.869348 0.618105
O O2 0.384740 0.802706 0.650895
O O3 0.408085 0.850312 0.546762
O O4 0.397816 0.974126 0.624613
O O5 0.927553 0.749353 0.750000
O O6 0.911854 0.643567 0.664806
O O7 0.870367 0.811134 0.662669
O O8 0.000000 0.772003 0.664166
O O9 0.833823 0.725431 0.250000
O O10 0.812889 0.846549 0.174515
O O11 0.759346 0.687503 0.166554
O O12 0.797917 0.424622 0.149789
O O13 0.878927 0.382411 0.064380
O O14 0.247072 0.936687 0.250000
O O15 0.198421 0.030136 0.331535
O O16 0.308433 0.359099 0.750000
O O17 0.500000 0.864123 0.472065
O O18 0.570820 0.000000 0.500000
#
# Coordination Sequence:
#
# PCOD9469694 Si02
#       7
#    16  16  16  16  16  16  16
#     4  10  20  33  49  71  99 127 158 199 241 283
#     4  10  19  29  45  72  99 120 153 201 241 278
#     4  10  19  32  49  70  98 128 158 192 235 287
#     4  11  17  28  50  74  96 124 155 196 240 292
#     4  10  19  31  49  71  97 131 162 190 232 284
#     4   9  17  31  47  65  96 132 157 183 233 288
#     4   8  16  30  45  65  96 130 156 185 238 295
#
# _framework density 15.299284
#
# number of rings (size 3 to 8) (size 9 to 14) (size 15 to 20)
#    0.000    2.286    2.857    2.571    0.000    0.857 
#    0.000    1.429    0.000    2.571    0.000    0.000 
#    0.000    3.429    0.000    0.000    0.000    0.000 
#
# Total GULP energy -311915.187913 kJ/mol
# GULP energy per Si atom -5569.914070 kJ/mol
# Density = 1.526446 g / cm^3
# Si number density = 15.299284 Si / 1000 Ang^3
#
#
#
# Elastic Constant Matrix: (Units=GPa)
#
#
# Indices 1 2 3 4 5 6 
#
# 1 73.6227 25.9401 33.7067 0.0000 0.0000 0.0000
# 2 25.9401 73.0827 21.1230 0.0000 0.0000 0.0000
# 3 33.7067 21.1230 39.9169 0.0000 0.0000 0.0000
# 4 0.0000 0.0000 0.0000 10.0200 0.0000 0.0000
# 5 0.0000 0.0000 0.0000 0.0000 19.3755 0.0000
# 6 0.0000 0.0000 0.0000 0.0000 0.0000 21.1609
#
#
#
# Elastic Compliance Matrix: (Units=1/GPa)
#
#
# Indices 1 2 3 4 5 6 
#
# 1 0.022676 -0.002968 -0.017577 0.000000 0.000000 0.000000
# 2 -0.002968 0.016542 -0.006247 0.000000 0.000000 0.000000
# 3 -0.017577 -0.006247 0.043201 0.000000 0.000000 0.000000
# 4 0.000000 0.000000 0.000000 0.099801 0.000000 0.000000
# 5 0.000000 0.000000 0.000000 0.000000 0.051612 0.000000
# 6 0.000000 0.000000 0.000000 0.000000 0.000000 0.047257
#
#
# Mechanical properties :
#
#
# Convention : Reuss Voigt Hill
#
# Bulk Modulus (GPa) = 34.68236 38.68467 36.68352
# Shear Modulus (GPa) = 14.52282 17.16812 15.84547
#
# Velocity S-wave (km/s) = 3.08433 3.35349 3.22172
# Velocity P-wave (km/s) = 5.95001 6.35096 6.15375
#
# Compressibility (1/GPa) = 0.02883310
#
# Stress axis : x y z
#
# Youngs Moduli (GPa) = 44.09927 60.45094 23.14771
#
# Poissons Ratio (x) = 0.17944 0.40688
# Poissons Ratio (y) = 0.13090 0.14461
# Poissons Ratio (z) = 0.77515 0.37766
#
# Static dielectric constant tensor:
#      x y z
#    x 1.501840 0.000000 0.000000 
#    y 0.000000 1.505710 0.000000 
#    z 0.000000 0.000000 1.524320 
# 
# From -- ./inp_files/64638.got.cif
#   From: 2010.05.17/outbox.cif.g08.bks.cpg/sg63_33_cif.got.tgz:64638.got - 2010.06.03 15:47:04.
