data_PCOD9469133
_publ_section_title
;
Structure prediction by ZEFSAII (Michael W. Deem and Ramdas Pophale) SiO2 
 PCOD9469133
Probable space group: C M C M
;
_chemical_formula_sum "Si O2"
_cell_formula_units_Z 80
_cell_length_a 26.666189
_cell_length_b 9.849339
_cell_length_c 15.866942
_cell_angle_alpha 90.000000
_cell_angle_beta 90.000000
_cell_angle_gamma 90.000000
_cell_volume 4167.362435
_symmetry_space_group_name_H-M "C M C M"
_symmetry_group_IT_number 63
_symmetry_cell_setting 'orthorhombic'
loop_
_space_group_symop_operation_xyz
x,y,z
-x,-y,1/2+z
x,-y,-z
-x,y,1/2-z
-x,-y,-z
x,y,1/2-z
-x,y,z
x,-y,1/2+z
1/2+x,1/2+y,z
1/2-x,1/2-y,1/2+z
1/2+x,1/2-y,-z
1/2-x,1/2+y,1/2-z
1/2-x,1/2-y,-z
1/2+x,1/2+y,1/2-z
1/2-x,1/2+y,z
1/2+x,1/2-y,1/2+z
loop_
_atom_site_type_symbol
_atom_site_label
_atom_site_fract_x
_atom_site_fract_y
_atom_site_fract_z
Si Si1 0.365587 0.051033 0.345902
Si Si2 0.208288 0.226499 0.888293
Si Si3 0.633667 0.496561 0.898752
Si Si4 0.677686 0.217386 0.584316
Si Si5 0.943265 0.219825 0.648893
O O1 0.378188 0.008553 0.250000
O O2 0.316578 0.146512 0.342812
O O3 0.408818 0.153175 0.379780
O O4 0.351913 0.921723 0.401804
O O5 0.267159 0.212617 0.874540
O O6 0.179542 0.088443 0.865457
O O7 0.192779 0.254155 0.986649
O O8 0.644724 0.340614 0.878793
O O9 0.584320 0.578070 0.871302
O O10 0.634012 0.500000 0.000000
O O11 0.944471 0.230703 0.750000
O O12 0.000000 0.224836 0.616322
#
# Coordination Sequence:
#
# PCOD9469133 Si02
#       5
#    16  16  16  16  16
#     4  10  20  32  49  74 101 130 166 208 247 288
#     4   9  18  33  51  71 103 142 165 185 237 307
#     4   9  18  31  51  77 100 127 166 209 245 286
#     4  10  18  31  52  76 101 131 167 203 239 287
#     4   9  19  37  55  68  93 136 173 203 256 319
#
# _framework density 19.196794000000001
#
# number of rings (size 3 to 8) (size 9 to 14) (size 15 to 20)
#    0.000    2.600    0.000    1.800    0.000    5.200 
#    0.000    5.000    0.000   18.000    0.000    0.000 
#    0.000    0.000    0.000    0.000    0.000    0.000 
#
# Total GULP energy -222923.518348 kJ/mol
# GULP energy per Si atom -5573.087959 kJ/mol
# Density = 1.915310 g / cm^3
# Si number density = 19.196794 Si / 1000 Ang^3
#
#
#
# Elastic Constant Matrix: (Units=GPa)
#
#
# Indices 1 2 3 4 5 6 
#
# 1 143.9980 72.2108 9.0394 0.0000 0.0000 0.0000
# 2 72.2108 155.5627 16.5608 0.0000 0.0000 0.0000
# 3 9.0394 16.5608 14.0843 0.0000 0.0000 0.0000
# 4 0.0000 0.0000 0.0000 -1.5826 0.0000 0.0000
# 5 0.0000 0.0000 0.0000 0.0000 0.1217 0.0000
# 6 0.0000 0.0000 0.0000 0.0000 0.0000 6.1071
#
#
#
# Elastic Compliance Matrix: (Units=1/GPa)
#
#
# Indices 1 2 3 4 5 6 
#
# 1 0.009064 -0.004101 -0.000995 0.000000 0.000000 0.000000
# 2 -0.004101 0.009204 -0.008190 0.000000 0.000000 0.000000
# 3 -0.000995 -0.008190 0.081270 0.000000 0.000000 0.000000
# 4 0.000000 0.000000 0.000000 -0.631877 0.000000 0.000000
# 5 0.000000 0.000000 0.000000 0.000000 8.215998 0.000000
# 6 0.000000 0.000000 0.000000 0.000000 0.000000 0.163744
#
#
# Mechanical properties :
#
#
# Convention : Reuss Voigt Hill
#
# Bulk Modulus (GPa) = 13.70515 56.58522 35.14518
# Shear Modulus (GPa) = 0.63305 15.31817 7.97561
#
# Velocity S-wave (km/s) = 0.57488 2.82787 2.04051
# Velocity P-wave (km/s) = 2.75598 6.34057 4.88868
#
# Compressibility (1/GPa) = 0.07296530
#
# Stress axis : x y z
#
# Youngs Moduli (GPa) = 110.32997 108.64821 12.30470
#
# Poissons Ratio (x) = 0.44561 0.01224
# Poissons Ratio (y) = 0.45251 0.10078
# Poissons Ratio (z) = 0.10973 0.88984
#
# Static dielectric constant tensor:
#      x y z
#    x 1.666270 0.000000 0.000000 
#    y 0.000000 1.676220 0.000000 
#    z 0.000000 0.000000 1.742130 
# 
# From -- ./inp_files/48764.got.cif
#   From: 2010.05.17/outbox.cif.g08.bks.cpg/sg63_25_cif.got.tgz:48764.got - 2010.06.03 15:47:04.
