data_PCOD9469925
_publ_section_title
;
Structure prediction by ZEFSAII (Michael W. Deem and Ramdas Pophale) SiO2 
 PCOD9469925
Probable space group: C M C M
;
_chemical_formula_sum "Si O2"
_cell_formula_units_Z 80
_cell_length_a 19.541240
_cell_length_b 33.679521
_cell_length_c 8.953088
_cell_angle_alpha 90.000000
_cell_angle_beta 90.000000
_cell_angle_gamma 90.000000
_cell_volume 5892.381781
_symmetry_space_group_name_H-M "C M C M"
_symmetry_group_IT_number 63
_symmetry_cell_setting 'orthorhombic'
loop_
_space_group_symop_operation_xyz
x,y,z
-x,-y,1/2+z
x,-y,-z
-x,y,1/2-z
-x,-y,-z
x,y,1/2-z
-x,y,z
x,-y,1/2+z
1/2+x,1/2+y,z
1/2-x,1/2-y,1/2+z
1/2+x,1/2-y,-z
1/2-x,1/2+y,1/2-z
1/2-x,1/2-y,-z
1/2+x,1/2+y,1/2-z
1/2-x,1/2+y,z
1/2+x,1/2-y,1/2+z
loop_
_atom_site_type_symbol
_atom_site_label
_atom_site_fract_x
_atom_site_fract_y
_atom_site_fract_z
Si Si1 0.500000 0.162496 0.925528
Si Si2 0.580673 0.042779 0.928310
Si Si3 0.500000 0.742137 0.424434
Si Si4 0.230850 0.310268 0.928950
Si Si5 0.855875 0.231925 0.928251
Si Si6 0.630890 0.879092 0.570831
O O1 0.500000 0.151360 0.750000
O O2 0.500000 0.209945 0.937459
O O3 0.433624 0.144779 0.005097
O O4 0.588755 0.041418 0.750000
O O5 0.500000 0.051750 0.959787
O O6 0.625928 0.077456 0.999625
O O7 0.595226 0.000000 0.000000
O O8 0.500000 0.731879 0.250000
O O9 0.569647 0.727543 0.500720
O O10 0.241043 0.308193 0.750000
O O11 0.176714 0.275159 0.968133
O O12 0.197196 0.352506 0.966040
O O13 0.301025 0.299611 0.010650
O O14 0.860505 0.229983 0.750000
O O15 0.625263 0.881513 0.750000
#
# Coordination Sequence:
#
# PCOD9469925 Si02
#       6
#     8  16   8  16  16  16
#     4  11  21  29  40  62  85 111 149 186 219 258
#     4  10  20  32  45  63  86 113 145 181 221 261
#     4  11  21  31  45  62  86 115 146 186 225 262
#     4   9  19  32  44  62  86 113 143 179 223 263
#     4  10  19  31  46  63  84 112 146 183 220 260
#     4  11  20  31  47  63  85 114 145 184 224 262
#
# _framework density 13.576853
#
# number of rings (size 3 to 8) (size 9 to 14) (size 15 to 20)
#    0.000    1.800    3.000    2.400    0.000    4.000 
#    0.000    0.000    0.000    0.000    0.000    0.000 
#    0.000    0.000    0.000    0.900    0.000   12.000 
#
# Total GULP energy -223227.520828 kJ/mol
# GULP energy per Si atom -5580.688021 kJ/mol
# Density = 1.354595 g / cm^3
# Si number density = 13.576853 Si / 1000 Ang^3
#
#
#
# Elastic Constant Matrix: (Units=GPa)
#
#
# Indices 1 2 3 4 5 6 
#
# 1 108.3779 50.3730 53.6469 0.0000 0.0000 0.0000
# 2 50.3730 92.0892 49.3517 0.0000 0.0000 0.0000
# 3 53.6469 49.3517 64.3223 0.0000 0.0000 0.0000
# 4 0.0000 0.0000 0.0000 22.3200 0.0000 0.0000
# 5 0.0000 0.0000 0.0000 0.0000 23.2884 0.0000
# 6 0.0000 0.0000 0.0000 0.0000 0.0000 21.4942
#
#
#
# Elastic Compliance Matrix: (Units=1/GPa)
#
#
# Indices 1 2 3 4 5 6 
#
# 1 0.016111 -0.002737 -0.011337 0.000000 0.000000 0.000000
# 2 -0.002737 0.018907 -0.012224 0.000000 0.000000 0.000000
# 3 -0.011337 -0.012224 0.034381 0.000000 0.000000 0.000000
# 4 0.000000 0.000000 0.000000 0.044803 0.000000 0.000000
# 5 0.000000 0.000000 0.000000 0.000000 0.042940 0.000000
# 6 0.000000 0.000000 0.000000 0.000000 0.000000 0.046524
#
#
# Mechanical properties :
#
#
# Convention : Reuss Voigt Hill
#
# Bulk Modulus (GPa) = 59.51241 63.50363 61.50802
# Shear Modulus (GPa) = 19.09397 20.84837 19.97117
#
# Velocity S-wave (km/s) = 3.75422 3.92290 3.83949
# Velocity P-wave (km/s) = 7.91966 8.20938 8.06582
#
# Compressibility (1/GPa) = 0.01680322
#
# Stress axis : x y z
#
# Youngs Moduli (GPa) = 62.06960 52.89014 29.08588
#
# Poissons Ratio (x) = 0.14476 0.32975
# Poissons Ratio (y) = 0.16989 0.35554
# Poissons Ratio (z) = 0.70368 0.64652
#
# Static dielectric constant tensor:
#      x y z
#    x 1.422160 0.000000 0.000000 
#    y 0.000000 1.441850 0.000000 
#    z 0.000000 0.000000 1.450400 
# 
# From -- ./inp_files/6697.got.cif
#   From: 2010.05.17/outbox.cif.g08.bks.cpg/sg63_4_cif.got.tgz:6697.got - 2010.06.03 15:47:04.
