data_PCOD9469830
_publ_section_title
;
Structure prediction by ZEFSAII (Michael W. Deem and Ramdas Pophale) SiO2 
 PCOD9469830
Probable space group: C M C M
;
_chemical_formula_sum "Si O2"
_cell_formula_units_Z 80
_cell_length_a 7.700133
_cell_length_b 27.887943
_cell_length_c 19.102133
_cell_angle_alpha 90.000000
_cell_angle_beta 90.000000
_cell_angle_gamma 90.000000
_cell_volume 4102.008663
_symmetry_space_group_name_H-M "C M C M"
_symmetry_group_IT_number 63
_symmetry_cell_setting 'orthorhombic'
loop_
_space_group_symop_operation_xyz
x,y,z
-x,-y,1/2+z
x,-y,-z
-x,y,1/2-z
-x,-y,-z
x,y,1/2-z
-x,y,z
x,-y,1/2+z
1/2+x,1/2+y,z
1/2-x,1/2-y,1/2+z
1/2+x,1/2-y,-z
1/2-x,1/2+y,1/2-z
1/2-x,1/2-y,-z
1/2+x,1/2+y,1/2-z
1/2-x,1/2+y,z
1/2+x,1/2-y,1/2+z
loop_
_atom_site_type_symbol
_atom_site_label
_atom_site_fract_x
_atom_site_fract_y
_atom_site_fract_z
Si Si1 0.790974 0.950034 0.530530
Si Si2 0.794167 0.697099 0.108733
Si Si3 0.290733 0.151334 0.965403
Si Si4 0.710005 0.404858 0.827306
Si Si5 0.796309 0.298236 0.328272
O O1 0.750326 0.903573 0.483621
O O2 0.726338 0.937487 0.608593
O O3 0.000000 0.953524 0.534435
O O4 0.723992 0.000000 0.500000
O O5 0.760419 0.649581 0.154203
O O6 0.715482 0.743756 0.144289
O O7 0.000000 0.705113 0.104439
O O8 0.727289 0.684056 0.030645
O O9 0.500000 0.156120 0.965266
O O10 0.221878 0.169220 0.890846
O O11 0.772082 0.418084 0.750000
O O12 0.500000 0.406865 0.827236
O O13 0.721066 0.302562 0.250000
O O14 0.000000 0.310440 0.323094
#
# Coordination Sequence:
#
# PCOD9469830 Si02
#       5
#    16  16  16  16  16
#     4   9  18  33  52  72  93 119 154 195 236 278
#     4  10  19  30  47  71  97 123 154 194 234 271
#     4   9  19  34  50  69  93 123 158 193 230 275
#     4   9  17  30  48  69  94 124 155 188 231 281
#     4  10  20  33  48  67  95 130 162 189 222 271
#
# _framework density 19.502641000000001
#
# number of rings (size 3 to 8) (size 9 to 14) (size 15 to 20)
#    0.000    2.600    0.000    1.800    0.000    5.200 
#    0.000    1.000    0.000    1.200    0.000    0.000 
#    0.000    0.000    0.000    0.000    0.000    0.000 
#
# Total GULP energy -223164.980282 kJ/mol
# GULP energy per Si atom -5579.124507 kJ/mol
# Density = 1.945825 g / cm^3
# Si number density = 19.502641 Si / 1000 Ang^3
#
#
#
# Elastic Constant Matrix: (Units=GPa)
#
#
# Indices 1 2 3 4 5 6 
#
# 1 33.5986 -9.0090 7.4262 0.0000 0.0000 0.0000
# 2 -9.0090 89.3219 98.3908 0.0000 0.0000 0.0000
# 3 7.4262 98.3908 206.7784 0.0000 0.0000 0.0000
# 4 0.0000 0.0000 0.0000 15.4434 0.0000 0.0000
# 5 0.0000 0.0000 0.0000 0.0000 12.7656 0.0000
# 6 0.0000 0.0000 0.0000 0.0000 0.0000 74.2390
#
#
#
# Elastic Compliance Matrix: (Units=1/GPa)
#
#
# Indices 1 2 3 4 5 6 
#
# 1 0.033749 0.009959 -0.005951 0.000000 0.000000 0.000000
# 2 0.009959 0.026465 -0.012951 0.000000 0.000000 0.000000
# 3 -0.005951 -0.012951 0.011212 0.000000 0.000000 0.000000
# 4 0.000000 0.000000 0.000000 0.064752 0.000000 0.000000
# 5 0.000000 0.000000 0.000000 0.000000 0.078335 0.000000
# 6 0.000000 0.000000 0.000000 0.000000 0.000000 0.013470
#
#
# Mechanical properties :
#
#
# Convention : Reuss Voigt Hill
#
# Bulk Modulus (GPa) = 18.67725 58.14611 38.41168
# Shear Modulus (GPa) = 18.95978 36.01567 27.48773
#
# Velocity S-wave (km/s) = 3.12134 4.30200 3.75832
# Velocity P-wave (km/s) = 4.75267 7.38616 6.21061
#
# Compressibility (1/GPa) = 0.05354108
#
# Stress axis : x y z
#
# Youngs Moduli (GPa) = 29.63075 37.78520 89.18965
#
# Poissons Ratio (x) = -0.37629 0.53074
# Poissons Ratio (y) = -0.29509 1.15506
# Poissons Ratio (z) = 0.17632 0.48934
#
# Static dielectric constant tensor:
#      x y z
#    x 1.723360 0.000000 0.000000 
#    y 0.000000 1.634300 0.000000 
#    z 0.000000 0.000000 1.729870 
# 
# From -- ./inp_files/40426.got.cif
#   From: 2010.05.17/outbox.cif.g08.bks.cpg/sg63_21_cif.got.tgz:40426.got - 2010.06.03 15:47:04.
