data_PCOD9469533
_publ_section_title
;
Structure prediction by ZEFSAII (Michael W. Deem and Ramdas Pophale) SiO2 
 PCOD9469533
Probable space group: C M C M
;
_chemical_formula_sum "Si O2"
_cell_formula_units_Z 52
_cell_length_a 7.104040
_cell_length_b 14.452762
_cell_length_c 18.571779
_cell_angle_alpha 90.000000
_cell_angle_beta 90.000000
_cell_angle_gamma 90.000000
_cell_volume 1906.820253
_symmetry_space_group_name_H-M "C M C M"
_symmetry_group_IT_number 63
_symmetry_cell_setting 'orthorhombic'
loop_
_space_group_symop_operation_xyz
x,y,z
-x,-y,1/2+z
x,-y,-z
-x,y,1/2-z
-x,-y,-z
x,y,1/2-z
-x,y,z
x,-y,1/2+z
1/2+x,1/2+y,z
1/2-x,1/2-y,1/2+z
1/2+x,1/2-y,-z
1/2-x,1/2+y,1/2-z
1/2-x,1/2-y,-z
1/2+x,1/2+y,1/2-z
1/2-x,1/2+y,z
1/2+x,1/2-y,1/2+z
loop_
_atom_site_type_symbol
_atom_site_label
_atom_site_fract_x
_atom_site_fract_y
_atom_site_fract_z
Si Si1 0.716343 0.391652 0.516662
Si Si2 0.220723 0.146830 0.326299
Si Si3 0.500000 0.953088 0.250000
Si Si4 0.275834 0.642039 0.859253
O O1 0.718650 0.500000 0.500000
O O2 0.500000 0.359737 0.522504
O O3 0.799708 0.378711 0.595709
O O4 0.788171 0.348430 0.442598
O O5 0.305706 0.112106 0.250000
O O6 0.238759 0.257819 0.325322
O O7 0.000000 0.121338 0.325563
O O8 0.336814 0.932995 0.313833
O O9 0.500000 0.622001 0.859009
#
# Coordination Sequence:
#
# PCOD9469533 Si02
#       4
#    16  16   4  16
#     4   9  20  38  60  91 129 169 208 245 306 375
#     4  10  18  35  61  91 125 162 204 259 305 356
#     4  12  22  40  62  94 128 152 210 262 306 358
#     4  11  21  38  66  92 122 162 204 257 309 362
#
# _framework density 27.270533
#
# number of rings (size 3 to 8) (size 9 to 14) (size 15 to 20)
#    0.000    1.846    3.077    1.385    0.000    0.000 
#    5.538    0.769    0.000    0.000    0.000    0.000 
#    0.000    0.000    0.000    0.000    0.000    0.000 
#
# Total GULP energy -145050.007719 kJ/mol
# GULP energy per Si atom -5578.846451 kJ/mol
# Density = 2.720846 g / cm^3
# Si number density = 27.270533 Si / 1000 Ang^3
#
#
#
# Elastic Constant Matrix: (Units=GPa)
#
#
# Indices 1 2 3 4 5 6 
#
# 1 208.4832 -30.7580 29.3899 0.0000 0.0000 0.0000
# 2 -30.7580 59.1505 30.2895 0.0000 0.0000 0.0000
# 3 29.3899 30.2895 356.8854 0.0000 0.0000 0.0000
# 4 0.0000 0.0000 0.0000 64.7052 0.0000 0.0000
# 5 0.0000 0.0000 0.0000 0.0000 -11.2855 0.0000
# 6 0.0000 0.0000 0.0000 0.0000 0.0000 -95.6117
#
#
#
# Elastic Compliance Matrix: (Units=1/GPa)
#
#
# Indices 1 2 3 4 5 6 
#
# 1 0.005361 0.003151 -0.000709 0.000000 0.000000 0.000000
# 2 0.003151 0.019526 -0.001917 0.000000 0.000000 0.000000
# 3 -0.000709 -0.001917 0.003023 0.000000 0.000000 0.000000
# 4 0.000000 0.000000 0.000000 0.015455 0.000000 0.000000
# 5 0.000000 0.000000 0.000000 0.000000 -0.088609 0.000000
# 6 0.000000 0.000000 0.000000 0.000000 0.000000 -0.010459
#
#
# Mechanical properties :
#
#
# Convention : Reuss Voigt Hill
#
# Bulk Modulus (GPa) = 34.52925 75.81801 55.17363
# Shear Modulus (GPa) = -106.15714 31.26811 -37.44452
#
# Velocity S-wave (km/s) = -6.24595 3.38981 -3.70952
# Velocity P-wave (km/s) = 6.27110 6.57142 1.38869
#
# Compressibility (1/GPa) = 0.02896095
#
# Stress axis : x y z
#
# Youngs Moduli (GPa) = 186.52025 51.21385 330.78908
#
# Poissons Ratio (x) = -0.16137 0.23451
# Poissons Ratio (y) = -0.58771 0.63402
# Poissons Ratio (z) = 0.13223 0.09816
#
# Static dielectric constant tensor:
#      x y z
#    x 2.069260 0.000000 0.000000 
#    y 0.000000 2.196510 0.000000 
#    z 0.000000 0.000000 2.171610 
# 
# From -- ./inp_files/39503.got.cif
#   From: 2010.05.17/outbox.cif.g08.bks.cpg/sg63_20_cif.got.tgz:39503.got - 2010.06.03 15:47:04.
