data_PCOD9469249
_publ_section_title
;
Structure prediction by ZEFSAII (Michael W. Deem and Ramdas Pophale) SiO2 
 PCOD9469249
Probable space group: C M C M
;
_chemical_formula_sum "Si O2"
_cell_formula_units_Z 72
_cell_length_a 15.974034
_cell_length_b 29.269268
_cell_length_c 8.558295
_cell_angle_alpha 90.000000
_cell_angle_beta 90.000000
_cell_angle_gamma 90.000000
_cell_volume 4001.416126
_symmetry_space_group_name_H-M "C M C M"
_symmetry_group_IT_number 63
_symmetry_cell_setting 'orthorhombic'
loop_
_space_group_symop_operation_xyz
x,y,z
-x,-y,1/2+z
x,-y,-z
-x,y,1/2-z
-x,-y,-z
x,y,1/2-z
-x,y,z
x,-y,1/2+z
1/2+x,1/2+y,z
1/2-x,1/2-y,1/2+z
1/2+x,1/2-y,-z
1/2-x,1/2+y,1/2-z
1/2-x,1/2-y,-z
1/2+x,1/2+y,1/2-z
1/2-x,1/2+y,z
1/2+x,1/2-y,1/2+z
loop_
_atom_site_type_symbol
_atom_site_label
_atom_site_fract_x
_atom_site_fract_y
_atom_site_fract_z
Si Si1 0.000000 0.948050 0.936509
Si Si2 0.904564 0.806033 0.061099
Si Si3 0.323476 0.551242 0.564685
Si Si4 0.593604 0.199431 0.060084
Si Si5 0.747797 0.862401 0.936997
O O1 0.000000 0.947323 0.750000
O O2 0.087417 0.929692 0.000814
O O3 0.000000 0.000000 0.000000
O O4 0.899337 0.810062 0.250000
O O5 0.892663 0.752549 0.018671
O O6 0.000000 0.818997 0.015923
O O7 0.831060 0.834943 0.985328
O O8 0.311290 0.500000 0.500000
O O9 0.328504 0.548872 0.750000
O O10 0.254695 0.587253 0.509385
O O11 0.593760 0.198257 0.250000
O O12 0.500000 0.186241 0.008044
O O13 0.667499 0.166401 0.006672
O O14 0.744677 0.866267 0.750000
#
# Coordination Sequence:
#
# PCOD9469249 Si02
#       5
#     8  16  16  16  16
#     4  10  18  32  52  74 100 132 170 208 250 302
#     4   9  18  33  52  75 107 144 179 214 258 312
#     4  11  22  37  54  74 104 139 175 214 261 311
#     4   8  16  33  55  77 103 138 178 221 269 316
#     4  11  21  32  52  80 107 137 177 222 265 313
#
# _framework density 17.993628999999999
#
# number of rings (size 3 to 8) (size 9 to 14) (size 15 to 20)
#    0.000    2.222    0.000    7.000    1.556    0.444 
#    0.000    1.111    0.000    6.000    0.000    0.000 
#    0.000    0.000    0.000    0.000    0.000    0.000 
#
# Total GULP energy -200932.995879 kJ/mol
# GULP energy per Si atom -5581.472108 kJ/mol
# Density = 1.795267 g / cm^3
# Si number density = 17.993629 Si / 1000 Ang^3
#
#
#
# Elastic Constant Matrix: (Units=GPa)
#
#
# Indices 1 2 3 4 5 6 
#
# 1 102.6056 78.4229 29.8379 0.0000 0.0000 0.0000
# 2 78.4229 105.8536 30.8209 0.0000 0.0000 0.0000
# 3 29.8379 30.8209 83.2682 0.0000 0.0000 0.0000
# 4 0.0000 0.0000 0.0000 26.0975 0.0000 0.0000
# 5 0.0000 0.0000 0.0000 0.0000 17.7396 0.0000
# 6 0.0000 0.0000 0.0000 0.0000 0.0000 32.1194
#
#
#
# Elastic Compliance Matrix: (Units=1/GPa)
#
#
# Indices 1 2 3 4 5 6 
#
# 1 0.022808 -0.016271 -0.002150 0.000000 0.000000 0.000000
# 2 -0.016271 0.022196 -0.002385 0.000000 0.000000 0.000000
# 3 -0.002150 -0.002385 0.013663 0.000000 0.000000 0.000000
# 4 0.000000 0.000000 0.000000 0.038318 0.000000 0.000000
# 5 0.000000 0.000000 0.000000 0.000000 0.056371 0.000000
# 6 0.000000 0.000000 0.000000 0.000000 0.000000 0.031134
#
#
# Mechanical properties :
#
#
# Convention : Reuss Voigt Hill
#
# Bulk Modulus (GPa) = 58.63905 63.32120 60.98013
# Shear Modulus (GPa) = 21.57150 25.36767 23.46959
#
# Velocity S-wave (km/s) = 3.46618 3.75882 3.61547
# Velocity P-wave (km/s) = 6.97702 7.35565 7.16884
#
# Compressibility (1/GPa) = 0.01705348
#
# Stress axis : x y z
#
# Youngs Moduli (GPa) = 43.84478 45.05259 73.19199
#
# Poissons Ratio (x) = 0.73307 0.15737
# Poissons Ratio (y) = 0.71341 0.17457
# Poissons Ratio (z) = 0.09427 0.10746
#
# Static dielectric constant tensor:
#      x y z
#    x 1.628140 0.000000 0.000000 
#    y 0.000000 1.617610 0.000000 
#    z 0.000000 0.000000 1.612220 
# 
# From -- ./inp_files/4910.got.cif
#   From: 2010.05.17/outbox.cif.g08.bks.cpg/sg63_3_cif.got.tgz:4910.got - 2010.06.03 15:47:04.
