data_PCOD9469558
_publ_section_title
;
Structure prediction by ZEFSAII (Michael W. Deem and Ramdas Pophale) SiO2 
 PCOD9469558
Probable space group: C M C M
;
_chemical_formula_sum "Si O2"
_cell_formula_units_Z 116
_cell_length_a 17.460379
_cell_length_b 14.810470
_cell_length_c 24.230889
_cell_angle_alpha 90.000000
_cell_angle_beta 90.000000
_cell_angle_gamma 90.000000
_cell_volume 6266.021134
_symmetry_space_group_name_H-M "C M C M"
_symmetry_group_IT_number 63
_symmetry_cell_setting 'orthorhombic'
loop_
_space_group_symop_operation_xyz
x,y,z
-x,-y,1/2+z
x,-y,-z
-x,y,1/2-z
-x,-y,-z
x,y,1/2-z
-x,y,z
x,-y,1/2+z
1/2+x,1/2+y,z
1/2-x,1/2-y,1/2+z
1/2+x,1/2-y,-z
1/2-x,1/2+y,1/2-z
1/2-x,1/2-y,-z
1/2+x,1/2+y,1/2-z
1/2-x,1/2+y,z
1/2+x,1/2-y,1/2+z
loop_
_atom_site_type_symbol
_atom_site_label
_atom_site_fract_x
_atom_site_fract_y
_atom_site_fract_z
Si Si1 0.124018 0.149977 0.655506
Si Si2 0.672423 0.511980 0.564841
Si Si3 0.649382 0.033155 0.595300
Si Si4 0.083781 0.310901 0.471275
Si Si5 0.697848 0.169164 0.686436
Si Si6 0.689497 0.685170 0.099606
Si Si7 0.871808 0.327851 0.904894
Si Si8 0.500000 0.391722 0.250000
O O1 0.129740 0.090155 0.599238
O O2 0.211082 0.153014 0.678532
O O3 0.102606 0.252791 0.638796
O O4 0.066854 0.112577 0.701105
O O5 0.653414 0.500000 0.500000
O O6 0.764132 0.529255 0.570394
O O7 0.659725 0.416274 0.595027
O O8 0.599548 0.088847 0.551699
O O9 0.656026 0.093039 0.650306
O O10 0.619466 0.933459 0.608366
O O11 0.147720 0.246835 0.445253
O O12 0.089934 0.310174 0.536607
O O13 0.000000 0.280439 0.452936
O O14 0.677592 0.166568 0.750000
O O15 0.678999 0.264959 0.657882
O O16 0.780158 0.685287 0.088043
#
# Coordination Sequence:
#
# PCOD9469558 Si02
#       8
#    16  16  16  16  16  16  16   4
#     4  10  22  37  58  78 110 149 185 231 279 331
#     4  10  18  36  61  88 109 140 192 239 280 332
#     4   9  19  33  56  85 115 143 181 231 286 327
#     4  11  21  33  54  83 124 149 172 227 289 352
#     4   9  17  36  58  83 104 138 189 239 270 323
#     4   9  19  35  57  84 109 143 189 231 276 321
#     4  10  19  35  56  84 105 148 192 221 273 335
#     4  12  24  44  50  68 118 154 186 226 286 336
#
# _framework density 18.512544999999999
#
# number of rings (size 3 to 8) (size 9 to 14) (size 15 to 20)
#    0.000    2.207    0.690    4.138    0.966    1.103 
#    3.724    3.103    0.000    6.621    0.000    0.000 
#    0.000    0.000    0.000    0.000    0.000    0.000 
#
# Total GULP energy -323066.708104 kJ/mol
# GULP energy per Si atom -5570.115657 kJ/mol
# Density = 1.847041 g / cm^3
# Si number density = 18.512545 Si / 1000 Ang^3
#
#
#
# Elastic Constant Matrix: (Units=GPa)
#
#
# Indices 1 2 3 4 5 6 
#
# 1 7.1754 0.4534 2.2282 0.0000 0.0000 0.0000
# 2 0.4534 63.6078 3.8063 0.0000 0.0000 0.0000
# 3 2.2282 3.8063 96.2444 0.0000 0.0000 0.0000
# 4 0.0000 0.0000 0.0000 10.8318 0.0000 0.0000
# 5 0.0000 0.0000 0.0000 0.0000 8.4414 0.0000
# 6 0.0000 0.0000 0.0000 0.0000 0.0000 -5.3649
#
#
#
# Elastic Compliance Matrix: (Units=1/GPa)
#
#
# Indices 1 2 3 4 5 6 
#
# 1 0.140416 -0.000808 -0.003219 0.000000 0.000000 0.000000
# 2 -0.000808 0.015763 -0.000605 0.000000 0.000000 0.000000
# 3 -0.003219 -0.000605 0.010489 0.000000 0.000000 0.000000
# 4 0.000000 0.000000 0.000000 0.092320 0.000000 0.000000
# 5 0.000000 0.000000 0.000000 0.000000 0.118464 0.000000
# 6 0.000000 0.000000 0.000000 0.000000 0.000000 -0.186398
#
#
# Mechanical properties :
#
#
# Convention : Reuss Voigt Hill
#
# Bulk Modulus (GPa) = 6.35306 20.00037 13.17671
# Shear Modulus (GPa) = 19.77953 13.48432 16.63192
#
# Velocity S-wave (km/s) = 3.27225 2.70179 3.00061
# Velocity P-wave (km/s) = 4.20904 4.53432 4.37470
#
# Compressibility (1/GPa) = 0.15740451
#
# Stress axis : x y z
#
# Youngs Moduli (GPa) = 7.12169 63.43854 95.34116
#
# Poissons Ratio (x) = 0.05127 0.30689
# Poissons Ratio (y) = 0.00576 0.05765
# Poissons Ratio (z) = 0.02292 0.03836
#
# Static dielectric constant tensor:
#      x y z
#    x 1.648030 0.000000 0.000000 
#    y 0.000000 1.664950 0.000000 
#    z 0.000000 0.000000 1.608620 
# 
# From -- ./inp_files/63924.got.cif
#   From: 2010.05.17/outbox.cif.g08.bks.cpg/sg63_32_cif.got.tgz:63924.got - 2010.06.03 15:47:04.
