data_PCOD9469001
_publ_section_title
;
Structure prediction by ZEFSAII (Michael W. Deem and Ramdas Pophale) SiO2 
 PCOD9469001
Probable space group: C M C M
;
_chemical_formula_sum "Si O2"
_cell_formula_units_Z 116
_cell_length_a 7.550210
_cell_length_b 28.546581
_cell_length_c 28.636212
_cell_angle_alpha 90.000000
_cell_angle_beta 90.000000
_cell_angle_gamma 90.000000
_cell_volume 6172.039556
_symmetry_space_group_name_H-M "C M C M"
_symmetry_group_IT_number 63
_symmetry_cell_setting 'orthorhombic'
loop_
_space_group_symop_operation_xyz
x,y,z
-x,-y,1/2+z
x,-y,-z
-x,y,1/2-z
-x,-y,-z
x,y,1/2-z
-x,y,z
x,-y,1/2+z
1/2+x,1/2+y,z
1/2-x,1/2-y,1/2+z
1/2+x,1/2-y,-z
1/2-x,1/2+y,1/2-z
1/2-x,1/2-y,-z
1/2+x,1/2+y,1/2-z
1/2-x,1/2+y,z
1/2+x,1/2-y,1/2+z
loop_
_atom_site_type_symbol
_atom_site_label
_atom_site_fract_x
_atom_site_fract_y
_atom_site_fract_z
Si Si1 0.707779 0.795658 0.551295
Si Si2 0.703663 0.192433 0.946466
Si Si3 0.282895 0.552781 0.511979
Si Si4 0.787966 0.105426 0.420539
Si Si5 0.713608 0.445164 0.825240
Si Si6 0.214092 0.054191 0.802596
Si Si7 0.000000 0.415134 0.750000
Si Si8 0.793479 0.898670 0.394765
O O1 0.500000 0.786725 0.545283
O O2 0.781439 0.807864 0.499296
O O3 0.785907 0.746632 0.568410
O O4 0.732677 0.840614 0.583559
O O5 0.500000 0.178190 0.950241
O O6 0.784931 0.155135 0.911160
O O7 0.232370 0.500000 0.500000
O O8 0.500000 0.554369 0.512621
O O9 0.220377 0.585545 0.469732
O O10 0.219282 0.571229 0.561960
O O11 0.742694 0.072248 0.377368
O O12 0.000000 0.105192 0.423163
O O13 0.500000 0.438132 0.817454
O O14 0.748978 0.500406 0.817220
O O15 0.842715 0.418404 0.790282
O O16 0.282679 0.062280 0.750000
O O17 0.280430 0.087848 0.844082
O O18 0.000000 0.058858 0.799736
O O19 0.000000 0.911841 0.392165
#
# Coordination Sequence:
#
# PCOD9469001 Si02
#       8
#    16  16  16  16  16  16   4  16
#     4  10  20  33  53  75 107 140 179 221 269 334
#     4  10  20  34  50  75 107 141 176 225 275 326
#     4   9  16  27  46  74 107 143 179 208 252 328
#     4  10  19  32  53  80 110 143 174 219 274 328
#     4  10  21  37  56  82 115 146 188 236 282 327
#     4   9  17  33  54  77 107 144 184 232 275 317
#     4  12  22  36  60  82 106 152 194 248 274 326
#     4  10  18  30  52  77 105 141 183 221 269 330
#
# _framework density 18.794435
#
# number of rings (size 3 to 8) (size 9 to 14) (size 15 to 20)
#    0.000    2.207    2.069    1.862    0.966    4.414 
#    1.241    0.000    0.000    0.828    1.793    0.000 
#    0.000    0.000    0.000    0.000    0.000    0.000 
#
# Total GULP energy -322966.817408 kJ/mol
# GULP energy per Si atom -5568.393404 kJ/mol
# Density = 1.875166 g / cm^3
# Si number density = 18.794435 Si / 1000 Ang^3
#
#
#
# Elastic Constant Matrix: (Units=GPa)
#
#
# Indices 1 2 3 4 5 6 
#
# 1 53.3502 -2.1663 22.2964 0.0000 0.0000 0.0000
# 2 -2.1663 99.7755 69.4437 0.0000 0.0000 0.0000
# 3 22.2964 69.4437 148.8298 0.0000 0.0000 0.0000
# 4 0.0000 0.0000 0.0000 2.1904 0.0000 0.0000
# 5 0.0000 0.0000 0.0000 0.0000 9.7671 0.0000
# 6 0.0000 0.0000 0.0000 0.0000 0.0000 11.6143
#
#
#
# Elastic Compliance Matrix: (Units=1/GPa)
#
#
# Indices 1 2 3 4 5 6 
#
# 1 0.020980 0.003914 -0.004969 0.000000 0.000000 0.000000
# 2 0.003914 0.015573 -0.007853 0.000000 0.000000 0.000000
# 3 -0.004969 -0.007853 0.011128 0.000000 0.000000 0.000000
# 4 0.000000 0.000000 0.000000 0.456533 0.000000 0.000000
# 5 0.000000 0.000000 0.000000 0.000000 0.102385 0.000000
# 6 0.000000 0.000000 0.000000 0.000000 0.000000 0.086101
#
#
# Mechanical properties :
#
#
# Convention : Reuss Voigt Hill
#
# Bulk Modulus (GPa) = 33.48440 53.45589 43.47015
# Shear Modulus (GPa) = 6.93991 18.87313 12.90652
#
# Velocity S-wave (km/s) = 1.92368 3.17233 2.62338
# Velocity P-wave (km/s) = 4.77377 6.47475 5.68820
#
# Compressibility (1/GPa) = 0.02986466
#
# Stress axis : x y z
#
# Youngs Moduli (GPa) = 47.66477 64.21388 89.86653
#
# Poissons Ratio (x) = -0.25135 0.44658
# Poissons Ratio (y) = -0.18657 0.70570
# Poissons Ratio (z) = 0.23686 0.50425
#
# Static dielectric constant tensor:
#      x y z
#    x 1.702950 0.000000 0.000000 
#    y 0.000000 1.649020 0.000000 
#    z 0.000000 0.000000 1.621350 
# 
# From -- ./inp_files/67704.got.cif
#   From: 2010.05.17/outbox.cif.g08.bks.cpg/sg63_34_cif.got.tgz:67704.got - 2010.06.03 15:47:04.
