data_PCOD9469086
_publ_section_title
;
Structure prediction by ZEFSAII (Michael W. Deem and Ramdas Pophale) SiO2 
 PCOD9469086
Probable space group: C M C M
;
_chemical_formula_sum "Si O2"
_cell_formula_units_Z 96
_cell_length_a 21.015324
_cell_length_b 19.449432
_cell_length_c 13.981516
_cell_angle_alpha 90.000000
_cell_angle_beta 90.000000
_cell_angle_gamma 90.000000
_cell_volume 5714.750533
_symmetry_space_group_name_H-M "C M C M"
_symmetry_group_IT_number 63
_symmetry_cell_setting 'orthorhombic'
loop_
_space_group_symop_operation_xyz
x,y,z
-x,-y,1/2+z
x,-y,-z
-x,y,1/2-z
-x,-y,-z
x,y,1/2-z
-x,y,z
x,-y,1/2+z
1/2+x,1/2+y,z
1/2-x,1/2-y,1/2+z
1/2+x,1/2-y,-z
1/2-x,1/2+y,1/2-z
1/2-x,1/2-y,-z
1/2+x,1/2+y,1/2-z
1/2-x,1/2+y,z
1/2+x,1/2-y,1/2+z
loop_
_atom_site_type_symbol
_atom_site_label
_atom_site_fract_x
_atom_site_fract_y
_atom_site_fract_z
Si Si1 0.569732 0.548569 0.366558
Si Si2 0.739864 0.918569 0.490246
Si Si3 0.823598 0.154633 0.137155
Si Si4 0.575131 0.741543 0.636617
Si Si5 0.678880 0.216457 0.981579
Si Si6 0.634184 0.592396 0.862898
O O1 0.567962 0.549320 0.250000
O O2 0.500000 0.562199 0.403616
O O3 0.618679 0.606467 0.395442
O O4 0.594484 0.473808 0.393552
O O5 0.763050 0.883600 0.589738
O O6 0.687114 0.863678 0.456133
O O7 0.800029 0.908453 0.420090
O O8 0.725701 0.000000 0.500000
O O9 0.816389 0.153852 0.250000
O O10 0.840233 0.230995 0.101878
O O11 0.583790 0.758686 0.750000
O O12 0.500000 0.753204 0.613418
O O13 0.628262 0.776616 0.568303
O O14 0.593146 0.661088 0.625803
O O15 0.750000 0.250000 0.000000
O O16 0.648706 0.585743 0.750000
#
# Coordination Sequence:
#
# PCOD9469086 Si02
#       6
#    16  16  16  16  16  16
#     4   9  17  29  46  71 105 143 176 206 252 318
#     4  11  21  36  53  77 106 142 189 231 277 330
#     4  10  20  34  49  71 104 144 183 222 267 322
#     4  10  20  35  57  84 113 145 184 234 286 333
#     4  10  21  36  52  79 108 142 184 231 281 333
#     4  10  18  31  50  78 112 143 178 220 267 325
#
# _framework density 16.798632999999999
#
# number of rings (size 3 to 8) (size 9 to 14) (size 15 to 20)
#    0.000    2.000    5.000    0.500    0.000    6.000 
#    0.000    0.833    0.000    0.500    0.000    0.000 
#    0.000    2.667    0.000    0.000    0.000    0.000 
#
# Total GULP energy -267335.910208 kJ/mol
# GULP energy per Si atom -5569.498129 kJ/mol
# Density = 1.676040 g / cm^3
# Si number density = 16.798633 Si / 1000 Ang^3
#
#
#
# Elastic Constant Matrix: (Units=GPa)
#
#
# Indices 1 2 3 4 5 6 
#
# 1 47.1204 23.4118 0.6129 0.0000 0.0000 0.0000
# 2 23.4118 114.3036 12.7622 0.0000 0.0000 0.0000
# 3 0.6129 12.7622 45.3500 0.0000 0.0000 0.0000
# 4 0.0000 0.0000 0.0000 20.2542 0.0000 0.0000
# 5 0.0000 0.0000 0.0000 0.0000 22.2777 0.0000
# 6 0.0000 0.0000 0.0000 0.0000 0.0000 -2.7380
#
#
#
# Elastic Compliance Matrix: (Units=1/GPa)
#
#
# Indices 1 2 3 4 5 6 
#
# 1 0.023678 -0.004970 0.001079 0.000000 0.000000 0.000000
# 2 -0.004970 0.010076 -0.002768 0.000000 0.000000 0.000000
# 3 0.001079 -0.002768 0.022815 0.000000 0.000000 0.000000
# 4 0.000000 0.000000 0.000000 0.049373 0.000000 0.000000
# 5 0.000000 0.000000 0.000000 0.000000 0.044888 0.000000
# 6 0.000000 0.000000 0.000000 0.000000 0.000000 -0.365228
#
#
# Mechanical properties :
#
#
# Convention : Reuss Voigt Hill
#
# Bulk Modulus (GPa) = 23.12191 31.14975 27.13583
# Shear Modulus (GPa) = -26.78625 19.29126 -3.74750
#
# Velocity S-wave (km/s) = -3.99751 3.39246 -1.49522
# Velocity P-wave (km/s) = 2.74094 5.82480 3.63425
#
# Compressibility (1/GPa) = 0.04324903
#
# Stress axis : x y z
#
# Youngs Moduli (GPa) = 42.23401 99.24873 43.83048
#
# Poissons Ratio (x) = 0.49328 -0.04728
# Poissons Ratio (y) = 0.20991 0.12134
# Poissons Ratio (z) = -0.04556 0.27475
#
# Static dielectric constant tensor:
#      x y z
#    x 1.593780 0.000000 0.000000 
#    y 0.000000 1.587240 0.000000 
#    z 0.000000 0.000000 1.623780 
# 
# From -- ./inp_files/35749.got.cif
#   From: 2010.05.17/outbox.cif.g08.bks.cpg/sg63_18_cif.got.tgz:35749.got - 2010.06.03 15:47:04.
