data_PCOD9469413
_publ_section_title
;
Structure prediction by ZEFSAII (Michael W. Deem and Ramdas Pophale) SiO2 
 PCOD9469413
Probable space group: C M C M
;
_chemical_formula_sum "Si O2"
_cell_formula_units_Z 96
_cell_length_a 27.683996
_cell_length_b 10.018774
_cell_length_c 14.771905
_cell_angle_alpha 90.000000
_cell_angle_beta 90.000000
_cell_angle_gamma 90.000000
_cell_volume 4097.131129
_symmetry_space_group_name_H-M "C M C M"
_symmetry_group_IT_number 63
_symmetry_cell_setting 'orthorhombic'
loop_
_space_group_symop_operation_xyz
x,y,z
-x,-y,1/2+z
x,-y,-z
-x,y,1/2-z
-x,-y,-z
x,y,1/2-z
-x,y,z
x,-y,1/2+z
1/2+x,1/2+y,z
1/2-x,1/2-y,1/2+z
1/2+x,1/2-y,-z
1/2-x,1/2+y,1/2-z
1/2-x,1/2-y,-z
1/2+x,1/2+y,1/2-z
1/2-x,1/2+y,z
1/2+x,1/2-y,1/2+z
loop_
_atom_site_type_symbol
_atom_site_label
_atom_site_fract_x
_atom_site_fract_y
_atom_site_fract_z
Si Si1 0.797852 0.935809 0.595331
Si Si2 0.389061 0.262724 0.888701
Si Si3 0.613846 0.248806 0.107774
Si Si4 0.447065 0.494358 0.109952
Si Si5 0.723601 0.732647 0.649825
Si Si6 0.555511 0.994760 0.389375
O O1 0.841310 0.847115 0.637165
O O2 0.755578 0.826463 0.585266
O O3 0.815471 0.000000 0.500000
O O4 0.777056 0.071242 0.640294
O O5 0.433245 0.357924 0.862097
O O6 0.405426 0.116155 0.859369
O O7 0.385095 0.251026 0.998118
O O8 0.593709 0.391160 0.138312
O O9 0.667883 0.226322 0.139951
O O10 0.576311 0.137296 0.138513
O O11 0.500000 0.451939 0.139297
O O12 0.447179 0.500000 0.000000
O O13 0.741661 0.765996 0.750000
O O14 0.500000 0.970140 0.361484
O O15 0.554818 0.000000 0.500000
#
# Coordination Sequence:
#
# PCOD9469413 Si02
#       6
#    16  16  16  16  16  16
#     4  12  24  44  67  95 123 167 216 271 319 385
#     4  10  18  33  56  92 121 157 203 258 312 360
#     4  10  19  34  55  85 126 162 205 247 310 372
#     4   9  15  27  51  83 119 155 198 253 305 357
#     4  12  27  44  64  93 129 167 211 266 331 388
#     4   9  18  30  52  90 131 162 200 259 311 360
#
# _framework density 23.43103
#
# number of rings (size 3 to 8) (size 9 to 14) (size 15 to 20)
#    0.000    1.667    3.333    2.500    2.333    4.667 
#    0.000    0.000    0.000    2.000    0.000    0.000 
#    0.000    0.000    0.000    0.000    0.000    0.000 
#
# Total GULP energy -267925.276698 kJ/mol
# GULP energy per Si atom -5581.776598 kJ/mol
# Density = 2.337770 g / cm^3
# Si number density = 23.431030 Si / 1000 Ang^3
#
#
#
# Elastic Constant Matrix: (Units=GPa)
#
#
# Indices 1 2 3 4 5 6 
#
# 1 140.6143 47.7065 -3.5839 0.0000 0.0000 0.0000
# 2 47.7065 131.4414 11.1785 0.0000 0.0000 0.0000
# 3 -3.5839 11.1785 68.7549 0.0000 0.0000 0.0000
# 4 0.0000 0.0000 0.0000 6.9226 0.0000 0.0000
# 5 0.0000 0.0000 0.0000 0.0000 -215.3559 0.0000
# 6 0.0000 0.0000 0.0000 0.0000 0.0000 50.4286
#
#
#
# Elastic Compliance Matrix: (Units=1/GPa)
#
#
# Indices 1 2 3 4 5 6 
#
# 1 0.008167 -0.003043 0.000920 0.000000 0.000000 0.000000
# 2 -0.003043 0.008848 -0.001597 0.000000 0.000000 0.000000
# 3 0.000920 -0.001597 0.014852 0.000000 0.000000 0.000000
# 4 0.000000 0.000000 0.000000 0.144454 0.000000 0.000000
# 5 0.000000 0.000000 0.000000 0.000000 -0.004643 0.000000
# 6 0.000000 0.000000 0.000000 0.000000 0.000000 0.019830
#
#
# Mechanical properties :
#
#
# Convention : Reuss Voigt Hill
#
# Bulk Modulus (GPa) = 40.93527 50.15697 45.54612
# Shear Modulus (GPa) = 24.14412 -12.56697 5.78858
#
# Velocity S-wave (km/s) = 3.21352 -2.31841 1.57348
# Velocity P-wave (km/s) = 5.59262 3.77968 4.77302
#
# Compressibility (1/GPa) = 0.02442881
#
# Stress axis : x y z
#
# Youngs Moduli (GPa) = 122.43817 113.01866 67.33070
#
# Poissons Ratio (x) = 0.34387 -0.06197
# Poissons Ratio (y) = 0.37253 0.10754
# Poissons Ratio (z) = -0.11269 0.18051
#
# Static dielectric constant tensor:
#      x y z
#    x 1.827320 0.000000 0.000000 
#    y 0.000000 1.818080 0.000000 
#    z 0.000000 0.000000 1.916610 
# 
# From -- ./inp_files/58107.got.cif
#   From: 2010.05.17/outbox.cif.g08.bks.cpg/sg63_30_cif.got.tgz:58107.got - 2010.06.03 15:47:04.
