data_PCOD9469808
_publ_section_title
;
Structure prediction by ZEFSAII (Michael W. Deem and Ramdas Pophale) SiO2 
 PCOD9469808
Probable space group: C M C M
;
_chemical_formula_sum "Si O2"
_cell_formula_units_Z 96
_cell_length_a 25.773073
_cell_length_b 9.880355
_cell_length_c 23.098335
_cell_angle_alpha 90.000000
_cell_angle_beta 90.000000
_cell_angle_gamma 90.000000
_cell_volume 5881.924269
_symmetry_space_group_name_H-M "C M C M"
_symmetry_group_IT_number 63
_symmetry_cell_setting 'orthorhombic'
loop_
_space_group_symop_operation_xyz
x,y,z
-x,-y,1/2+z
x,-y,-z
-x,y,1/2-z
-x,-y,-z
x,y,1/2-z
-x,y,z
x,-y,1/2+z
1/2+x,1/2+y,z
1/2-x,1/2-y,1/2+z
1/2+x,1/2-y,-z
1/2-x,1/2+y,1/2-z
1/2-x,1/2-y,-z
1/2+x,1/2+y,1/2-z
1/2-x,1/2+y,z
1/2+x,1/2-y,1/2+z
loop_
_atom_site_type_symbol
_atom_site_label
_atom_site_fract_x
_atom_site_fract_y
_atom_site_fract_z
Si Si1 0.725178 0.340780 0.817828
Si Si2 0.939064 0.822468 0.680964
Si Si3 0.300378 0.156848 0.505116
Si Si4 0.353302 0.140363 0.629366
Si Si5 0.835367 0.331491 0.620210
Si Si6 0.861692 0.061084 0.681303
O O1 0.739021 0.349460 0.750000
O O2 0.689368 0.209258 0.828568
O O3 0.775902 0.332999 0.856978
O O4 0.689072 0.469828 0.833513
O O5 0.931627 0.795871 0.750000
O O6 0.907108 0.712471 0.644699
O O7 0.000000 0.824386 0.668944
O O8 0.910983 0.965758 0.669305
O O9 0.250000 0.250000 0.500000
O O10 0.331486 0.172077 0.565015
O O11 0.335191 0.184287 0.448865
O O12 0.283791 0.000000 0.500000
O O13 0.356890 0.979324 0.635906
O O14 0.861910 0.202853 0.649159
O O15 0.859100 0.085058 0.750000
#
# Coordination Sequence:
#
# PCOD9469808 Si02
#       6
#    16  16  16  16  16  16
#     4  10  19  30  46  71 105 142 171 201 249 314
#     4   9  19  38  60  77  97 131 175 220 266 314
#     4  10  21  33  49  73 105 143 181 211 248 300
#     4  10  20  34  51  75 104 137 177 215 254 306
#     4  11  20  30  48  74 108 137 170 211 255 308
#     4   9  19  32  49  75 102 132 169 211 262 310
#
# _framework density 16.321190000000001
#
# number of rings (size 3 to 8) (size 9 to 14) (size 15 to 20)
#    0.000    2.167    1.667    3.000    2.333    4.000 
#    0.000    0.833    0.000    8.500    0.000    0.000 
#    0.000    0.000    0.000    0.000    0.000    0.000 
#
# Total GULP energy -267779.741207 kJ/mol
# GULP energy per Si atom -5578.744608 kJ/mol
# Density = 1.628404 g / cm^3
# Si number density = 16.321190 Si / 1000 Ang^3
#
#
#
# Elastic Constant Matrix: (Units=GPa)
#
#
# Indices 1 2 3 4 5 6 
#
# 1 99.7428 55.1854 38.3935 0.0000 0.0000 0.0000
# 2 55.1854 130.8536 47.1372 0.0000 0.0000 0.0000
# 3 38.3935 47.1372 57.0111 0.0000 0.0000 0.0000
# 4 0.0000 0.0000 0.0000 27.1708 0.0000 0.0000
# 5 0.0000 0.0000 0.0000 0.0000 13.4668 0.0000
# 6 0.0000 0.0000 0.0000 0.0000 0.0000 4.3934
#
#
#
# Elastic Compliance Matrix: (Units=1/GPa)
#
#
# Indices 1 2 3 4 5 6 
#
# 1 0.014726 -0.003757 -0.006811 0.000000 0.000000 0.000000
# 2 -0.003757 0.011842 -0.007261 0.000000 0.000000 0.000000
# 3 -0.006811 -0.007261 0.028131 0.000000 0.000000 0.000000
# 4 0.000000 0.000000 0.000000 0.036804 0.000000 0.000000
# 5 0.000000 0.000000 0.000000 0.000000 0.074256 0.000000
# 6 0.000000 0.000000 0.000000 0.000000 0.000000 0.227612
#
#
# Mechanical properties :
#
#
# Convention : Reuss Voigt Hill
#
# Bulk Modulus (GPa) = 52.51794 63.22661 57.87227
# Shear Modulus (GPa) = 11.48430 18.79897 15.14164
#
# Velocity S-wave (km/s) = 2.65551 3.39752 3.04917
# Velocity P-wave (km/s) = 6.45367 7.36301 6.92329
#
# Compressibility (1/GPa) = 0.01904111
#
# Stress axis : x y z
#
# Youngs Moduli (GPa) = 67.90654 84.44317 35.54839
#
# Poissons Ratio (x) = 0.31726 0.24211
# Poissons Ratio (y) = 0.25513 0.25812
# Poissons Ratio (z) = 0.46250 0.61315
#
# Static dielectric constant tensor:
#      x y z
#    x 1.524010 0.000000 0.000000 
#    y 0.000000 1.560970 0.000000 
#    z 0.000000 0.000000 1.566130 
# 
# From -- ./inp_files/58062.got.cif
#   From: 2010.05.17/outbox.cif.g08.bks.cpg/sg63_30_cif.got.tgz:58062.got - 2010.06.03 15:47:04.
