data_PCOD9469257
_publ_section_title
;
Structure prediction by ZEFSAII (Michael W. Deem and Ramdas Pophale) SiO2 
 PCOD9469257
Probable space group: C M C M
;
_chemical_formula_sum "Si O2"
_cell_formula_units_Z 72
_cell_length_a 23.445323
_cell_length_b 18.258693
_cell_length_c 8.904519
_cell_angle_alpha 90.000000
_cell_angle_beta 90.000000
_cell_angle_gamma 90.000000
_cell_volume 3811.854997
_symmetry_space_group_name_H-M "C M C M"
_symmetry_group_IT_number 63
_symmetry_cell_setting 'orthorhombic'
loop_
_space_group_symop_operation_xyz
x,y,z
-x,-y,1/2+z
x,-y,-z
-x,y,1/2-z
-x,-y,-z
x,y,1/2-z
-x,y,z
x,-y,1/2+z
1/2+x,1/2+y,z
1/2-x,1/2-y,1/2+z
1/2+x,1/2-y,-z
1/2-x,1/2+y,1/2-z
1/2-x,1/2-y,-z
1/2+x,1/2+y,1/2-z
1/2-x,1/2+y,z
1/2+x,1/2-y,1/2+z
loop_
_atom_site_type_symbol
_atom_site_label
_atom_site_fract_x
_atom_site_fract_y
_atom_site_fract_z
Si Si1 0.110131 0.421228 0.575951
Si Si2 0.500000 0.082243 0.571711
Si Si3 0.294236 0.841625 0.418935
Si Si4 0.434897 0.580540 0.430937
Si Si5 0.178332 0.831282 0.923492
O O1 0.117016 0.500000 0.500000
O O2 0.096497 0.428875 0.750000
O O3 0.167675 0.379259 0.544269
O O4 0.057547 0.382640 0.490711
O O5 0.500000 0.078213 0.750000
O O6 0.500000 0.000000 0.500000
O O7 0.305573 0.869803 0.250000
O O8 0.228680 0.854202 0.463850
O O9 0.313461 0.756638 0.420837
O O10 0.423761 0.500000 0.500000
O O11 0.435008 0.574348 0.250000
O O12 0.500000 0.602370 0.476202
O O13 0.383652 0.637038 0.468661
O O14 0.188757 0.855661 0.750000
#
# Coordination Sequence:
#
# PCOD9469257 Si02
#       5
#    16   8  16  16  16
#     4  11  21  35  54  77 107 140 179 224 269 318
#     4  10  18  32  52  74 102 136 171 210 259 310
#     4  10  20  35  54  78 106 142 184 226 274 324
#     4   9  18  34  56  81 109 139 176 220 270 327
#     4   9  19  36  55  76 106 144 182 221 271 328
#
# _framework density 18.888442999999999
#
# number of rings (size 3 to 8) (size 9 to 14) (size 15 to 20)
#    0.000    2.222    0.000    5.000    0.000    2.667 
#    2.000    2.222    0.000    0.000    0.000    0.000 
#    0.000    0.000    0.000    0.000    0.000    0.000 
#
# Total GULP energy -200555.129613 kJ/mol
# GULP energy per Si atom -5570.975823 kJ/mol
# Density = 1.884545 g / cm^3
# Si number density = 18.888443 Si / 1000 Ang^3
#
#
#
# Elastic Constant Matrix: (Units=GPa)
#
#
# Indices 1 2 3 4 5 6 
#
# 1 145.6995 41.8921 34.0699 0.0000 0.0000 0.0000
# 2 41.8921 19.7078 14.3083 0.0000 0.0000 0.0000
# 3 34.0699 14.3083 103.4217 0.0000 0.0000 0.0000
# 4 0.0000 0.0000 0.0000 21.1169 0.0000 0.0000
# 5 0.0000 0.0000 0.0000 0.0000 31.7294 0.0000
# 6 0.0000 0.0000 0.0000 0.0000 0.0000 30.2648
#
#
#
# Elastic Compliance Matrix: (Units=1/GPa)
#
#
# Indices 1 2 3 4 5 6 
#
# 1 0.017697 -0.037112 -0.000695 0.000000 0.000000 0.000000
# 2 -0.037112 0.134237 -0.006346 0.000000 0.000000 0.000000
# 3 -0.000695 -0.006346 0.010776 0.000000 0.000000 0.000000
# 4 0.000000 0.000000 0.000000 0.047355 0.000000 0.000000
# 5 0.000000 0.000000 0.000000 0.000000 0.031516 0.000000
# 6 0.000000 0.000000 0.000000 0.000000 0.000000 0.033042
#
#
# Mechanical properties :
#
#
# Convention : Reuss Voigt Hill
#
# Bulk Modulus (GPa) = 13.44037 49.92997 31.68517
# Shear Modulus (GPa) = 12.89554 28.52615 20.71084
#
# Velocity S-wave (km/s) = 2.61573 3.89040 3.31491
# Velocity P-wave (km/s) = 4.03160 6.83168 5.60917
#
# Compressibility (1/GPa) = 0.07440271
#
# Stress axis : x y z
#
# Youngs Moduli (GPa) = 56.50746 7.44953 92.79777
#
# Poissons Ratio (x) = 0.27647 0.06452
# Poissons Ratio (y) = 2.09713 0.58886
# Poissons Ratio (z) = 0.03929 0.04727
#
# Static dielectric constant tensor:
#      x y z
#    x 1.742110 0.000000 0.000000 
#    y 0.000000 1.652000 0.000000 
#    z 0.000000 0.000000 1.629540 
# 
# From -- ./inp_files/7856.got.cif
#   From: 2010.05.17/outbox.cif.g08.bks.cpg/sg63_4_cif.got.tgz:7856.got - 2010.06.03 15:47:04.
