data_PCOD9469713
_publ_section_title
;
Structure prediction by ZEFSAII (Michael W. Deem and Ramdas Pophale) SiO2 
 PCOD9469713
Probable space group: C M C M
;
_chemical_formula_sum "Si O2"
_cell_formula_units_Z 116
_cell_length_a 13.571100
_cell_length_b 18.414406
_cell_length_c 19.701938
_cell_angle_alpha 90.000000
_cell_angle_beta 90.000000
_cell_angle_gamma 90.000000
_cell_volume 4923.588095
_symmetry_space_group_name_H-M "C M C M"
_symmetry_group_IT_number 63
_symmetry_cell_setting 'orthorhombic'
loop_
_space_group_symop_operation_xyz
x,y,z
-x,-y,1/2+z
x,-y,-z
-x,y,1/2-z
-x,-y,-z
x,y,1/2-z
-x,y,z
x,-y,1/2+z
1/2+x,1/2+y,z
1/2-x,1/2-y,1/2+z
1/2+x,1/2-y,-z
1/2-x,1/2+y,1/2-z
1/2-x,1/2-y,-z
1/2+x,1/2+y,1/2-z
1/2-x,1/2+y,z
1/2+x,1/2-y,1/2+z
loop_
_atom_site_type_symbol
_atom_site_label
_atom_site_fract_x
_atom_site_fract_y
_atom_site_fract_z
Si Si1 0.613607 0.894729 0.470989
Si Si2 0.607655 0.455856 0.673867
Si Si3 0.183615 0.255410 0.852616
Si Si4 0.613918 0.936395 0.324413
Si Si5 0.110751 0.775566 0.493363
Si Si6 0.810341 0.427845 0.884593
Si Si7 0.610567 0.290656 0.855434
Si Si8 0.000000 0.769725 0.250000
O O1 0.500000 0.920252 0.469415
O O2 0.611032 0.809507 0.488029
O O3 0.664582 0.929941 0.536162
O O4 0.655374 0.905786 0.395533
O O5 0.620830 0.485889 0.750000
O O6 0.500000 0.479881 0.647999
O O7 0.704136 0.464494 0.629308
O O8 0.603916 0.368301 0.679515
O O9 0.179281 0.343891 0.861224
O O10 0.296938 0.245365 0.828524
O O11 0.089624 0.233017 0.808401
O O12 0.174960 0.217817 0.926514
O O13 0.658335 0.921100 0.250000
O O14 0.500000 0.913254 0.321620
O O15 0.618704 0.022863 0.338747
O O16 0.135434 0.810581 0.565552
O O17 0.000000 0.798096 0.476061
O O18 0.500000 0.257777 0.853692
#
# Coordination Sequence:
#
# PCOD9469713 Si02
#       8
#    16  16  16  16  16  16  16   4
#     4   9  18  32  47  71 101 128 161 203 242 282
#     4   9  18  32  47  72 105 124 151 198 249 291
#     4  10  21  31  47  73 106 133 162 196 248 301
#     4  10  20  30  46  69  98 130 163 198 241 294
#     4   9  16  32  51  71  94 129 170 205 240 291
#     4  10  19  29  50  72  97 133 160 193 239 302
#     4   9  18  31  51  72  96 132 169 203 237 284
#     4  12  24  32  46  72 114 136 150 202 258 304
#
# _framework density 23.560053
#
# number of rings (size 3 to 8) (size 9 to 14) (size 15 to 20)
#    0.000    2.483    0.690    1.655    6.759    1.103 
#    0.000    0.690    0.000    5.793    0.000    0.000 
#    0.000    0.276    0.000    0.000    0.000    0.000 
#
# Total GULP energy -322939.493071 kJ/mol
# GULP energy per Si atom -5567.922294 kJ/mol
# Density = 2.350643 g / cm^3
# Si number density = 23.560053 Si / 1000 Ang^3
#
#
#
# Elastic Constant Matrix: (Units=GPa)
#
#
# Indices 1 2 3 4 5 6 
#
# 1 169.3149 -6.8890 55.2485 0.0000 0.0000 0.0000
# 2 -6.8890 23.1691 6.8135 0.0000 0.0000 0.0000
# 3 55.2485 6.8135 174.7942 0.0000 0.0000 0.0000
# 4 0.0000 0.0000 0.0000 -0.1293 0.0000 0.0000
# 5 0.0000 0.0000 0.0000 0.0000 14.7425 0.0000
# 6 0.0000 0.0000 0.0000 0.0000 0.0000 13.2644
#
#
#
# Elastic Compliance Matrix: (Units=1/GPa)
#
#
# Indices 1 2 3 4 5 6 
#
# 1 0.006744 0.002663 -0.002235 0.000000 0.000000 0.000000
# 2 0.002663 0.044713 -0.002584 0.000000 0.000000 0.000000
# 3 -0.002235 -0.002584 0.006528 0.000000 0.000000 0.000000
# 4 0.000000 0.000000 0.000000 -7.733974 0.000000 0.000000
# 5 0.000000 0.000000 0.000000 0.000000 0.067831 0.000000
# 6 0.000000 0.000000 0.000000 0.000000 0.000000 0.075390
#
#
# Mechanical properties :
#
#
# Convention : Reuss Voigt Hill
#
# Bulk Modulus (GPa) = 18.63225 53.06936 35.85081
# Shear Modulus (GPa) = -0.66573 26.38253 12.85840
#
# Velocity S-wave (km/s) = -0.53215 3.34997 2.33871
# Velocity P-wave (km/s) = 2.74736 6.12675 4.74790
#
# Compressibility (1/GPa) = 0.05367038
#
# Stress axis : x y z
#
# Youngs Moduli (GPa) = 148.28200 22.36499 153.17898
#
# Poissons Ratio (x) = -0.05955 0.34241
# Poissons Ratio (y) = -0.39481 0.39589
# Poissons Ratio (z) = 0.33147 0.05780
#
# Static dielectric constant tensor:
#      x y z
#    x 1.956340 0.000000 0.000000 
#    y 0.000000 1.913410 0.000000 
#    z 0.000000 0.000000 1.946910 
# 
# From -- ./inp_files/44726.got.cif
#   From: 2010.05.17/outbox.cif.g08.bks.cpg/sg63_23_cif.got.tgz:44726.got - 2010.06.03 15:47:04.
