data_PCOD9469436
_publ_section_title
;
Structure prediction by ZEFSAII (Michael W. Deem and Ramdas Pophale) SiO2 
 PCOD9469436
Probable space group: C M C M
;
_chemical_formula_sum "Si O2"
_cell_formula_units_Z 80
_cell_length_a 13.902717
_cell_length_b 15.353907
_cell_length_c 18.851387
_cell_angle_alpha 90.000000
_cell_angle_beta 90.000000
_cell_angle_gamma 90.000000
_cell_volume 4024.036370
_symmetry_space_group_name_H-M "C M C M"
_symmetry_group_IT_number 63
_symmetry_cell_setting 'orthorhombic'
loop_
_space_group_symop_operation_xyz
x,y,z
-x,-y,1/2+z
x,-y,-z
-x,y,1/2-z
-x,-y,-z
x,y,1/2-z
-x,y,z
x,-y,1/2+z
1/2+x,1/2+y,z
1/2-x,1/2-y,1/2+z
1/2+x,1/2-y,-z
1/2-x,1/2+y,1/2-z
1/2-x,1/2-y,-z
1/2+x,1/2+y,1/2-z
1/2-x,1/2+y,z
1/2+x,1/2-y,1/2+z
loop_
_atom_site_type_symbol
_atom_site_label
_atom_site_fract_x
_atom_site_fract_y
_atom_site_fract_z
Si Si1 0.611460 0.428940 0.562387
Si Si2 0.615955 0.261367 0.021635
Si Si3 0.116194 0.300747 0.671003
Si Si4 0.114433 0.421510 0.054190
Si Si5 0.726736 0.983988 0.667936
O O1 0.614273 0.500000 0.500000
O O2 0.500000 0.417055 0.583657
O O3 0.650577 0.340573 0.526577
O O4 0.675754 0.459994 0.627268
O O5 0.500000 0.272500 0.024906
O O6 0.648654 0.255837 0.103396
O O7 0.634471 0.169866 0.983372
O O8 0.141847 0.267806 0.750000
O O9 0.159766 0.397425 0.663583
O O10 0.000000 0.307569 0.667586
O O11 0.173629 0.440141 0.124809
O O12 0.000000 0.426072 0.068285
O O13 0.138369 0.500000 0.000000
O O14 0.741773 0.004709 0.750000
#
# Coordination Sequence:
#
# PCOD9469436 Si02
#       5
#    16  16  16  16  16
#     4  10  23  43  62  80 107 152 211 257 286 329
#     4   9  18  35  61  87 112 152 197 240 289 342
#     4   9  17  31  54  88 125 151 176 222 291 363
#     4  10  18  33  59  91 121 148 182 228 292 363
#     4  11  22  36  55  84 119 155 190 234 296 354
#
# _framework density 19.880535999999999
#
# number of rings (size 3 to 8) (size 9 to 14) (size 15 to 20)
#    0.000    2.200    2.000    1.200    0.000    2.400 
#    0.000    2.000    0.000    7.200    0.000    0.000 
#    0.000    0.000    0.000    0.000    0.000    0.000 
#
# Total GULP energy -223517.218608 kJ/mol
# GULP energy per Si atom -5587.930465 kJ/mol
# Density = 1.983529 g / cm^3
# Si number density = 19.880536 Si / 1000 Ang^3
#
#
#
# Elastic Constant Matrix: (Units=GPa)
#
#
# Indices 1 2 3 4 5 6 
#
# 1 76.7832 7.2263 50.5842 0.0000 0.0000 0.0000
# 2 7.2263 59.5344 31.1582 0.0000 0.0000 0.0000
# 3 50.5842 31.1582 174.8731 0.0000 0.0000 0.0000
# 4 0.0000 0.0000 0.0000 12.3821 0.0000 0.0000
# 5 0.0000 0.0000 0.0000 0.0000 16.8666 0.0000
# 6 0.0000 0.0000 0.0000 0.0000 0.0000 4.7487
#
#
#
# Elastic Compliance Matrix: (Units=1/GPa)
#
#
# Indices 1 2 3 4 5 6 
#
# 1 0.016105 0.000533 -0.004754 0.000000 0.000000 0.000000
# 2 0.000533 0.018542 -0.003458 0.000000 0.000000 0.000000
# 3 -0.004754 -0.003458 0.007710 0.000000 0.000000 0.000000
# 4 0.000000 0.000000 0.000000 0.080762 0.000000 0.000000
# 5 0.000000 0.000000 0.000000 0.000000 0.059289 0.000000
# 6 0.000000 0.000000 0.000000 0.000000 0.000000 0.210586
#
#
# Mechanical properties :
#
#
# Convention : Reuss Voigt Hill
#
# Bulk Modulus (GPa) = 37.03730 54.34756 45.69243
# Shear Modulus (GPa) = 11.98035 21.61427 16.79731
#
# Velocity S-wave (km/s) = 2.45749 3.30086 2.90989
# Velocity P-wave (km/s) = 5.16940 6.47487 5.85861
#
# Compressibility (1/GPa) = 0.02699981
#
# Stress axis : x y z
#
# Youngs Moduli (GPa) = 62.09202 53.93137 129.70874
#
# Poissons Ratio (x) = -0.02875 0.61658
# Poissons Ratio (y) = -0.03310 0.44852
# Poissons Ratio (z) = 0.29516 0.18649
#
# Static dielectric constant tensor:
#      x y z
#    x 1.731510 0.000000 0.000000 
#    y 0.000000 1.682260 0.000000 
#    z 0.000000 0.000000 1.684240 
# 
# From -- ./inp_files/53985.got.cif
#   From: 2010.05.17/outbox.cif.g08.bks.cpg/sg63_27_cif.got.tgz:53985.got - 2010.06.03 15:47:04.
