data_PCOD9469683
_publ_section_title
;
Structure prediction by ZEFSAII (Michael W. Deem and Ramdas Pophale) SiO2 
 PCOD9469683
Probable space group: C M C M
;
_chemical_formula_sum "Si O2"
_cell_formula_units_Z 96
_cell_length_a 12.420915
_cell_length_b 20.627706
_cell_length_c 23.388856
_cell_angle_alpha 90.000000
_cell_angle_beta 90.000000
_cell_angle_gamma 90.000000
_cell_volume 5992.575339
_symmetry_space_group_name_H-M "C M C M"
_symmetry_group_IT_number 63
_symmetry_cell_setting 'orthorhombic'
loop_
_space_group_symop_operation_xyz
x,y,z
-x,-y,1/2+z
x,-y,-z
-x,y,1/2-z
-x,-y,-z
x,y,1/2-z
-x,y,z
x,-y,1/2+z
1/2+x,1/2+y,z
1/2-x,1/2-y,1/2+z
1/2+x,1/2-y,-z
1/2-x,1/2+y,1/2-z
1/2-x,1/2-y,-z
1/2+x,1/2+y,1/2-z
1/2-x,1/2+y,z
1/2+x,1/2-y,1/2+z
loop_
_atom_site_type_symbol
_atom_site_label
_atom_site_fract_x
_atom_site_fract_y
_atom_site_fract_z
Si Si1 0.375257 0.960170 0.863824
Si Si2 0.753677 0.771565 0.097993
Si Si3 0.125230 0.815429 0.986848
Si Si4 0.794579 0.571377 0.486565
Si Si5 0.371136 0.174168 0.183531
Si Si6 0.126424 0.397312 0.110942
O O1 0.500000 0.966597 0.848438
O O2 0.364028 0.936456 0.929447
O O3 0.332210 0.900011 0.827283
O O4 0.333452 0.034168 0.862208
O O5 0.842106 0.789846 0.049806
O O6 0.806272 0.723005 0.143192
O O7 0.701292 0.836110 0.124910
O O8 0.660808 0.736713 0.060599
O O9 0.000000 0.829474 0.983584
O O10 0.200246 0.877657 0.976851
O O11 0.750076 0.500000 0.500000
O O12 0.861604 0.593309 0.542087
O O13 0.358296 0.190496 0.250000
O O14 0.500000 0.176547 0.170066
O O15 0.000000 0.387423 0.124313
#
# Coordination Sequence:
#
# PCOD9469683 Si02
#       6
#    16  16  16  16  16  16
#     4   9  16  29  48  71  98 124 157 199 242 285
#     4  10  19  32  47  71 100 129 162 199 243 296
#     4  10  19  29  45  69 100 133 160 196 242 294
#     4   9  16  27  44  70 100 129 161 191 239 289
#     4  10  20  34  53  73  93 123 165 207 242 281
#     4   9  17  28  47  74 103 129 155 191 242 298
#
# _framework density 16.019824
#
# number of rings (size 3 to 8) (size 9 to 14) (size 15 to 20)
#    0.000    2.500    1.667    1.500    0.000    2.333 
#    0.000    0.833    0.000    3.000    0.000    0.000 
#    0.000    0.000    0.000    0.000    0.000    0.000 
#
# Total GULP energy -267258.956290 kJ/mol
# GULP energy per Si atom -5567.894923 kJ/mol
# Density = 1.598336 g / cm^3
# Si number density = 16.019824 Si / 1000 Ang^3
#
#
#
# Elastic Constant Matrix: (Units=GPa)
#
#
# Indices 1 2 3 4 5 6 
#
# 1 52.9516 37.4997 10.8744 0.0000 0.0000 0.0000
# 2 37.4997 125.4371 36.4309 0.0000 0.0000 0.0000
# 3 10.8744 36.4309 37.6455 0.0000 0.0000 0.0000
# 4 0.0000 0.0000 0.0000 18.3997 0.0000 0.0000
# 5 0.0000 0.0000 0.0000 0.0000 9.8547 0.0000
# 6 0.0000 0.0000 0.0000 0.0000 0.0000 24.1622
#
#
#
# Elastic Compliance Matrix: (Units=1/GPa)
#
#
# Indices 1 2 3 4 5 6 
#
# 1 0.023957 -0.007166 0.000015 0.000000 0.000000 0.000000
# 2 -0.007166 0.013232 -0.010735 0.000000 0.000000 0.000000
# 3 0.000015 -0.010735 0.036948 0.000000 0.000000 0.000000
# 4 0.000000 0.000000 0.000000 0.054349 0.000000 0.000000
# 5 0.000000 0.000000 0.000000 0.000000 0.101474 0.000000
# 6 0.000000 0.000000 0.000000 0.000000 0.000000 0.041387
#
#
# Mechanical properties :
#
#
# Convention : Reuss Voigt Hill
#
# Bulk Modulus (GPa) = 26.06607 42.84935 34.45771
# Shear Modulus (GPa) = 15.62940 19.23195 17.43067
#
# Velocity S-wave (km/s) = 3.12689 3.46860 3.30217
# Velocity P-wave (km/s) = 5.41693 6.54579 6.00793
#
# Compressibility (1/GPa) = 0.03836405
#
# Stress axis : x y z
#
# Youngs Moduli (GPa) = 41.74097 75.57209 27.06483
#
# Poissons Ratio (x) = 0.54158 -0.00040
# Poissons Ratio (y) = 0.29913 0.29055
# Poissons Ratio (z) = -0.00062 0.81129
#
# Static dielectric constant tensor:
#      x y z
#    x 1.503260 0.000000 0.000000 
#    y 0.000000 1.578860 0.000000 
#    z 0.000000 0.000000 1.534280 
# 
# From -- ./inp_files/52861.got.cif
#   From: 2010.05.17/outbox.cif.g08.bks.cpg/sg63_27_cif.got.tgz:52861.got - 2010.06.03 15:47:04.
