data_PCOD9469986
_publ_section_title
;
Structure prediction by ZEFSAII (Michael W. Deem and Ramdas Pophale) SiO2 
 PCOD9469986
Probable space group: C M C M
;
_chemical_formula_sum "Si O2"
_cell_formula_units_Z 96
_cell_length_a 23.611560
_cell_length_b 24.991342
_cell_length_c 9.780280
_cell_angle_alpha 90.000000
_cell_angle_beta 90.000000
_cell_angle_gamma 90.000000
_cell_volume 5771.192329
_symmetry_space_group_name_H-M "C M C M"
_symmetry_group_IT_number 63
_symmetry_cell_setting 'orthorhombic'
loop_
_space_group_symop_operation_xyz
x,y,z
-x,-y,1/2+z
x,-y,-z
-x,y,1/2-z
-x,-y,-z
x,y,1/2-z
-x,y,z
x,-y,1/2+z
1/2+x,1/2+y,z
1/2-x,1/2-y,1/2+z
1/2+x,1/2-y,-z
1/2-x,1/2+y,1/2-z
1/2-x,1/2-y,-z
1/2+x,1/2+y,1/2-z
1/2-x,1/2+y,z
1/2+x,1/2-y,1/2+z
loop_
_atom_site_type_symbol
_atom_site_label
_atom_site_fract_x
_atom_site_fract_y
_atom_site_fract_z
Si Si1 0.066327 0.847825 0.912051
Si Si2 0.380473 0.868754 0.910546
Si Si3 0.567104 0.047203 0.903004
Si Si4 0.933810 0.743422 0.089716
Si Si5 0.222320 0.552838 0.089837
Si Si6 0.645756 0.447067 0.587700
O O1 0.074018 0.837815 0.750000
O O2 0.105616 0.897714 0.950541
O O3 0.000000 0.860742 0.934637
O O4 0.079172 0.794401 0.996754
O O5 0.394958 0.879162 0.750000
O O6 0.391127 0.806004 0.932645
O O7 0.319832 0.897264 0.935988
O O8 0.421159 0.899014 0.015239
O O9 0.591459 0.046239 0.750000
O O10 0.500000 0.039753 0.890790
O O11 0.588959 0.000000 0.000000
O O12 0.930697 0.757931 0.250000
O O13 0.000000 0.727170 0.063666
O O14 0.215820 0.538877 0.250000
O O15 0.288101 0.567476 0.066635
O O16 0.211241 0.500000 0.000000
O O17 0.633668 0.500000 0.500000
O O18 0.638057 0.457821 0.750000
#
# Coordination Sequence:
#
# PCOD9469986 Si02
#       6
#    16  16  16  16  16  16
#     4   9  18  33  52  73  98 127 157 191 234 285
#     4  10  19  31  48  68  91 123 163 202 238 280
#     4  10  20  31  43  62  89 120 155 199 249 293
#     4   9  18  32  49  69  94 125 160 198 239 281
#     4   9  18  32  49  69  95 127 160 197 241 285
#     4   9  18  33  52  74 100 127 155 190 235 286
#
# _framework density 16.634343999999999
#
# number of rings (size 3 to 8) (size 9 to 14) (size 15 to 20)
#    0.000    2.667    0.000    1.500    0.000    5.333 
#    0.000    2.500    0.000    0.000    0.000    0.000 
#    0.000    0.000    0.000    0.000    0.000    0.000 
#
# Total GULP energy -267395.623973 kJ/mol
# GULP energy per Si atom -5570.742166 kJ/mol
# Density = 1.659648 g / cm^3
# Si number density = 16.634344 Si / 1000 Ang^3
#
#
#
# Elastic Constant Matrix: (Units=GPa)
#
#
# Indices 1 2 3 4 5 6 
#
# 1 81.1319 76.7172 50.4289 0.0000 0.0000 0.0000
# 2 76.7172 134.9203 75.4664 0.0000 0.0000 0.0000
# 3 50.4289 75.4664 72.2210 0.0000 0.0000 0.0000
# 4 0.0000 0.0000 0.0000 31.1279 0.0000 0.0000
# 5 0.0000 0.0000 0.0000 0.0000 1.8888 0.0000
# 6 0.0000 0.0000 0.0000 0.0000 0.0000 25.7569
#
#
#
# Elastic Compliance Matrix: (Units=1/GPa)
#
#
# Indices 1 2 3 4 5 6 
#
# 1 0.028069 -0.012027 -0.007032 0.000000 0.000000 0.000000
# 2 -0.012027 0.022991 -0.015626 0.000000 0.000000 0.000000
# 3 -0.007032 -0.015626 0.035084 0.000000 0.000000 0.000000
# 4 0.000000 0.000000 0.000000 0.032126 0.000000 0.000000
# 5 0.000000 0.000000 0.000000 0.000000 0.529439 0.000000
# 6 0.000000 0.000000 0.000000 0.000000 0.000000 0.038825
#
#
# Mechanical properties :
#
#
# Convention : Reuss Voigt Hill
#
# Bulk Modulus (GPa) = 59.61387 77.05537 68.33462
# Shear Modulus (GPa) = 6.56603 17.46542 12.01573
#
# Velocity S-wave (km/s) = 1.98893 3.24383 2.69056
# Velocity P-wave (km/s) = 6.41795 7.77518 7.12894
#
# Compressibility (1/GPa) = 0.01677462
#
# Stress axis : x y z
#
# Youngs Moduli (GPa) = 35.62628 43.49578 28.50275
#
# Poissons Ratio (x) = 0.52314 0.20043
# Poissons Ratio (y) = 0.42849 0.44538
# Poissons Ratio (z) = 0.25052 0.67965
#
# Static dielectric constant tensor:
#      x y z
#    x 1.582830 0.000000 0.000000 
#    y 0.000000 1.542670 0.000000 
#    z 0.000000 0.000000 1.563390 
# 
# From -- ./inp_files/10472.got.cif
#   From: 2010.05.17/outbox.cif.g08.bks.cpg/sg63_6_cif.got.tgz:10472.got - 2010.06.03 15:47:04.
