data_PCOD9469311
_publ_section_title
;
Structure prediction by ZEFSAII (Michael W. Deem and Ramdas Pophale) SiO2 
 PCOD9469311
Probable space group: C M C M
;
_chemical_formula_sum "Si O2"
_cell_formula_units_Z 104
_cell_length_a 29.280499
_cell_length_b 20.358102
_cell_length_c 8.949098
_cell_angle_alpha 90.000000
_cell_angle_beta 90.000000
_cell_angle_gamma 90.000000
_cell_volume 5334.516020
_symmetry_space_group_name_H-M "C M C M"
_symmetry_group_IT_number 63
_symmetry_cell_setting 'orthorhombic'
loop_
_space_group_symop_operation_xyz
x,y,z
-x,-y,1/2+z
x,-y,-z
-x,y,1/2-z
-x,-y,-z
x,y,1/2-z
-x,y,z
x,-y,1/2+z
1/2+x,1/2+y,z
1/2-x,1/2-y,1/2+z
1/2+x,1/2-y,-z
1/2-x,1/2+y,1/2-z
1/2-x,1/2-y,-z
1/2+x,1/2+y,1/2-z
1/2-x,1/2+y,z
1/2+x,1/2-y,1/2+z
loop_
_atom_site_type_symbol
_atom_site_label
_atom_site_fract_x
_atom_site_fract_y
_atom_site_fract_z
Si Si1 0.117463 0.427482 0.429921
Si Si2 0.408986 0.429573 0.574449
Si Si3 0.618132 0.691399 0.923888
Si Si4 0.776403 0.570823 0.929215
Si Si5 0.054113 0.685993 0.430721
Si Si6 0.721516 0.694888 0.923323
Si Si7 0.500000 0.427299 0.428169
O O1 0.109420 0.500000 0.500000
O O2 0.112786 0.430492 0.250000
O O3 0.170716 0.409646 0.464595
O O4 0.082114 0.374056 0.495730
O O5 0.399223 0.500000 0.500000
O O6 0.415483 0.438769 0.750000
O O7 0.375601 0.372218 0.529167
O O8 0.454287 0.399307 0.496079
O O9 0.608850 0.671428 0.750000
O O10 0.580993 0.746117 0.968357
O O11 0.669274 0.717899 0.929819
O O12 0.773923 0.563489 0.750000
O O13 0.738992 0.624025 0.981299
O O14 0.767911 0.500000 0.000000
O O15 0.056439 0.679831 0.250000
O O16 0.000000 0.687808 0.471557
O O17 0.733708 0.691979 0.750000
O O18 0.750000 0.750000 0.000000
O O19 0.500000 0.500000 0.500000
O O20 0.500000 0.428601 0.250000
#
# Coordination Sequence:
#
# PCOD9469311 Si02
#       7
#    16  16  16  16  16  16   8
#     4  10  20  36  60  87 116 149 185 229 283 344
#     4  11  22  37  57  83 113 149 193 240 288 341
#     4  10  22  39  58  83 115 154 195 242 295 345
#     4   9  19  35  56  85 117 148 184 230 282 339
#     4  10  22  39  58  82 113 151 193 237 288 341
#     4  10  21  37  58  84 115 149 191 236 286 348
#     4  10  18  32  54  78 106 140 181 228 277 330
#
# _framework density 19.495677000000001
#
# number of rings (size 3 to 8) (size 9 to 14) (size 15 to 20)
#    0.000    2.000    0.000    4.385    1.077    3.692 
#    0.000    1.538    0.000    0.000    0.000    0.000 
#    0.000    0.000    0.000    0.000    0.000    0.000 
#
# Total GULP energy -289748.089145 kJ/mol
# GULP energy per Si atom -5572.078637 kJ/mol
# Density = 1.945130 g / cm^3
# Si number density = 19.495677 Si / 1000 Ang^3
#
#
#
# Elastic Constant Matrix: (Units=GPa)
#
#
# Indices 1 2 3 4 5 6 
#
# 1 78.5642 46.4402 27.7827 0.0000 0.0000 0.0000
# 2 46.4402 100.1727 18.5063 0.0000 0.0000 0.0000
# 3 27.7827 18.5063 42.6144 0.0000 0.0000 0.0000
# 4 0.0000 0.0000 0.0000 34.1433 0.0000 0.0000
# 5 0.0000 0.0000 0.0000 0.0000 20.2117 0.0000
# 6 0.0000 0.0000 0.0000 0.0000 0.0000 36.5973
#
#
#
# Elastic Compliance Matrix: (Units=1/GPa)
#
#
# Indices 1 2 3 4 5 6 
#
# 1 0.020997 -0.007834 -0.010287 0.000000 0.000000 0.000000
# 2 -0.007834 0.013776 -0.000875 0.000000 0.000000 0.000000
# 3 -0.010287 -0.000875 0.030553 0.000000 0.000000 0.000000
# 4 0.000000 0.000000 0.000000 0.029288 0.000000 0.000000
# 5 0.000000 0.000000 0.000000 0.000000 0.049476 0.000000
# 6 0.000000 0.000000 0.000000 0.000000 0.000000 0.027324
#
#
# Mechanical properties :
#
#
# Convention : Reuss Voigt Hill
#
# Bulk Modulus (GPa) = 36.58467 45.20108 40.89287
# Shear Modulus (GPa) = 22.88131 26.76526 24.82329
#
# Velocity S-wave (km/s) = 3.42959 3.70926 3.57216
# Velocity P-wave (km/s) = 5.87274 6.44828 6.16723
#
# Compressibility (1/GPa) = 0.02733386
#
# Stress axis : x y z
#
# Youngs Moduli (GPa) = 47.62609 72.58894 32.72982
#
# Poissons Ratio (x) = 0.56864 0.33670
# Poissons Ratio (y) = 0.37309 0.02865
# Poissons Ratio (z) = 0.48993 0.06354
#
# Static dielectric constant tensor:
#      x y z
#    x 1.840860 0.000000 0.000000 
#    y 0.000000 1.667940 0.000000 
#    z 0.000000 0.000000 1.675000 
# 
# From -- ./inp_files/12566.got.cif
#   From: 2010.05.17/outbox.cif.g08.bks.cpg/sg63_7_cif.got.tgz:12566.got - 2010.06.03 15:47:04.
