data_PCOD9469417
_publ_section_title
;
Structure prediction by ZEFSAII (Michael W. Deem and Ramdas Pophale) SiO2 
 PCOD9469417
Probable space group: C M C M
;
_chemical_formula_sum "Si O2"
_cell_formula_units_Z 96
_cell_length_a 19.531276
_cell_length_b 8.849717
_cell_length_c 28.405512
_cell_angle_alpha 90.000000
_cell_angle_beta 90.000000
_cell_angle_gamma 90.000000
_cell_volume 4909.786662
_symmetry_space_group_name_H-M "C M C M"
_symmetry_group_IT_number 63
_symmetry_cell_setting 'orthorhombic'
loop_
_space_group_symop_operation_xyz
x,y,z
-x,-y,1/2+z
x,-y,-z
-x,y,1/2-z
-x,-y,-z
x,y,1/2-z
-x,y,z
x,-y,1/2+z
1/2+x,1/2+y,z
1/2-x,1/2-y,1/2+z
1/2+x,1/2-y,-z
1/2-x,1/2+y,1/2-z
1/2-x,1/2-y,-z
1/2+x,1/2+y,1/2-z
1/2-x,1/2+y,z
1/2+x,1/2-y,1/2+z
loop_
_atom_site_type_symbol
_atom_site_label
_atom_site_fract_x
_atom_site_fract_y
_atom_site_fract_z
Si Si1 0.743673 0.813575 0.845301
Si Si2 0.694321 0.922107 0.089769
Si Si3 0.420912 0.801937 0.038604
Si Si4 0.343497 0.547569 0.696176
Si Si5 0.826473 0.144222 0.534076
Si Si6 0.577061 0.503361 0.105257
O O1 0.798320 0.697822 0.867948
O O2 0.686423 0.709597 0.821020
O O3 0.717626 0.919110 0.888463
O O4 0.781486 0.927753 0.810234
O O5 0.619583 0.928451 0.067614
O O6 0.747602 0.853454 0.050946
O O7 0.500000 0.830353 0.026505
O O8 0.420026 0.657453 0.074467
O O9 0.372273 0.764379 0.994187
O O10 0.365765 0.554632 0.750000
O O11 0.400517 0.489807 0.659379
O O12 0.828938 0.000000 0.500000
O O13 0.867774 0.104534 0.581049
O O14 0.500000 0.445731 0.100553
#
# Coordination Sequence:
#
# PCOD9469417 Si02
#       6
#    16  16  16  16  16  16
#     4  10  20  36  58  84 109 146 185 229 284 331
#     4  11  19  36  59  80 115 149 189 228 276 331
#     4  10  20  33  54  85 115 150 190 228 274 328
#     4  11  21  37  59  85 111 141 184 236 287 339
#     4  10  18  33  57  82 109 153 193 231 268 326
#     4  10  19  34  55  81 114 146 186 234 279 329
#
# _framework density 19.552785
#
# number of rings (size 3 to 8) (size 9 to 14) (size 15 to 20)
#    0.000    1.667    5.000    2.500    0.000    2.333 
#    0.000    0.833    0.000    1.500    0.000    0.000 
#    0.000    0.000    0.000    0.000    0.000    0.000 
#
# Total GULP energy -267633.682388 kJ/mol
# GULP energy per Si atom -5575.701716 kJ/mol
# Density = 1.950828 g / cm^3
# Si number density = 19.552785 Si / 1000 Ang^3
#
#
#
# Elastic Constant Matrix: (Units=GPa)
#
#
# Indices 1 2 3 4 5 6 
#
# 1 98.1222 7.4523 25.0659 0.0000 0.0000 0.0000
# 2 7.4523 70.4437 14.0232 0.0000 0.0000 0.0000
# 3 25.0659 14.0232 109.6787 0.0000 0.0000 0.0000
# 4 0.0000 0.0000 0.0000 16.6235 0.0000 0.0000
# 5 0.0000 0.0000 0.0000 0.0000 17.9364 0.0000
# 6 0.0000 0.0000 0.0000 0.0000 0.0000 15.6718
#
#
#
# Elastic Compliance Matrix: (Units=1/GPa)
#
#
# Indices 1 2 3 4 5 6 
#
# 1 0.010854 -0.000672 -0.002395 0.000000 0.000000 0.000000
# 2 -0.000672 0.014608 -0.001714 0.000000 0.000000 0.000000
# 3 -0.002395 -0.001714 0.009884 0.000000 0.000000 0.000000
# 4 0.000000 0.000000 0.000000 0.060156 0.000000 0.000000
# 5 0.000000 0.000000 0.000000 0.000000 0.055753 0.000000
# 6 0.000000 0.000000 0.000000 0.000000 0.000000 0.063809
#
#
# Mechanical properties :
#
#
# Convention : Reuss Voigt Hill
#
# Bulk Modulus (GPa) = 38.78210 41.25858 40.02034
# Shear Modulus (GPa) = 21.43901 25.49321 23.46611
#
# Velocity S-wave (km/s) = 3.31489 3.61475 3.46806
# Velocity P-wave (km/s) = 5.87613 6.21038 6.04557
#
# Compressibility (1/GPa) = 0.02578509
#
# Stress axis : x y z
#
# Youngs Moduli (GPa) = 92.13081 68.45547 101.17344
#
# Poissons Ratio (x) = 0.04597 0.24228
# Poissons Ratio (y) = 0.06187 0.17344
# Poissons Ratio (z) = 0.22063 0.11735
#
# Static dielectric constant tensor:
#      x y z
#    x 1.683450 0.000000 0.000000 
#    y 0.000000 1.712420 0.000000 
#    z 0.000000 0.000000 1.698340 
# 
# From -- ./inp_files/70316.got.cif
#   From: 2010.05.17/outbox.cif.g08.bks.cpg/sg63_36_cif.got.tgz:70316.got - 2010.06.03 15:47:04.
