data_PCOD9469538
_publ_section_title
;
Structure prediction by ZEFSAII (Michael W. Deem and Ramdas Pophale) SiO2 
 PCOD9469538
Probable space group: C M C M
;
_chemical_formula_sum "Si O2"
_cell_formula_units_Z 116
_cell_length_a 22.325596
_cell_length_b 9.004573
_cell_length_c 27.512903
_cell_angle_alpha 90.000000
_cell_angle_beta 90.000000
_cell_angle_gamma 90.000000
_cell_volume 5530.986543
_symmetry_space_group_name_H-M "C M C M"
_symmetry_group_IT_number 63
_symmetry_cell_setting 'orthorhombic'
loop_
_space_group_symop_operation_xyz
x,y,z
-x,-y,1/2+z
x,-y,-z
-x,y,1/2-z
-x,-y,-z
x,y,1/2-z
-x,y,z
x,-y,1/2+z
1/2+x,1/2+y,z
1/2-x,1/2-y,1/2+z
1/2+x,1/2-y,-z
1/2-x,1/2+y,1/2-z
1/2-x,1/2-y,-z
1/2+x,1/2+y,1/2-z
1/2-x,1/2+y,z
1/2+x,1/2-y,1/2+z
loop_
_atom_site_type_symbol
_atom_site_label
_atom_site_fract_x
_atom_site_fract_y
_atom_site_fract_z
Si Si1 0.111368 0.318442 0.091820
Si Si2 0.500000 0.662241 0.750000
Si Si3 0.225837 0.917971 0.304920
Si Si4 0.605359 0.760248 0.681744
Si Si5 0.571914 0.099458 0.803145
Si Si6 0.566709 0.322910 0.498664
Si Si7 0.358664 0.835535 0.580345
Si Si8 0.725694 0.306480 0.625645
O O1 0.088849 0.315086 0.147752
O O2 0.124841 0.490461 0.079559
O O3 0.172678 0.225706 0.089008
O O4 0.068456 0.246137 0.052506
O O5 0.552424 0.675767 0.708165
O O6 0.243036 0.959165 0.250000
O O7 0.168519 0.810148 0.303316
O O8 0.274564 0.828439 0.335652
O O9 0.212985 0.054579 0.340016
O O10 0.603801 0.758653 0.623681
O O11 0.600668 0.934919 0.695001
O O12 0.586848 0.167770 0.750000
O O13 0.500000 0.076307 0.803880
O O14 0.575359 0.500000 0.500000
O O15 0.500000 0.293018 0.477709
O O16 0.619294 0.243550 0.468256
O O17 0.289311 0.819180 0.597723
#
# Coordination Sequence:
#
# PCOD9469538 Si02
#       8
#    16   4  16  16  16  16  16  16
#     4  11  24  42  70 100 136 177 228 278 338 412
#     4  12  16  36  60 104 134 180 226 278 326 416
#     4  11  22  40  62  95 138 184 232 279 337 399
#     4  10  20  33  63  99 133 173 227 277 329 403
#     4  10  18  35  63  98 139 178 225 276 331 399
#     4  11  27  48  73 105 134 173 221 283 352 403
#     4  10  24  44  68 100 131 179 228 283 338 405
#     4  11  24  43  64  98 136 180 230 283 337 407
#
# _framework density 20.972750999999999
#
# number of rings (size 3 to 8) (size 9 to 14) (size 15 to 20)
#    0.000    1.379    3.448    1.241    4.828    3.310 
#    0.000    0.000    1.517    0.000    0.000    0.000 
#    0.000    0.000    0.000    0.000    0.000    0.000 
#
# Total GULP energy -323300.442887 kJ/mol
# GULP energy per Si atom -5574.145567 kJ/mol
# Density = 2.092502 g / cm^3
# Si number density = 20.972751 Si / 1000 Ang^3
#
#
#
# Elastic Constant Matrix: (Units=GPa)
#
#
# Indices 1 2 3 4 5 6 
#
# 1 67.6504 10.2761 32.9603 0.0000 0.0000 0.0000
# 2 10.2761 60.3885 31.3671 0.0000 0.0000 0.0000
# 3 32.9603 31.3671 123.4175 0.0000 0.0000 0.0000
# 4 0.0000 0.0000 0.0000 -132.9840 0.0000 0.0000
# 5 0.0000 0.0000 0.0000 0.0000 18.7520 0.0000
# 6 0.0000 0.0000 0.0000 0.0000 0.0000 18.4130
#
#
#
# Elastic Compliance Matrix: (Units=1/GPa)
#
#
# Indices 1 2 3 4 5 6 
#
# 1 0.017013 -0.000616 -0.004387 0.000000 0.000000 0.000000
# 2 -0.000616 0.019100 -0.004690 0.000000 0.000000 0.000000
# 3 -0.004387 -0.004690 0.010466 0.000000 0.000000 0.000000
# 4 0.000000 0.000000 0.000000 -0.007520 0.000000 0.000000
# 5 0.000000 0.000000 0.000000 0.000000 0.053328 0.000000
# 6 0.000000 0.000000 0.000000 0.000000 0.000000 0.054309
#
#
# Mechanical properties :
#
#
# Convention : Reuss Voigt Hill
#
# Bulk Modulus (GPa) = 36.77399 44.51816 40.64608
# Shear Modulus (GPa) = 28.54744 -7.37361 10.58692
#
# Velocity S-wave (km/s) = 3.69340 -1.87708 2.24920
# Velocity P-wave (km/s) = 5.98001 4.07122 5.11544
#
# Compressibility (1/GPa) = 0.02719313
#
# Stress axis : x y z
#
# Youngs Moduli (GPa) = 58.77907 52.35516 95.54670
#
# Poissons Ratio (x) = 0.03227 0.41915
# Poissons Ratio (y) = 0.03623 0.44810
# Poissons Ratio (z) = 0.25786 0.24554
#
# Static dielectric constant tensor:
#      x y z
#    x 1.814760 0.000000 0.000000 
#    y 0.000000 1.813690 0.000000 
#    z 0.000000 0.000000 1.753170 
# 
# From -- ./inp_files/70747.got.cif
#   From: 2010.05.17/outbox.cif.g08.bks.cpg/sg63_36_cif.got.tgz:70747.got - 2010.06.03 15:47:04.
