data_PCOD9469481
_publ_section_title
;
Structure prediction by ZEFSAII (Michael W. Deem and Ramdas Pophale) SiO2 
 PCOD9469481
Probable space group: C M C M
;
_chemical_formula_sum "Si O2"
_cell_formula_units_Z 88
_cell_length_a 13.814002
_cell_length_b 29.283342
_cell_length_c 12.054767
_cell_angle_alpha 90.000000
_cell_angle_beta 90.000000
_cell_angle_gamma 90.000000
_cell_volume 4876.396094
_symmetry_space_group_name_H-M "C M C M"
_symmetry_group_IT_number 63
_symmetry_cell_setting 'orthorhombic'
loop_
_space_group_symop_operation_xyz
x,y,z
-x,-y,1/2+z
x,-y,-z
-x,y,1/2-z
-x,-y,-z
x,y,1/2-z
-x,y,z
x,-y,1/2+z
1/2+x,1/2+y,z
1/2-x,1/2-y,1/2+z
1/2+x,1/2-y,-z
1/2-x,1/2+y,1/2-z
1/2-x,1/2-y,-z
1/2+x,1/2+y,1/2-z
1/2-x,1/2+y,z
1/2+x,1/2-y,1/2+z
loop_
_atom_site_type_symbol
_atom_site_label
_atom_site_fract_x
_atom_site_fract_y
_atom_site_fract_z
Si Si1 0.114633 0.710665 0.034351
Si Si2 0.383999 0.054289 0.008216
Si Si3 0.109093 0.816827 0.997653
Si Si4 0.393120 0.075601 0.250000
Si Si5 0.812112 0.664862 0.250000
Si Si6 0.211975 0.362355 0.383156
Si Si7 0.604354 0.352966 0.750000
O O1 0.176826 0.694435 0.139941
O O2 0.000000 0.706161 0.057246
O O3 0.134825 0.763801 0.013745
O O4 0.142269 0.677210 0.933260
O O5 0.500000 0.064350 0.999673
O O6 0.348250 0.064122 0.132665
O O7 0.328420 0.088718 0.926194
O O8 0.371930 0.000000 0.000000
O O9 0.103839 0.825770 0.865789
O O10 0.000000 0.824104 0.041758
O O11 0.185437 0.849304 0.059623
O O12 0.500000 0.053396 0.250000
O O13 0.399673 0.129840 0.250000
O O14 0.716882 0.632407 0.250000
O O15 0.216859 0.361057 0.250000
O O16 0.500000 0.379178 0.750000
#
# Coordination Sequence:
#
# PCOD9469481 Si02
#       7
#    16  16  16   8   8  16   8
#     4  11  23  36  55  85 120 160 201 243 289 348
#     4  10  22  39  60  87 118 151 188 237 296 357
#     4  10  23  40  58  84 117 157 203 245 292 345
#     4  10  18  34  58  82 109 149 193 233 285 342
#     4  12  20  34  60  79 113 152 201 246 283 350
#     4  12  25  38  58  86 121 161 198 244 301 349
#     4  10  20  36  58  79 106 147 200 251 288 330
#
# _framework density 18.046113999999999
#
# number of rings (size 3 to 8) (size 9 to 14) (size 15 to 20)
#    0.000    1.273    3.636    1.909    3.818    1.818 
#    0.000    0.000    0.000    0.545    0.000    0.000 
#    0.000    0.000    0.000    0.000    0.000    0.000 
#
# Total GULP energy -245022.150275 kJ/mol
# GULP energy per Si atom -5568.685234 kJ/mol
# Density = 1.800504 g / cm^3
# Si number density = 18.046114 Si / 1000 Ang^3
#
#
#
# Elastic Constant Matrix: (Units=GPa)
#
#
# Indices 1 2 3 4 5 6 
#
# 1 126.6860 44.6844 32.6004 0.0000 0.0000 0.0000
# 2 44.6844 103.7030 54.1372 0.0000 0.0000 0.0000
# 3 32.6004 54.1372 156.2982 0.0000 0.0000 0.0000
# 4 0.0000 0.0000 0.0000 29.2769 0.0000 0.0000
# 5 0.0000 0.0000 0.0000 0.0000 21.7923 0.0000
# 6 0.0000 0.0000 0.0000 0.0000 0.0000 24.0778
#
#
#
# Elastic Compliance Matrix: (Units=1/GPa)
#
#
# Indices 1 2 3 4 5 6 
#
# 1 0.009367 -0.003682 -0.000678 0.000000 0.000000 0.000000
# 2 -0.003682 0.013219 -0.003811 0.000000 0.000000 0.000000
# 3 -0.000678 -0.003811 0.007859 0.000000 0.000000 0.000000
# 4 0.000000 0.000000 0.000000 0.034157 0.000000 0.000000
# 5 0.000000 0.000000 0.000000 0.000000 0.045888 0.000000
# 6 0.000000 0.000000 0.000000 0.000000 0.000000 0.041532
#
#
# Mechanical properties :
#
#
# Convention : Reuss Voigt Hill
#
# Bulk Modulus (GPa) = 70.90649 72.17014 71.53831
# Shear Modulus (GPa) = 28.89101 32.04707 30.46904
#
# Velocity S-wave (km/s) = 4.00553 4.21865 4.11347
# Velocity P-wave (km/s) = 7.79548 7.98800 7.89233
#
# Compressibility (1/GPa) = 0.01410308
#
# Stress axis : x y z
#
# Youngs Moduli (GPa) = 106.76041 75.65035 127.23586
#
# Poissons Ratio (x) = 0.27854 0.08632
# Poissons Ratio (y) = 0.39308 0.48485
# Poissons Ratio (z) = 0.07243 0.28828
#
# Static dielectric constant tensor:
#      x y z
#    x 1.718860 0.000000 0.000000 
#    y 0.000000 1.646430 0.000000 
#    z 0.000000 0.000000 1.611450 
# 
# From -- ./inp_files/19820.got.cif
#   From: 2010.05.17/outbox.cif.g08.bks.cpg/sg63_10_cif.got.tgz:19820.got - 2010.06.03 15:47:04.
