data_PCOD9469996
_publ_section_title
;
Structure prediction by ZEFSAII (Michael W. Deem and Ramdas Pophale) SiO2 
 PCOD9469996
Probable space group: C M C M
;
_chemical_formula_sum "Si O2"
_cell_formula_units_Z 80
_cell_length_a 8.362929
_cell_length_b 20.031880
_cell_length_c 26.632659
_cell_angle_alpha 90.000000
_cell_angle_beta 90.000000
_cell_angle_gamma 90.000000
_cell_volume 4461.641264
_symmetry_space_group_name_H-M "C M C M"
_symmetry_group_IT_number 63
_symmetry_cell_setting 'orthorhombic'
loop_
_space_group_symop_operation_xyz
x,y,z
-x,-y,1/2+z
x,-y,-z
-x,y,1/2-z
-x,-y,-z
x,y,1/2-z
-x,y,z
x,-y,1/2+z
1/2+x,1/2+y,z
1/2-x,1/2-y,1/2+z
1/2+x,1/2-y,-z
1/2-x,1/2+y,1/2-z
1/2-x,1/2-y,-z
1/2+x,1/2+y,1/2-z
1/2-x,1/2+y,z
1/2+x,1/2-y,1/2+z
loop_
_atom_site_type_symbol
_atom_site_label
_atom_site_fract_x
_atom_site_fract_y
_atom_site_fract_z
Si Si1 0.191542 0.117177 0.032416
Si Si2 0.304854 0.874915 0.807210
Si Si3 0.806595 0.727583 0.108767
Si Si4 0.691045 0.985190 0.614009
Si Si5 0.693087 0.624875 0.917168
O O1 0.249326 0.182778 0.062086
O O2 0.250636 0.053873 0.064335
O O3 0.000000 0.116249 0.032238
O O4 0.248149 0.117433 0.974998
O O5 0.248458 0.873640 0.750000
O O6 0.500000 0.874944 0.806211
O O7 0.255485 0.811409 0.840888
O O8 0.254736 0.940348 0.838651
O O9 0.751992 0.803720 0.103955
O O10 0.000000 0.727091 0.107849
O O11 0.500000 0.984691 0.613682
O O12 0.751270 0.060478 0.613246
O O13 0.500000 0.625315 0.917541
#
# Coordination Sequence:
#
# PCOD9469996 Si02
#       5
#    16  16  16  16  16
#     4  10  19  31  48  69  98 134 162 190 233 280
#     4   8  15  31  53  71  88 117 158 200 241 283
#     4   9  18  32  50  72  96 124 160 197 232 280
#     4  10  20  32  49  72  95 125 165 200 231 278
#     4  10  20  32  46  70 104 132 155 192 239 281
#
# _framework density 17.930620999999999
#
# number of rings (size 3 to 8) (size 9 to 14) (size 15 to 20)
#    0.000    2.600    0.000    3.600    0.000    4.800 
#    0.000    1.000    0.000   16.200    0.000    0.000 
#    0.000    0.000    0.000    0.000    0.000    0.000 
#
# Total GULP energy -223137.363533 kJ/mol
# GULP energy per Si atom -5578.434088 kJ/mol
# Density = 1.788981 g / cm^3
# Si number density = 17.930621 Si / 1000 Ang^3
#
#
#
# Elastic Constant Matrix: (Units=GPa)
#
#
# Indices 1 2 3 4 5 6 
#
# 1 9.2963 14.0601 10.7212 0.0000 0.0000 0.0000
# 2 14.0601 141.5541 42.5839 0.0000 0.0000 0.0000
# 3 10.7212 42.5839 106.9845 0.0000 0.0000 0.0000
# 4 0.0000 0.0000 0.0000 3.1917 0.0000 0.0000
# 5 0.0000 0.0000 0.0000 0.0000 9.9378 0.0000
# 6 0.0000 0.0000 0.0000 0.0000 0.0000 27.7839
#
#
#
# Elastic Compliance Matrix: (Units=1/GPa)
#
#
# Indices 1 2 3 4 5 6 
#
# 1 0.134187 -0.010546 -0.009250 0.000000 0.000000 0.000000
# 2 -0.010546 0.008854 -0.002467 0.000000 0.000000 0.000000
# 3 -0.009250 -0.002467 0.011256 0.000000 0.000000 0.000000
# 4 0.000000 0.000000 0.000000 0.313314 0.000000 0.000000
# 5 0.000000 0.000000 0.000000 0.000000 0.100626 0.000000
# 6 0.000000 0.000000 0.000000 0.000000 0.000000 0.035992
#
#
# Mechanical properties :
#
#
# Convention : Reuss Voigt Hill
#
# Bulk Modulus (GPa) = 9.10982 43.61837 26.36410
# Shear Modulus (GPa) = 7.29558 20.88066 14.08812
#
# Velocity S-wave (km/s) = 2.01931 3.41622 2.80608
# Velocity P-wave (km/s) = 3.24476 6.31979 5.02335
#
# Compressibility (1/GPa) = 0.10977164
#
# Stress axis : x y z
#
# Youngs Moduli (GPa) = 7.45229 112.94059 88.83976
#
# Poissons Ratio (x) = 1.19105 0.82173
# Poissons Ratio (y) = 0.07859 0.21921
# Poissons Ratio (z) = 0.06893 0.27868
#
# Static dielectric constant tensor:
#      x y z
#    x 1.619860 0.000000 0.000000 
#    y 0.000000 1.610090 0.000000 
#    z 0.000000 0.000000 1.600700 
# 
# From -- ./inp_files/66598.got.cif
#   From: 2010.05.17/outbox.cif.g08.bks.cpg/sg63_34_cif.got.tgz:66598.got - 2010.06.03 15:47:04.
