data_PCOD9469723
_publ_section_title
;
Structure prediction by ZEFSAII (Michael W. Deem and Ramdas Pophale) SiO2 
 PCOD9469723
Probable space group: C M C M
;
_chemical_formula_sum "Si O2"
_cell_formula_units_Z 80
_cell_length_a 14.484169
_cell_length_b 28.808547
_cell_length_c 8.743142
_cell_angle_alpha 90.000000
_cell_angle_beta 90.000000
_cell_angle_gamma 90.000000
_cell_volume 3648.232182
_symmetry_space_group_name_H-M "C M C M"
_symmetry_group_IT_number 63
_symmetry_cell_setting 'orthorhombic'
loop_
_space_group_symop_operation_xyz
x,y,z
-x,-y,1/2+z
x,-y,-z
-x,y,1/2-z
-x,-y,-z
x,y,1/2-z
-x,y,z
x,-y,1/2+z
1/2+x,1/2+y,z
1/2-x,1/2-y,1/2+z
1/2+x,1/2-y,-z
1/2-x,1/2+y,1/2-z
1/2-x,1/2-y,-z
1/2+x,1/2+y,1/2-z
1/2-x,1/2+y,z
1/2+x,1/2-y,1/2+z
loop_
_atom_site_type_symbol
_atom_site_label
_atom_site_fract_x
_atom_site_fract_y
_atom_site_fract_z
Si Si1 0.351413 0.144289 0.575812
Si Si2 0.629953 0.341002 0.423919
Si Si3 0.350983 0.760989 0.568155
Si Si4 0.692366 0.951816 0.933953
Si Si5 0.401302 0.434268 0.929629
O O1 0.382863 0.139517 0.750000
O O2 0.241251 0.154806 0.576614
O O3 0.390040 0.191403 0.500719
O O4 0.358610 0.095004 0.490066
O O5 0.601603 0.352964 0.250000
O O6 0.600861 0.288525 0.458284
O O7 0.598623 0.379082 0.543413
O O8 0.343130 0.767185 0.750000
O O9 0.250000 0.750000 0.500000
O O10 0.692521 0.952415 0.750000
O O11 0.800506 0.949185 0.990568
O O12 0.653944 0.000000 0.000000
O O13 0.401212 0.445371 0.750000
O O14 0.500000 0.450559 0.997095
#
# Coordination Sequence:
#
# PCOD9469723 Si02
#       5
#    16  16  16  16  16
#     4   9  16  26  39  55  73  92 117 147 183 226
#     4   8  15  25  37  54  73  92 115 145 181 223
#     4   9  15  23  36  55  76  94 114 141 177 221
#     4  10  19  30  42  54  71  95 125 162 200 233
#     4   9  18  30  41  53  70  94 126 163 199 231
#
# _framework density 21.928431
#
# number of rings (size 3 to 8) (size 9 to 14) (size 15 to 20)
#    0.000    3.000    0.000    3.000    0.000    7.200 
#    0.000    0.000    0.000    0.000    0.000    0.000 
#    0.000    0.000    0.000    0.000    0.000    1.000 
#
# Total GULP energy -222799.142461 kJ/mol
# GULP energy per Si atom -5569.978562 kJ/mol
# Density = 2.187852 g / cm^3
# Si number density = 21.928431 Si / 1000 Ang^3
#
#
#
# Elastic Constant Matrix: (Units=GPa)
#
#
# Indices 1 2 3 4 5 6 
#
# 1 37.4812 -6.2728 0.1730 0.0000 0.0000 0.0000
# 2 -6.2728 194.9446 67.0650 0.0000 0.0000 0.0000
# 3 0.1730 67.0650 58.0991 0.0000 0.0000 0.0000
# 4 0.0000 0.0000 0.0000 35.0433 0.0000 0.0000
# 5 0.0000 0.0000 0.0000 0.0000 -21.2008 0.0000
# 6 0.0000 0.0000 0.0000 0.0000 0.0000 -45.0176
#
#
#
# Elastic Compliance Matrix: (Units=1/GPa)
#
#
# Indices 1 2 3 4 5 6 
#
# 1 0.026937 0.001483 -0.001793 0.000000 0.000000 0.000000
# 2 0.001483 0.008590 -0.009920 0.000000 0.000000 0.000000
# 3 -0.001793 -0.009920 0.028668 0.000000 0.000000 0.000000
# 4 0.000000 0.000000 0.000000 0.028536 0.000000 0.000000
# 5 0.000000 0.000000 0.000000 0.000000 -0.047168 0.000000
# 6 0.000000 0.000000 0.000000 0.000000 0.000000 -0.022214
#
#
# Mechanical properties :
#
#
# Convention : Reuss Voigt Hill
#
# Bulk Modulus (GPa) = 22.86420 45.82836 34.34628
# Shear Modulus (GPa) = 85.63530 9.06898 47.35214
#
# Velocity S-wave (km/s) = 6.25595 2.03585 4.65197
# Velocity P-wave (km/s) = 7.91404 5.14497 6.67468
#
# Compressibility (1/GPa) = 0.04373649
#
# Stress axis : x y z
#
# Youngs Moduli (GPa) = 37.12420 116.41224 34.88157
#
# Poissons Ratio (x) = -0.17269 0.06253
# Poissons Ratio (y) = -0.05507 0.34603
# Poissons Ratio (z) = 0.06655 1.15484
#
# Static dielectric constant tensor:
#      x y z
#    x 1.928070 0.000000 0.000000 
#    y 0.000000 1.824300 0.000000 
#    z 0.000000 0.000000 1.930610 
# 
# From -- ./inp_files/6398.got.cif
#   From: 2010.05.17/outbox.cif.g08.bks.cpg/sg63_4_cif.got.tgz:6398.got - 2010.06.03 15:47:04.
