data_PCOD9469913
_publ_section_title
;
Structure prediction by ZEFSAII (Michael W. Deem and Ramdas Pophale) SiO2 
 PCOD9469913
Probable space group: C M C M
;
_chemical_formula_sum "Si O2"
_cell_formula_units_Z 88
_cell_length_a 18.707516
_cell_length_b 29.755448
_cell_length_c 7.520094
_cell_angle_alpha 90.000000
_cell_angle_beta 90.000000
_cell_angle_gamma 90.000000
_cell_volume 4186.064232
_symmetry_space_group_name_H-M "C M C M"
_symmetry_group_IT_number 63
_symmetry_cell_setting 'orthorhombic'
loop_
_space_group_symop_operation_xyz
x,y,z
-x,-y,1/2+z
x,-y,-z
-x,y,1/2-z
-x,-y,-z
x,y,1/2-z
-x,y,z
x,-y,1/2+z
1/2+x,1/2+y,z
1/2-x,1/2-y,1/2+z
1/2+x,1/2-y,-z
1/2-x,1/2+y,1/2-z
1/2-x,1/2-y,-z
1/2+x,1/2+y,1/2-z
1/2-x,1/2+y,z
1/2+x,1/2-y,1/2+z
loop_
_atom_site_type_symbol
_atom_site_label
_atom_site_fract_x
_atom_site_fract_y
_atom_site_fract_z
Si Si1 0.310760 0.695913 0.537957
Si Si2 0.647654 0.791130 0.954224
Si Si3 0.292719 0.947314 0.536982
Si Si4 0.000000 0.947348 0.963270
Si Si5 0.580692 0.117689 0.031883
Si Si6 0.645550 0.403306 0.963473
O O1 0.301369 0.701404 0.750000
O O2 0.350550 0.740732 0.469129
O O3 0.231019 0.694174 0.458507
O O4 0.349850 0.649473 0.502278
O O5 0.623709 0.786658 0.750000
O O6 0.602876 0.832352 0.030973
O O7 0.291642 0.941852 0.750000
O O8 0.359753 0.917937 0.471781
O O9 0.217521 0.927478 0.468303
O O10 0.299440 0.000000 0.500000
O O11 0.927210 0.925140 0.032760
O O12 0.000000 0.940984 0.750000
O O13 0.000000 0.000000 0.000000
O O14 0.582679 0.118306 0.250000
O O15 0.500000 0.106460 0.979170
O O16 0.645877 0.408761 0.750000
#
# Coordination Sequence:
#
# PCOD9469913 Si02
#       6
#    16  16  16   8  16  16
#     4  10  19  30  53  84 107 136 175 219 264 307
#     4   9  17  33  53  77 107 140 176 216 261 312
#     4  10  20  34  54  77 101 133 172 215 261 309
#     4  10  22  38  58  80 106 144 182 222 277 326
#     4   9  17  32  54  76 102 140 179 211 253 310
#     4  10  20  37  56  76 106 143 177 212 265 326
#
# _framework density 21.022134000000001
#
# number of rings (size 3 to 8) (size 9 to 14) (size 15 to 20)
#    0.000    2.364    1.818    1.091    0.000    2.545 
#    1.636    0.000    0.000    1.636    0.000    0.000 
#    0.000    0.000    0.000    0.000    0.000    0.000 
#
# Total GULP energy -245645.367758 kJ/mol
# GULP energy per Si atom -5582.849267 kJ/mol
# Density = 2.097429 g / cm^3
# Si number density = 21.022134 Si / 1000 Ang^3
#
#
#
# Elastic Constant Matrix: (Units=GPa)
#
#
# Indices 1 2 3 4 5 6 
#
# 1 176.4955 119.5243 9.2606 0.0000 0.0000 0.0000
# 2 119.5243 189.5367 -9.7136 0.0000 0.0000 0.0000
# 3 9.2606 -9.7136 55.9725 0.0000 0.0000 0.0000
# 4 0.0000 0.0000 0.0000 19.9676 0.0000 0.0000
# 5 0.0000 0.0000 0.0000 0.0000 -3.2836 0.0000
# 6 0.0000 0.0000 0.0000 0.0000 0.0000 22.5206
#
#
#
# Elastic Compliance Matrix: (Units=1/GPa)
#
#
# Indices 1 2 3 4 5 6 
#
# 1 0.010325 -0.006658 -0.002864 0.000000 0.000000 0.000000
# 2 -0.006658 0.009616 0.002770 0.000000 0.000000 0.000000
# 3 -0.002864 0.002770 0.018820 0.000000 0.000000 0.000000
# 4 0.000000 0.000000 0.000000 0.050081 0.000000 0.000000
# 5 0.000000 0.000000 0.000000 0.000000 -0.304544 0.000000
# 6 0.000000 0.000000 0.000000 0.000000 0.000000 0.044404
#
#
# Mechanical properties :
#
#
# Convention : Reuss Voigt Hill
#
# Bulk Modulus (GPa) = 39.58863 73.34972 56.46917
# Shear Modulus (GPa) = -33.47267 28.03648 -2.71809
#
# Velocity S-wave (km/s) = -3.99464 3.65590 -1.13832
# Velocity P-wave (km/s) = 1.55030 7.26555 5.01920
#
# Compressibility (1/GPa) = 0.02525978
#
# Stress axis : x y z
#
# Youngs Moduli (GPa) = 96.85449 103.98868 53.13367
#
# Poissons Ratio (x) = 0.69232 0.15215
# Poissons Ratio (y) = 0.64483 -0.14720
# Poissons Ratio (z) = 0.27735 -0.28809
#
# Static dielectric constant tensor:
#      x y z
#    x 1.729260 0.000000 0.000000 
#    y 0.000000 1.735080 0.000000 
#    z 0.000000 0.000000 1.774710 
# 
# From -- ./inp_files/6771.got.cif
#   From: 2010.05.17/outbox.cif.g08.bks.cpg/sg63_4_cif.got.tgz:6771.got - 2010.06.03 15:47:04.
