data_PCOD9469716
_publ_section_title
;
Structure prediction by ZEFSAII (Michael W. Deem and Ramdas Pophale) SiO2 
 PCOD9469716
Probable space group: C M C M
;
_chemical_formula_sum "Si O2"
_cell_formula_units_Z 96
_cell_length_a 21.273188
_cell_length_b 28.949140
_cell_length_c 7.448926
_cell_angle_alpha 90.000000
_cell_angle_beta 90.000000
_cell_angle_gamma 90.000000
_cell_volume 4587.350295
_symmetry_space_group_name_H-M "C M C M"
_symmetry_group_IT_number 63
_symmetry_cell_setting 'orthorhombic'
loop_
_space_group_symop_operation_xyz
x,y,z
-x,-y,1/2+z
x,-y,-z
-x,y,1/2-z
-x,-y,-z
x,y,1/2-z
-x,y,z
x,-y,1/2+z
1/2+x,1/2+y,z
1/2-x,1/2-y,1/2+z
1/2+x,1/2-y,-z
1/2-x,1/2+y,1/2-z
1/2-x,1/2-y,-z
1/2+x,1/2+y,1/2-z
1/2-x,1/2+y,z
1/2+x,1/2-y,1/2+z
loop_
_atom_site_type_symbol
_atom_site_label
_atom_site_fract_x
_atom_site_fract_y
_atom_site_fract_z
Si Si1 0.659114 0.220298 0.532042
Si Si2 0.836691 0.446948 0.034971
Si Si3 0.927640 0.364052 0.030689
Si Si4 0.066806 0.054371 0.535132
Si Si5 0.700633 0.580554 0.952620
Si Si6 0.202032 0.815997 0.957082
O O1 0.660799 0.220542 0.750000
O O2 0.605883 0.183979 0.476276
O O3 0.726308 0.201665 0.467376
O O4 0.658154 0.274030 0.475514
O O5 0.833737 0.440751 0.250000
O O6 0.885495 0.407835 0.970821
O O7 0.765937 0.437266 0.964727
O O8 0.854939 0.500000 0.000000
O O9 0.927678 0.364447 0.250000
O O10 0.000000 0.367110 0.972781
O O11 0.067707 0.063106 0.750000
O O12 0.133859 0.069529 0.459886
O O13 0.000000 0.074105 0.467311
O O14 0.064505 0.000000 0.500000
O O15 0.699127 0.560702 0.750000
O O16 0.701992 0.635741 0.943761
O O17 0.185959 0.825083 0.750000
#
# Coordination Sequence:
#
# PCOD9469716 Si02
#       6
#    16  16  16  16  16  16
#     4   9  17  33  52  73 100 129 163 201 246 297
#     4  10  20  33  50  73  99 130 169 211 254 295
#     4   9  17  32  54  74  97 134 174 206 245 302
#     4   9  18  32  50  71  96 131 170 204 247 300
#     4  10  19  33  51  72 102 136 165 202 249 302
#     4  10  19  29  50  79 102 125 161 206 248 290
#
# _framework density 20.927114
#
# number of rings (size 3 to 8) (size 9 to 14) (size 15 to 20)
#    0.000    2.500    1.667    1.000    0.000    2.333 
#    0.000    0.833    0.000    2.500    0.000    0.000 
#    0.000    0.000    0.000    0.000    0.000    0.000 
#
# Total GULP energy -267582.166835 kJ/mol
# GULP energy per Si atom -5574.628476 kJ/mol
# Density = 2.087948 g / cm^3
# Si number density = 20.927114 Si / 1000 Ang^3
#
#
#
# Elastic Constant Matrix: (Units=GPa)
#
#
# Indices 1 2 3 4 5 6 
#
# 1 148.8763 41.3076 3.6458 0.0000 0.0000 0.0000
# 2 41.3076 81.5372 -7.5591 0.0000 0.0000 0.0000
# 3 3.6458 -7.5591 64.8284 0.0000 0.0000 0.0000
# 4 0.0000 0.0000 0.0000 -49.1405 0.0000 0.0000
# 5 0.0000 0.0000 0.0000 0.0000 -47.3483 0.0000
# 6 0.0000 0.0000 0.0000 0.0000 0.0000 22.2675
#
#
#
# Elastic Compliance Matrix: (Units=1/GPa)
#
#
# Indices 1 2 3 4 5 6 
#
# 1 0.007869 -0.004072 -0.000917 0.000000 0.000000 0.000000
# 2 -0.004072 0.014505 0.001920 0.000000 0.000000 0.000000
# 3 -0.000917 0.001920 0.015701 0.000000 0.000000 0.000000
# 4 0.000000 0.000000 0.000000 -0.020350 0.000000 0.000000
# 5 0.000000 0.000000 0.000000 0.000000 -0.021120 0.000000
# 6 0.000000 0.000000 0.000000 0.000000 0.000000 0.044908
#
#
# Mechanical properties :
#
#
# Convention : Reuss Voigt Hill
#
# Bulk Modulus (GPa) = 31.31084 41.11449 36.21266
# Shear Modulus (GPa) = 85.76779 2.34559 44.05669
#
# Velocity S-wave (km/s) = 6.40882 1.05984 4.59327
# Velocity P-wave (km/s) = 8.35215 4.60292 6.74334
#
# Compressibility (1/GPa) = 0.03193782
#
# Stress axis : x y z
#
# Youngs Moduli (GPa) = 127.07797 68.94122 63.69089
#
# Poissons Ratio (x) = 0.28070 0.05842
# Poissons Ratio (y) = 0.51742 -0.12231
# Poissons Ratio (z) = 0.11657 -0.13239
#
# Static dielectric constant tensor:
#      x y z
#    x 1.764900 0.000000 0.000000 
#    y 0.000000 1.751470 0.000000 
#    z 0.000000 0.000000 1.761280 
# 
# From -- ./inp_files/8584.got.cif
#   From: 2010.05.17/outbox.cif.g08.bks.cpg/sg63_5_cif.got.tgz:8584.got - 2010.06.03 15:47:04.
