data_PCOD9469356
_publ_section_title
;
Structure prediction by ZEFSAII (Michael W. Deem and Ramdas Pophale) SiO2 
 PCOD9469356
Probable space group: C M C M
;
_chemical_formula_sum "Si O2"
_cell_formula_units_Z 80
_cell_length_a 14.108926
_cell_length_b 15.766995
_cell_length_c 19.497762
_cell_angle_alpha 90.000000
_cell_angle_beta 90.000000
_cell_angle_gamma 90.000000
_cell_volume 4337.381776
_symmetry_space_group_name_H-M "C M C M"
_symmetry_group_IT_number 63
_symmetry_cell_setting 'orthorhombic'
loop_
_space_group_symop_operation_xyz
x,y,z
-x,-y,1/2+z
x,-y,-z
-x,y,1/2-z
-x,-y,-z
x,y,1/2-z
-x,y,z
x,-y,1/2+z
1/2+x,1/2+y,z
1/2-x,1/2-y,1/2+z
1/2+x,1/2-y,-z
1/2-x,1/2+y,1/2-z
1/2-x,1/2-y,-z
1/2+x,1/2+y,1/2-z
1/2-x,1/2+y,z
1/2+x,1/2-y,1/2+z
loop_
_atom_site_type_symbol
_atom_site_label
_atom_site_fract_x
_atom_site_fract_y
_atom_site_fract_z
Si Si1 0.885917 0.915117 0.955720
Si Si2 0.112329 0.562482 0.063702
Si Si3 0.109524 0.857738 0.327635
Si Si4 0.272283 0.470489 0.830233
Si Si5 0.386274 0.747480 0.542806
O O1 0.842258 0.918301 0.880042
O O2 0.000000 0.916759 0.952457
O O3 0.855122 0.828213 0.992909
O O4 0.858388 0.000000 0.000000
O O5 0.172740 0.535046 0.129837
O O6 0.144027 0.655629 0.038100
O O7 0.000000 0.564646 0.079637
O O8 0.127008 0.500000 0.000000
O O9 0.110366 0.826179 0.250000
O O10 0.135056 0.785772 0.381114
O O11 0.000000 0.886089 0.343083
O O12 0.181006 0.935910 0.332845
O O13 0.267646 0.445606 0.750000
O O14 0.500000 0.749725 0.534922
#
# Coordination Sequence:
#
# PCOD9469356 Si02
#       5
#    16  16  16  16  16
#     4  10  18  32  57  88 118 144 176 222 285 352
#     4  10  23  42  60  78 106 149 205 250 274 309
#     4   9  17  31  54  87 121 145 172 219 285 354
#     4  11  22  35  54  83 116 151 182 220 283 346
#     4   9  18  34  59  85 108 145 188 233 282 326
#
# _framework density 18.444306999999998
#
# number of rings (size 3 to 8) (size 9 to 14) (size 15 to 20)
#    0.000    2.200    2.000    1.200    0.000    3.200 
#    0.000    2.000    0.000    0.000    0.000    5.600 
#    0.000    0.000    0.000    0.000    0.000    0.000 
#
# Total GULP energy -223019.542295 kJ/mol
# GULP energy per Si atom -5575.488557 kJ/mol
# Density = 1.840233 g / cm^3
# Si number density = 18.444307 Si / 1000 Ang^3
#
#
#
# Elastic Constant Matrix: (Units=GPa)
#
#
# Indices 1 2 3 4 5 6 
#
# 1 99.9648 33.8537 53.2027 0.0000 0.0000 0.0000
# 2 33.8537 139.1396 82.1816 0.0000 0.0000 0.0000
# 3 53.2027 82.1816 141.4947 0.0000 0.0000 0.0000
# 4 0.0000 0.0000 0.0000 15.5618 0.0000 0.0000
# 5 0.0000 0.0000 0.0000 0.0000 30.9674 0.0000
# 6 0.0000 0.0000 0.0000 0.0000 0.0000 -12.9454
#
#
#
# Elastic Compliance Matrix: (Units=1/GPa)
#
#
# Indices 1 2 3 4 5 6 
#
# 1 0.012521 -0.000405 -0.004473 0.000000 0.000000 0.000000
# 2 -0.000405 0.010953 -0.006210 0.000000 0.000000 0.000000
# 3 -0.004473 -0.006210 0.012356 0.000000 0.000000 0.000000
# 4 0.000000 0.000000 0.000000 0.064260 0.000000 0.000000
# 5 0.000000 0.000000 0.000000 0.000000 0.032292 0.000000
# 6 0.000000 0.000000 0.000000 0.000000 0.000000 -0.077247
#
#
# Mechanical properties :
#
#
# Convention : Reuss Voigt Hill
#
# Bulk Modulus (GPa) = 73.22888 79.89723 76.56305
# Shear Modulus (GPa) = 61.07931 20.80750 40.94340
#
# Velocity S-wave (km/s) = 5.76085 3.36240 4.71663
# Velocity P-wave (km/s) = 9.16727 7.64764 8.44172
#
# Compressibility (1/GPa) = 0.01365581
#
# Stress axis : x y z
#
# Youngs Moduli (GPa) = 79.86486 91.29859 80.93310
#
# Poissons Ratio (x) = 0.03693 0.36202
# Poissons Ratio (y) = 0.03231 0.50256
# Poissons Ratio (z) = 0.35724 0.56692
#
# Static dielectric constant tensor:
#      x y z
#    x 1.676670 0.000000 0.000000 
#    y 0.000000 1.639390 0.000000 
#    z 0.000000 0.000000 1.625420 
# 
# From -- ./inp_files/53980.got.cif
#   From: 2010.05.17/outbox.cif.g08.bks.cpg/sg63_27_cif.got.tgz:53980.got - 2010.06.03 15:47:04.
