data_PCOD9469878
_publ_section_title
;
Structure prediction by ZEFSAII (Michael W. Deem and Ramdas Pophale) SiO2 
 PCOD9469878
Probable space group: C M C M
;
_chemical_formula_sum "Si O2"
_cell_formula_units_Z 80
_cell_length_a 28.934315
_cell_length_b 10.677429
_cell_length_c 14.136377
_cell_angle_alpha 90.000000
_cell_angle_beta 90.000000
_cell_angle_gamma 90.000000
_cell_volume 4367.350186
_symmetry_space_group_name_H-M "C M C M"
_symmetry_group_IT_number 63
_symmetry_cell_setting 'orthorhombic'
loop_
_space_group_symop_operation_xyz
x,y,z
-x,-y,1/2+z
x,-y,-z
-x,y,1/2-z
-x,-y,-z
x,y,1/2-z
-x,y,z
x,-y,1/2+z
1/2+x,1/2+y,z
1/2-x,1/2-y,1/2+z
1/2+x,1/2-y,-z
1/2-x,1/2+y,1/2-z
1/2-x,1/2-y,-z
1/2+x,1/2+y,1/2-z
1/2-x,1/2+y,z
1/2+x,1/2-y,1/2+z
loop_
_atom_site_type_symbol
_atom_site_label
_atom_site_fract_x
_atom_site_fract_y
_atom_site_fract_z
Si Si1 0.569885 0.916563 0.360219
Si Si2 0.765635 0.873640 0.057115
Si Si3 0.050798 0.695501 0.058738
Si Si4 0.172974 0.479518 0.359231
Si Si5 0.354459 0.250577 0.137076
O O1 0.557035 0.893437 0.250000
O O2 0.551149 0.833720 0.446314
O O3 0.625428 0.904647 0.368137
O O4 0.557226 0.060499 0.387799
O O5 0.718948 0.911528 0.110748
O O6 0.811417 0.840101 0.116051
O O7 0.750000 0.750000 0.000000
O O8 0.776956 0.000000 0.000000
O O9 0.095882 0.774092 0.088698
O O10 0.000000 0.745322 0.084523
O O11 0.179339 0.509303 0.250000
O O12 0.162601 0.615169 0.404111
O O13 0.362574 0.244229 0.250000
#
# Coordination Sequence:
#
# PCOD9469878 Si02
#       5
#    16  16  16  16  16
#     4   9  17  28  46  75 113 149 187 239 302 366
#     4  12  22  35  56  82 114 152 191 235 284 345
#     4  10  19  30  49  75 107 148 197 249 297 347
#     4   9  18  33  51  76 111 149 187 230 283 344
#     4  10  21  37  55  80 114 150 195 241 286 346
#
# _framework density 18.317744000000001
#
# number of rings (size 3 to 8) (size 9 to 14) (size 15 to 20)
#    0.000    2.000    2.000    4.800    2.800    2.800 
#    0.000    0.000    0.000    1.800    0.000    0.000 
#    0.000    0.000    0.000    0.000    0.000    0.000 
#
# Total GULP energy -222757.061706 kJ/mol
# GULP energy per Si atom -5568.926543 kJ/mol
# Density = 1.827605 g / cm^3
# Si number density = 18.317744 Si / 1000 Ang^3
#
#
#
# Elastic Constant Matrix: (Units=GPa)
#
#
# Indices 1 2 3 4 5 6 
#
# 1 175.8445 25.1126 46.6328 0.0000 0.0000 0.0000
# 2 25.1126 36.4463 11.3884 0.0000 0.0000 0.0000
# 3 46.6328 11.3884 99.2258 0.0000 0.0000 0.0000
# 4 0.0000 0.0000 0.0000 15.4502 0.0000 0.0000
# 5 0.0000 0.0000 0.0000 0.0000 9.2993 0.0000
# 6 0.0000 0.0000 0.0000 0.0000 0.0000 14.3670
#
#
#
# Elastic Compliance Matrix: (Units=1/GPa)
#
#
# Indices 1 2 3 4 5 6 
#
# 1 0.007002 -0.003938 -0.002839 0.000000 0.000000 0.000000
# 2 -0.003938 0.030673 -0.001670 0.000000 0.000000 0.000000
# 3 -0.002839 -0.001670 0.011604 0.000000 0.000000 0.000000
# 4 0.000000 0.000000 0.000000 0.064724 0.000000 0.000000
# 5 0.000000 0.000000 0.000000 0.000000 0.107535 0.000000
# 6 0.000000 0.000000 0.000000 0.000000 0.000000 0.069604
#
#
# Mechanical properties :
#
#
# Convention : Reuss Voigt Hill
#
# Bulk Modulus (GPa) = 30.87757 53.08712 41.98234
# Shear Modulus (GPa) = 15.68241 23.04883 19.36562
#
# Velocity S-wave (km/s) = 2.92915 3.55107 3.25500
# Velocity P-wave (km/s) = 5.32289 6.77183 6.09060
#
# Compressibility (1/GPa) = 0.03238597
#
# Stress axis : x y z
#
# Youngs Moduli (GPa) = 142.81647 32.60248 86.17860
#
# Poissons Ratio (x) = 0.12837 0.24464
# Poissons Ratio (y) = 0.56235 0.14391
# Poissons Ratio (z) = 0.40542 0.05444
#
# Static dielectric constant tensor:
#      x y z
#    x 1.676490 0.000000 0.000000 
#    y 0.000000 1.616040 0.000000 
#    z 0.000000 0.000000 1.673930 
# 
# From -- ./inp_files/37714.got.cif
#   From: 2010.05.17/outbox.cif.g08.bks.cpg/sg63_19_cif.got.tgz:37714.got - 2010.06.03 15:47:04.
