data_PCOD9469566
_publ_section_title
;
Structure prediction by ZEFSAII (Michael W. Deem and Ramdas Pophale) SiO2 
 PCOD9469566
Probable space group: C M C M
;
_chemical_formula_sum "Si O2"
_cell_formula_units_Z 104
_cell_length_a 11.566553
_cell_length_b 18.609923
_cell_length_c 26.171267
_cell_angle_alpha 90.000000
_cell_angle_beta 90.000000
_cell_angle_gamma 90.000000
_cell_volume 5633.434856
_symmetry_space_group_name_H-M "C M C M"
_symmetry_group_IT_number 63
_symmetry_cell_setting 'orthorhombic'
loop_
_space_group_symop_operation_xyz
x,y,z
-x,-y,1/2+z
x,-y,-z
-x,y,1/2-z
-x,-y,-z
x,y,1/2-z
-x,y,z
x,-y,1/2+z
1/2+x,1/2+y,z
1/2-x,1/2-y,1/2+z
1/2+x,1/2-y,-z
1/2-x,1/2+y,1/2-z
1/2-x,1/2-y,-z
1/2+x,1/2+y,1/2-z
1/2-x,1/2+y,z
1/2+x,1/2-y,1/2+z
loop_
_atom_site_type_symbol
_atom_site_label
_atom_site_fract_x
_atom_site_fract_y
_atom_site_fract_z
Si Si1 0.500000 0.982390 0.810221
Si Si2 0.865227 0.966708 0.611497
Si Si3 0.000000 0.455500 0.551496
Si Si4 0.282047 0.883582 0.688648
Si Si5 0.234973 0.369440 0.535381
Si Si6 0.500000 0.904623 0.380268
Si Si7 0.248243 0.880351 0.413573
Si Si8 0.138688 0.263244 0.888795
O O1 0.500000 0.976582 0.750000
O O2 0.613206 0.937553 0.825468
O O3 0.500000 0.066970 0.822892
O O4 0.826273 0.922842 0.661965
O O5 0.833980 0.912985 0.564929
O O6 0.000000 0.983899 0.612327
O O7 0.792811 0.039997 0.602689
O O8 0.000000 0.500000 0.500000
O O9 0.115693 0.409799 0.549998
O O10 0.000000 0.515633 0.594471
O O11 0.272854 0.875354 0.750000
O O12 0.313641 0.809790 0.659032
O O13 0.255364 0.372851 0.475098
O O14 0.209734 0.293071 0.561807
O O15 0.381655 0.868536 0.397118
O O16 0.169059 0.820554 0.387063
O O17 0.000000 0.273438 0.893376
#
# Coordination Sequence:
#
# PCOD9469566 Si02
#       8
#     8  16   8  16  16   8  16  16
#     4  10  18  36  70  96 106 133 191 261 308 345
#     4  11  23  38  60  89 121 156 197 243 298 355
#     4  12  16  32  64  88 106 145 206 258 292 332
#     4  10  21  42  69  90 110 145 198 255 300 352
#     4  11  21  38  59  86 118 163 205 245 284 348
#     4  12  20  36  60  92 120 148 196 256 305 349
#     4  12  23  37  57  88 127 161 196 242 297 351
#     4  11  23  39  57  85 124 160 201 238 287 360
#
# _framework density 18.461206000000001
#
# number of rings (size 3 to 8) (size 9 to 14) (size 15 to 20)
#    0.000    0.923    6.154    2.308    0.000    2.154 
#    5.538    1.538    0.000    1.846    0.000    0.000 
#    0.000    0.000    0.000    0.000    0.000    0.000 
#
# Total GULP energy -290079.317584 kJ/mol
# GULP energy per Si atom -5578.448415 kJ/mol
# Density = 1.841919 g / cm^3
# Si number density = 18.461206 Si / 1000 Ang^3
#
#
#
# Elastic Constant Matrix: (Units=GPa)
#
#
# Indices 1 2 3 4 5 6 
#
# 1 94.6439 18.3825 29.1183 0.0000 0.0000 0.0000
# 2 18.3825 81.4998 33.2820 0.0000 0.0000 0.0000
# 3 29.1183 33.2820 85.3457 0.0000 0.0000 0.0000
# 4 0.0000 0.0000 0.0000 18.1443 0.0000 0.0000
# 5 0.0000 0.0000 0.0000 0.0000 19.1226 0.0000
# 6 0.0000 0.0000 0.0000 0.0000 0.0000 27.5109
#
#
#
# Elastic Compliance Matrix: (Units=1/GPa)
#
#
# Indices 1 2 3 4 5 6 
#
# 1 0.011906 -0.001221 -0.003586 0.000000 0.000000 0.000000
# 2 -0.001221 0.014719 -0.005323 0.000000 0.000000 0.000000
# 3 -0.003586 -0.005323 0.015016 0.000000 0.000000 0.000000
# 4 0.000000 0.000000 0.000000 0.055114 0.000000 0.000000
# 5 0.000000 0.000000 0.000000 0.000000 0.052294 0.000000
# 6 0.000000 0.000000 0.000000 0.000000 0.000000 0.036349
#
#
# Mechanical properties :
#
#
# Convention : Reuss Voigt Hill
#
# Bulk Modulus (GPa) = 46.77037 47.00613 46.88825
# Shear Modulus (GPa) = 23.49763 25.00267 24.25015
#
# Velocity S-wave (km/s) = 3.57152 3.68412 3.62826
# Velocity P-wave (km/s) = 6.51130 6.60412 6.55788
#
# Compressibility (1/GPa) = 0.02138106
#
# Stress axis : x y z
#
# Youngs Moduli (GPa) = 83.98862 67.93796 66.59345
#
# Poissons Ratio (x) = 0.08296 0.23881
# Poissons Ratio (y) = 0.10256 0.35451
# Poissons Ratio (z) = 0.30119 0.36166
#
# Static dielectric constant tensor:
#      x y z
#    x 1.628040 0.000000 0.000000 
#    y 0.000000 1.656190 0.000000 
#    z 0.000000 0.000000 1.614730 
# 
# From -- ./inp_files/68492.got.cif
#   From: 2010.05.17/outbox.cif.g08.bks.cpg/sg63_35_cif.got.tgz:68492.got - 2010.06.03 15:47:04.
