data_PCOD9469567
_publ_section_title
;
Structure prediction by ZEFSAII (Michael W. Deem and Ramdas Pophale) SiO2 
 PCOD9469567
Probable space group: C M C M
;
_chemical_formula_sum "Si O2"
_cell_formula_units_Z 96
_cell_length_a 14.775200
_cell_length_b 21.285987
_cell_length_c 16.737766
_cell_angle_alpha 90.000000
_cell_angle_beta 90.000000
_cell_angle_gamma 90.000000
_cell_volume 5264.106328
_symmetry_space_group_name_H-M "C M C M"
_symmetry_group_IT_number 63
_symmetry_cell_setting 'orthorhombic'
loop_
_space_group_symop_operation_xyz
x,y,z
-x,-y,1/2+z
x,-y,-z
-x,y,1/2-z
-x,-y,-z
x,y,1/2-z
-x,y,z
x,-y,1/2+z
1/2+x,1/2+y,z
1/2-x,1/2-y,1/2+z
1/2+x,1/2-y,-z
1/2-x,1/2+y,1/2-z
1/2-x,1/2-y,-z
1/2+x,1/2+y,1/2-z
1/2-x,1/2+y,z
1/2+x,1/2-y,1/2+z
loop_
_atom_site_type_symbol
_atom_site_label
_atom_site_fract_x
_atom_site_fract_y
_atom_site_fract_z
Si Si1 0.248463 0.746268 0.337220
Si Si2 0.264613 0.941685 0.052587
Si Si3 0.104505 0.660197 0.606026
Si Si4 0.597423 0.258847 0.468384
Si Si5 0.339488 0.365506 0.918379
Si Si6 0.102824 0.004037 0.154223
O O1 0.206437 0.750359 0.250000
O O2 0.333983 0.792919 0.342178
O O3 0.179236 0.764400 0.407075
O O4 0.283290 0.676216 0.355910
O O5 0.342862 0.905459 0.099588
O O6 0.181596 0.965658 0.108413
O O7 0.223188 0.894776 0.987084
O O8 0.299383 0.000000 0.000000
O O9 0.104922 0.694737 0.519213
O O10 0.000000 0.655227 0.631312
O O11 0.500000 0.260638 0.427305
O O12 0.601662 0.314444 0.533634
O O13 0.387858 0.423850 0.875811
O O14 0.114402 0.000720 0.250000
O O15 0.000000 0.982291 0.134639
#
# Coordination Sequence:
#
# PCOD9469567 Si02
#       6
#    16  16  16  16  16  16
#     4  11  21  35  57  86 118 146 179 230 289 335
#     4  10  20  35  59  81 108 147 192 226 271 328
#     4  10  20  38  58  80 110 144 189 235 272 328
#     4  10  19  34  60  85 110 145 185 226 280 340
#     4  10  18  37  58  81 111 145 188 226 272 335
#     4  10  22  37  55  84 117 146 182 231 284 334
#
# _framework density 18.236713999999999
#
# number of rings (size 3 to 8) (size 9 to 14) (size 15 to 20)
#    0.000    1.833    3.333    2.000    0.000    6.000 
#    0.000    0.000    0.000    0.000    0.000    0.000 
#    0.000    0.000    0.000    0.000    0.000    0.000 
#
# Total GULP energy -267624.029077 kJ/mol
# GULP energy per Si atom -5575.500606 kJ/mol
# Density = 1.819521 g / cm^3
# Si number density = 18.236714 Si / 1000 Ang^3
#
#
#
# Elastic Constant Matrix: (Units=GPa)
#
#
# Indices 1 2 3 4 5 6 
#
# 1 99.3188 38.4023 25.5985 0.0000 0.0000 0.0000
# 2 38.4023 88.3076 13.6836 0.0000 0.0000 0.0000
# 3 25.5985 13.6836 69.5425 0.0000 0.0000 0.0000
# 4 0.0000 0.0000 0.0000 9.7374 0.0000 0.0000
# 5 0.0000 0.0000 0.0000 0.0000 7.3432 0.0000
# 6 0.0000 0.0000 0.0000 0.0000 0.0000 20.6694
#
#
#
# Elastic Compliance Matrix: (Units=1/GPa)
#
#
# Indices 1 2 3 4 5 6 
#
# 1 0.013005 -0.005068 -0.003790 0.000000 0.000000 0.000000
# 2 -0.005068 0.013655 -0.000821 0.000000 0.000000 0.000000
# 3 -0.003790 -0.000821 0.015936 0.000000 0.000000 0.000000
# 4 0.000000 0.000000 0.000000 0.102696 0.000000 0.000000
# 5 0.000000 0.000000 0.000000 0.000000 0.136180 0.000000
# 6 0.000000 0.000000 0.000000 0.000000 0.000000 0.048381
#
#
# Mechanical properties :
#
#
# Convention : Reuss Voigt Hill
#
# Bulk Modulus (GPa) = 43.03315 45.83752 44.43534
# Shear Modulus (GPa) = 14.00721 19.51563 16.76142
#
# Velocity S-wave (km/s) = 2.77443 3.27483 3.03496
# Velocity P-wave (km/s) = 5.82336 6.28400 6.05806
#
# Compressibility (1/GPa) = 0.02323790
#
# Stress axis : x y z
#
# Youngs Moduli (GPa) = 76.89302 73.23139 62.74965
#
# Poissons Ratio (x) = 0.37116 0.23781
# Poissons Ratio (y) = 0.38971 0.05154
# Poissons Ratio (z) = 0.29142 0.06014
#
# Static dielectric constant tensor:
#      x y z
#    x 1.643210 0.000000 0.000000 
#    y 0.000000 1.646370 0.000000 
#    z 0.000000 0.000000 1.608250 
# 
# From -- ./inp_files/31939.got.cif
#   From: 2010.05.17/outbox.cif.g08.bks.cpg/sg63_16_cif.got.tgz:31939.got - 2010.06.03 15:47:04.
