data_PCOD9469881
_publ_section_title
;
Structure prediction by ZEFSAII (Michael W. Deem and Ramdas Pophale) SiO2 
 PCOD9469881
Probable space group: C M C M
;
_chemical_formula_sum "Si O2"
_cell_formula_units_Z 72
_cell_length_a 25.863778
_cell_length_b 17.392051
_cell_length_c 9.362116
_cell_angle_alpha 90.000000
_cell_angle_beta 90.000000
_cell_angle_gamma 90.000000
_cell_volume 4211.305835
_symmetry_space_group_name_H-M "C M C M"
_symmetry_group_IT_number 63
_symmetry_cell_setting 'orthorhombic'
loop_
_space_group_symop_operation_xyz
x,y,z
-x,-y,1/2+z
x,-y,-z
-x,y,1/2-z
-x,-y,-z
x,y,1/2-z
-x,y,z
x,-y,1/2+z
1/2+x,1/2+y,z
1/2-x,1/2-y,1/2+z
1/2+x,1/2-y,-z
1/2-x,1/2+y,1/2-z
1/2-x,1/2-y,-z
1/2+x,1/2+y,1/2-z
1/2-x,1/2+y,z
1/2+x,1/2-y,1/2+z
loop_
_atom_site_type_symbol
_atom_site_label
_atom_site_fract_x
_atom_site_fract_y
_atom_site_fract_z
Si Si1 0.347436 0.069453 0.583740
Si Si2 0.802544 0.740771 0.584914
Si Si3 0.000000 0.081206 0.079612
Si Si4 0.085361 0.208393 0.077662
Si Si5 0.441385 0.136020 0.417712
O O1 0.354574 0.050669 0.750000
O O2 0.319190 0.151443 0.574510
O O3 0.401381 0.084339 0.503703
O O4 0.320421 0.000000 0.500000
O O5 0.792737 0.759155 0.750000
O O6 0.750000 0.750000 0.500000
O O7 0.853346 0.790400 0.541173
O O8 0.949213 0.133444 0.046762
O O9 0.000000 0.068177 0.250000
O O10 0.000000 0.000000 0.000000
O O11 0.081800 0.223099 0.250000
O O12 0.062274 0.280078 0.990926
O O13 0.427565 0.140863 0.250000
O O14 0.500000 0.107997 0.428897
#
# Coordination Sequence:
#
# PCOD9469881 Si02
#       5
#    16  16   8  16  16
#     4  10  21  36  53  75 104 137 173 213 260 309
#     4   9  19  35  56  80 103 134 178 220 264 319
#     4  10  20  34  54  78 109 144 179 226 278 324
#     4   9  18  34  54  75 103 141 180 218 265 321
#     4  10  19  30  49  77 105 136 172 208 251 307
#
# _framework density 17.096836
#
# number of rings (size 3 to 8) (size 9 to 14) (size 15 to 20)
#    0.000    2.444    1.111    2.667    0.000    7.111 
#    0.000    1.111    0.000    5.333    0.000    0.000 
#    0.000    0.000    0.000    0.000    0.000    0.000 
#
# Total GULP energy -200609.759182 kJ/mol
# GULP energy per Si atom -5572.493311 kJ/mol
# Density = 1.705792 g / cm^3
# Si number density = 17.096836 Si / 1000 Ang^3
#
#
#
# Elastic Constant Matrix: (Units=GPa)
#
#
# Indices 1 2 3 4 5 6 
#
# 1 120.7350 33.7140 54.0722 0.0000 0.0000 0.0000
# 2 33.7140 87.4432 40.0145 0.0000 0.0000 0.0000
# 3 54.0722 40.0145 79.8516 0.0000 0.0000 0.0000
# 4 0.0000 0.0000 0.0000 33.2124 0.0000 0.0000
# 5 0.0000 0.0000 0.0000 0.0000 31.1995 0.0000
# 6 0.0000 0.0000 0.0000 0.0000 0.0000 5.7124
#
#
#
# Elastic Compliance Matrix: (Units=1/GPa)
#
#
# Indices 1 2 3 4 5 6 
#
# 1 0.011980 -0.001176 -0.007523 0.000000 0.000000 0.000000
# 2 -0.001176 0.014954 -0.006697 0.000000 0.000000 0.000000
# 3 -0.007523 -0.006697 0.020974 0.000000 0.000000 0.000000
# 4 0.000000 0.000000 0.000000 0.030109 0.000000 0.000000
# 5 0.000000 0.000000 0.000000 0.000000 0.032052 0.000000
# 6 0.000000 0.000000 0.000000 0.000000 0.000000 0.175058
#
#
# Mechanical properties :
#
#
# Convention : Reuss Voigt Hill
#
# Bulk Modulus (GPa) = 58.42866 60.40348 59.41607
# Shear Modulus (GPa) = 15.54603 24.70680 20.12641
#
# Velocity S-wave (km/s) = 3.01872 3.80558 3.43476
# Velocity P-wave (km/s) = 6.81172 7.39708 7.11043
#
# Compressibility (1/GPa) = 0.01711489
#
# Stress axis : x y z
#
# Youngs Moduli (GPa) = 83.46969 66.87083 47.67921
#
# Poissons Ratio (x) = 0.07867 0.35869
# Poissons Ratio (y) = 0.09820 0.31931
# Poissons Ratio (z) = 0.62795 0.44784
#
# Static dielectric constant tensor:
#      x y z
#    x 1.587180 0.000000 0.000000 
#    y 0.000000 1.587840 0.000000 
#    z 0.000000 0.000000 1.576390 
# 
# From -- ./inp_files/11754.got.cif
#   From: 2010.05.17/outbox.cif.g08.bks.cpg/sg63_6_cif.got.tgz:11754.got - 2010.06.03 15:47:04.
