data_PCOD9469798
_publ_section_title
;
Structure prediction by ZEFSAII (Michael W. Deem and Ramdas Pophale) SiO2 
 PCOD9469798
Probable space group: C M C M
;
_chemical_formula_sum "Si O2"
_cell_formula_units_Z 128
_cell_length_a 7.332159
_cell_length_b 27.914942
_cell_length_c 27.272667
_cell_angle_alpha 90.000000
_cell_angle_beta 90.000000
_cell_angle_gamma 90.000000
_cell_volume 5582.082024
_symmetry_space_group_name_H-M "C M C M"
_symmetry_group_IT_number 63
_symmetry_cell_setting 'orthorhombic'
loop_
_space_group_symop_operation_xyz
x,y,z
-x,-y,1/2+z
x,-y,-z
-x,y,1/2-z
-x,-y,-z
x,y,1/2-z
-x,y,z
x,-y,1/2+z
1/2+x,1/2+y,z
1/2-x,1/2-y,1/2+z
1/2+x,1/2-y,-z
1/2-x,1/2+y,1/2-z
1/2-x,1/2-y,-z
1/2+x,1/2+y,1/2-z
1/2-x,1/2+y,z
1/2+x,1/2-y,1/2+z
loop_
_atom_site_type_symbol
_atom_site_label
_atom_site_fract_x
_atom_site_fract_y
_atom_site_fract_z
Si Si1 0.283646 0.298166 0.305922
Si Si2 0.276644 0.111002 0.966302
Si Si3 0.715350 0.199642 0.023395
Si Si4 0.722563 0.992654 0.649491
Si Si5 0.776726 0.296521 0.634802
Si Si6 0.221697 0.608732 0.194147
Si Si7 0.705204 0.038507 0.456782
Si Si8 0.719225 0.097992 0.645150
O O1 0.211861 0.296705 0.250000
O O2 0.500000 0.290825 0.302826
O O3 0.216581 0.253233 0.338987
O O4 0.260990 0.351569 0.328571
O O5 0.500000 0.104974 0.965231
O O6 0.217215 0.099018 0.911558
O O7 0.220279 0.163433 0.981831
O O8 0.207456 0.081228 0.013183
O O9 0.500000 0.189671 0.028100
O O10 0.786457 0.198895 0.078688
O O11 0.750000 0.250000 0.000000
O O12 0.500000 0.993651 0.651605
O O13 0.781213 0.944264 0.676941
O O14 0.779634 0.983932 0.592764
O O15 0.781057 0.046071 0.666125
O O16 0.721220 0.345294 0.662520
O O17 0.000000 0.295490 0.634899
O O18 0.276089 0.616436 0.250000
O O19 0.000000 0.607982 0.191968
O O20 0.500000 0.054520 0.442617
O O21 0.692341 0.000000 0.500000
O O22 0.500000 0.096178 0.644463
#
# Coordination Sequence:
#
# PCOD9469798 Si02
#       8
#    16  16  16  16  16  16  16  16
#     4  10  21  36  52  68  88 121 165 205 240 283
#     4   9  16  26  42  68 100 129 154 185 227 276
#     4  10  19  30  46  69  97 125 154 188 229 278
#     4   9  16  25  40  68 102 130 156 191 239 289
#     4   9  17  31  49  68  91 120 158 202 242 280
#     4   9  16  26  42  65  93 122 153 198 252 290
#     4   9  13  21  38  61  91 124 155 185 219 266
#     4  10  19  31  48  73 104 131 155 189 236 287
#
# _framework density 22.930513999999999
#
# number of rings (size 3 to 8) (size 9 to 14) (size 15 to 20)
#    0.000    2.625    1.250    1.875    0.000    5.250 
#    0.000    1.250    0.000    0.000    0.000    6.125 
#    0.000    2.000    0.000    0.000    0.000    0.000 
#
# Total GULP energy -356869.751293 kJ/mol
# GULP energy per Si atom -5576.089864 kJ/mol
# Density = 2.287832 g / cm^3
# Si number density = 22.930514 Si / 1000 Ang^3
#
#
#
# Elastic Constant Matrix: (Units=GPa)
#
#
# Indices 1 2 3 4 5 6 
#
# 1 85.2013 -5.3780 -1.6972 0.0000 0.0000 0.0000
# 2 -5.3780 163.5541 46.0054 0.0000 0.0000 0.0000
# 3 -1.6972 46.0054 113.2635 0.0000 0.0000 0.0000
# 4 0.0000 0.0000 0.0000 37.3022 0.0000 0.0000
# 5 0.0000 0.0000 0.0000 0.0000 -10.2131 0.0000
# 6 0.0000 0.0000 0.0000 0.0000 0.0000 12.1811
#
#
#
# Elastic Compliance Matrix: (Units=1/GPa)
#
#
# Indices 1 2 3 4 5 6 
#
# 1 0.011761 0.000381 0.000022 0.000000 0.000000 0.000000
# 2 0.000381 0.006915 -0.002803 0.000000 0.000000 0.000000
# 3 0.000022 -0.002803 0.009968 0.000000 0.000000 0.000000
# 4 0.000000 0.000000 0.000000 0.026808 0.000000 0.000000
# 5 0.000000 0.000000 0.000000 0.000000 -0.097914 0.000000
# 6 0.000000 0.000000 0.000000 0.000000 0.000000 0.082095
#
#
# Mechanical properties :
#
#
# Convention : Reuss Voigt Hill
#
# Bulk Modulus (GPa) = 41.94147 48.87548 45.40848
# Shear Modulus (GPa) = 95.45118 29.39328 62.42223
#
# Velocity S-wave (km/s) = 6.45884 3.58417 5.22316
# Velocity P-wave (km/s) = 8.59957 6.20397 7.49806
#
# Compressibility (1/GPa) = 0.02384275
#
# Stress axis : x y z
#
# Youngs Moduli (GPa) = 85.02412 144.60959 100.32245
#
# Poissons Ratio (x) = -0.05505 -0.00217
# Poissons Ratio (y) = -0.03236 0.28121
# Poissons Ratio (z) = -0.00184 0.40536
#
# Static dielectric constant tensor:
#      x y z
#    x 1.787910 0.000000 0.000000 
#    y 0.000000 1.680640 0.000000 
#    z 0.000000 0.000000 1.797140 
# 
# From -- ./inp_files/68819.got.cif
#   From: 2010.05.17/outbox.cif.g08.bks.cpg/sg63_35_cif.got.tgz:68819.got - 2010.06.03 15:47:04.
