data_PCOD9469591
_publ_section_title
;
Structure prediction by ZEFSAII (Michael W. Deem and Ramdas Pophale) SiO2 
 PCOD9469591
Probable space group: C M C M
;
_chemical_formula_sum "Si O2"
_cell_formula_units_Z 60
_cell_length_a 5.446079
_cell_length_b 18.306214
_cell_length_c 27.549839
_cell_angle_alpha 90.000000
_cell_angle_beta 90.000000
_cell_angle_gamma 90.000000
_cell_volume 2746.638713
_symmetry_space_group_name_H-M "C M C M"
_symmetry_group_IT_number 63
_symmetry_cell_setting 'orthorhombic'
loop_
_space_group_symop_operation_xyz
x,y,z
-x,-y,1/2+z
x,-y,-z
-x,y,1/2-z
-x,-y,-z
x,y,1/2-z
-x,y,z
x,-y,1/2+z
1/2+x,1/2+y,z
1/2-x,1/2-y,1/2+z
1/2+x,1/2-y,-z
1/2-x,1/2+y,1/2-z
1/2-x,1/2-y,-z
1/2+x,1/2+y,1/2-z
1/2-x,1/2+y,z
1/2+x,1/2-y,1/2+z
loop_
_atom_site_type_symbol
_atom_site_label
_atom_site_fract_x
_atom_site_fract_y
_atom_site_fract_z
Si Si1 0.000000 0.552097 0.047881
Si Si2 0.000000 0.007140 0.558304
Si Si3 0.500000 0.116353 0.195547
Si Si4 0.000000 0.465599 0.250000
Si Si5 0.000000 0.338846 0.169415
Si Si6 0.000000 0.171606 0.306070
Si Si7 0.000000 0.723590 0.026655
Si Si8 0.500000 0.339014 0.392073
O O1 0.750506 0.530940 0.075506
O O2 0.000000 0.636209 0.031940
O O3 0.000000 0.500000 0.000000
O O4 0.000000 0.000000 0.500000
O O5 0.000000 0.091773 0.572011
O O6 0.500000 0.154315 0.250000
O O7 0.250158 0.141913 0.171119
O O8 0.500000 0.031390 0.208426
O O9 0.000000 0.402676 0.208253
O O10 0.000000 0.258366 0.192824
O O11 0.250581 0.343956 0.138678
O O12 0.000000 0.142864 0.250000
O O13 0.000000 0.764292 0.078079
O O14 0.750000 0.750000 0.000000
#
# Coordination Sequence:
#
# PCOD9469591 Si02
#       8
#     8   8   8   4   8   8   8   8
#     4  10  19  35  64  93 117 166 216 253 314 408
#     4  10  20  40  64  87 125 170 211 260 340 402
#     4   8  19  35  65  92 121 156 249 254 314 398
#     4  10  24  44  70 100 132 194 220 272 344 392
#     4  12  26  44  68  98 144 176 231 280 339 399
#     4  10  18  40  65  93 121 184 218 265 324 406
#     4  12  23  42  70  96 130 174 221 276 346 412
#     4  12  27  44  64 106 137 172 229 296 325 401
#
# _framework density 21.844882999999999
#
# number of rings (size 3 to 8) (size 9 to 14) (size 15 to 20)
#    0.400    1.067    0.667    6.400    0.000    2.667 
#    0.000    8.000    0.000    0.000    0.000    0.000 
#    0.000    0.000    0.000    0.000    0.000    0.000 
#
# Total GULP energy -167081.384849 kJ/mol
# GULP energy per Si atom -5569.379495 kJ/mol
# Density = 2.179516 g / cm^3
# Si number density = 21.844883 Si / 1000 Ang^3
#
#
#
# Elastic Constant Matrix: (Units=GPa)
#
#
# Indices 1 2 3 4 5 6 
#
# 1 224.4753 62.4857 30.0579 0.0000 0.0000 0.0000
# 2 62.4857 217.8176 32.4722 0.0000 0.0000 0.0000
# 3 30.0579 32.4722 59.7736 0.0000 0.0000 0.0000
# 4 0.0000 0.0000 0.0000 20.1670 0.0000 0.0000
# 5 0.0000 0.0000 0.0000 0.0000 -7.3537 0.0000
# 6 0.0000 0.0000 0.0000 0.0000 0.0000 430.8153
#
#
#
# Elastic Compliance Matrix: (Units=1/GPa)
#
#
# Indices 1 2 3 4 5 6 
#
# 1 0.005032 -0.001160 -0.001900 0.000000 0.000000 0.000000
# 2 -0.001160 0.005263 -0.002276 0.000000 0.000000 0.000000
# 3 -0.001900 -0.002276 0.018922 0.000000 0.000000 0.000000
# 4 0.000000 0.000000 0.000000 0.049586 0.000000 0.000000
# 5 0.000000 0.000000 0.000000 0.000000 -0.135987 0.000000
# 6 0.000000 0.000000 0.000000 0.000000 0.000000 0.002321
#
#
# Mechanical properties :
#
#
# Convention : Reuss Voigt Hill
#
# Bulk Modulus (GPa) = 53.92426 83.56647 68.74537
# Shear Modulus (GPa) = -131.54922 113.86244 -8.84339
#
# Velocity S-wave (km/s) = -7.76855 7.22747 -2.01421
# Velocity P-wave (km/s) = 7.46516 10.39163 5.11162
#
# Compressibility (1/GPa) = 0.01854453
#
# Stress axis : x y z
#
# Youngs Moduli (GPa) = 198.71750 190.00101 52.84961
#
# Poissons Ratio (x) = 0.22047 0.10042
# Poissons Ratio (y) = 0.23058 0.12027
# Poissons Ratio (z) = 0.37760 0.43239
#
# Static dielectric constant tensor:
#      x y z
#    x 1.881210 0.000000 0.000000 
#    y 0.000000 1.721330 0.000000 
#    z 0.000000 0.000000 1.798090 
# 
# From -- ./inp_files/65943.got.cif
#   From: 2010.05.17/outbox.cif.g08.bks.cpg/sg63_33_cif.got.tgz:65943.got - 2010.06.03 15:47:04.
