data_PCOD9469536
_publ_section_title
;
Structure prediction by ZEFSAII (Michael W. Deem and Ramdas Pophale) SiO2 
 PCOD9469536
Probable space group: C M C M
;
_chemical_formula_sum "Si O2"
_cell_formula_units_Z 68
_cell_length_a 19.250744
_cell_length_b 20.226679
_cell_length_c 9.216398
_cell_angle_alpha 90.000000
_cell_angle_beta 90.000000
_cell_angle_gamma 90.000000
_cell_volume 3588.668329
_symmetry_space_group_name_H-M "C M C M"
_symmetry_group_IT_number 63
_symmetry_cell_setting 'orthorhombic'
loop_
_space_group_symop_operation_xyz
x,y,z
-x,-y,1/2+z
x,-y,-z
-x,y,1/2-z
-x,-y,-z
x,y,1/2-z
-x,y,z
x,-y,1/2+z
1/2+x,1/2+y,z
1/2-x,1/2-y,1/2+z
1/2+x,1/2-y,-z
1/2-x,1/2+y,1/2-z
1/2-x,1/2-y,-z
1/2+x,1/2+y,1/2-z
1/2-x,1/2+y,z
1/2+x,1/2-y,1/2+z
loop_
_atom_site_type_symbol
_atom_site_label
_atom_site_fract_x
_atom_site_fract_y
_atom_site_fract_z
Si Si1 0.574696 0.094097 0.487134
Si Si2 0.000000 0.533652 0.750000
Si Si3 0.704771 0.306893 0.076440
Si Si4 0.768995 0.432159 0.916281
Si Si5 0.419860 0.247817 0.916359
O O1 0.500000 0.089382 0.402722
O O2 0.559781 0.046797 0.623587
O O3 0.647774 0.080260 0.415180
O O4 0.580246 0.169632 0.545265
O O5 0.712129 0.306117 0.250000
O O6 0.750000 0.250000 0.000000
O O7 0.732164 0.374456 0.007100
O O8 0.627122 0.288683 0.026297
O O9 0.744658 0.433192 0.750000
O O10 0.756456 0.500000 0.000000
O O11 0.394672 0.255138 0.750000
O O12 0.500000 0.268737 0.922279
#
# Coordination Sequence:
#
# PCOD9469536 Si02
#       5
#    16   4  16  16  16
#     4   9  18  33  58  84 122 158 205 241 296 349
#     4   8  16  32  56  88 114 172 194 252 286 356
#     4  12  25  39  62  91 125 160 204 254 301 360
#     4  12  27  42  61  86 120 164 207 254 307 363
#     4  10  18  35  63  92 123 158 199 248 303 356
#
# _framework density 18.948533000000001
#
# number of rings (size 3 to 8) (size 9 to 14) (size 15 to 20)
#    0.706    0.706    3.529    2.824    3.294    1.412 
#    0.000    2.353    0.000    0.706    0.000    0.000 
#    0.000    0.000    0.000    0.000    0.000    0.000 
#
# Total GULP energy -189358.473152 kJ/mol
# GULP energy per Si atom -5569.366857 kJ/mol
# Density = 1.890541 g / cm^3
# Si number density = 18.948533 Si / 1000 Ang^3
#
#
#
# Elastic Constant Matrix: (Units=GPa)
#
#
# Indices 1 2 3 4 5 6 
#
# 1 70.3707 45.5886 43.1073 0.0000 0.0000 0.0000
# 2 45.5886 118.0932 63.5584 0.0000 0.0000 0.0000
# 3 43.1073 63.5584 195.3316 0.0000 0.0000 0.0000
# 4 0.0000 0.0000 0.0000 -45.6087 0.0000 0.0000
# 5 0.0000 0.0000 0.0000 0.0000 37.5218 0.0000
# 6 0.0000 0.0000 0.0000 0.0000 0.0000 34.8692
#
#
#
# Elastic Compliance Matrix: (Units=1/GPa)
#
#
# Indices 1 2 3 4 5 6 
#
# 1 0.019751 -0.006399 -0.002276 0.000000 0.000000 0.000000
# 2 -0.006399 0.012339 -0.002603 0.000000 0.000000 0.000000
# 3 -0.002276 -0.002603 0.006469 0.000000 0.000000 0.000000
# 4 0.000000 0.000000 0.000000 -0.021926 0.000000 0.000000
# 5 0.000000 0.000000 0.000000 0.000000 0.026651 0.000000
# 6 0.000000 0.000000 0.000000 0.000000 0.000000 0.028679
#
#
# Mechanical properties :
#
#
# Convention : Reuss Voigt Hill
#
# Bulk Modulus (GPa) = 62.49416 76.47822 69.48619
# Shear Modulus (GPa) = 50.07335 20.79255 35.43295
#
# Velocity S-wave (km/s) = 5.14620 3.31617 4.32899
# Velocity P-wave (km/s) = 8.26824 7.42370 7.85732
#
# Compressibility (1/GPa) = 0.01600149
#
# Stress axis : x y z
#
# Youngs Moduli (GPa) = 50.63117 81.04335 154.58858
#
# Poissons Ratio (x) = 0.51862 0.35192
# Poissons Ratio (y) = 0.32400 0.40235
# Poissons Ratio (z) = 0.11526 0.21093
#
# Static dielectric constant tensor:
#      x y z
#    x 1.865640 0.000000 0.000000 
#    y 0.000000 1.698090 0.000000 
#    z 0.000000 0.000000 1.746150 
# 
# From -- ./inp_files/5861.got.cif
#   From: 2010.05.17/outbox.cif.g08.bks.cpg/sg63_3_cif.got.tgz:5861.got - 2010.06.03 15:47:04.
