data_PCOD9469223
_publ_section_title
;
Structure prediction by ZEFSAII (Michael W. Deem and Ramdas Pophale) SiO2 
 PCOD9469223
Probable space group: C M C M
;
_chemical_formula_sum "Si O2"
_cell_formula_units_Z 96
_cell_length_a 7.523079
_cell_length_b 26.748173
_cell_length_c 24.021455
_cell_angle_alpha 90.000000
_cell_angle_beta 90.000000
_cell_angle_gamma 90.000000
_cell_volume 4833.804206
_symmetry_space_group_name_H-M "C M C M"
_symmetry_group_IT_number 63
_symmetry_cell_setting 'orthorhombic'
loop_
_space_group_symop_operation_xyz
x,y,z
-x,-y,1/2+z
x,-y,-z
-x,y,1/2-z
-x,-y,-z
x,y,1/2-z
-x,y,z
x,-y,1/2+z
1/2+x,1/2+y,z
1/2-x,1/2-y,1/2+z
1/2+x,1/2-y,-z
1/2-x,1/2+y,1/2-z
1/2-x,1/2-y,-z
1/2+x,1/2+y,1/2-z
1/2-x,1/2+y,z
1/2+x,1/2-y,1/2+z
loop_
_atom_site_type_symbol
_atom_site_label
_atom_site_fract_x
_atom_site_fract_y
_atom_site_fract_z
Si Si1 0.704455 0.689468 0.250000
Si Si2 0.286614 0.252884 0.065165
Si Si3 0.201484 0.344209 0.870191
Si Si4 0.716301 0.303749 0.250000
Si Si5 0.787608 0.848122 0.366398
Si Si6 0.717393 0.939640 0.814483
Si Si7 0.212369 0.446799 0.186925
O O1 0.500000 0.672398 0.250000
O O2 0.800350 0.673602 0.306214
O O3 0.709189 0.748784 0.250000
O O4 0.500000 0.252165 0.074303
O O5 0.217300 0.202277 0.095564
O O6 0.220494 0.305932 0.090503
O O7 0.250000 0.250000 0.000000
O O8 0.281746 0.399425 0.860177
O O9 0.000000 0.350801 0.891497
O O10 0.500000 0.301531 0.250000
O O11 0.775617 0.330181 0.194066
O O12 0.750579 0.907139 0.361866
O O13 0.000000 0.844581 0.368817
O O14 0.767801 0.927588 0.750000
O O15 0.500000 0.937811 0.815618
O O16 0.773530 0.996658 0.824981
O O17 0.280009 0.433218 0.250000
O O18 0.000000 0.448943 0.191382
#
# Coordination Sequence:
#
# PCOD9469223 Si02
#       7
#     8  16  16   8  16  16  16
#     4  12  22  28  43  78 111 131 158 204 258 299
#     4  10  22  37  54  74  95 127 174 218 259 303
#     4  10  18  34  56  72  97 140 175 200 243 308
#     4  10  18  32  49  68  99 133 168 198 238 305
#     4  10  19  32  51  73  98 133 168 197 241 307
#     4   8  14  26  49  75 100 133 168 198 234 290
#     4   9  17  28  45  76 109 133 160 197 245 290
#
# _framework density 19.860133999999999
#
# number of rings (size 3 to 8) (size 9 to 14) (size 15 to 20)
#    0.000    2.333    3.333    1.750    0.000    2.000 
#    0.000    0.833    0.000    1.000    0.000    7.000 
#    0.000    0.000    0.000    0.000    0.000    0.000 
#
# Total GULP energy -267298.348159 kJ/mol
# GULP energy per Si atom -5568.715587 kJ/mol
# Density = 1.981493 g / cm^3
# Si number density = 19.860134 Si / 1000 Ang^3
#
#
#
# Elastic Constant Matrix: (Units=GPa)
#
#
# Indices 1 2 3 4 5 6 
#
# 1 55.8257 3.3938 -1.5201 0.0000 0.0000 0.0000
# 2 3.3938 189.0246 69.8246 0.0000 0.0000 0.0000
# 3 -1.5201 69.8246 94.3788 0.0000 0.0000 0.0000
# 4 0.0000 0.0000 0.0000 14.4300 0.0000 0.0000
# 5 0.0000 0.0000 0.0000 0.0000 2.2760 0.0000
# 6 0.0000 0.0000 0.0000 0.0000 0.0000 14.5032
#
#
#
# Elastic Compliance Matrix: (Units=1/GPa)
#
#
# Indices 1 2 3 4 5 6 
#
# 1 0.017969 -0.000591 0.000727 0.000000 0.000000 0.000000
# 2 -0.000591 0.007299 -0.005410 0.000000 0.000000 0.000000
# 3 0.000727 -0.005410 0.014610 0.000000 0.000000 0.000000
# 4 0.000000 0.000000 0.000000 0.069300 0.000000 0.000000
# 5 0.000000 0.000000 0.000000 0.000000 0.439361 0.000000
# 6 0.000000 0.000000 0.000000 0.000000 0.000000 0.068950
#
#
# Mechanical properties :
#
#
# Convention : Reuss Voigt Hill
#
# Bulk Modulus (GPa) = 34.09562 53.62508 43.86035
# Shear Modulus (GPa) = 7.83928 24.07723 15.95825
#
# Velocity S-wave (km/s) = 1.98892 3.48564 2.83774
# Velocity P-wave (km/s) = 4.74126 6.57720 5.73320
#
# Compressibility (1/GPa) = 0.02932928
#
# Stress axis : x y z
#
# Youngs Moduli (GPa) = 55.65255 137.00012 68.44803
#
# Poissons Ratio (x) = 0.08097 -0.04974
# Poissons Ratio (y) = 0.03289 0.37029
# Poissons Ratio (z) = -0.04044 0.74114
#
# Static dielectric constant tensor:
#      x y z
#    x 1.786770 0.000000 0.000000 
#    y 0.000000 1.813520 0.000000 
#    z 0.000000 0.000000 1.657000 
# 
# From -- ./inp_files/60323.got.cif
#   From: 2010.05.17/outbox.cif.g08.bks.cpg/sg63_31_cif.got.tgz:60323.got - 2010.06.03 15:47:04.
