data_PCOD9469752
_publ_section_title
;
Structure prediction by ZEFSAII (Michael W. Deem and Ramdas Pophale) SiO2 
 PCOD9469752
Probable space group: C M C M
;
_chemical_formula_sum "Si O2"
_cell_formula_units_Z 96
_cell_length_a 8.981625
_cell_length_b 27.534691
_cell_length_c 23.428381
_cell_angle_alpha 90.000000
_cell_angle_beta 90.000000
_cell_angle_gamma 90.000000
_cell_volume 5793.985495
_symmetry_space_group_name_H-M "C M C M"
_symmetry_group_IT_number 63
_symmetry_cell_setting 'orthorhombic'
loop_
_space_group_symop_operation_xyz
x,y,z
-x,-y,1/2+z
x,-y,-z
-x,y,1/2-z
-x,-y,-z
x,y,1/2-z
-x,y,z
x,-y,1/2+z
1/2+x,1/2+y,z
1/2-x,1/2-y,1/2+z
1/2+x,1/2-y,-z
1/2-x,1/2+y,1/2-z
1/2-x,1/2-y,-z
1/2+x,1/2+y,1/2-z
1/2-x,1/2+y,z
1/2+x,1/2-y,1/2+z
loop_
_atom_site_type_symbol
_atom_site_label
_atom_site_fract_x
_atom_site_fract_y
_atom_site_fract_z
Si Si1 0.821325 0.442712 0.997838
Si Si2 0.820678 0.199799 0.816962
Si Si3 0.831384 0.299337 0.511422
Si Si4 0.676529 0.809725 0.681905
Si Si5 0.168315 0.370458 0.404976
Si Si6 0.823855 0.874154 0.592867
O O1 0.747988 0.419289 0.941441
O O2 0.000000 0.433628 0.994420
O O3 0.794896 0.500000 0.000000
O O4 0.771150 0.415615 0.056661
O O5 0.780075 0.194870 0.750000
O O6 0.773721 0.254729 0.836334
O O7 0.757320 0.155371 0.854088
O O8 0.000000 0.199357 0.820606
O O9 0.750000 0.250000 0.500000
O O10 0.840877 0.328917 0.452970
O O11 0.728094 0.329817 0.553076
O O12 0.000000 0.293700 0.533829
O O13 0.695906 0.811002 0.750000
O O14 0.500000 0.813523 0.669964
O O15 0.758249 0.855110 0.652669
O O16 0.000000 0.382710 0.385765
O O17 0.000000 0.879880 0.595773
#
# Coordination Sequence:
#
# PCOD9469752 Si02
#       6
#    16  16  16  16  16  16
#     4   9  19  37  57  73  93 124 163 208 255 300
#     4   9  18  31  47  69  98 133 167 195 229 278
#     4  10  19  30  44  66  97 129 162 198 240 291
#     4   9  18  33  51  70  97 136 176 206 234 278
#     4   9  18  30  46  70  94 119 155 198 242 286
#     4  11  21  31  47  73 102 129 159 199 249 303
#
# _framework density 16.568905999999998
#
# number of rings (size 3 to 8) (size 9 to 14) (size 15 to 20)
#    0.000    2.500    0.000    5.000    0.000    7.667 
#    0.000    1.667    0.000    1.000    0.000    2.333 
#    0.000    0.000    0.000    0.000    0.000    0.000 
#
# Total GULP energy -267229.010246 kJ/mol
# GULP energy per Si atom -5567.271047 kJ/mol
# Density = 1.653119 g / cm^3
# Si number density = 16.568906 Si / 1000 Ang^3
#
#
#
# Elastic Constant Matrix: (Units=GPa)
#
#
# Indices 1 2 3 4 5 6 
#
# 1 52.1559 44.9203 34.7560 0.0000 0.0000 0.0000
# 2 44.9203 113.5425 41.4330 0.0000 0.0000 0.0000
# 3 34.7560 41.4330 74.4681 0.0000 0.0000 0.0000
# 4 0.0000 0.0000 0.0000 22.9562 0.0000 0.0000
# 5 0.0000 0.0000 0.0000 0.0000 25.5178 0.0000
# 6 0.0000 0.0000 0.0000 0.0000 0.0000 21.4718
#
#
#
# Elastic Compliance Matrix: (Units=1/GPa)
#
#
# Indices 1 2 3 4 5 6 
#
# 1 0.034841 -0.009850 -0.010781 0.000000 0.000000 0.000000
# 2 -0.009850 0.013836 -0.003101 0.000000 0.000000 0.000000
# 3 -0.010781 -0.003101 0.020185 0.000000 0.000000 0.000000
# 4 0.000000 0.000000 0.000000 0.043561 0.000000 0.000000
# 5 0.000000 0.000000 0.000000 0.000000 0.039188 0.000000
# 6 0.000000 0.000000 0.000000 0.000000 0.000000 0.046573
#
#
# Mechanical properties :
#
#
# Convention : Reuss Voigt Hill
#
# Bulk Modulus (GPa) = 46.73085 53.59835 50.16460
# Shear Modulus (GPa) = 19.78005 21.92630 20.85317
#
# Velocity S-wave (km/s) = 3.45890 3.64172 3.55149
# Velocity P-wave (km/s) = 6.64960 7.07826 6.86728
#
# Compressibility (1/GPa) = 0.02139914
#
# Stress axis : x y z
#
# Youngs Moduli (GPa) = 28.70197 72.27697 49.54085
#
# Poissons Ratio (x) = 0.71192 0.53408
# Poissons Ratio (y) = 0.28271 0.15362
# Poissons Ratio (z) = 0.30943 0.22411
#
# Static dielectric constant tensor:
#      x y z
#    x 1.573620 0.000000 0.000000 
#    y 0.000000 1.544220 0.000000 
#    z 0.000000 0.000000 1.529600 
# 
# From -- ./inp_files/60236.got.cif
#   From: 2010.05.17/outbox.cif.g08.bks.cpg/sg63_31_cif.got.tgz:60236.got - 2010.06.03 15:47:04.
