data_PCOD9469813
_publ_section_title
;
Structure prediction by ZEFSAII (Michael W. Deem and Ramdas Pophale) SiO2 
 PCOD9469813
Probable space group: C M C M
;
_chemical_formula_sum "Si O2"
_cell_formula_units_Z 96
_cell_length_a 14.590608
_cell_length_b 24.347345
_cell_length_c 14.538534
_cell_angle_alpha 90.000000
_cell_angle_beta 90.000000
_cell_angle_gamma 90.000000
_cell_volume 5164.706135
_symmetry_space_group_name_H-M "C M C M"
_symmetry_group_IT_number 63
_symmetry_cell_setting 'orthorhombic'
loop_
_space_group_symop_operation_xyz
x,y,z
-x,-y,1/2+z
x,-y,-z
-x,y,1/2-z
-x,-y,-z
x,y,1/2-z
-x,y,z
x,-y,1/2+z
1/2+x,1/2+y,z
1/2-x,1/2-y,1/2+z
1/2+x,1/2-y,-z
1/2-x,1/2+y,1/2-z
1/2-x,1/2-y,-z
1/2+x,1/2+y,1/2-z
1/2-x,1/2+y,z
1/2+x,1/2-y,1/2+z
loop_
_atom_site_type_symbol
_atom_site_label
_atom_site_fract_x
_atom_site_fract_y
_atom_site_fract_z
Si Si1 0.846771 0.783581 0.250000
Si Si2 0.103386 0.753128 0.448921
Si Si3 0.895955 0.901430 0.250000
Si Si4 0.712666 0.953266 0.576312
Si Si5 0.241412 0.180808 0.250000
Si Si6 0.266460 0.664911 0.454272
Si Si7 0.899047 0.000538 0.611049
Si Si8 0.107578 0.410707 0.750000
O O1 0.898254 0.765057 0.159045
O O2 0.831808 0.848674 0.250000
O O3 0.755728 0.746218 0.250000
O O4 0.176141 0.703670 0.463805
O O5 0.151966 0.807171 0.490208
O O6 0.000000 0.743116 0.482599
O O7 0.000000 0.879043 0.250000
O O8 0.887962 0.940752 0.338915
O O9 0.736172 0.896653 0.523642
O O10 0.806274 0.968319 0.630886
O O11 0.638729 0.941548 0.656135
O O12 0.691695 0.000000 0.500000
O O13 0.200818 0.164978 0.152224
O O14 0.337739 0.147114 0.250000
O O15 0.000000 0.979734 0.640633
O O16 0.900985 0.000000 0.500000
O O17 0.000000 0.401899 0.750000
#
# Coordination Sequence:
#
# PCOD9469813 Si02
#       8
#     8  16   8  16   8  16  16   8
#     4  10  20  30  52  84 105 134 180 224 272 322
#     4  10  20  35  55  82 114 143 178 227 281 326
#     4  10  19  30  46  75 108 139 179 218 255 319
#     4  10  21  36  55  82 111 148 188 228 275 329
#     4   8  18  38  57  77 108 135 177 233 282 325
#     4   9  20  36  55  82 110 143 184 226 271 328
#     4   9  19  33  49  73 112 151 178 211 266 333
#     4  10  21  38  59  78 106 146 189 239 281 320
#
# _framework density 18.587698
#
# number of rings (size 3 to 8) (size 9 to 14) (size 15 to 20)
#    0.000    2.500    0.000    1.250    4.667    7.333 
#    0.000    0.417    0.000    3.000    0.000    0.000 
#    0.000    0.000    0.000    0.000    0.000    0.000 
#
# Total GULP energy -267262.960025 kJ/mol
# GULP energy per Si atom -5567.978334 kJ/mol
# Density = 1.854539 g / cm^3
# Si number density = 18.587698 Si / 1000 Ang^3
#
#
#
# Elastic Constant Matrix: (Units=GPa)
#
#
# Indices 1 2 3 4 5 6 
#
# 1 65.0565 2.0867 13.2057 0.0000 0.0000 0.0000
# 2 2.0867 110.4739 31.2550 0.0000 0.0000 0.0000
# 3 13.2057 31.2550 83.3799 0.0000 0.0000 0.0000
# 4 0.0000 0.0000 0.0000 22.7330 0.0000 0.0000
# 5 0.0000 0.0000 0.0000 0.0000 19.3692 0.0000
# 6 0.0000 0.0000 0.0000 0.0000 0.0000 11.5854
#
#
#
# Elastic Compliance Matrix: (Units=1/GPa)
#
#
# Indices 1 2 3 4 5 6 
#
# 1 0.015903 0.000461 -0.002692 0.000000 0.000000 0.000000
# 2 0.000461 0.010139 -0.003874 0.000000 0.000000 0.000000
# 3 -0.002692 -0.003874 0.013872 0.000000 0.000000 0.000000
# 4 0.000000 0.000000 0.000000 0.043989 0.000000 0.000000
# 5 0.000000 0.000000 0.000000 0.000000 0.051628 0.000000
# 6 0.000000 0.000000 0.000000 0.000000 0.000000 0.086315
#
#
# Mechanical properties :
#
#
# Convention : Reuss Voigt Hill
#
# Bulk Modulus (GPa) = 36.09409 39.11166 37.60287
# Shear Modulus (GPa) = 20.55167 24.89508 22.72337
#
# Velocity S-wave (km/s) = 3.32875 3.66366 3.50021
# Velocity P-wave (km/s) = 5.85103 6.24371 6.05056
#
# Compressibility (1/GPa) = 0.02770537
#
# Stress axis : x y z
#
# Youngs Moduli (GPa) = 62.88193 98.62777 72.08957
#
# Poissons Ratio (x) = -0.04548 0.19403
# Poissons Ratio (y) = -0.02900 0.27925
# Poissons Ratio (z) = 0.16925 0.38205
#
# Static dielectric constant tensor:
#      x y z
#    x 1.655520 0.000000 0.000000 
#    y 0.000000 1.669280 0.000000 
#    z 0.000000 0.000000 1.693380 
# 
# From -- ./inp_files/32242.got.cif
#   From: 2010.05.17/outbox.cif.g08.bks.cpg/sg63_17_cif.got.tgz:32242.got - 2010.06.03 15:47:04.
