data_PCOD9469493
_publ_section_title
;
Structure prediction by ZEFSAII (Michael W. Deem and Ramdas Pophale) SiO2 
 PCOD9469493
Probable space group: C M C M
;
_chemical_formula_sum "Si O2"
_cell_formula_units_Z 96
_cell_length_a 8.527900
_cell_length_b 29.820422
_cell_length_c 21.088871
_cell_angle_alpha 90.000000
_cell_angle_beta 90.000000
_cell_angle_gamma 90.000000
_cell_volume 5363.017503
_symmetry_space_group_name_H-M "C M C M"
_symmetry_group_IT_number 63
_symmetry_cell_setting 'orthorhombic'
loop_
_space_group_symop_operation_xyz
x,y,z
-x,-y,1/2+z
x,-y,-z
-x,y,1/2-z
-x,-y,-z
x,y,1/2-z
-x,y,z
x,-y,1/2+z
1/2+x,1/2+y,z
1/2-x,1/2-y,1/2+z
1/2+x,1/2-y,-z
1/2-x,1/2+y,1/2-z
1/2-x,1/2-y,-z
1/2+x,1/2+y,1/2-z
1/2-x,1/2+y,z
1/2+x,1/2-y,1/2+z
loop_
_atom_site_type_symbol
_atom_site_label
_atom_site_fract_x
_atom_site_fract_y
_atom_site_fract_z
Si Si1 0.191251 0.220115 0.321146
Si Si2 0.310688 0.373847 0.021641
Si Si3 0.689429 0.528033 0.562173
Si Si4 0.189465 0.876930 0.873066
Si Si5 0.187904 0.278325 0.059703
Si Si6 0.187515 0.470645 0.821550
O O1 0.243862 0.230896 0.250000
O O2 0.237583 0.169609 0.340411
O O3 0.242978 0.254420 0.375577
O O4 0.000000 0.220575 0.321262
O O5 0.500000 0.371344 0.023792
O O6 0.260736 0.420407 0.053881
O O7 0.242979 0.329299 0.052879
O O8 0.266340 0.375490 0.947269
O O9 0.740961 0.500000 0.500000
O O10 0.500000 0.527041 0.562352
O O11 0.747925 0.504312 0.625506
O O12 0.259016 0.920620 0.840202
O O13 0.000000 0.880113 0.869999
O O14 0.000000 0.276555 0.058448
O O15 0.250000 0.250000 0.000000
O O16 0.242034 0.480994 0.750000
O O17 0.000000 0.472469 0.822661
#
# Coordination Sequence:
#
# PCOD9469493 Si02
#       6
#    16  16  16  16  16  16
#     4   9  18  33  54  80 108 143 186 224 262 319
#     4  10  20  36  58  86 112 135 181 237 278 328
#     4  10  20  38  61  82 108 145 188 233 278 332
#     4  10  18  34  59  83 110 143 183 231 277 331
#     4  11  21  35  56  81 113 149 185 227 274 326
#     4  11  24  38  53  82 121 151 182 229 281 335
#
# _framework density 17.900369000000001
#
# number of rings (size 3 to 8) (size 9 to 14) (size 15 to 20)
#    0.000    1.833    3.333    1.500    0.000    3.667 
#    0.000    0.833    0.000    6.000    0.000    0.000 
#    0.000    0.000    0.000    0.000    0.000    0.000 
#
# Total GULP energy -268035.581112 kJ/mol
# GULP energy per Si atom -5584.074607 kJ/mol
# Density = 1.785963 g / cm^3
# Si number density = 17.900369 Si / 1000 Ang^3
#
#
#
# Elastic Constant Matrix: (Units=GPa)
#
#
# Indices 1 2 3 4 5 6 
#
# 1 13.9719 29.3801 27.5650 0.0000 0.0000 0.0000
# 2 29.3801 172.0284 107.9234 0.0000 0.0000 0.0000
# 3 27.5650 107.9234 188.1034 0.0000 0.0000 0.0000
# 4 0.0000 0.0000 0.0000 20.4531 0.0000 0.0000
# 5 0.0000 0.0000 0.0000 0.0000 23.3813 0.0000
# 6 0.0000 0.0000 0.0000 0.0000 0.0000 30.7033
#
#
#
# Elastic Compliance Matrix: (Units=1/GPa)
#
#
# Indices 1 2 3 4 5 6 
#
# 1 0.121045 -0.014912 -0.009182 0.000000 0.000000 0.000000
# 2 -0.014912 0.010919 -0.004080 0.000000 0.000000 0.000000
# 3 -0.009182 -0.004080 0.009002 0.000000 0.000000 0.000000
# 4 0.000000 0.000000 0.000000 0.048892 0.000000 0.000000
# 5 0.000000 0.000000 0.000000 0.000000 0.042769 0.000000
# 6 0.000000 0.000000 0.000000 0.000000 0.000000 0.032570
#
#
# Mechanical properties :
#
#
# Convention : Reuss Voigt Hill
#
# Bulk Modulus (GPa) = 11.81772 78.20451 45.01112
# Shear Modulus (GPa) = 14.29580 28.85654 21.57617
#
# Velocity S-wave (km/s) = 2.82907 4.01941 3.47558
# Velocity P-wave (km/s) = 4.15786 8.08236 6.42698
#
# Compressibility (1/GPa) = 0.08461871
#
# Stress axis : x y z
#
# Youngs Moduli (GPa) = 8.26136 91.58237 111.08120
#
# Poissons Ratio (x) = 1.36570 1.01998
# Poissons Ratio (y) = 0.12320 0.45316
# Poissons Ratio (z) = 0.07586 0.37361
#
# Static dielectric constant tensor:
#      x y z
#    x 1.617260 0.000000 0.000000 
#    y 0.000000 1.587390 0.000000 
#    z 0.000000 0.000000 1.605560 
# 
# From -- ./inp_files/51284.got.cif
#   From: 2010.05.17/outbox.cif.g08.bks.cpg/sg63_26_cif.got.tgz:51284.got - 2010.06.03 15:47:04.
