data_PCOD9469163
_publ_section_title
;
Structure prediction by ZEFSAII (Michael W. Deem and Ramdas Pophale) SiO2 
 PCOD9469163
Probable space group: C M C M
;
_chemical_formula_sum "Si O2"
_cell_formula_units_Z 64
_cell_length_a 8.690620
_cell_length_b 21.421198
_cell_length_c 18.345365
_cell_angle_alpha 90.000000
_cell_angle_beta 90.000000
_cell_angle_gamma 90.000000
_cell_volume 3415.237206
_symmetry_space_group_name_H-M "C M C M"
_symmetry_group_IT_number 63
_symmetry_cell_setting 'orthorhombic'
loop_
_space_group_symop_operation_xyz
x,y,z
-x,-y,1/2+z
x,-y,-z
-x,y,1/2-z
-x,-y,-z
x,y,1/2-z
-x,y,z
x,-y,1/2+z
1/2+x,1/2+y,z
1/2-x,1/2-y,1/2+z
1/2+x,1/2-y,-z
1/2-x,1/2+y,1/2-z
1/2-x,1/2-y,-z
1/2+x,1/2+y,1/2-z
1/2-x,1/2+y,z
1/2+x,1/2-y,1/2+z
loop_
_atom_site_type_symbol
_atom_site_label
_atom_site_fract_x
_atom_site_fract_y
_atom_site_fract_z
Si Si1 0.684724 0.382698 0.573887
Si Si2 0.183376 0.005691 0.664828
Si Si3 0.816287 0.253870 0.582503
Si Si4 0.317512 0.125465 0.910738
O O1 0.500000 0.377372 0.570305
O O2 0.725831 0.444884 0.617915
O O3 0.752410 0.319903 0.610226
O O4 0.749803 0.386459 0.491796
O O5 0.210308 0.994234 0.750000
O O6 0.271808 0.066621 0.637764
O O7 0.000000 0.016292 0.654126
O O8 0.750000 0.250000 0.500000
O O9 0.755313 0.190246 0.618171
O O10 0.000000 0.254315 0.580790
O O11 0.500000 0.132862 0.916128
#
# Coordination Sequence:
#
# PCOD9469163 Si02
#       4
#    16  16  16  16
#     4  10  19  34  57  82 108 139 176 220 269 320
#     4  10  22  39  56  76 106 143 180 219 265 316
#     4  10  18  31  53  80 109 138 173 220 268 315
#     4  11  21  34  55  82 110 140 177 220 264 315
#
# _framework density 18.739547999999999
#
# number of rings (size 3 to 8) (size 9 to 14) (size 15 to 20)
#    0.000    1.750    0.000    9.000    0.000    5.500 
#    0.000    1.250    0.000    4.500    0.000    0.000 
#    0.000    0.000    0.000    0.000    0.000    0.000 
#
# Total GULP energy -178692.654664 kJ/mol
# GULP energy per Si atom -5584.145458 kJ/mol
# Density = 1.869690 g / cm^3
# Si number density = 18.739548 Si / 1000 Ang^3
#
#
#
# Elastic Constant Matrix: (Units=GPa)
#
#
# Indices 1 2 3 4 5 6 
#
# 1 86.7830 17.4368 -0.9087 0.0000 0.0000 0.0000
# 2 17.4368 67.6540 -15.6027 0.0000 0.0000 0.0000
# 3 -0.9087 -15.6027 9.2759 0.0000 0.0000 0.0000
# 4 0.0000 0.0000 0.0000 -5.3521 0.0000 0.0000
# 5 0.0000 0.0000 0.0000 0.0000 12.2327 0.0000
# 6 0.0000 0.0000 0.0000 0.0000 0.0000 37.9726
#
#
#
# Elastic Compliance Matrix: (Units=1/GPa)
#
#
# Indices 1 2 3 4 5 6 
#
# 1 0.012410 -0.004768 -0.006804 0.000000 0.000000 0.000000
# 2 -0.004768 0.025981 0.043235 0.000000 0.000000 0.000000
# 3 -0.006804 0.043235 0.179864 0.000000 0.000000 0.000000
# 4 0.000000 0.000000 0.000000 -0.186841 0.000000 0.000000
# 5 0.000000 0.000000 0.000000 0.000000 0.081748 0.000000
# 6 0.000000 0.000000 0.000000 0.000000 0.000000 0.026335
#
#
# Mechanical properties :
#
#
# Convention : Reuss Voigt Hill
#
# Bulk Modulus (GPa) = 3.55136 18.39597 10.97367
# Shear Modulus (GPa) = 29.40655 19.82313 24.61484
#
# Velocity S-wave (km/s) = 3.96564 3.25595 3.62819
# Velocity P-wave (km/s) = 4.78201 4.89621 4.83945
#
# Compressibility (1/GPa) = 0.28158234
#
# Stress axis : x y z
#
# Youngs Moduli (GPa) = 80.58238 38.48980 5.55974
#
# Poissons Ratio (x) = 0.18350 0.03783
# Poissons Ratio (y) = 0.38418 -0.24037
# Poissons Ratio (z) = 0.54826 -1.66410
#
# Static dielectric constant tensor:
#      x y z
#    x 1.629340 0.000000 0.000000 
#    y 0.000000 1.687090 0.000000 
#    z 0.000000 0.000000 1.623670 
# 
# From -- ./inp_files/39799.got.cif
#   From: 2010.05.17/outbox.cif.g08.bks.cpg/sg63_20_cif.got.tgz:39799.got - 2010.06.03 15:47:04.
