data_PCOD9469386
_publ_section_title
;
Structure prediction by ZEFSAII (Michael W. Deem and Ramdas Pophale) SiO2 
 PCOD9469386
Probable space group: C M C M
;
_chemical_formula_sum "Si O2"
_cell_formula_units_Z 88
_cell_length_a 21.045628
_cell_length_b 12.495924
_cell_length_c 13.813406
_cell_angle_alpha 90.000000
_cell_angle_beta 90.000000
_cell_angle_gamma 90.000000
_cell_volume 3632.712610
_symmetry_space_group_name_H-M "C M C M"
_symmetry_group_IT_number 63
_symmetry_cell_setting 'orthorhombic'
loop_
_space_group_symop_operation_xyz
x,y,z
-x,-y,1/2+z
x,-y,-z
-x,y,1/2-z
-x,-y,-z
x,y,1/2-z
-x,y,z
x,-y,1/2+z
1/2+x,1/2+y,z
1/2-x,1/2-y,1/2+z
1/2+x,1/2-y,-z
1/2-x,1/2+y,1/2-z
1/2-x,1/2-y,-z
1/2+x,1/2+y,1/2-z
1/2-x,1/2+y,z
1/2+x,1/2-y,1/2+z
loop_
_atom_site_type_symbol
_atom_site_label
_atom_site_fract_x
_atom_site_fract_y
_atom_site_fract_z
Si Si1 0.000000 0.230959 0.857100
Si Si2 0.000000 0.623368 0.865020
Si Si3 0.637634 0.128082 0.633024
Si Si4 0.638972 0.368268 0.946669
Si Si5 0.233168 0.550201 0.133881
Si Si6 0.859854 0.747862 0.360549
Si Si7 0.000000 0.131511 0.436424
O O1 0.066687 0.293296 0.863880
O O2 0.000000 0.179515 0.750000
O O3 0.000000 0.152709 0.948119
O O4 0.068578 0.585969 0.901949
O O5 0.000000 0.604809 0.750000
O O6 0.000000 0.751286 0.886227
O O7 0.636898 0.125759 0.750000
O O8 0.644135 0.249951 0.600387
O O9 0.695437 0.054623 0.600500
O O10 0.698292 0.433608 0.910387
O O11 0.569838 0.414798 0.916414
O O12 0.643068 0.341019 0.060596
O O13 0.239674 0.543955 0.250000
O O14 0.188763 0.653700 0.115150
O O15 0.847368 0.783033 0.250000
#
# Coordination Sequence:
#
# PCOD9469386 Si02
#       7
#     8   8  16  16  16  16   8
#     4   8  14  27  46  68  99 136 171 213 265 316
#     4   8  14  27  46  70 105 141 171 211 262 314
#     4   9  18  31  49  76 108 141 178 220 265 317
#     4  10  18  33  54  75 106 142 177 220 269 318
#     4  10  20  32  48  74 105 139 180 220 265 321
#     4   9  18  31  48  73 104 138 178 221 265 319
#     4   8  16  28  48  77 100 131 178 218 259 318
#
# _framework density 24.224322000000001
#
# number of rings (size 3 to 8) (size 9 to 14) (size 15 to 20)
#    0.000    2.909    0.000    1.091    0.000    2.182 
#    0.000    3.636    0.000    7.636    0.000    2.545 
#    0.000   11.636    0.000    1.636    0.000    0.364 
#
# Total GULP energy -245997.131320 kJ/mol
# GULP energy per Si atom -5590.843894 kJ/mol
# Density = 2.416919 g / cm^3
# Si number density = 24.224322 Si / 1000 Ang^3
#
#
#
# Elastic Constant Matrix: (Units=GPa)
#
#
# Indices 1 2 3 4 5 6 
#
# 1 248.1937 80.0934 35.8923 0.0000 0.0000 0.0000
# 2 80.0934 69.5454 11.2750 0.0000 0.0000 0.0000
# 3 35.8923 11.2750 62.2739 0.0000 0.0000 0.0000
# 4 0.0000 0.0000 0.0000 11.4613 0.0000 0.0000
# 5 0.0000 0.0000 0.0000 0.0000 27.1212 0.0000
# 6 0.0000 0.0000 0.0000 0.0000 0.0000 29.5890
#
#
#
# Elastic Compliance Matrix: (Units=1/GPa)
#
#
# Indices 1 2 3 4 5 6 
#
# 1 0.006790 -0.007403 -0.002573 0.000000 0.000000 0.000000
# 2 -0.007403 0.022885 0.000123 0.000000 0.000000 0.000000
# 3 -0.002573 0.000123 0.017519 0.000000 0.000000 0.000000
# 4 0.000000 0.000000 0.000000 0.087250 0.000000 0.000000
# 5 0.000000 0.000000 0.000000 0.000000 0.036872 0.000000
# 6 0.000000 0.000000 0.000000 0.000000 0.000000 0.033796
#
#
# Mechanical properties :
#
#
# Convention : Reuss Voigt Hill
#
# Bulk Modulus (GPa) = 36.37921 70.50384 53.44152
# Shear Modulus (GPa) = 21.36932 30.48446 25.92689
#
# Velocity S-wave (km/s) = 2.97331 3.55128 3.27507
# Velocity P-wave (km/s) = 5.18051 6.78109 6.03410
#
# Compressibility (1/GPa) = 0.02748823
#
# Stress axis : x y z
#
# Youngs Moduli (GPa) = 147.27126 43.69714 57.08115
#
# Poissons Ratio (x) = 0.32348 0.14689
# Poissons Ratio (y) = 1.09023 -0.00704
# Poissons Ratio (z) = 0.37897 -0.00539
#
# Static dielectric constant tensor:
#      x y z
#    x 1.947480 0.000000 0.000000 
#    y 0.000000 1.893040 0.000000 
#    z 0.000000 0.000000 1.947190 
# 
# From -- ./inp_files/35242.got.cif
#   From: 2010.05.17/outbox.cif.g08.bks.cpg/sg63_18_cif.got.tgz:35242.got - 2010.06.03 15:47:04.
