data_PCOD9469706
_publ_section_title
;
Structure prediction by ZEFSAII (Michael W. Deem and Ramdas Pophale) SiO2 
 PCOD9469706
Probable space group: C M C M
;
_chemical_formula_sum "Si O2"
_cell_formula_units_Z 96
_cell_length_a 22.237911
_cell_length_b 9.371841
_cell_length_c 25.827146
_cell_angle_alpha 90.000000
_cell_angle_beta 90.000000
_cell_angle_gamma 90.000000
_cell_volume 5382.639787
_symmetry_space_group_name_H-M "C M C M"
_symmetry_group_IT_number 63
_symmetry_cell_setting 'orthorhombic'
loop_
_space_group_symop_operation_xyz
x,y,z
-x,-y,1/2+z
x,-y,-z
-x,y,1/2-z
-x,-y,-z
x,y,1/2-z
-x,y,z
x,-y,1/2+z
1/2+x,1/2+y,z
1/2-x,1/2-y,1/2+z
1/2+x,1/2-y,-z
1/2-x,1/2+y,1/2-z
1/2-x,1/2-y,-z
1/2+x,1/2+y,1/2-z
1/2-x,1/2+y,z
1/2+x,1/2-y,1/2+z
loop_
_atom_site_type_symbol
_atom_site_label
_atom_site_fract_x
_atom_site_fract_y
_atom_site_fract_z
Si Si1 0.629963 0.289829 0.074246
Si Si2 0.118130 0.186618 0.457456
Si Si3 0.358846 0.971502 0.399283
Si Si4 0.265975 0.516092 0.942185
Si Si5 0.071987 0.308946 0.189541
Si Si6 0.067383 0.027569 0.134075
O O1 0.617307 0.126745 0.086089
O O2 0.699832 0.333063 0.065507
O O3 0.606180 0.389541 0.120328
O O4 0.603609 0.329432 0.017751
O O5 0.127217 0.350570 0.442076
O O6 0.069796 0.118438 0.419251
O O7 0.179999 0.100678 0.443059
O O8 0.286617 0.992212 0.400592
O O9 0.388636 0.910439 0.347192
O O10 0.239099 0.500000 0.000000
O O11 0.080861 0.337336 0.250000
O O12 0.088672 0.144420 0.175709
O O13 0.000000 0.322741 0.178066
O O14 0.000000 0.983958 0.147072
#
# Coordination Sequence:
#
# PCOD9469706 Si02
#       6
#    16  16  16  16  16  16
#     4  10  19  29  47  78 110 136 167 204 240 287
#     4   9  18  30  46  73 109 147 172 191 235 298
#     4  11  19  29  51  77 102 130 167 209 250 293
#     4   9  17  30  48  72 106 147 179 197 225 282
#     4   9  20  40  59  71  89 123 167 212 263 319
#     4   9  18  33  52  71  94 131 174 209 244 291
#
# _framework density 17.835115999999999
#
# number of rings (size 3 to 8) (size 9 to 14) (size 15 to 20)
#    0.000    2.500    0.000    4.000    0.000    4.667 
#    0.000    0.833    0.000   25.500    0.000    0.000 
#    0.000    0.000    0.000    0.000    0.000    0.000 
#
# Total GULP energy -267312.029778 kJ/mol
# GULP energy per Si atom -5569.000620 kJ/mol
# Density = 1.779452 g / cm^3
# Si number density = 17.835116 Si / 1000 Ang^3
#
#
#
# Elastic Constant Matrix: (Units=GPa)
#
#
# Indices 1 2 3 4 5 6 
#
# 1 42.2740 16.9965 31.9580 0.0000 0.0000 0.0000
# 2 16.9965 111.0601 24.9588 0.0000 0.0000 0.0000
# 3 31.9580 24.9588 81.9735 0.0000 0.0000 0.0000
# 4 0.0000 0.0000 0.0000 17.2569 0.0000 0.0000
# 5 0.0000 0.0000 0.0000 0.0000 20.2434 0.0000
# 6 0.0000 0.0000 0.0000 0.0000 0.0000 13.8465
#
#
#
# Elastic Compliance Matrix: (Units=1/GPa)
#
#
# Indices 1 2 3 4 5 6 
#
# 1 0.034124 -0.002397 -0.012574 0.000000 0.000000 0.000000
# 2 -0.002397 0.009834 -0.002060 0.000000 0.000000 0.000000
# 3 -0.012574 -0.002060 0.017728 0.000000 0.000000 0.000000
# 4 0.000000 0.000000 0.000000 0.057948 0.000000 0.000000
# 5 0.000000 0.000000 0.000000 0.000000 0.049399 0.000000
# 6 0.000000 0.000000 0.000000 0.000000 0.000000 0.072221
#
#
# Mechanical properties :
#
#
# Convention : Reuss Voigt Hill
#
# Bulk Modulus (GPa) = 36.19810 42.57047 39.38428
# Shear Modulus (GPa) = 17.57329 21.02897 19.30113
#
# Velocity S-wave (km/s) = 3.14239 3.43749 3.29325
# Velocity P-wave (km/s) = 5.78845 6.29888 6.04905
#
# Compressibility (1/GPa) = 0.02762576
#
# Stress axis : x y z
#
# Youngs Moduli (GPa) = 29.30463 101.68998 56.40716
#
# Poissons Ratio (x) = 0.24371 0.70926
# Poissons Ratio (y) = 0.07023 0.11619
# Poissons Ratio (z) = 0.36847 0.20946
#
# Static dielectric constant tensor:
#      x y z
#    x 1.644770 0.000000 0.000000 
#    y 0.000000 1.658480 0.000000 
#    z 0.000000 0.000000 1.591810 
# 
# From -- ./inp_files/70630.got.cif
#   From: 2010.05.17/outbox.cif.g08.bks.cpg/sg63_36_cif.got.tgz:70630.got - 2010.06.03 15:47:04.
