data_PCOD9469545
_publ_section_title
;
Structure prediction by ZEFSAII (Michael W. Deem and Ramdas Pophale) SiO2 
 PCOD9469545
Probable space group: C M C M
;
_chemical_formula_sum "Si O2"
_cell_formula_units_Z 96
_cell_length_a 10.733982
_cell_length_b 19.969294
_cell_length_c 26.462905
_cell_angle_alpha 90.000000
_cell_angle_beta 90.000000
_cell_angle_gamma 90.000000
_cell_volume 5672.324807
_symmetry_space_group_name_H-M "C M C M"
_symmetry_group_IT_number 63
_symmetry_cell_setting 'orthorhombic'
loop_
_space_group_symop_operation_xyz
x,y,z
-x,-y,1/2+z
x,-y,-z
-x,y,1/2-z
-x,-y,-z
x,y,1/2-z
-x,y,z
x,-y,1/2+z
1/2+x,1/2+y,z
1/2-x,1/2-y,1/2+z
1/2+x,1/2-y,-z
1/2-x,1/2+y,1/2-z
1/2-x,1/2-y,-z
1/2+x,1/2+y,1/2-z
1/2-x,1/2+y,z
1/2+x,1/2-y,1/2+z
loop_
_atom_site_type_symbol
_atom_site_label
_atom_site_fract_x
_atom_site_fract_y
_atom_site_fract_z
Si Si1 0.254376 0.913952 0.639428
Si Si2 0.000000 0.585164 0.892426
Si Si3 0.759470 0.291344 0.930754
Si Si4 0.000000 0.473919 0.809775
Si Si5 0.246677 0.529086 0.556766
Si Si6 0.500000 0.242944 0.885427
Si Si7 0.500000 0.362638 0.689687
Si Si8 0.862426 0.838513 0.028416
O O1 0.295033 0.846651 0.609974
O O2 0.372304 0.937305 0.672583
O O3 0.126528 0.898170 0.669335
O O4 0.226006 0.970183 0.596715
O O5 0.118193 0.562308 0.925074
O O6 0.000000 0.543172 0.840757
O O7 0.000000 0.663360 0.880222
O O8 0.624277 0.263257 0.915275
O O9 0.847070 0.227200 0.937083
O O10 0.740222 0.327962 0.984627
O O11 0.000000 0.482288 0.750000
O O12 0.240329 0.500000 0.500000
O O13 0.341144 0.591386 0.555989
O O14 0.500000 0.288205 0.834920
O O15 0.500000 0.361044 0.750000
O O16 0.000000 0.839625 0.005564
#
# Coordination Sequence:
#
# PCOD9469545 Si02
#       8
#    16   8  16   8  16   8   8  16
#     4  10  22  37  60  84 110 148 185 231 283 333
#     4  10  21  37  54  82 110 147 181 227 278 339
#     4  10  20  36  50  80 111 147 183 222 262 329
#     4  10  22  40  61  83 107 138 189 245 290 331
#     4  11  21  35  53  81 117 152 184 219 266 331
#     4  10  18  36  57  74 108 136 183 229 279 326
#     4  10  22  39  61  84 106 138 188 244 296 336
#     4  11  22  32  52  77 115 154 186 215 265 316
#
# _framework density 16.924278000000001
#
# number of rings (size 3 to 8) (size 9 to 14) (size 15 to 20)
#    0.000    1.667    4.167    0.750    2.333    0.667 
#    0.000    0.000    0.000    0.000    0.000    1.167 
#    0.000    0.000    0.000    0.000    0.000    0.000 
#
# Total GULP energy -267675.642886 kJ/mol
# GULP energy per Si atom -5576.575893 kJ/mol
# Density = 1.688576 g / cm^3
# Si number density = 16.924278 Si / 1000 Ang^3
#
#
#
# Elastic Constant Matrix: (Units=GPa)
#
#
# Indices 1 2 3 4 5 6 
#
# 1 46.5907 21.5256 13.9840 0.0000 0.0000 0.0000
# 2 21.5256 106.8805 26.6289 0.0000 0.0000 0.0000
# 3 13.9840 26.6289 74.8050 0.0000 0.0000 0.0000
# 4 0.0000 0.0000 0.0000 8.3924 0.0000 0.0000
# 5 0.0000 0.0000 0.0000 0.0000 17.1416 0.0000
# 6 0.0000 0.0000 0.0000 0.0000 0.0000 22.9987
#
#
#
# Elastic Compliance Matrix: (Units=1/GPa)
#
#
# Indices 1 2 3 4 5 6 
#
# 1 0.024292 -0.004127 -0.003072 0.000000 0.000000 0.000000
# 2 -0.004127 0.010968 -0.003133 0.000000 0.000000 0.000000
# 3 -0.003072 -0.003133 0.015058 0.000000 0.000000 0.000000
# 4 0.000000 0.000000 0.000000 0.119155 0.000000 0.000000
# 5 0.000000 0.000000 0.000000 0.000000 0.058338 0.000000
# 6 0.000000 0.000000 0.000000 0.000000 0.000000 0.043481
#
#
# Mechanical properties :
#
#
# Convention : Reuss Voigt Hill
#
# Bulk Modulus (GPa) = 33.72224 39.17256 36.44740
# Shear Modulus (GPa) = 16.56507 20.78239 18.67373
#
# Velocity S-wave (km/s) = 3.13193 3.50803 3.32530
# Velocity P-wave (km/s) = 5.74868 6.29320 6.02709
#
# Compressibility (1/GPa) = 0.02965402
#
# Stress axis : x y z
#
# Youngs Moduli (GPa) = 41.16521 91.17463 66.41165
#
# Poissons Ratio (x) = 0.37628 0.20402
# Poissons Ratio (y) = 0.16989 0.20806
# Poissons Ratio (z) = 0.12646 0.28564
#
# Static dielectric constant tensor:
#      x y z
#    x 1.567600 0.000000 0.000000 
#    y 0.000000 1.573500 0.000000 
#    z 0.000000 0.000000 1.547900 
# 
# From -- ./inp_files/68392.got.cif
#   From: 2010.05.17/outbox.cif.g08.bks.cpg/sg63_35_cif.got.tgz:68392.got - 2010.06.03 15:47:04.
