data_PCOD9469622
_publ_section_title
;
Structure prediction by ZEFSAII (Michael W. Deem and Ramdas Pophale) SiO2 
 PCOD9469622
Probable space group: C M C M
;
_chemical_formula_sum "Si O2"
_cell_formula_units_Z 80
_cell_length_a 7.458314
_cell_length_b 26.435704
_cell_length_c 21.407372
_cell_angle_alpha 90.000000
_cell_angle_beta 90.000000
_cell_angle_gamma 90.000000
_cell_volume 4220.801225
_symmetry_space_group_name_H-M "C M C M"
_symmetry_group_IT_number 63
_symmetry_cell_setting 'orthorhombic'
loop_
_space_group_symop_operation_xyz
x,y,z
-x,-y,1/2+z
x,-y,-z
-x,y,1/2-z
-x,-y,-z
x,y,1/2-z
-x,y,z
x,-y,1/2+z
1/2+x,1/2+y,z
1/2-x,1/2-y,1/2+z
1/2+x,1/2-y,-z
1/2-x,1/2+y,1/2-z
1/2-x,1/2-y,-z
1/2+x,1/2+y,1/2-z
1/2-x,1/2+y,z
1/2+x,1/2-y,1/2+z
loop_
_atom_site_type_symbol
_atom_site_label
_atom_site_fract_x
_atom_site_fract_y
_atom_site_fract_z
Si Si1 0.284158 0.374258 0.179252
Si Si2 0.294691 0.679765 0.060437
Si Si3 0.712646 0.209702 0.577825
Si Si4 0.219209 0.069986 0.052260
Si Si5 0.718346 0.538749 0.587833
O O1 0.217370 0.370873 0.250000
O O2 0.500000 0.377680 0.181716
O O3 0.241742 0.325655 0.137008
O O4 0.219387 0.423888 0.141983
O O5 0.500000 0.678352 0.082738
O O6 0.216777 0.732852 0.084544
O O7 0.215102 0.624737 0.074395
O O8 0.293779 0.685544 0.984933
O O9 0.500000 0.213143 0.565587
O O10 0.000000 0.071508 0.052538
O O11 0.273991 0.019916 0.089933
O O12 0.271738 0.060357 0.980086
O O13 0.500000 0.538979 0.588386
#
# Coordination Sequence:
#
# PCOD9469622 Si02
#       5
#    16  16  16  16  16
#     4  10  19  31  47  64  86 117 151 185 216 258
#     4   9  16  28  46  66  90 118 146 179 221 268
#     4  10  19  28  42  66  93 120 147 179 220 261
#     4   8  12  21  42  66  87 109 134 177 223 258
#     4   8  13  22  40  66  87 107 140 177 218 258
#
# _framework density 18.953747
#
# number of rings (size 3 to 8) (size 9 to 14) (size 15 to 20)
#    0.000    3.000    2.000    1.800    0.000    1.200 
#    0.000    0.000    0.000    3.600    0.000    5.600 
#    0.000    0.000    0.000    0.000    0.000    0.000 
#
# Total GULP energy -222923.679601 kJ/mol
# GULP energy per Si atom -5573.091990 kJ/mol
# Density = 1.891061 g / cm^3
# Si number density = 18.953747 Si / 1000 Ang^3
#
#
#
# Elastic Constant Matrix: (Units=GPa)
#
#
# Indices 1 2 3 4 5 6 
#
# 1 60.3521 -1.5827 -3.8818 0.0000 0.0000 0.0000
# 2 -1.5827 214.5902 70.2390 0.0000 0.0000 0.0000
# 3 -3.8818 70.2390 92.5803 0.0000 0.0000 0.0000
# 4 0.0000 0.0000 0.0000 19.7953 0.0000 0.0000
# 5 0.0000 0.0000 0.0000 0.0000 6.7852 0.0000
# 6 0.0000 0.0000 0.0000 0.0000 0.0000 9.1406
#
#
#
# Elastic Compliance Matrix: (Units=1/GPa)
#
#
# Indices 1 2 3 4 5 6 
#
# 1 0.016617 -0.000140 0.000803 0.000000 0.000000 0.000000
# 2 -0.000140 0.006201 -0.004710 0.000000 0.000000 0.000000
# 3 0.000803 -0.004710 0.014409 0.000000 0.000000 0.000000
# 4 0.000000 0.000000 0.000000 0.050517 0.000000 0.000000
# 5 0.000000 0.000000 0.000000 0.000000 0.147379 0.000000
# 6 0.000000 0.000000 0.000000 0.000000 0.000000 0.109402
#
#
# Mechanical properties :
#
#
# Convention : Reuss Voigt Hill
#
# Bulk Modulus (GPa) = 34.32641 55.23018 44.77829
# Shear Modulus (GPa) = 13.79956 27.32743 20.56350
#
# Velocity S-wave (km/s) = 2.70120 3.80122 3.29740
# Velocity P-wave (km/s) = 5.28001 6.96192 6.17847
#
# Compressibility (1/GPa) = 0.02913209
#
# Stress axis : x y z
#
# Youngs Moduli (GPa) = 60.17786 161.27022 69.40231
#
# Poissons Ratio (x) = 0.02263 -0.05575
# Poissons Ratio (y) = 0.00845 0.32691
# Poissons Ratio (z) = -0.04834 0.75963
#
# Static dielectric constant tensor:
#      x y z
#    x 1.764650 0.000000 0.000000 
#    y 0.000000 1.710400 0.000000 
#    z 0.000000 0.000000 1.601620 
# 
# From -- ./inp_files/40714.got.cif
#   From: 2010.05.17/outbox.cif.g08.bks.cpg/sg63_21_cif.got.tgz:40714.got - 2010.06.03 15:47:04.
