data_PCOD9469576
_publ_section_title
;
Structure prediction by ZEFSAII (Michael W. Deem and Ramdas Pophale) SiO2 
 PCOD9469576
Probable space group: C M C M
;
_chemical_formula_sum "Si O2"
_cell_formula_units_Z 60
_cell_length_a 12.242165
_cell_length_b 26.381215
_cell_length_c 10.323259
_cell_angle_alpha 90.000000
_cell_angle_beta 90.000000
_cell_angle_gamma 90.000000
_cell_volume 3334.032626
_symmetry_space_group_name_H-M "C M C M"
_symmetry_group_IT_number 63
_symmetry_cell_setting 'orthorhombic'
loop_
_space_group_symop_operation_xyz
x,y,z
-x,-y,1/2+z
x,-y,-z
-x,y,1/2-z
-x,-y,-z
x,y,1/2-z
-x,y,z
x,-y,1/2+z
1/2+x,1/2+y,z
1/2-x,1/2-y,1/2+z
1/2+x,1/2-y,-z
1/2-x,1/2+y,1/2-z
1/2-x,1/2-y,-z
1/2+x,1/2+y,1/2-z
1/2-x,1/2+y,z
1/2+x,1/2-y,1/2+z
loop_
_atom_site_type_symbol
_atom_site_label
_atom_site_fract_x
_atom_site_fract_y
_atom_site_fract_z
Si Si1 0.628455 0.456005 0.102287
Si Si2 0.774899 0.849770 0.464490
Si Si3 0.755188 0.316740 0.750000
Si Si4 0.132247 0.708009 0.750000
Si Si5 0.000000 0.720692 0.250000
Si Si6 0.000000 0.794228 0.090205
O O1 0.639648 0.474259 0.250000
O O2 0.500000 0.440859 0.085300
O O3 0.703028 0.406860 0.082153
O O4 0.651904 0.500000 0.000000
O O5 0.758626 0.847584 0.617838
O O6 0.687404 0.820664 0.374226
O O7 0.890388 0.820870 0.446493
O O8 0.677656 0.266314 0.750000
O O9 0.879163 0.299649 0.750000
O O10 0.000000 0.707117 0.750000
O O11 0.000000 0.734668 0.417477
O O12 0.000000 0.789412 0.250000
#
# Coordination Sequence:
#
# PCOD9469576 Si02
#       6
#    16  16   8   8   4   8
#     4  10  21  38  65  93 122 154 197 255 316 369
#     4  12  23  41  61  93 126 167 201 252 315 367
#     4  12  28  36  61  91 131 165 206 261 294 363
#     4  12  26  40  63  91 122 168 219 252 296 361
#     4  10  22  42  60  84 122 172 210 248 310 356
#     4  10  18  37  64  79 122 164 202 236 313 368
#
# _framework density 17.996224999999999
#
# number of rings (size 3 to 8) (size 9 to 14) (size 15 to 20)
#    0.400    0.533    6.667    0.800    5.600    0.000 
#    0.000    0.000    0.000    0.800    3.467    0.000 
#    0.000    0.000    0.000    0.000    0.000    0.000 
#
# Total GULP energy -167026.419451 kJ/mol
# GULP energy per Si atom -5567.547315 kJ/mol
# Density = 1.795526 g / cm^3
# Si number density = 17.996225 Si / 1000 Ang^3
#
#
#
# Elastic Constant Matrix: (Units=GPa)
#
#
# Indices 1 2 3 4 5 6 
#
# 1 122.0725 17.5954 35.2681 0.0000 0.0000 0.0000
# 2 17.5954 54.0066 37.6420 0.0000 0.0000 0.0000
# 3 35.2681 37.6420 142.2981 0.0000 0.0000 0.0000
# 4 0.0000 0.0000 0.0000 21.1953 0.0000 0.0000
# 5 0.0000 0.0000 0.0000 0.0000 62.2420 0.0000
# 6 0.0000 0.0000 0.0000 0.0000 0.0000 32.9858
#
#
#
# Elastic Compliance Matrix: (Units=1/GPa)
#
#
# Indices 1 2 3 4 5 6 
#
# 1 0.008946 -0.001679 -0.001773 0.000000 0.000000 0.000000
# 2 -0.001679 0.023017 -0.005673 0.000000 0.000000 0.000000
# 3 -0.001773 -0.005673 0.008968 0.000000 0.000000 0.000000
# 4 0.000000 0.000000 0.000000 0.047180 0.000000 0.000000
# 5 0.000000 0.000000 0.000000 0.000000 0.016066 0.000000
# 6 0.000000 0.000000 0.000000 0.000000 0.000000 0.030316
#
#
# Mechanical properties :
#
#
# Convention : Reuss Voigt Hill
#
# Bulk Modulus (GPa) = 44.08871 55.48758 49.78815
# Shear Modulus (GPa) = 31.19095 38.47605 34.83350
#
# Velocity S-wave (km/s) = 4.16768 4.62887 4.40432
# Velocity P-wave (km/s) = 6.90735 7.71158 7.32052
#
# Compressibility (1/GPa) = 0.02268154
#
# Stress axis : x y z
#
# Youngs Moduli (GPa) = 111.78028 43.44625 111.51329
#
# Poissons Ratio (x) = 0.07294 0.19773
# Poissons Ratio (y) = 0.18765 0.63257
# Poissons Ratio (z) = 0.19821 0.24645
#
# Static dielectric constant tensor:
#      x y z
#    x 1.560520 0.000000 0.000000 
#    y 0.000000 1.615580 0.000000 
#    z 0.000000 0.000000 1.241210 
# 
# From -- ./inp_files/17423.got.cif
#   From: 2010.05.17/outbox.cif.g08.bks.cpg/sg63_9_cif.got.tgz:17423.got - 2010.06.03 15:47:04.
