data_PCOD9469783
_publ_section_title
;
Structure prediction by ZEFSAII (Michael W. Deem and Ramdas Pophale) SiO2 
 PCOD9469783
Probable space group: C M C M
;
_chemical_formula_sum "Si O2"
_cell_formula_units_Z 96
_cell_length_a 26.160405
_cell_length_b 25.900141
_cell_length_c 8.876260
_cell_angle_alpha 90.000000
_cell_angle_beta 90.000000
_cell_angle_gamma 90.000000
_cell_volume 6014.182554
_symmetry_space_group_name_H-M "C M C M"
_symmetry_group_IT_number 63
_symmetry_cell_setting 'orthorhombic'
loop_
_space_group_symop_operation_xyz
x,y,z
-x,-y,1/2+z
x,-y,-z
-x,y,1/2-z
-x,-y,-z
x,y,1/2-z
-x,y,z
x,-y,1/2+z
1/2+x,1/2+y,z
1/2-x,1/2-y,1/2+z
1/2+x,1/2-y,-z
1/2-x,1/2+y,1/2-z
1/2-x,1/2-y,-z
1/2+x,1/2+y,1/2-z
1/2-x,1/2+y,z
1/2+x,1/2-y,1/2+z
loop_
_atom_site_type_symbol
_atom_site_label
_atom_site_fract_x
_atom_site_fract_y
_atom_site_fract_z
Si Si1 0.437933 0.251288 0.076722
Si Si2 0.643253 0.442693 0.931072
Si Si3 0.252830 0.442496 0.430582
Si Si4 0.559303 0.856555 0.431693
Si Si5 0.440979 0.640926 0.068794
Si Si6 0.860878 0.442942 0.431187
O O1 0.421818 0.250678 0.250000
O O2 0.500000 0.251367 0.071660
O O3 0.422511 0.198539 0.994805
O O4 0.422491 0.304596 0.998044
O O5 0.646240 0.446705 0.750000
O O6 0.596216 0.405824 0.973362
O O7 0.636934 0.500000 0.000000
O O8 0.696432 0.419426 0.994811
O O9 0.251206 0.500000 0.500000
O O10 0.259020 0.444622 0.250000
O O11 0.196213 0.421450 0.465202
O O12 0.560566 0.854387 0.250000
O O13 0.500000 0.864709 0.477089
O O14 0.595626 0.903214 0.481794
O O15 0.440773 0.644961 0.250000
O O16 0.500000 0.632062 0.021056
O O17 0.866646 0.500000 0.500000
O O18 0.863874 0.448084 0.250000
#
# Coordination Sequence:
#
# PCOD9469783 Si02
#       6
#    16  16  16  16  16  16
#     4   9  17  29  46  68  90 114 149 188 221 257
#     4  10  19  30  46  68  92 118 149 182 218 263
#     4   9  16  28  45  63  86 116 151 187 219 256
#     4   9  17  30  47  66  91 122 151 180 220 269
#     4   9  18  32  48  66  90 120 149 178 218 267
#     4   9  18  30  45  67  92 120 152 184 221 264
#
# _framework density 15.96227
#
# number of rings (size 3 to 8) (size 9 to 14) (size 15 to 20)
#    0.000    2.833    0.000    2.500    0.000    5.333 
#    0.000    0.000    0.000    1.000    0.000    0.000 
#    0.000    0.000    0.000    0.000    0.000    0.000 
#
# Total GULP energy -267226.478565 kJ/mol
# GULP energy per Si atom -5567.218303 kJ/mol
# Density = 1.592594 g / cm^3
# Si number density = 15.962270 Si / 1000 Ang^3
#
#
#
# Elastic Constant Matrix: (Units=GPa)
#
#
# Indices 1 2 3 4 5 6 
#
# 1 106.9970 73.0844 34.6822 0.0000 0.0000 0.0000
# 2 73.0844 107.8114 32.9383 0.0000 0.0000 0.0000
# 3 34.6822 32.9383 33.4023 0.0000 0.0000 0.0000
# 4 0.0000 0.0000 0.0000 18.6055 0.0000 0.0000
# 5 0.0000 0.0000 0.0000 0.0000 16.9093 0.0000
# 6 0.0000 0.0000 0.0000 0.0000 0.0000 -1.0635
#
#
#
# Elastic Compliance Matrix: (Units=1/GPa)
#
#
# Indices 1 2 3 4 5 6 
#
# 1 0.019641 -0.010138 -0.010396 0.000000 0.000000 0.000000
# 2 -0.010138 0.018508 -0.007724 0.000000 0.000000 0.000000
# 3 -0.010396 -0.007724 0.048349 0.000000 0.000000 0.000000
# 4 0.000000 0.000000 0.000000 0.053748 0.000000 0.000000
# 5 0.000000 0.000000 0.000000 0.000000 0.059139 0.000000
# 6 0.000000 0.000000 0.000000 0.000000 0.000000 -0.940287
#
#
# Mechanical properties :
#
#
# Convention : Reuss Voigt Hill
#
# Bulk Modulus (GPa) = 33.35420 58.84673 46.10047
# Shear Modulus (GPa) = -7.41408 14.05731 3.32161
#
# Velocity S-wave (km/s) = -2.15751 2.97081 1.44410
# Velocity P-wave (km/s) = 3.83856 6.97953 5.63242
#
# Compressibility (1/GPa) = 0.02998123
#
# Stress axis : x y z
#
# Youngs Moduli (GPa) = 50.91488 54.03112 20.68284
#
# Poissons Ratio (x) = 0.54777 0.21502
# Poissons Ratio (y) = 0.51618 0.15976
# Poissons Ratio (z) = 0.52931 0.41735
#
# Static dielectric constant tensor:
#      x y z
#    x 1.565020 0.000000 0.000000 
#    y 0.000000 1.509150 0.000000 
#    z 0.000000 0.000000 1.537410 
# 
# From -- ./inp_files/10678.got.cif
#   From: 2010.05.17/outbox.cif.g08.bks.cpg/sg63_6_cif.got.tgz:10678.got - 2010.06.03 15:47:04.
