data_PCOD9469987
_publ_section_title
;
Structure prediction by ZEFSAII (Michael W. Deem and Ramdas Pophale) SiO2 
 PCOD9469987
Probable space group: C M C M
;
_chemical_formula_sum "Si O2"
_cell_formula_units_Z 88
_cell_length_a 13.293297
_cell_length_b 12.327964
_cell_length_c 30.936743
_cell_angle_alpha 90.000000
_cell_angle_beta 90.000000
_cell_angle_gamma 90.000000
_cell_volume 5069.891381
_symmetry_space_group_name_H-M "C M C M"
_symmetry_group_IT_number 63
_symmetry_cell_setting 'orthorhombic'
loop_
_space_group_symop_operation_xyz
x,y,z
-x,-y,1/2+z
x,-y,-z
-x,y,1/2-z
-x,-y,-z
x,y,1/2-z
-x,y,z
x,-y,1/2+z
1/2+x,1/2+y,z
1/2-x,1/2-y,1/2+z
1/2+x,1/2-y,-z
1/2-x,1/2+y,1/2-z
1/2-x,1/2-y,-z
1/2+x,1/2+y,1/2-z
1/2-x,1/2+y,z
1/2+x,1/2-y,1/2+z
loop_
_atom_site_type_symbol
_atom_site_label
_atom_site_fract_x
_atom_site_fract_y
_atom_site_fract_z
Si Si1 0.699804 0.134224 0.420480
Si Si2 0.615475 0.633512 0.931431
Si Si3 0.386577 0.451896 0.699690
Si Si4 0.231868 0.000000 0.000000
Si Si5 0.385185 0.732370 0.373047
Si Si6 0.731546 0.950197 0.359081
O O1 0.629133 0.237475 0.426756
O O2 0.704778 0.061409 0.463297
O O3 0.810139 0.184496 0.409296
O O4 0.678145 0.056103 0.379601
O O5 0.500000 0.601652 0.928186
O O6 0.680596 0.579157 0.893471
O O7 0.663632 0.588339 0.975447
O O8 0.377343 0.423274 0.750000
O O9 0.500000 0.499686 0.693697
O O10 0.381565 0.348895 0.667740
O O11 0.293446 0.525654 0.684331
O O12 0.500000 0.739232 0.388217
O O13 0.342631 0.848729 0.358691
#
# Coordination Sequence:
#
# PCOD9469987 Si02
#       6
#    16  16  16   8  16  16
#     4   9  19  33  47  66  94 122 154 193 232 274
#     4  10  19  31  48  69  92 120 155 193 232 274
#     4   9  17  30  49  72  95 119 150 187 225 268
#     4  10  19  32  47  66  92 124 155 192 233 276
#     4   9  18  32  49  69  93 122 155 189 227 272
#     4   9  18  32  49  69  93 123 153 187 229 273
#
# _framework density 17.357372999999999
#
# number of rings (size 3 to 8) (size 9 to 14) (size 15 to 20)
#    0.000    2.727    0.000    1.364    0.000    6.545 
#    0.000    0.455    0.000    0.000    0.000    0.000 
#    0.000    0.000    0.000    0.000    0.000    0.000 
#
# Total GULP energy -245154.832690 kJ/mol
# GULP energy per Si atom -5571.700743 kJ/mol
# Density = 1.731787 g / cm^3
# Si number density = 17.357373 Si / 1000 Ang^3
#
#
#
# Elastic Constant Matrix: (Units=GPa)
#
#
# Indices 1 2 3 4 5 6 
#
# 1 19.1190 -9.1704 -5.4225 0.0000 0.0000 0.0000
# 2 -9.1704 57.9932 -10.2994 0.0000 0.0000 0.0000
# 3 -5.4225 -10.2994 55.0303 0.0000 0.0000 0.0000
# 4 0.0000 0.0000 0.0000 10.8025 0.0000 0.0000
# 5 0.0000 0.0000 0.0000 0.0000 10.0247 0.0000
# 6 0.0000 0.0000 0.0000 0.0000 0.0000 14.1240
#
#
#
# Elastic Compliance Matrix: (Units=1/GPa)
#
#
# Indices 1 2 3 4 5 6 
#
# 1 0.059757 0.010856 0.007920 0.000000 0.000000 0.000000
# 2 0.010856 0.019808 0.004777 0.000000 0.000000 0.000000
# 3 0.007920 0.004777 0.019846 0.000000 0.000000 0.000000
# 4 0.000000 0.000000 0.000000 0.092571 0.000000 0.000000
# 5 0.000000 0.000000 0.000000 0.000000 0.099754 0.000000
# 6 0.000000 0.000000 0.000000 0.000000 0.000000 0.070802
#
#
# Mechanical properties :
#
#
# Convention : Reuss Voigt Hill
#
# Bulk Modulus (GPa) = 6.82509 9.15089 7.98799
# Shear Modulus (GPa) = 13.72601 17.45922 15.59261
#
# Velocity S-wave (km/s) = 2.81515 3.17498 3.00046
# Velocity P-wave (km/s) = 3.80885 4.32714 4.07624
#
# Compressibility (1/GPa) = 0.14651811
#
# Stress axis : x y z
#
# Youngs Moduli (GPa) = 16.73433 50.48363 50.38729
#
# Poissons Ratio (x) = -0.54805 -0.39907
# Poissons Ratio (y) = -0.18167 -0.24070
# Poissons Ratio (z) = -0.13254 -0.24116
#
# Static dielectric constant tensor:
#      x y z
#    x 1.584370 0.000000 0.000000 
#    y 0.000000 1.610120 0.000000 
#    z 0.000000 0.000000 1.574790 
# 
# From -- ./inp_files/69246.got.cif
#   From: 2010.05.17/outbox.cif.g08.bks.cpg/sg63_35_cif.got.tgz:69246.got - 2010.06.03 15:47:04.
