data_PCOD9469931
_publ_section_title
;
Structure prediction by ZEFSAII (Michael W. Deem and Ramdas Pophale) SiO2 
 PCOD9469931
Probable space group: C M C M
;
_chemical_formula_sum "Si O2"
_cell_formula_units_Z 112
_cell_length_a 7.309866
_cell_length_b 29.217138
_cell_length_c 23.280800
_cell_angle_alpha 90.000000
_cell_angle_beta 90.000000
_cell_angle_gamma 90.000000
_cell_volume 4972.158765
_symmetry_space_group_name_H-M "C M C M"
_symmetry_group_IT_number 63
_symmetry_cell_setting 'orthorhombic'
loop_
_space_group_symop_operation_xyz
x,y,z
-x,-y,1/2+z
x,-y,-z
-x,y,1/2-z
-x,-y,-z
x,y,1/2-z
-x,y,z
x,-y,1/2+z
1/2+x,1/2+y,z
1/2-x,1/2-y,1/2+z
1/2+x,1/2-y,-z
1/2-x,1/2+y,1/2-z
1/2-x,1/2-y,-z
1/2+x,1/2+y,1/2-z
1/2-x,1/2+y,z
1/2+x,1/2-y,1/2+z
loop_
_atom_site_type_symbol
_atom_site_label
_atom_site_fract_x
_atom_site_fract_y
_atom_site_fract_z
Si Si1 0.278122 0.350609 0.186889
Si Si2 0.779431 0.923158 0.398864
Si Si3 0.221417 0.844298 0.009710
Si Si4 0.779040 0.771474 0.402220
Si Si5 0.790273 0.612137 0.389845
Si Si6 0.775876 0.692329 0.183896
Si Si7 0.209191 0.480605 0.941267
O O1 0.209356 0.342213 0.250000
O O2 0.500000 0.350353 0.188578
O O3 0.222812 0.398373 0.159425
O O4 0.230506 0.311180 0.142938
O O5 0.725238 0.887857 0.450071
O O6 0.708054 0.974162 0.403122
O O7 0.000000 0.925302 0.401190
O O8 0.287399 0.855293 0.946112
O O9 0.000000 0.843644 0.008911
O O10 0.281896 0.795877 0.038037
O O11 0.715897 0.726710 0.367435
O O12 0.000000 0.767507 0.406916
O O13 0.715855 0.642067 0.337366
O O14 0.708024 0.563975 0.411213
O O15 0.000000 0.602000 0.373970
O O16 0.721709 0.703073 0.250000
O O17 0.000000 0.693965 0.183787
O O18 0.000000 0.467174 0.956373
O O19 0.295644 0.500000 0.000000
#
# Coordination Sequence:
#
# PCOD9469931 Si02
#       7
#    16  16  16  16  16  16  16
#     4   8  13  23  41  66  95 121 145 181 230 278
#     4   9  17  28  45  70  94 117 151 190 226 271
#     4   9  17  29  46  72 101 121 143 184 234 280
#     4   8  14  25  44  70  96 121 149 184 229 279
#     4  10  20  32  47  69  94 122 158 195 231 273
#     4   9  17  30  48  68  91 122 160 197 227 263
#     4  10  19  31  46  64  91 126 157 188 232 281
#
# _framework density 22.525424999999998
#
# number of rings (size 3 to 8) (size 9 to 14) (size 15 to 20)
#    0.000    3.000    1.429    2.143    0.000    3.143 
#    0.000    0.714    0.000    1.714    0.000    0.000 
#    0.000    3.429    0.000    0.000    0.000    0.000 
#
# Total GULP energy -312197.114800 kJ/mol
# GULP energy per Si atom -5574.948479 kJ/mol
# Density = 2.247416 g / cm^3
# Si number density = 22.525425 Si / 1000 Ang^3
#
#
#
# Elastic Constant Matrix: (Units=GPa)
#
#
# Indices 1 2 3 4 5 6 
#
# 1 91.7261 -0.2835 -9.1823 0.0000 0.0000 0.0000
# 2 -0.2835 152.2705 27.6313 0.0000 0.0000 0.0000
# 3 -9.1823 27.6313 10.4973 0.0000 0.0000 0.0000
# 4 0.0000 0.0000 0.0000 23.2093 0.0000 0.0000
# 5 0.0000 0.0000 0.0000 0.0000 8.7685 0.0000
# 6 0.0000 0.0000 0.0000 0.0000 0.0000 15.6978
#
#
#
# Elastic Compliance Matrix: (Units=1/GPa)
#
#
# Indices 1 2 3 4 5 6 
#
# 1 0.013068 -0.003925 0.021762 0.000000 0.000000 0.000000
# 2 -0.003925 0.013751 -0.039629 0.000000 0.000000 0.000000
# 3 0.021762 -0.039629 0.218610 0.000000 0.000000 0.000000
# 4 0.000000 0.000000 0.000000 0.043086 0.000000 0.000000
# 5 0.000000 0.000000 0.000000 0.000000 0.114044 0.000000
# 6 0.000000 0.000000 0.000000 0.000000 0.000000 0.063703
#
#
# Mechanical properties :
#
#
# Convention : Reuss Voigt Hill
#
# Bulk Modulus (GPa) = 4.95428 32.31387 18.63407
# Shear Modulus (GPa) = 8.66359 25.29035 16.97697
#
# Velocity S-wave (km/s) = 1.96328 3.35438 2.74830
# Velocity P-wave (km/s) = 2.70989 5.42025 4.28501
#
# Compressibility (1/GPa) = 0.20184579
#
# Stress axis : x y z
#
# Youngs Moduli (GPa) = 76.52068 72.72161 4.57436
#
# Poissons Ratio (x) = 0.28540 -0.09955
# Poissons Ratio (y) = 0.30031 0.18128
# Poissons Ratio (z) = -1.66522 2.88187
#
# Static dielectric constant tensor:
#      x y z
#    x 1.873000 0.000000 0.000000 
#    y 0.000000 1.856460 0.000000 
#    z 0.000000 0.000000 1.837930 
# 
# From -- ./inp_files/61961.got.cif
#   From: 2010.05.17/outbox.cif.g08.bks.cpg/sg63_31_cif.got.tgz:61961.got - 2010.06.03 15:47:04.
