data_PCOD9469250
_publ_section_title
;
Structure prediction by ZEFSAII (Michael W. Deem and Ramdas Pophale) SiO2 
 PCOD9469250
Probable space group: C M C M
;
_chemical_formula_sum "Si O2"
_cell_formula_units_Z 104
_cell_length_a 22.320043
_cell_length_b 27.341740
_cell_length_c 8.812621
_cell_angle_alpha 90.000000
_cell_angle_beta 90.000000
_cell_angle_gamma 90.000000
_cell_volume 5378.067753
_symmetry_space_group_name_H-M "C M C M"
_symmetry_group_IT_number 63
_symmetry_cell_setting 'orthorhombic'
loop_
_space_group_symop_operation_xyz
x,y,z
-x,-y,1/2+z
x,-y,-z
-x,y,1/2-z
-x,-y,-z
x,y,1/2-z
-x,y,z
x,-y,1/2+z
1/2+x,1/2+y,z
1/2-x,1/2-y,1/2+z
1/2+x,1/2-y,-z
1/2-x,1/2+y,1/2-z
1/2-x,1/2-y,-z
1/2+x,1/2+y,1/2-z
1/2-x,1/2+y,z
1/2+x,1/2-y,1/2+z
loop_
_atom_site_type_symbol
_atom_site_label
_atom_site_fract_x
_atom_site_fract_y
_atom_site_fract_z
Si Si1 0.000000 0.055417 0.569294
Si Si2 0.929076 0.655558 0.932414
Si Si3 0.761279 0.912815 0.073811
Si Si4 0.650676 0.758973 0.579333
Si Si5 0.618033 0.553752 0.428750
Si Si6 0.370286 0.052035 0.932629
Si Si7 0.275354 0.683795 0.419663
O O1 0.060968 0.079150 0.507552
O O2 0.000000 0.052514 0.750000
O O3 0.000000 0.000000 0.500000
O O4 0.919808 0.658871 0.750000
O O5 0.905179 0.601528 0.980186
O O6 0.000000 0.659083 0.962809
O O7 0.892764 0.699615 0.010920
O O8 0.772902 0.924310 0.250000
O O9 0.699657 0.938888 0.027371
O O10 0.818071 0.925238 0.972440
O O11 0.755743 0.855199 0.046015
O O12 0.631185 0.745200 0.750000
O O13 0.665300 0.712636 0.472748
O O14 0.716952 0.782267 0.592520
O O15 0.620238 0.500000 0.500000
O O16 0.608578 0.551621 0.250000
O O17 0.374409 0.049243 0.750000
O O18 0.390493 0.000000 0.000000
O O19 0.284509 0.662814 0.250000
#
# Coordination Sequence:
#
# PCOD9469250 Si02
#       7
#     8  16  16  16  16  16  16
#     4  10  18  32  52  74 100 136 182 226 270 320
#     4  10  21  39  61  84 114 156 202 247 299 357
#     4  11  21  35  55  82 115 151 191 237 291 348
#     4  10  20  35  58  87 115 143 181 230 282 340
#     4  11  21  34  52  77 108 144 187 230 279 337
#     4  10  22  37  55  81 116 156 198 248 299 350
#     4  10  20  34  57  86 114 145 179 224 281 344
#
# _framework density 19.337800999999999
#
# number of rings (size 3 to 8) (size 9 to 14) (size 15 to 20)
#    0.000    1.692    1.538    4.846    0.000    4.923 
#    0.000    0.000    1.692    0.000    0.000    0.000 
#    0.000    0.000    0.000    0.000    0.000    0.000 
#
# Total GULP energy -289908.537851 kJ/mol
# GULP energy per Si atom -5575.164189 kJ/mol
# Density = 1.929379 g / cm^3
# Si number density = 19.337801 Si / 1000 Ang^3
#
#
#
# Elastic Constant Matrix: (Units=GPa)
#
#
# Indices 1 2 3 4 5 6 
#
# 1 77.7121 5.7243 39.2789 0.0000 0.0000 0.0000
# 2 5.7243 29.1390 3.4908 0.0000 0.0000 0.0000
# 3 39.2789 3.4908 92.2058 0.0000 0.0000 0.0000
# 4 0.0000 0.0000 0.0000 28.3328 0.0000 0.0000
# 5 0.0000 0.0000 0.0000 0.0000 34.6910 0.0000
# 6 0.0000 0.0000 0.0000 0.0000 0.0000 40.7803
#
#
#
# Elastic Compliance Matrix: (Units=1/GPa)
#
#
# Indices 1 2 3 4 5 6 
#
# 1 0.016567 -0.002420 -0.006966 0.000000 0.000000 0.000000
# 2 -0.002420 0.034828 -0.000288 0.000000 0.000000 0.000000
# 3 -0.006966 -0.000288 0.013824 0.000000 0.000000 0.000000
# 4 0.000000 0.000000 0.000000 0.035295 0.000000 0.000000
# 5 0.000000 0.000000 0.000000 0.000000 0.028826 0.000000
# 6 0.000000 0.000000 0.000000 0.000000 0.000000 0.024522
#
#
# Mechanical properties :
#
#
# Convention : Reuss Voigt Hill
#
# Bulk Modulus (GPa) = 21.79987 32.89388 27.34687
# Shear Modulus (GPa) = 26.52536 30.79835 28.66186
#
# Velocity S-wave (km/s) = 3.70764 3.99513 3.85407
# Velocity P-wave (km/s) = 5.44302 6.19100 5.82902
#
# Compressibility (1/GPa) = 0.04587183
#
# Stress axis : x y z
#
# Youngs Moduli (GPa) = 60.36065 28.71237 72.34015
#
# Poissons Ratio (x) = 0.06949 0.50391
# Poissons Ratio (y) = 0.14608 0.02081
# Poissons Ratio (z) = 0.42046 0.00826
#
# Static dielectric constant tensor:
#      x y z
#    x 1.727130 0.000000 0.000000 
#    y 0.000000 1.628090 0.000000 
#    z 0.000000 0.000000 1.690990 
# 
# From -- ./inp_files/9114.got.cif
#   From: 2010.05.17/outbox.cif.g08.bks.cpg/sg63_5_cif.got.tgz:9114.got - 2010.06.03 15:47:04.
