data_PCOD9469285
_publ_section_title
;
Structure prediction by ZEFSAII (Michael W. Deem and Ramdas Pophale) SiO2 
 PCOD9469285
Probable space group: C M C M
;
_chemical_formula_sum "Si O2"
_cell_formula_units_Z 104
_cell_length_a 29.046347
_cell_length_b 24.493583
_cell_length_c 8.667144
_cell_angle_alpha 90.000000
_cell_angle_beta 90.000000
_cell_angle_gamma 90.000000
_cell_volume 6166.231895
_symmetry_space_group_name_H-M "C M C M"
_symmetry_group_IT_number 63
_symmetry_cell_setting 'orthorhombic'
loop_
_space_group_symop_operation_xyz
x,y,z
-x,-y,1/2+z
x,-y,-z
-x,y,1/2-z
-x,-y,-z
x,y,1/2-z
-x,y,z
x,-y,1/2+z
1/2+x,1/2+y,z
1/2-x,1/2-y,1/2+z
1/2+x,1/2-y,-z
1/2-x,1/2+y,1/2-z
1/2-x,1/2-y,-z
1/2+x,1/2+y,1/2-z
1/2-x,1/2+y,z
1/2+x,1/2-y,1/2+z
loop_
_atom_site_type_symbol
_atom_site_label
_atom_site_fract_x
_atom_site_fract_y
_atom_site_fract_z
Si Si1 0.774791 0.061790 0.065631
Si Si2 0.907853 0.374166 0.936834
Si Si3 0.178841 0.561582 0.934071
Si Si4 0.129758 0.061115 0.933296
Si Si5 0.500000 0.060856 0.064075
Si Si6 0.445856 0.241743 0.065797
Si Si7 0.553773 0.359834 0.566555
O O1 0.774179 0.061040 0.250000
O O2 0.726952 0.084812 0.000902
O O3 0.822910 0.085294 0.004503
O O4 0.775187 0.000000 0.000000
O O5 0.903923 0.377317 0.750000
O O6 0.953857 0.407226 0.982850
O O7 0.916193 0.310960 0.978377
O O8 0.863725 0.401766 0.012530
O O9 0.181641 0.558122 0.750000
O O10 0.172656 0.500000 0.000000
O O11 0.134637 0.057450 0.750000
O O12 0.087068 0.098500 0.980589
O O13 0.123435 0.000000 0.000000
O O14 0.500000 0.059120 0.250000
O O15 0.500000 0.000000 0.000000
O O16 0.440942 0.250400 0.250000
O O17 0.500000 0.229062 0.038100
O O18 0.434598 0.297646 0.979475
O O19 0.558394 0.367111 0.750000
O O20 0.500000 0.368335 0.524672
#
# Coordination Sequence:
#
# PCOD9469285 Si02
#       7
#    16  16  16  16   8  16  16
#     4  10  18  32  53  76 103 135 171 211 255 307
#     4  10  19  33  51  72 100 135 175 219 266 314
#     4  11  21  33  49  73 103 136 175 218 264 314
#     4  11  21  35  56  82 111 141 172 207 253 308
#     4  10  20  32  46  68 100 136 171 214 265 318
#     4   9  17  33  55  75  98 134 178 220 261 309
#     4  10  21  36  54  79 110 141 175 215 253 299
#
# _framework density 16.866053000000001
#
# number of rings (size 3 to 8) (size 9 to 14) (size 15 to 20)
#    0.000    1.846    0.769    6.923    0.000    3.692 
#    0.000    0.000    0.000    0.923    0.000    0.000 
#    0.000    0.000    0.000    0.000    0.000    0.000 
#
# Total GULP energy -290226.865010 kJ/mol
# GULP energy per Si atom -5581.285866 kJ/mol
# Density = 1.682767 g / cm^3
# Si number density = 16.866053 Si / 1000 Ang^3
#
#
#
# Elastic Constant Matrix: (Units=GPa)
#
#
# Indices 1 2 3 4 5 6 
#
# 1 132.1778 65.1358 64.2891 0.0000 0.0000 0.0000
# 2 65.1358 74.5134 43.7914 0.0000 0.0000 0.0000
# 3 64.2891 43.7914 112.6385 0.0000 0.0000 0.0000
# 4 0.0000 0.0000 0.0000 25.7494 0.0000 0.0000
# 5 0.0000 0.0000 0.0000 0.0000 28.9401 0.0000
# 6 0.0000 0.0000 0.0000 0.0000 0.0000 5.1282
#
#
#
# Elastic Compliance Matrix: (Units=1/GPa)
#
#
# Indices 1 2 3 4 5 6 
#
# 1 0.014825 -0.010351 -0.004437 0.000000 0.000000 0.000000
# 2 -0.010351 0.024623 -0.003665 0.000000 0.000000 0.000000
# 3 -0.004437 -0.003665 0.012835 0.000000 0.000000 0.000000
# 4 0.000000 0.000000 0.000000 0.038836 0.000000 0.000000
# 5 0.000000 0.000000 0.000000 0.000000 0.034554 0.000000
# 6 0.000000 0.000000 0.000000 0.000000 0.000000 0.195000
#
#
# Mechanical properties :
#
#
# Convention : Reuss Voigt Hill
#
# Bulk Modulus (GPa) = 65.03378 73.97360 69.50369
# Shear Modulus (GPa) = 13.78535 21.70444 17.74489
#
# Velocity S-wave (km/s) = 2.86202 3.59119 3.24714
# Velocity P-wave (km/s) = 7.04019 7.81986 7.44024
#
# Compressibility (1/GPa) = 0.01537662
#
# Stress axis : x y z
#
# Youngs Moduli (GPa) = 67.45532 40.61276 77.91150
#
# Poissons Ratio (x) = 0.42040 0.34568
# Poissons Ratio (y) = 0.69826 0.28552
# Poissons Ratio (z) = 0.29929 0.14883
#
# Static dielectric constant tensor:
#      x y z
#    x 1.587790 0.000000 0.000000 
#    y 0.000000 1.553070 0.000000 
#    z 0.000000 0.000000 1.565450 
# 
# From -- ./inp_files/14468.got.cif
#   From: 2010.05.17/outbox.cif.g08.bks.cpg/sg63_8_cif.got.tgz:14468.got - 2010.06.03 15:47:04.
