data_PCOD9469670
_publ_section_title
;
Structure prediction by ZEFSAII (Michael W. Deem and Ramdas Pophale) SiO2 
 PCOD9469670
Probable space group: C M C M
;
_chemical_formula_sum "Si O2"
_cell_formula_units_Z 96
_cell_length_a 7.370472
_cell_length_b 26.222638
_cell_length_c 24.529878
_cell_angle_alpha 90.000000
_cell_angle_beta 90.000000
_cell_angle_gamma 90.000000
_cell_volume 4740.968486
_symmetry_space_group_name_H-M "C M C M"
_symmetry_group_IT_number 63
_symmetry_cell_setting 'orthorhombic'
loop_
_space_group_symop_operation_xyz
x,y,z
-x,-y,1/2+z
x,-y,-z
-x,y,1/2-z
-x,-y,-z
x,y,1/2-z
-x,y,z
x,-y,1/2+z
1/2+x,1/2+y,z
1/2-x,1/2-y,1/2+z
1/2+x,1/2-y,-z
1/2-x,1/2+y,1/2-z
1/2-x,1/2-y,-z
1/2+x,1/2+y,1/2-z
1/2-x,1/2+y,z
1/2+x,1/2-y,1/2+z
loop_
_atom_site_type_symbol
_atom_site_label
_atom_site_fract_x
_atom_site_fract_y
_atom_site_fract_z
Si Si1 0.279198 0.440211 0.187697
Si Si2 0.786854 0.852247 0.614018
Si Si3 0.221907 0.844265 0.118409
Si Si4 0.781067 0.745989 0.312290
Si Si5 0.221463 0.056276 0.312329
Si Si6 0.717131 0.310591 0.499851
O O1 0.224826 0.428157 0.250000
O O2 0.500000 0.439946 0.187338
O O3 0.219199 0.397006 0.145872
O O4 0.223300 0.498184 0.175246
O O5 0.771130 0.803947 0.654011
O O6 0.712718 0.901744 0.645018
O O7 0.710891 0.836184 0.555184
O O8 0.000000 0.862375 0.605710
O O9 0.278750 0.796524 0.155710
O O10 0.000000 0.844245 0.118088
O O11 0.283409 0.834702 0.056671
O O12 0.716728 0.744488 0.250000
O O13 0.000000 0.747421 0.310990
O O14 0.276033 0.068418 0.250000
O O15 0.000000 0.057109 0.312485
O O16 0.500000 0.316753 0.500148
O O17 0.750000 0.250000 0.500000
#
# Coordination Sequence:
#
# PCOD9469670 Si02
#       6
#    16  16  16  16  16  16
#     4   8  13  23  41  63  87 117 148 180 226 274
#     4  10  19  30  45  66  92 121 152 182 220 271
#     4   9  16  27  42  62  89 116 149 189 223 259
#     4  10  19  29  44  67  92 117 147 186 229 268
#     4   8  14  25  41  62  89 118 146 179 222 271
#     4  10  19  31  46  64  89 123 155 184 224 267
#
# _framework density 20.249026000000001
#
# number of rings (size 3 to 8) (size 9 to 14) (size 15 to 20)
#    0.000    2.833    1.667    2.000    0.000    3.000 
#    0.000    0.833    0.000    5.000    0.000    2.333 
#    0.000    5.333    0.000    0.000    0.000    0.000 
#
# Total GULP energy -267977.959402 kJ/mol
# GULP energy per Si atom -5582.874154 kJ/mol
# Density = 2.020294 g / cm^3
# Si number density = 20.249026 Si / 1000 Ang^3
#
#
#
# Elastic Constant Matrix: (Units=GPa)
#
#
# Indices 1 2 3 4 5 6 
#
# 1 72.5902 0.1422 5.2296 0.0000 0.0000 0.0000
# 2 0.1422 180.4721 137.8511 0.0000 0.0000 0.0000
# 3 5.2296 137.8511 219.9047 0.0000 0.0000 0.0000
# 4 0.0000 0.0000 0.0000 24.7251 0.0000 0.0000
# 5 0.0000 0.0000 0.0000 0.0000 2.0884 0.0000
# 6 0.0000 0.0000 0.0000 0.0000 0.0000 12.9183
#
#
#
# Elastic Compliance Matrix: (Units=1/GPa)
#
#
# Indices 1 2 3 4 5 6 
#
# 1 0.013820 0.000461 -0.000617 0.000000 0.000000 0.000000
# 2 0.000461 0.010647 -0.006685 0.000000 0.000000 0.000000
# 3 -0.000617 -0.006685 0.008753 0.000000 0.000000 0.000000
# 4 0.000000 0.000000 0.000000 0.040445 0.000000 0.000000
# 5 0.000000 0.000000 0.000000 0.000000 0.478834 0.000000
# 6 0.000000 0.000000 0.000000 0.000000 0.000000 0.077410
#
#
# Mechanical properties :
#
#
# Convention : Reuss Voigt Hill
#
# Bulk Modulus (GPa) = 51.18873 84.37921 67.78397
# Shear Modulus (GPa) = 7.69108 29.92930 18.81019
#
# Velocity S-wave (km/s) = 1.95102 3.84873 3.05116
# Velocity P-wave (km/s) = 5.51451 7.84293 6.77943
#
# Compressibility (1/GPa) = 0.01953555
#
# Stress axis : x y z
#
# Youngs Moduli (GPa) = 72.36126 93.92209 114.24787
#
# Poissons Ratio (x) = -0.04328 0.07055
# Poissons Ratio (y) = -0.03334 0.76378
# Poissons Ratio (z) = 0.04468 0.62790
#
# Static dielectric constant tensor:
#      x y z
#    x 1.858650 0.000000 0.000000 
#    y 0.000000 1.673570 0.000000 
#    z 0.000000 0.000000 1.700350 
# 
# From -- ./inp_files/53046.got.cif
#   From: 2010.05.17/outbox.cif.g08.bks.cpg/sg63_27_cif.got.tgz:53046.got - 2010.06.03 15:47:04.
