data_PCOD9469366
_publ_section_title
;
Structure prediction by ZEFSAII (Michael W. Deem and Ramdas Pophale) SiO2 
 PCOD9469366
Probable space group: C M C M
;
_chemical_formula_sum "Si O2"
_cell_formula_units_Z 72
_cell_length_a 14.689762
_cell_length_b 15.293858
_cell_length_c 18.432607
_cell_angle_alpha 90.000000
_cell_angle_beta 90.000000
_cell_angle_gamma 90.000000
_cell_volume 4141.127258
_symmetry_space_group_name_H-M "C M C M"
_symmetry_group_IT_number 63
_symmetry_cell_setting 'orthorhombic'
loop_
_space_group_symop_operation_xyz
x,y,z
-x,-y,1/2+z
x,-y,-z
-x,y,1/2-z
-x,-y,-z
x,y,1/2-z
-x,y,z
x,-y,1/2+z
1/2+x,1/2+y,z
1/2-x,1/2-y,1/2+z
1/2+x,1/2-y,-z
1/2-x,1/2+y,1/2-z
1/2-x,1/2-y,-z
1/2+x,1/2+y,1/2-z
1/2-x,1/2+y,z
1/2+x,1/2-y,1/2+z
loop_
_atom_site_type_symbol
_atom_site_label
_atom_site_fract_x
_atom_site_fract_y
_atom_site_fract_z
Si Si1 0.500000 0.042078 0.419006
Si Si2 0.000000 0.901398 0.968884
Si Si3 0.304877 0.830138 0.073968
Si Si4 0.500000 0.791377 0.500043
Si Si5 0.203379 0.868874 0.573706
Si Si6 0.317396 0.994369 0.164268
O O1 0.500000 0.146017 0.430930
O O2 0.587254 0.013400 0.374781
O O3 0.500000 0.000000 0.500000
O O4 0.904325 0.888385 0.927705
O O5 0.000000 0.812042 0.017764
O O6 0.000000 0.000000 0.000000
O O7 0.408611 0.816743 0.044638
O O8 0.275481 0.731884 0.093453
O O9 0.295883 0.895516 0.140430
O O10 0.246278 0.871909 0.007749
O O11 0.249183 0.937815 0.626541
O O12 0.320823 0.004786 0.250000
#
# Coordination Sequence:
#
# PCOD9469366 Si02
#       6
#     8   8  16   8  16  16
#     4  12  19  36  61  84 115 142 186 235 280 345
#     4  10  20  34  57  86 109 138 194 246 272 314
#     4  10  19  36  59  83 109 147 193 235 281 338
#     4  10  18  32  60  86 108 140 178 241 287 320
#     4  10  21  36  58  83 109 149 197 240 278 323
#     4  12  23  35  55  85 119 150 179 229 302 357
#
# _framework density 17.386571
#
# number of rings (size 3 to 8) (size 9 to 14) (size 15 to 20)
#    0.000    1.333    4.444    2.333    0.000    0.889 
#    0.000    0.556    0.000    4.000    0.000    0.000 
#    0.000    0.000    0.000    0.000    0.000    0.000 
#
# Total GULP energy -200715.340100 kJ/mol
# GULP energy per Si atom -5575.426114 kJ/mol
# Density = 1.734700 g / cm^3
# Si number density = 17.386571 Si / 1000 Ang^3
#
#
#
# Elastic Constant Matrix: (Units=GPa)
#
#
# Indices 1 2 3 4 5 6 
#
# 1 105.7942 20.6999 48.0258 0.0000 0.0000 0.0000
# 2 20.6999 124.6900 69.3729 0.0000 0.0000 0.0000
# 3 48.0258 69.3729 97.8591 0.0000 0.0000 0.0000
# 4 0.0000 0.0000 0.0000 16.5173 0.0000 0.0000
# 5 0.0000 0.0000 0.0000 0.0000 2.9611 0.0000
# 6 0.0000 0.0000 0.0000 0.0000 0.0000 137.3846
#
#
#
# Elastic Compliance Matrix: (Units=1/GPa)
#
#
# Indices 1 2 3 4 5 6 
#
# 1 0.012521 0.002213 -0.007714 0.000000 0.000000 0.000000
# 2 0.002213 0.013634 -0.010751 0.000000 0.000000 0.000000
# 3 -0.007714 -0.010751 0.021626 0.000000 0.000000 0.000000
# 4 0.000000 0.000000 0.000000 0.060543 0.000000 0.000000
# 5 0.000000 0.000000 0.000000 0.000000 0.337713 0.000000
# 6 0.000000 0.000000 0.000000 0.000000 0.000000 0.007279
#
#
# Mechanical properties :
#
#
# Convention : Reuss Voigt Hill
#
# Bulk Modulus (GPa) = 65.45745 67.17116 66.31430
# Shear Modulus (GPa) = 10.18513 44.05559 27.12036
#
# Velocity S-wave (km/s) = 2.42297 5.03923 3.95377
# Velocity P-wave (km/s) = 6.74964 8.51917 7.68551
#
# Compressibility (1/GPa) = 0.01527710
#
# Stress axis : x y z
#
# Youngs Moduli (GPa) = 79.86611 73.34505 46.24049
#
# Poissons Ratio (x) = -0.16231 0.35668
# Poissons Ratio (y) = -0.17674 0.49715
# Poissons Ratio (z) = 0.61606 0.78856
#
# Static dielectric constant tensor:
#      x y z
#    x 1.661500 0.000000 0.000000 
#    y 0.000000 1.657360 0.000000 
#    z 0.000000 0.000000 1.547050 
# 
# From -- ./inp_files/43790.got.cif
#   From: 2010.05.17/outbox.cif.g08.bks.cpg/sg63_22_cif.got.tgz:43790.got - 2010.06.03 15:47:04.
