data_PCOD9469651
_publ_section_title
;
Structure prediction by ZEFSAII (Michael W. Deem and Ramdas Pophale) SiO2 
 PCOD9469651
Probable space group: C M C M
;
_chemical_formula_sum "Si O2"
_cell_formula_units_Z 96
_cell_length_a 7.190333
_cell_length_b 20.084414
_cell_length_c 24.884258
_cell_angle_alpha 90.000000
_cell_angle_beta 90.000000
_cell_angle_gamma 90.000000
_cell_volume 3593.625897
_symmetry_space_group_name_H-M "C M C M"
_symmetry_group_IT_number 63
_symmetry_cell_setting 'orthorhombic'
loop_
_space_group_symop_operation_xyz
x,y,z
-x,-y,1/2+z
x,-y,-z
-x,y,1/2-z
-x,-y,-z
x,y,1/2-z
-x,y,z
x,-y,1/2+z
1/2+x,1/2+y,z
1/2-x,1/2-y,1/2+z
1/2+x,1/2-y,-z
1/2-x,1/2+y,1/2-z
1/2-x,1/2-y,-z
1/2+x,1/2+y,1/2-z
1/2-x,1/2+y,z
1/2+x,1/2-y,1/2+z
loop_
_atom_site_type_symbol
_atom_site_label
_atom_site_fract_x
_atom_site_fract_y
_atom_site_fract_z
Si Si1 0.274658 0.094556 0.808403
Si Si2 0.226615 0.409267 0.958670
Si Si3 0.274107 0.804786 0.692232
Si Si4 0.223790 0.738560 0.079126
Si Si5 0.209976 0.384050 0.428117
Si Si6 0.224696 0.450708 0.656112
O O1 0.210242 0.121132 0.750000
O O2 0.500000 0.101822 0.808151
O O3 0.208522 0.117156 0.867907
O O4 0.225707 0.016213 0.811750
O O5 0.279869 0.333354 0.943032
O O6 0.283153 0.451912 0.906594
O O7 0.000000 0.412049 0.960490
O O8 0.290153 0.421266 0.019684
O O9 0.210712 0.781277 0.750000
O O10 0.500000 0.804405 0.691828
O O11 0.215543 0.762522 0.641392
O O12 0.216474 0.881094 0.681972
O O13 0.296817 0.806396 0.054392
O O14 0.000000 0.741136 0.076006
O O15 0.000000 0.410353 0.421602
O O16 0.000000 0.448409 0.655834
#
# Coordination Sequence:
#
# PCOD9469651 Si02
#       6
#    16  16  16  16  16  16
#     4   9  17  27  39  59  88 118 142 166 205 257
#     4   8  15  27  43  64  85 107 140 180 216 245
#     4   8  13  22  39  62  83 104 136 180 220 246
#     4   9  17  29  44  62  85 112 144 178 208 245
#     4  10  19  29  42  62  90 118 140 167 206 253
#     4   8  13  23  40  61  85 109 135 174 219 253
#
# _framework density 26.713965000000002
#
# number of rings (size 3 to 8) (size 9 to 14) (size 15 to 20)
#    0.000    3.333    0.000    3.000    0.000    3.333 
#    0.000    3.333    0.000    0.000    0.000    7.000 
#    0.000    5.333    0.000    0.000    0.000    0.000 
#
# Total GULP energy -268172.888415 kJ/mol
# GULP energy per Si atom -5586.935175 kJ/mol
# Density = 2.665316 g / cm^3
# Si number density = 26.713965 Si / 1000 Ang^3
#
#
#
# Elastic Constant Matrix: (Units=GPa)
#
#
# Indices 1 2 3 4 5 6 
#
# 1 138.3274 -9.6163 5.7460 0.0000 0.0000 0.0000
# 2 -9.6163 69.8355 10.7609 0.0000 0.0000 0.0000
# 3 5.7460 10.7609 240.9057 0.0000 0.0000 0.0000
# 4 0.0000 0.0000 0.0000 20.9916 0.0000 0.0000
# 5 0.0000 0.0000 0.0000 0.0000 -25.0485 0.0000
# 6 0.0000 0.0000 0.0000 0.0000 0.0000 0.3369
#
#
#
# Elastic Compliance Matrix: (Units=1/GPa)
#
#
# Indices 1 2 3 4 5 6 
#
# 1 0.007311 0.001041 -0.000221 0.000000 0.000000 0.000000
# 2 0.001041 0.014567 -0.000676 0.000000 0.000000 0.000000
# 3 -0.000221 -0.000676 0.004186 0.000000 0.000000 0.000000
# 4 0.000000 0.000000 0.000000 0.047638 0.000000 0.000000
# 5 0.000000 0.000000 0.000000 0.000000 -0.039923 0.000000
# 6 0.000000 0.000000 0.000000 0.000000 0.000000 2.968016
#
#
# Mechanical properties :
#
#
# Convention : Reuss Voigt Hill
#
# Bulk Modulus (GPa) = 37.94682 51.42776 44.68729
# Shear Modulus (GPa) = 1.66097 28.73453 15.19775
#
# Velocity S-wave (km/s) = 0.78937 3.28325 2.38776
# Velocity P-wave (km/s) = 3.88156 5.80224 4.93622
#
# Compressibility (1/GPa) = 0.02635267
#
# Stress axis : x y z
#
# Youngs Moduli (GPa) = 136.78490 68.64946 238.86623
#
# Poissons Ratio (x) = -0.07144 0.05276
# Poissons Ratio (y) = -0.14235 0.16135
# Poissons Ratio (z) = 0.03021 0.04637
#
# Static dielectric constant tensor:
#      x y z
#    x 2.041840 0.000000 0.000000 
#    y 0.000000 2.016280 0.000000 
#    z 0.000000 0.000000 2.097490 
# 
# From -- ./inp_files/59867.got.cif
#   From: 2010.05.17/outbox.cif.g08.bks.cpg/sg63_30_cif.got.tgz:59867.got - 2010.06.03 15:47:04.
