data_PCOD9469025
_publ_section_title
;
Structure prediction by ZEFSAII (Michael W. Deem and Ramdas Pophale) SiO2 
 PCOD9469025
Probable space group: C M C M
;
_chemical_formula_sum "Si O2"
_cell_formula_units_Z 68
_cell_length_a 18.379428
_cell_length_b 7.574032
_cell_length_c 23.614778
_cell_angle_alpha 90.000000
_cell_angle_beta 90.000000
_cell_angle_gamma 90.000000
_cell_volume 3287.327661
_symmetry_space_group_name_H-M "C M C M"
_symmetry_group_IT_number 63
_symmetry_cell_setting 'orthorhombic'
loop_
_space_group_symop_operation_xyz
x,y,z
-x,-y,1/2+z
x,-y,-z
-x,y,1/2-z
-x,-y,-z
x,y,1/2-z
-x,y,z
x,-y,1/2+z
1/2+x,1/2+y,z
1/2-x,1/2-y,1/2+z
1/2+x,1/2-y,-z
1/2-x,1/2+y,1/2-z
1/2-x,1/2-y,-z
1/2+x,1/2+y,1/2-z
1/2-x,1/2+y,z
1/2+x,1/2-y,1/2+z
loop_
_atom_site_type_symbol
_atom_site_label
_atom_site_fract_x
_atom_site_fract_y
_atom_site_fract_z
Si Si1 0.722912 0.079687 0.750000
Si Si2 0.500000 0.766674 0.250000
Si Si3 0.083856 0.885124 0.129203
Si Si4 0.588158 0.040266 0.064355
Si Si5 0.868255 0.742921 0.656828
Si Si6 0.130544 0.220206 0.750000
O O1 0.701053 0.187572 0.806135
O O2 0.809473 0.064859 0.750000
O O3 0.674460 0.903402 0.750000
O O4 0.563886 0.765027 0.200620
O O5 0.108820 0.735372 0.085885
O O6 0.085866 0.800758 0.192502
O O7 0.000000 0.933523 0.116497
O O8 0.131299 0.061146 0.131294
O O9 0.500000 0.031145 0.068393
O O10 0.619821 0.898165 0.107572
O O11 0.608874 0.000000 0.000000
#
# Coordination Sequence:
#
# PCOD9469025 Si02
#       6
#     8   4  16  16  16   8
#     4  11  24  37  59  87 123 158 187 244 298 362
#     4  10  18  30  54  82 120 146 184 232 298 346
#     4  11  22  35  60  90 120 155 191 242 296 356
#     4  10  21  37  57  84 118 160 203 245 290 343
#     4  11  20  37  55  86 121 153 191 244 294 349
#     4  12  22  39  57  92 120 153 196 236 303 360
#
# _framework density 20.685493999999998
#
# number of rings (size 3 to 8) (size 9 to 14) (size 15 to 20)
#    0.000    1.176    4.706    3.176    0.000    0.941 
#    0.000    3.529    0.000    1.412    0.000    0.000 
#    0.000    0.000    0.000    0.000    0.000    0.000 
#
# Total GULP energy -189613.181122 kJ/mol
# GULP energy per Si atom -5576.858268 kJ/mol
# Density = 2.063841 g / cm^3
# Si number density = 20.685494 Si / 1000 Ang^3
#
#
#
# Elastic Constant Matrix: (Units=GPa)
#
#
# Indices 1 2 3 4 5 6 
#
# 1 34.7182 -1.6412 8.1727 0.0000 0.0000 0.0000
# 2 -1.6412 124.9117 44.4583 0.0000 0.0000 0.0000
# 3 8.1727 44.4583 122.5132 0.0000 0.0000 0.0000
# 4 0.0000 0.0000 0.0000 9.1642 0.0000 0.0000
# 5 0.0000 0.0000 0.0000 0.0000 16.3234 0.0000
# 6 0.0000 0.0000 0.0000 0.0000 0.0000 19.6230
#
#
#
# Elastic Compliance Matrix: (Units=1/GPa)
#
#
# Indices 1 2 3 4 5 6 
#
# 1 0.029431 0.001246 -0.002416 0.000000 0.000000 0.000000
# 2 0.001246 0.009246 -0.003438 0.000000 0.000000 0.000000
# 3 -0.002416 -0.003438 0.009571 0.000000 0.000000 0.000000
# 4 0.000000 0.000000 0.000000 0.109120 0.000000 0.000000
# 5 0.000000 0.000000 0.000000 0.000000 0.061262 0.000000
# 6 0.000000 0.000000 0.000000 0.000000 0.000000 0.050961
#
#
# Mechanical properties :
#
#
# Convention : Reuss Voigt Hill
#
# Bulk Modulus (GPa) = 25.61939 42.68030 34.14984
# Shear Modulus (GPa) = 17.13406 24.43234 20.78320
#
# Velocity S-wave (km/s) = 2.88116 3.44049 3.17318
# Velocity P-wave (km/s) = 4.84564 6.03824 5.47451
#
# Compressibility (1/GPa) = 0.03903294
#
# Stress axis : x y z
#
# Youngs Moduli (GPa) = 33.97793 108.15737 104.47960
#
# Poissons Ratio (x) = -0.13481 0.25238
# Poissons Ratio (y) = -0.04235 0.35923
# Poissons Ratio (z) = 0.08208 0.37188
#
# Static dielectric constant tensor:
#      x y z
#    x 1.720130 0.000000 0.000000 
#    y 0.000000 1.810500 0.000000 
#    z 0.000000 0.000000 1.690730 
# 
# From -- ./inp_files/63559.got.cif
#   From: 2010.05.17/outbox.cif.g08.bks.cpg/sg63_32_cif.got.tgz:63559.got - 2010.06.03 15:47:04.
