data_PCOD9469743
_publ_section_title
;
Structure prediction by ZEFSAII (Michael W. Deem and Ramdas Pophale) SiO2 
 PCOD9469743
Probable space group: C M C M
;
_chemical_formula_sum "Si O2"
_cell_formula_units_Z 96
_cell_length_a 13.738545
_cell_length_b 24.760168
_cell_length_c 18.035152
_cell_angle_alpha 90.000000
_cell_angle_beta 90.000000
_cell_angle_gamma 90.000000
_cell_volume 6134.993890
_symmetry_space_group_name_H-M "C M C M"
_symmetry_group_IT_number 63
_symmetry_cell_setting 'orthorhombic'
loop_
_space_group_symop_operation_xyz
x,y,z
-x,-y,1/2+z
x,-y,-z
-x,y,1/2-z
-x,-y,-z
x,y,1/2-z
-x,y,z
x,-y,1/2+z
1/2+x,1/2+y,z
1/2-x,1/2-y,1/2+z
1/2+x,1/2-y,-z
1/2-x,1/2+y,1/2-z
1/2-x,1/2-y,-z
1/2+x,1/2+y,1/2-z
1/2-x,1/2+y,z
1/2+x,1/2-y,1/2+z
loop_
_atom_site_type_symbol
_atom_site_label
_atom_site_fract_x
_atom_site_fract_y
_atom_site_fract_z
Si Si1 0.701159 0.300370 0.411239
Si Si2 0.387865 0.526017 0.159832
Si Si3 0.298175 0.362463 0.660398
Si Si4 0.886440 0.768667 0.930605
Si Si5 0.615954 0.595690 0.839125
Si Si6 0.608101 0.197171 0.161171
O O1 0.813579 0.281105 0.413036
O O2 0.654357 0.292746 0.492286
O O3 0.678578 0.359118 0.379824
O O4 0.645308 0.256278 0.360918
O O5 0.386538 0.525853 0.250000
O O6 0.500000 0.533957 0.137190
O O7 0.326969 0.577721 0.134907
O O8 0.357782 0.465586 0.137679
O O9 0.301701 0.361455 0.750000
O O10 0.368912 0.316156 0.629162
O O11 0.190360 0.344600 0.635393
O O12 0.000000 0.754711 0.935637
O O13 0.627921 0.600278 0.750000
O O14 0.500000 0.603433 0.854070
O O15 0.604424 0.193897 0.250000
O O16 0.500000 0.187631 0.131295
#
# Coordination Sequence:
#
# PCOD9469743 Si02
#       6
#    16  16  16  16  16  16
#     4  10  19  30  44  63  88 113 138 173 213 252
#     4   8  14  25  42  63  85 110 139 171 210 253
#     4   9  17  29  44  62  85 113 144 175 207 249
#     4  10  20  31  44  63  86 114 143 171 209 252
#     4   9  16  27  46  68  87 111 142 175 212 252
#     4   9  16  26  43  65  85 108 140 178 216 249
#
# _framework density 15.647938
#
# number of rings (size 3 to 8) (size 9 to 14) (size 15 to 20)
#    0.000    2.833    0.000    3.500    0.000    3.000 
#    0.000    0.833    0.000    4.000    0.000    2.333 
#    0.000    8.000    0.000    0.000    0.000    0.000 
#
# Total GULP energy -267319.084244 kJ/mol
# GULP energy per Si atom -5569.147588 kJ/mol
# Density = 1.561232 g / cm^3
# Si number density = 15.647938 Si / 1000 Ang^3
#
#
#
# Elastic Constant Matrix: (Units=GPa)
#
#
# Indices 1 2 3 4 5 6 
#
# 1 117.6378 64.0015 15.9821 0.0000 0.0000 0.0000
# 2 64.0015 121.4997 11.0348 0.0000 0.0000 0.0000
# 3 15.9821 11.0348 5.9227 0.0000 0.0000 0.0000
# 4 0.0000 0.0000 0.0000 -19.9282 0.0000 0.0000
# 5 0.0000 0.0000 0.0000 0.0000 14.1660 0.0000
# 6 0.0000 0.0000 0.0000 0.0000 0.0000 18.3109
#
#
#
# Elastic Compliance Matrix: (Units=1/GPa)
#
#
# Indices 1 2 3 4 5 6 
#
# 1 0.015897 -0.005390 -0.032854 0.000000 0.000000 0.000000
# 2 -0.005390 0.011734 -0.007318 0.000000 0.000000 0.000000
# 3 -0.032854 -0.007318 0.271131 0.000000 0.000000 0.000000
# 4 0.000000 0.000000 0.000000 -0.050180 0.000000 0.000000
# 5 0.000000 0.000000 0.000000 0.000000 0.070591 0.000000
# 6 0.000000 0.000000 0.000000 0.000000 0.000000 0.054612
#
#
# Mechanical properties :
#
#
# Convention : Reuss Voigt Hill
#
# Bulk Modulus (GPa) = 4.81609 47.45523 26.13566
# Shear Modulus (GPa) = 9.36117 12.77920 11.07019
#
# Velocity S-wave (km/s) = 2.44854 2.86084 2.66269
# Velocity P-wave (km/s) = 3.32840 6.42691 5.11779
#
# Compressibility (1/GPa) = 0.20763725
#
# Stress axis : x y z
#
# Youngs Moduli (GPa) = 62.90690 85.22017 3.68826
#
# Poissons Ratio (x) = 0.45932 0.12117
# Poissons Ratio (y) = 0.33906 0.02699
# Poissons Ratio (z) = 2.06673 0.62368
#
# Static dielectric constant tensor:
#      x y z
#    x 1.532970 0.000000 0.000000 
#    y 0.000000 1.516580 0.000000 
#    z 0.000000 0.000000 1.565920 
# 
# From -- ./inp_files/53028.got.cif
#   From: 2010.05.17/outbox.cif.g08.bks.cpg/sg63_27_cif.got.tgz:53028.got - 2010.06.03 15:47:04.
