data_PCOD9469809
_publ_section_title
;
Structure prediction by ZEFSAII (Michael W. Deem and Ramdas Pophale) SiO2 
 PCOD9469809
Probable space group: C M C M
;
_chemical_formula_sum "Si O2"
_cell_formula_units_Z 80
_cell_length_a 14.360395
_cell_length_b 14.371742
_cell_length_c 15.877693
_cell_angle_alpha 90.000000
_cell_angle_beta 90.000000
_cell_angle_gamma 90.000000
_cell_volume 3276.900077
_symmetry_space_group_name_H-M "C M C M"
_symmetry_group_IT_number 63
_symmetry_cell_setting 'orthorhombic'
loop_
_space_group_symop_operation_xyz
x,y,z
-x,-y,1/2+z
x,-y,-z
-x,y,1/2-z
-x,-y,-z
x,y,1/2-z
-x,y,z
x,-y,1/2+z
1/2+x,1/2+y,z
1/2-x,1/2-y,1/2+z
1/2+x,1/2-y,-z
1/2-x,1/2+y,1/2-z
1/2-x,1/2-y,-z
1/2+x,1/2+y,1/2-z
1/2-x,1/2+y,z
1/2+x,1/2-y,1/2+z
loop_
_atom_site_type_symbol
_atom_site_label
_atom_site_fract_x
_atom_site_fract_y
_atom_site_fract_z
Si Si1 0.890698 0.851547 0.343012
Si Si2 0.611023 0.126061 0.656113
Si Si3 0.292895 0.948249 0.586697
Si Si4 0.398453 0.424576 0.652207
Si Si5 0.390803 0.220887 0.485955
O O1 0.850029 0.828504 0.250000
O O2 0.890852 0.962795 0.352245
O O3 0.851530 0.802956 0.426742
O O4 0.000000 0.824786 0.338680
O O5 0.623516 0.164013 0.750000
O O6 0.500000 0.106278 0.645195
O O7 0.668158 0.029801 0.646461
O O8 0.639312 0.195360 0.580890
O O9 0.199518 0.895783 0.614460
O O10 0.270764 0.000000 0.500000
O O11 0.371122 0.872595 0.567072
O O12 0.400800 0.398868 0.750000
O O13 0.500000 0.398513 0.615050
O O14 0.500000 0.237136 0.493487
#
# Coordination Sequence:
#
# PCOD9469809 Si02
#       5
#    16  16  16  16  16
#     4   8  15  29  49  72  98 129 164 205 253 295
#     4   9  17  29  45  67  99 136 166 195 241 302
#     4  10  19  30  46  72 100 128 163 205 251 297
#     4   9  18  33  51  70  95 130 171 210 248 296
#     4   9  17  30  49  77 107 128 158 208 256 298
#
# _framework density 24.413316999999999
#
# number of rings (size 3 to 8) (size 9 to 14) (size 15 to 20)
#    0.000    3.000    0.000    2.400    0.000    4.400 
#    0.000    6.000    0.000    0.000    0.000    9.800 
#    0.000   17.600    0.000    0.000    0.000    0.000 
#
# Total GULP energy -223410.628704 kJ/mol
# GULP energy per Si atom -5585.265718 kJ/mol
# Density = 2.435775 g / cm^3
# Si number density = 24.413317 Si / 1000 Ang^3
#
#
#
# Elastic Constant Matrix: (Units=GPa)
#
#
# Indices 1 2 3 4 5 6 
#
# 1 129.0571 23.0242 30.3459 0.0000 0.0000 0.0000
# 2 23.0242 87.9723 57.6653 0.0000 0.0000 0.0000
# 3 30.3459 57.6653 139.3469 0.0000 0.0000 0.0000
# 4 0.0000 0.0000 0.0000 27.9629 0.0000 0.0000
# 5 0.0000 0.0000 0.0000 0.0000 10.8588 0.0000
# 6 0.0000 0.0000 0.0000 0.0000 0.0000 10.8977
#
#
#
# Elastic Compliance Matrix: (Units=1/GPa)
#
#
# Indices 1 2 3 4 5 6 
#
# 1 0.008282 -0.001352 -0.001244 0.000000 0.000000 0.000000
# 2 -0.001352 0.015819 -0.006252 0.000000 0.000000 0.000000
# 3 -0.001244 -0.006252 0.010034 0.000000 0.000000 0.000000
# 4 0.000000 0.000000 0.000000 0.035762 0.000000 0.000000
# 5 0.000000 0.000000 0.000000 0.000000 0.092091 0.000000
# 6 0.000000 0.000000 0.000000 0.000000 0.000000 0.091763
#
#
# Mechanical properties :
#
#
# Convention : Reuss Voigt Hill
#
# Bulk Modulus (GPa) = 60.82874 64.27190 62.55032
# Shear Modulus (GPa) = 18.05528 26.29994 22.17761
#
# Velocity S-wave (km/s) = 2.72245 3.28575 3.01727
# Velocity P-wave (km/s) = 5.90361 6.38581 6.14944
#
# Compressibility (1/GPa) = 0.01643960
#
# Stress axis : x y z
#
# Youngs Moduli (GPa) = 120.73989 63.21430 99.65648
#
# Poissons Ratio (x) = 0.08548 0.12398
# Poissons Ratio (y) = 0.16326 0.62304
# Poissons Ratio (z) = 0.15021 0.39521
#
# Static dielectric constant tensor:
#      x y z
#    x 1.964500 0.000000 0.000000 
#    y 0.000000 1.925880 0.000000 
#    z 0.000000 0.000000 1.958030 
# 
# From -- ./inp_files/31636.got.cif
#   From: 2010.05.17/outbox.cif.g08.bks.cpg/sg63_16_cif.got.tgz:31636.got - 2010.06.03 15:47:04.
