data_PCOD9469744
_publ_section_title
;
Structure prediction by ZEFSAII (Michael W. Deem and Ramdas Pophale) SiO2 
 PCOD9469744
Probable space group: C M C M
;
_chemical_formula_sum "Si O2"
_cell_formula_units_Z 104
_cell_length_a 25.278313
_cell_length_b 28.637135
_cell_length_c 8.813315
_cell_angle_alpha 90.000000
_cell_angle_beta 90.000000
_cell_angle_gamma 90.000000
_cell_volume 6379.945173
_symmetry_space_group_name_H-M "C M C M"
_symmetry_group_IT_number 63
_symmetry_cell_setting 'orthorhombic'
loop_
_space_group_symop_operation_xyz
x,y,z
-x,-y,1/2+z
x,-y,-z
-x,y,1/2-z
-x,-y,-z
x,y,1/2-z
-x,y,z
x,-y,1/2+z
1/2+x,1/2+y,z
1/2-x,1/2-y,1/2+z
1/2+x,1/2-y,-z
1/2-x,1/2+y,1/2-z
1/2-x,1/2-y,-z
1/2+x,1/2+y,1/2-z
1/2-x,1/2+y,z
1/2+x,1/2-y,1/2+z
loop_
_atom_site_type_symbol
_atom_site_label
_atom_site_fract_x
_atom_site_fract_y
_atom_site_fract_z
Si Si1 0.000000 0.197578 0.423726
Si Si2 0.889949 0.800022 0.421591
Si Si3 0.723836 0.297708 0.929961
Si Si4 0.000000 0.688695 0.924175
Si Si5 0.000000 0.552063 0.932947
Si Si6 0.805313 0.365496 0.072358
Si Si7 0.881848 0.448133 0.066450
Si Si8 0.893206 0.311809 0.580037
O O1 0.054732 0.183355 0.505272
O O2 0.000000 0.181619 0.250000
O O3 0.000000 0.254578 0.420230
O O4 0.883926 0.818242 0.250000
O O5 0.836253 0.806062 0.515926
O O6 0.894677 0.743931 0.411339
O O7 0.726618 0.292257 0.750000
O O8 0.750000 0.250000 0.000000
O O9 0.756709 0.343250 0.982364
O O10 0.000000 0.671874 0.750000
O O11 0.050602 0.673241 0.017002
O O12 0.941147 0.569819 0.977580
O O13 0.000000 0.551213 0.750000
O O14 0.000000 0.500000 0.000000
O O15 0.792487 0.369269 0.250000
O O16 0.834710 0.413000 0.020146
O O17 0.850635 0.327150 0.042568
O O18 0.880739 0.450214 0.250000
O O19 0.875134 0.500000 0.000000
O O20 0.881064 0.329522 0.750000
#
# Coordination Sequence:
#
# PCOD9469744 Si02
#       8
#     8  16  16   8   8  16  16  16
#     4   9  17  29  46  68  91 121 160 197 239 287
#     4  10  19  32  49  68  93 124 160 202 243 285
#     4  12  23  35  51  70  95 129 167 208 251 300
#     4   9  17  28  42  59  85 118 153 196 245 289
#     4   8  14  29  50  71  93 119 157 201 253 306
#     4  11  22  34  49  70  95 125 164 204 250 303
#     4   9  19  34  53  74  97 127 163 209 259 311
#     4  10  19  30  44  63  88 118 156 199 243 288
#
# _framework density 16.301081
#
# number of rings (size 3 to 8) (size 9 to 14) (size 15 to 20)
#    0.000    2.000    1.538    3.231    0.000    4.923 
#    0.000    1.538    0.000    1.846    0.000    0.000 
#    0.000    0.000    0.000    0.692    0.000    9.385 
#
# Total GULP energy -289747.010578 kJ/mol
# GULP energy per Si atom -5572.057896 kJ/mol
# Density = 1.626398 g / cm^3
# Si number density = 16.301081 Si / 1000 Ang^3
#
#
#
# Elastic Constant Matrix: (Units=GPa)
#
#
# Indices 1 2 3 4 5 6 
#
# 1 137.9714 39.5709 52.2022 0.0000 0.0000 0.0000
# 2 39.5709 50.7444 26.7356 0.0000 0.0000 0.0000
# 3 52.2022 26.7356 85.5956 0.0000 0.0000 0.0000
# 4 0.0000 0.0000 0.0000 12.3045 0.0000 0.0000
# 5 0.0000 0.0000 0.0000 0.0000 10.5138 0.0000
# 6 0.0000 0.0000 0.0000 0.0000 0.0000 238.9484
#
#
#
# Elastic Compliance Matrix: (Units=1/GPa)
#
#
# Indices 1 2 3 4 5 6 
#
# 1 0.010710 -0.005878 -0.004696 0.000000 0.000000 0.000000
# 2 -0.005878 0.026814 -0.004791 0.000000 0.000000 0.000000
# 3 -0.004696 -0.004791 0.016043 0.000000 0.000000 0.000000
# 4 0.000000 0.000000 0.000000 0.081271 0.000000 0.000000
# 5 0.000000 0.000000 0.000000 0.000000 0.095113 0.000000
# 6 0.000000 0.000000 0.000000 0.000000 0.000000 0.004185
#
#
# Mechanical properties :
#
#
# Convention : Reuss Voigt Hill
#
# Bulk Modulus (GPa) = 43.78524 56.81431 50.29978
# Shear Modulus (GPa) = 18.35004 62.74019 40.54512
#
# Velocity S-wave (km/s) = 3.35878 6.21063 4.99266
# Velocity P-wave (km/s) = 6.47769 9.29290 8.00995
#
# Compressibility (1/GPa) = 0.02283875
#
# Stress axis : x y z
#
# Youngs Moduli (GPa) = 93.36661 37.29360 62.33183
#
# Poissons Ratio (x) = 0.21921 0.29271
# Poissons Ratio (y) = 0.54880 0.29861
# Poissons Ratio (z) = 0.43845 0.17866
#
# Static dielectric constant tensor:
#      x y z
#    x 2.034600 0.000000 0.000000 
#    y 0.000000 1.539120 0.000000 
#    z 0.000000 0.000000 1.575600 
# 
# From -- ./inp_files/11137.got.cif
#   From: 2010.05.17/outbox.cif.g08.bks.cpg/sg63_6_cif.got.tgz:11137.got - 2010.06.03 15:47:04.
