data_PCOD9469014
_publ_section_title
;
Structure prediction by ZEFSAII (Michael W. Deem and Ramdas Pophale) SiO2 
 PCOD9469014
Probable space group: C M C M
;
_chemical_formula_sum "Si O2"
_cell_formula_units_Z 96
_cell_length_a 22.690740
_cell_length_b 9.784105
_cell_length_c 21.364296
_cell_angle_alpha 90.000000
_cell_angle_beta 90.000000
_cell_angle_gamma 90.000000
_cell_volume 4743.057075
_symmetry_space_group_name_H-M "C M C M"
_symmetry_group_IT_number 63
_symmetry_cell_setting 'orthorhombic'
loop_
_space_group_symop_operation_xyz
x,y,z
-x,-y,1/2+z
x,-y,-z
-x,y,1/2-z
-x,-y,-z
x,y,1/2-z
-x,y,z
x,-y,1/2+z
1/2+x,1/2+y,z
1/2-x,1/2-y,1/2+z
1/2+x,1/2-y,-z
1/2-x,1/2+y,1/2-z
1/2-x,1/2-y,-z
1/2+x,1/2+y,1/2-z
1/2-x,1/2+y,z
1/2+x,1/2-y,1/2+z
loop_
_atom_site_type_symbol
_atom_site_label
_atom_site_fract_x
_atom_site_fract_y
_atom_site_fract_z
Si Si1 0.802287 0.269209 0.682617
Si Si2 0.127879 0.462315 0.178151
Si Si3 0.000000 0.466904 0.825596
Si Si4 0.294164 0.624805 0.086508
Si Si5 0.000000 0.153289 0.674201
Si Si6 0.120593 0.001157 0.678103
Si Si7 0.200980 0.406267 0.445385
O O1 0.771845 0.286648 0.750000
O O2 0.855889 0.376515 0.681296
O O3 0.756693 0.309881 0.630148
O O4 0.830275 0.120815 0.679778
O O5 0.137537 0.410664 0.250000
O O6 0.059831 0.453827 0.159117
O O7 0.169042 0.411195 0.122275
O O8 0.000000 0.456850 0.750000
O O9 0.000000 0.309969 0.849523
O O10 0.352512 0.600700 0.127310
O O11 0.264012 0.483236 0.064572
O O12 0.302823 0.746528 0.036820
O O13 0.000000 0.161874 0.750000
O O14 0.059028 0.069647 0.658173
O O15 0.114751 0.949146 0.750000
O O16 0.172792 0.500000 0.500000
#
# Coordination Sequence:
#
# PCOD9469014 Si02
#       7
#    16  16   8  16   8  16  16
#     4   9  16  28  48  81 114 141 179 229 282 335
#     4   9  18  32  56  84 112 143 189 239 282 336
#     4   9  14  28  54  85 113 148 193 241 282 338
#     4  11  21  37  55  79 110 149 194 233 291 347
#     4   9  16  28  49  83 124 158 194 235 292 344
#     4  10  18  30  52  84 120 153 187 240 293 341
#     4  11  24  40  58  82 114 150 191 239 299 354
#
# _framework density 20.240112
#
# number of rings (size 3 to 8) (size 9 to 14) (size 15 to 20)
#    0.000    2.167    3.333    1.000    0.000    2.000 
#    0.000    1.250    0.000    3.000    0.000    1.750 
#    0.000    0.000    0.000    0.000    0.000    0.000 
#
# Total GULP energy -267435.234289 kJ/mol
# GULP energy per Si atom -5571.567381 kJ/mol
# Density = 2.019404 g / cm^3
# Si number density = 20.240112 Si / 1000 Ang^3
#
#
#
# Elastic Constant Matrix: (Units=GPa)
#
#
# Indices 1 2 3 4 5 6 
#
# 1 75.9941 -2.4723 24.7752 0.0000 0.0000 0.0000
# 2 -2.4723 70.0172 9.1892 0.0000 0.0000 0.0000
# 3 24.7752 9.1892 63.6140 0.0000 0.0000 0.0000
# 4 0.0000 0.0000 0.0000 24.3753 0.0000 0.0000
# 5 0.0000 0.0000 0.0000 0.0000 9.7074 0.0000
# 6 0.0000 0.0000 0.0000 0.0000 0.0000 17.0777
#
#
#
# Elastic Compliance Matrix: (Units=1/GPa)
#
#
# Indices 1 2 3 4 5 6 
#
# 1 0.015195 0.001339 -0.006111 0.000000 0.000000 0.000000
# 2 0.001339 0.014676 -0.002641 0.000000 0.000000 0.000000
# 3 -0.006111 -0.002641 0.018481 0.000000 0.000000 0.000000
# 4 0.000000 0.000000 0.000000 0.041025 0.000000 0.000000
# 5 0.000000 0.000000 0.000000 0.000000 0.103015 0.000000
# 6 0.000000 0.000000 0.000000 0.000000 0.000000 0.058556
#
#
# Mechanical properties :
#
#
# Convention : Reuss Voigt Hill
#
# Bulk Modulus (GPa) = 29.82888 30.28991 30.05939
# Shear Modulus (GPa) = 18.05375 22.10761 20.08068
#
# Velocity S-wave (km/s) = 2.98984 3.30853 3.15322
# Velocity P-wave (km/s) = 5.16608 5.43994 5.30478
#
# Compressibility (1/GPa) = 0.03352456
#
# Stress axis : x y z
#
# Youngs Moduli (GPa) = 65.81204 68.13786 54.10845
#
# Poissons Ratio (x) = -0.09121 0.33066
# Poissons Ratio (y) = -0.08809 0.14292
# Poissons Ratio (z) = 0.40219 0.17997
#
# Static dielectric constant tensor:
#      x y z
#    x 1.722730 0.000000 0.000000 
#    y 0.000000 1.790700 0.000000 
#    z 0.000000 0.000000 1.769410 
# 
# From -- ./inp_files/65022.got.cif
#   From: 2010.05.17/outbox.cif.g08.bks.cpg/sg63_33_cif.got.tgz:65022.got - 2010.06.03 15:47:04.
