data_PCOD9469573
_publ_section_title
;
Structure prediction by ZEFSAII (Michael W. Deem and Ramdas Pophale) SiO2 
 PCOD9469573
Probable space group: C M C M
;
_chemical_formula_sum "Si O2"
_cell_formula_units_Z 96
_cell_length_a 14.962991
_cell_length_b 20.737686
_cell_length_c 16.776643
_cell_angle_alpha 90.000000
_cell_angle_beta 90.000000
_cell_angle_gamma 90.000000
_cell_volume 5205.755565
_symmetry_space_group_name_H-M "C M C M"
_symmetry_group_IT_number 63
_symmetry_cell_setting 'orthorhombic'
loop_
_space_group_symop_operation_xyz
x,y,z
-x,-y,1/2+z
x,-y,-z
-x,y,1/2-z
-x,-y,-z
x,y,1/2-z
-x,y,z
x,-y,1/2+z
1/2+x,1/2+y,z
1/2-x,1/2-y,1/2+z
1/2+x,1/2-y,-z
1/2-x,1/2+y,1/2-z
1/2-x,1/2-y,-z
1/2+x,1/2+y,1/2-z
1/2-x,1/2+y,z
1/2+x,1/2-y,1/2+z
loop_
_atom_site_type_symbol
_atom_site_label
_atom_site_fract_x
_atom_site_fract_y
_atom_site_fract_z
Si Si1 0.000000 0.664769 0.653641
Si Si2 0.187367 0.267516 0.156599
Si Si3 0.000000 0.919753 0.846440
Si Si4 0.309178 0.615958 0.604255
Si Si5 0.304233 0.991143 0.597048
Si Si6 0.500000 0.568891 0.844516
Si Si7 0.313083 0.629855 0.085958
Si Si8 0.500000 0.980150 0.406801
O O1 0.910031 0.703948 0.633358
O O2 0.000000 0.653402 0.750000
O O3 0.000000 0.596661 0.608041
O O4 0.182582 0.252214 0.250000
O O5 0.260249 0.322664 0.141342
O O6 0.209567 0.202268 0.110562
O O7 0.911130 0.886721 0.880356
O O8 0.000000 0.916347 0.750000
O O9 0.000000 0.994641 0.873966
O O10 0.252584 0.552149 0.627149
O O11 0.410628 0.604706 0.629384
O O12 0.309811 0.623536 0.509091
O O13 0.254734 0.924884 0.617268
O O14 0.305674 0.000000 0.500000
O O15 0.406119 0.993949 0.626315
O O16 0.500000 0.564665 0.750000
O O17 0.500000 0.000000 0.500000
#
# Coordination Sequence:
#
# PCOD9469573 Si02
#       8
#     8  16   8  16  16   8  16   8
#     4  10  21  37  60  87 117 154 201 249 298 351
#     4  11  23  40  59  86 124 160 198 251 306 362
#     4  11  22  37  60  91 125 157 192 250 316 361
#     4  11  21  39  61  86 117 161 204 246 295 362
#     4   9  19  34  60  88 117 149 195 249 294 343
#     4  11  23  37  57  88 118 155 199 241 301 373
#     4  11  22  38  60  92 120 154 202 254 304 355
#     4  10  18  37  61  90 117 150 196 247 292 348
#
# _framework density 18.441127000000002
#
# number of rings (size 3 to 8) (size 9 to 14) (size 15 to 20)
#    0.000    1.500    3.333    2.500    0.000    1.333 
#    0.000    2.500    0.000    0.000    0.000    0.000 
#    0.000    0.000    0.000    0.000    0.000    0.000 
#
# Total GULP energy -268115.033336 kJ/mol
# GULP energy per Si atom -5585.729861 kJ/mol
# Density = 1.839915 g / cm^3
# Si number density = 18.441127 Si / 1000 Ang^3
#
#
#
# Elastic Constant Matrix: (Units=GPa)
#
#
# Indices 1 2 3 4 5 6 
#
# 1 127.3444 43.0691 -5.3982 0.0000 0.0000 0.0000
# 2 43.0691 130.0449 10.2789 0.0000 0.0000 0.0000
# 3 -5.3982 10.2789 25.3662 0.0000 0.0000 0.0000
# 4 0.0000 0.0000 0.0000 29.1070 0.0000 0.0000
# 5 0.0000 0.0000 0.0000 0.0000 9.7576 0.0000
# 6 0.0000 0.0000 0.0000 0.0000 0.0000 64.8192
#
#
#
# Elastic Compliance Matrix: (Units=1/GPa)
#
#
# Indices 1 2 3 4 5 6 
#
# 1 0.009097 -0.003271 0.003261 0.000000 0.000000 0.000000
# 2 -0.003271 0.009120 -0.004392 0.000000 0.000000 0.000000
# 3 0.003261 -0.004392 0.041896 0.000000 0.000000 0.000000
# 4 0.000000 0.000000 0.000000 0.034356 0.000000 0.000000
# 5 0.000000 0.000000 0.000000 0.000000 0.102484 0.000000
# 6 0.000000 0.000000 0.000000 0.000000 0.000000 0.015428
#
#
# Mechanical properties :
#
#
# Convention : Reuss Voigt Hill
#
# Bulk Modulus (GPa) = 19.48889 42.07279 30.78084
# Shear Modulus (GPa) = 20.98312 36.39048 28.68680
#
# Velocity S-wave (km/s) = 3.37685 4.44704 3.94837
# Velocity P-wave (km/s) = 5.07891 7.01658 6.12486
#
# Compressibility (1/GPa) = 0.05131127
#
# Stress axis : x y z
#
# Youngs Moduli (GPa) = 109.92494 109.64976 23.86859
#
# Poissons Ratio (x) = 0.35862 -0.07784
# Poissons Ratio (y) = 0.35952 0.10482
# Poissons Ratio (z) = -0.35850 0.48154
#
# Static dielectric constant tensor:
#      x y z
#    x 1.620850 0.000000 0.000000 
#    y 0.000000 1.615960 0.000000 
#    z 0.000000 0.000000 1.622470 
# 
# From -- ./inp_files/32032.got.cif
#   From: 2010.05.17/outbox.cif.g08.bks.cpg/sg63_17_cif.got.tgz:32032.got - 2010.06.03 15:47:04.
