data_PCOD9469639
_publ_section_title
;
Structure prediction by ZEFSAII (Michael W. Deem and Ramdas Pophale) SiO2 
 PCOD9469639
Probable space group: C M C M
;
_chemical_formula_sum "Si O2"
_cell_formula_units_Z 104
_cell_length_a 25.771885
_cell_length_b 34.129378
_cell_length_c 7.571240
_cell_angle_alpha 90.000000
_cell_angle_beta 90.000000
_cell_angle_gamma 90.000000
_cell_volume 6659.499203
_symmetry_space_group_name_H-M "C M C M"
_symmetry_group_IT_number 63
_symmetry_cell_setting 'orthorhombic'
loop_
_space_group_symop_operation_xyz
x,y,z
-x,-y,1/2+z
x,-y,-z
-x,y,1/2-z
-x,-y,-z
x,y,1/2-z
-x,y,z
x,-y,1/2+z
1/2+x,1/2+y,z
1/2-x,1/2-y,1/2+z
1/2+x,1/2-y,-z
1/2-x,1/2+y,1/2-z
1/2-x,1/2-y,-z
1/2+x,1/2+y,1/2-z
1/2-x,1/2+y,z
1/2+x,1/2-y,1/2+z
loop_
_atom_site_type_symbol
_atom_site_label
_atom_site_fract_x
_atom_site_fract_y
_atom_site_fract_z
Si Si1 0.000000 0.953341 0.538396
Si Si2 0.169620 0.736901 0.535323
Si Si3 0.162796 0.878845 0.459246
Si Si4 0.443672 0.748897 0.037753
Si Si5 0.056099 0.843815 0.461517
Si Si6 0.235872 0.186479 0.541335
Si Si7 0.113268 0.045707 0.459243
O O1 0.056475 0.940707 0.466852
O O2 0.000000 0.947639 0.750000
O O3 0.000000 0.000000 0.500000
O O4 0.169731 0.736485 0.750000
O O5 0.110402 0.732913 0.473310
O O6 0.193328 0.779005 0.481636
O O7 0.210432 0.704317 0.469429
O O8 0.162003 0.870652 0.250000
O O9 0.108296 0.862768 0.535052
O O10 0.210653 0.853436 0.530912
O O11 0.158521 0.925314 0.480603
O O12 0.444037 0.753109 0.250000
O O13 0.500000 0.763172 0.971375
O O14 0.441198 0.702604 0.996767
O O15 0.055514 0.849339 0.250000
O O16 0.000000 0.858135 0.531042
O O17 0.244960 0.181104 0.750000
O O18 0.110047 0.048965 0.250000
O O19 0.120931 0.000000 0.500000
#
# Coordination Sequence:
#
# PCOD9469639 Si02
#       7
#     8  16  16  16  16  16  16
#     4   8  16  30  44  58  72  90 116 148 186 230
#     4   9  16  26  40  55  74  99 127 157 190 224
#     4  10  19  29  41  56  74  94 122 156 191 228
#     4   9  16  25  37  54  75  98 125 158 193 227
#     4   9  17  27  37  51  72  98 125 154 190 228
#     4   9  17  28  40  55  74  98 126 157 190 224
#     4  10  20  33  46  58  73  93 119 151 189 230
#
# _framework density 15.61679
#
# number of rings (size 3 to 8) (size 9 to 14) (size 15 to 20)
#    0.000    2.769    1.538    0.462    1.077    1.846 
#    0.000    0.000    0.000    0.000    0.000    0.000 
#    0.000    0.000    0.000    0.000    0.000    0.769 
#
# Total GULP energy -289713.798619 kJ/mol
# GULP energy per Si atom -5571.419204 kJ/mol
# Density = 1.558125 g / cm^3
# Si number density = 15.616790 Si / 1000 Ang^3
#
#
#
# Elastic Constant Matrix: (Units=GPa)
#
#
# Indices 1 2 3 4 5 6 
#
# 1 111.6355 47.8335 -2.2047 0.0000 0.0000 0.0000
# 2 47.8335 72.0202 -4.8489 0.0000 0.0000 0.0000
# 3 -2.2047 -4.8489 37.5219 0.0000 0.0000 0.0000
# 4 0.0000 0.0000 0.0000 12.7031 0.0000 0.0000
# 5 0.0000 0.0000 0.0000 0.0000 5.0288 0.0000
# 6 0.0000 0.0000 0.0000 0.0000 0.0000 25.7105
#
#
#
# Elastic Compliance Matrix: (Units=1/GPa)
#
#
# Indices 1 2 3 4 5 6 
#
# 1 0.012525 -0.008342 -0.000342 0.000000 0.000000 0.000000
# 2 -0.008342 0.019563 0.002038 0.000000 0.000000 0.000000
# 3 -0.000342 0.002038 0.026894 0.000000 0.000000 0.000000
# 4 0.000000 0.000000 0.000000 0.078721 0.000000 0.000000
# 5 0.000000 0.000000 0.000000 0.000000 0.198853 0.000000
# 6 0.000000 0.000000 0.000000 0.000000 0.000000 0.038895
#
#
# Mechanical properties :
#
#
# Convention : Reuss Voigt Hill
#
# Bulk Modulus (GPa) = 21.88657 33.63749 27.76203
# Shear Modulus (GPa) = 12.37705 20.71499 16.54602
#
# Velocity S-wave (km/s) = 2.81828 3.64601 3.25853
# Velocity P-wave (km/s) = 4.96341 6.26981 5.65447
#
# Compressibility (1/GPa) = 0.04569013
#
# Stress axis : x y z
#
# Youngs Moduli (GPa) = 79.83833 51.11782 37.18250
#
# Poissons Ratio (x) = 0.42642 0.01272
# Poissons Ratio (y) = 0.66601 -0.07577
# Poissons Ratio (z) = 0.02731 -0.10417
#
# Static dielectric constant tensor:
#      x y z
#    x 1.574750 0.000000 0.000000 
#    y 0.000000 1.514240 0.000000 
#    z 0.000000 0.000000 1.561360 
# 
# From -- ./inp_files/13302.got.cif
#   From: 2010.05.17/outbox.cif.g08.bks.cpg/sg63_7_cif.got.tgz:13302.got - 2010.06.03 15:47:04.
