data_PCOD9469979
_publ_section_title
;
Structure prediction by ZEFSAII (Michael W. Deem and Ramdas Pophale) SiO2 
 PCOD9469979
Probable space group: C M C M
;
_chemical_formula_sum "Si O2"
_cell_formula_units_Z 96
_cell_length_a 17.176443
_cell_length_b 18.171549
_cell_length_c 13.364119
_cell_angle_alpha 90.000000
_cell_angle_beta 90.000000
_cell_angle_gamma 90.000000
_cell_volume 4171.243243
_symmetry_space_group_name_H-M "C M C M"
_symmetry_group_IT_number 63
_symmetry_cell_setting 'orthorhombic'
loop_
_space_group_symop_operation_xyz
x,y,z
-x,-y,1/2+z
x,-y,-z
-x,y,1/2-z
-x,-y,-z
x,y,1/2-z
-x,y,z
x,-y,1/2+z
1/2+x,1/2+y,z
1/2-x,1/2-y,1/2+z
1/2+x,1/2-y,-z
1/2-x,1/2+y,1/2-z
1/2-x,1/2-y,-z
1/2+x,1/2+y,1/2-z
1/2-x,1/2+y,z
1/2+x,1/2-y,1/2+z
loop_
_atom_site_type_symbol
_atom_site_label
_atom_site_fract_x
_atom_site_fract_y
_atom_site_fract_z
Si Si1 0.788541 0.737476 0.640586
Si Si2 0.414867 0.338392 0.545601
Si Si3 0.088621 0.998967 0.631279
Si Si4 0.734403 0.989437 0.133959
Si Si5 0.171329 0.616560 0.484527
Si Si6 0.890781 0.732643 0.135876
O O1 0.807292 0.704987 0.750000
O O2 0.850234 0.799024 0.611627
O O3 0.789262 0.679962 0.550582
O O4 0.702029 0.767100 0.646280
O O5 0.500000 0.316770 0.584198
O O6 0.410038 0.425881 0.562380
O O7 0.410546 0.303108 0.433630
O O8 0.091324 0.978489 0.750000
O O9 0.175044 0.035118 0.615831
O O10 0.000000 0.032230 0.619444
O O11 0.720218 0.983960 0.250000
O O12 0.669284 0.944388 0.072720
O O13 0.723296 0.072876 0.095971
O O14 0.099378 0.657361 0.429110
O O15 0.920239 0.734388 0.250000
#
# Coordination Sequence:
#
# PCOD9469979 Si02
#       6
#    16  16  16  16  16  16
#     4  10  19  32  52  77 104 134 172 220 272 322
#     4  10  19  31  51  80 112 143 177 218 264 317
#     4   9  17  30  49  74 106 144 182 215 251 305
#     4  10  19  31  49  71  98 135 175 216 261 309
#     4  10  19  31  47  71  99 127 167 216 262 306
#     4  10  20  34  53  75 101 137 178 222 273 324
#
# _framework density 23.014720000000001
#
# number of rings (size 3 to 8) (size 9 to 14) (size 15 to 20)
#    0.000    2.167    0.000    5.500    0.000    4.000 
#    0.000    1.667    0.000    5.000    0.000   42.000 
#    0.000   64.000    0.000    0.000    0.000    0.000 
#
# Total GULP energy -267364.647946 kJ/mol
# GULP energy per Si atom -5570.096832 kJ/mol
# Density = 2.296234 g / cm^3
# Si number density = 23.014720 Si / 1000 Ang^3
#
#
#
# Elastic Constant Matrix: (Units=GPa)
#
#
# Indices 1 2 3 4 5 6 
#
# 1 73.3670 0.6856 7.6430 0.0000 0.0000 0.0000
# 2 0.6856 56.1039 16.8668 0.0000 0.0000 0.0000
# 3 7.6430 16.8668 177.9000 0.0000 0.0000 0.0000
# 4 0.0000 0.0000 0.0000 18.8863 0.0000 0.0000
# 5 0.0000 0.0000 0.0000 0.0000 -11.2565 0.0000
# 6 0.0000 0.0000 0.0000 0.0000 0.0000 16.5807
#
#
#
# Elastic Compliance Matrix: (Units=1/GPa)
#
#
# Indices 1 2 3 4 5 6 
#
# 1 0.013691 0.000010 -0.000589 0.000000 0.000000 0.000000
# 2 0.000010 0.018347 -0.001740 0.000000 0.000000 0.000000
# 3 -0.000589 -0.001740 0.005811 0.000000 0.000000 0.000000
# 4 0.000000 0.000000 0.000000 0.052948 0.000000 0.000000
# 5 0.000000 0.000000 0.000000 0.000000 -0.088838 0.000000
# 6 0.000000 0.000000 0.000000 0.000000 0.000000 0.060311
#
#
# Mechanical properties :
#
#
# Convention : Reuss Voigt Hill
#
# Bulk Modulus (GPa) = 30.11022 39.75130 34.93076
# Shear Modulus (GPa) = 64.11864 23.65381 43.88622
#
# Velocity S-wave (km/s) = 5.28397 3.20936 4.37152
# Velocity P-wave (km/s) = 7.09496 5.57162 6.37893
#
# Compressibility (1/GPa) = 0.03321131
#
# Stress axis : x y z
#
# Youngs Moduli (GPa) = 73.03866 54.50474 172.07530
#
# Poissons Ratio (x) = -0.00053 0.10138
# Poissons Ratio (y) = -0.00072 0.29940
# Poissons Ratio (z) = 0.04303 0.09483
#
# Static dielectric constant tensor:
#      x y z
#    x 1.842370 0.000000 0.000000 
#    y 0.000000 1.968820 0.000000 
#    z 0.000000 0.000000 2.033280 
# 
# From -- ./inp_files/35765.got.cif
#   From: 2010.05.17/outbox.cif.g08.bks.cpg/sg63_18_cif.got.tgz:35765.got - 2010.06.03 15:47:04.
