data_PCOD9469882
_publ_section_title
;
Structure prediction by ZEFSAII (Michael W. Deem and Ramdas Pophale) SiO2 
 PCOD9469882
Probable space group: C M C M
;
_chemical_formula_sum "Si O2"
_cell_formula_units_Z 104
_cell_length_a 25.261219
_cell_length_b 11.784191
_cell_length_c 19.201964
_cell_angle_alpha 90.000000
_cell_angle_beta 90.000000
_cell_angle_gamma 90.000000
_cell_volume 5716.098818
_symmetry_space_group_name_H-M "C M C M"
_symmetry_group_IT_number 63
_symmetry_cell_setting 'orthorhombic'
loop_
_space_group_symop_operation_xyz
x,y,z
-x,-y,1/2+z
x,-y,-z
-x,y,1/2-z
-x,-y,-z
x,y,1/2-z
-x,y,z
x,-y,1/2+z
1/2+x,1/2+y,z
1/2-x,1/2-y,1/2+z
1/2+x,1/2-y,-z
1/2-x,1/2+y,1/2-z
1/2-x,1/2-y,-z
1/2+x,1/2+y,1/2-z
1/2-x,1/2+y,z
1/2+x,1/2-y,1/2+z
loop_
_atom_site_type_symbol
_atom_site_label
_atom_site_fract_x
_atom_site_fract_y
_atom_site_fract_z
Si Si1 0.861667 0.746890 0.327577
Si Si2 0.561709 0.785843 0.175141
Si Si3 0.402467 0.650749 0.456098
Si Si4 0.871301 0.500000 0.500000
Si Si5 0.690215 0.767717 0.523499
Si Si6 0.938277 0.543714 0.362460
Si Si7 0.560425 0.593345 0.598283
O O1 0.838501 0.757442 0.250000
O O2 0.821257 0.736923 0.393011
O O3 0.901198 0.639049 0.329165
O O4 0.900307 0.851262 0.346655
O O5 0.582983 0.744720 0.250000
O O6 0.500000 0.752100 0.170744
O O7 0.588506 0.737873 0.106278
O O8 0.563425 0.921878 0.174381
O O9 0.344177 0.668813 0.486726
O O10 0.417767 0.528971 0.425085
O O11 0.437138 0.667239 0.526439
O O12 0.834527 0.612312 0.502593
O O13 0.910710 0.519712 0.436047
O O14 0.750000 0.750000 0.500000
O O15 0.000000 0.579270 0.366924
O O16 0.500000 0.585124 0.621833
#
# Coordination Sequence:
#
# PCOD9469882 Si02
#       7
#    16  16  16   8  16  16  16
#     4  10  22  38  56  84 119 151 191 235 283 342
#     4  10  19  30  49  77 112 149 178 217 278 345
#     4  10  19  36  53  78 110 146 195 240 279 331
#     4  10  19  36  58  88 112 144 191 242 284 338
#     4  10  22  39  63  83 107 148 196 251 296 330
#     4  10  19  32  54  85 120 152 182 222 280 346
#     4  10  20  33  55  82 113 155 188 227 279 338
#
# _framework density 18.194227999999999
#
# number of rings (size 3 to 8) (size 9 to 14) (size 15 to 20)
#    0.000    2.000    1.538    3.000    0.000    4.923 
#    0.000    0.769    0.000    3.692    0.000    0.000 
#    0.000    0.000    0.000    0.000    0.000    0.000 
#
# Total GULP energy -289826.760860 kJ/mol
# GULP energy per Si atom -5573.591555 kJ/mol
# Density = 1.815282 g / cm^3
# Si number density = 18.194228 Si / 1000 Ang^3
#
#
#
# Elastic Constant Matrix: (Units=GPa)
#
#
# Indices 1 2 3 4 5 6 
#
# 1 107.6350 15.0099 44.9970 0.0000 0.0000 0.0000
# 2 15.0099 37.4838 17.5294 0.0000 0.0000 0.0000
# 3 44.9970 17.5294 110.8624 0.0000 0.0000 0.0000
# 4 0.0000 0.0000 0.0000 -3.8575 0.0000 0.0000
# 5 0.0000 0.0000 0.0000 0.0000 3.2014 0.0000
# 6 0.0000 0.0000 0.0000 0.0000 0.0000 18.9627
#
#
#
# Elastic Compliance Matrix: (Units=1/GPa)
#
#
# Indices 1 2 3 4 5 6 
#
# 1 0.011419 -0.002597 -0.004224 0.000000 0.000000 0.000000
# 2 -0.002597 0.029399 -0.003594 0.000000 0.000000 0.000000
# 3 -0.004224 -0.003594 0.011303 0.000000 0.000000 0.000000
# 4 0.000000 0.000000 0.000000 -0.259236 0.000000 0.000000
# 5 0.000000 0.000000 0.000000 0.000000 0.312366 0.000000
# 6 0.000000 0.000000 0.000000 0.000000 0.000000 0.052735
#
#
# Mechanical properties :
#
#
# Convention : Reuss Voigt Hill
#
# Bulk Modulus (GPa) = 31.95939 45.67266 38.81603
# Shear Modulus (GPa) = 26.42052 15.55764 20.98908
#
# Velocity S-wave (km/s) = 3.81483 2.92736 3.40017
# Velocity P-wave (km/s) = 6.08339 6.04841 6.06593
#
# Compressibility (1/GPa) = 0.03128971
#
# Stress axis : x y z
#
# Youngs Moduli (GPa) = 87.57588 34.01466 88.47230
#
# Poissons Ratio (x) = 0.08834 0.37370
# Poissons Ratio (y) = 0.22744 0.31801
# Poissons Ratio (z) = 0.36992 0.12226
#
# Static dielectric constant tensor:
#      x y z
#    x 1.596100 0.000000 0.000000 
#    y 0.000000 1.676420 0.000000 
#    z 0.000000 0.000000 1.683090 
# 
# From -- ./inp_files/49049.got.cif
#   From: 2010.05.17/outbox.cif.g08.bks.cpg/sg63_25_cif.got.tgz:49049.got - 2010.06.03 15:47:04.
