data_PCOD9469899
_publ_section_title
;
Structure prediction by ZEFSAII (Michael W. Deem and Ramdas Pophale) SiO2 
 PCOD9469899
Probable space group: C M C M
;
_chemical_formula_sum "Si O2"
_cell_formula_units_Z 80
_cell_length_a 9.075802
_cell_length_b 20.528157
_cell_length_c 25.033872
_cell_angle_alpha 90.000000
_cell_angle_beta 90.000000
_cell_angle_gamma 90.000000
_cell_volume 4664.047884
_symmetry_space_group_name_H-M "C M C M"
_symmetry_group_IT_number 63
_symmetry_cell_setting 'orthorhombic'
loop_
_space_group_symop_operation_xyz
x,y,z
-x,-y,1/2+z
x,-y,-z
-x,y,1/2-z
-x,-y,-z
x,y,1/2-z
-x,y,z
x,-y,1/2+z
1/2+x,1/2+y,z
1/2-x,1/2-y,1/2+z
1/2+x,1/2-y,-z
1/2-x,1/2+y,1/2-z
1/2-x,1/2-y,-z
1/2+x,1/2+y,1/2-z
1/2-x,1/2+y,z
1/2+x,1/2-y,1/2+z
loop_
_atom_site_type_symbol
_atom_site_label
_atom_site_fract_x
_atom_site_fract_y
_atom_site_fract_z
Si Si1 0.324321 0.309036 0.968345
Si Si2 0.325588 0.560810 0.962835
Si Si3 0.831369 0.015113 0.750000
Si Si4 0.829430 0.143134 0.250000
Si Si5 0.823262 0.359012 0.861342
Si Si6 0.174745 0.485986 0.359044
O O1 0.500000 0.299246 0.962119
O O2 0.249786 0.321852 0.910954
O O3 0.250000 0.250000 0.000000
O O4 0.301584 0.373647 0.004118
O O5 0.500000 0.554851 0.951085
O O6 0.236951 0.554643 0.908301
O O7 0.282879 0.500000 0.000000
O O8 0.829760 0.935993 0.750000
O O9 0.749306 0.035097 0.696186
O O10 0.000000 0.036808 0.750000
O O11 0.745832 0.162016 0.304485
O O12 0.000000 0.164524 0.250000
O O13 0.791283 0.436787 0.867815
O O14 0.000000 0.351025 0.860938
O O15 0.000000 0.480241 0.354981
#
# Coordination Sequence:
#
# PCOD9469899 Si02
#       6
#    16  16   8   8  16  16
#     4  11  23  38  56  78 109 146 183 225 271 324
#     4  10  20  35  55  78 106 141 180 219 264 319
#     4   9  17  29  47  72 107 144 177 216 267 323
#     4   9  17  29  49  76 105 140 179 220 267 315
#     4  10  19  32  51  78 110 141 177 222 270 319
#     4  10  19  30  50  79 110 139 176 225 271 316
#
# _framework density 17.152484000000001
#
# number of rings (size 3 to 8) (size 9 to 14) (size 15 to 20)
#    0.000    2.000    2.000    2.400    0.000    6.000 
#    0.000    0.000    0.000    1.200    0.000    1.400 
#    0.000    0.000    0.000    0.000    0.000    0.000 
#
# Total GULP energy -223247.183628 kJ/mol
# GULP energy per Si atom -5581.179591 kJ/mol
# Density = 1.711344 g / cm^3
# Si number density = 17.152484 Si / 1000 Ang^3
#
#
#
# Elastic Constant Matrix: (Units=GPa)
#
#
# Indices 1 2 3 4 5 6 
#
# 1 95.3886 41.3149 93.7307 0.0000 0.0000 0.0000
# 2 41.3149 44.1457 35.8520 0.0000 0.0000 0.0000
# 3 93.7307 35.8520 176.5616 0.0000 0.0000 0.0000
# 4 0.0000 0.0000 0.0000 18.2689 0.0000 0.0000
# 5 0.0000 0.0000 0.0000 0.0000 34.0078 0.0000
# 6 0.0000 0.0000 0.0000 0.0000 0.0000 21.2049
#
#
#
# Elastic Compliance Matrix: (Units=1/GPa)
#
#
# Indices 1 2 3 4 5 6 
#
# 1 0.031092 -0.018793 -0.012690 0.000000 0.000000 0.000000
# 2 -0.018793 0.038484 0.002162 0.000000 0.000000 0.000000
# 3 -0.012690 0.002162 0.011961 0.000000 0.000000 0.000000
# 4 0.000000 0.000000 0.000000 0.054738 0.000000 0.000000
# 5 0.000000 0.000000 0.000000 0.000000 0.029405 0.000000
# 6 0.000000 0.000000 0.000000 0.000000 0.000000 0.047159
#
#
# Mechanical properties :
#
#
# Convention : Reuss Voigt Hill
#
# Bulk Modulus (GPa) = 43.67473 73.09903 58.38688
# Shear Modulus (GPa) = 17.91388 24.37622 21.14505
#
# Velocity S-wave (km/s) = 3.23521 3.77390 3.51489
# Velocity P-wave (km/s) = 6.28278 7.85490 7.11241
#
# Compressibility (1/GPa) = 0.02289653
#
# Stress axis : x y z
#
# Youngs Moduli (GPa) = 32.16221 25.98473 83.60225
#
# Poissons Ratio (x) = 0.48833 1.06091
# Poissons Ratio (y) = 0.60442 -0.18075
# Poissons Ratio (z) = 0.40814 -0.05618
#
# Static dielectric constant tensor:
#      x y z
#    x 1.571520 0.000000 0.000000 
#    y 0.000000 1.561060 0.000000 
#    z 0.000000 0.000000 1.564220 
# 
# From -- ./inp_files/59507.got.cif
#   From: 2010.05.17/outbox.cif.g08.bks.cpg/sg63_30_cif.got.tgz:59507.got - 2010.06.03 15:47:04.
