data_PCOD9469298
_publ_section_title
;
Structure prediction by ZEFSAII (Michael W. Deem and Ramdas Pophale) SiO2 
 PCOD9469298
Probable space group: C M C M
;
_chemical_formula_sum "Si O2"
_cell_formula_units_Z 112
_cell_length_a 26.032042
_cell_length_b 15.615934
_cell_length_c 13.595136
_cell_angle_alpha 90.000000
_cell_angle_beta 90.000000
_cell_angle_gamma 90.000000
_cell_volume 5526.621949
_symmetry_space_group_name_H-M "C M C M"
_symmetry_group_IT_number 63
_symmetry_cell_setting 'orthorhombic'
loop_
_space_group_symop_operation_xyz
x,y,z
-x,-y,1/2+z
x,-y,-z
-x,y,1/2-z
-x,-y,-z
x,y,1/2-z
-x,y,z
x,-y,1/2+z
1/2+x,1/2+y,z
1/2-x,1/2-y,1/2+z
1/2+x,1/2-y,-z
1/2-x,1/2+y,1/2-z
1/2-x,1/2-y,-z
1/2+x,1/2+y,1/2-z
1/2-x,1/2+y,z
1/2+x,1/2-y,1/2+z
loop_
_atom_site_type_symbol
_atom_site_label
_atom_site_fract_x
_atom_site_fract_y
_atom_site_fract_z
Si Si1 0.110004 0.094722 0.043359
Si Si2 0.000000 0.898916 0.528545
Si Si3 0.602775 0.144352 0.138955
Si Si4 0.712652 0.659726 0.133113
Si Si5 0.770750 0.350411 0.131749
Si Si6 0.652015 0.321442 0.358720
Si Si7 0.000000 0.254617 0.871304
Si Si8 0.307126 0.962821 0.628797
O O1 0.158625 0.115338 0.109921
O O2 0.053632 0.113160 0.085410
O O3 0.115664 0.149686 0.944721
O O4 0.113545 0.000000 0.000000
O O5 0.000000 0.833550 0.434626
O O6 0.000000 0.000000 0.500000
O O7 0.588838 0.117871 0.250000
O O8 0.645503 0.219821 0.145383
O O9 0.550596 0.188864 0.101862
O O10 0.636760 0.068829 0.094203
O O11 0.719097 0.666773 0.250000
O O12 0.711193 0.757528 0.092946
O O13 0.760212 0.600693 0.099047
O O14 0.778770 0.348512 0.250000
O O15 0.709313 0.351373 0.117752
O O16 0.795263 0.439625 0.098913
O O17 0.637745 0.354519 0.250000
O O18 0.000000 0.239786 0.750000
O O19 0.307693 0.960809 0.750000
#
# Coordination Sequence:
#
# PCOD9469298 Si02
#       8
#    16   8  16  16  16  16   8  16
#     4  11  23  36  53  77 104 139 180 221 270 325
#     4  10  22  38  50  73 107 133 171 225 276 327
#     4   9  16  28  50  79 106 134 174 221 271 324
#     4  10  20  36  55  77 108 145 184 220 261 322
#     4   9  17  30  52  79 110 148 177 211 270 321
#     4  10  18  32  53  78 107 138 172 212 267 330
#     4  10  18  32  56  79 101 141 183 223 282 334
#     4   9  16  30  52  79 113 143 175 225 272 319
#
# _framework density 20.265543000000001
#
# number of rings (size 3 to 8) (size 9 to 14) (size 15 to 20)
#    0.000    2.286    2.857    0.857    0.000    2.286 
#    0.000    2.500    0.000    0.857    0.000    4.000 
#    0.000    0.000    0.000    0.000    0.000    0.000 
#
# Total GULP energy -312083.560160 kJ/mol
# GULP energy per Si atom -5572.920717 kJ/mol
# Density = 2.021942 g / cm^3
# Si number density = 20.265543 Si / 1000 Ang^3
#
#
#
# Elastic Constant Matrix: (Units=GPa)
#
#
# Indices 1 2 3 4 5 6 
#
# 1 107.7478 59.0407 16.6641 0.0000 0.0000 0.0000
# 2 59.0407 125.8706 25.0861 0.0000 0.0000 0.0000
# 3 16.6641 25.0861 33.5613 0.0000 0.0000 0.0000
# 4 0.0000 0.0000 0.0000 14.2218 0.0000 0.0000
# 5 0.0000 0.0000 0.0000 0.0000 21.9764 0.0000
# 6 0.0000 0.0000 0.0000 0.0000 0.0000 74.2457
#
#
#
# Elastic Compliance Matrix: (Units=1/GPa)
#
#
# Indices 1 2 3 4 5 6 
#
# 1 0.012624 -0.005490 -0.002165 0.000000 0.000000 0.000000
# 2 -0.005490 0.011723 -0.006037 0.000000 0.000000 0.000000
# 3 -0.002165 -0.006037 0.035383 0.000000 0.000000 0.000000
# 4 0.000000 0.000000 0.000000 0.070314 0.000000 0.000000
# 5 0.000000 0.000000 0.000000 0.000000 0.045503 0.000000
# 6 0.000000 0.000000 0.000000 0.000000 0.000000 0.013469
#
#
# Mechanical properties :
#
#
# Convention : Reuss Voigt Hill
#
# Bulk Modulus (GPa) = 30.91401 52.08463 41.49932
# Shear Modulus (GPa) = 22.00883 33.18136 27.59509
#
# Velocity S-wave (km/s) = 3.29906 4.05078 3.69409
# Velocity P-wave (km/s) = 5.45888 6.90183 6.22232
#
# Compressibility (1/GPa) = 0.03234779
#
# Stress axis : x y z
#
# Youngs Moduli (GPa) = 79.21451 85.30320 28.26198
#
# Poissons Ratio (x) = 0.46831 0.06117
# Poissons Ratio (y) = 0.43489 0.17061
# Poissons Ratio (z) = 0.17146 0.51494
#
# Static dielectric constant tensor:
#      x y z
#    x 1.745530 0.000000 0.000000 
#    y 0.000000 -0.244700 0.000000 
#    z 0.000000 0.000000 1.735120 
# 
# From -- ./inp_files/38000.got.cif
#   From: 2010.05.17/outbox.cif.g08.bks.cpg/sg63_19_cif.got.tgz:38000.got - 2010.06.03 15:47:04.
