data_PCOD9469056
_publ_section_title
;
Structure prediction by ZEFSAII (Michael W. Deem and Ramdas Pophale) SiO2 
 PCOD9469056
Probable space group: C M C M
;
_chemical_formula_sum "Si O2"
_cell_formula_units_Z 64
_cell_length_a 16.565648
_cell_length_b 9.534534
_cell_length_c 18.850371
_cell_angle_alpha 90.000000
_cell_angle_beta 90.000000
_cell_angle_gamma 90.000000
_cell_volume 2977.335685
_symmetry_space_group_name_H-M "C M C M"
_symmetry_group_IT_number 63
_symmetry_cell_setting 'orthorhombic'
loop_
_space_group_symop_operation_xyz
x,y,z
-x,-y,1/2+z
x,-y,-z
-x,y,1/2-z
-x,-y,-z
x,y,1/2-z
-x,y,z
x,-y,1/2+z
1/2+x,1/2+y,z
1/2-x,1/2-y,1/2+z
1/2+x,1/2-y,-z
1/2-x,1/2+y,1/2-z
1/2-x,1/2-y,-z
1/2+x,1/2+y,1/2-z
1/2-x,1/2+y,z
1/2+x,1/2-y,1/2+z
loop_
_atom_site_type_symbol
_atom_site_label
_atom_site_fract_x
_atom_site_fract_y
_atom_site_fract_z
Si Si1 0.302680 0.853271 0.581137
Si Si2 0.128177 0.154758 0.021433
Si Si3 0.910822 0.898402 0.828590
Si Si4 0.751361 0.089803 0.831051
O O1 0.224301 0.868248 0.531283
O O2 0.373893 0.777537 0.537170
O O3 0.310121 0.002836 0.619393
O O4 0.272614 0.742901 0.640571
O O5 0.095344 0.191337 0.099433
O O6 0.095625 0.000000 0.000000
O O7 0.903722 0.831246 0.750000
O O8 0.837026 0.006742 0.834544
O O9 0.000000 0.965459 0.830200
O O10 0.725032 0.090723 0.750000
#
# Coordination Sequence:
#
# PCOD9469056 Si02
#       4
#    16  16  16  16
#     4  10  18  31  47  73 105 134 161 201 251 302
#     4  10  18  31  48  72 102 132 160 202 250 295
#     4   9  18  32  48  70 100 133 171 210 248 297
#     4  10  19  32  51  77 104 132 166 206 252 301
#
# _framework density 21.495729999999998
#
# number of rings (size 3 to 8) (size 9 to 14) (size 15 to 20)
#    0.000    2.250    5.000    0.750    0.000    1.500 
#    0.000    0.000    0.000    0.000    0.000   21.000 
#    0.000   40.000    0.000    0.000    0.000    0.000 
#
# Total GULP energy -178162.865095 kJ/mol
# GULP energy per Si atom -5567.589534 kJ/mol
# Density = 2.144680 g / cm^3
# Si number density = 21.495730 Si / 1000 Ang^3
#
#
#
# Elastic Constant Matrix: (Units=GPa)
#
#
# Indices 1 2 3 4 5 6 
#
# 1 57.7489 17.2270 2.3460 0.0000 0.0000 0.0000
# 2 17.2270 68.0961 30.4602 0.0000 0.0000 0.0000
# 3 2.3460 30.4602 120.7619 0.0000 0.0000 0.0000
# 4 0.0000 0.0000 0.0000 29.3672 0.0000 0.0000
# 5 0.0000 0.0000 0.0000 0.0000 16.5187 0.0000
# 6 0.0000 0.0000 0.0000 0.0000 0.0000 2.8109
#
#
#
# Elastic Compliance Matrix: (Units=1/GPa)
#
#
# Indices 1 2 3 4 5 6 
#
# 1 0.018824 -0.005183 0.000942 0.000000 0.000000 0.000000
# 2 -0.005183 0.017980 -0.004434 0.000000 0.000000 0.000000
# 3 0.000942 -0.004434 0.009381 0.000000 0.000000 0.000000
# 4 0.000000 0.000000 0.000000 0.034052 0.000000 0.000000
# 5 0.000000 0.000000 0.000000 0.000000 0.060537 0.000000
# 6 0.000000 0.000000 0.000000 0.000000 0.000000 0.355764
#
#
# Mechanical properties :
#
#
# Convention : Reuss Voigt Hill
#
# Bulk Modulus (GPa) = 34.68244 38.51923 36.60084
# Shear Modulus (GPa) = 9.55107 22.84428 16.19768
#
# Velocity S-wave (km/s) = 2.11019 3.26350 2.74803
# Velocity P-wave (km/s) = 4.70179 5.67089 5.20892
#
# Compressibility (1/GPa) = 0.02883303
#
# Stress axis : x y z
#
# Youngs Moduli (GPa) = 53.12271 55.61723 106.59859
#
# Poissons Ratio (x) = 0.28829 -0.10039
# Poissons Ratio (y) = 0.27536 0.47271
# Poissons Ratio (z) = -0.05003 0.24663
#
# Static dielectric constant tensor:
#      x y z
#    x 1.772860 0.000000 0.000000 
#    y 0.000000 1.849490 0.000000 
#    z 0.000000 0.000000 1.878760 
# 
# From -- ./inp_files/64229.got.cif
#   From: 2010.05.17/outbox.cif.g08.bks.cpg/sg63_33_cif.got.tgz:64229.got - 2010.06.03 15:47:04.
