data_PCOD9469661
_publ_section_title
;
Structure prediction by ZEFSAII (Michael W. Deem and Ramdas Pophale) SiO2 
 PCOD9469661
Probable space group: C M C M
;
_chemical_formula_sum "Si O2"
_cell_formula_units_Z 112
_cell_length_a 14.590264
_cell_length_b 27.190206
_cell_length_c 16.368281
_cell_angle_alpha 90.000000
_cell_angle_beta 90.000000
_cell_angle_gamma 90.000000
_cell_volume 6493.498137
_symmetry_space_group_name_H-M "C M C M"
_symmetry_group_IT_number 63
_symmetry_cell_setting 'orthorhombic'
loop_
_space_group_symop_operation_xyz
x,y,z
-x,-y,1/2+z
x,-y,-z
-x,y,1/2-z
-x,-y,-z
x,y,1/2-z
-x,y,z
x,-y,1/2+z
1/2+x,1/2+y,z
1/2-x,1/2-y,1/2+z
1/2+x,1/2-y,-z
1/2-x,1/2+y,1/2-z
1/2-x,1/2-y,-z
1/2+x,1/2+y,1/2-z
1/2-x,1/2+y,z
1/2+x,1/2-y,1/2+z
loop_
_atom_site_type_symbol
_atom_site_label
_atom_site_fract_x
_atom_site_fract_y
_atom_site_fract_z
Si Si1 0.281444 0.675901 0.340654
Si Si2 0.257657 0.958382 0.158028
Si Si3 0.603883 0.941426 0.480985
Si Si4 0.606349 0.309385 0.497209
Si Si5 0.757383 0.932271 0.893969
Si Si6 0.893782 0.074351 0.536992
Si Si7 0.392481 0.240943 0.342707
O O1 0.316245 0.690679 0.250000
O O2 0.335474 0.696224 0.419731
O O3 0.283882 0.616702 0.346383
O O4 0.177561 0.695663 0.346516
O O5 0.263162 0.941195 0.250000
O O6 0.339984 0.937227 0.102863
O O7 0.163165 0.942658 0.115248
O O8 0.262514 0.017864 0.154230
O O9 0.500000 0.923114 0.478496
O O10 0.668034 0.919481 0.551474
O O11 0.601312 0.000000 0.500000
O O12 0.500000 0.298746 0.516071
O O13 0.612337 0.366545 0.471283
O O14 0.631672 0.277013 0.417918
O O15 0.838405 0.944957 0.958109
O O16 0.000000 0.060078 0.538149
O O17 0.382389 0.262410 0.250000
O O18 0.500000 0.227638 0.351065
#
# Coordination Sequence:
#
# PCOD9469661 Si02
#       7
#    16  16  16  16  16  16  16
#     4  10  19  31  49  73 100 128 157 191 235 289
#     4  10  19  29  43  66  93 119 152 196 241 284
#     4   8  15  29  46  61  81 114 153 189 229 278
#     4   9  18  33  52  72  95 126 162 199 241 284
#     4   9  18  31  46  65  91 123 157 192 232 279
#     4   9  18  32  48  65  88 122 162 199 234 276
#     4   9  18  32  50  73  99 125 156 197 241 283
#
# _framework density 17.248021999999999
#
# number of rings (size 3 to 8) (size 9 to 14) (size 15 to 20)
#    0.000    2.857    0.000    2.143    0.000    3.143 
#    0.000    1.429    0.000    5.143    0.000    0.000 
#    0.000    6.857    0.000    0.000    0.000    0.000 
#
# Total GULP energy -311811.532327 kJ/mol
# GULP energy per Si atom -5568.063077 kJ/mol
# Density = 1.720876 g / cm^3
# Si number density = 17.248022 Si / 1000 Ang^3
#
#
#
# Elastic Constant Matrix: (Units=GPa)
#
#
# Indices 1 2 3 4 5 6 
#
# 1 107.6671 8.6344 55.8472 0.0000 0.0000 0.0000
# 2 8.6344 22.3445 20.1499 0.0000 0.0000 0.0000
# 3 55.8472 20.1499 133.8092 0.0000 0.0000 0.0000
# 4 0.0000 0.0000 0.0000 21.8143 0.0000 0.0000
# 5 0.0000 0.0000 0.0000 0.0000 15.8835 0.0000
# 6 0.0000 0.0000 0.0000 0.0000 0.0000 20.5443
#
#
#
# Elastic Compliance Matrix: (Units=1/GPa)
#
#
# Indices 1 2 3 4 5 6 
#
# 1 0.011855 -0.000138 -0.004927 0.000000 0.000000 0.000000
# 2 -0.000138 0.051788 -0.007741 0.000000 0.000000 0.000000
# 3 -0.004927 -0.007741 0.010695 0.000000 0.000000 0.000000
# 4 0.000000 0.000000 0.000000 0.045841 0.000000 0.000000
# 5 0.000000 0.000000 0.000000 0.000000 0.062958 0.000000
# 6 0.000000 0.000000 0.000000 0.000000 0.000000 0.048675
#
#
# Mechanical properties :
#
#
# Convention : Reuss Voigt Hill
#
# Bulk Modulus (GPa) = 20.52292 48.12042 34.32167
# Shear Modulus (GPa) = 18.27044 23.59439 20.93241
#
# Velocity S-wave (km/s) = 3.25818 3.70259 3.48747
# Velocity P-wave (km/s) = 5.10675 6.79989 6.01321
#
# Compressibility (1/GPa) = 0.04872602
#
# Stress axis : x y z
#
# Youngs Moduli (GPa) = 84.35582 19.30963 93.49872
#
# Poissons Ratio (x) = 0.00266 0.46066
# Poissons Ratio (y) = 0.01163 0.72377
# Poissons Ratio (z) = 0.41561 0.14948
#
# Static dielectric constant tensor:
#      x y z
#    x 1.582030 0.000000 0.000000 
#    y 0.000000 1.587490 0.000000 
#    z 0.000000 0.000000 1.591340 
# 
# From -- ./inp_files/32564.got.cif
#   From: 2010.05.17/outbox.cif.g08.bks.cpg/sg63_17_cif.got.tgz:32564.got - 2010.06.03 15:47:04.
