data_PCOD9469290
_publ_section_title
;
Structure prediction by ZEFSAII (Michael W. Deem and Ramdas Pophale) SiO2 
 PCOD9469290
Probable space group: C M C M
;
_chemical_formula_sum "Si O2"
_cell_formula_units_Z 104
_cell_length_a 27.582250
_cell_length_b 10.465926
_cell_length_c 20.074863
_cell_angle_alpha 90.000000
_cell_angle_beta 90.000000
_cell_angle_gamma 90.000000
_cell_volume 5795.086734
_symmetry_space_group_name_H-M "C M C M"
_symmetry_group_IT_number 63
_symmetry_cell_setting 'orthorhombic'
loop_
_space_group_symop_operation_xyz
x,y,z
-x,-y,1/2+z
x,-y,-z
-x,y,1/2-z
-x,-y,-z
x,y,1/2-z
-x,y,z
x,-y,1/2+z
1/2+x,1/2+y,z
1/2-x,1/2-y,1/2+z
1/2+x,1/2-y,-z
1/2-x,1/2+y,1/2-z
1/2-x,1/2-y,-z
1/2+x,1/2+y,1/2-z
1/2-x,1/2+y,z
1/2+x,1/2-y,1/2+z
loop_
_atom_site_type_symbol
_atom_site_label
_atom_site_fract_x
_atom_site_fract_y
_atom_site_fract_z
Si Si1 0.864002 0.745954 0.326813
Si Si2 0.374502 0.500000 0.500000
Si Si3 0.943303 0.846764 0.084294
Si Si4 0.642234 0.236168 0.825989
Si Si5 0.554750 0.393775 0.671622
Si Si6 0.703051 0.002285 0.330759
Si Si7 0.812321 0.008520 0.132899
O O1 0.878901 0.733217 0.250000
O O2 0.911265 0.746885 0.373823
O O3 0.826280 0.632875 0.342183
O O4 0.836425 0.881394 0.336209
O O5 0.411242 0.385856 0.479690
O O6 0.339040 0.524376 0.437957
O O7 0.000000 0.816825 0.072023
O O8 0.942179 0.975944 0.129904
O O9 0.631535 0.198367 0.750000
O O10 0.591901 0.288304 0.854561
O O11 0.675380 0.362414 0.827446
O O12 0.670348 0.116315 0.854989
O O13 0.566030 0.421384 0.750000
O O14 0.500000 0.347099 0.668298
O O15 0.711507 0.990768 0.250000
O O16 0.754704 0.996637 0.366591
#
# Coordination Sequence:
#
# PCOD9469290 Si02
#       7
#    16   8  16  16  16  16  16
#     4  10  19  33  53  82 111 132 166 212 261 318
#     4  10  21  34  52  80 102 132 181 232 258 288
#     4  10  19  33  54  77 104 135 170 216 265 308
#     4  10  18  32  53  77 104 134 169 209 258 316
#     4   9  16  28  51  79  99 122 163 212 258 305
#     4  10  21  34  52  78 109 141 167 205 263 319
#     4  11  20  34  53  73 102 139 182 216 252 300
#
# _framework density 17.946237
#
# number of rings (size 3 to 8) (size 9 to 14) (size 15 to 20)
#    0.000    2.000    3.077    3.000    0.000    3.385 
#    0.000    7.692    0.000    2.769    0.000    1.077 
#    0.000    0.000    0.000    0.000    0.000    0.000 
#
# Total GULP energy -289760.487422 kJ/mol
# GULP energy per Si atom -5572.317066 kJ/mol
# Density = 1.790539 g / cm^3
# Si number density = 17.946237 Si / 1000 Ang^3
#
#
#
# Elastic Constant Matrix: (Units=GPa)
#
#
# Indices 1 2 3 4 5 6 
#
# 1 134.1931 32.4284 28.7643 0.0000 0.0000 0.0000
# 2 32.4284 72.7211 3.0708 0.0000 0.0000 0.0000
# 3 28.7643 3.0708 50.8486 0.0000 0.0000 0.0000
# 4 0.0000 0.0000 0.0000 1.3219 0.0000 0.0000
# 5 0.0000 0.0000 0.0000 0.0000 23.7634 0.0000
# 6 0.0000 0.0000 0.0000 0.0000 0.0000 -3.1935
#
#
#
# Elastic Compliance Matrix: (Units=1/GPa)
#
#
# Indices 1 2 3 4 5 6 
#
# 1 0.009530 -0.004032 -0.005147 0.000000 0.000000 0.000000
# 2 -0.004032 0.015492 0.001345 0.000000 0.000000 0.000000
# 3 -0.005147 0.001345 0.022497 0.000000 0.000000 0.000000
# 4 0.000000 0.000000 0.000000 0.756474 0.000000 0.000000
# 5 0.000000 0.000000 0.000000 0.000000 0.042082 0.000000
# 6 0.000000 0.000000 0.000000 0.000000 0.000000 -0.313135
#
#
# Mechanical properties :
#
#
# Convention : Reuss Voigt Hill
#
# Bulk Modulus (GPa) = 31.39663 42.92109 37.15886
# Shear Modulus (GPa) = 8.94096 17.27832 13.10964
#
# Velocity S-wave (km/s) = 2.23448 3.10624 2.70570
# Velocity P-wave (km/s) = 4.91833 6.06905 5.52374
#
# Compressibility (1/GPa) = 0.03185055
#
# Stress axis : x y z
#
# Youngs Moduli (GPa) = 104.93544 64.54769 44.45096
#
# Poissons Ratio (x) = 0.26027 0.22880
# Poissons Ratio (y) = 0.42312 -0.05980
# Poissons Ratio (z) = 0.54013 -0.08684
#
# Static dielectric constant tensor:
#      x y z
#    x 1.642040 0.000000 0.000000 
#    y 0.000000 1.606510 0.000000 
#    z 0.000000 0.000000 1.655880 
# 
# From -- ./inp_files/58508.got.cif
#   From: 2010.05.17/outbox.cif.g08.bks.cpg/sg63_30_cif.got.tgz:58508.got - 2010.06.03 15:47:04.
