data_PCOD9469944
_publ_section_title
;
Structure prediction by ZEFSAII (Michael W. Deem and Ramdas Pophale) SiO2 
 PCOD9469944
Probable space group: C M C M
;
_chemical_formula_sum "Si O2"
_cell_formula_units_Z 80
_cell_length_a 24.139728
_cell_length_b 26.621608
_cell_length_c 8.750797
_cell_angle_alpha 90.000000
_cell_angle_beta 90.000000
_cell_angle_gamma 90.000000
_cell_volume 5623.597973
_symmetry_space_group_name_H-M "C M C M"
_symmetry_group_IT_number 63
_symmetry_cell_setting 'orthorhombic'
loop_
_space_group_symop_operation_xyz
x,y,z
-x,-y,1/2+z
x,-y,-z
-x,y,1/2-z
-x,-y,-z
x,y,1/2-z
-x,y,z
x,-y,1/2+z
1/2+x,1/2+y,z
1/2-x,1/2-y,1/2+z
1/2+x,1/2-y,-z
1/2-x,1/2+y,1/2-z
1/2-x,1/2-y,-z
1/2+x,1/2+y,1/2-z
1/2-x,1/2+y,z
1/2+x,1/2-y,1/2+z
loop_
_atom_site_type_symbol
_atom_site_label
_atom_site_fract_x
_atom_site_fract_y
_atom_site_fract_z
Si Si1 0.114680 0.755612 0.067642
Si Si2 0.214552 0.703776 0.933129
Si Si3 0.316860 0.641428 0.932392
Si Si4 0.500000 0.398246 0.066872
Si Si5 0.611855 0.445523 0.931671
Si Si6 0.500000 0.285721 0.567933
O O1 0.109201 0.751933 0.250000
O O2 0.145797 0.808915 0.034928
O O3 0.154357 0.711548 0.005315
O O4 0.055334 0.758093 0.988471
O O5 0.211420 0.708298 0.750000
O O6 0.253202 0.655848 0.968198
O O7 0.250000 0.750000 0.000000
O O8 0.321375 0.632377 0.750000
O O9 0.341606 0.594886 0.022596
O O10 0.500000 0.398291 0.250000
O O11 0.554559 0.425715 0.004750
O O12 0.500000 0.341079 0.007451
O O13 0.605760 0.448361 0.750000
O O14 0.624541 0.500000 0.000000
O O15 0.500000 0.290949 0.750000
#
# Coordination Sequence:
#
# PCOD9469944 Si02
#       6
#    16  16  16   8  16   8
#     4  10  19  31  47  66  91 118 147 184 226 268
#     4   9  17  29  46  66  89 113 144 182 223 270
#     4   9  18  32  48  65  88 115 145 186 230 269
#     4  12  23  37  50  62  87 116 152 195 237 275
#     4  12  24  36  50  66  86 115 154 195 236 276
#     4  12  22  31  47  68  90 120 156 189 228 271
#
# _framework density 14.225769
#
# number of rings (size 3 to 8) (size 9 to 14) (size 15 to 20)
#    0.000    1.600    2.000    6.300    0.000    4.000 
#    0.000    0.000    0.000    0.000    0.000    0.000 
#    0.000    0.000    0.000    0.900    0.000   12.000 
#
# Total GULP energy -223229.699143 kJ/mol
# GULP energy per Si atom -5580.742479 kJ/mol
# Density = 1.419339 g / cm^3
# Si number density = 14.225769 Si / 1000 Ang^3
#
#
#
# Elastic Constant Matrix: (Units=GPa)
#
#
# Indices 1 2 3 4 5 6 
#
# 1 103.4353 53.6579 64.0744 0.0000 0.0000 0.0000
# 2 53.6579 59.6052 47.7935 0.0000 0.0000 0.0000
# 3 64.0744 47.7935 108.2895 0.0000 0.0000 0.0000
# 4 0.0000 0.0000 0.0000 19.9583 0.0000 0.0000
# 5 0.0000 0.0000 0.0000 0.0000 25.3966 0.0000
# 6 0.0000 0.0000 0.0000 0.0000 0.0000 4.0251
#
#
#
# Elastic Compliance Matrix: (Units=1/GPa)
#
#
# Indices 1 2 3 4 5 6 
#
# 1 0.020492 -0.013504 -0.006165 0.000000 0.000000 0.000000
# 2 -0.013504 0.034865 -0.007397 0.000000 0.000000 0.000000
# 3 -0.006165 -0.007397 0.016147 0.000000 0.000000 0.000000
# 4 0.000000 0.000000 0.000000 0.050104 0.000000 0.000000
# 5 0.000000 0.000000 0.000000 0.000000 0.039375 0.000000
# 6 0.000000 0.000000 0.000000 0.000000 0.000000 0.248439
#
#
# Mechanical properties :
#
#
# Convention : Reuss Voigt Hill
#
# Bulk Modulus (GPa) = 57.56599 66.93128 62.24863
# Shear Modulus (GPa) = 10.65307 16.92962 13.79135
#
# Velocity S-wave (km/s) = 2.73949 3.45348 3.11700
# Velocity P-wave (km/s) = 7.11058 7.94062 7.53703
#
# Compressibility (1/GPa) = 0.01737137
#
# Stress axis : x y z
#
# Youngs Moduli (GPa) = 48.79846 28.68174 61.93009
#
# Poissons Ratio (x) = 0.38733 0.38181
# Poissons Ratio (y) = 0.65899 0.45812
# Poissons Ratio (z) = 0.30085 0.21217
#
# Static dielectric constant tensor:
#      x y z
#    x 1.476190 0.000000 0.000000 
#    y 0.000000 1.448230 0.000000 
#    z 0.000000 0.000000 1.470250 
# 
# From -- ./inp_files/8056.got.cif
#   From: 2010.05.17/outbox.cif.g08.bks.cpg/sg63_5_cif.got.tgz:8056.got - 2010.06.03 15:47:04.
