data_PCOD9469781
_publ_section_title
;
Structure prediction by ZEFSAII (Michael W. Deem and Ramdas Pophale) SiO2 
 PCOD9469781
Probable space group: C M C M
;
_chemical_formula_sum "Si O2"
_cell_formula_units_Z 96
_cell_length_a 7.789385
_cell_length_b 28.833374
_cell_length_c 24.360967
_cell_angle_alpha 90.000000
_cell_angle_beta 90.000000
_cell_angle_gamma 90.000000
_cell_volume 5471.333135
_symmetry_space_group_name_H-M "C M C M"
_symmetry_group_IT_number 63
_symmetry_cell_setting 'orthorhombic'
loop_
_space_group_symop_operation_xyz
x,y,z
-x,-y,1/2+z
x,-y,-z
-x,y,1/2-z
-x,-y,-z
x,y,1/2-z
-x,y,z
x,-y,1/2+z
1/2+x,1/2+y,z
1/2-x,1/2-y,1/2+z
1/2+x,1/2-y,-z
1/2-x,1/2+y,1/2-z
1/2-x,1/2-y,-z
1/2+x,1/2+y,1/2-z
1/2-x,1/2+y,z
1/2+x,1/2-y,1/2+z
loop_
_atom_site_type_symbol
_atom_site_label
_atom_site_fract_x
_atom_site_fract_y
_atom_site_fract_z
Si Si1 0.702713 0.675642 0.018594
Si Si2 0.205979 0.924649 0.188142
Si Si3 0.705057 0.819074 0.187806
Si Si4 0.703245 0.737131 0.917889
Si Si5 0.290393 0.482301 0.085736
Si Si6 0.209568 0.071832 0.024823
O O1 0.500000 0.669326 0.008697
O O2 0.724421 0.712394 0.067552
O O3 0.772756 0.624409 0.029902
O O4 0.773478 0.701099 0.963961
O O5 0.273952 0.931509 0.250000
O O6 0.240808 0.871330 0.172095
O O7 0.271913 0.959979 0.142280
O O8 0.000000 0.929908 0.190322
O O9 0.769977 0.810408 0.250000
O O10 0.500000 0.817935 0.189391
O O11 0.763737 0.782910 0.142118
O O12 0.500000 0.740558 0.926188
O O13 0.500000 0.482624 0.087366
O O14 0.233885 0.534239 0.070119
O O15 0.243512 0.449400 0.034453
O O16 0.000000 0.072019 0.027073
#
# Coordination Sequence:
#
# PCOD9469781 Si02
#       6
#    16  16  16  16  16  16
#     4   9  17  29  45  66  91 119 150 183 221 263
#     4   9  16  26  42  64  88 111 137 173 214 255
#     4  10  20  32  46  65  89 116 145 178 219 267
#     4  10  19  30  46  67  89 115 148 185 224 265
#     4   8  13  22  38  62  87 111 142 176 211 250
#     4   8  13  22  39  61  85 113 143 176 211 250
#
# _framework density 17.545998999999998
#
# number of rings (size 3 to 8) (size 9 to 14) (size 15 to 20)
#    0.000    3.000    0.000    3.000    0.000    4.333 
#    0.000    0.000    0.000    2.000    0.000    8.167 
#    0.000    0.000    0.000    0.000    0.000    0.000 
#
# Total GULP energy -267482.172835 kJ/mol
# GULP energy per Si atom -5572.545267 kJ/mol
# Density = 1.750606 g / cm^3
# Si number density = 17.545999 Si / 1000 Ang^3
#
#
#
# Elastic Constant Matrix: (Units=GPa)
#
#
# Indices 1 2 3 4 5 6 
#
# 1 16.6492 -3.7674 -9.0168 0.0000 0.0000 0.0000
# 2 -3.7674 164.0965 68.6985 0.0000 0.0000 0.0000
# 3 -9.0168 68.6985 77.5973 0.0000 0.0000 0.0000
# 4 0.0000 0.0000 0.0000 26.8715 0.0000 0.0000
# 5 0.0000 0.0000 0.0000 0.0000 8.8309 0.0000
# 6 0.0000 0.0000 0.0000 0.0000 0.0000 2.6923
#
#
#
# Elastic Compliance Matrix: (Units=1/GPa)
#
#
# Indices 1 2 3 4 5 6 
#
# 1 0.064811 -0.002645 0.009873 0.000000 0.000000 0.000000
# 2 -0.002645 0.009791 -0.008975 0.000000 0.000000 0.000000
# 3 0.009873 -0.008975 0.021980 0.000000 0.000000 0.000000
# 4 0.000000 0.000000 0.000000 0.037214 0.000000 0.000000
# 5 0.000000 0.000000 0.000000 0.000000 0.113238 0.000000
# 6 0.000000 0.000000 0.000000 0.000000 0.000000 0.371432
#
#
# Mechanical properties :
#
#
# Convention : Reuss Voigt Hill
#
# Bulk Modulus (GPa) = 10.74262 41.13018 25.93640
# Shear Modulus (GPa) = 7.65707 21.17418 14.41563
#
# Velocity S-wave (km/s) = 2.09128 3.47764 2.86945
# Velocity P-wave (km/s) = 3.45935 6.29425 5.07862
#
# Compressibility (1/GPa) = 0.09308715
#
# Stress axis : x y z
#
# Youngs Moduli (GPa) = 15.42939 102.13736 45.49521
#
# Poissons Ratio (x) = 0.27019 -0.44918
# Poissons Ratio (y) = 0.04082 0.40833
# Poissons Ratio (z) = -0.15233 0.91672
#
# Static dielectric constant tensor:
#      x y z
#    x 1.655670 0.000000 0.000000 
#    y 0.000000 1.595240 0.000000 
#    z 0.000000 0.000000 1.379650 
# 
# From -- ./inp_files/60243.got.cif
#   From: 2010.05.17/outbox.cif.g08.bks.cpg/sg63_31_cif.got.tgz:60243.got - 2010.06.03 15:47:04.
