data_PCOD9469577
_publ_section_title
;
Structure prediction by ZEFSAII (Michael W. Deem and Ramdas Pophale) SiO2 
 PCOD9469577
Probable space group: C M C M
;
_chemical_formula_sum "Si O2"
_cell_formula_units_Z 104
_cell_length_a 24.111896
_cell_length_b 13.100346
_cell_length_c 14.847361
_cell_angle_alpha 90.000000
_cell_angle_beta 90.000000
_cell_angle_gamma 90.000000
_cell_volume 4689.897986
_symmetry_space_group_name_H-M "C M C M"
_symmetry_group_IT_number 63
_symmetry_cell_setting 'orthorhombic'
loop_
_space_group_symop_operation_xyz
x,y,z
-x,-y,1/2+z
x,-y,-z
-x,y,1/2-z
-x,-y,-z
x,y,1/2-z
-x,y,z
x,-y,1/2+z
1/2+x,1/2+y,z
1/2-x,1/2-y,1/2+z
1/2+x,1/2-y,-z
1/2-x,1/2+y,1/2-z
1/2-x,1/2-y,-z
1/2+x,1/2+y,1/2-z
1/2-x,1/2+y,z
1/2+x,1/2-y,1/2+z
loop_
_atom_site_type_symbol
_atom_site_label
_atom_site_fract_x
_atom_site_fract_y
_atom_site_fract_z
Si Si1 0.441208 0.971652 0.394456
Si Si2 0.904443 0.256423 0.077348
Si Si3 0.193213 0.725725 0.046812
Si Si4 0.816172 0.482924 0.607518
Si Si5 0.840629 0.176919 0.250000
Si Si6 0.110378 0.099851 0.940569
Si Si7 0.860855 0.943439 0.250000
Si Si8 0.259390 0.129711 0.750000
O O1 0.500000 0.011036 0.356457
O O2 0.440740 0.849016 0.388156
O O3 0.441665 0.000000 0.500000
O O4 0.380911 0.008411 0.362872
O O5 0.877052 0.198989 0.160856
O O6 0.926687 0.177232 0.001764
O O7 0.853784 0.311301 0.024158
O O8 0.199836 0.636460 0.119155
O O9 0.166487 0.834378 0.069150
O O10 0.250000 0.750000 0.000000
O O11 0.806862 0.500000 0.500000
O O12 0.781231 0.563329 0.664924
O O13 0.831731 0.055458 0.250000
O O14 0.790862 0.260496 0.250000
O O15 0.100322 0.070048 0.837808
O O16 0.118393 0.000000 0.000000
O O17 0.807237 0.868691 0.250000
#
# Coordination Sequence:
#
# PCOD9469577 Si02
#       8
#    16  16  16  16   8  16   8   8
#     4  10  18  37  67  96 122 160 205 259 329 383
#     4  10  21  38  59  85 119 161 202 256 312 372
#     4  10  22  34  57  76 120 168 204 237 298 365
#     4  11  21  40  56  86 123 168 197 262 310 366
#     4  12  22  40  56  84 121 163 217 256 305 371
#     4  10  22  38  55  81 117 159 212 249 310 358
#     4  12  26  36  58  88 112 180 214 258 304 381
#     4  12  28  34  60  84 129 155 221 256 311 370
#
# _framework density 22.175322000000001
#
# number of rings (size 3 to 8) (size 9 to 14) (size 15 to 20)
#    0.923    0.462    6.154    0.000    8.615    0.615 
#    0.000    1.538    0.000    0.462    0.000    1.615 
#    0.000    0.000    0.000    0.000    0.000    0.000 
#
# Total GULP energy -289632.963205 kJ/mol
# GULP energy per Si atom -5569.864677 kJ/mol
# Density = 2.212485 g / cm^3
# Si number density = 22.175322 Si / 1000 Ang^3
#
#
#
# Elastic Constant Matrix: (Units=GPa)
#
#
# Indices 1 2 3 4 5 6 
#
# 1 59.5843 -3.4425 -3.4124 0.0000 0.0000 0.0000
# 2 -3.4425 87.4493 8.6067 0.0000 0.0000 0.0000
# 3 -3.4124 8.6067 116.5103 0.0000 0.0000 0.0000
# 4 0.0000 0.0000 0.0000 4.3962 0.0000 0.0000
# 5 0.0000 0.0000 0.0000 0.0000 15.9115 0.0000
# 6 0.0000 0.0000 0.0000 0.0000 0.0000 12.1710
#
#
#
# Elastic Compliance Matrix: (Units=1/GPa)
#
#
# Indices 1 2 3 4 5 6 
#
# 1 0.016844 0.000619 0.000448 0.000000 0.000000 0.000000
# 2 0.000619 0.011542 -0.000834 0.000000 0.000000 0.000000
# 3 0.000448 -0.000834 0.008658 0.000000 0.000000 0.000000
# 4 0.000000 0.000000 0.000000 0.227467 0.000000 0.000000
# 5 0.000000 0.000000 0.000000 0.000000 0.062847 0.000000
# 6 0.000000 0.000000 0.000000 0.000000 0.000000 0.082163
#
#
# Mechanical properties :
#
#
# Convention : Reuss Voigt Hill
#
# Bulk Modulus (GPa) = 26.66090 29.67193 28.16641
# Shear Modulus (GPa) = 11.86071 23.94856 17.90464
#
# Velocity S-wave (km/s) = 2.31522 3.28985 2.84458
# Velocity P-wave (km/s) = 4.38131 5.27640 4.84955
#
# Compressibility (1/GPa) = 0.03750812
#
# Stress axis : x y z
#
# Youngs Moduli (GPa) = 59.36708 86.64243 115.50434
#
# Poissons Ratio (x) = -0.05364 -0.05170
# Poissons Ratio (y) = -0.03675 0.09638
# Poissons Ratio (z) = -0.02657 0.07230
#
# Static dielectric constant tensor:
#      x y z
#    x 1.804470 0.000000 0.000000 
#    y 0.000000 1.910770 0.000000 
#    z 0.000000 0.000000 1.904000 
# 
# From -- ./inp_files/49065.got.cif
#   From: 2010.05.17/outbox.cif.g08.bks.cpg/sg63_25_cif.got.tgz:49065.got - 2010.06.03 15:47:04.
