data_PCOD9469324
_publ_section_title
;
Structure prediction by ZEFSAII (Michael W. Deem and Ramdas Pophale) SiO2 
 PCOD9469324
Probable space group: C M C M
;
_chemical_formula_sum "Si O2"
_cell_formula_units_Z 56
_cell_length_a 23.181327
_cell_length_b 14.393793
_cell_length_c 8.484203
_cell_angle_alpha 90.000000
_cell_angle_beta 90.000000
_cell_angle_gamma 90.000000
_cell_volume 2830.900448
_symmetry_space_group_name_H-M "C M C M"
_symmetry_group_IT_number 63
_symmetry_cell_setting 'orthorhombic'
loop_
_space_group_symop_operation_xyz
x,y,z
-x,-y,1/2+z
x,-y,-z
-x,y,1/2-z
-x,-y,-z
x,y,1/2-z
-x,y,z
x,-y,1/2+z
1/2+x,1/2+y,z
1/2-x,1/2-y,1/2+z
1/2+x,1/2-y,-z
1/2-x,1/2+y,1/2-z
1/2-x,1/2-y,-z
1/2+x,1/2+y,1/2-z
1/2-x,1/2+y,z
1/2+x,1/2-y,1/2+z
loop_
_atom_site_type_symbol
_atom_site_label
_atom_site_fract_x
_atom_site_fract_y
_atom_site_fract_z
Si Si1 0.000000 0.894386 0.938869
Si Si2 0.145787 0.596813 0.935798
Si Si3 0.735336 0.352727 0.561743
Si Si4 0.383405 0.301666 0.437864
O O1 0.000000 0.893800 0.750000
O O2 0.056502 0.842015 0.002411
O O3 0.000000 0.000000 0.000000
O O4 0.137174 0.603303 0.750000
O O5 0.120133 0.500000 0.000000
O O6 0.214193 0.592775 0.974232
O O7 0.123499 0.693047 0.012534
O O8 0.741811 0.360582 0.750000
O O9 0.750000 0.250000 0.500000
O O10 0.668869 0.362280 0.512785
O O11 0.378692 0.307259 0.250000
#
# Coordination Sequence:
#
# PCOD9469324 Si02
#       4
#     8  16  16  16
#     4  12  26  46  67  90 115 150 196 246 296 350
#     4  11  21  36  58  89 124 161 199 243 294 354
#     4  10  18  32  54  83 116 154 193 237 287 342
#     4  11  22  40  62  88 120 158 198 245 297 352
#
# _framework density 19.781692
#
# number of rings (size 3 to 8) (size 9 to 14) (size 15 to 20)
#    0.000    1.143    0.000   12.429    0.000    1.143 
#    0.000    6.429    0.000    0.000    0.000    0.000 
#    0.000    0.000    0.000    0.000    0.000    0.000 
#
# Total GULP energy -156336.377984 kJ/mol
# GULP energy per Si atom -5583.442071 kJ/mol
# Density = 1.973667 g / cm^3
# Si number density = 19.781692 Si / 1000 Ang^3
#
#
#
# Elastic Constant Matrix: (Units=GPa)
#
#
# Indices 1 2 3 4 5 6 
#
# 1 110.4486 18.1876 -4.6200 0.0000 0.0000 0.0000
# 2 18.1876 94.4967 -15.1461 0.0000 0.0000 0.0000
# 3 -4.6200 -15.1461 121.8434 0.0000 0.0000 0.0000
# 4 0.0000 0.0000 0.0000 25.2636 0.0000 0.0000
# 5 0.0000 0.0000 0.0000 0.0000 33.2299 0.0000
# 6 0.0000 0.0000 0.0000 0.0000 0.0000 18.4248
#
#
#
# Elastic Compliance Matrix: (Units=1/GPa)
#
#
# Indices 1 2 3 4 5 6 
#
# 1 0.009352 -0.001779 0.000134 0.000000 0.000000 0.000000
# 2 -0.001779 0.011136 0.001317 0.000000 0.000000 0.000000
# 3 0.000134 0.001317 0.008376 0.000000 0.000000 0.000000
# 4 0.000000 0.000000 0.000000 0.039583 0.000000 0.000000
# 5 0.000000 0.000000 0.000000 0.000000 0.030093 0.000000
# 6 0.000000 0.000000 0.000000 0.000000 0.000000 0.054275
#
#
# Mechanical properties :
#
#
# Convention : Reuss Voigt Hill
#
# Bulk Modulus (GPa) = 35.45140 35.95909 35.70524
# Shear Modulus (GPa) = 30.69857 37.27481 33.98669
#
# Velocity S-wave (km/s) = 3.94365 4.34557 4.14948
# Velocity P-wave (km/s) = 6.22067 6.58757 6.40675
#
# Compressibility (1/GPa) = 0.02820763
#
# Stress axis : x y z
#
# Youngs Moduli (GPa) = 106.92371 89.80065 119.38858
#
# Poissons Ratio (x) = 0.15972 -0.01594
# Poissons Ratio (y) = 0.19018 -0.15721
# Poissons Ratio (z) = -0.01428 -0.11825
#
# Static dielectric constant tensor:
#      x y z
#    x 1.717520 0.000000 0.000000 
#    y 0.000000 1.669120 0.000000 
#    z 0.000000 0.000000 1.654690 
# 
# From -- ./inp_files/9521.got.cif
#   From: 2010.05.17/outbox.cif.g08.bks.cpg/sg63_5_cif.got.tgz:9521.got - 2010.06.03 15:47:04.
