data_PCOD9469604
_publ_section_title
;
Structure prediction by ZEFSAII (Michael W. Deem and Ramdas Pophale) SiO2 
 PCOD9469604
Probable space group: C M C M
;
_chemical_formula_sum "Si O2"
_cell_formula_units_Z 80
_cell_length_a 7.338881
_cell_length_b 27.960531
_cell_length_c 19.174805
_cell_angle_alpha 90.000000
_cell_angle_beta 90.000000
_cell_angle_gamma 90.000000
_cell_volume 3934.650997
_symmetry_space_group_name_H-M "C M C M"
_symmetry_group_IT_number 63
_symmetry_cell_setting 'orthorhombic'
loop_
_space_group_symop_operation_xyz
x,y,z
-x,-y,1/2+z
x,-y,-z
-x,y,1/2-z
-x,-y,-z
x,y,1/2-z
-x,y,z
x,-y,1/2+z
1/2+x,1/2+y,z
1/2-x,1/2-y,1/2+z
1/2+x,1/2-y,-z
1/2-x,1/2+y,1/2-z
1/2-x,1/2-y,-z
1/2+x,1/2+y,1/2-z
1/2-x,1/2+y,z
1/2+x,1/2-y,1/2+z
loop_
_atom_site_type_symbol
_atom_site_label
_atom_site_fract_x
_atom_site_fract_y
_atom_site_fract_z
Si Si1 0.787941 0.798479 0.171919
Si Si2 0.222051 0.050525 0.470276
Si Si3 0.721816 0.594125 0.172807
Si Si4 0.219637 0.195247 0.390362
Si Si5 0.277531 0.651331 0.534436
O O1 0.709948 0.802250 0.250000
O O2 0.780977 0.744003 0.144728
O O3 0.710982 0.830379 0.108990
O O4 0.000000 0.811862 0.177164
O O5 0.279058 0.060428 0.390711
O O6 0.276260 0.097396 0.514326
O O7 0.000000 0.050099 0.471007
O O8 0.284177 0.000000 0.500000
O O9 0.783369 0.581096 0.250000
O O10 0.500000 0.593798 0.172982
O O11 0.775627 0.648247 0.152855
O O12 0.278580 0.185837 0.470272
O O13 0.000000 0.196301 0.390366
O O14 0.500000 0.652390 0.534734
#
# Coordination Sequence:
#
# PCOD9469604 Si02
#       5
#    16  16  16  16  16
#     4  10  19  28  38  56  85 114 133 155 193 238
#     4   8  13  22  36  52  72 100 130 157 190 236
#     4   8  13  21  34  54  76  94 119 162 206 230
#     4   9  16  27  44  60  76 104 139 169 194 226
#     4   8  15  27  40  55  77 105 134 163 198 236
#
# _framework density 20.332170999999999
#
# number of rings (size 3 to 8) (size 9 to 14) (size 15 to 20)
#    0.000    3.400    0.000    3.600    0.000    1.200 
#    0.000    1.000    0.000    6.000    0.000    0.000 
#    0.000   20.000    0.000    5.600    0.000    7.200 
#
# Total GULP energy -223139.386805 kJ/mol
# GULP energy per Si atom -5578.484670 kJ/mol
# Density = 2.028589 g / cm^3
# Si number density = 20.332171 Si / 1000 Ang^3
#
#
#
# Elastic Constant Matrix: (Units=GPa)
#
#
# Indices 1 2 3 4 5 6 
#
# 1 76.2200 -4.1262 7.7813 0.0000 0.0000 0.0000
# 2 -4.1262 104.0099 109.6976 0.0000 0.0000 0.0000
# 3 7.7813 109.6976 237.1396 0.0000 0.0000 0.0000
# 4 0.0000 0.0000 0.0000 20.0269 0.0000 0.0000
# 5 0.0000 0.0000 0.0000 0.0000 -5.1125 0.0000
# 6 0.0000 0.0000 0.0000 0.0000 0.0000 -19.5482
#
#
#
# Elastic Compliance Matrix: (Units=1/GPa)
#
#
# Indices 1 2 3 4 5 6 
#
# 1 0.013361 0.001938 -0.001335 0.000000 0.000000 0.000000
# 2 0.001938 0.019055 -0.008878 0.000000 0.000000 0.000000
# 3 -0.001335 -0.008878 0.008368 0.000000 0.000000 0.000000
# 4 0.000000 0.000000 0.000000 0.049933 0.000000 0.000000
# 5 0.000000 0.000000 0.000000 0.000000 -0.195598 0.000000
# 6 0.000000 0.000000 0.000000 0.000000 0.000000 -0.051156
#
#
# Mechanical properties :
#
#
# Convention : Reuss Voigt Hill
#
# Bulk Modulus (GPa) = 41.26518 71.56388 56.41453
# Shear Modulus (GPa) = -38.04917 19.34103 -9.35407
#
# Velocity S-wave (km/s) = -4.33064 3.08758 -2.14723
# Velocity P-wave (km/s) = 2.16016 6.92710 4.65394
#
# Compressibility (1/GPa) = 0.02423351
#
# Stress axis : x y z
#
# Youngs Moduli (GPa) = 74.84411 52.47960 119.50779
#
# Poissons Ratio (x) = -0.10170 0.15953
# Poissons Ratio (y) = -0.14504 1.06101
# Poissons Ratio (z) = 0.09991 0.46592
#
# Static dielectric constant tensor:
#      x y z
#    x 1.873760 0.000000 0.000000 
#    y 0.000000 1.667870 0.000000 
#    z 0.000000 0.000000 1.732850 
# 
# From -- ./inp_files/30220.got.cif
#   From: 2010.05.17/outbox.cif.g08.bks.cpg/sg63_16_cif.got.tgz:30220.got - 2010.06.03 15:47:04.
