data_PCOD9469856
_publ_section_title
;
Structure prediction by ZEFSAII (Michael W. Deem and Ramdas Pophale) SiO2 
 PCOD9469856
Probable space group: C M C M
;
_chemical_formula_sum "Si O2"
_cell_formula_units_Z 68
_cell_length_a 26.925385
_cell_length_b 7.256204
_cell_length_c 13.105744
_cell_angle_alpha 90.000000
_cell_angle_beta 90.000000
_cell_angle_gamma 90.000000
_cell_volume 2560.548971
_symmetry_space_group_name_H-M "C M C M"
_symmetry_group_IT_number 63
_symmetry_cell_setting 'orthorhombic'
loop_
_space_group_symop_operation_xyz
x,y,z
-x,-y,1/2+z
x,-y,-z
-x,y,1/2-z
-x,-y,-z
x,y,1/2-z
-x,y,z
x,-y,1/2+z
1/2+x,1/2+y,z
1/2-x,1/2-y,1/2+z
1/2+x,1/2-y,-z
1/2-x,1/2+y,1/2-z
1/2-x,1/2-y,-z
1/2+x,1/2+y,1/2-z
1/2-x,1/2+y,z
1/2+x,1/2-y,1/2+z
loop_
_atom_site_type_symbol
_atom_site_label
_atom_site_fract_x
_atom_site_fract_y
_atom_site_fract_z
Si Si1 0.813058 0.337759 0.135058
Si Si2 0.000000 0.616421 0.750000
Si Si3 0.294225 0.596188 0.864844
Si Si4 0.920871 0.276129 0.419499
Si Si5 0.404461 0.340162 0.129668
O O1 0.814060 0.413908 0.250000
O O2 0.760167 0.391071 0.087493
O O3 0.807918 0.117157 0.138986
O O4 0.867153 0.370798 0.091613
O O5 0.957404 0.632348 0.659925
O O6 0.287280 0.667998 0.750000
O O7 0.345799 0.685558 0.899968
O O8 0.933974 0.262805 0.539770
O O9 0.916250 0.059202 0.383757
O O10 0.412232 0.295104 0.250000
#
# Coordination Sequence:
#
# PCOD9469856 Si02
#       5
#    16   4  16  16  16
#     4   9  15  29  46  75 103 142 168 211 250 317
#     4  12  20  34  46  72  92 138 176 216 260 308
#     4   8  15  26  48  69 107 139 171 198 260 308
#     4  10  19  30  48  64 102 130 171 214 257 296
#     4   9  17  32  44  68  95 134 162 207 254 315
#
# _framework density 26.556806999999999
#
# number of rings (size 3 to 8) (size 9 to 14) (size 15 to 20)
#    0.000    2.824    2.353    1.412    0.000    2.824 
#    0.000    0.000    0.000    0.000    0.000    0.000 
#    0.000   18.824    0.471    0.000    0.471    0.000 
#
# Total GULP energy -189467.788193 kJ/mol
# GULP energy per Si atom -5572.582006 kJ/mol
# Density = 2.649636 g / cm^3
# Si number density = 26.556807 Si / 1000 Ang^3
#
#
#
# Elastic Constant Matrix: (Units=GPa)
#
#
# Indices 1 2 3 4 5 6 
#
# 1 115.3395 35.6295 71.1595 0.0000 0.0000 0.0000
# 2 35.6295 73.8343 46.2058 0.0000 0.0000 0.0000
# 3 71.1595 46.2058 237.1004 0.0000 0.0000 0.0000
# 4 0.0000 0.0000 0.0000 17.5430 0.0000 0.0000
# 5 0.0000 0.0000 0.0000 0.0000 -65.4651 0.0000
# 6 0.0000 0.0000 0.0000 0.0000 0.0000 401.7972
#
#
#
# Elastic Compliance Matrix: (Units=1/GPa)
#
#
# Indices 1 2 3 4 5 6 
#
# 1 0.011537 -0.003873 -0.002708 0.000000 0.000000 0.000000
# 2 -0.003873 0.016725 -0.002097 0.000000 0.000000 0.000000
# 3 -0.002708 -0.002097 0.005439 0.000000 0.000000 0.000000
# 4 0.000000 0.000000 0.000000 0.057003 0.000000 0.000000
# 5 0.000000 0.000000 0.000000 0.000000 -0.015275 0.000000
# 6 0.000000 0.000000 0.000000 0.000000 0.000000 0.002489
#
#
# Mechanical properties :
#
#
# Convention : Reuss Voigt Hill
#
# Bulk Modulus (GPa) = 61.17788 81.36265 71.27026
# Shear Modulus (GPa) = 49.64211 88.99367 69.31789
#
# Velocity S-wave (km/s) = 4.32821 5.79512 5.11453
# Velocity P-wave (km/s) = 6.93285 8.68802 7.85958
#
# Compressibility (1/GPa) = 0.01634578
#
# Stress axis : x y z
#
# Youngs Moduli (GPa) = 86.67774 59.79074 183.85836
#
# Poissons Ratio (x) = 0.23155 0.49785
# Poissons Ratio (y) = 0.33568 0.38556
# Poissons Ratio (z) = 0.23471 0.12538
#
# Static dielectric constant tensor:
#      x y z
#    x 2.038200 0.000000 0.000000 
#    y 0.000000 2.142950 0.000000 
#    z 0.000000 0.000000 2.082480 
# 
# From -- ./inp_files/37652.got.cif
#   From: 2010.05.17/outbox.cif.g08.bks.cpg/sg63_19_cif.got.tgz:37652.got - 2010.06.03 15:47:04.
