data_PCOD9469291
_publ_section_title
;
Structure prediction by ZEFSAII (Michael W. Deem and Ramdas Pophale) SiO2 
 PCOD9469291
Probable space group: C M C M
;
_chemical_formula_sum "Si O2"
_cell_formula_units_Z 96
_cell_length_a 28.932458
_cell_length_b 21.228942
_cell_length_c 7.690476
_cell_angle_alpha 90.000000
_cell_angle_beta 90.000000
_cell_angle_gamma 90.000000
_cell_volume 4723.532448
_symmetry_space_group_name_H-M "C M C M"
_symmetry_group_IT_number 63
_symmetry_cell_setting 'orthorhombic'
loop_
_space_group_symop_operation_xyz
x,y,z
-x,-y,1/2+z
x,-y,-z
-x,y,1/2-z
-x,-y,-z
x,y,1/2-z
-x,y,z
x,-y,1/2+z
1/2+x,1/2+y,z
1/2-x,1/2-y,1/2+z
1/2+x,1/2-y,-z
1/2-x,1/2+y,1/2-z
1/2-x,1/2-y,-z
1/2+x,1/2+y,1/2-z
1/2-x,1/2+y,z
1/2+x,1/2-y,1/2+z
loop_
_atom_site_type_symbol
_atom_site_label
_atom_site_fract_x
_atom_site_fract_y
_atom_site_fract_z
Si Si1 0.080430 0.200263 0.551599
Si Si2 0.055394 0.931554 0.054533
Si Si3 0.863350 0.573483 0.458655
Si Si4 0.552396 0.161717 0.462987
Si Si5 0.683469 0.297809 0.952806
Si Si6 0.220108 0.659541 0.461562
O O1 0.061602 0.200638 0.750000
O O2 0.066147 0.134597 0.463249
O O3 0.063995 0.267075 0.476748
O O4 0.135714 0.198619 0.552926
O O5 0.073034 0.923901 0.250000
O O6 0.000000 0.936045 0.055512
O O7 0.073143 0.000000 0.000000
O O8 0.866627 0.500000 0.500000
O O9 0.863306 0.579517 0.250000
O O10 0.907518 0.613888 0.522307
O O11 0.815234 0.605338 0.519198
O O12 0.553986 0.161908 0.250000
O O13 0.500000 0.144654 0.513415
O O14 0.674332 0.311094 0.750000
O O15 0.726008 0.341648 0.013896
O O16 0.700749 0.226009 0.971357
O O17 0.219898 0.662237 0.250000
#
# Coordination Sequence:
#
# PCOD9469291 Si02
#       6
#    16  16  16  16  16  16
#     4  10  18  32  53  77 105 137 172 210 255 310
#     4   9  18  32  51  74 100 135 175 212 253 306
#     4  10  20  35  54  75 103 138 175 217 263 310
#     4   9  17  31  53  77 100 133 178 220 256 303
#     4  10  19  30  52  80 104 127 163 212 257 301
#     4   9  18  35  53  73 100 134 169 205 251 307
#
# _framework density 20.323772999999999
#
# number of rings (size 3 to 8) (size 9 to 14) (size 15 to 20)
#    0.000    2.500    1.667    1.000    0.000    4.333 
#    0.000    0.833    0.000    6.500    0.000    0.000 
#    0.000    0.000    0.000    0.000    0.000    0.000 
#
# Total GULP energy -267459.857277 kJ/mol
# GULP energy per Si atom -5572.080360 kJ/mol
# Density = 2.027751 g / cm^3
# Si number density = 20.323773 Si / 1000 Ang^3
#
#
#
# Elastic Constant Matrix: (Units=GPa)
#
#
# Indices 1 2 3 4 5 6 
#
# 1 86.2698 40.4526 1.0647 0.0000 0.0000 0.0000
# 2 40.4526 141.4701 0.0392 0.0000 0.0000 0.0000
# 3 1.0647 0.0392 31.7280 0.0000 0.0000 0.0000
# 4 0.0000 0.0000 0.0000 18.1140 0.0000 0.0000
# 5 0.0000 0.0000 0.0000 0.0000 10.9762 0.0000
# 6 0.0000 0.0000 0.0000 0.0000 0.0000 23.2814
#
#
#
# Elastic Compliance Matrix: (Units=1/GPa)
#
#
# Indices 1 2 3 4 5 6 
#
# 1 0.013393 -0.003829 -0.000445 0.000000 0.000000 0.000000
# 2 -0.003829 0.008164 0.000118 0.000000 0.000000 0.000000
# 3 -0.000445 0.000118 0.031533 0.000000 0.000000 0.000000
# 4 0.000000 0.000000 0.000000 0.055206 0.000000 0.000000
# 5 0.000000 0.000000 0.000000 0.000000 0.091106 0.000000
# 6 0.000000 0.000000 0.000000 0.000000 0.000000 0.042953
#
#
# Mechanical properties :
#
#
# Convention : Reuss Voigt Hill
#
# Bulk Modulus (GPa) = 22.33260 38.06454 30.19857
# Shear Modulus (GPa) = 18.82595 25.00175 21.91385
#
# Velocity S-wave (km/s) = 3.04682 3.51119 3.28721
# Velocity P-wave (km/s) = 4.83630 5.93360 5.41283
#
# Compressibility (1/GPa) = 0.04477758
#
# Stress axis : x y z
#
# Youngs Moduli (GPa) = 74.66756 122.49479 31.71309
#
# Poissons Ratio (x) = 0.46909 0.01410
# Poissons Ratio (y) = 0.28594 -0.00376
# Poissons Ratio (z) = 0.03320 -0.01451
#
# Static dielectric constant tensor:
#      x y z
#    x 1.724770 0.000000 0.000000 
#    y 0.000000 1.744930 0.000000 
#    z 0.000000 0.000000 1.784100 
# 
# From -- ./inp_files/12385.got.cif
#   From: 2010.05.17/outbox.cif.g08.bks.cpg/sg63_7_cif.got.tgz:12385.got - 2010.06.03 15:47:04.
