data_PCOD9469302
_publ_section_title
;
Structure prediction by ZEFSAII (Michael W. Deem and Ramdas Pophale) SiO2 
 PCOD9469302
Probable space group: C M C M
;
_chemical_formula_sum "Si O2"
_cell_formula_units_Z 96
_cell_length_a 7.401519
_cell_length_b 23.345230
_cell_length_c 24.239358
_cell_angle_alpha 90.000000
_cell_angle_beta 90.000000
_cell_angle_gamma 90.000000
_cell_volume 4188.322630
_symmetry_space_group_name_H-M "C M C M"
_symmetry_group_IT_number 63
_symmetry_cell_setting 'orthorhombic'
loop_
_space_group_symop_operation_xyz
x,y,z
-x,-y,1/2+z
x,-y,-z
-x,y,1/2-z
-x,-y,-z
x,y,1/2-z
-x,y,z
x,-y,1/2+z
1/2+x,1/2+y,z
1/2-x,1/2-y,1/2+z
1/2+x,1/2-y,-z
1/2-x,1/2+y,1/2-z
1/2-x,1/2-y,-z
1/2+x,1/2+y,1/2-z
1/2-x,1/2+y,z
1/2+x,1/2-y,1/2+z
loop_
_atom_site_type_symbol
_atom_site_label
_atom_site_fract_x
_atom_site_fract_y
_atom_site_fract_z
Si Si1 0.220292 0.465457 0.643304
Si Si2 0.786495 0.795268 0.952445
Si Si3 0.711069 0.207946 0.866644
Si Si4 0.220783 0.582600 0.902308
Si Si5 0.220837 0.392105 0.750000
Si Si6 0.284226 0.758883 0.750000
Si Si7 0.204424 0.577554 0.025708
O O1 0.269058 0.532737 0.640947
O O2 0.279146 0.427087 0.695148
O O3 0.285467 0.442648 0.583726
O O4 0.000000 0.462065 0.643934
O O5 0.714114 0.763374 0.898397
O O6 0.697824 0.854251 0.968571
O O7 0.000000 0.807165 0.947439
O O8 0.750000 0.750000 0.000000
O O9 0.500000 0.206003 0.882526
O O10 0.784100 0.146007 0.884891
O O11 0.725773 0.223084 0.803103
O O12 0.000000 0.583944 0.904511
O O13 0.281892 0.566416 0.964659
O O14 0.280184 0.325400 0.750000
O O15 0.000000 0.391661 0.750000
O O16 0.500000 0.761763 0.750000
O O17 0.000000 0.555033 0.025550
#
# Coordination Sequence:
#
# PCOD9469302 Si02
#       7
#    16  16  16  16   8   8  16
#     4   9  17  29  52  79 106 140 181 229 277 324
#     4  11  21  34  54  81 112 147 185 226 276 330
#     4  10  21  37  55  80 112 144 184 226 270 329
#     4   9  17  31  51  79 110 141 180 226 275 326
#     4   9  18  32  47  75 107 133 174 227 278 328
#     4  11  23  38  57  81 111 143 180 227 282 334
#     4  10  18  32  53  81 112 142 181 229 279 329
#
# _framework density 22.920869
#
# number of rings (size 3 to 8) (size 9 to 14) (size 15 to 20)
#    0.000    2.167    1.667    2.250    0.000    5.333 
#    0.000    2.500    0.000    3.000    0.000    4.667 
#    0.000    0.000    0.000    0.000    0.000    0.000 
#
# Total GULP energy -268036.813849 kJ/mol
# GULP energy per Si atom -5584.100289 kJ/mol
# Density = 2.286870 g / cm^3
# Si number density = 22.920869 Si / 1000 Ang^3
#
#
#
# Elastic Constant Matrix: (Units=GPa)
#
#
# Indices 1 2 3 4 5 6 
#
# 1 82.9759 6.6334 -8.4045 0.0000 0.0000 0.0000
# 2 6.6334 116.2445 47.4660 0.0000 0.0000 0.0000
# 3 -8.4045 47.4660 142.9792 0.0000 0.0000 0.0000
# 4 0.0000 0.0000 0.0000 56.7109 0.0000 0.0000
# 5 0.0000 0.0000 0.0000 0.0000 1.1524 0.0000
# 6 0.0000 0.0000 0.0000 0.0000 0.0000 -2.8074
#
#
#
# Elastic Compliance Matrix: (Units=1/GPa)
#
#
# Indices 1 2 3 4 5 6 
#
# 1 0.012255 -0.001149 0.001102 0.000000 0.000000 0.000000
# 2 -0.001149 0.010059 -0.003407 0.000000 0.000000 0.000000
# 3 0.001102 -0.003407 0.008190 0.000000 0.000000 0.000000
# 4 0.000000 0.000000 0.000000 0.017633 0.000000 0.000000
# 5 0.000000 0.000000 0.000000 0.000000 0.867768 0.000000
# 6 0.000000 0.000000 0.000000 0.000000 0.000000 -0.356198
#
#
# Mechanical properties :
#
#
# Convention : Reuss Voigt Hill
#
# Bulk Modulus (GPa) = 42.38084 48.17659 45.27872
# Shear Modulus (GPa) = 8.70349 30.77817 19.74083
#
# Velocity S-wave (km/s) = 1.95075 3.66840 2.93791
# Velocity P-wave (km/s) = 4.85841 6.24557 5.59514
#
# Compressibility (1/GPa) = 0.02359557
#
# Stress axis : x y z
#
# Youngs Moduli (GPa) = 81.59818 99.41027 122.10229
#
# Poissons Ratio (x) = 0.11425 -0.13455
# Poissons Ratio (y) = 0.09378 0.41601
# Poissons Ratio (z) = -0.08991 0.33869
#
# Static dielectric constant tensor:
#      x y z
#    x 2.147090 0.000000 0.000000 
#    y 0.000000 1.841430 0.000000 
#    z 0.000000 0.000000 2.099620 
# 
# From -- ./inp_files/60021.got.cif
#   From: 2010.05.17/outbox.cif.g08.bks.cpg/sg63_31_cif.got.tgz:60021.got - 2010.06.03 15:47:04.
