data_PCOD9469784
_publ_section_title
;
Structure prediction by ZEFSAII (Michael W. Deem and Ramdas Pophale) SiO2 
 PCOD9469784
Probable space group: C M C M
;
_chemical_formula_sum "Si O2"
_cell_formula_units_Z 96
_cell_length_a 26.190335
_cell_length_b 25.895859
_cell_length_c 8.794914
_cell_angle_alpha 90.000000
_cell_angle_beta 90.000000
_cell_angle_gamma 90.000000
_cell_volume 5964.897323
_symmetry_space_group_name_H-M "C M C M"
_symmetry_group_IT_number 63
_symmetry_cell_setting 'orthorhombic'
loop_
_space_group_symop_operation_xyz
x,y,z
-x,-y,1/2+z
x,-y,-z
-x,y,1/2-z
-x,-y,-z
x,y,1/2-z
-x,y,z
x,-y,1/2+z
1/2+x,1/2+y,z
1/2-x,1/2-y,1/2+z
1/2+x,1/2-y,-z
1/2-x,1/2+y,1/2-z
1/2-x,1/2-y,-z
1/2+x,1/2+y,1/2-z
1/2-x,1/2+y,z
1/2+x,1/2-y,1/2+z
loop_
_atom_site_type_symbol
_atom_site_label
_atom_site_fract_x
_atom_site_fract_y
_atom_site_fract_z
Si Si1 0.438037 0.246574 0.075051
Si Si2 0.637791 0.442367 0.931925
Si Si3 0.248435 0.557760 0.432020
Si Si4 0.558463 0.861238 0.432631
Si Si5 0.440488 0.639130 0.934226
Si Si6 0.856069 0.442290 0.432978
O O1 0.421459 0.241384 0.250000
O O2 0.500000 0.248107 0.074789
O O3 0.422902 0.303274 0.016563
O O4 0.423451 0.195351 0.985091
O O5 0.633342 0.445903 0.750000
O O6 0.695055 0.421189 0.966878
O O7 0.633132 0.500000 0.000000
O O8 0.595229 0.404826 0.998805
O O9 0.249912 0.500000 0.500000
O O10 0.242288 0.555808 0.250000
O O11 0.197630 0.580781 0.506692
O O12 0.557213 0.861905 0.250000
O O13 0.500000 0.869146 0.487609
O O14 0.597135 0.905934 0.481686
O O15 0.438564 0.638385 0.750000
O O16 0.500000 0.631874 0.977639
O O17 0.861764 0.500000 0.500000
O O18 0.854503 0.445503 0.250000
#
# Coordination Sequence:
#
# PCOD9469784 Si02
#       6
#    16  16  16  16  16  16
#     4   8  15  29  48  68  89 117 154 189 222 265
#     4  10  20  32  48  70  94 122 154 188 228 272
#     4   9  17  30  47  66  88 116 153 192 226 265
#     4   9  18  31  46  67  95 123 151 186 227 270
#     4   9  18  32  49  70  96 123 151 186 227 271
#     4  10  19  30  46  68  93 122 154 187 226 271
#
# _framework density 16.094158
#
# number of rings (size 3 to 8) (size 9 to 14) (size 15 to 20)
#    0.000    2.833    0.000    3.500    0.000    5.000 
#    0.000    1.667    0.000    1.000    0.000    0.000 
#    0.000    0.000    0.000    0.000    0.000    0.000 
#
# Total GULP energy -267214.078766 kJ/mol
# GULP energy per Si atom -5566.959974 kJ/mol
# Density = 1.605753 g / cm^3
# Si number density = 16.094158 Si / 1000 Ang^3
#
#
#
# Elastic Constant Matrix: (Units=GPa)
#
#
# Indices 1 2 3 4 5 6 
#
# 1 113.4592 72.5580 36.2321 0.0000 0.0000 0.0000
# 2 72.5580 102.6929 29.5601 0.0000 0.0000 0.0000
# 3 36.2321 29.5601 35.2163 0.0000 0.0000 0.0000
# 4 0.0000 0.0000 0.0000 26.7117 0.0000 0.0000
# 5 0.0000 0.0000 0.0000 0.0000 22.5918 0.0000
# 6 0.0000 0.0000 0.0000 0.0000 0.0000 -3.2008
#
#
#
# Elastic Compliance Matrix: (Units=1/GPa)
#
#
# Indices 1 2 3 4 5 6 
#
# 1 0.018735 -0.010139 -0.010765 0.000000 0.000000 0.000000
# 2 -0.010139 0.018327 -0.004952 0.000000 0.000000 0.000000
# 3 -0.010765 -0.004952 0.043629 0.000000 0.000000 0.000000
# 4 0.000000 0.000000 0.000000 0.037437 0.000000 0.000000
# 5 0.000000 0.000000 0.000000 0.000000 0.044264 0.000000
# 6 0.000000 0.000000 0.000000 0.000000 0.000000 -0.312420
#
#
# Mechanical properties :
#
#
# Convention : Reuss Voigt Hill
#
# Bulk Modulus (GPa) = 34.50861 58.67430 46.59146
# Shear Modulus (GPa) = -56.39750 16.75507 -19.82121
#
# Velocity S-wave (km/s) = -5.92607 3.23006 -3.51319
# Velocity P-wave (km/s) = 5.03350 7.10261 3.54337
#
# Compressibility (1/GPa) = 0.02897827
#
# Stress axis : x y z
#
# Youngs Moduli (GPa) = 53.37503 54.56501 22.92065
#
# Poissons Ratio (x) = 0.55322 0.24675
# Poissons Ratio (y) = 0.54115 0.11351
# Poissons Ratio (z) = 0.57461 0.27021
#
# Static dielectric constant tensor:
#      x y z
#    x 1.562310 0.000000 0.000000 
#    y 0.000000 1.535960 0.000000 
#    z 0.000000 0.000000 1.544180 
# 
# From -- ./inp_files/10407.got.cif
#   From: 2010.05.17/outbox.cif.g08.bks.cpg/sg63_6_cif.got.tgz:10407.got - 2010.06.03 15:47:04.
