data_PCOD9469305
_publ_section_title
;
Structure prediction by ZEFSAII (Michael W. Deem and Ramdas Pophale) SiO2 
 PCOD9469305
Probable space group: C M C M
;
_chemical_formula_sum "Si O2"
_cell_formula_units_Z 96
_cell_length_a 14.177695
_cell_length_b 21.298215
_cell_length_c 14.776844
_cell_angle_alpha 90.000000
_cell_angle_beta 90.000000
_cell_angle_gamma 90.000000
_cell_volume 4462.009849
_symmetry_space_group_name_H-M "C M C M"
_symmetry_group_IT_number 63
_symmetry_cell_setting 'orthorhombic'
loop_
_space_group_symop_operation_xyz
x,y,z
-x,-y,1/2+z
x,-y,-z
-x,y,1/2-z
-x,-y,-z
x,y,1/2-z
-x,y,z
x,-y,1/2+z
1/2+x,1/2+y,z
1/2-x,1/2-y,1/2+z
1/2+x,1/2-y,-z
1/2-x,1/2+y,1/2-z
1/2-x,1/2-y,-z
1/2+x,1/2+y,1/2-z
1/2-x,1/2+y,z
1/2+x,1/2-y,1/2+z
loop_
_atom_site_type_symbol
_atom_site_label
_atom_site_fract_x
_atom_site_fract_y
_atom_site_fract_z
Si Si1 0.114045 0.833753 0.353409
Si Si2 0.613750 0.159019 0.850702
Si Si3 0.609311 0.013736 0.892632
Si Si4 0.769113 0.395955 0.647895
Si Si5 0.888826 0.074346 0.008144
Si Si6 0.613949 0.792917 0.958584
O O1 0.147196 0.834994 0.250000
O O2 0.141910 0.892681 0.414839
O O3 0.139697 0.771611 0.409289
O O4 0.000000 0.834321 0.349261
O O5 0.646267 0.176695 0.750000
O O6 0.500000 0.162777 0.849448
O O7 0.634745 0.085742 0.871263
O O8 0.644111 0.200524 0.936497
O O9 0.500000 0.004128 0.863560
O O10 0.680164 0.963730 0.850848
O O11 0.612499 0.000000 0.000000
O O12 0.751549 0.374867 0.750000
O O13 0.674437 0.400557 0.589416
O O14 0.839831 0.349307 0.596780
O O15 0.000000 0.087733 0.022496
O O16 0.876588 0.000000 0.000000
O O17 0.500000 0.798978 0.955633
#
# Coordination Sequence:
#
# PCOD9469305 Si02
#       6
#    16  16  16  16  16  16
#     4   9  19  40  70  96 120 158 204 250 310 380
#     4   9  17  30  50  79 123 176 214 238 279 348
#     4  10  18  32  53  83 127 174 212 250 297 357
#     4  12  24  36  58  90 126 165 207 254 311 374
#     4  10  24  46  67  88 116 153 208 277 329 364
#     4  10  20  36  60  95 136 167 198 243 297 373
#
# _framework density 21.514969000000001
#
# number of rings (size 3 to 8) (size 9 to 14) (size 15 to 20)
#    0.000    2.000    1.667    2.000    0.000    4.333 
#    0.000    3.333    0.000    3.000    0.000    0.000 
#    0.000    0.000    0.000    0.000    0.000    0.000 
#
# Total GULP energy -268449.976950 kJ/mol
# GULP energy per Si atom -5592.707853 kJ/mol
# Density = 2.146600 g / cm^3
# Si number density = 21.514969 Si / 1000 Ang^3
#
#
#
# Elastic Constant Matrix: (Units=GPa)
#
#
# Indices 1 2 3 4 5 6 
#
# 1 108.3604 34.2000 49.5668 0.0000 0.0000 0.0000
# 2 34.2000 78.4103 78.2219 0.0000 0.0000 0.0000
# 3 49.5668 78.2219 238.6982 0.0000 0.0000 0.0000
# 4 0.0000 0.0000 0.0000 23.4782 0.0000 0.0000
# 5 0.0000 0.0000 0.0000 0.0000 1.1434 0.0000
# 6 0.0000 0.0000 0.0000 0.0000 0.0000 -21.3332
#
#
#
# Elastic Compliance Matrix: (Units=1/GPa)
#
#
# Indices 1 2 3 4 5 6 
#
# 1 0.010875 -0.003700 -0.001046 0.000000 0.000000 0.000000
# 2 -0.003700 0.020207 -0.005853 0.000000 0.000000 0.000000
# 3 -0.001046 -0.005853 0.006325 0.000000 0.000000 0.000000
# 4 0.000000 0.000000 0.000000 0.042593 0.000000 0.000000
# 5 0.000000 0.000000 0.000000 0.000000 0.874586 0.000000
# 6 0.000000 0.000000 0.000000 0.000000 0.000000 -0.046875
#
#
# Mechanical properties :
#
#
# Convention : Reuss Voigt Hill
#
# Bulk Modulus (GPa) = 61.69897 83.27180 72.48538
# Shear Modulus (GPa) = 5.35154 18.22301 11.78728
#
# Velocity S-wave (km/s) = 1.57885 2.91347 2.34319
# Velocity P-wave (km/s) = 5.66243 7.07855 6.40972
#
# Compressibility (1/GPa) = 0.01620773
#
# Stress axis : x y z
#
# Youngs Moduli (GPa) = 91.95793 49.48879 158.11001
#
# Poissons Ratio (x) = 0.18311 0.16533
# Poissons Ratio (y) = 0.34024 0.92549
# Poissons Ratio (z) = 0.09616 0.28968
#
# Static dielectric constant tensor:
#      x y z
#    x 1.784490 0.000000 0.000000 
#    y 0.000000 1.748440 0.000000 
#    z 0.000000 0.000000 1.776520 
# 
# From -- ./inp_files/31887.got.cif
#   From: 2010.05.17/outbox.cif.g08.bks.cpg/sg63_16_cif.got.tgz:31887.got - 2010.06.03 15:47:04.
