data_PCOD9469443
_publ_section_title
;
Structure prediction by ZEFSAII (Michael W. Deem and Ramdas Pophale) SiO2 
 PCOD9469443
Probable space group: C M C M
;
_chemical_formula_sum "Si O2"
_cell_formula_units_Z 128
_cell_length_a 21.071166
_cell_length_b 11.539053
_cell_length_c 31.201851
_cell_angle_alpha 90.000000
_cell_angle_beta 90.000000
_cell_angle_gamma 90.000000
_cell_volume 7586.458653
_symmetry_space_group_name_H-M "C M C M"
_symmetry_group_IT_number 63
_symmetry_cell_setting 'orthorhombic'
loop_
_space_group_symop_operation_xyz
x,y,z
-x,-y,1/2+z
x,-y,-z
-x,y,1/2-z
-x,-y,-z
x,y,1/2-z
-x,y,z
x,-y,1/2+z
1/2+x,1/2+y,z
1/2-x,1/2-y,1/2+z
1/2+x,1/2-y,-z
1/2-x,1/2+y,1/2-z
1/2-x,1/2-y,-z
1/2+x,1/2+y,1/2-z
1/2-x,1/2+y,z
1/2+x,1/2-y,1/2+z
loop_
_atom_site_type_symbol
_atom_site_label
_atom_site_fract_x
_atom_site_fract_y
_atom_site_fract_z
Si Si1 0.573130 0.126492 0.487182
Si Si2 0.666813 0.089443 0.865165
Si Si3 0.220982 0.948835 0.955117
Si Si4 0.382535 0.271749 0.565543
Si Si5 0.158390 0.348071 0.907218
Si Si6 0.571785 0.567428 0.141979
Si Si7 0.072951 0.288275 0.199210
Si Si8 0.687198 0.399148 0.123857
O O1 0.500000 0.111732 0.475383
O O2 0.578771 0.204948 0.529381
O O3 0.609539 0.172787 0.445771
O O4 0.599573 0.000000 0.500000
O O5 0.654728 0.178093 0.904953
O O6 0.624305 0.136747 0.826455
O O7 0.742469 0.086603 0.855721
O O8 0.643289 0.962946 0.879906
O O9 0.164982 0.856479 0.959450
O O10 0.276108 0.882019 0.930427
O O11 0.197612 0.051809 0.924297
O O12 0.242098 0.000000 0.000000
O O13 0.419990 0.352323 0.599352
O O14 0.168029 0.234472 0.878913
O O15 0.500000 0.518419 0.142148
O O16 0.578345 0.657488 0.181137
O O17 0.629667 0.476457 0.142377
O O18 0.082105 0.292842 0.250000
O O19 0.000000 0.325196 0.189409
#
# Coordination Sequence:
#
# PCOD9469443 Si02
#       8
#    16  16  16  16  16  16  16  16
#     4  11  22  31  42  67 103 140 186 234 270 313
#     4  10  20  34  55  81 108 143 176 223 271 326
#     4  10  20  31  50  72  98 137 190 239 270 302
#     4  10  18  34  51  73  99 141 185 234 279 312
#     4  11  21  33  49  72 107 149 182 222 267 324
#     4   9  19  36  59  81 107 141 181 227 275 323
#     4   9  19  38  65  90 108 133 174 220 264 320
#     4  10  21  34  52  79 110 143 183 221 270 327
#
# _framework density 16.872167000000001
#
# number of rings (size 3 to 8) (size 9 to 14) (size 15 to 20)
#    0.000    2.000    2.500    1.500    3.500    2.500 
#    0.000    0.625    0.000    4.875    0.000    1.750 
#    0.000    0.000    0.000    0.000    0.000    0.000 
#
# Total GULP energy -356862.968014 kJ/mol
# GULP energy per Si atom -5575.983875 kJ/mol
# Density = 1.683377 g / cm^3
# Si number density = 16.872167 Si / 1000 Ang^3
#
#
#
# Elastic Constant Matrix: (Units=GPa)
#
#
# Indices 1 2 3 4 5 6 
#
# 1 101.1407 38.3834 40.5028 0.0000 0.0000 0.0000
# 2 38.3834 85.1286 30.7168 0.0000 0.0000 0.0000
# 3 40.5028 30.7168 64.8103 0.0000 0.0000 0.0000
# 4 0.0000 0.0000 0.0000 9.1439 0.0000 0.0000
# 5 0.0000 0.0000 0.0000 0.0000 19.9798 0.0000
# 6 0.0000 0.0000 0.0000 0.0000 0.0000 20.9712
#
#
#
# Elastic Compliance Matrix: (Units=1/GPa)
#
#
# Indices 1 2 3 4 5 6 
#
# 1 0.014162 -0.003850 -0.007025 0.000000 0.000000 0.000000
# 2 -0.003850 0.015217 -0.004806 0.000000 0.000000 0.000000
# 3 -0.007025 -0.004806 0.022098 0.000000 0.000000 0.000000
# 4 0.000000 0.000000 0.000000 0.109363 0.000000 0.000000
# 5 0.000000 0.000000 0.000000 0.000000 0.050051 0.000000
# 6 0.000000 0.000000 0.000000 0.000000 0.000000 0.047684
#
#
# Mechanical properties :
#
#
# Convention : Reuss Voigt Hill
#
# Bulk Modulus (GPa) = 49.71807 52.25398 50.98603
# Shear Modulus (GPa) = 16.85528 19.45075 18.15302
#
# Velocity S-wave (km/s) = 3.16412 3.39902 3.28367
# Velocity P-wave (km/s) = 6.54831 6.81485 6.68291
#
# Compressibility (1/GPa) = 0.02011341
#
# Stress axis : x y z
#
# Youngs Moduli (GPa) = 70.61203 65.71544 45.25316
#
# Poissons Ratio (x) = 0.25303 0.31793
# Poissons Ratio (y) = 0.27189 0.21748
# Poissons Ratio (z) = 0.49608 0.31582
#
# Static dielectric constant tensor:
#      x y z
#    x 1.585870 0.000000 0.000000 
#    y 0.000000 1.579950 0.000000 
#    z 0.000000 0.000000 1.540150 
# 
# From -- ./inp_files/70836.got.cif
#   From: 2010.05.17/outbox.cif.g08.bks.cpg/sg63_36_cif.got.tgz:70836.got - 2010.06.03 15:47:04.
