data_PCOD9469275
_publ_section_title
;
Structure prediction by ZEFSAII (Michael W. Deem and Ramdas Pophale) SiO2 
 PCOD9469275
Probable space group: C M C M
;
_chemical_formula_sum "Si O2"
_cell_formula_units_Z 72
_cell_length_a 12.146319
_cell_length_b 15.164902
_cell_length_c 22.860906
_cell_angle_alpha 90.000000
_cell_angle_beta 90.000000
_cell_angle_gamma 90.000000
_cell_volume 4210.927158
_symmetry_space_group_name_H-M "C M C M"
_symmetry_group_IT_number 63
_symmetry_cell_setting 'orthorhombic'
loop_
_space_group_symop_operation_xyz
x,y,z
-x,-y,1/2+z
x,-y,-z
-x,y,1/2-z
-x,-y,-z
x,y,1/2-z
-x,y,z
x,-y,1/2+z
1/2+x,1/2+y,z
1/2-x,1/2-y,1/2+z
1/2+x,1/2-y,-z
1/2-x,1/2+y,1/2-z
1/2-x,1/2-y,-z
1/2+x,1/2+y,1/2-z
1/2-x,1/2+y,z
1/2+x,1/2-y,1/2+z
loop_
_atom_site_type_symbol
_atom_site_label
_atom_site_fract_x
_atom_site_fract_y
_atom_site_fract_z
Si Si1 0.245534 0.772103 0.399316
Si Si2 0.630986 0.872064 0.681050
Si Si3 0.126271 0.160617 0.488977
Si Si4 0.626932 0.941944 0.376376
Si Si5 0.290400 0.000000 0.500000
O O1 0.198360 0.699308 0.355833
O O2 0.153469 0.799137 0.447242
O O3 0.342741 0.731505 0.439497
O O4 0.292877 0.858973 0.368157
O O5 0.650486 0.862432 0.750000
O O6 0.500000 0.860151 0.669926
O O7 0.658040 0.971395 0.660396
O O8 0.000000 0.133458 0.484984
O O9 0.210887 0.080091 0.481531
O O10 0.500000 0.919517 0.363594
O O11 0.639526 0.969269 0.444567
#
# Coordination Sequence:
#
# PCOD9469275 Si02
#       5
#    16  16  16  16   8
#     4  10  20  34  53  81 109 144 178 224 273 319
#     4  10  21  38  58  78 105 144 184 221 264 321
#     4  10  19  31  50  80 113 142 177 220 273 329
#     4  10  20  34  55  83 110 140 179 223 268 322
#     4  10  18  32  52  80 110 148 174 216 276 320
#
# _framework density 17.098372000000001
#
# number of rings (size 3 to 8) (size 9 to 14) (size 15 to 20)
#    0.000    2.000    2.222    2.000    0.000    0.889 
#    0.000    0.000    0.000    2.000    0.000    0.000 
#    0.000    0.000    0.000    0.000    0.000    0.000 
#
# Total GULP energy -200879.536547 kJ/mol
# GULP energy per Si atom -5579.987126 kJ/mol
# Density = 1.705946 g / cm^3
# Si number density = 17.098372 Si / 1000 Ang^3
#
#
#
# Elastic Constant Matrix: (Units=GPa)
#
#
# Indices 1 2 3 4 5 6 
#
# 1 62.3079 41.0804 33.1271 0.0000 0.0000 0.0000
# 2 41.0804 123.5935 54.3867 0.0000 0.0000 0.0000
# 3 33.1271 54.3867 63.3878 0.0000 0.0000 0.0000
# 4 0.0000 0.0000 0.0000 24.9331 0.0000 0.0000
# 5 0.0000 0.0000 0.0000 0.0000 9.4039 0.0000
# 6 0.0000 0.0000 0.0000 0.0000 0.0000 11.4394
#
#
#
# Elastic Compliance Matrix: (Units=1/GPa)
#
#
# Indices 1 2 3 4 5 6 
#
# 1 0.023303 -0.003834 -0.008889 0.000000 0.000000 0.000000
# 2 -0.003834 0.013630 -0.009691 0.000000 0.000000 0.000000
# 3 -0.008889 -0.009691 0.028736 0.000000 0.000000 0.000000
# 4 0.000000 0.000000 0.000000 0.040107 0.000000 0.000000
# 5 0.000000 0.000000 0.000000 0.000000 0.106338 0.000000
# 6 0.000000 0.000000 0.000000 0.000000 0.000000 0.087417
#
#
# Mechanical properties :
#
#
# Convention : Reuss Voigt Hill
#
# Bulk Modulus (GPa) = 47.98072 56.27529 52.12800
# Shear Modulus (GPa) = 14.23264 17.20162 15.71713
#
# Velocity S-wave (km/s) = 2.88826 3.17525 3.03515
# Velocity P-wave (km/s) = 6.26460 6.81374 6.54493
#
# Compressibility (1/GPa) = 0.02084171
#
# Stress axis : x y z
#
# Youngs Moduli (GPa) = 42.91284 73.36919 34.79989
#
# Poissons Ratio (x) = 0.28130 0.30933
# Poissons Ratio (y) = 0.16453 0.33723
# Poissons Ratio (z) = 0.38144 0.71099
#
# Static dielectric constant tensor:
#      x y z
#    x 1.547610 0.000000 0.000000 
#    y 0.000000 1.601350 0.000000 
#    z 0.000000 0.000000 1.557950 
# 
# From -- ./inp_files/60991.got.cif
#   From: 2010.05.17/outbox.cif.g08.bks.cpg/sg63_31_cif.got.tgz:60991.got - 2010.06.03 15:47:04.
