data_PCOD9469505
_publ_section_title
;
Structure prediction by ZEFSAII (Michael W. Deem and Ramdas Pophale) SiO2 
 PCOD9469505
Probable space group: C M C M
;
_chemical_formula_sum "Si O2"
_cell_formula_units_Z 112
_cell_length_a 16.060656
_cell_length_b 23.113225
_cell_length_c 14.598281
_cell_angle_alpha 90.000000
_cell_angle_beta 90.000000
_cell_angle_gamma 90.000000
_cell_volume 5419.079798
_symmetry_space_group_name_H-M "C M C M"
_symmetry_group_IT_number 63
_symmetry_cell_setting 'orthorhombic'
loop_
_space_group_symop_operation_xyz
x,y,z
-x,-y,1/2+z
x,-y,-z
-x,y,1/2-z
-x,-y,-z
x,y,1/2-z
-x,y,z
x,-y,1/2+z
1/2+x,1/2+y,z
1/2-x,1/2-y,1/2+z
1/2+x,1/2-y,-z
1/2-x,1/2+y,1/2-z
1/2-x,1/2-y,-z
1/2+x,1/2+y,1/2-z
1/2-x,1/2+y,z
1/2+x,1/2-y,1/2+z
loop_
_atom_site_type_symbol
_atom_site_label
_atom_site_fract_x
_atom_site_fract_y
_atom_site_fract_z
Si Si1 0.760778 0.134119 0.853897
Si Si2 0.838158 0.936835 0.979709
Si Si3 0.406603 0.663253 0.354603
Si Si4 0.410407 0.154046 0.140090
Si Si5 0.407627 0.085974 0.639064
Si Si6 0.243395 0.262967 0.894268
Si Si7 0.173104 0.462883 0.860820
O O1 0.767823 0.110312 0.750000
O O2 0.663826 0.131485 0.884810
O O3 0.781704 0.201657 0.851143
O O4 0.810759 0.095775 0.926750
O O5 0.890591 0.890023 0.922889
O O6 0.756912 0.951297 0.917343
O O7 0.876732 0.000000 0.000000
O O8 0.403127 0.641698 0.250000
O O9 0.500000 0.687483 0.369971
O O10 0.331102 0.709090 0.363723
O O11 0.415268 0.155219 0.250000
O O12 0.500000 0.173668 0.103087
O O13 0.330387 0.191605 0.117502
O O14 0.390564 0.088124 0.114766
O O15 0.414027 0.086943 0.750000
O O16 0.500000 0.094907 0.601975
O O17 0.368402 0.023907 0.615417
O O18 0.250000 0.250000 0.000000
O O19 0.188173 0.461310 0.750000
#
# Coordination Sequence:
#
# PCOD9469505 Si02
#       7
#    16  16  16  16  16  16  16
#     4  11  23  39  60  91 129 174 217 259 321 389
#     4  12  23  40  67  95 128 168 220 271 336 388
#     4  11  25  46  73 101 130 172 226 281 333 388
#     4  10  20  35  61  95 127 164 209 258 315 383
#     4   9  18  33  55  87 128 170 212 260 314 379
#     4  12  23  42  67  93 132 174 216 270 323 384
#     4  10  18  34  61  91 126 167 210 260 319 388
#
# _framework density 20.667715999999999
#
# number of rings (size 3 to 8) (size 9 to 14) (size 15 to 20)
#    0.000    1.286    4.286    2.143    0.000    3.714 
#    0.000    5.000    0.000    0.429    0.000    0.000 
#    0.000    0.000    0.000    0.000    0.000    0.000 
#
# Total GULP energy -312783.000379 kJ/mol
# GULP energy per Si atom -5585.410721 kJ/mol
# Density = 2.062068 g / cm^3
# Si number density = 20.667716 Si / 1000 Ang^3
#
#
#
# Elastic Constant Matrix: (Units=GPa)
#
#
# Indices 1 2 3 4 5 6 
#
# 1 85.4079 14.5134 18.1685 0.0000 0.0000 0.0000
# 2 14.5134 82.6553 19.5148 0.0000 0.0000 0.0000
# 3 18.1685 19.5148 90.6908 0.0000 0.0000 0.0000
# 4 0.0000 0.0000 0.0000 24.6532 0.0000 0.0000
# 5 0.0000 0.0000 0.0000 0.0000 -13.2480 0.0000
# 6 0.0000 0.0000 0.0000 0.0000 0.0000 -2.4750
#
#
#
# Elastic Compliance Matrix: (Units=1/GPa)
#
#
# Indices 1 2 3 4 5 6 
#
# 1 0.012448 -0.001682 -0.002132 0.000000 0.000000 0.000000
# 2 -0.001682 0.012973 -0.002455 0.000000 0.000000 0.000000
# 3 -0.002132 -0.002455 0.011982 0.000000 0.000000 0.000000
# 4 0.000000 0.000000 0.000000 0.040563 0.000000 0.000000
# 5 0.000000 0.000000 0.000000 0.000000 -0.075483 0.000000
# 6 0.000000 0.000000 0.000000 0.000000 0.000000 -0.404041
#
#
# Mechanical properties :
#
#
# Convention : Reuss Voigt Hill
#
# Bulk Modulus (GPa) = 40.21626 40.34972 40.28299
# Shear Modulus (GPa) = -13.13257 15.55654 1.21199
#
# Velocity S-wave (km/s) = -2.52348 2.74651 0.76661
# Velocity P-wave (km/s) = 3.31815 5.44272 4.50740
#
# Compressibility (1/GPa) = 0.02486556
#
# Stress axis : x y z
#
# Youngs Moduli (GPa) = 80.33495 77.08099 83.46059
#
# Poissons Ratio (x) = 0.12968 0.17791
# Poissons Ratio (y) = 0.13516 0.20486
# Poissons Ratio (z) = 0.17125 0.18920
#
# Static dielectric constant tensor:
#      x y z
#    x 1.756590 0.000000 0.000000 
#    y 0.000000 1.747990 0.000000 
#    z 0.000000 0.000000 1.773090 
# 
# From -- ./inp_files/32256.got.cif
#   From: 2010.05.17/outbox.cif.g08.bks.cpg/sg63_17_cif.got.tgz:32256.got - 2010.06.03 15:47:04.
