data_PCOD9469205
_publ_section_title
;
Structure prediction by ZEFSAII (Michael W. Deem and Ramdas Pophale) SiO2 
 PCOD9469205
Probable space group: C M C M
;
_chemical_formula_sum "Si O2"
_cell_formula_units_Z 52
_cell_length_a 8.174356
_cell_length_b 21.414123
_cell_length_c 15.127448
_cell_angle_alpha 90.000000
_cell_angle_beta 90.000000
_cell_angle_gamma 90.000000
_cell_volume 2648.009320
_symmetry_space_group_name_H-M "C M C M"
_symmetry_group_IT_number 63
_symmetry_cell_setting 'orthorhombic'
loop_
_space_group_symop_operation_xyz
x,y,z
-x,-y,1/2+z
x,-y,-z
-x,y,1/2-z
-x,-y,-z
x,y,1/2-z
-x,y,z
x,-y,1/2+z
1/2+x,1/2+y,z
1/2-x,1/2-y,1/2+z
1/2+x,1/2-y,-z
1/2-x,1/2+y,1/2-z
1/2-x,1/2-y,-z
1/2+x,1/2+y,1/2-z
1/2-x,1/2+y,z
1/2+x,1/2-y,1/2+z
loop_
_atom_site_type_symbol
_atom_site_label
_atom_site_fract_x
_atom_site_fract_y
_atom_site_fract_z
Si Si1 0.000000 0.489938 0.647876
Si Si2 0.500000 0.109935 0.750000
Si Si3 0.819364 0.920350 0.642229
Si Si4 0.310485 0.211045 0.083391
Si Si5 0.684523 0.302796 0.250000
O O1 0.831208 0.463416 0.610400
O O2 0.000000 0.465420 0.750000
O O3 0.000000 0.563892 0.664713
O O4 0.665678 0.149390 0.750000
O O5 0.816360 0.916791 0.750000
O O6 0.790311 0.851207 0.604300
O O7 0.000000 0.943469 0.617284
O O8 0.500000 0.192383 0.071953
O O9 0.301223 0.257775 0.165919
O O10 0.250000 0.250000 0.000000
O O11 0.500000 0.330987 0.250000
#
# Coordination Sequence:
#
# PCOD9469205 Si02
#       5
#     8   4  16  16   8
#     4   8  18  34  53  86 113 149 205 242 274 347
#     4  10  22  36  62  84 124 164 204 232 304 358
#     4  10  18  31  57  87 113 147 194 247 294 335
#     4  11  22  36  58  90 125 155 194 245 304 365
#     4  10  24  39  57  85 125 160 190 245 300 360
#
# _framework density 19.637395000000001
#
# number of rings (size 3 to 8) (size 9 to 14) (size 15 to 20)
#    0.462    1.538    3.077    0.923    4.308    1.231 
#    0.000    0.000    0.000    3.692    0.000    6.462 
#    0.000    0.000    0.000    0.000    0.000    0.000 
#
# Total GULP energy -144989.845320 kJ/mol
# GULP energy per Si atom -5576.532512 kJ/mol
# Density = 1.959270 g / cm^3
# Si number density = 19.637395 Si / 1000 Ang^3
#
#
#
# Elastic Constant Matrix: (Units=GPa)
#
#
# Indices 1 2 3 4 5 6 
#
# 1 152.0046 34.3720 8.7361 0.0000 0.0000 0.0000
# 2 34.3720 36.0620 -12.0553 0.0000 0.0000 0.0000
# 3 8.7361 -12.0553 59.8584 0.0000 0.0000 0.0000
# 4 0.0000 0.0000 0.0000 -60.4711 0.0000 0.0000
# 5 0.0000 0.0000 0.0000 0.0000 15.6037 0.0000
# 6 0.0000 0.0000 0.0000 0.0000 0.0000 25.9166
#
#
#
# Elastic Compliance Matrix: (Units=1/GPa)
#
#
# Indices 1 2 3 4 5 6 
#
# 1 0.008935 -0.009599 -0.003237 0.000000 0.000000 0.000000
# 2 -0.009599 0.040043 0.009465 0.000000 0.000000 0.000000
# 3 -0.003237 0.009465 0.019085 0.000000 0.000000 0.000000
# 4 0.000000 0.000000 0.000000 -0.016537 0.000000 0.000000
# 5 0.000000 0.000000 0.000000 0.000000 0.064088 0.000000
# 6 0.000000 0.000000 0.000000 0.000000 0.000000 0.038585
#
#
# Mechanical properties :
#
#
# Convention : Reuss Voigt Hill
#
# Bulk Modulus (GPa) = 16.30725 34.44781 25.37753
# Shear Modulus (GPa) = 27.56625 10.66797 19.11711
#
# Velocity S-wave (km/s) = 3.75075 2.33330 3.12349
# Velocity P-wave (km/s) = 5.20381 4.98388 5.09503
#
# Compressibility (1/GPa) = 0.06132242
#
# Stress axis : x y z
#
# Youngs Moduli (GPa) = 111.91549 24.97303 52.39749
#
# Poissons Ratio (x) = 0.23971 0.16962
# Poissons Ratio (y) = 1.07425 -0.49597
# Poissons Ratio (z) = 0.36230 -0.23638
#
# Static dielectric constant tensor:
#      x y z
#    x 1.725080 0.000000 0.000000 
#    y 0.000000 1.672760 0.000000 
#    z 0.000000 0.000000 1.661680 
# 
# From -- ./inp_files/39529.got.cif
#   From: 2010.05.17/outbox.cif.g08.bks.cpg/sg63_20_cif.got.tgz:39529.got - 2010.06.03 15:47:04.
