data_PCOD9469678
_publ_section_title
;
Structure prediction by ZEFSAII (Michael W. Deem and Ramdas Pophale) SiO2 
 PCOD9469678
Probable space group: C M C M
;
_chemical_formula_sum "Si O2"
_cell_formula_units_Z 96
_cell_length_a 9.638514
_cell_length_b 21.376116
_cell_length_c 21.949647
_cell_angle_alpha 90.000000
_cell_angle_beta 90.000000
_cell_angle_gamma 90.000000
_cell_volume 4522.373424
_symmetry_space_group_name_H-M "C M C M"
_symmetry_group_IT_number 63
_symmetry_cell_setting 'orthorhombic'
loop_
_space_group_symop_operation_xyz
x,y,z
-x,-y,1/2+z
x,-y,-z
-x,y,1/2-z
-x,-y,-z
x,y,1/2-z
-x,y,z
x,-y,1/2+z
1/2+x,1/2+y,z
1/2-x,1/2-y,1/2+z
1/2+x,1/2-y,-z
1/2-x,1/2+y,1/2-z
1/2-x,1/2-y,-z
1/2+x,1/2+y,1/2-z
1/2-x,1/2+y,z
1/2+x,1/2-y,1/2+z
loop_
_atom_site_type_symbol
_atom_site_label
_atom_site_fract_x
_atom_site_fract_y
_atom_site_fract_z
Si Si1 0.663037 0.173077 0.677894
Si Si2 0.851968 0.695740 0.014546
Si Si3 0.838101 0.943960 0.371420
Si Si4 0.339531 0.580971 0.149929
Si Si5 0.847324 0.092116 0.002562
Si Si6 0.841173 0.699429 0.159330
O O1 0.663707 0.160086 0.750000
O O2 0.500000 0.178778 0.659228
O O3 0.744355 0.115345 0.646201
O O4 0.748580 0.238326 0.669621
O O5 0.857831 0.692540 0.086886
O O6 0.000000 0.708589 0.987424
O O7 0.750000 0.750000 0.000000
O O8 0.785576 0.633631 0.989474
O O9 0.840073 0.955385 0.445492
O O10 0.000000 0.931299 0.355494
O O11 0.796001 0.008933 0.338908
O O12 0.500000 0.589551 0.169313
O O13 0.242789 0.635983 0.176067
O O14 0.341316 0.583980 0.075462
O O15 0.000000 0.122851 0.992697
O O16 0.000000 0.704258 0.183170
#
# Coordination Sequence:
#
# PCOD9469678 Si02
#       6
#    16  16  16  16  16  16
#     4  11  25  43  61  81 106 140 186 239 292 342
#     4  10  19  29  44  72 108 144 182 221 264 318
#     4  10  20  35  58  87 117 151 190 230 274 327
#     4   9  18  34  57  86 121 156 186 220 267 327
#     4   9  17  30  50  79 115 152 186 218 259 318
#     4  10  21  37  57  81 109 142 183 230 277 327
#
# _framework density 21.227792000000001
#
# number of rings (size 3 to 8) (size 9 to 14) (size 15 to 20)
#    0.000    2.167    0.000    3.000    0.000   10.667 
#    0.000    0.833    0.000    6.000    0.000    0.000 
#    0.000    0.000    0.000    0.000    0.000    0.000 
#
# Total GULP energy -267244.687399 kJ/mol
# GULP energy per Si atom -5567.597654 kJ/mol
# Density = 2.117948 g / cm^3
# Si number density = 21.227792 Si / 1000 Ang^3
#
#
#
# Elastic Constant Matrix: (Units=GPa)
#
#
# Indices 1 2 3 4 5 6 
#
# 1 163.4960 83.1232 22.1612 0.0000 0.0000 0.0000
# 2 83.1232 124.2844 22.4890 0.0000 0.0000 0.0000
# 3 22.1612 22.4890 69.2002 0.0000 0.0000 0.0000
# 4 0.0000 0.0000 0.0000 -99.8031 0.0000 0.0000
# 5 0.0000 0.0000 0.0000 0.0000 0.8382 0.0000
# 6 0.0000 0.0000 0.0000 0.0000 0.0000 25.1605
#
#
#
# Elastic Compliance Matrix: (Units=1/GPa)
#
#
# Indices 1 2 3 4 5 6 
#
# 1 0.009335 -0.006059 -0.001021 0.000000 0.000000 0.000000
# 2 -0.006059 0.012481 -0.002116 0.000000 0.000000 0.000000
# 3 -0.001021 -0.002116 0.015465 0.000000 0.000000 0.000000
# 4 0.000000 0.000000 0.000000 -0.010020 0.000000 0.000000
# 5 0.000000 0.000000 0.000000 0.000000 1.193036 0.000000
# 6 0.000000 0.000000 0.000000 0.000000 0.000000 0.039745
#
#
# Mechanical properties :
#
#
# Convention : Reuss Voigt Hill
#
# Bulk Modulus (GPa) = 52.93488 68.05860 60.49674
# Shear Modulus (GPa) = 3.89187 0.51959 2.20573
#
# Velocity S-wave (km/s) = 1.35549 0.49528 1.02046
# Velocity P-wave (km/s) = 5.23837 5.69717 5.47258
#
# Compressibility (1/GPa) = 0.01889114
#
# Stress axis : x y z
#
# Youngs Moduli (GPa) = 107.12359 80.12126 64.66096
#
# Poissons Ratio (x) = 0.48543 0.06599
# Poissons Ratio (y) = 0.64903 0.13681
# Poissons Ratio (z) = 0.10932 0.16953
#
# Static dielectric constant tensor:
#      x y z
#    x 1.749500 0.000000 0.000000 
#    y 0.000000 1.768970 0.000000 
#    z 0.000000 0.000000 1.833870 
# 
# From -- ./inp_files/59858.got.cif
#   From: 2010.05.17/outbox.cif.g08.bks.cpg/sg63_30_cif.got.tgz:59858.got - 2010.06.03 15:47:04.
