data_PCOD9469596
_publ_section_title
;
Structure prediction by ZEFSAII (Michael W. Deem and Ramdas Pophale) SiO2 
 PCOD9469596
Probable space group: C M C M
;
_chemical_formula_sum "Si O2"
_cell_formula_units_Z 128
_cell_length_a 23.340061
_cell_length_b 18.365791
_cell_length_c 19.014420
_cell_angle_alpha 90.000000
_cell_angle_beta 90.000000
_cell_angle_gamma 90.000000
_cell_volume 8150.696221
_symmetry_space_group_name_H-M "C M C M"
_symmetry_group_IT_number 63
_symmetry_cell_setting 'orthorhombic'
loop_
_space_group_symop_operation_xyz
x,y,z
-x,-y,1/2+z
x,-y,-z
-x,y,1/2-z
-x,-y,-z
x,y,1/2-z
-x,y,z
x,-y,1/2+z
1/2+x,1/2+y,z
1/2-x,1/2-y,1/2+z
1/2+x,1/2-y,-z
1/2-x,1/2+y,1/2-z
1/2-x,1/2-y,-z
1/2+x,1/2+y,1/2-z
1/2-x,1/2+y,z
1/2+x,1/2-y,1/2+z
loop_
_atom_site_type_symbol
_atom_site_label
_atom_site_fract_x
_atom_site_fract_y
_atom_site_fract_z
Si Si1 0.261358 0.511431 0.669138
Si Si2 0.933631 0.014185 0.423954
Si Si3 0.117656 0.096943 0.830125
Si Si4 0.430778 0.347717 0.832088
Si Si5 0.279563 0.875098 0.062378
Si Si6 0.332262 0.725340 0.590679
Si Si7 0.145533 0.760160 0.568361
Si Si8 0.756654 0.361318 0.596186
O O1 0.244292 0.522504 0.750000
O O2 0.325094 0.546451 0.662184
O O3 0.223727 0.557694 0.614586
O O4 0.256444 0.427009 0.648567
O O5 0.911787 0.079572 0.374675
O O6 0.000000 0.032894 0.436430
O O7 0.905120 0.000000 0.500000
O O8 0.927544 0.940047 0.381277
O O9 0.099053 0.093447 0.750000
O O10 0.132562 0.178571 0.853523
O O11 0.412082 0.348918 0.750000
O O12 0.500000 0.345114 0.831589
O O13 0.404217 0.283018 0.878493
O O14 0.224420 0.823459 0.076724
O O15 0.333270 0.822596 0.075705
O O16 0.273400 0.893766 0.980246
O O17 0.364392 0.729317 0.515367
O O18 0.307582 0.803874 0.613517
O O19 0.199461 0.812667 0.586947
#
# Coordination Sequence:
#
# PCOD9469596 Si02
#       8
#    16  16  16  16  16  16  16  16
#     4  10  19  27  38  61  89 113 138 168 206 253
#     4  10  20  32  45  60  79 108 147 184 211 238
#     4  10  19  29  41  59  85 114 139 169 213 253
#     4  10  20  31  43  63  89 112 139 179 218 250
#     4   8  16  29  43  60  82 109 141 176 207 240
#     4   8  16  29  43  61  82 106 142 179 204 239
#     4   9  16  29  47  61  79 113 147 171 205 251
#     4   9  16  27  44  62  81 110 145 174 204 245
#
# _framework density 15.704179999999999
#
# number of rings (size 3 to 8) (size 9 to 14) (size 15 to 20)
#    0.000    2.750    0.000    3.750    0.000    5.250 
#    0.000    2.500    0.000    0.000    0.000    0.000 
#    0.000    9.000    0.000    2.000    0.000    0.000 
#
# Total GULP energy -356295.074739 kJ/mol
# GULP energy per Si atom -5567.110543 kJ/mol
# Density = 1.566844 g / cm^3
# Si number density = 15.704180 Si / 1000 Ang^3
#
#
#
# Elastic Constant Matrix: (Units=GPa)
#
#
# Indices 1 2 3 4 5 6 
#
# 1 11.1530 -0.0714 11.9660 0.0000 0.0000 0.0000
# 2 -0.0714 40.6314 18.8132 0.0000 0.0000 0.0000
# 3 11.9660 18.8132 72.5623 0.0000 0.0000 0.0000
# 4 0.0000 0.0000 0.0000 14.5021 0.0000 0.0000
# 5 0.0000 0.0000 0.0000 0.0000 12.0086 0.0000
# 6 0.0000 0.0000 0.0000 0.0000 0.0000 -5.0337
#
#
#
# Elastic Compliance Matrix: (Units=1/GPa)
#
#
# Indices 1 2 3 4 5 6 
#
# 1 0.112384 0.009976 -0.021119 0.000000 0.000000 0.000000
# 2 0.009976 0.028855 -0.009126 0.000000 0.000000 0.000000
# 3 -0.021119 -0.009126 0.019630 0.000000 0.000000 0.000000
# 4 0.000000 0.000000 0.000000 0.068956 0.000000 0.000000
# 5 0.000000 0.000000 0.000000 0.000000 0.083274 0.000000
# 6 0.000000 0.000000 0.000000 0.000000 0.000000 -0.198660
#
#
# Mechanical properties :
#
#
# Convention : Reuss Voigt Hill
#
# Bulk Modulus (GPa) = 8.31046 20.64026 14.47536
# Shear Modulus (GPa) = 25.62942 10.53798 18.08370
#
# Velocity S-wave (km/s) = 4.04420 2.59324 3.39709
# Velocity P-wave (km/s) = 5.20680 4.70512 4.96231
#
# Compressibility (1/GPa) = 0.12033027
#
# Stress axis : x y z
#
# Youngs Moduli (GPa) = 8.89803 34.65645 50.94200
#
# Poissons Ratio (x) = -0.34574 1.07587
# Poissons Ratio (y) = -0.08877 0.46491
# Poissons Ratio (z) = 0.18792 0.31628
#
# Static dielectric constant tensor:
#      x y z
#    x 1.533100 0.000000 0.000000 
#    y 0.000000 1.533400 0.000000 
#    z 0.000000 0.000000 1.542980 
# 
# From -- ./inp_files/56947.got.cif
#   From: 2010.05.17/outbox.cif.g08.bks.cpg/sg63_29_cif.got.tgz:56947.got - 2010.06.03 15:47:04.
