data_PCOD9469414
_publ_section_title
;
Structure prediction by ZEFSAII (Michael W. Deem and Ramdas Pophale) SiO2 
 PCOD9469414
Probable space group: C M C M
;
_chemical_formula_sum "Si O2"
_cell_formula_units_Z 96
_cell_length_a 7.711076
_cell_length_b 25.891743
_cell_length_c 24.426904
_cell_angle_alpha 90.000000
_cell_angle_beta 90.000000
_cell_angle_gamma 90.000000
_cell_volume 4876.909502
_symmetry_space_group_name_H-M "C M C M"
_symmetry_group_IT_number 63
_symmetry_cell_setting 'orthorhombic'
loop_
_space_group_symop_operation_xyz
x,y,z
-x,-y,1/2+z
x,-y,-z
-x,y,1/2-z
-x,-y,-z
x,y,1/2-z
-x,y,z
x,-y,1/2+z
1/2+x,1/2+y,z
1/2-x,1/2-y,1/2+z
1/2+x,1/2-y,-z
1/2-x,1/2+y,1/2-z
1/2-x,1/2-y,-z
1/2+x,1/2+y,1/2-z
1/2-x,1/2+y,z
1/2+x,1/2-y,1/2+z
loop_
_atom_site_type_symbol
_atom_site_label
_atom_site_fract_x
_atom_site_fract_y
_atom_site_fract_z
Si Si1 0.202203 0.397245 0.390771
Si Si2 0.290567 0.309574 0.812506
Si Si3 0.787711 0.440059 0.995826
Si Si4 0.203467 0.588784 0.375509
Si Si5 0.287737 0.807859 0.312564
Si Si6 0.701943 0.488426 0.188047
O O1 0.276330 0.409933 0.450500
O O2 0.276870 0.350118 0.355466
O O3 0.211325 0.448690 0.353773
O O4 0.000000 0.384666 0.399385
O O5 0.234553 0.320727 0.750000
O O6 0.500000 0.310280 0.812961
O O7 0.228204 0.354028 0.852536
O O8 0.236063 0.250965 0.825764
O O9 0.000000 0.438911 0.997143
O O10 0.736850 0.500000 0.000000
O O11 0.730545 0.417872 0.937459
O O12 0.284614 0.546241 0.335385
O O13 0.000000 0.576408 0.376482
O O14 0.234341 0.819733 0.250000
O O15 0.500000 0.809099 0.312354
O O16 0.771889 0.485338 0.250000
O O17 0.500000 0.474151 0.189589
#
# Coordination Sequence:
#
# PCOD9469414 Si02
#       6
#    16  16  16  16  16  16
#     4  10  18  33  57  78  99 132 177 214 244 298
#     4   9  18  34  53  74 104 135 164 208 262 304
#     4   9  17  32  51  74 103 134 166 210 261 293
#     4  11  21  34  53  75 100 133 176 212 245 302
#     4   8  15  29  52  79 101 128 169 211 251 299
#     4  11  23  35  48  73 108 136 160 205 267 311
#
# _framework density 19.684597
#
# number of rings (size 3 to 8) (size 9 to 14) (size 15 to 20)
#    0.000    2.333    1.667    3.000    0.000    4.333 
#    0.000    4.167    0.000    1.000    0.000    0.000 
#    0.000    0.000    0.000    0.000    0.000    0.000 
#
# Total GULP energy -267940.016834 kJ/mol
# GULP energy per Si atom -5582.083684 kJ/mol
# Density = 1.963979 g / cm^3
# Si number density = 19.684597 Si / 1000 Ang^3
#
#
#
# Elastic Constant Matrix: (Units=GPa)
#
#
# Indices 1 2 3 4 5 6 
#
# 1 31.9360 -6.9857 0.1048 0.0000 0.0000 0.0000
# 2 -6.9857 110.2138 68.5534 0.0000 0.0000 0.0000
# 3 0.1048 68.5534 137.5772 0.0000 0.0000 0.0000
# 4 0.0000 0.0000 0.0000 21.8918 0.0000 0.0000
# 5 0.0000 0.0000 0.0000 0.0000 15.8170 0.0000
# 6 0.0000 0.0000 0.0000 0.0000 0.0000 9.8035
#
#
#
# Elastic Compliance Matrix: (Units=1/GPa)
#
#
# Indices 1 2 3 4 5 6 
#
# 1 0.031965 0.002958 -0.001498 0.000000 0.000000 0.000000
# 2 0.002958 0.013422 -0.006690 0.000000 0.000000 0.000000
# 3 -0.001498 -0.006690 0.010604 0.000000 0.000000 0.000000
# 4 0.000000 0.000000 0.000000 0.045679 0.000000 0.000000
# 5 0.000000 0.000000 0.000000 0.000000 0.063223 0.000000
# 6 0.000000 0.000000 0.000000 0.000000 0.000000 0.102005
#
#
# Mechanical properties :
#
#
# Convention : Reuss Voigt Hill
#
# Bulk Modulus (GPa) = 21.96410 44.78580 33.37495
# Shear Modulus (GPa) = 17.09198 24.03943 20.56571
#
# Velocity S-wave (km/s) = 2.94988 3.49840 3.23578
# Velocity P-wave (km/s) = 4.77332 6.25456 5.56346
#
# Compressibility (1/GPa) = 0.04552884
#
# Stress axis : x y z
#
# Youngs Moduli (GPa) = 31.28465 74.50329 94.30789
#
# Poissons Ratio (x) = -0.22038 0.14130
# Poissons Ratio (y) = -0.09254 0.63096
# Poissons Ratio (z) = 0.04687 0.49846
#
# Static dielectric constant tensor:
#      x y z
#    x 1.743830 0.000000 0.000000 
#    y 0.000000 1.657130 0.000000 
#    z 0.000000 0.000000 1.688740 
# 
# From -- ./inp_files/51261.got.cif
#   From: 2010.05.17/outbox.cif.g08.bks.cpg/sg63_26_cif.got.tgz:51261.got - 2010.06.03 15:47:04.
