data_PCOD9469185
_publ_section_title
;
Structure prediction by ZEFSAII (Michael W. Deem and Ramdas Pophale) SiO2 
 PCOD9469185
Probable space group: C M C M
;
_chemical_formula_sum "Si O2"
_cell_formula_units_Z 104
_cell_length_a 24.085430
_cell_length_b 9.227672
_cell_length_c 24.543754
_cell_angle_alpha 90.000000
_cell_angle_beta 90.000000
_cell_angle_gamma 90.000000
_cell_volume 5454.909410
_symmetry_space_group_name_H-M "C M C M"
_symmetry_group_IT_number 63
_symmetry_cell_setting 'orthorhombic'
loop_
_space_group_symop_operation_xyz
x,y,z
-x,-y,1/2+z
x,-y,-z
-x,y,1/2-z
-x,-y,-z
x,y,1/2-z
-x,y,z
x,-y,1/2+z
1/2+x,1/2+y,z
1/2-x,1/2-y,1/2+z
1/2+x,1/2-y,-z
1/2-x,1/2+y,1/2-z
1/2-x,1/2-y,-z
1/2+x,1/2+y,1/2-z
1/2-x,1/2+y,z
1/2+x,1/2-y,1/2+z
loop_
_atom_site_type_symbol
_atom_site_label
_atom_site_fract_x
_atom_site_fract_y
_atom_site_fract_z
Si Si1 0.000000 0.295121 0.185266
Si Si2 0.219643 0.625330 0.810170
Si Si3 0.807780 0.680494 0.146385
Si Si4 0.380368 0.993467 0.064196
Si Si5 0.000000 0.431212 0.613223
Si Si6 0.378123 0.439089 0.188607
Si Si7 0.880032 0.228984 0.140910
Si Si8 0.500000 0.332193 0.190125
O O1 0.000000 0.461182 0.165013
O O2 0.943825 0.233121 0.159270
O O3 0.000000 0.278494 0.250000
O O4 0.242069 0.657426 0.750000
O O5 0.215787 0.454324 0.819310
O O6 0.256571 0.706305 0.855831
O O7 0.157657 0.685764 0.815696
O O8 0.837584 0.601408 0.095418
O O9 0.853938 0.781158 0.175003
O O10 0.373454 0.829311 0.087551
O O11 0.443450 0.039324 0.080080
O O12 0.372430 0.000000 0.000000
O O13 0.000000 0.273458 0.639061
O O14 0.361122 0.482840 0.250000
O O15 0.361126 0.562046 0.145184
O O16 0.444213 0.424019 0.188196
O O17 0.500000 0.257499 0.250000
#
# Coordination Sequence:
#
# PCOD9469185 Si02
#       8
#     8  16  16  16   8  16  16   8
#     4  10  18  31  54  85 122 158 189 236 300 371
#     4  11  21  36  56  86 118 153 191 236 296 364
#     4  11  23  38  59  85 119 155 204 246 293 361
#     4  10  22  42  65  87 116 161 213 265 308 338
#     4  10  18  36  59  89 119 155 204 256 298 362
#     4  11  20  34  55  85 124 159 184 232 300 370
#     4  10  22  36  57  87 121 157 202 244 294 363
#     4  10  20  31  53  88 128 159 188 234 303 375
#
# _framework density 19.065394000000001
#
# number of rings (size 3 to 8) (size 9 to 14) (size 15 to 20)
#    0.000    1.538    1.538    4.615    0.000    0.615 
#    0.000    3.846    0.000    0.923    0.000    0.000 
#    0.000    0.000    0.000    0.000    0.000    0.000 
#
# Total GULP energy -289892.604159 kJ/mol
# GULP energy per Si atom -5574.857772 kJ/mol
# Density = 1.902200 g / cm^3
# Si number density = 19.065394 Si / 1000 Ang^3
#
#
#
# Elastic Constant Matrix: (Units=GPa)
#
#
# Indices 1 2 3 4 5 6 
#
# 1 89.1335 30.4700 19.0479 0.0000 0.0000 0.0000
# 2 30.4700 127.9761 48.3402 0.0000 0.0000 0.0000
# 3 19.0479 48.3402 116.8327 0.0000 0.0000 0.0000
# 4 0.0000 0.0000 0.0000 17.8694 0.0000 0.0000
# 5 0.0000 0.0000 0.0000 0.0000 11.3148 0.0000
# 6 0.0000 0.0000 0.0000 0.0000 0.0000 20.7134
#
#
#
# Elastic Compliance Matrix: (Units=1/GPa)
#
#
# Indices 1 2 3 4 5 6 
#
# 1 0.012300 -0.002573 -0.000941 0.000000 0.000000 0.000000
# 2 -0.002573 0.009800 -0.003635 0.000000 0.000000 0.000000
# 3 -0.000941 -0.003635 0.010217 0.000000 0.000000 0.000000
# 4 0.000000 0.000000 0.000000 0.055962 0.000000 0.000000
# 5 0.000000 0.000000 0.000000 0.000000 0.088380 0.000000
# 6 0.000000 0.000000 0.000000 0.000000 0.000000 0.048278
#
#
# Mechanical properties :
#
#
# Convention : Reuss Voigt Hill
#
# Bulk Modulus (GPa) = 55.49940 58.85095 57.17517
# Shear Modulus (GPa) = 20.38822 25.71847 23.05334
#
# Velocity S-wave (km/s) = 3.27369 3.67680 3.48109
# Velocity P-wave (km/s) = 6.59262 6.99715 6.79789
#
# Compressibility (1/GPa) = 0.01801821
#
# Stress axis : x y z
#
# Youngs Moduli (GPa) = 81.30236 102.04381 97.87910
#
# Poissons Ratio (x) = 0.26257 0.09207
# Poissons Ratio (y) = 0.20920 0.35581
# Poissons Ratio (z) = 0.07648 0.37095
#
# Static dielectric constant tensor:
#      x y z
#    x 1.720070 0.000000 0.000000 
#    y 0.000000 1.687540 0.000000 
#    z 0.000000 0.000000 1.615870 
# 
# From -- ./inp_files/70729.got.cif
#   From: 2010.05.17/outbox.cif.g08.bks.cpg/sg63_36_cif.got.tgz:70729.got - 2010.06.03 15:47:04.
