data_PCOD9469859
_publ_section_title
;
Structure prediction by ZEFSAII (Michael W. Deem and Ramdas Pophale) SiO2 
 PCOD9469859
Probable space group: C M C M
;
_chemical_formula_sum "Si O2"
_cell_formula_units_Z 112
_cell_length_a 16.341319
_cell_length_b 29.818977
_cell_length_c 13.954100
_cell_angle_alpha 90.000000
_cell_angle_beta 90.000000
_cell_angle_gamma 90.000000
_cell_volume 6799.573599
_symmetry_space_group_name_H-M "C M C M"
_symmetry_group_IT_number 63
_symmetry_cell_setting 'orthorhombic'
loop_
_space_group_symop_operation_xyz
x,y,z
-x,-y,1/2+z
x,-y,-z
-x,y,1/2-z
-x,-y,-z
x,y,1/2-z
-x,y,z
x,-y,1/2+z
1/2+x,1/2+y,z
1/2-x,1/2-y,1/2+z
1/2+x,1/2-y,-z
1/2-x,1/2+y,1/2-z
1/2-x,1/2-y,-z
1/2+x,1/2+y,1/2-z
1/2-x,1/2+y,z
1/2+x,1/2-y,1/2+z
loop_
_atom_site_type_symbol
_atom_site_label
_atom_site_fract_x
_atom_site_fract_y
_atom_site_fract_z
Si Si1 0.592265 0.468769 0.364873
Si Si2 0.412436 0.695652 0.477001
Si Si3 0.902150 0.072634 0.363305
Si Si4 0.169213 0.116107 0.542990
Si Si5 0.251004 0.717636 0.362795
Si Si6 0.800308 0.679796 0.864588
Si Si7 0.089845 0.701841 0.471156
O O1 0.590244 0.467244 0.250000
O O2 0.500000 0.459991 0.401056
O O3 0.612912 0.520230 0.388581
O O4 0.649345 0.429350 0.401527
O O5 0.500000 0.688794 0.426619
O O6 0.397958 0.655775 0.552051
O O7 0.333409 0.698201 0.409273
O O8 0.415623 0.744275 0.524650
O O9 0.887232 0.079310 0.250000
O O10 0.844471 0.101645 0.432091
O O11 0.000000 0.080844 0.379143
O O12 0.249649 0.140039 0.584627
O O13 0.252372 0.711654 0.250000
O O14 0.255439 0.771762 0.381576
O O15 0.170100 0.694815 0.406351
O O16 0.807707 0.673792 0.750000
O O17 0.885034 0.685249 0.922512
O O18 0.000000 0.684707 0.441981
#
# Coordination Sequence:
#
# PCOD9469859 Si02
#       7
#    16  16  16  16  16  16  16
#     4   9  18  31  45  66  96 133 173 205 240 293
#     4  10  19  30  48  72 100 131 170 209 243 290
#     4   9  19  33  46  64  96 135 174 209 240 289
#     4  12  18  29  49  70 100 128 164 211 255 285
#     4  10  19  35  51  68 100 135 166 206 256 300
#     4  10  20  34  51  72  98 126 162 213 263 299
#     4  10  19  36  53  68  95 133 172 208 255 303
#
# _framework density 16.471620999999999
#
# number of rings (size 3 to 8) (size 9 to 14) (size 15 to 20)
#    0.000    2.000    2.857    3.857    0.000    2.571 
#    0.000    2.857    0.000    0.000    0.000    0.000 
#    0.000    2.286    0.000    3.429    0.571    0.000 
#
# Total GULP energy -311793.381860 kJ/mol
# GULP energy per Si atom -5567.738962 kJ/mol
# Density = 1.643413 g / cm^3
# Si number density = 16.471621 Si / 1000 Ang^3
#
#
#
# Elastic Constant Matrix: (Units=GPa)
#
#
# Indices 1 2 3 4 5 6 
#
# 1 93.7524 0.3316 11.2793 0.0000 0.0000 0.0000
# 2 0.3316 63.6728 -1.6516 0.0000 0.0000 0.0000
# 3 11.2793 -1.6516 35.8734 0.0000 0.0000 0.0000
# 4 0.0000 0.0000 0.0000 23.6227 0.0000 0.0000
# 5 0.0000 0.0000 0.0000 0.0000 6.0582 0.0000
# 6 0.0000 0.0000 0.0000 0.0000 0.0000 2.4833
#
#
#
# Elastic Compliance Matrix: (Units=1/GPa)
#
#
# Indices 1 2 3 4 5 6 
#
# 1 0.011087 -0.000148 -0.003493 0.000000 0.000000 0.000000
# 2 -0.000148 0.015726 0.000771 0.000000 0.000000 0.000000
# 3 -0.003493 0.000771 0.029010 0.000000 0.000000 0.000000
# 4 0.000000 0.000000 0.000000 0.042332 0.000000 0.000000
# 5 0.000000 0.000000 0.000000 0.000000 0.165066 0.000000
# 6 0.000000 0.000000 0.000000 0.000000 0.000000 0.402691
#
#
# Mechanical properties :
#
#
# Convention : Reuss Voigt Hill
#
# Bulk Modulus (GPa) = 19.96738 23.69078 21.82908
# Shear Modulus (GPa) = 7.26377 18.65545 12.95961
#
# Velocity S-wave (km/s) = 2.10225 3.36904 2.80801
# Velocity P-wave (km/s) = 4.24749 5.43580 4.87796
#
# Compressibility (1/GPa) = 0.05008169
#
# Stress axis : x y z
#
# Youngs Moduli (GPa) = 90.19459 63.58870 34.47146
#
# Poissons Ratio (x) = 0.00943 0.12040
# Poissons Ratio (y) = 0.01338 -0.02657
# Poissons Ratio (z) = 0.31504 -0.04901
#
# Static dielectric constant tensor:
#      x y z
#    x 1.576770 0.000000 0.000000 
#    y 0.000000 1.578260 0.000000 
#    z 0.000000 0.000000 1.592660 
# 
# From -- ./inp_files/32577.got.cif
#   From: 2010.05.17/outbox.cif.g08.bks.cpg/sg63_17_cif.got.tgz:32577.got - 2010.06.03 15:47:04.
