data_PCOD9469657
_publ_section_title
;
Structure prediction by ZEFSAII (Michael W. Deem and Ramdas Pophale) SiO2 
 PCOD9469657
Probable space group: C M C M
;
_chemical_formula_sum "Si O2"
_cell_formula_units_Z 96
_cell_length_a 7.666531
_cell_length_b 28.024587
_cell_length_c 25.067775
_cell_angle_alpha 90.000000
_cell_angle_beta 90.000000
_cell_angle_gamma 90.000000
_cell_volume 5385.845676
_symmetry_space_group_name_H-M "C M C M"
_symmetry_group_IT_number 63
_symmetry_cell_setting 'orthorhombic'
loop_
_space_group_symop_operation_xyz
x,y,z
-x,-y,1/2+z
x,-y,-z
-x,y,1/2-z
-x,-y,-z
x,y,1/2-z
-x,y,z
x,-y,1/2+z
1/2+x,1/2+y,z
1/2-x,1/2-y,1/2+z
1/2+x,1/2-y,-z
1/2-x,1/2+y,1/2-z
1/2-x,1/2-y,-z
1/2+x,1/2+y,1/2-z
1/2-x,1/2+y,z
1/2+x,1/2-y,1/2+z
loop_
_atom_site_type_symbol
_atom_site_label
_atom_site_fract_x
_atom_site_fract_y
_atom_site_fract_z
Si Si1 0.794413 0.682669 0.026779
Si Si2 0.210749 0.931361 0.190529
Si Si3 0.708632 0.819951 0.190895
Si Si4 0.795750 0.725167 0.916377
Si Si5 0.286808 0.479922 0.083192
Si Si6 0.210226 0.073698 0.022849
O O1 0.718403 0.718963 0.070187
O O2 0.766410 0.626986 0.035813
O O3 0.000000 0.692420 0.026340
O O4 0.721663 0.697872 0.968415
O O5 0.272323 0.945119 0.250000
O O6 0.259790 0.876156 0.181808
O O7 0.273889 0.962894 0.141007
O O8 0.000000 0.933897 0.190842
O O9 0.779320 0.808109 0.250000
O O10 0.500000 0.812365 0.193300
O O11 0.779626 0.790983 0.140250
O O12 0.000000 0.712233 0.914503
O O13 0.500000 0.479793 0.083741
O O14 0.231871 0.532486 0.063873
O O15 0.232962 0.443349 0.036243
O O16 0.000000 0.073064 0.022655
#
# Coordination Sequence:
#
# PCOD9469657 Si02
#       6
#    16  16  16  16  16  16
#     4  10  19  29  43  65  89 111 140 177 213 250
#     4   9  16  26  42  64  88 111 136 169 208 249
#     4   9  17  29  45  65  88 112 139 172 210 253
#     4   9  18  31  45  62  86 115 142 170 209 255
#     4   8  15  27  43  63  84 110 143 172 202 246
#     4   9  16  28  45  61  82 113 144 173 206 246
#
# _framework density 17.824497999999998
#
# number of rings (size 3 to 8) (size 9 to 14) (size 15 to 20)
#    0.000    3.000    0.000    2.500    0.000    1.333 
#    0.000    2.500    0.000    1.000    0.000    4.667 
#    0.000    0.000    0.000    0.000    0.000    0.000 
#
# Total GULP energy -267502.759770 kJ/mol
# GULP energy per Si atom -5572.974162 kJ/mol
# Density = 1.778393 g / cm^3
# Si number density = 17.824498 Si / 1000 Ang^3
#
#
#
# Elastic Constant Matrix: (Units=GPa)
#
#
# Indices 1 2 3 4 5 6 
#
# 1 29.7393 -12.8754 5.7291 0.0000 0.0000 0.0000
# 2 -12.8754 93.8877 80.5504 0.0000 0.0000 0.0000
# 3 5.7291 80.5504 175.0833 0.0000 0.0000 0.0000
# 4 0.0000 0.0000 0.0000 27.6254 0.0000 0.0000
# 5 0.0000 0.0000 0.0000 0.0000 2.3681 0.0000
# 6 0.0000 0.0000 0.0000 0.0000 0.0000 20.4822
#
#
#
# Elastic Compliance Matrix: (Units=1/GPa)
#
#
# Indices 1 2 3 4 5 6 
#
# 1 0.039497 0.010781 -0.006252 0.000000 0.000000 0.000000
# 2 0.010781 0.020539 -0.009802 0.000000 0.000000 0.000000
# 3 -0.006252 -0.009802 0.010426 0.000000 0.000000 0.000000
# 4 0.000000 0.000000 0.000000 0.036199 0.000000 0.000000
# 5 0.000000 0.000000 0.000000 0.000000 0.422280 0.000000
# 6 0.000000 0.000000 0.000000 0.000000 0.000000 0.048823
#
#
# Mechanical properties :
#
#
# Convention : Reuss Voigt Hill
#
# Bulk Modulus (GPa) = 16.69041 49.50205 33.09623
# Shear Modulus (GPa) = 8.21985 25.11555 16.66770
#
# Velocity S-wave (km/s) = 2.14978 3.75780 3.06126
# Velocity P-wave (km/s) = 3.94286 6.83083 5.57703
#
# Compressibility (1/GPa) = 0.05991464
#
# Stress axis : x y z
#
# Youngs Moduli (GPa) = 25.31815 48.68746 95.91549
#
# Poissons Ratio (x) = -0.52488 0.59969
# Poissons Ratio (y) = -0.27294 0.94018
# Poissons Ratio (z) = 0.15830 0.47724
#
# Static dielectric constant tensor:
#      x y z
#    x 1.661170 0.000000 0.000000 
#    y 0.000000 1.576870 0.000000 
#    z 0.000000 0.000000 1.642340 
# 
# From -- ./inp_files/59891.got.cif
#   From: 2010.05.17/outbox.cif.g08.bks.cpg/sg63_30_cif.got.tgz:59891.got - 2010.06.03 15:47:04.
