data_PCOD9469800
_publ_section_title
;
Structure prediction by ZEFSAII (Michael W. Deem and Ramdas Pophale) SiO2 
 PCOD9469800
Probable space group: C M C M
;
_chemical_formula_sum "Si O2"
_cell_formula_units_Z 96
_cell_length_a 8.247927
_cell_length_b 30.571296
_cell_length_c 19.750865
_cell_angle_alpha 90.000000
_cell_angle_beta 90.000000
_cell_angle_gamma 90.000000
_cell_volume 4980.177009
_symmetry_space_group_name_H-M "C M C M"
_symmetry_group_IT_number 63
_symmetry_cell_setting 'orthorhombic'
loop_
_space_group_symop_operation_xyz
x,y,z
-x,-y,1/2+z
x,-y,-z
-x,y,1/2-z
-x,-y,-z
x,y,1/2-z
-x,y,z
x,-y,1/2+z
1/2+x,1/2+y,z
1/2-x,1/2-y,1/2+z
1/2+x,1/2-y,-z
1/2-x,1/2+y,1/2-z
1/2-x,1/2-y,-z
1/2+x,1/2+y,1/2-z
1/2-x,1/2+y,z
1/2+x,1/2-y,1/2+z
loop_
_atom_site_type_symbol
_atom_site_label
_atom_site_fract_x
_atom_site_fract_y
_atom_site_fract_z
Si Si1 0.000000 0.066232 0.946304
Si Si2 0.174740 0.574958 0.379768
Si Si3 0.321046 0.111300 0.527906
Si Si4 0.000000 0.968698 0.602173
Si Si5 0.194837 0.757929 0.172985
Si Si6 0.319611 0.337875 0.831134
Si Si7 0.306053 0.295427 0.466624
O O1 0.836685 0.093770 0.932780
O O2 0.000000 0.020514 0.907373
O O3 0.000000 0.053078 0.026566
O O4 0.170609 0.581481 0.460757
O O5 0.335032 0.547633 0.362709
O O6 0.200699 0.623850 0.352398
O O7 0.000000 0.557283 0.357474
O O8 0.500000 0.109576 0.560198
O O9 0.281494 0.161240 0.506613
O O10 0.248941 0.768005 0.250000
O O11 0.265955 0.710983 0.151396
O O12 0.234110 0.791672 0.113597
O O13 0.000000 0.753587 0.174342
O O14 0.327388 0.338551 0.750000
O O15 0.500000 0.346932 0.859185
O O16 0.500000 0.299645 0.474942
O O17 0.250000 0.250000 0.500000
#
# Coordination Sequence:
#
# PCOD9469800 Si02
#       7
#     8  16  16   8  16  16  16
#     4   9  18  34  52  72 102 134 164 204 259 306
#     4  10  19  31  49  73 102 134 166 203 253 306
#     4  10  20  33  50  74 103 135 170 208 254 308
#     4   9  18  32  51  74 100 130 165 208 249 309
#     4   9  19  34  49  68  98 137 179 218 256 303
#     4  10  19  30  46  69  99 136 172 207 252 305
#     4  11  21  32  49  74 104 138 175 218 266 309
#
# _framework density 19.276423000000001
#
# number of rings (size 3 to 8) (size 9 to 14) (size 15 to 20)
#    0.000    2.167    1.667    2.000    0.000    7.000 
#    0.000    3.333    0.000    0.000    0.000    2.333 
#    0.000    0.000    0.000    0.000    0.000    0.000 
#
# Total GULP energy -267668.337816 kJ/mol
# GULP energy per Si atom -5576.423705 kJ/mol
# Density = 1.923255 g / cm^3
# Si number density = 19.276423 Si / 1000 Ang^3
#
#
#
# Elastic Constant Matrix: (Units=GPa)
#
#
# Indices 1 2 3 4 5 6 
#
# 1 141.5921 44.9624 10.1674 0.0000 0.0000 0.0000
# 2 44.9624 56.4640 -3.3598 0.0000 0.0000 0.0000
# 3 10.1674 -3.3598 26.2244 0.0000 0.0000 0.0000
# 4 0.0000 0.0000 0.0000 14.5888 0.0000 0.0000
# 5 0.0000 0.0000 0.0000 0.0000 13.4647 0.0000
# 6 0.0000 0.0000 0.0000 0.0000 0.0000 16.5330
#
#
#
# Elastic Compliance Matrix: (Units=1/GPa)
#
#
# Indices 1 2 3 4 5 6 
#
# 1 0.010055 -0.008302 -0.004962 0.000000 0.000000 0.000000
# 2 -0.008302 0.024701 0.006383 0.000000 0.000000 0.000000
# 3 -0.004962 0.006383 0.040874 0.000000 0.000000 0.000000
# 4 0.000000 0.000000 0.000000 0.068546 0.000000 0.000000
# 5 0.000000 0.000000 0.000000 0.000000 0.074269 0.000000
# 6 0.000000 0.000000 0.000000 0.000000 0.000000 0.060485
#
#
# Mechanical properties :
#
#
# Convention : Reuss Voigt Hill
#
# Bulk Modulus (GPa) = 16.16323 36.42450 26.29386
# Shear Modulus (GPa) = 15.95839 20.41799 18.18819
#
# Velocity S-wave (km/s) = 2.88040 3.25810 3.07505
# Velocity P-wave (km/s) = 4.41196 5.75243 5.12620
#
# Compressibility (1/GPa) = 0.06186883
#
# Stress axis : x y z
#
# Youngs Moduli (GPa) = 99.45068 40.48360 24.46539
#
# Poissons Ratio (x) = 0.33611 0.12140
# Poissons Ratio (y) = 0.82567 -0.15617
# Poissons Ratio (z) = 0.49349 -0.25843
#
# Static dielectric constant tensor:
#      x y z
#    x 1.729880 0.000000 0.000000 
#    y 0.000000 1.651040 0.000000 
#    z 0.000000 0.000000 1.706620 
# 
# From -- ./inp_files/60100.got.cif
#   From: 2010.05.17/outbox.cif.g08.bks.cpg/sg63_31_cif.got.tgz:60100.got - 2010.06.03 15:47:04.
