data_PCOD9469700
_publ_section_title
;
Structure prediction by ZEFSAII (Michael W. Deem and Ramdas Pophale) SiO2 
 PCOD9469700
Probable space group: C M C M
;
_chemical_formula_sum "Si O2"
_cell_formula_units_Z 80
_cell_length_a 14.218278
_cell_length_b 36.132295
_cell_length_c 7.451123
_cell_angle_alpha 90.000000
_cell_angle_beta 90.000000
_cell_angle_gamma 90.000000
_cell_volume 3827.932591
_symmetry_space_group_name_H-M "C M C M"
_symmetry_group_IT_number 63
_symmetry_cell_setting 'orthorhombic'
loop_
_space_group_symop_operation_xyz
x,y,z
-x,-y,1/2+z
x,-y,-z
-x,y,1/2-z
-x,-y,-z
x,y,1/2-z
-x,y,z
x,-y,1/2+z
1/2+x,1/2+y,z
1/2-x,1/2-y,1/2+z
1/2+x,1/2-y,-z
1/2-x,1/2+y,1/2-z
1/2-x,1/2-y,-z
1/2+x,1/2+y,1/2-z
1/2-x,1/2+y,z
1/2+x,1/2-y,1/2+z
loop_
_atom_site_type_symbol
_atom_site_label
_atom_site_fract_x
_atom_site_fract_y
_atom_site_fract_z
Si Si1 0.893194 0.651883 0.033730
Si Si2 0.110446 0.812181 0.469021
Si Si3 0.210522 0.113886 0.962124
Si Si4 0.392536 0.458733 0.464898
Si Si5 0.114678 0.732254 0.038382
O O1 0.895952 0.654537 0.250000
O O2 0.857376 0.692127 0.963984
O O3 0.000000 0.646092 0.971919
O O4 0.821071 0.619952 0.985466
O O5 0.115539 0.811300 0.250000
O O6 0.162493 0.848730 0.535816
O O7 0.147164 0.772019 0.534347
O O8 0.000000 0.815026 0.514153
O O9 0.190267 0.114155 0.750000
O O10 0.168310 0.075685 0.033851
O O11 0.355488 0.500000 0.500000
O O12 0.397315 0.455418 0.250000
O O13 0.500000 0.456672 0.533865
O O14 0.136408 0.732209 0.250000
O O15 0.000000 0.732619 0.024229
#
# Coordination Sequence:
#
# PCOD9469700 Si02
#       5
#    16  16  16  16  16
#     4   9  18  32  47  63  88 125 165 198 227 264
#     4   8  13  23  41  65  93 123 153 186 226 273
#     4  10  19  29  46  73  97 117 148 192 235 271
#     4   9  18  33  52  74 100 126 149 176 217 274
#     4   7  11  22  40  60  84 119 160 193 221 261
#
# _framework density 20.899007999999998
#
# number of rings (size 3 to 8) (size 9 to 14) (size 15 to 20)
#    0.000    3.400    0.000    3.000    0.000    4.400 
#    0.000    0.000    0.000    2.400    0.000    2.800 
#    0.000    0.000    0.000    0.000    0.000    0.000 
#
# Total GULP energy -223125.441198 kJ/mol
# GULP energy per Si atom -5578.136030 kJ/mol
# Density = 2.085144 g / cm^3
# Si number density = 20.899008 Si / 1000 Ang^3
#
#
#
# Elastic Constant Matrix: (Units=GPa)
#
#
# Indices 1 2 3 4 5 6 
#
# 1 75.3015 87.7743 -4.7615 0.0000 0.0000 0.0000
# 2 87.7743 195.7831 8.6934 0.0000 0.0000 0.0000
# 3 -4.7615 8.6934 64.7112 0.0000 0.0000 0.0000
# 4 0.0000 0.0000 0.0000 -5.1685 0.0000 0.0000
# 5 0.0000 0.0000 0.0000 0.0000 7.9065 0.0000
# 6 0.0000 0.0000 0.0000 0.0000 0.0000 35.7160
#
#
#
# Elastic Compliance Matrix: (Units=1/GPa)
#
#
# Indices 1 2 3 4 5 6 
#
# 1 0.028748 -0.013060 0.003870 0.000000 0.000000 0.000000
# 2 -0.013060 0.011072 -0.002448 0.000000 0.000000 0.000000
# 3 0.003870 -0.002448 0.016067 0.000000 0.000000 0.000000
# 4 0.000000 0.000000 0.000000 -0.193480 0.000000 0.000000
# 5 0.000000 0.000000 0.000000 0.000000 0.126478 0.000000
# 6 0.000000 0.000000 0.000000 0.000000 0.000000 0.027999
#
#
# Mechanical properties :
#
#
# Convention : Reuss Voigt Hill
#
# Bulk Modulus (GPa) = 30.66620 57.68980 44.17800
# Shear Modulus (GPa) = 97.97848 23.96344 60.97096
#
# Velocity S-wave (km/s) = 6.85446 3.38987 5.40716
# Velocity P-wave (km/s) = 8.79490 6.55634 7.75680
#
# Compressibility (1/GPa) = 0.03260919
#
# Stress axis : x y z
#
# Youngs Moduli (GPa) = 34.78455 90.32020 62.23955
#
# Poissons Ratio (x) = 1.17962 -0.24086
# Poissons Ratio (y) = 0.45430 0.15239
# Poissons Ratio (z) = -0.13461 0.22114
#
# Static dielectric constant tensor:
#      x y z
#    x 1.767200 0.000000 0.000000 
#    y 0.000000 1.763960 0.000000 
#    z 0.000000 0.000000 1.818000 
# 
# From -- ./inp_files/17865.got.cif
#   From: 2010.05.17/outbox.cif.g08.bks.cpg/sg63_9_cif.got.tgz:17865.got - 2010.06.03 15:47:04.
