data_PCOD9469116
_publ_section_title
;
Structure prediction by ZEFSAII (Michael W. Deem and Ramdas Pophale) SiO2 
 PCOD9469116
Probable space group: C M C M
;
_chemical_formula_sum "Si O2"
_cell_formula_units_Z 112
_cell_length_a 22.555870
_cell_length_b 14.952616
_cell_length_c 13.706423
_cell_angle_alpha 90.000000
_cell_angle_beta 90.000000
_cell_angle_gamma 90.000000
_cell_volume 4622.755179
_symmetry_space_group_name_H-M "C M C M"
_symmetry_group_IT_number 63
_symmetry_cell_setting 'orthorhombic'
loop_
_space_group_symop_operation_xyz
x,y,z
-x,-y,1/2+z
x,-y,-z
-x,y,1/2-z
-x,-y,-z
x,y,1/2-z
-x,y,z
x,-y,1/2+z
1/2+x,1/2+y,z
1/2-x,1/2-y,1/2+z
1/2+x,1/2-y,-z
1/2-x,1/2+y,1/2-z
1/2-x,1/2-y,-z
1/2+x,1/2+y,1/2-z
1/2-x,1/2+y,z
1/2+x,1/2-y,1/2+z
loop_
_atom_site_type_symbol
_atom_site_label
_atom_site_fract_x
_atom_site_fract_y
_atom_site_fract_z
Si Si1 0.160209 0.607770 0.369415
Si Si2 0.767805 0.981945 0.366205
Si Si3 0.599864 0.503725 0.637369
Si Si4 0.775320 0.216146 0.865381
Si Si5 0.931747 0.466306 0.132341
Si Si6 0.635551 0.781728 0.136243
Si Si7 0.934729 0.850727 0.998946
O O1 0.158988 0.611124 0.250000
O O2 0.213691 0.541840 0.398980
O O3 0.181490 0.705933 0.403085
O O4 0.099589 0.558898 0.401607
O O5 0.757107 0.969709 0.250000
O O6 0.831890 0.026158 0.376578
O O7 0.775933 0.883113 0.409519
O O8 0.585120 0.502341 0.750000
O O9 0.592356 0.603266 0.594832
O O10 0.562772 0.433976 0.576043
O O11 0.790081 0.208081 0.750000
O O12 0.705505 0.238691 0.870751
O O13 0.935312 0.473075 0.250000
O O14 0.885698 0.383974 0.117295
O O15 0.000000 0.451784 0.098865
O O16 0.618862 0.762528 0.250000
O O17 0.601027 0.722182 0.059730
O O18 0.000000 0.817036 0.022374
#
# Coordination Sequence:
#
# PCOD9469116 Si02
#       7
#    16  16  16  16  16  16  16
#     4   9  15  25  44  73 106 144 189 235 288 345
#     4   9  16  30  51  77 107 142 187 234 288 350
#     4  10  21  37  56  77 110 152 188 232 288 342
#     4   9  16  27  49  78 111 150 191 239 293 348
#     4   9  16  26  43  69 106 149 187 230 289 350
#     4  10  18  31  51  81 115 147 185 233 292 347
#     4  11  23  36  54  83 113 147 194 235 280 349
#
# _framework density 24.227976000000002
#
# number of rings (size 3 to 8) (size 9 to 14) (size 15 to 20)
#    0.000    2.429    1.429    2.571    0.000    4.857 
#    0.000    0.714    0.000    1.714    0.000    8.000 
#    0.000    2.286    0.000    0.143    0.000    0.000 
#
# Total GULP energy -313047.218522 kJ/mol
# GULP energy per Si atom -5590.128902 kJ/mol
# Density = 2.417283 g / cm^3
# Si number density = 24.227976 Si / 1000 Ang^3
#
#
#
# Elastic Constant Matrix: (Units=GPa)
#
#
# Indices 1 2 3 4 5 6 
#
# 1 81.0481 30.8268 2.2452 0.0000 0.0000 0.0000
# 2 30.8268 88.1182 15.7665 0.0000 0.0000 0.0000
# 3 2.2452 15.7665 92.8336 0.0000 0.0000 0.0000
# 4 0.0000 0.0000 0.0000 33.6466 0.0000 0.0000
# 5 0.0000 0.0000 0.0000 0.0000 15.6230 0.0000
# 6 0.0000 0.0000 0.0000 0.0000 0.0000 613.7769
#
#
#
# Elastic Compliance Matrix: (Units=1/GPa)
#
#
# Indices 1 2 3 4 5 6 
#
# 1 0.014256 -0.005080 0.000518 0.000000 0.000000 0.000000
# 2 -0.005080 0.013514 -0.002172 0.000000 0.000000 0.000000
# 3 0.000518 -0.002172 0.011128 0.000000 0.000000 0.000000
# 4 0.000000 0.000000 0.000000 0.029721 0.000000 0.000000
# 5 0.000000 0.000000 0.000000 0.000000 0.064008 0.000000
# 6 0.000000 0.000000 0.000000 0.000000 0.000000 0.001629
#
#
# Mechanical properties :
#
#
# Convention : Reuss Voigt Hill
#
# Bulk Modulus (GPa) = 39.32350 39.96411 39.64381
# Shear Modulus (GPa) = 32.00974 146.82006 89.41490
#
# Velocity S-wave (km/s) = 3.63876 7.79301 6.08159
# Velocity P-wave (km/s) = 5.82408 9.87448 8.10634
#
# Compressibility (1/GPa) = 0.02543008
#
# Stress axis : x y z
#
# Youngs Moduli (GPa) = 70.14502 73.99603 89.86030
#
# Poissons Ratio (x) = 0.37590 -0.04655
# Poissons Ratio (y) = 0.35634 0.19521
# Poissons Ratio (z) = -0.03633 0.16075
#
# Static dielectric constant tensor:
#      x y z
#    x 1.924980 0.000000 0.000000 
#    y 0.000000 1.947470 0.000000 
#    z 0.000000 0.000000 1.945510 
# 
# From -- ./inp_files/36907.got.cif
#   From: 2010.05.17/outbox.cif.g08.bks.cpg/sg63_19_cif.got.tgz:36907.got - 2010.06.03 15:47:04.
