data_PCOD9469650
_publ_section_title
;
Structure prediction by ZEFSAII (Michael W. Deem and Ramdas Pophale) SiO2 
 PCOD9469650
Probable space group: C M C M
;
_chemical_formula_sum "Si O2"
_cell_formula_units_Z 80
_cell_length_a 7.381148
_cell_length_b 28.429604
_cell_length_c 18.889200
_cell_angle_alpha 90.000000
_cell_angle_beta 90.000000
_cell_angle_gamma 90.000000
_cell_volume 3963.768562
_symmetry_space_group_name_H-M "C M C M"
_symmetry_group_IT_number 63
_symmetry_cell_setting 'orthorhombic'
loop_
_space_group_symop_operation_xyz
x,y,z
-x,-y,1/2+z
x,-y,-z
-x,y,1/2-z
-x,-y,-z
x,y,1/2-z
-x,y,z
x,-y,1/2+z
1/2+x,1/2+y,z
1/2-x,1/2-y,1/2+z
1/2+x,1/2-y,-z
1/2-x,1/2+y,1/2-z
1/2-x,1/2-y,-z
1/2+x,1/2+y,1/2-z
1/2-x,1/2+y,z
1/2+x,1/2-y,1/2+z
loop_
_atom_site_type_symbol
_atom_site_label
_atom_site_fract_x
_atom_site_fract_y
_atom_site_fract_z
Si Si1 0.720313 0.901058 0.170550
Si Si2 0.721269 0.949695 0.028306
Si Si3 0.285031 0.709523 0.329670
Si Si4 0.220643 0.696017 0.903735
Si Si5 0.716800 0.853924 0.956778
O O1 0.782817 0.911018 0.250000
O O2 0.500000 0.901860 0.171452
O O3 0.776952 0.936517 0.108340
O O4 0.770675 0.848506 0.145221
O O5 0.500000 0.950246 0.027929
O O6 0.779431 0.905786 0.979382
O O7 0.782381 0.000000 0.000000
O O8 0.213121 0.705307 0.250000
O O9 0.500000 0.716888 0.323760
O O10 0.212782 0.755234 0.371322
O O11 0.260012 0.664449 0.379260
O O12 0.000000 0.697585 0.905175
O O13 0.281821 0.682935 0.983091
O O14 0.500000 0.854956 0.962654
#
# Coordination Sequence:
#
# PCOD9469650 Si02
#       5
#    16  16  16  16  16
#     4   8  12  19  34  56  79 102 132 172 212 245
#     4   8  14  25  40  58  82 110 138 170 209 251
#     4  10  19  29  42  61  86 115 144 173 204 243
#     4   8  14  25  41  60  81 106 137 172 210 249
#     4   9  17  29  45  63  84 111 140 173 213 253
#
# _framework density 20.182814
#
# number of rings (size 3 to 8) (size 9 to 14) (size 15 to 20)
#    0.000    3.400    0.000    3.600    0.000    2.800 
#    0.000    1.000    0.000    4.200    0.000    0.000 
#    0.000    7.200    0.000    0.000    0.000    0.000 
#
# Total GULP energy -223116.867230 kJ/mol
# GULP energy per Si atom -5577.921681 kJ/mol
# Density = 2.013688 g / cm^3
# Si number density = 20.182814 Si / 1000 Ang^3
#
#
#
# Elastic Constant Matrix: (Units=GPa)
#
#
# Indices 1 2 3 4 5 6 
#
# 1 69.1662 0.6363 0.1852 0.0000 0.0000 0.0000
# 2 0.6363 121.0919 94.8162 0.0000 0.0000 0.0000
# 3 0.1852 94.8162 156.3512 0.0000 0.0000 0.0000
# 4 0.0000 0.0000 0.0000 19.4273 0.0000 0.0000
# 5 0.0000 0.0000 0.0000 0.0000 4.6957 0.0000
# 6 0.0000 0.0000 0.0000 0.0000 0.0000 -3.2555
#
#
#
# Elastic Compliance Matrix: (Units=1/GPa)
#
#
# Indices 1 2 3 4 5 6 
#
# 1 0.014459 -0.000119 0.000055 0.000000 0.000000 0.000000
# 2 -0.000119 0.015726 -0.009537 0.000000 0.000000 0.000000
# 3 0.000055 -0.009537 0.012179 0.000000 0.000000 0.000000
# 4 0.000000 0.000000 0.000000 0.051474 0.000000 0.000000
# 5 0.000000 0.000000 0.000000 0.000000 0.212961 0.000000
# 6 0.000000 0.000000 0.000000 0.000000 0.000000 -0.307168
#
#
# Mechanical properties :
#
#
# Convention : Reuss Voigt Hill
#
# Bulk Modulus (GPa) = 43.17276 59.76496 51.46886
# Shear Modulus (GPa) = 188.30222 20.90492 104.60357
#
# Velocity S-wave (km/s) = 9.66958 3.22184 7.20698
# Velocity P-wave (km/s) = 12.08739 6.59670 9.73708
#
# Compressibility (1/GPa) = 0.02316276
#
# Stress axis : x y z
#
# Youngs Moduli (GPa) = 69.16167 63.58851 82.10775
#
# Poissons Ratio (x) = 0.00758 -0.00453
# Poissons Ratio (y) = 0.00824 0.78303
# Poissons Ratio (z) = -0.00381 0.60642
#
# Static dielectric constant tensor:
#      x y z
#    x 1.822190 0.000000 0.000000 
#    y 0.000000 1.681630 0.000000 
#    z 0.000000 0.000000 1.721160 
# 
# From -- ./inp_files/30001.got.cif
#   From: 2010.05.17/outbox.cif.g08.bks.cpg/sg63_16_cif.got.tgz:30001.got - 2010.06.03 15:47:04.
