data_PCOD9469453
_publ_section_title
;
Structure prediction by ZEFSAII (Michael W. Deem and Ramdas Pophale) SiO2 
 PCOD9469453
Probable space group: C M C M
;
_chemical_formula_sum "Si O2"
_cell_formula_units_Z 96
_cell_length_a 7.607817
_cell_length_b 26.146618
_cell_length_c 24.428153
_cell_angle_alpha 90.000000
_cell_angle_beta 90.000000
_cell_angle_gamma 90.000000
_cell_volume 4859.216070
_symmetry_space_group_name_H-M "C M C M"
_symmetry_group_IT_number 63
_symmetry_cell_setting 'orthorhombic'
loop_
_space_group_symop_operation_xyz
x,y,z
-x,-y,1/2+z
x,-y,-z
-x,y,1/2-z
-x,-y,-z
x,y,1/2-z
-x,y,z
x,-y,1/2+z
1/2+x,1/2+y,z
1/2-x,1/2-y,1/2+z
1/2+x,1/2-y,-z
1/2-x,1/2+y,1/2-z
1/2-x,1/2-y,-z
1/2+x,1/2+y,1/2-z
1/2-x,1/2+y,z
1/2+x,1/2-y,1/2+z
loop_
_atom_site_type_symbol
_atom_site_label
_atom_site_fract_x
_atom_site_fract_y
_atom_site_fract_z
Si Si1 0.212282 0.803543 0.066608
Si Si2 0.715852 0.406148 0.868561
Si Si3 0.214596 0.994659 0.062308
Si Si4 0.712154 0.600919 0.634510
Si Si5 0.202126 0.551469 0.750000
Si Si6 0.290777 0.686864 0.057487
Si Si7 0.203314 0.934473 0.750000
O O1 0.274045 0.844526 0.111329
O O2 0.260216 0.744759 0.076946
O O3 0.000000 0.805956 0.065224
O O4 0.277016 0.817146 0.005072
O O5 0.500000 0.405765 0.867336
O O6 0.767086 0.456183 0.902737
O O7 0.776311 0.355799 0.900749
O O8 0.779740 0.413353 0.806585
O O9 0.000000 0.993495 0.061476
O O10 0.272544 0.943308 0.092766
O O11 0.273878 0.000000 0.000000
O O12 0.500000 0.601462 0.632969
O O13 0.760670 0.584141 0.695618
O O14 0.297044 0.496471 0.750000
O O15 0.000000 0.536969 0.750000
O O16 0.500000 0.678804 0.053789
O O17 0.000000 0.918251 0.750000
#
# Coordination Sequence:
#
# PCOD9469453 Si02
#       7
#    16  16  16  16   8  16   8
#     4   9  18  32  52  77 103 135 174 210 253 308
#     4   9  16  27  48  75 100 128 169 210 246 295
#     4   9  15  24  46  79 104 122 158 215 261 293
#     4  10  19  34  55  76 101 136 178 217 254 303
#     4  12  24  36  51  74 105 139 174 212 262 317
#     4   9  17  31  51  77 107 137 169 211 258 302
#     4  10  18  34  55  74  97 133 174 210 254 303
#
# _framework density 19.756271999999999
#
# number of rings (size 3 to 8) (size 9 to 14) (size 15 to 20)
#    0.000    2.500    1.667    1.750    0.000    4.667 
#    0.000    1.667    0.000    1.500    0.000    0.000 
#    0.000    0.000    0.000    0.000    0.000    0.000 
#
# Total GULP energy -267887.531667 kJ/mol
# GULP energy per Si atom -5580.990243 kJ/mol
# Density = 1.971131 g / cm^3
# Si number density = 19.756272 Si / 1000 Ang^3
#
#
#
# Elastic Constant Matrix: (Units=GPa)
#
#
# Indices 1 2 3 4 5 6 
#
# 1 38.9845 -15.2912 -10.3801 0.0000 0.0000 0.0000
# 2 -15.2912 52.5689 3.9080 0.0000 0.0000 0.0000
# 3 -10.3801 3.9080 71.3817 0.0000 0.0000 0.0000
# 4 0.0000 0.0000 0.0000 22.9564 0.0000 0.0000
# 5 0.0000 0.0000 0.0000 0.0000 -5.0938 0.0000
# 6 0.0000 0.0000 0.0000 0.0000 0.0000 15.3172
#
#
#
# Elastic Compliance Matrix: (Units=1/GPa)
#
#
# Indices 1 2 3 4 5 6 
#
# 1 0.029999 0.008436 0.003900 0.000000 0.000000 0.000000
# 2 0.008436 0.021473 0.000051 0.000000 0.000000 0.000000
# 3 0.003900 0.000051 0.014574 0.000000 0.000000 0.000000
# 4 0.000000 0.000000 0.000000 0.043561 0.000000 0.000000
# 5 0.000000 0.000000 0.000000 0.000000 -0.196315 0.000000
# 6 0.000000 0.000000 0.000000 0.000000 0.000000 0.065286
#
#
# Mechanical properties :
#
#
# Convention : Reuss Voigt Hill
#
# Bulk Modulus (GPa) = 11.01074 13.26760 12.13917
# Shear Modulus (GPa) = -313.96520 18.94919 -147.50801
#
# Velocity S-wave (km/s) = -12.61999 3.10037 -8.65020
# Velocity P-wave (km/s) = 14.37939 4.42116 9.67523
#
# Compressibility (1/GPa) = 0.09082040
#
# Stress axis : x y z
#
# Youngs Moduli (GPa) = 33.33477 46.57073 68.61732
#
# Poissons Ratio (x) = -0.39287 -0.26764
# Poissons Ratio (y) = -0.28121 -0.00351
# Poissons Ratio (z) = -0.13002 -0.00238
#
# Static dielectric constant tensor:
#      x y z
#    x 1.751550 0.000000 0.000000 
#    y 0.000000 1.665350 0.000000 
#    z 0.000000 0.000000 1.687800 
# 
# From -- ./inp_files/60001.got.cif
#   From: 2010.05.17/outbox.cif.g08.bks.cpg/sg63_31_cif.got.tgz:60001.got - 2010.06.03 15:47:04.
