data_PCOD9469339
_publ_section_title
;
Structure prediction by ZEFSAII (Michael W. Deem and Ramdas Pophale) SiO2 
 PCOD9469339
Probable space group: C M C M
;
_chemical_formula_sum "Si O2"
_cell_formula_units_Z 64
_cell_length_a 21.709351
_cell_length_b 18.673197
_cell_length_c 8.512344
_cell_angle_alpha 90.000000
_cell_angle_beta 90.000000
_cell_angle_gamma 90.000000
_cell_volume 3450.759445
_symmetry_space_group_name_H-M "C M C M"
_symmetry_group_IT_number 63
_symmetry_cell_setting 'orthorhombic'
loop_
_space_group_symop_operation_xyz
x,y,z
-x,-y,1/2+z
x,-y,-z
-x,y,1/2-z
-x,-y,-z
x,y,1/2-z
-x,y,z
x,-y,1/2+z
1/2+x,1/2+y,z
1/2-x,1/2-y,1/2+z
1/2+x,1/2-y,-z
1/2-x,1/2+y,1/2-z
1/2-x,1/2-y,-z
1/2+x,1/2+y,1/2-z
1/2-x,1/2+y,z
1/2+x,1/2-y,1/2+z
loop_
_atom_site_type_symbol
_atom_site_label
_atom_site_fract_x
_atom_site_fract_y
_atom_site_fract_z
Si Si1 0.000000 0.081681 0.560450
Si Si2 0.370087 0.081569 0.062531
Si Si3 0.500000 0.918226 0.062538
Si Si4 0.753520 0.669413 0.939156
Si Si5 0.133879 0.081276 0.939886
O O1 0.933407 0.111358 0.509713
O O2 0.000000 0.081736 0.750000
O O3 0.000000 0.000000 0.500000
O O4 0.371632 0.079173 0.250000
O O5 0.435506 0.111931 0.000638
O O6 0.313284 0.128600 0.003656
O O7 0.363204 0.000000 0.000000
O O8 0.500000 0.918249 0.250000
O O9 0.500000 0.000000 0.000000
O O10 0.755529 0.668759 0.750000
O O11 0.691910 0.627565 0.991994
O O12 0.750000 0.750000 0.000000
O O13 0.134598 0.079378 0.750000
O O14 0.139547 0.000000 0.000000
#
# Coordination Sequence:
#
# PCOD9469339 Si02
#       5
#     8  16   8  16  16
#     4   8  14  28  49  76 103 128 160 206 256 308
#     4  11  21  36  58  84 111 143 181 225 274 329
#     4  10  18  32  55  84 113 140 174 222 272 324
#     4  11  23  38  53  75 107 146 186 228 275 325
#     4   9  18  32  54  79 104 133 170 213 263 318
#
# _framework density 18.546641000000001
#
# number of rings (size 3 to 8) (size 9 to 14) (size 15 to 20)
#    0.000    2.000    0.000    6.375    0.000    4.000 
#    0.000    1.250    0.000    3.000    0.000    0.000 
#    0.000    0.000    0.000    0.000    0.000    0.000 
#
# Total GULP energy -178520.861390 kJ/mol
# GULP energy per Si atom -5578.776918 kJ/mol
# Density = 1.850443 g / cm^3
# Si number density = 18.546641 Si / 1000 Ang^3
#
#
#
# Elastic Constant Matrix: (Units=GPa)
#
#
# Indices 1 2 3 4 5 6 
#
# 1 247.5152 87.9889 59.0685 0.0000 0.0000 0.0000
# 2 87.9889 80.0354 28.0831 0.0000 0.0000 0.0000
# 3 59.0685 28.0831 97.1489 0.0000 0.0000 0.0000
# 4 0.0000 0.0000 0.0000 24.9040 0.0000 0.0000
# 5 0.0000 0.0000 0.0000 0.0000 27.5152 0.0000
# 6 0.0000 0.0000 0.0000 0.0000 0.0000 -6.4767
#
#
#
# Elastic Compliance Matrix: (Units=1/GPa)
#
#
# Indices 1 2 3 4 5 6 
#
# 1 0.007058 -0.006960 -0.002280 0.000000 0.000000 0.000000
# 2 -0.006960 0.020768 -0.001772 0.000000 0.000000 0.000000
# 3 -0.002280 -0.001772 0.012192 0.000000 0.000000 0.000000
# 4 0.000000 0.000000 0.000000 0.040154 0.000000 0.000000
# 5 0.000000 0.000000 0.000000 0.000000 0.036344 0.000000
# 6 0.000000 0.000000 0.000000 0.000000 0.000000 -0.154401
#
#
# Mechanical properties :
#
#
# Convention : Reuss Voigt Hill
#
# Bulk Modulus (GPa) = 55.57007 86.10895 70.83951
# Shear Modulus (GPa) = -506.87112 25.82576 -240.52268
#
# Velocity S-wave (km/s) = -16.54958 3.73564 -11.40030
# Velocity P-wave (km/s) = 18.30731 8.07067 11.61942
#
# Compressibility (1/GPa) = 0.01799530
#
# Stress axis : x y z
#
# Youngs Moduli (GPa) = 141.67600 48.15187 82.02287
#
# Poissons Ratio (x) = 0.33513 0.18699
# Poissons Ratio (y) = 0.98605 0.14531
# Poissons Ratio (z) = 0.32298 0.08531
#
# Static dielectric constant tensor:
#      x y z
#    x 1.696750 0.000000 0.000000 
#    y 0.000000 1.569640 0.000000 
#    z 0.000000 0.000000 1.622520 
# 
# From -- ./inp_files/7547.got.cif
#   From: 2010.05.17/outbox.cif.g08.bks.cpg/sg63_4_cif.got.tgz:7547.got - 2010.06.03 15:47:04.
