data_PCOD9469283
_publ_section_title
;
Structure prediction by ZEFSAII (Michael W. Deem and Ramdas Pophale) SiO2 
 PCOD9469283
Probable space group: C M C M
;
_chemical_formula_sum "Si O2"
_cell_formula_units_Z 96
_cell_length_a 7.537751
_cell_length_b 25.132397
_cell_length_c 22.538131
_cell_angle_alpha 90.000000
_cell_angle_beta 90.000000
_cell_angle_gamma 90.000000
_cell_volume 4269.662992
_symmetry_space_group_name_H-M "C M C M"
_symmetry_group_IT_number 63
_symmetry_cell_setting 'orthorhombic'
loop_
_space_group_symop_operation_xyz
x,y,z
-x,-y,1/2+z
x,-y,-z
-x,y,1/2-z
-x,-y,-z
x,y,1/2-z
-x,y,z
x,-y,1/2+z
1/2+x,1/2+y,z
1/2-x,1/2-y,1/2+z
1/2+x,1/2-y,-z
1/2-x,1/2+y,1/2-z
1/2-x,1/2-y,-z
1/2+x,1/2+y,1/2-z
1/2-x,1/2+y,z
1/2+x,1/2-y,1/2+z
loop_
_atom_site_type_symbol
_atom_site_label
_atom_site_fract_x
_atom_site_fract_y
_atom_site_fract_z
Si Si1 0.782859 0.684458 0.316157
Si Si2 0.787272 0.245147 0.928911
Si Si3 0.201607 0.433789 0.837893
Si Si4 0.716958 0.374119 0.418800
Si Si5 0.285324 0.557171 0.472566
Si Si6 0.206990 0.946971 0.186855
O O1 0.734690 0.706201 0.250000
O O2 0.723410 0.714207 0.377018
O O3 0.722667 0.622857 0.318380
O O4 0.000000 0.684204 0.318045
O O5 0.725875 0.186146 0.910425
O O6 0.000000 0.247082 0.925143
O O7 0.750000 0.250000 0.000000
O O8 0.205405 0.434055 0.908815
O O9 0.287106 0.489484 0.819911
O O10 0.000000 0.436359 0.816662
O O11 0.500000 0.374775 0.419079
O O12 0.769963 0.396992 0.482363
O O13 0.781222 0.415169 0.368903
O O14 0.237536 0.500000 0.500000
O O15 0.500000 0.557349 0.466392
O O16 0.288336 0.932364 0.250000
O O17 0.000000 0.932260 0.188479
#
# Coordination Sequence:
#
# PCOD9469283 Si02
#       6
#    16  16  16  16  16  16
#     4   9  19  35  54  78 109 146 185 225 271 324
#     4  10  20  36  59  82 108 140 180 228 275 323
#     4  11  21  33  52  78 110 141 176 219 264 320
#     4   9  18  33  53  79 104 132 170 217 268 311
#     4  10  18  32  53  74 107 142 170 212 265 320
#     4  10  20  35  54  76 104 138 177 217 261 316
#
# _framework density 22.484210999999998
#
# number of rings (size 3 to 8) (size 9 to 14) (size 15 to 20)
#    0.000    2.167    1.667    2.000    0.000    2.000 
#    0.000    5.000    0.000    2.500    0.000    0.000 
#    0.000    0.000    0.000    0.000    0.000    0.000 
#
# Total GULP energy -267906.547337 kJ/mol
# GULP energy per Si atom -5581.386403 kJ/mol
# Density = 2.243304 g / cm^3
# Si number density = 22.484211 Si / 1000 Ang^3
#
#
#
# Elastic Constant Matrix: (Units=GPa)
#
#
# Indices 1 2 3 4 5 6 
#
# 1 53.1515 0.1379 5.2241 0.0000 0.0000 0.0000
# 2 0.1379 108.0726 59.1225 0.0000 0.0000 0.0000
# 3 5.2241 59.1225 200.0849 0.0000 0.0000 0.0000
# 4 0.0000 0.0000 0.0000 8.0040 0.0000 0.0000
# 5 0.0000 0.0000 0.0000 0.0000 -77.4087 0.0000
# 6 0.0000 0.0000 0.0000 0.0000 0.0000 8.6005
#
#
#
# Elastic Compliance Matrix: (Units=1/GPa)
#
#
# Indices 1 2 3 4 5 6 
#
# 1 0.018870 0.000293 -0.000579 0.000000 0.000000 0.000000
# 2 0.000293 0.011042 -0.003270 0.000000 0.000000 0.000000
# 3 -0.000579 -0.003270 0.005979 0.000000 0.000000 0.000000
# 4 0.000000 0.000000 0.000000 0.124938 0.000000 0.000000
# 5 0.000000 0.000000 0.000000 0.000000 -0.012918 0.000000
# 6 0.000000 0.000000 0.000000 0.000000 0.000000 0.116273
#
#
# Mechanical properties :
#
#
# Convention : Reuss Voigt Hill
#
# Bulk Modulus (GPa) = 34.74894 54.47536 44.61215
# Shear Modulus (GPa) = 17.80060 7.62744 12.71402
#
# Velocity S-wave (km/s) = 2.81676 1.84383 2.38053
# Velocity P-wave (km/s) = 5.10560 5.36785 5.23837
#
# Compressibility (1/GPa) = 0.02877786
#
# Stress axis : x y z
#
# Youngs Moduli (GPa) = 52.99334 90.56533 167.24239
#
# Poissons Ratio (x) = -0.02652 0.09687
# Poissons Ratio (y) = -0.01552 0.54694
# Poissons Ratio (z) = 0.03069 0.29618
#
# Static dielectric constant tensor:
#      x y z
#    x 1.866300 0.000000 0.000000 
#    y 0.000000 1.809270 0.000000 
#    z 0.000000 0.000000 1.835030 
# 
# From -- ./inp_files/51338.got.cif
#   From: 2010.05.17/outbox.cif.g08.bks.cpg/sg63_26_cif.got.tgz:51338.got - 2010.06.03 15:47:04.
