data_PCOD9469879
_publ_section_title
;
Structure prediction by ZEFSAII (Michael W. Deem and Ramdas Pophale) SiO2 
 PCOD9469879
Probable space group: C M C M
;
_chemical_formula_sum "Si O2"
_cell_formula_units_Z 96
_cell_length_a 21.482424
_cell_length_b 24.942037
_cell_length_c 7.388344
_cell_angle_alpha 90.000000
_cell_angle_beta 90.000000
_cell_angle_gamma 90.000000
_cell_volume 3958.788601
_symmetry_space_group_name_H-M "C M C M"
_symmetry_group_IT_number 63
_symmetry_cell_setting 'orthorhombic'
loop_
_space_group_symop_operation_xyz
x,y,z
-x,-y,1/2+z
x,-y,-z
-x,y,1/2-z
-x,-y,-z
x,y,1/2-z
-x,y,z
x,-y,1/2+z
1/2+x,1/2+y,z
1/2-x,1/2-y,1/2+z
1/2+x,1/2-y,-z
1/2-x,1/2+y,1/2-z
1/2-x,1/2-y,-z
1/2+x,1/2+y,1/2-z
1/2-x,1/2+y,z
1/2+x,1/2-y,1/2+z
loop_
_atom_site_type_symbol
_atom_site_label
_atom_site_fract_x
_atom_site_fract_y
_atom_site_fract_z
Si Si1 0.385224 0.288560 0.529074
Si Si2 0.750812 0.830380 0.969482
Si Si3 0.389385 0.824913 0.455054
Si Si4 0.801370 0.057869 0.464657
Si Si5 0.567309 0.404994 0.970485
Si Si6 0.428456 0.059073 0.533796
O O1 0.385657 0.287122 0.750000
O O2 0.313025 0.298790 0.474697
O O3 0.411943 0.231680 0.463568
O O4 0.421490 0.342687 0.479018
O O5 0.746641 0.827306 0.750000
O O6 0.762769 0.891628 0.029335
O O7 0.684700 0.815245 0.047813
O O8 0.414290 0.826836 0.250000
O O9 0.400648 0.884255 0.535009
O O10 0.805173 0.064833 0.250000
O O11 0.872128 0.062929 0.534939
O O12 0.774209 0.000000 0.500000
O O13 0.567130 0.406821 0.750000
O O14 0.500000 0.424005 0.033479
O O15 0.428689 0.062937 0.750000
O O16 0.500000 0.057059 0.467812
O O17 0.399641 0.000000 0.500000
#
# Coordination Sequence:
#
# PCOD9469879 Si02
#       6
#    16  16  16  16  16  16
#     4   8  15  28  45  67  95 122 148 184 228 270
#     4   9  18  32  47  65  94 127 153 181 224 275
#     4  10  19  30  49  75  94 113 150 192 225 265
#     4   9  18  31  46  66  92 122 156 191 226 266
#     4   8  14  26  45  68  93 121 152 186 226 271
#     4   9  19  35  51  68  93 121 148 184 229 272
#
# _framework density 24.249842000000001
#
# number of rings (size 3 to 8) (size 9 to 14) (size 15 to 20)
#    0.000    3.167    0.000    2.500    0.000    3.000 
#    0.000    6.667    0.000    1.000    0.000    0.000 
#    0.000    0.000    0.000    0.000    0.000    0.000 
#
# Total GULP energy -267770.096252 kJ/mol
# GULP energy per Si atom -5578.543672 kJ/mol
# Density = 2.419465 g / cm^3
# Si number density = 24.249842 Si / 1000 Ang^3
#
#
#
# Elastic Constant Matrix: (Units=GPa)
#
#
# Indices 1 2 3 4 5 6 
#
# 1 27.4796 -15.4573 -6.8611 0.0000 0.0000 0.0000
# 2 -15.4573 171.4359 -3.7346 0.0000 0.0000 0.0000
# 3 -6.8611 -3.7346 86.1720 0.0000 0.0000 0.0000
# 4 0.0000 0.0000 0.0000 3.3848 0.0000 0.0000
# 5 0.0000 0.0000 0.0000 0.0000 4.2478 0.0000
# 6 0.0000 0.0000 0.0000 0.0000 0.0000 -5.4162
#
#
#
# Elastic Compliance Matrix: (Units=1/GPa)
#
#
# Indices 1 2 3 4 5 6 
#
# 1 0.039240 0.003610 0.003281 0.000000 0.000000 0.000000
# 2 0.003610 0.006171 0.000555 0.000000 0.000000 0.000000
# 3 0.003281 0.000555 0.011890 0.000000 0.000000 0.000000
# 4 0.000000 0.000000 0.000000 0.295442 0.000000 0.000000
# 5 0.000000 0.000000 0.000000 0.000000 0.235414 0.000000
# 6 0.000000 0.000000 0.000000 0.000000 0.000000 -0.184631
#
#
# Mechanical properties :
#
#
# Convention : Reuss Voigt Hill
#
# Bulk Modulus (GPa) = 13.85216 25.88682 19.86949
# Shear Modulus (GPa) = 12.11538 21.18598 16.65068
#
# Velocity S-wave (km/s) = 2.23761 2.95897 2.62321
# Velocity P-wave (km/s) = 3.52144 4.72993 4.16970
#
# Compressibility (1/GPa) = 0.07219091
#
# Stress axis : x y z
#
# Youngs Moduli (GPa) = 25.48412 162.05834 84.10451
#
# Poissons Ratio (x) = -0.58495 -0.27593
# Poissons Ratio (y) = -0.09198 -0.04666
# Poissons Ratio (z) = -0.08361 -0.08991
#
# Static dielectric constant tensor:
#      x y z
#    x 1.893020 0.000000 0.000000 
#    y 0.000000 2.014990 0.000000 
#    z 0.000000 0.000000 1.956680 
# 
# From -- ./inp_files/10484.got.cif
#   From: 2010.05.17/outbox.cif.g08.bks.cpg/sg63_6_cif.got.tgz:10484.got - 2010.06.03 15:47:04.
