data_PCOD9469424
_publ_section_title
;
Structure prediction by ZEFSAII (Michael W. Deem and Ramdas Pophale) SiO2 
 PCOD9469424
Probable space group: C M C M
;
_chemical_formula_sum "Si O2"
_cell_formula_units_Z 84
_cell_length_a 11.767761
_cell_length_b 29.472046
_cell_length_c 11.084119
_cell_angle_alpha 90.000000
_cell_angle_beta 90.000000
_cell_angle_gamma 90.000000
_cell_volume 3844.194080
_symmetry_space_group_name_H-M "C M C M"
_symmetry_group_IT_number 63
_symmetry_cell_setting 'orthorhombic'
loop_
_space_group_symop_operation_xyz
x,y,z
-x,-y,1/2+z
x,-y,-z
-x,y,1/2-z
-x,-y,-z
x,y,1/2-z
-x,y,z
x,-y,1/2+z
1/2+x,1/2+y,z
1/2-x,1/2-y,1/2+z
1/2+x,1/2-y,-z
1/2-x,1/2+y,1/2-z
1/2-x,1/2-y,-z
1/2+x,1/2+y,1/2-z
1/2-x,1/2+y,z
1/2+x,1/2-y,1/2+z
loop_
_atom_site_type_symbol
_atom_site_label
_atom_site_fract_x
_atom_site_fract_y
_atom_site_fract_z
Si Si1 0.874194 0.570310 0.750000
Si Si2 0.634323 0.640016 0.502596
Si Si3 0.000000 0.588799 0.385511
Si Si4 0.000000 0.313988 0.974097
Si Si5 0.741656 0.341752 0.250000
Si Si6 0.214286 0.549020 0.500523
Si Si7 0.000000 0.304521 0.250000
Si Si8 0.262057 0.782474 0.884509
O O1 0.770255 0.604958 0.750000
O O2 0.856440 0.545437 0.874676
O O3 0.000000 0.591149 0.750000
O O4 0.500000 0.633487 0.499577
O O5 0.671907 0.664777 0.627889
O O6 0.701264 0.592137 0.494941
O O7 0.677635 0.675028 0.401518
O O8 0.000000 0.630892 0.481246
O O9 0.114382 0.560209 0.405789
O O10 0.000000 0.607610 0.250000
O O11 0.888714 0.301130 0.901046
O O12 0.000000 0.289790 0.106238
O O13 0.870542 0.323758 0.250000
O O14 0.273868 0.500000 0.500000
O O15 0.247621 0.762351 0.750000
O O16 0.250000 0.750000 0.000000
#
# Coordination Sequence:
#
# PCOD9469424 Si02
#       8
#     8  16   8   8   8  16   4  16
#     4  10  18  33  57  92 134 165 218 282 353 414
#     4  11  25  46  70  99 143 194 240 293 352 425
#     4  12  23  39  68 102 145 183 226 298 377 432
#     4  12  24  47  77 110 148 187 239 302 375 438
#     4  10  19  38  69 104 135 172 229 288 354 415
#     4  11  24  39  65 101 135 184 234 292 353 428
#     4  12  18  36  80 110 134 178 230 292 360 436
#     4  12  29  50  76 110 147 190 241 304 371 437
#
# _framework density 21.851133999999998
#
# number of rings (size 3 to 8) (size 9 to 14) (size 15 to 20)
#    0.000    0.762    5.238    2.571    5.333    0.762 
#    0.000    0.000    0.000    0.000    0.000    0.000 
#    0.000    0.000    0.000    0.000    0.000    0.000 
#
# Total GULP energy -234229.901525 kJ/mol
# GULP energy per Si atom -5576.902417 kJ/mol
# Density = 2.180140 g / cm^3
# Si number density = 21.851134 Si / 1000 Ang^3
#
#
#
# Elastic Constant Matrix: (Units=GPa)
#
#
# Indices 1 2 3 4 5 6 
#
# 1 160.8822 46.3149 27.8039 0.0000 0.0000 0.0000
# 2 46.3149 113.8599 29.1763 0.0000 0.0000 0.0000
# 3 27.8039 29.1763 129.3825 0.0000 0.0000 0.0000
# 4 0.0000 0.0000 0.0000 0.5755 0.0000 0.0000
# 5 0.0000 0.0000 0.0000 0.0000 -73.9572 0.0000
# 6 0.0000 0.0000 0.0000 0.0000 0.0000 22.8413
#
#
#
# Elastic Compliance Matrix: (Units=1/GPa)
#
#
# Indices 1 2 3 4 5 6 
#
# 1 0.007145 -0.002667 -0.000934 0.000000 0.000000 0.000000
# 2 -0.002667 0.010317 -0.001753 0.000000 0.000000 0.000000
# 3 -0.000934 -0.001753 0.008325 0.000000 0.000000 0.000000
# 4 0.000000 0.000000 0.000000 1.737628 0.000000 0.000000
# 5 0.000000 0.000000 0.000000 0.000000 -0.013521 0.000000
# 6 0.000000 0.000000 0.000000 0.000000 0.000000 0.043780
#
#
# Mechanical properties :
#
#
# Convention : Reuss Voigt Hill
#
# Bulk Modulus (GPa) = 66.32102 67.85718 67.08910
# Shear Modulus (GPa) = 2.76333 9.94724 6.35528
#
# Velocity S-wave (km/s) = 1.12577 2.13592 1.70727
# Velocity P-wave (km/s) = 5.66630 6.09956 5.88692
#
# Compressibility (1/GPa) = 0.01507818
#
# Stress axis : x y z
#
# Youngs Moduli (GPa) = 139.95949 96.92853 120.11834
#
# Poissons Ratio (x) = 0.25851 0.11219
# Poissons Ratio (y) = 0.37327 0.21061
# Poissons Ratio (z) = 0.13072 0.16995
#
# Static dielectric constant tensor:
#      x y z
#    x 1.731890 0.000000 0.000000 
#    y 0.000000 1.935110 0.000000 
#    z 0.000000 0.000000 1.870740 
# 
# From -- ./inp_files/18069.got.cif
#   From: 2010.05.17/outbox.cif.g08.bks.cpg/sg63_10_cif.got.tgz:18069.got - 2010.06.03 15:47:04.
