data_PCOD9469681
_publ_section_title
;
Structure prediction by ZEFSAII (Michael W. Deem and Ramdas Pophale) SiO2 
 PCOD9469681
Probable space group: C M C M
;
_chemical_formula_sum "Si O2"
_cell_formula_units_Z 96
_cell_length_a 30.731189
_cell_length_b 19.448447
_cell_length_c 7.433417
_cell_angle_alpha 90.000000
_cell_angle_beta 90.000000
_cell_angle_gamma 90.000000
_cell_volume 4442.759333
_symmetry_space_group_name_H-M "C M C M"
_symmetry_group_IT_number 63
_symmetry_cell_setting 'orthorhombic'
loop_
_space_group_symop_operation_xyz
x,y,z
-x,-y,1/2+z
x,-y,-z
-x,y,1/2-z
-x,-y,-z
x,y,1/2-z
-x,y,z
x,-y,1/2+z
1/2+x,1/2+y,z
1/2-x,1/2-y,1/2+z
1/2+x,1/2-y,-z
1/2-x,1/2+y,1/2-z
1/2-x,1/2-y,-z
1/2+x,1/2+y,1/2-z
1/2-x,1/2+y,z
1/2+x,1/2-y,1/2+z
loop_
_atom_site_type_symbol
_atom_site_label
_atom_site_fract_x
_atom_site_fract_y
_atom_site_fract_z
Si Si1 0.179254 0.707129 0.456615
Si Si2 0.730971 0.344009 0.031894
Si Si3 0.500000 0.918107 0.534485
Si Si4 0.500000 0.579704 0.535364
Si Si5 0.582479 0.172759 0.031206
Si Si6 0.346930 0.423315 0.464210
Si Si7 0.077619 0.828082 0.469197
O O1 0.168717 0.725801 0.250000
O O2 0.219957 0.655662 0.463217
O O3 0.203245 0.776301 0.530303
O O4 0.133861 0.675130 0.527948
O O5 0.733738 0.340461 0.250000
O O6 0.701918 0.408509 0.974278
O O7 0.500000 0.908803 0.750000
O O8 0.454960 0.880859 0.469415
O O9 0.500000 0.000000 0.500000
O O10 0.500000 0.500000 0.500000
O O11 0.500000 0.588153 0.750000
O O12 0.541705 0.619151 0.466185
O O13 0.583235 0.166189 0.250000
O O14 0.568285 0.250116 0.980056
O O15 0.362947 0.500000 0.500000
O O16 0.346686 0.416502 0.250000
O O17 0.377522 0.361970 0.531359
O O18 0.078038 0.827642 0.250000
#
# Coordination Sequence:
#
# PCOD9469681 Si02
#       7
#    16  16   8   8  16  16  16
#     4   9  16  29  52  76  97 123 165 216 255 294
#     4   9  17  30  47  70 101 133 164 207 258 299
#     4  10  21  37  59  83 107 134 166 208 264 324
#     4  10  19  29  45  67  95 130 164 202 242 282
#     4   9  16  31  56  81  99 126 170 213 250 299
#     4  10  19  31  47  68 101 139 170 206 249 294
#     4   9  16  29  49  73  96 124 168 212 244 282
#
# _framework density 21.608193
#
# number of rings (size 3 to 8) (size 9 to 14) (size 15 to 20)
#    0.000    2.667    1.667    1.000    0.000    2.667 
#    0.000    1.667    0.000    8.000    0.000    0.000 
#    0.000    0.000    0.000    0.000    0.000    0.000 
#
# Total GULP energy -267361.485954 kJ/mol
# GULP energy per Si atom -5570.030957 kJ/mol
# Density = 2.155901 g / cm^3
# Si number density = 21.608193 Si / 1000 Ang^3
#
#
#
# Elastic Constant Matrix: (Units=GPa)
#
#
# Indices 1 2 3 4 5 6 
#
# 1 189.3724 81.6238 4.4334 0.0000 0.0000 0.0000
# 2 81.6238 127.5586 -5.3572 0.0000 0.0000 0.0000
# 3 4.4334 -5.3572 64.4268 0.0000 0.0000 0.0000
# 4 0.0000 0.0000 0.0000 16.6945 0.0000 0.0000
# 5 0.0000 0.0000 0.0000 0.0000 11.6739 0.0000
# 6 0.0000 0.0000 0.0000 0.0000 0.0000 21.5268
#
#
#
# Elastic Compliance Matrix: (Units=1/GPa)
#
#
# Indices 1 2 3 4 5 6 
#
# 1 0.007343 -0.004737 -0.000899 0.000000 0.000000 0.000000
# 2 -0.004737 0.010922 0.001234 0.000000 0.000000 0.000000
# 3 -0.000899 0.001234 0.015686 0.000000 0.000000 0.000000
# 4 0.000000 0.000000 0.000000 0.059900 0.000000 0.000000
# 5 0.000000 0.000000 0.000000 0.000000 0.085661 0.000000
# 6 0.000000 0.000000 0.000000 0.000000 0.000000 0.046454
#
#
# Mechanical properties :
#
#
# Convention : Reuss Voigt Hill
#
# Bulk Modulus (GPa) = 39.76427 60.30641 50.03534
# Shear Modulus (GPa) = 20.56322 30.02289 25.29306
#
# Velocity S-wave (km/s) = 3.08821 3.73154 3.42501
# Velocity P-wave (km/s) = 5.58197 6.82169 6.23273
#
# Compressibility (1/GPa) = 0.02514821
#
# Stress axis : x y z
#
# Youngs Moduli (GPa) = 136.17929 91.55562 63.75118
#
# Poissons Ratio (x) = 0.43367 0.05732
# Poissons Ratio (y) = 0.64504 -0.07868
# Poissons Ratio (z) = 0.12245 -0.11299
#
# Static dielectric constant tensor:
#      x y z
#    x 1.892650 0.000000 0.000000 
#    y 0.000000 1.789840 0.000000 
#    z 0.000000 0.000000 1.953010 
# 
# From -- ./inp_files/25902.got.cif
#   From: 2010.05.17/outbox.cif.g08.bks.cpg/sg63_13_cif.got.tgz:25902.got - 2010.06.03 15:47:04.
