data_PCOD9469252
_publ_section_title
;
Structure prediction by ZEFSAII (Michael W. Deem and Ramdas Pophale) SiO2 
 PCOD9469252
Probable space group: C M C M
;
_chemical_formula_sum "Si O2"
_cell_formula_units_Z 72
_cell_length_a 33.622494
_cell_length_b 15.069308
_cell_length_c 8.611143
_cell_angle_alpha 90.000000
_cell_angle_beta 90.000000
_cell_angle_gamma 90.000000
_cell_volume 4362.988172
_symmetry_space_group_name_H-M "C M C M"
_symmetry_group_IT_number 63
_symmetry_cell_setting 'orthorhombic'
loop_
_space_group_symop_operation_xyz
x,y,z
-x,-y,1/2+z
x,-y,-z
-x,y,1/2-z
-x,-y,-z
x,y,1/2-z
-x,y,z
x,-y,1/2+z
1/2+x,1/2+y,z
1/2-x,1/2-y,1/2+z
1/2+x,1/2-y,-z
1/2-x,1/2+y,1/2-z
1/2-x,1/2-y,-z
1/2+x,1/2+y,1/2-z
1/2-x,1/2+y,z
1/2+x,1/2-y,1/2+z
loop_
_atom_site_type_symbol
_atom_site_label
_atom_site_fract_x
_atom_site_fract_y
_atom_site_fract_z
Si Si1 0.500000 0.100622 0.935509
Si Si2 0.583288 0.899772 0.935098
Si Si3 0.317545 0.404860 0.563558
Si Si4 0.344564 0.215748 0.563487
Si Si5 0.224898 0.596784 0.436918
O O1 0.500000 0.100073 0.750000
O O2 0.541569 0.137769 0.998650
O O3 0.500000 0.000000 0.000000
O O4 0.581081 0.905250 0.750000
O O5 0.619589 0.838723 0.988237
O O6 0.588821 0.000000 0.000000
O O7 0.330691 0.500000 0.500000
O O8 0.318221 0.408717 0.750000
O O9 0.342315 0.318771 0.514537
O O10 0.271162 0.391126 0.518191
O O11 0.347801 0.211301 0.750000
O O12 0.303592 0.169498 0.511295
O O13 0.212563 0.500000 0.500000
O O14 0.221684 0.598855 0.250000
#
# Coordination Sequence:
#
# PCOD9469252 Si02
#       5
#     8  16  16  16  16
#     4  10  18  32  52  74 101 132 159 190 230 282
#     4  11  21  34  51  74 102 133 163 195 233 283
#     4   9  20  35  51  68  92 125 165 207 249 290
#     4  11  21  33  48  71  98 127 162 204 245 286
#     4  10  19  32  48  69  95 128 163 201 245 292
#
# _framework density 16.502451000000001
#
# number of rings (size 3 to 8) (size 9 to 14) (size 15 to 20)
#    0.000    1.778    0.000    7.000    0.000    2.667 
#    0.000    0.000    0.000    0.000    0.000    0.778 
#    0.000    0.000    0.000    0.000    0.000    0.000 
#
# Total GULP energy -200993.007925 kJ/mol
# GULP energy per Si atom -5583.139109 kJ/mol
# Density = 1.646489 g / cm^3
# Si number density = 16.502451 Si / 1000 Ang^3
#
#
#
# Elastic Constant Matrix: (Units=GPa)
#
#
# Indices 1 2 3 4 5 6 
#
# 1 71.7059 58.5716 34.7554 0.0000 0.0000 0.0000
# 2 58.5716 117.8466 37.9185 0.0000 0.0000 0.0000
# 3 34.7554 37.9185 98.0398 0.0000 0.0000 0.0000
# 4 0.0000 0.0000 0.0000 22.7227 0.0000 0.0000
# 5 0.0000 0.0000 0.0000 0.0000 20.4187 0.0000
# 6 0.0000 0.0000 0.0000 0.0000 0.0000 12.6643
#
#
#
# Elastic Compliance Matrix: (Units=1/GPa)
#
#
# Indices 1 2 3 4 5 6 
#
# 1 0.025223 -0.011032 -0.004675 0.000000 0.000000 0.000000
# 2 -0.011032 0.014517 -0.001704 0.000000 0.000000 0.000000
# 3 -0.004675 -0.001704 0.012516 0.000000 0.000000 0.000000
# 4 0.000000 0.000000 0.000000 0.044009 0.000000 0.000000
# 5 0.000000 0.000000 0.000000 0.000000 0.048975 0.000000
# 6 0.000000 0.000000 0.000000 0.000000 0.000000 0.078962
#
#
# Mechanical properties :
#
#
# Convention : Reuss Voigt Hill
#
# Bulk Modulus (GPa) = 57.35646 61.12035 59.23841
# Shear Modulus (GPa) = 18.87970 21.58425 20.23197
#
# Velocity S-wave (km/s) = 3.38606 3.62047 3.50522
# Velocity P-wave (km/s) = 7.07947 7.38882 7.23580
#
# Compressibility (1/GPa) = 0.01743483
#
# Stress axis : x y z
#
# Youngs Moduli (GPa) = 39.64626 68.88513 79.89688
#
# Poissons Ratio (x) = 0.75995 0.37350
# Poissons Ratio (y) = 0.43738 0.13612
# Poissons Ratio (z) = 0.18534 0.11736
#
# Static dielectric constant tensor:
#      x y z
#    x 1.566500 0.000000 0.000000 
#    y 0.000000 1.546570 0.000000 
#    z 0.000000 0.000000 1.551830 
# 
# From -- ./inp_files/13912.got.cif
#   From: 2010.05.17/outbox.cif.g08.bks.cpg/sg63_7_cif.got.tgz:13912.got - 2010.06.03 15:47:04.
