data_PCOD9469231
_publ_section_title
;
Structure prediction by ZEFSAII (Michael W. Deem and Ramdas Pophale) SiO2 
 PCOD9469231
Probable space group: C M C M
;
_chemical_formula_sum "Si O2"
_cell_formula_units_Z 84
_cell_length_a 9.895374
_cell_length_b 22.732217
_cell_length_c 23.213146
_cell_angle_alpha 90.000000
_cell_angle_beta 90.000000
_cell_angle_gamma 90.000000
_cell_volume 5221.653017
_symmetry_space_group_name_H-M "C M C M"
_symmetry_group_IT_number 63
_symmetry_cell_setting 'orthorhombic'
loop_
_space_group_symop_operation_xyz
x,y,z
-x,-y,1/2+z
x,-y,-z
-x,y,1/2-z
-x,-y,-z
x,y,1/2-z
-x,y,z
x,-y,1/2+z
1/2+x,1/2+y,z
1/2-x,1/2-y,1/2+z
1/2+x,1/2-y,-z
1/2-x,1/2+y,1/2-z
1/2-x,1/2-y,-z
1/2+x,1/2+y,1/2-z
1/2-x,1/2+y,z
1/2+x,1/2-y,1/2+z
loop_
_atom_site_type_symbol
_atom_site_label
_atom_site_fract_x
_atom_site_fract_y
_atom_site_fract_z
Si Si1 0.709916 0.342779 0.856578
Si Si2 0.000000 0.346797 0.484264
Si Si3 0.500000 0.200562 0.116265
Si Si4 0.500000 0.669509 0.928468
Si Si5 0.842634 0.960734 0.580265
Si Si6 0.000000 0.783540 0.940973
Si Si7 0.269984 0.583737 0.953982
Si Si8 0.000000 0.164968 0.250000
O O1 0.708441 0.410817 0.876666
O O2 0.631138 0.306926 0.907091
O O3 0.618345 0.335663 0.800517
O O4 0.862460 0.319890 0.853312
O O5 0.130600 0.384758 0.468448
O O6 0.000000 0.328481 0.551755
O O7 0.000000 0.286391 0.448200
O O8 0.500000 0.271037 0.108105
O O9 0.368799 0.628725 0.921692
O O10 0.500000 0.690356 0.995038
O O11 0.833906 0.933900 0.515857
O O12 0.000000 0.973430 0.592422
O O13 0.761608 0.021834 0.579410
#
# Coordination Sequence:
#
# PCOD9469231 Si02
#       8
#    16   8   8   8  16   8  16   4
#     4  11  20  38  54  82  96 141 177 231 263 308
#     4  11  21  30  45  84 116 154 165 199 257 325
#     4  11  22  31  53  78 119 134 169 225 261 307
#     4  11  17  31  49  77 107 157 170 194 248 327
#     4  11  18  32  52  70 108 145 183 212 243 308
#     4  10  18  32  51  70 116 143 183 199 241 321
#     4  11  19  29  48  76 111 152 174 195 245 318
#     4  10  24  38  64  68  96 134 190 224 286 310
#
# _framework density 16.086859
#
# number of rings (size 3 to 8) (size 9 to 14) (size 15 to 20)
#    0.000    1.143    7.619    1.714    0.000    5.714 
#    0.000    0.000    0.000    0.000    0.000   21.333 
#    0.000    0.000    0.000    0.000    0.000    0.000 
#
# Total GULP energy -233833.314848 kJ/mol
# GULP energy per Si atom -5567.459877 kJ/mol
# Density = 1.605024 g / cm^3
# Si number density = 16.086859 Si / 1000 Ang^3
#
#
#
# Elastic Constant Matrix: (Units=GPa)
#
#
# Indices 1 2 3 4 5 6 
#
# 1 125.3198 56.5373 23.8560 0.0000 0.0000 0.0000
# 2 56.5373 128.3253 28.0254 0.0000 0.0000 0.0000
# 3 23.8560 28.0254 58.7073 0.0000 0.0000 0.0000
# 4 0.0000 0.0000 0.0000 0.3871 0.0000 0.0000
# 5 0.0000 0.0000 0.0000 0.0000 -0.6073 0.0000
# 6 0.0000 0.0000 0.0000 0.0000 0.0000 5.3110
#
#
#
# Elastic Compliance Matrix: (Units=1/GPa)
#
#
# Indices 1 2 3 4 5 6 
#
# 1 0.010215 -0.004012 -0.002236 0.000000 0.000000 0.000000
# 2 -0.004012 0.010276 -0.003275 0.000000 0.000000 0.000000
# 3 -0.002236 -0.003275 0.019505 0.000000 0.000000 0.000000
# 4 0.000000 0.000000 0.000000 2.583402 0.000000 0.000000
# 5 0.000000 0.000000 0.000000 0.000000 -1.646721 0.000000
# 6 0.000000 0.000000 0.000000 0.000000 0.000000 0.188287
#
#
# Mechanical properties :
#
#
# Convention : Reuss Voigt Hill
#
# Bulk Modulus (GPa) = 47.73128 58.79886 53.26507
# Shear Modulus (GPa) = 4.19817 14.61375 9.40596
#
# Velocity S-wave (km/s) = 1.61721 3.01728 2.42068
# Velocity P-wave (km/s) = 5.76390 6.98347 6.40279
#
# Compressibility (1/GPa) = 0.02095062
#
# Stress axis : x y z
#
# Youngs Moduli (GPa) = 97.89206 97.31707 51.26771
#
# Poissons Ratio (x) = 0.39048 0.11462
# Poissons Ratio (y) = 0.39278 0.16790
# Poissons Ratio (z) = 0.21885 0.31870
#
# Static dielectric constant tensor:
#      x y z
#    x 1.546670 0.000000 0.000000 
#    y 0.000000 1.559620 0.000000 
#    z 0.000000 0.000000 1.506800 
# 
# From -- ./inp_files/59821.got.cif
#   From: 2010.05.17/outbox.cif.g08.bks.cpg/sg63_30_cif.got.tgz:59821.got - 2010.06.03 15:47:04.
