data_PCOD9469423
_publ_section_title
;
Structure prediction by ZEFSAII (Michael W. Deem and Ramdas Pophale) SiO2 
 PCOD9469423
Probable space group: C M C M
;
_chemical_formula_sum "Si O2"
_cell_formula_units_Z 68
_cell_length_a 7.495825
_cell_length_b 23.836343
_cell_length_c 18.075791
_cell_angle_alpha 90.000000
_cell_angle_beta 90.000000
_cell_angle_gamma 90.000000
_cell_volume 3229.656813
_symmetry_space_group_name_H-M "C M C M"
_symmetry_group_IT_number 63
_symmetry_cell_setting 'orthorhombic'
loop_
_space_group_symop_operation_xyz
x,y,z
-x,-y,1/2+z
x,-y,-z
-x,y,1/2-z
-x,-y,-z
x,y,1/2-z
-x,y,z
x,-y,1/2+z
1/2+x,1/2+y,z
1/2-x,1/2-y,1/2+z
1/2+x,1/2-y,-z
1/2-x,1/2+y,1/2-z
1/2-x,1/2-y,-z
1/2+x,1/2+y,1/2-z
1/2-x,1/2+y,z
1/2+x,1/2-y,1/2+z
loop_
_atom_site_type_symbol
_atom_site_label
_atom_site_fract_x
_atom_site_fract_y
_atom_site_fract_z
Si Si1 0.287070 0.186345 0.478287
Si Si2 0.500000 0.362812 0.250000
Si Si3 0.293239 0.882264 0.379080
Si Si4 0.713836 0.501286 0.164364
Si Si5 0.288199 0.129294 0.166622
O O1 0.500000 0.179666 0.473494
O O2 0.250000 0.250000 0.500000
O O3 0.230387 0.145601 0.544509
O O4 0.214472 0.168533 0.398045
O O5 0.657259 0.365261 0.314538
O O6 0.500000 0.865443 0.364770
O O7 0.287968 0.950037 0.382448
O O8 0.773228 0.493321 0.250000
O O9 0.500000 0.496405 0.164323
O O10 0.763165 0.564398 0.143549
O O11 0.213992 0.136029 0.250000
O O12 0.500000 0.139425 0.172364
#
# Coordination Sequence:
#
# PCOD9469423 Si02
#       5
#    16   4  16  16  16
#     4  10  24  43  62  87 124 166 213 270 323 366
#     4  12  22  40  64 100 126 164 218 250 320 382
#     4  11  22  39  63  95 132 167 206 260 318 376
#     4  10  18  33  57  92 129 163 203 251 306 374
#     4   9  19  38  62  89 121 165 208 251 316 384
#
# _framework density 21.054869
#
# number of rings (size 3 to 8) (size 9 to 14) (size 15 to 20)
#    0.000    1.882    2.353    1.059    1.647    2.824 
#    2.118    4.706    0.000    0.000    0.000    0.000 
#    0.000    0.000    0.000    0.000    0.000    0.000 
#
# Total GULP energy -189287.080951 kJ/mol
# GULP energy per Si atom -5567.267087 kJ/mol
# Density = 2.100695 g / cm^3
# Si number density = 21.054869 Si / 1000 Ang^3
#
#
#
# Elastic Constant Matrix: (Units=GPa)
#
#
# Indices 1 2 3 4 5 6 
#
# 1 100.0535 -9.9223 34.2016 0.0000 0.0000 0.0000
# 2 -9.9223 123.7415 101.7202 0.0000 0.0000 0.0000
# 3 34.2016 101.7202 167.4085 0.0000 0.0000 0.0000
# 4 0.0000 0.0000 0.0000 68.2914 0.0000 0.0000
# 5 0.0000 0.0000 0.0000 0.0000 9.0393 0.0000
# 6 0.0000 0.0000 0.0000 0.0000 0.0000 22.9016
#
#
#
# Elastic Compliance Matrix: (Units=1/GPa)
#
#
# Indices 1 2 3 4 5 6 
#
# 1 0.012846 0.006368 -0.006494 0.000000 0.000000 0.000000
# 2 0.006368 0.019303 -0.013030 0.000000 0.000000 0.000000
# 3 -0.006494 -0.013030 0.015217 0.000000 0.000000 0.000000
# 4 0.000000 0.000000 0.000000 0.014643 0.000000 0.000000
# 5 0.000000 0.000000 0.000000 0.000000 0.110628 0.000000
# 6 0.000000 0.000000 0.000000 0.000000 0.000000 0.043665
#
#
# Mechanical properties :
#
#
# Convention : Reuss Voigt Hill
#
# Bulk Modulus (GPa) = 47.49380 71.46695 59.48037
# Shear Modulus (GPa) = 20.02947 37.72673 28.87810
#
# Velocity S-wave (km/s) = 3.08766 4.23759 3.70748
# Velocity P-wave (km/s) = 5.94287 7.61313 6.82926
#
# Compressibility (1/GPa) = 0.02105538
#
# Stress axis : x y z
#
# Youngs Moduli (GPa) = 77.84492 51.80510 65.71447
#
# Poissons Ratio (x) = -0.32991 0.42675
# Poissons Ratio (y) = -0.49574 0.85626
# Poissons Ratio (z) = 0.50552 0.67502
#
# Static dielectric constant tensor:
#      x y z
#    x 1.868870 0.000000 0.000000 
#    y 0.000000 1.765810 0.000000 
#    z 0.000000 0.000000 1.790690 
# 
# From -- ./inp_files/40238.got.cif
#   From: 2010.05.17/outbox.cif.g08.bks.cpg/sg63_21_cif.got.tgz:40238.got - 2010.06.03 15:47:04.
