data_PCOD9469792
_publ_section_title
;
Structure prediction by ZEFSAII (Michael W. Deem and Ramdas Pophale) SiO2 
 PCOD9469792
Probable space group: C M C M
;
_chemical_formula_sum "Si O2"
_cell_formula_units_Z 80
_cell_length_a 7.549655
_cell_length_b 27.840819
_cell_length_c 19.389735
_cell_angle_alpha 90.000000
_cell_angle_beta 90.000000
_cell_angle_gamma 90.000000
_cell_volume 4075.500835
_symmetry_space_group_name_H-M "C M C M"
_symmetry_group_IT_number 63
_symmetry_cell_setting 'orthorhombic'
loop_
_space_group_symop_operation_xyz
x,y,z
-x,-y,1/2+z
x,-y,-z
-x,y,1/2-z
-x,-y,-z
x,y,1/2-z
-x,y,z
x,-y,1/2+z
1/2+x,1/2+y,z
1/2-x,1/2-y,1/2+z
1/2+x,1/2-y,-z
1/2-x,1/2+y,1/2-z
1/2-x,1/2-y,-z
1/2+x,1/2+y,1/2-z
1/2-x,1/2+y,z
1/2+x,1/2-y,1/2+z
loop_
_atom_site_type_symbol
_atom_site_label
_atom_site_fract_x
_atom_site_fract_y
_atom_site_fract_z
Si Si1 0.781973 0.679442 0.750000
Si Si2 0.292065 0.318253 0.526323
Si Si3 0.204744 0.729512 0.611900
Si Si4 0.216206 0.522459 0.893364
Si Si5 0.786547 0.573162 0.466328
Si Si6 0.716712 0.931714 0.250000
O O1 0.719919 0.706592 0.818882
O O2 0.728107 0.623831 0.750000
O O3 0.000000 0.678670 0.750000
O O4 0.500000 0.308018 0.518091
O O5 0.210942 0.308304 0.451127
O O6 0.218713 0.278719 0.579920
O O7 0.269875 0.372884 0.548795
O O8 0.000000 0.740035 0.628261
O O9 0.271245 0.556433 0.957141
O O10 0.275391 0.541852 0.819745
O O11 0.000000 0.522779 0.892976
O O12 0.271755 0.468471 0.913655
O O13 0.000000 0.572676 0.466576
O O14 0.500000 0.932348 0.250000
#
# Coordination Sequence:
#
# PCOD9469792 Si02
#       6
#     8  16  16  16  16   8
#     4   9  16  28  50  73  89 113 151 193 230 265
#     4  10  19  30  46  69  95 122 152 187 227 269
#     4   9  18  32  49  69  92 119 154 191 226 268
#     4   8  15  26  43  67  90 113 146 188 227 266
#     4   9  16  29  47  65  88 119 152 184 222 267
#     4   9  14  22  41  69  91 105 137 191 236 263
#
# _framework density 19.629490000000001
#
# number of rings (size 3 to 8) (size 9 to 14) (size 15 to 20)
#    0.000    3.000    0.000    3.000    0.000    4.000 
#    0.000    3.500    0.000    0.000    0.000    1.400 
#    0.000    0.000    0.000    0.000    0.000    0.000 
#
# Total GULP energy -223083.953248 kJ/mol
# GULP energy per Si atom -5577.098831 kJ/mol
# Density = 1.958481 g / cm^3
# Si number density = 19.629490 Si / 1000 Ang^3
#
#
#
# Elastic Constant Matrix: (Units=GPa)
#
#
# Indices 1 2 3 4 5 6 
#
# 1 44.8311 1.4889 5.5748 0.0000 0.0000 0.0000
# 2 1.4889 162.3745 97.3072 0.0000 0.0000 0.0000
# 3 5.5748 97.3072 177.0510 0.0000 0.0000 0.0000
# 4 0.0000 0.0000 0.0000 18.2856 0.0000 0.0000
# 5 0.0000 0.0000 0.0000 0.0000 0.0944 0.0000
# 6 0.0000 0.0000 0.0000 0.0000 0.0000 15.3464
#
#
#
# Elastic Compliance Matrix: (Units=1/GPa)
#
#
# Indices 1 2 3 4 5 6 
#
# 1 0.022405 0.000324 -0.000884 0.000000 0.000000 0.000000
# 2 0.000324 0.009188 -0.005060 0.000000 0.000000 0.000000
# 3 -0.000884 -0.005060 0.008457 0.000000 0.000000 0.000000
# 4 0.000000 0.000000 0.000000 0.054688 0.000000 0.000000
# 5 0.000000 0.000000 0.000000 0.000000 10.593890 0.000000
# 6 0.000000 0.000000 0.000000 0.000000 0.000000 0.065162
#
#
# Mechanical properties :
#
#
# Convention : Reuss Voigt Hill
#
# Bulk Modulus (GPa) = 34.70894 65.88870 50.29882
# Shear Modulus (GPa) = 0.46405 25.40433 12.93419
#
# Velocity S-wave (km/s) = 0.48674 3.60139 2.56972
# Velocity P-wave (km/s) = 4.24692 7.13669 5.87234
#
# Compressibility (1/GPa) = 0.02881102
#
# Stress axis : x y z
#
# Youngs Moduli (GPa) = 44.63275 108.83900 118.24794
#
# Poissons Ratio (x) = -0.03527 0.10448
# Poissons Ratio (y) = -0.01446 0.59832
# Poissons Ratio (z) = 0.03944 0.55071
#
# Static dielectric constant tensor:
#      x y z
#    x 1.754760 0.000000 0.000000 
#    y 0.000000 1.673370 0.000000 
#    z 0.000000 0.000000 1.665760 
# 
# From -- ./inp_files/40574.got.cif
#   From: 2010.05.17/outbox.cif.g08.bks.cpg/sg63_21_cif.got.tgz:40574.got - 2010.06.03 15:47:04.
