data_PCOD9469326
_publ_section_title
;
Structure prediction by ZEFSAII (Michael W. Deem and Ramdas Pophale) SiO2 
 PCOD9469326
Probable space group: C M C M
;
_chemical_formula_sum "Si O2"
_cell_formula_units_Z 76
_cell_length_a 24.709786
_cell_length_b 10.686482
_cell_length_c 15.033228
_cell_angle_alpha 90.000000
_cell_angle_beta 90.000000
_cell_angle_gamma 90.000000
_cell_volume 3969.684458
_symmetry_space_group_name_H-M "C M C M"
_symmetry_group_IT_number 63
_symmetry_cell_setting 'orthorhombic'
loop_
_space_group_symop_operation_xyz
x,y,z
-x,-y,1/2+z
x,-y,-z
-x,y,1/2-z
-x,-y,-z
x,y,1/2-z
-x,y,z
x,-y,1/2+z
1/2+x,1/2+y,z
1/2-x,1/2-y,1/2+z
1/2+x,1/2-y,-z
1/2-x,1/2+y,1/2-z
1/2-x,1/2-y,-z
1/2+x,1/2+y,1/2-z
1/2-x,1/2+y,z
1/2+x,1/2-y,1/2+z
loop_
_atom_site_type_symbol
_atom_site_label
_atom_site_fract_x
_atom_site_fract_y
_atom_site_fract_z
Si Si1 0.192351 0.385280 0.750000
Si Si2 0.381909 0.987680 0.602296
Si Si3 0.123938 0.130863 0.750000
Si Si4 0.320286 0.365924 0.750000
Si Si5 0.000000 0.158165 0.250000
Si Si6 0.436058 0.276078 0.082171
Si Si7 0.095230 0.768527 0.882296
O O1 0.168700 0.459389 0.834708
O O2 0.162792 0.251252 0.750000
O O3 0.255983 0.365208 0.750000
O O4 0.410775 0.117681 0.626806
O O5 0.364548 0.000000 0.500000
O O6 0.421527 0.868033 0.607468
O O7 0.087269 0.140644 0.661855
O O8 0.159103 0.007634 0.750000
O O9 0.347961 0.302248 0.663860
O O10 0.047708 0.166838 0.172946
O O11 0.500000 0.291033 0.074036
O O12 0.408923 0.300693 0.986434
#
# Coordination Sequence:
#
# PCOD9469326 Si02
#       7
#     8  16   8   8   4  16  16
#     4  10  21  42  62  83 117 162 191 261 302 339
#     4   9  20  37  62  95 120 143 201 247 303 358
#     4  10  24  42  57  90 119 154 212 241 289 367
#     4  11  25  41  60  84 121 159 209 243 290 353
#     4  10  18  32  54  88 126 152 188 234 292 350
#     4  10  20  40  63  89 125 160 191 244 300 352
#     4  10  21  37  60  93 120 154 197 245 296 361
#
# _framework density 19.145098999999998
#
# number of rings (size 3 to 8) (size 9 to 14) (size 15 to 20)
#    0.000    2.105    1.053    1.579    4.421    2.105 
#   11.368    4.211    0.000    0.000    0.000    0.000 
#    0.000    0.000    0.000    0.000    0.000    0.000 
#
# Total GULP energy -211688.307001 kJ/mol
# GULP energy per Si atom -5570.744921 kJ/mol
# Density = 1.910152 g / cm^3
# Si number density = 19.145099 Si / 1000 Ang^3
#
#
#
# Elastic Constant Matrix: (Units=GPa)
#
#
# Indices 1 2 3 4 5 6 
#
# 1 116.5011 -2.0743 48.9158 0.0000 0.0000 0.0000
# 2 -2.0743 43.8321 23.5004 0.0000 0.0000 0.0000
# 3 48.9158 23.5004 116.8771 0.0000 0.0000 0.0000
# 4 0.0000 0.0000 0.0000 -10.6518 0.0000 0.0000
# 5 0.0000 0.0000 0.0000 0.0000 10.4994 0.0000
# 6 0.0000 0.0000 0.0000 0.0000 0.0000 1.6089
#
#
#
# Elastic Compliance Matrix: (Units=1/GPa)
#
#
# Indices 1 2 3 4 5 6 
#
# 1 0.010822 0.003296 -0.005192 0.000000 0.000000 0.000000
# 2 0.003296 0.026575 -0.006723 0.000000 0.000000 0.000000
# 3 -0.005192 -0.006723 0.012081 0.000000 0.000000 0.000000
# 4 0.000000 0.000000 0.000000 -0.093881 0.000000 0.000000
# 5 0.000000 0.000000 0.000000 0.000000 0.095244 0.000000
# 6 0.000000 0.000000 0.000000 0.000000 0.000000 0.621552
#
#
# Mechanical properties :
#
#
# Convention : Reuss Voigt Hill
#
# Bulk Modulus (GPa) = 31.01755 46.43269 38.72512
# Shear Modulus (GPa) = 7.13901 14.08251 10.61076
#
# Velocity S-wave (km/s) = 1.93313 2.71508 2.35676
# Velocity P-wave (km/s) = 4.60642 5.84248 5.26088
#
# Compressibility (1/GPa) = 0.03223981
#
# Stress axis : x y z
#
# Youngs Moduli (GPa) = 92.40162 37.62976 82.77631
#
# Poissons Ratio (x) = -0.12402 0.42978
# Poissons Ratio (y) = -0.30454 0.55649
# Poissons Ratio (z) = 0.47976 0.25298
#
# Static dielectric constant tensor:
#      x y z
#    x 1.609150 0.000000 0.000000 
#    y 0.000000 1.713450 0.000000 
#    z 0.000000 0.000000 1.673320 
# 
# From -- ./inp_files/36539.got.cif
#   From: 2010.05.17/outbox.cif.g08.bks.cpg/sg63_19_cif.got.tgz:36539.got - 2010.06.03 15:47:04.
