data_PCOD9469175
_publ_section_title
;
Structure prediction by ZEFSAII (Michael W. Deem and Ramdas Pophale) SiO2 
 PCOD9469175
Probable space group: C M C M
;
_chemical_formula_sum "Si O2"
_cell_formula_units_Z 96
_cell_length_a 21.202068
_cell_length_b 13.171893
_cell_length_c 13.946738
_cell_angle_alpha 90.000000
_cell_angle_beta 90.000000
_cell_angle_gamma 90.000000
_cell_volume 3894.924643
_symmetry_space_group_name_H-M "C M C M"
_symmetry_group_IT_number 63
_symmetry_cell_setting 'orthorhombic'
loop_
_space_group_symop_operation_xyz
x,y,z
-x,-y,1/2+z
x,-y,-z
-x,y,1/2-z
-x,-y,-z
x,y,1/2-z
-x,y,z
x,-y,1/2+z
1/2+x,1/2+y,z
1/2-x,1/2-y,1/2+z
1/2+x,1/2-y,-z
1/2-x,1/2+y,1/2-z
1/2-x,1/2-y,-z
1/2+x,1/2+y,1/2-z
1/2-x,1/2+y,z
1/2+x,1/2-y,1/2+z
loop_
_atom_site_type_symbol
_atom_site_label
_atom_site_fract_x
_atom_site_fract_y
_atom_site_fract_z
Si Si1 0.841174 0.115187 0.866991
Si Si2 0.000000 0.609323 0.386493
Si Si3 0.130508 0.261298 0.358080
Si Si4 0.295006 0.953321 0.367059
Si Si5 0.500000 0.125628 0.615009
Si Si6 0.142760 0.660935 0.140545
Si Si7 0.571559 0.440148 0.632330
O O1 0.843482 0.121026 0.750000
O O2 0.778331 0.052840 0.890781
O O3 0.838716 0.230711 0.902625
O O4 0.901531 0.049299 0.895815
O O5 0.000000 0.618908 0.500688
O O6 0.000000 0.491731 0.354660
O O7 0.066651 0.656271 0.356461
O O8 0.155040 0.243399 0.250000
O O9 0.173744 0.348424 0.402142
O O10 0.061989 0.314924 0.353577
O O11 0.117333 0.150759 0.400271
O O12 0.301681 0.951271 0.250000
O O13 0.330101 0.055436 0.400317
O O14 0.166720 0.662492 0.250000
O O15 0.571250 0.435569 0.750000
O O16 0.500000 0.423362 0.600775
#
# Coordination Sequence:
#
# PCOD9469175 Si02
#       7
#    16   8  16  16   8  16  16
#     4   9  19  31  48  77 113 143 170 211 265 315
#     4  11  23  35  52  79 108 144 177 216 273 316
#     4  10  18  31  54  80 105 133 175 225 266 308
#     4   9  18  30  48  77 106 135 172 215 258 306
#     4  11  21  35  52  79 108 140 175 224 269 314
#     4  10  20  34  54  79 110 142 176 217 261 315
#     4   9  17  28  46  75 106 135 169 211 260 307
#
# _framework density 24.647459999999999
#
# number of rings (size 3 to 8) (size 9 to 14) (size 15 to 20)
#    0.000    2.333    2.500    0.500    3.500    0.667 
#    0.000    0.000    0.000    3.000    4.333    0.000 
#    0.000    0.000    0.000    0.000    0.000    0.000 
#
# Total GULP energy -268448.059987 kJ/mol
# GULP energy per Si atom -5592.667916 kJ/mol
# Density = 2.459136 g / cm^3
# Si number density = 24.647460 Si / 1000 Ang^3
#
#
#
# Elastic Constant Matrix: (Units=GPa)
#
#
# Indices 1 2 3 4 5 6 
#
# 1 81.8542 52.8899 -13.6574 0.0000 0.0000 0.0000
# 2 52.8899 186.2531 28.1403 0.0000 0.0000 0.0000
# 3 -13.6574 28.1403 92.3925 0.0000 0.0000 0.0000
# 4 0.0000 0.0000 0.0000 28.6441 0.0000 0.0000
# 5 0.0000 0.0000 0.0000 0.0000 -215.1522 0.0000
# 6 0.0000 0.0000 0.0000 0.0000 0.0000 15.7362
#
#
#
# Elastic Compliance Matrix: (Units=1/GPa)
#
#
# Indices 1 2 3 4 5 6 
#
# 1 0.016255 -0.005219 0.003992 0.000000 0.000000 0.000000
# 2 -0.005219 0.007304 -0.002996 0.000000 0.000000 0.000000
# 3 0.003992 -0.002996 0.012326 0.000000 0.000000 0.000000
# 4 0.000000 0.000000 0.000000 0.034911 0.000000 0.000000
# 5 0.000000 0.000000 0.000000 0.000000 -0.004648 0.000000
# 6 0.000000 0.000000 0.000000 0.000000 0.000000 0.063548
#
#
# Mechanical properties :
#
#
# Convention : Reuss Voigt Hill
#
# Bulk Modulus (GPa) = 36.44354 55.02727 45.73540
# Shear Modulus (GPa) = 33.94696 -14.61260 9.66718
#
# Velocity S-wave (km/s) = 3.71523 -2.43752 1.98260
# Velocity P-wave (km/s) = 5.76384 3.80160 4.88232
#
# Compressibility (1/GPa) = 0.02743971
#
# Stress axis : x y z
#
# Youngs Moduli (GPa) = 61.51811 136.91526 81.12885
#
# Poissons Ratio (x) = 0.71459 -0.32391
# Poissons Ratio (y) = 0.32108 0.24307
# Poissons Ratio (z) = -0.24561 0.41020
#
# Static dielectric constant tensor:
#      x y z
#    x 1.874340 0.000000 0.000000 
#    y 0.000000 1.916690 0.000000 
#    z 0.000000 0.000000 1.993250 
# 
# From -- ./inp_files/48078.got.cif
#   From: 2010.05.17/outbox.cif.g08.bks.cpg/sg63_25_cif.got.tgz:48078.got - 2010.06.03 15:47:04.
