data_PCOD9469531
_publ_section_title
;
Structure prediction by ZEFSAII (Michael W. Deem and Ramdas Pophale) SiO2 
 PCOD9469531
Probable space group: C M C M
;
_chemical_formula_sum "Si O2"
_cell_formula_units_Z 96
_cell_length_a 8.466629
_cell_length_b 29.939353
_cell_length_c 21.036063
_cell_angle_alpha 90.000000
_cell_angle_beta 90.000000
_cell_angle_gamma 90.000000
_cell_volume 5332.334725
_symmetry_space_group_name_H-M "C M C M"
_symmetry_group_IT_number 63
_symmetry_cell_setting 'orthorhombic'
loop_
_space_group_symop_operation_xyz
x,y,z
-x,-y,1/2+z
x,-y,-z
-x,y,1/2-z
-x,-y,-z
x,y,1/2-z
-x,y,z
x,-y,1/2+z
1/2+x,1/2+y,z
1/2-x,1/2-y,1/2+z
1/2+x,1/2-y,-z
1/2-x,1/2+y,1/2-z
1/2-x,1/2-y,-z
1/2+x,1/2+y,1/2-z
1/2-x,1/2+y,z
1/2+x,1/2-y,1/2+z
loop_
_atom_site_type_symbol
_atom_site_label
_atom_site_fract_x
_atom_site_fract_y
_atom_site_fract_z
Si Si1 0.307634 0.875124 0.021454
Si Si2 0.190855 0.527950 0.937695
Si Si3 0.689443 0.777655 0.060798
Si Si4 0.309041 0.220626 0.321912
Si Si5 0.811192 0.969920 0.678574
Si Si6 0.309018 0.123723 0.373152
O O1 0.500000 0.875238 0.022176
O O2 0.255010 0.920909 0.054475
O O3 0.255573 0.828944 0.053358
O O4 0.261236 0.875624 0.947259
O O5 0.247186 0.503532 0.874492
O O6 0.000000 0.527648 0.937791
O O7 0.242149 0.500000 0.000000
O O8 0.500000 0.777316 0.059071
O O9 0.746565 0.754244 0.124999
O O10 0.750000 0.750000 0.000000
O O11 0.258285 0.230993 0.250000
O O12 0.500000 0.221577 0.323962
O O13 0.260697 0.170148 0.340602
O O14 0.755327 0.980533 0.750000
O O15 0.757897 0.919973 0.660358
O O16 0.000000 0.971638 0.677668
O O17 0.500000 0.121121 0.370973
#
# Coordination Sequence:
#
# PCOD9469531 Si02
#       6
#    16  16  16  16  16  16
#     4   9  18  34  57  85 111 136 181 236 274 320
#     4  10  19  36  61  83 104 140 187 231 272 322
#     4  11  21  36  58  83 115 150 186 230 280 332
#     4  10  21  37  57  83 115 150 189 231 277 332
#     4  11  24  38  52  80 120 151 179 223 278 334
#     4  10  18  35  60  83 110 145 185 229 276 328
#
# _framework density 18.003371000000001
#
# number of rings (size 3 to 8) (size 9 to 14) (size 15 to 20)
#    0.000    1.833    3.333    1.500    0.000    3.333 
#    0.000    2.500    0.000    5.000    0.000    0.000 
#    0.000    0.000    0.000    0.000    0.000    0.000 
#
# Total GULP energy -268026.514431 kJ/mol
# GULP energy per Si atom -5583.885717 kJ/mol
# Density = 1.796239 g / cm^3
# Si number density = 18.003371 Si / 1000 Ang^3
#
#
#
# Elastic Constant Matrix: (Units=GPa)
#
#
# Indices 1 2 3 4 5 6 
#
# 1 13.7992 27.1065 27.7987 0.0000 0.0000 0.0000
# 2 27.1065 176.3543 109.1958 0.0000 0.0000 0.0000
# 3 27.7987 109.1958 186.6987 0.0000 0.0000 0.0000
# 4 0.0000 0.0000 0.0000 20.7295 0.0000 0.0000
# 5 0.0000 0.0000 0.0000 0.0000 26.4787 0.0000
# 6 0.0000 0.0000 0.0000 0.0000 0.0000 25.1423
#
#
#
# Elastic Compliance Matrix: (Units=1/GPa)
#
#
# Indices 1 2 3 4 5 6 
#
# 1 0.116091 -0.011195 -0.010738 0.000000 0.000000 0.000000
# 2 -0.011195 0.009969 -0.004164 0.000000 0.000000 0.000000
# 3 -0.010738 -0.004164 0.009390 0.000000 0.000000 0.000000
# 4 0.000000 0.000000 0.000000 0.048241 0.000000 0.000000
# 5 0.000000 0.000000 0.000000 0.000000 0.037766 0.000000
# 6 0.000000 0.000000 0.000000 0.000000 0.000000 0.039774
#
#
# Mechanical properties :
#
#
# Convention : Reuss Voigt Hill
#
# Bulk Modulus (GPa) = 12.01102 78.33935 45.17518
# Shear Modulus (GPa) = 14.65517 28.65349 21.65433
#
# Velocity S-wave (km/s) = 2.85620 3.99377 3.47189
# Velocity P-wave (km/s) = 4.19085 8.05451 6.42021
#
# Compressibility (1/GPa) = 0.08325688
#
# Stress axis : x y z
#
# Youngs Moduli (GPa) = 8.61397 100.30677 106.49138
#
# Poissons Ratio (x) = 1.12295 1.14347
# Poissons Ratio (y) = 0.09643 0.44343
# Poissons Ratio (z) = 0.09249 0.41767
#
# Static dielectric constant tensor:
#      x y z
#    x 1.626960 0.000000 0.000000 
#    y 0.000000 1.605240 0.000000 
#    z 0.000000 0.000000 1.597820 
# 
# From -- ./inp_files/51311.got.cif
#   From: 2010.05.17/outbox.cif.g08.bks.cpg/sg63_26_cif.got.tgz:51311.got - 2010.06.03 15:47:04.
