data_PCOD9469720
_publ_section_title
;
Structure prediction by ZEFSAII (Michael W. Deem and Ramdas Pophale) SiO2 
 PCOD9469720
Probable space group: C M C M
;
_chemical_formula_sum "Si O2"
_cell_formula_units_Z 64
_cell_length_a 7.454681
_cell_length_b 14.257218
_cell_length_c 32.615271
_cell_angle_alpha 90.000000
_cell_angle_beta 90.000000
_cell_angle_gamma 90.000000
_cell_volume 3466.449244
_symmetry_space_group_name_H-M "C M C M"
_symmetry_group_IT_number 63
_symmetry_cell_setting 'orthorhombic'
loop_
_space_group_symop_operation_xyz
x,y,z
-x,-y,1/2+z
x,-y,-z
-x,y,1/2-z
-x,-y,-z
x,y,1/2-z
-x,y,z
x,-y,1/2+z
1/2+x,1/2+y,z
1/2-x,1/2-y,1/2+z
1/2+x,1/2-y,-z
1/2-x,1/2+y,1/2-z
1/2-x,1/2-y,-z
1/2+x,1/2+y,1/2-z
1/2-x,1/2+y,z
1/2+x,1/2-y,1/2+z
loop_
_atom_site_type_symbol
_atom_site_label
_atom_site_fract_x
_atom_site_fract_y
_atom_site_fract_z
Si Si1 0.208084 0.213828 0.819106
Si Si2 0.000000 0.886370 0.453057
Si Si3 0.500000 0.394533 0.551283
Si Si4 0.779642 0.924878 0.250000
Si Si5 0.204350 0.266223 0.907948
Si Si6 0.215857 0.139628 0.250000
O O1 0.282522 0.130885 0.790476
O O2 0.282114 0.236465 0.863801
O O3 0.219378 0.304396 0.789888
O O4 0.000000 0.189521 0.826730
O O5 0.000000 0.884131 0.502111
O O6 0.168124 0.827101 0.435098
O O7 0.000000 0.994415 0.439270
O O8 0.671335 0.341134 0.569950
O O9 0.000000 0.919967 0.250000
O O10 0.726341 0.032328 0.250000
O O11 0.000000 0.304285 0.901871
O O12 0.000000 0.142606 0.250000
#
# Coordination Sequence:
#
# PCOD9469720 Si02
#       6
#    16   8   8   8  16   8
#     4   9  18  36  52  70 108 145 177 225 279 329
#     4   9  22  40  59  94 115 150 201 232 290 363
#     4  11  20  40  65  84 121 154 187 246 292 339
#     4   8  16  31  52  71 104 145 173 222 278 321
#     4   9  21  38  59  87 119 153 192 240 288 348
#     4  10  19  29  52  81 100 139 189 220 268 336
#
# _framework density 18.462696999999999
#
# number of rings (size 3 to 8) (size 9 to 14) (size 15 to 20)
#    0.750    2.000    0.000    1.875    1.750    2.000 
#    2.250    6.250    0.000    0.000    0.000    0.000 
#    0.000    0.000    0.000    0.000    0.000    0.000 
#
# Total GULP energy -178218.529931 kJ/mol
# GULP energy per Si atom -5569.329060 kJ/mol
# Density = 1.842067 g / cm^3
# Si number density = 18.462697 Si / 1000 Ang^3
#
#
#
# Elastic Constant Matrix: (Units=GPa)
#
#
# Indices 1 2 3 4 5 6 
#
# 1 60.6868 0.2240 -3.3432 0.0000 0.0000 0.0000
# 2 0.2240 103.9570 13.3133 0.0000 0.0000 0.0000
# 3 -3.3432 13.3133 72.2773 0.0000 0.0000 0.0000
# 4 0.0000 0.0000 0.0000 -1.8014 0.0000 0.0000
# 5 0.0000 0.0000 0.0000 0.0000 33.9720 0.0000
# 6 0.0000 0.0000 0.0000 0.0000 0.0000 25.9828
#
#
#
# Elastic Compliance Matrix: (Units=1/GPa)
#
#
# Indices 1 2 3 4 5 6 
#
# 1 0.016522 -0.000137 0.000789 0.000000 0.000000 0.000000
# 2 -0.000137 0.009853 -0.001821 0.000000 0.000000 0.000000
# 3 0.000789 -0.001821 0.014208 0.000000 0.000000 0.000000
# 4 0.000000 0.000000 0.000000 -0.555111 0.000000 0.000000
# 5 0.000000 0.000000 0.000000 0.000000 0.029436 0.000000
# 6 0.000000 0.000000 0.000000 0.000000 0.000000 0.038487
#
#
# Mechanical properties :
#
#
# Convention : Reuss Voigt Hill
#
# Bulk Modulus (GPa) = 26.14686 28.58994 27.36840
# Shear Modulus (GPa) = -11.58695 26.74582 7.57943
#
# Velocity S-wave (km/s) = -2.50789 3.81023 2.02834
# Velocity P-wave (km/s) = 2.40972 5.90559 4.51014
#
# Compressibility (1/GPa) = 0.03824550
#
# Stress axis : x y z
#
# Youngs Moduli (GPa) = 60.52526 101.49309 70.38492
#
# Poissons Ratio (x) = 0.01387 -0.05556
# Poissons Ratio (y) = 0.00827 0.12819
# Poissons Ratio (z) = -0.04778 0.18484
#
# Static dielectric constant tensor:
#      x y z
#    x 1.682440 0.000000 0.000000 
#    y 0.000000 1.607190 0.000000 
#    z 0.000000 0.000000 1.635030 
# 
# From -- ./inp_files/71449.got.cif
#   From: 2010.05.17/outbox.cif.g08.bks.cpg/sg63_36_cif.got.tgz:71449.got - 2010.06.03 15:47:04.
