data_PCOD9469101
_publ_section_title
;
Structure prediction by ZEFSAII (Michael W. Deem and Ramdas Pophale) SiO2 
 PCOD9469101
Probable space group: C M C M
;
_chemical_formula_sum "Si O2"
_cell_formula_units_Z 128
_cell_length_a 20.538158
_cell_length_b 19.961999
_cell_length_c 18.077293
_cell_angle_alpha 90.000000
_cell_angle_beta 90.000000
_cell_angle_gamma 90.000000
_cell_volume 7411.377202
_symmetry_space_group_name_H-M "C M C M"
_symmetry_group_IT_number 63
_symmetry_cell_setting 'orthorhombic'
loop_
_space_group_symop_operation_xyz
x,y,z
-x,-y,1/2+z
x,-y,-z
-x,y,1/2-z
-x,-y,-z
x,y,1/2-z
-x,y,z
x,-y,1/2+z
1/2+x,1/2+y,z
1/2-x,1/2-y,1/2+z
1/2+x,1/2-y,-z
1/2-x,1/2+y,1/2-z
1/2-x,1/2-y,-z
1/2+x,1/2+y,1/2-z
1/2-x,1/2+y,z
1/2+x,1/2-y,1/2+z
loop_
_atom_site_type_symbol
_atom_site_label
_atom_site_fract_x
_atom_site_fract_y
_atom_site_fract_z
Si Si1 0.069118 0.739567 0.665253
Si Si2 0.796561 0.754533 0.427539
Si Si3 0.120244 0.022585 0.913601
Si Si4 0.260559 0.127506 0.161957
Si Si5 0.574414 0.336765 0.045667
Si Si6 0.240732 0.522388 0.837464
Si Si7 0.392422 0.620168 0.378728
Si Si8 0.694586 0.163628 0.838307
O O1 0.066915 0.715748 0.750000
O O2 0.077153 0.819615 0.667365
O O3 0.132444 0.704495 0.631684
O O4 0.000000 0.723442 0.628750
O O5 0.750000 0.750000 0.500000
O O6 0.795894 0.683466 0.386026
O O7 0.868700 0.783182 0.439826
O O8 0.758721 0.806258 0.374627
O O9 0.085521 0.094157 0.908584
O O10 0.193986 0.030742 0.885214
O O11 0.090979 0.958315 0.869986
O O12 0.121094 0.000000 0.000000
O O13 0.261760 0.142488 0.250000
O O14 0.286110 0.052113 0.149777
O O15 0.185067 0.125813 0.135574
O O16 0.500000 0.313771 0.054806
O O17 0.586913 0.359522 0.961252
O O18 0.258515 0.525412 0.750000
O O19 0.193262 0.584360 0.852681
O O20 0.698466 0.174202 0.750000
#
# Coordination Sequence:
#
# PCOD9469101 Si02
#       8
#    16  16  16  16  16  16  16  16
#     4  10  19  30  47  74 105 135 167 209 268 326
#     4  12  21  34  54  80 103 138 182 222 261 314
#     4   9  19  32  50  73 102 140 176 213 252 308
#     4  10  19  33  55  81 106 132 172 226 275 312
#     4  11  22  35  50  74 109 146 182 217 259 309
#     4   9  18  32  53  77 102 133 172 222 273 310
#     4  10  18  31  51  74 105 137 175 210 260 315
#     4  10  19  33  53  74 102 137 174 217 267 312
#
# _framework density 17.270744000000001
#
# number of rings (size 3 to 8) (size 9 to 14) (size 15 to 20)
#    0.000    1.875    3.750    1.125    0.000    3.250 
#    0.000    0.000    0.000    4.125    0.000    1.750 
#    0.000    4.500    0.000    0.000    0.000    0.000 
#
# Total GULP energy -356527.610858 kJ/mol
# GULP energy per Si atom -5570.743920 kJ/mol
# Density = 1.723144 g / cm^3
# Si number density = 17.270744 Si / 1000 Ang^3
#
#
#
# Elastic Constant Matrix: (Units=GPa)
#
#
# Indices 1 2 3 4 5 6 
#
# 1 105.0140 56.5767 27.8711 0.0000 0.0000 0.0000
# 2 56.5767 114.0674 37.2348 0.0000 0.0000 0.0000
# 3 27.8711 37.2348 30.8138 0.0000 0.0000 0.0000
# 4 0.0000 0.0000 0.0000 19.2036 0.0000 0.0000
# 5 0.0000 0.0000 0.0000 0.0000 -2.2968 0.0000
# 6 0.0000 0.0000 0.0000 0.0000 0.0000 16.4937
#
#
#
# Elastic Compliance Matrix: (Units=1/GPa)
#
#
# Indices 1 2 3 4 5 6 
#
# 1 0.013848 -0.004591 -0.006978 0.000000 0.000000 0.000000
# 2 -0.004591 0.015999 -0.015181 0.000000 0.000000 0.000000
# 3 -0.006978 -0.015181 0.057109 0.000000 0.000000 0.000000
# 4 0.000000 0.000000 0.000000 0.052074 0.000000 0.000000
# 5 0.000000 0.000000 0.000000 0.000000 -0.435383 0.000000
# 6 0.000000 0.000000 0.000000 0.000000 0.000000 0.060629
#
#
# Mechanical properties :
#
#
# Convention : Reuss Voigt Hill
#
# Bulk Modulus (GPa) = 29.88936 54.80670 42.34803
# Shear Modulus (GPa) = -29.22719 15.22760 -6.99979
#
# Velocity S-wave (km/s) = -4.11821 2.97256 -2.01539
# Velocity P-wave (km/s) = 2.29543 6.60184 4.37694
#
# Compressibility (1/GPa) = 0.03345672
#
# Stress axis : x y z
#
# Youngs Moduli (GPa) = 72.21397 62.50372 17.51039
#
# Poissons Ratio (x) = 0.28692 0.12219
# Poissons Ratio (y) = 0.33150 0.26582
# Poissons Ratio (z) = 0.50392 0.94886
#
# Static dielectric constant tensor:
#      x y z
#    x 1.587420 0.000000 0.000000 
#    y 0.000000 1.631550 0.000000 
#    z 0.000000 0.000000 1.629910 
# 
# From -- ./inp_files/47553.got.cif
#   From: 2010.05.17/outbox.cif.g08.bks.cpg/sg63_24_cif.got.tgz:47553.got - 2010.06.03 15:47:04.
