data_PCOD9469642
_publ_section_title
;
Structure prediction by ZEFSAII (Michael W. Deem and Ramdas Pophale) SiO2 
 PCOD9469642
Probable space group: C M C M
;
_chemical_formula_sum "Si O2"
_cell_formula_units_Z 72
_cell_length_a 23.347960
_cell_length_b 23.700275
_cell_length_c 9.077507
_cell_angle_alpha 90.000000
_cell_angle_beta 90.000000
_cell_angle_gamma 90.000000
_cell_volume 5023.066391
_symmetry_space_group_name_H-M "C M C M"
_symmetry_group_IT_number 63
_symmetry_cell_setting 'orthorhombic'
loop_
_space_group_symop_operation_xyz
x,y,z
-x,-y,1/2+z
x,-y,-z
-x,y,1/2-z
-x,-y,-z
x,y,1/2-z
-x,y,z
x,-y,1/2+z
1/2+x,1/2+y,z
1/2-x,1/2-y,1/2+z
1/2+x,1/2-y,-z
1/2-x,1/2+y,1/2-z
1/2-x,1/2-y,-z
1/2+x,1/2+y,1/2-z
1/2-x,1/2+y,z
1/2+x,1/2-y,1/2+z
loop_
_atom_site_type_symbol
_atom_site_label
_atom_site_fract_x
_atom_site_fract_y
_atom_site_fract_z
Si Si1 0.337173 0.272982 0.418302
Si Si2 0.209827 0.328778 0.418695
Si Si3 0.271640 0.560239 0.572067
Si Si4 0.619293 0.379623 0.926426
Si Si5 0.000000 0.938994 0.573651
O O1 0.357198 0.273318 0.250000
O O2 0.272949 0.299715 0.419370
O O3 0.330018 0.210192 0.481387
O O4 0.373632 0.315530 0.517849
O O5 0.189424 0.327790 0.250000
O O6 0.223304 0.392849 0.464270
O O7 0.259902 0.500000 0.500000
O O8 0.275959 0.557032 0.750000
O O9 0.331231 0.584023 0.506140
O O10 0.627452 0.382301 0.750000
O O11 0.557540 0.405068 0.964863
O O12 0.000000 0.946299 0.750000
O O13 0.000000 0.000000 0.500000
#
# Coordination Sequence:
#
# PCOD9469642 Si02
#       5
#    16  16  16  16   8
#     4   9  16  26  41  60  77  96 127 163 200 239
#     4   8  15  26  39  56  78 102 127 157 193 236
#     4  10  19  29  41  59  81 106 136 165 198 238
#     4  10  19  31  44  57  76 103 136 172 208 241
#     4  10  22  34  44  58  76 104 139 174 209 242
#
# _framework density 14.333874
#
# number of rings (size 3 to 8) (size 9 to 14) (size 15 to 20)
#    0.000    2.667    0.000    4.000    0.000    9.778 
#    0.000    0.000    0.000    0.000    0.000    0.000 
#    0.000    0.000    0.000    1.000    0.000   11.778 
#
# Total GULP energy -200531.043988 kJ/mol
# GULP energy per Si atom -5570.306777 kJ/mol
# Density = 1.430125 g / cm^3
# Si number density = 14.333874 Si / 1000 Ang^3
#
#
#
# Elastic Constant Matrix: (Units=GPa)
#
#
# Indices 1 2 3 4 5 6 
#
# 1 33.1108 40.5878 25.9540 0.0000 0.0000 0.0000
# 2 40.5878 136.8375 57.2627 0.0000 0.0000 0.0000
# 3 25.9540 57.2627 63.6211 0.0000 0.0000 0.0000
# 4 0.0000 0.0000 0.0000 27.9877 0.0000 0.0000
# 5 0.0000 0.0000 0.0000 0.0000 13.7115 0.0000
# 6 0.0000 0.0000 0.0000 0.0000 0.0000 17.9053
#
#
#
# Elastic Compliance Matrix: (Units=1/GPa)
#
#
# Indices 1 2 3 4 5 6 
#
# 1 0.052511 -0.010606 -0.011876 0.000000 0.000000 0.000000
# 2 -0.010606 0.013866 -0.008153 0.000000 0.000000 0.000000
# 3 -0.011876 -0.008153 0.027901 0.000000 0.000000 0.000000
# 4 0.000000 0.000000 0.000000 0.035730 0.000000 0.000000
# 5 0.000000 0.000000 0.000000 0.000000 0.072931 0.000000
# 6 0.000000 0.000000 0.000000 0.000000 0.000000 0.055849
#
#
# Mechanical properties :
#
#
# Convention : Reuss Voigt Hill
#
# Bulk Modulus (GPa) = 30.29558 53.46428 41.87993
# Shear Modulus (GPa) = 15.10289 19.23857 17.17073
#
# Velocity S-wave (km/s) = 3.24952 3.66755 3.46484
# Velocity P-wave (km/s) = 5.93807 7.43739 6.72962
#
# Compressibility (1/GPa) = 0.03300812
#
# Stress axis : x y z
#
# Youngs Moduli (GPa) = 19.04347 72.12042 35.84050
#
# Poissons Ratio (x) = 0.76489 0.42565
# Poissons Ratio (y) = 0.20197 0.29222
# Poissons Ratio (z) = 0.22616 0.58802
#
# Static dielectric constant tensor:
#      x y z
#    x 1.444350 0.000000 0.000000 
#    y 0.000000 1.487900 0.000000 
#    z 0.000000 0.000000 1.491840 
# 
# From -- ./inp_files/6124.got.cif
#   From: 2010.05.17/outbox.cif.g08.bks.cpg/sg63_4_cif.got.tgz:6124.got - 2010.06.03 15:47:04.
