data_PCOD9469764
_publ_section_title
;
Structure prediction by ZEFSAII (Michael W. Deem and Ramdas Pophale) SiO2 
 PCOD9469764
Probable space group: C M C M
;
_chemical_formula_sum "Si O2"
_cell_formula_units_Z 80
_cell_length_a 7.501570
_cell_length_b 14.546862
_cell_length_c 28.423760
_cell_angle_alpha 90.000000
_cell_angle_beta 90.000000
_cell_angle_gamma 90.000000
_cell_volume 3101.723015
_symmetry_space_group_name_H-M "C M C M"
_symmetry_group_IT_number 63
_symmetry_cell_setting 'orthorhombic'
loop_
_space_group_symop_operation_xyz
x,y,z
-x,-y,1/2+z
x,-y,-z
-x,y,1/2-z
-x,-y,-z
x,y,1/2-z
-x,y,z
x,-y,1/2+z
1/2+x,1/2+y,z
1/2-x,1/2-y,1/2+z
1/2+x,1/2-y,-z
1/2-x,1/2+y,1/2-z
1/2-x,1/2-y,-z
1/2+x,1/2+y,1/2-z
1/2-x,1/2+y,z
1/2+x,1/2-y,1/2+z
loop_
_atom_site_type_symbol
_atom_site_label
_atom_site_fract_x
_atom_site_fract_y
_atom_site_fract_z
Si Si1 0.786521 0.284020 0.447923
Si Si2 0.211288 0.465859 0.250000
Si Si3 0.789466 0.043862 0.648953
Si Si4 0.219803 0.747646 0.750000
Si Si5 0.199676 0.991045 0.448547
Si Si6 0.703102 0.258954 0.850708
O O1 0.750000 0.250000 0.500000
O O2 0.692302 0.381348 0.444244
O O3 0.724314 0.224076 0.403152
O O4 0.000000 0.295664 0.442976
O O5 0.268840 0.503594 0.300449
O O6 0.275637 0.359556 0.250000
O O7 0.000000 0.465084 0.250000
O O8 0.723063 0.987750 0.603171
O O9 0.701992 0.145674 0.651411
O O10 0.000000 0.057266 0.642006
O O11 0.282877 0.786175 0.800249
O O12 0.000000 0.750208 0.750000
O O13 0.000000 0.033361 0.452331
O O14 0.288294 0.000000 0.500000
O O15 0.500000 0.293555 0.850708
#
# Coordination Sequence:
#
# PCOD9469764 Si02
#       6
#    16   8  16   8  16  16
#     4  10  19  30  45  66  92 122 155 188 223 267
#     4   9  15  23  35  53  82 115 142 173 217 263
#     4   9  15  23  38  60  84 110 142 179 219 264
#     4   7  10  19  35  53  74 101 132 167 209 255
#     4   9  18  32  48  67  93 122 150 186 232 275
#     4   8  14  24  38  57  82 111 140 174 219 267
#
# _framework density 25.792114999999999
#
# number of rings (size 3 to 8) (size 9 to 14) (size 15 to 20)
#    0.000    3.200    0.000    2.700    0.000    2.000 
#    0.000    0.000    0.000    0.000    0.000    1.400 
#    0.000    6.400    0.000    0.000    0.000    0.000 
#
# Total GULP energy -222892.012032 kJ/mol
# GULP energy per Si atom -5572.300301 kJ/mol
# Density = 2.573341 g / cm^3
# Si number density = 25.792115 Si / 1000 Ang^3
#
#
#
# Elastic Constant Matrix: (Units=GPa)
#
#
# Indices 1 2 3 4 5 6 
#
# 1 101.7097 -3.4362 12.2156 0.0000 0.0000 0.0000
# 2 -3.4362 73.2177 6.0298 0.0000 0.0000 0.0000
# 3 12.2156 6.0298 351.1218 0.0000 0.0000 0.0000
# 4 0.0000 0.0000 0.0000 10.5559 0.0000 0.0000
# 5 0.0000 0.0000 0.0000 0.0000 3.4797 0.0000
# 6 0.0000 0.0000 0.0000 0.0000 0.0000 -0.5758
#
#
#
# Elastic Compliance Matrix: (Units=1/GPa)
#
#
# Indices 1 2 3 4 5 6 
#
# 1 0.009891 0.000493 -0.000353 0.000000 0.000000 0.000000
# 2 0.000493 0.013702 -0.000252 0.000000 0.000000 0.000000
# 3 -0.000353 -0.000252 0.002865 0.000000 0.000000 0.000000
# 4 0.000000 0.000000 0.000000 0.094733 0.000000 0.000000
# 5 0.000000 0.000000 0.000000 0.000000 0.287381 0.000000
# 6 0.000000 0.000000 0.000000 0.000000 0.000000 -1.736678
#
#
# Mechanical properties :
#
#
# Convention : Reuss Voigt Hill
#
# Bulk Modulus (GPa) = 38.11883 61.74083 49.92983
# Shear Modulus (GPa) = -3.79035 36.77464 16.49214
#
# Velocity S-wave (km/s) = -1.21358 3.78009 2.53143
# Velocity P-wave (km/s) = 3.58436 6.56063 5.28628
#
# Compressibility (1/GPa) = 0.02623376
#
# Stress axis : x y z
#
# Youngs Moduli (GPa) = 101.10288 72.98295 349.08688
#
# Poissons Ratio (x) = -0.03600 0.12308
# Poissons Ratio (y) = -0.04987 0.08813
# Poissons Ratio (z) = 0.03565 0.01843
#
# Static dielectric constant tensor:
#      x y z
#    x 2.027150 0.000000 0.000000 
#    y 0.000000 2.103230 0.000000 
#    z 0.000000 0.000000 2.241990 
# 
# From -- ./inp_files/59769.got.cif
#   From: 2010.05.17/outbox.cif.g08.bks.cpg/sg63_30_cif.got.tgz:59769.got - 2010.06.03 15:47:04.
