data_PCOD9469794
_publ_section_title
;
Structure prediction by ZEFSAII (Michael W. Deem and Ramdas Pophale) SiO2 
 PCOD9469794
Probable space group: C M C M
;
_chemical_formula_sum "Si O2"
_cell_formula_units_Z 80
_cell_length_a 7.331943
_cell_length_b 26.287210
_cell_length_c 18.873476
_cell_angle_alpha 90.000000
_cell_angle_beta 90.000000
_cell_angle_gamma 90.000000
_cell_volume 3637.604411
_symmetry_space_group_name_H-M "C M C M"
_symmetry_group_IT_number 63
_symmetry_cell_setting 'orthorhombic'
loop_
_space_group_symop_operation_xyz
x,y,z
-x,-y,1/2+z
x,-y,-z
-x,y,1/2-z
-x,-y,-z
x,y,1/2-z
-x,y,z
x,-y,1/2+z
1/2+x,1/2+y,z
1/2-x,1/2-y,1/2+z
1/2+x,1/2-y,-z
1/2-x,1/2+y,1/2-z
1/2-x,1/2-y,-z
1/2+x,1/2+y,1/2-z
1/2-x,1/2+y,z
1/2+x,1/2-y,1/2+z
loop_
_atom_site_type_symbol
_atom_site_label
_atom_site_fract_x
_atom_site_fract_y
_atom_site_fract_z
Si Si1 0.776950 0.336792 0.571583
Si Si2 0.722288 0.045296 0.831745
Si Si3 0.278215 0.069384 0.331334
Si Si4 0.283078 0.856459 0.413323
Si Si5 0.717942 0.254674 0.170253
O O1 0.720695 0.386646 0.615523
O O2 0.713728 0.340534 0.490664
O O3 0.714839 0.286846 0.613838
O O4 0.000000 0.335660 0.570801
O O5 0.775397 0.054744 0.750000
O O6 0.500000 0.045621 0.832767
O O7 0.787056 0.090284 0.882372
O O8 0.778649 0.987916 0.850989
O O9 0.222486 0.079456 0.250000
O O10 0.500000 0.069636 0.331377
O O11 0.500000 0.862907 0.421107
O O12 0.253274 0.811059 0.358158
O O13 0.788137 0.247166 0.250000
O O14 0.500000 0.248150 0.173567
#
# Coordination Sequence:
#
# PCOD9469794 Si02
#       5
#    16  16  16  16  16
#     4   9  17  28  43  65  91 118 149 185 225 265
#     4   8  14  24  39  62  91 119 146 178 218 264
#     4   8  13  23  40  62  90 121 149 181 222 263
#     4  10  19  30  46  69  96 120 143 180 228 272
#     4  10  20  33  48  65  87 118 156 191 219 257
#
# _framework density 21.992494000000001
#
# number of rings (size 3 to 8) (size 9 to 14) (size 15 to 20)
#    0.000    3.000    0.000    3.000    0.000    4.400 
#    0.000    4.000    0.000    0.000    0.000    4.200 
#    0.000    3.200    0.000    0.000    0.000    0.000 
#
# Total GULP energy -223431.120324 kJ/mol
# GULP energy per Si atom -5585.778008 kJ/mol
# Density = 2.194244 g / cm^3
# Si number density = 21.992494 Si / 1000 Ang^3
#
#
#
# Elastic Constant Matrix: (Units=GPa)
#
#
# Indices 1 2 3 4 5 6 
#
# 1 84.3087 -9.1494 -4.4083 0.0000 0.0000 0.0000
# 2 -9.1494 60.1579 -0.1915 0.0000 0.0000 0.0000
# 3 -4.4083 -0.1915 48.6363 0.0000 0.0000 0.0000
# 4 0.0000 0.0000 0.0000 15.9941 0.0000 0.0000
# 5 0.0000 0.0000 0.0000 0.0000 -1.6703 0.0000
# 6 0.0000 0.0000 0.0000 0.0000 0.0000 3.7029
#
#
#
# Elastic Compliance Matrix: (Units=1/GPa)
#
#
# Indices 1 2 3 4 5 6 
#
# 1 0.012119 0.001847 0.001106 0.000000 0.000000 0.000000
# 2 0.001847 0.016905 0.000234 0.000000 0.000000 0.000000
# 3 0.001106 0.000234 0.020662 0.000000 0.000000 0.000000
# 4 0.000000 0.000000 0.000000 0.062523 0.000000 0.000000
# 5 0.000000 0.000000 0.000000 0.000000 -0.598704 0.000000
# 6 0.000000 0.000000 0.000000 0.000000 0.000000 0.270061
#
#
# Mechanical properties :
#
#
# Convention : Reuss Voigt Hill
#
# Bulk Modulus (GPa) = 17.83844 18.40052 18.11948
# Shear Modulus (GPa) = -24.49528 17.39547 -3.54991
#
# Velocity S-wave (km/s) = -3.34099 2.81548 -1.27187
# Velocity P-wave (km/s) = 2.59888 4.35363 2.46981
#
# Compressibility (1/GPa) = 0.05605873
#
# Stress axis : x y z
#
# Youngs Moduli (GPa) = 82.51233 59.15574 48.39820
#
# Poissons Ratio (x) = -0.10925 -0.05352
# Poissons Ratio (y) = -0.15238 -0.01132
# Poissons Ratio (z) = -0.09124 -0.01384
#
# Static dielectric constant tensor:
#      x y z
#    x 1.902050 0.000000 0.000000 
#    y 0.000000 1.758120 0.000000 
#    z 0.000000 0.000000 1.762430 
# 
# From -- ./inp_files/29717.got.cif
#   From: 2010.05.17/outbox.cif.g08.bks.cpg/sg63_15_cif.got.tgz:29717.got - 2010.06.03 15:47:04.
