data_PCOD9469872
_publ_section_title
;
Structure prediction by ZEFSAII (Michael W. Deem and Ramdas Pophale) SiO2 
 PCOD9469872
Probable space group: C M C M
;
_chemical_formula_sum "Si O2"
_cell_formula_units_Z 128
_cell_length_a 12.164306
_cell_length_b 24.048564
_cell_length_c 25.553244
_cell_angle_alpha 90.000000
_cell_angle_beta 90.000000
_cell_angle_gamma 90.000000
_cell_volume 7475.195015
_symmetry_space_group_name_H-M "C M C M"
_symmetry_group_IT_number 63
_symmetry_cell_setting 'orthorhombic'
loop_
_space_group_symop_operation_xyz
x,y,z
-x,-y,1/2+z
x,-y,-z
-x,y,1/2-z
-x,-y,-z
x,y,1/2-z
-x,y,z
x,-y,1/2+z
1/2+x,1/2+y,z
1/2-x,1/2-y,1/2+z
1/2+x,1/2-y,-z
1/2-x,1/2+y,1/2-z
1/2-x,1/2-y,-z
1/2+x,1/2+y,1/2-z
1/2-x,1/2+y,z
1/2+x,1/2-y,1/2+z
loop_
_atom_site_type_symbol
_atom_site_label
_atom_site_fract_x
_atom_site_fract_y
_atom_site_fract_z
Si Si1 0.123868 0.917554 0.099864
Si Si2 0.129169 0.256382 0.351161
Si Si3 0.629993 0.599888 0.017397
Si Si4 0.872210 0.485528 0.191808
Si Si5 0.702247 0.538261 0.383462
Si Si6 0.631475 0.267216 0.972428
Si Si7 0.266459 0.867918 0.309431
Si Si8 0.368067 0.637958 0.191023
O O1 0.180990 0.883645 0.145615
O O2 0.000000 0.897719 0.095383
O O3 0.129512 0.982523 0.114302
O O4 0.171400 0.909982 0.041637
O O5 0.139511 0.257329 0.413928
O O6 0.184188 0.308438 0.323262
O O7 0.172988 0.196912 0.331155
O O8 0.000000 0.258642 0.338641
O O9 0.500000 0.582709 0.021541
O O10 0.699638 0.564689 0.058928
O O11 0.633973 0.665530 0.029484
O O12 0.827591 0.501215 0.250000
O O13 0.812426 0.516193 0.144270
O O14 0.852624 0.419153 0.187475
O O15 0.000000 0.497791 0.190891
O O16 0.659258 0.586897 0.346190
O O17 0.500000 0.254455 0.990431
O O18 0.750000 0.250000 0.000000
O O19 0.222572 0.868136 0.250000
O O20 0.327741 0.629261 0.250000
O O21 0.500000 0.641642 0.192314
#
# Coordination Sequence:
#
# PCOD9469872 Si02
#       8
#    16  16  16  16  16  16  16  16
#     4  10  21  34  53  79 108 144 180 216 270 331
#     4  10  19  33  53  77 105 137 177 225 274 327
#     4  10  19  34  54  77 109 146 182 222 271 330
#     4   9  19  35  53  74 102 139 181 222 268 328
#     4  11  19  32  53  78 106 137 180 226 269 321
#     4  10  20  35  56  80 110 148 187 231 279 333
#     4  10  20  34  54  78 104 136 178 226 274 326
#     4  10  19  30  48  77 108 134 166 219 278 322
#
# _framework density 17.123298999999999
#
# number of rings (size 3 to 8) (size 9 to 14) (size 15 to 20)
#    0.000    2.000    1.250    3.375    0.000    3.000 
#    0.000    0.625    0.000    7.500    0.000    0.000 
#    0.000    0.000    0.000    0.000    0.000    0.000 
#
# Total GULP energy -356279.331178 kJ/mol
# GULP energy per Si atom -5566.864550 kJ/mol
# Density = 1.708433 g / cm^3
# Si number density = 17.123299 Si / 1000 Ang^3
#
#
#
# Elastic Constant Matrix: (Units=GPa)
#
#
# Indices 1 2 3 4 5 6 
#
# 1 45.5836 13.2883 36.4588 0.0000 0.0000 0.0000
# 2 13.2883 81.7556 43.0498 0.0000 0.0000 0.0000
# 3 36.4588 43.0498 133.7143 0.0000 0.0000 0.0000
# 4 0.0000 0.0000 0.0000 31.3193 0.0000 0.0000
# 5 0.0000 0.0000 0.0000 0.0000 23.3699 0.0000
# 6 0.0000 0.0000 0.0000 0.0000 0.0000 19.0384
#
#
#
# Elastic Compliance Matrix: (Units=1/GPa)
#
#
# Indices 1 2 3 4 5 6 
#
# 1 0.028084 -0.000641 -0.007451 0.000000 0.000000 0.000000
# 2 -0.000641 0.014743 -0.004572 0.000000 0.000000 0.000000
# 3 -0.007451 -0.004572 0.010982 0.000000 0.000000 0.000000
# 4 0.000000 0.000000 0.000000 0.031929 0.000000 0.000000
# 5 0.000000 0.000000 0.000000 0.000000 0.042790 0.000000
# 6 0.000000 0.000000 0.000000 0.000000 0.000000 0.052525
#
#
# Mechanical properties :
#
#
# Convention : Reuss Voigt Hill
#
# Bulk Modulus (GPa) = 35.11066 49.62747 42.36906
# Shear Modulus (GPa) = 23.16145 25.96263 24.56204
#
# Velocity S-wave (km/s) = 3.68180 3.89809 3.79149
# Velocity P-wave (km/s) = 6.21477 7.02178 6.63056
#
# Compressibility (1/GPa) = 0.02848138
#
# Stress axis : x y z
#
# Youngs Moduli (GPa) = 35.60726 67.82813 91.05689
#
# Poissons Ratio (x) = 0.04349 0.67847
# Poissons Ratio (y) = 0.02283 0.41629
# Poissons Ratio (z) = 0.26531 0.31010
#
# Static dielectric constant tensor:
#      x y z
#    x 1.587030 0.000000 0.000000 
#    y 0.000000 1.572240 0.000000 
#    z 0.000000 0.000000 1.610650 
# 
# From -- ./inp_files/62052.got.cif
#   From: 2010.05.17/outbox.cif.g08.bks.cpg/sg63_32_cif.got.tgz:62052.got - 2010.06.03 15:47:04.
