data_PCOD9469680
_publ_section_title
;
Structure prediction by ZEFSAII (Michael W. Deem and Ramdas Pophale) SiO2 
 PCOD9469680
Probable space group: C M C M
;
_chemical_formula_sum "Si O2"
_cell_formula_units_Z 112
_cell_length_a 14.327987
_cell_length_b 33.647668
_cell_length_c 14.964954
_cell_angle_alpha 90.000000
_cell_angle_beta 90.000000
_cell_angle_gamma 90.000000
_cell_volume 7214.654451
_symmetry_space_group_name_H-M "C M C M"
_symmetry_group_IT_number 63
_symmetry_cell_setting 'orthorhombic'
loop_
_space_group_symop_operation_xyz
x,y,z
-x,-y,1/2+z
x,-y,-z
-x,y,1/2-z
-x,-y,-z
x,y,1/2-z
-x,y,z
x,-y,1/2+z
1/2+x,1/2+y,z
1/2-x,1/2-y,1/2+z
1/2+x,1/2-y,-z
1/2-x,1/2+y,1/2-z
1/2-x,1/2-y,-z
1/2+x,1/2+y,1/2-z
1/2-x,1/2+y,z
1/2+x,1/2-y,1/2+z
loop_
_atom_site_type_symbol
_atom_site_label
_atom_site_fract_x
_atom_site_fract_y
_atom_site_fract_z
Si Si1 0.386711 0.298524 0.353521
Si Si2 0.389521 0.455762 0.009248
Si Si3 0.109953 0.748230 0.651424
Si Si4 0.113510 0.111827 0.854633
Si Si5 0.611127 0.780542 0.961526
Si Si6 0.105122 0.105141 0.143963
Si Si7 0.741828 0.675110 0.146450
O O1 0.358717 0.290693 0.250000
O O2 0.500000 0.299333 0.354112
O O3 0.355684 0.343124 0.379675
O O4 0.360127 0.262102 0.417527
O O5 0.500000 0.460447 0.031259
O O6 0.352663 0.424036 0.082355
O O7 0.349136 0.500000 0.000000
O O8 0.383361 0.434084 0.914041
O O9 0.126237 0.730670 0.750000
O O10 0.130472 0.720935 0.566894
O O11 0.170826 0.787758 0.643492
O O12 0.000000 0.758831 0.645503
O O13 0.136189 0.105725 0.750000
O O14 0.000000 0.112320 0.861211
O O15 0.500000 0.784933 0.947694
O O16 0.670245 0.814016 0.913002
O O17 0.110882 0.098131 0.250000
O O18 0.182549 0.137035 0.118263
O O19 0.000000 0.120819 0.125063
O O20 0.770111 0.670218 0.250000
#
# Coordination Sequence:
#
# PCOD9469680 Si02
#       7
#    16  16  16  16  16  16  16
#     4   8  14  24  37  55  78 104 135 168 206 254
#     4   9  17  27  41  61  81 104 138 178 217 257
#     4   9  18  31  44  59  81 112 151 189 220 254
#     4   8  14  24  37  53  75 103 132 164 206 253
#     4  10  19  29  45  65  86 115 148 187 231 264
#     4   9  18  31  46  64  88 120 154 184 215 257
#     4  10  19  30  44  63  87 115 150 187 224 264
#
# _framework density 15.523959
#
# number of rings (size 3 to 8) (size 9 to 14) (size 15 to 20)
#    0.000    3.000    0.000    2.143    2.000    3.143 
#    0.000    2.857    0.000    0.000    0.000    0.000 
#    0.000    0.571    0.000    0.000    0.000    0.000 
#
# Total GULP energy -312015.985865 kJ/mol
# GULP energy per Si atom -5571.714033 kJ/mol
# Density = 1.548863 g / cm^3
# Si number density = 15.523959 Si / 1000 Ang^3
#
#
#
# Elastic Constant Matrix: (Units=GPa)
#
#
# Indices 1 2 3 4 5 6 
#
# 1 41.9709 26.6153 26.4192 0.0000 0.0000 0.0000
# 2 26.6153 78.0778 43.9434 0.0000 0.0000 0.0000
# 3 26.4192 43.9434 71.4221 0.0000 0.0000 0.0000
# 4 0.0000 0.0000 0.0000 6.9438 0.0000 0.0000
# 5 0.0000 0.0000 0.0000 0.0000 10.2910 0.0000
# 6 0.0000 0.0000 0.0000 0.0000 0.0000 6.9914
#
#
#
# Elastic Compliance Matrix: (Units=1/GPa)
#
#
# Indices 1 2 3 4 5 6 
#
# 1 0.033228 -0.006745 -0.008141 0.000000 0.000000 0.000000
# 2 -0.006745 0.020961 -0.010402 0.000000 0.000000 0.000000
# 3 -0.008141 -0.010402 0.023413 0.000000 0.000000 0.000000
# 4 0.000000 0.000000 0.000000 0.144012 0.000000 0.000000
# 5 0.000000 0.000000 0.000000 0.000000 0.097172 0.000000
# 6 0.000000 0.000000 0.000000 0.000000 0.000000 0.143033
#
#
# Mechanical properties :
#
#
# Convention : Reuss Voigt Hill
#
# Bulk Modulus (GPa) = 37.00135 42.82517 39.91326
# Shear Modulus (GPa) = 9.58952 11.14478 10.36715
#
# Velocity S-wave (km/s) = 2.48810 2.68229 2.58702
# Velocity P-wave (km/s) = 5.66930 6.10240 5.88983
#
# Compressibility (1/GPa) = 0.02702604
#
# Stress axis : x y z
#
# Youngs Moduli (GPa) = 30.09534 47.70730 42.71216
#
# Poissons Ratio (x) = 0.32177 0.34773
# Poissons Ratio (y) = 0.20298 0.44428
# Poissons Ratio (z) = 0.24501 0.49624
#
# Static dielectric constant tensor:
#      x y z
#    x 1.512190 0.000000 0.000000 
#    y 0.000000 1.507550 0.000000 
#    z 0.000000 0.000000 1.560260 
# 
# From -- ./inp_files/32748.got.cif
#   From: 2010.05.17/outbox.cif.g08.bks.cpg/sg63_17_cif.got.tgz:32748.got - 2010.06.03 15:47:04.
