data_PCOD9469818
_publ_section_title
;
Structure prediction by ZEFSAII (Michael W. Deem and Ramdas Pophale) SiO2 
 PCOD9469818
Probable space group: C M C M
;
_chemical_formula_sum "Si O2"
_cell_formula_units_Z 96
_cell_length_a 7.330821
_cell_length_b 20.317320
_cell_length_c 28.793391
_cell_angle_alpha 90.000000
_cell_angle_beta 90.000000
_cell_angle_gamma 90.000000
_cell_volume 4288.563558
_symmetry_space_group_name_H-M "C M C M"
_symmetry_group_IT_number 63
_symmetry_cell_setting 'orthorhombic'
loop_
_space_group_symop_operation_xyz
x,y,z
-x,-y,1/2+z
x,-y,-z
-x,y,1/2-z
-x,-y,-z
x,y,1/2-z
-x,y,z
x,-y,1/2+z
1/2+x,1/2+y,z
1/2-x,1/2-y,1/2+z
1/2+x,1/2-y,-z
1/2-x,1/2+y,1/2-z
1/2-x,1/2-y,-z
1/2+x,1/2+y,1/2-z
1/2-x,1/2+y,z
1/2+x,1/2-y,1/2+z
loop_
_atom_site_type_symbol
_atom_site_label
_atom_site_fract_x
_atom_site_fract_y
_atom_site_fract_z
Si Si1 0.222927 0.978768 0.198817
Si Si2 0.791696 0.918313 0.625101
Si Si3 0.277431 0.337447 0.164097
Si Si4 0.721287 0.337784 0.540468
Si Si5 0.286236 0.685447 0.938622
Si Si6 0.720920 0.805954 0.802014
O O1 0.281243 0.001556 0.250000
O O2 0.276162 0.903300 0.190579
O O3 0.000000 0.981819 0.198422
O O4 0.289189 0.023777 0.156437
O O5 0.711942 0.892450 0.576653
O O6 0.791820 0.855338 0.659194
O O7 0.000000 0.938147 0.614788
O O8 0.500000 0.336665 0.163810
O O9 0.213177 0.338212 0.110666
O O10 0.222396 0.268814 0.187244
O O11 0.500000 0.339971 0.540173
O O12 0.787396 0.342108 0.487354
O O13 0.769998 0.264699 0.558413
O O14 0.500000 0.668950 0.938342
O O15 0.776928 0.824911 0.750000
O O16 0.500000 0.808287 0.804185
#
# Coordination Sequence:
#
# PCOD9469818 Si02
#       6
#    16  16  16  16  16  16
#     4   9  17  29  45  65  92 126 158 188 228 279
#     4  10  19  31  47  69  96 124 154 187 230 281
#     4   9  16  28  46  68  91 118 156 195 229 267
#     4   9  17  28  44  69  97 121 148 186 232 280
#     4   9  16  28  47  69  92 119 152 190 233 274
#     4  10  19  30  47  70  92 116 154 201 236 266
#
# _framework density 22.385119
#
# number of rings (size 3 to 8) (size 9 to 14) (size 15 to 20)
#    0.000    2.667    1.667    1.000    0.000    3.000 
#    0.000    0.833    0.000    7.000    0.000    0.000 
#    0.000    6.667    0.000    0.000    0.000    0.000 
#
# Total GULP energy -268039.479159 kJ/mol
# GULP energy per Si atom -5584.155816 kJ/mol
# Density = 2.233417 g / cm^3
# Si number density = 22.385119 Si / 1000 Ang^3
#
#
#
# Elastic Constant Matrix: (Units=GPa)
#
#
# Indices 1 2 3 4 5 6 
#
# 1 86.5278 -10.2010 -0.7166 0.0000 0.0000 0.0000
# 2 -10.2010 48.8521 -12.8133 0.0000 0.0000 0.0000
# 3 -0.7166 -12.8133 92.8974 0.0000 0.0000 0.0000
# 4 0.0000 0.0000 0.0000 30.6134 0.0000 0.0000
# 5 0.0000 0.0000 0.0000 0.0000 1.6046 0.0000
# 6 0.0000 0.0000 0.0000 0.0000 0.0000 20.5930
#
#
#
# Elastic Compliance Matrix: (Units=1/GPa)
#
#
# Indices 1 2 3 4 5 6 
#
# 1 0.011867 0.002596 0.000450 0.000000 0.000000 0.000000
# 2 0.002596 0.021806 0.003028 0.000000 0.000000 0.000000
# 3 0.000450 0.003028 0.011186 0.000000 0.000000 0.000000
# 4 0.000000 0.000000 0.000000 0.032665 0.000000 0.000000
# 5 0.000000 0.000000 0.000000 0.000000 0.623227 0.000000
# 6 0.000000 0.000000 0.000000 0.000000 0.000000 0.048560
#
#
# Mechanical properties :
#
#
# Convention : Reuss Voigt Hill
#
# Bulk Modulus (GPa) = 17.54235 20.09061 18.81648
# Shear Modulus (GPa) = 6.61230 27.36274 16.98752
#
# Velocity S-wave (km/s) = 1.72055 3.50002 2.75776
# Velocity P-wave (km/s) = 3.43521 5.03270 4.30864
#
# Compressibility (1/GPa) = 0.05700489
#
# Stress axis : x y z
#
# Youngs Moduli (GPa) = 84.26921 45.85866 89.40030
#
# Poissons Ratio (x) = -0.11904 -0.04019
# Poissons Ratio (y) = -0.21875 -0.27068
# Poissons Ratio (z) = -0.03789 -0.13885
#
# Static dielectric constant tensor:
#      x y z
#    x 1.837770 0.000000 0.000000 
#    y 0.000000 1.769540 0.000000 
#    z 0.000000 0.000000 1.831600 
# 
# From -- ./inp_files/66873.got.cif
#   From: 2010.05.17/outbox.cif.g08.bks.cpg/sg63_34_cif.got.tgz:66873.got - 2010.06.03 15:47:04.
