data_PCOD9469874
_publ_section_title
;
Structure prediction by ZEFSAII (Michael W. Deem and Ramdas Pophale) SiO2 
 PCOD9469874
Probable space group: C M C M
;
_chemical_formula_sum "Si O2"
_cell_formula_units_Z 104
_cell_length_a 23.802229
_cell_length_b 9.331307
_cell_length_c 26.440012
_cell_angle_alpha 90.000000
_cell_angle_beta 90.000000
_cell_angle_gamma 90.000000
_cell_volume 5872.482822
_symmetry_space_group_name_H-M "C M C M"
_symmetry_group_IT_number 63
_symmetry_cell_setting 'orthorhombic'
loop_
_space_group_symop_operation_xyz
x,y,z
-x,-y,1/2+z
x,-y,-z
-x,y,1/2-z
-x,-y,-z
x,y,1/2-z
-x,y,z
x,-y,1/2+z
1/2+x,1/2+y,z
1/2-x,1/2-y,1/2+z
1/2+x,1/2-y,-z
1/2-x,1/2+y,1/2-z
1/2-x,1/2-y,-z
1/2+x,1/2+y,1/2-z
1/2-x,1/2+y,z
1/2+x,1/2-y,1/2+z
loop_
_atom_site_type_symbol
_atom_site_label
_atom_site_fract_x
_atom_site_fract_y
_atom_site_fract_z
Si Si1 0.699581 0.403526 0.250000
Si Si2 0.274155 0.099369 0.597482
Si Si3 0.776225 0.000000 0.000000
Si Si4 0.348871 0.409471 0.355823
Si Si5 0.633877 0.914818 0.859711
Si Si6 0.932997 0.423071 0.053132
Si Si7 0.820163 0.560937 0.250000
Si Si8 0.856212 0.835124 0.576745
O O1 0.664194 0.451190 0.201397
O O2 0.763086 0.465720 0.250000
O O3 0.699407 0.228781 0.250000
O O4 0.263016 0.087956 0.537893
O O5 0.213930 0.111445 0.622214
O O6 0.314943 0.231394 0.608877
O O7 0.305943 0.956439 0.615415
O O8 0.816997 0.901806 0.966592
O O9 0.377305 0.254647 0.359567
O O10 0.376657 0.534382 0.388552
O O11 0.643243 0.961466 0.801151
O O12 0.590468 0.993202 0.897333
O O13 0.904039 0.267446 0.055181
O O14 0.000000 0.414532 0.055114
O O15 0.917052 0.500000 0.000000
#
# Coordination Sequence:
#
# PCOD9469874 Si02
#       8
#     8  16   8  16  16  16   8  16
#     4  10  20  30  52  77 128 156 186 211 254 311
#     4  10  19  30  48  77 113 155 183 211 253 322
#     4  10  20  30  49  76 115 146 182 208 264 320
#     4  10  19  33  50  83 116 150 182 217 262 319
#     4  10  21  35  57  77 114 146 189 222 267 322
#     4  10  24  44  62  78 101 137 185 240 295 336
#     4  10  20  34  51  85 110 160 185 219 254 323
#     4  10  22  33  53  77 110 147 182 228 265 330
#
# _framework density 17.709714999999999
#
# number of rings (size 3 to 8) (size 9 to 14) (size 15 to 20)
#    0.000    2.000    1.538    2.308   10.769    0.000 
#    0.000    1.538    0.000    0.000    0.000    1.077 
#    0.000    0.000    0.000    0.000    0.000    0.000 
#
# Total GULP energy -289871.955566 kJ/mol
# GULP energy per Si atom -5574.460684 kJ/mol
# Density = 1.766941 g / cm^3
# Si number density = 17.709715 Si / 1000 Ang^3
#
#
#
# Elastic Constant Matrix: (Units=GPa)
#
#
# Indices 1 2 3 4 5 6 
#
# 1 42.2350 20.1335 12.5687 0.0000 0.0000 0.0000
# 2 20.1335 90.3156 40.7835 0.0000 0.0000 0.0000
# 3 12.5687 40.7835 110.1045 0.0000 0.0000 0.0000
# 4 0.0000 0.0000 0.0000 24.8082 0.0000 0.0000
# 5 0.0000 0.0000 0.0000 0.0000 6.1326 0.0000
# 6 0.0000 0.0000 0.0000 0.0000 0.0000 15.3840
#
#
#
# Elastic Compliance Matrix: (Units=1/GPa)
#
#
# Indices 1 2 3 4 5 6 
#
# 1 0.026585 -0.005471 -0.001008 0.000000 0.000000 0.000000
# 2 -0.005471 0.014422 -0.004718 0.000000 0.000000 0.000000
# 3 -0.001008 -0.004718 0.010945 0.000000 0.000000 0.000000
# 4 0.000000 0.000000 0.000000 0.040309 0.000000 0.000000
# 5 0.000000 0.000000 0.000000 0.000000 0.163062 0.000000
# 6 0.000000 0.000000 0.000000 0.000000 0.000000 0.065003
#
#
# Mechanical properties :
#
#
# Convention : Reuss Voigt Hill
#
# Bulk Modulus (GPa) = 33.83140 43.29181 38.56161
# Shear Modulus (GPa) = 14.18147 20.54291 17.36219
#
# Velocity S-wave (km/s) = 2.83286 3.40954 3.13449
# Velocity P-wave (km/s) = 5.46305 6.32442 5.90945
#
# Compressibility (1/GPa) = 0.02955834
#
# Stress axis : x y z
#
# Youngs Moduli (GPa) = 37.61490 69.33741 91.36771
#
# Poissons Ratio (x) = 0.37936 0.09212
# Poissons Ratio (y) = 0.20580 0.43103
# Poissons Ratio (z) = 0.03792 0.32710
#
# Static dielectric constant tensor:
#      x y z
#    x 1.564500 0.000000 0.000000 
#    y 0.000000 1.661050 0.000000 
#    z 0.000000 0.000000 1.706800 
# 
# From -- ./inp_files/70724.got.cif
#   From: 2010.05.17/outbox.cif.g08.bks.cpg/sg63_36_cif.got.tgz:70724.got - 2010.06.03 15:47:04.
