data_PCOD9469563
_publ_section_title
;
Structure prediction by ZEFSAII (Michael W. Deem and Ramdas Pophale) SiO2 
 PCOD9469563
Probable space group: C M C M
;
_chemical_formula_sum "Si O2"
_cell_formula_units_Z 88
_cell_length_a 18.635076
_cell_length_b 9.585181
_cell_length_c 22.184119
_cell_angle_alpha 90.000000
_cell_angle_beta 90.000000
_cell_angle_gamma 90.000000
_cell_volume 3962.540123
_symmetry_space_group_name_H-M "C M C M"
_symmetry_group_IT_number 63
_symmetry_cell_setting 'orthorhombic'
loop_
_space_group_symop_operation_xyz
x,y,z
-x,-y,1/2+z
x,-y,-z
-x,y,1/2-z
-x,-y,-z
x,y,1/2-z
-x,y,z
x,-y,1/2+z
1/2+x,1/2+y,z
1/2-x,1/2-y,1/2+z
1/2+x,1/2-y,-z
1/2-x,1/2+y,1/2-z
1/2-x,1/2-y,-z
1/2+x,1/2+y,1/2-z
1/2-x,1/2+y,z
1/2+x,1/2-y,1/2+z
loop_
_atom_site_type_symbol
_atom_site_label
_atom_site_fract_x
_atom_site_fract_y
_atom_site_fract_z
Si Si1 0.888716 0.899506 0.416210
Si Si2 0.000000 0.430506 0.818131
Si Si3 0.336612 0.937879 0.677559
Si Si4 0.000000 0.031917 0.678978
Si Si5 0.613605 0.289451 0.960474
Si Si6 0.000000 0.716392 0.869314
Si Si7 0.761001 0.697556 0.882116
O O1 0.902724 0.785775 0.468557
O O2 0.804680 0.894414 0.405255
O O3 0.932639 0.897487 0.354471
O O4 0.905478 0.052222 0.442182
O O5 0.918932 0.403085 0.843364
O O6 0.000000 0.598625 0.819649
O O7 0.000000 0.374741 0.750000
O O8 0.337018 0.933116 0.750000
O O9 0.310076 0.092237 0.657122
O O10 0.279069 0.824239 0.652783
O O11 0.000000 0.048415 0.750000
O O12 0.000000 0.867483 0.662292
O O13 0.565346 0.200276 0.915805
O O14 0.693557 0.255852 0.938453
#
# Coordination Sequence:
#
# PCOD9469563 Si02
#       7
#    16   8  16   8  16   8  16
#     4  10  22  39  62  94 130 171 212 270 334 392
#     4  10  21  40  62  88 128 175 217 270 333 394
#     4  11  25  42  65  95 135 178 224 276 338 401
#     4  10  22  38  60  95 132 171 218 272 334 405
#     4  10  20  38  64  94 128 169 220 271 326 395
#     4  10  18  36  64  91 124 167 221 270 318 389
#     4  12  22  42  64  97 128 173 223 275 331 400
#
# _framework density 22.207977
#
# number of rings (size 3 to 8) (size 9 to 14) (size 15 to 20)
#    0.000    1.455    3.636    1.909    0.000    4.364 
#    0.000    0.909    0.000    1.091    0.000    0.000 
#    0.000    0.000    0.000    0.000    0.000    0.000 
#
# Total GULP energy -245295.495144 kJ/mol
# GULP energy per Si atom -5574.897617 kJ/mol
# Density = 2.215743 g / cm^3
# Si number density = 22.207977 Si / 1000 Ang^3
#
#
#
# Elastic Constant Matrix: (Units=GPa)
#
#
# Indices 1 2 3 4 5 6 
#
# 1 134.1017 17.9309 44.5527 0.0000 0.0000 0.0000
# 2 17.9309 88.0142 13.4119 0.0000 0.0000 0.0000
# 3 44.5527 13.4119 138.9849 0.0000 0.0000 0.0000
# 4 0.0000 0.0000 0.0000 19.4088 0.0000 0.0000
# 5 0.0000 0.0000 0.0000 0.0000 12.0184 0.0000
# 6 0.0000 0.0000 0.0000 0.0000 0.0000 9.1986
#
#
#
# Elastic Compliance Matrix: (Units=1/GPa)
#
#
# Indices 1 2 3 4 5 6 
#
# 1 0.008498 -0.001336 -0.002595 0.000000 0.000000 0.000000
# 2 -0.001336 0.011741 -0.000705 0.000000 0.000000 0.000000
# 3 -0.002595 -0.000705 0.008095 0.000000 0.000000 0.000000
# 4 0.000000 0.000000 0.000000 0.051523 0.000000 0.000000
# 5 0.000000 0.000000 0.000000 0.000000 0.083206 0.000000
# 6 0.000000 0.000000 0.000000 0.000000 0.000000 0.108713
#
#
# Mechanical properties :
#
#
# Convention : Reuss Voigt Hill
#
# Bulk Modulus (GPa) = 52.45880 56.98800 54.72340
# Shear Modulus (GPa) = 17.39728 27.13883 22.26806
#
# Velocity S-wave (km/s) = 2.80193 3.49955 3.16999
# Velocity P-wave (km/s) = 5.84300 6.48428 6.17197
#
# Compressibility (1/GPa) = 0.01906258
#
# Stress axis : x y z
#
# Youngs Moduli (GPa) = 117.67725 85.16912 123.53404
#
# Poissons Ratio (x) = 0.11377 0.32059
# Poissons Ratio (y) = 0.15719 0.08707
# Poissons Ratio (z) = 0.30539 0.06003
#
# Static dielectric constant tensor:
#      x y z
#    x 1.818310 0.000000 0.000000 
#    y 0.000000 1.829210 0.000000 
#    z 0.000000 0.000000 1.806710 
# 
# From -- ./inp_files/55435.got.cif
#   From: 2010.05.17/outbox.cif.g08.bks.cpg/sg63_28_cif.got.tgz:55435.got - 2010.06.03 15:47:04.
