data_PCOD9469228
_publ_section_title
;
Structure prediction by ZEFSAII (Michael W. Deem and Ramdas Pophale) SiO2 
 PCOD9469228
Probable space group: C M C M
;
_chemical_formula_sum "Si O2"
_cell_formula_units_Z 96
_cell_length_a 24.182484
_cell_length_b 26.551599
_cell_length_c 7.574157
_cell_angle_alpha 90.000000
_cell_angle_beta 90.000000
_cell_angle_gamma 90.000000
_cell_volume 4863.242130
_symmetry_space_group_name_H-M "C M C M"
_symmetry_group_IT_number 63
_symmetry_cell_setting 'orthorhombic'
loop_
_space_group_symop_operation_xyz
x,y,z
-x,-y,1/2+z
x,-y,-z
-x,y,1/2-z
-x,-y,-z
x,y,1/2-z
-x,y,z
x,-y,1/2+z
1/2+x,1/2+y,z
1/2-x,1/2-y,1/2+z
1/2+x,1/2-y,-z
1/2-x,1/2+y,1/2-z
1/2-x,1/2-y,-z
1/2+x,1/2+y,1/2-z
1/2-x,1/2+y,z
1/2+x,1/2-y,1/2+z
loop_
_atom_site_type_symbol
_atom_site_label
_atom_site_fract_x
_atom_site_fract_y
_atom_site_fract_z
Si Si1 0.314270 0.058173 0.037563
Si Si2 0.936125 0.248265 0.533604
Si Si3 0.188048 0.941982 0.541365
Si Si4 0.624680 0.151928 0.050746
Si Si5 0.141210 0.843198 0.040952
Si Si6 0.741537 0.807975 0.460737
O O1 0.312979 0.064654 0.250000
O O2 0.251125 0.067830 0.969090
O O3 0.360806 0.097248 0.969245
O O4 0.326736 0.000000 0.000000
O O5 0.933257 0.249265 0.750000
O O6 0.910913 0.301984 0.471943
O O7 0.901663 0.198794 0.473332
O O8 0.000000 0.243824 0.483746
O O9 0.192167 0.937257 0.750000
O O10 0.140067 0.903356 0.482433
O O11 0.175455 0.000000 0.500000
O O12 0.603072 0.143905 0.250000
O O13 0.686565 0.174149 0.054416
O O14 0.143029 0.834001 0.250000
O O15 0.202397 0.832414 0.969644
O O16 0.735413 0.816326 0.250000
O O17 0.750000 0.750000 0.500000
#
# Coordination Sequence:
#
# PCOD9469228 Si02
#       6
#    16  16  16  16  16  16
#     4   9  18  29  45  69 101 133 163 197 237 293
#     4   9  18  33  53  74  97 129 170 214 254 294
#     4  10  19  31  48  72 104 136 164 197 242 297
#     4  10  18  32  50  73 101 131 168 207 246 298
#     4  10  19  31  49  73 101 131 165 204 247 299
#     4  11  20  29  45  72 103 133 162 199 248 303
#
# _framework density 19.739917999999999
#
# number of rings (size 3 to 8) (size 9 to 14) (size 15 to 20)
#    0.000    2.167    3.333    1.000    0.000    2.000 
#    0.000    0.000    0.000    3.000    0.000    0.000 
#    0.000    0.000    0.000    0.000    0.000    0.000 
#
# Total GULP energy -267327.883317 kJ/mol
# GULP energy per Si atom -5569.330902 kJ/mol
# Density = 1.969499 g / cm^3
# Si number density = 19.739918 Si / 1000 Ang^3
#
#
#
# Elastic Constant Matrix: (Units=GPa)
#
#
# Indices 1 2 3 4 5 6 
#
# 1 86.7407 58.6860 1.6059 0.0000 0.0000 0.0000
# 2 58.6860 163.7323 -7.6030 0.0000 0.0000 0.0000
# 3 1.6059 -7.6030 57.0411 0.0000 0.0000 0.0000
# 4 0.0000 0.0000 0.0000 15.9931 0.0000 0.0000
# 5 0.0000 0.0000 0.0000 0.0000 6.0106 0.0000
# 6 0.0000 0.0000 0.0000 0.0000 0.0000 12.5700
#
#
#
# Elastic Compliance Matrix: (Units=1/GPa)
#
#
# Indices 1 2 3 4 5 6 
#
# 1 0.015296 -0.005537 -0.001169 0.000000 0.000000 0.000000
# 2 -0.005537 0.008150 0.001242 0.000000 0.000000 0.000000
# 3 -0.001169 0.001242 0.017730 0.000000 0.000000 0.000000
# 4 0.000000 0.000000 0.000000 0.062527 0.000000 0.000000
# 5 0.000000 0.000000 0.000000 0.000000 0.166373 0.000000
# 6 0.000000 0.000000 0.000000 0.000000 0.000000 0.079554
#
#
# Mechanical properties :
#
#
# Convention : Reuss Voigt Hill
#
# Bulk Modulus (GPa) = 33.05888 45.87687 39.46787
# Shear Modulus (GPa) = 13.49018 23.90309 18.69663
#
# Velocity S-wave (km/s) = 2.61702 3.48358 3.08092
# Velocity P-wave (km/s) = 5.09071 6.28264 5.71781
#
# Compressibility (1/GPa) = 0.03024906
#
# Stress axis : x y z
#
# Youngs Moduli (GPa) = 65.37521 122.70275 56.40253
#
# Poissons Ratio (x) = 0.67939 0.06592
# Poissons Ratio (y) = 0.36197 -0.07006
# Poissons Ratio (z) = 0.07640 -0.15242
#
# Static dielectric constant tensor:
#      x y z
#    x 1.684500 0.000000 0.000000 
#    y 0.000000 1.881450 0.000000 
#    z 0.000000 0.000000 1.742840 
# 
# From -- ./inp_files/8581.got.cif
#   From: 2010.05.17/outbox.cif.g08.bks.cpg/sg63_5_cif.got.tgz:8581.got - 2010.06.03 15:47:04.
