data_PCOD9469673
_publ_section_title
;
Structure prediction by ZEFSAII (Michael W. Deem and Ramdas Pophale) SiO2 
 PCOD9469673
Probable space group: C M C M
;
_chemical_formula_sum "Si O2"
_cell_formula_units_Z 96
_cell_length_a 7.448588
_cell_length_b 30.924688
_cell_length_c 21.662239
_cell_angle_alpha 90.000000
_cell_angle_beta 90.000000
_cell_angle_gamma 90.000000
_cell_volume 4989.794073
_symmetry_space_group_name_H-M "C M C M"
_symmetry_group_IT_number 63
_symmetry_cell_setting 'orthorhombic'
loop_
_space_group_symop_operation_xyz
x,y,z
-x,-y,1/2+z
x,-y,-z
-x,y,1/2-z
-x,-y,-z
x,y,1/2-z
-x,y,z
x,-y,1/2+z
1/2+x,1/2+y,z
1/2-x,1/2-y,1/2+z
1/2+x,1/2-y,-z
1/2-x,1/2+y,1/2-z
1/2-x,1/2-y,-z
1/2+x,1/2+y,1/2-z
1/2-x,1/2+y,z
1/2+x,1/2-y,1/2+z
loop_
_atom_site_type_symbol
_atom_site_label
_atom_site_fract_x
_atom_site_fract_y
_atom_site_fract_z
Si Si1 0.280054 0.943007 0.682827
Si Si2 0.784401 0.866469 0.979112
Si Si3 0.215005 0.785733 0.446778
Si Si4 0.207426 0.653234 0.340304
Si Si5 0.788249 0.464842 0.952639
Si Si6 0.219956 0.748579 0.316901
O O1 0.229116 0.961410 0.750000
O O2 0.500000 0.942571 0.680598
O O3 0.217925 0.892912 0.680441
O O4 0.218198 0.963880 0.618144
O O5 0.716052 0.847878 0.914214
O O6 0.729983 0.916580 0.980415
O O7 0.000000 0.865624 0.977600
O O8 0.720907 0.832863 0.030886
O O9 0.250000 0.750000 0.500000
O O10 0.282576 0.771397 0.379577
O O11 0.000000 0.788389 0.441902
O O12 0.283221 0.698742 0.319114
O O13 0.000000 0.652944 0.320790
O O14 0.000000 0.473987 0.946600
O O15 0.711733 0.500000 0.000000
O O16 0.269816 0.767369 0.250000
O O17 0.000000 0.747861 0.319312
#
# Coordination Sequence:
#
# PCOD9469673 Si02
#       6
#    16  16  16  16  16  16
#     4   8  13  22  40  66  90 109 135 177 225 268
#     4  10  19  29  44  68  95 122 151 185 230 281
#     4  10  19  30  46  68  93 123 160 194 226 271
#     4   9  15  25  43  65  89 118 151 186 223 267
#     4   9  18  32  50  70  89 113 151 193 230 272
#     4   9  16  26  43  66  90 120 162 204 231 258
#
# _framework density 19.239270000000001
#
# number of rings (size 3 to 8) (size 9 to 14) (size 15 to 20)
#    0.000    2.833    1.667    2.000    0.000    3.000 
#    0.000    0.000    0.000   15.000    0.000    0.000 
#    0.000    0.000    0.000    0.000    0.000    0.000 
#
# Total GULP energy -267481.795186 kJ/mol
# GULP energy per Si atom -5572.537400 kJ/mol
# Density = 1.919548 g / cm^3
# Si number density = 19.239270 Si / 1000 Ang^3
#
#
#
# Elastic Constant Matrix: (Units=GPa)
#
#
# Indices 1 2 3 4 5 6 
#
# 1 56.7234 -8.4191 3.7343 0.0000 0.0000 0.0000
# 2 -8.4191 78.6364 89.7925 0.0000 0.0000 0.0000
# 3 3.7343 89.7925 208.0712 0.0000 0.0000 0.0000
# 4 0.0000 0.0000 0.0000 42.1642 0.0000 0.0000
# 5 0.0000 0.0000 0.0000 0.0000 2.5708 0.0000
# 6 0.0000 0.0000 0.0000 0.0000 0.0000 7.9500
#
#
#
# Elastic Compliance Matrix: (Units=1/GPa)
#
#
# Indices 1 2 3 4 5 6 
#
# 1 0.018473 0.004645 -0.002336 0.000000 0.000000 0.000000
# 2 0.004645 0.026239 -0.011407 0.000000 0.000000 0.000000
# 3 -0.002336 -0.011407 0.009771 0.000000 0.000000 0.000000
# 4 0.000000 0.000000 0.000000 0.023717 0.000000 0.000000
# 5 0.000000 0.000000 0.000000 0.000000 0.388987 0.000000
# 6 0.000000 0.000000 0.000000 0.000000 0.000000 0.125786
#
#
# Mechanical properties :
#
#
# Convention : Reuss Voigt Hill
#
# Bulk Modulus (GPa) = 27.55790 57.07181 42.31486
# Shear Modulus (GPa) = 8.02228 27.75856 17.89042
#
# Velocity S-wave (km/s) = 2.04421 3.80255 3.05272
# Velocity P-wave (km/s) = 4.46392 7.00056 5.87088
#
# Compressibility (1/GPa) = 0.03628723
#
# Stress axis : x y z
#
# Youngs Moduli (GPa) = 54.13390 38.11091 102.34832
#
# Poissons Ratio (x) = -0.17704 0.23911
# Poissons Ratio (y) = -0.25148 1.16747
# Poissons Ratio (z) = 0.12647 0.43472
#
# Static dielectric constant tensor:
#      x y z
#    x 1.718050 0.000000 0.000000 
#    y 0.000000 1.651570 0.000000 
#    z 0.000000 0.000000 1.714540 
# 
# From -- ./inp_files/60246.got.cif
#   From: 2010.05.17/outbox.cif.g08.bks.cpg/sg63_31_cif.got.tgz:60246.got - 2010.06.03 15:47:04.
