data_PCOD9469157
_publ_section_title
;
Structure prediction by ZEFSAII (Michael W. Deem and Ramdas Pophale) SiO2 
 PCOD9469157
Probable space group: C M C M
;
_chemical_formula_sum "Si O2"
_cell_formula_units_Z 96
_cell_length_a 7.376899
_cell_length_b 30.651064
_cell_length_c 18.813662
_cell_angle_alpha 90.000000
_cell_angle_beta 90.000000
_cell_angle_gamma 90.000000
_cell_volume 4253.953415
_symmetry_space_group_name_H-M "C M C M"
_symmetry_group_IT_number 63
_symmetry_cell_setting 'orthorhombic'
loop_
_space_group_symop_operation_xyz
x,y,z
-x,-y,1/2+z
x,-y,-z
-x,y,1/2-z
-x,-y,-z
x,y,1/2-z
-x,y,z
x,-y,1/2+z
1/2+x,1/2+y,z
1/2-x,1/2-y,1/2+z
1/2+x,1/2-y,-z
1/2-x,1/2+y,1/2-z
1/2-x,1/2-y,-z
1/2+x,1/2+y,1/2-z
1/2-x,1/2+y,z
1/2+x,1/2-y,1/2+z
loop_
_atom_site_type_symbol
_atom_site_label
_atom_site_fract_x
_atom_site_fract_y
_atom_site_fract_z
Si Si1 0.288799 0.383721 0.173325
Si Si2 0.708096 0.157049 0.403416
Si Si3 0.781816 0.468579 0.401365
Si Si4 0.778536 0.741136 0.170310
Si Si5 0.221364 0.438039 0.558436
Si Si6 0.280433 0.684577 0.939734
O O1 0.208662 0.372839 0.250000
O O2 0.500000 0.371265 0.176267
O O3 0.277160 0.434972 0.158325
O O4 0.216586 0.357151 0.106254
O O5 0.500000 0.150165 0.381336
O O6 0.785200 0.192494 0.349228
O O7 0.787395 0.108740 0.414411
O O8 0.709933 0.180156 0.480719
O O9 0.724298 0.518934 0.397618
O O10 0.722156 0.448596 0.477432
O O11 0.000000 0.468686 0.402006
O O12 0.724030 0.754292 0.250000
O O13 0.724013 0.774205 0.107851
O O14 0.000000 0.741269 0.169414
O O15 0.000000 0.436516 0.557367
O O16 0.500000 0.684842 0.945806
#
# Coordination Sequence:
#
# PCOD9469157 Si02
#       6
#    16  16  16  16  16  16
#     4  10  20  32  46  68 100 133 164 201 243 287
#     4  10  18  31  53  77  98 123 161 207 243 281
#     4   9  16  30  49  68  95 128 159 193 240 292
#     4   9  18  32  50  72  98 129 162 197 242 293
#     4   8  15  28  48  72  97 122 151 196 246 283
#     4  10  19  32  50  72  98 129 163 199 242 292
#
# _framework density 22.567242
#
# number of rings (size 3 to 8) (size 9 to 14) (size 15 to 20)
#    0.000    2.667    1.667    2.000    0.000    2.333 
#    0.000    3.333    0.000    6.000    0.000    0.000 
#    0.000    0.000    0.000    0.000    0.000    0.000 
#
# Total GULP energy -267944.459776 kJ/mol
# GULP energy per Si atom -5582.176245 kJ/mol
# Density = 2.251588 g / cm^3
# Si number density = 22.567242 Si / 1000 Ang^3
#
#
#
# Elastic Constant Matrix: (Units=GPa)
#
#
# Indices 1 2 3 4 5 6 
#
# 1 79.2648 -7.3145 -11.5958 0.0000 0.0000 0.0000
# 2 -7.3145 130.4971 5.0129 0.0000 0.0000 0.0000
# 3 -11.5958 5.0129 33.4127 0.0000 0.0000 0.0000
# 4 0.0000 0.0000 0.0000 -18.3660 0.0000 0.0000
# 5 0.0000 0.0000 0.0000 0.0000 9.9495 0.0000
# 6 0.0000 0.0000 0.0000 0.0000 0.0000 7.7778
#
#
#
# Elastic Compliance Matrix: (Units=1/GPa)
#
#
# Indices 1 2 3 4 5 6 
#
# 1 0.013333 0.000573 0.004541 0.000000 0.000000 0.000000
# 2 0.000573 0.007732 -0.000961 0.000000 0.000000 0.000000
# 3 0.004541 -0.000961 0.031649 0.000000 0.000000 0.000000
# 4 0.000000 0.000000 0.000000 -0.054448 0.000000 0.000000
# 5 0.000000 0.000000 0.000000 0.000000 0.100508 0.000000
# 6 0.000000 0.000000 0.000000 0.000000 0.000000 0.128571
#
#
# Mechanical properties :
#
#
# Convention : Reuss Voigt Hill
#
# Bulk Modulus (GPa) = 16.38805 23.93111 20.15958
# Shear Modulus (GPa) = 20.88745 17.01040 18.94893
#
# Velocity S-wave (km/s) = 3.04561 2.74846 2.90084
# Velocity P-wave (km/s) = 4.43230 4.54966 4.49136
#
# Compressibility (1/GPa) = 0.06102009
#
# Stress axis : x y z
#
# Youngs Moduli (GPa) = 75.00100 129.33200 31.59660
#
# Poissons Ratio (x) = -0.07409 -0.14349
# Poissons Ratio (y) = -0.04297 0.03037
# Poissons Ratio (z) = -0.34060 0.12432
#
# Static dielectric constant tensor:
#      x y z
#    x 1.871750 0.000000 0.000000 
#    y 0.000000 1.862450 0.000000 
#    z 0.000000 0.000000 1.792110 
# 
# From -- ./inp_files/42691.got.cif
#   From: 2010.05.17/outbox.cif.g08.bks.cpg/sg63_22_cif.got.tgz:42691.got - 2010.06.03 15:47:04.
