data_PCOD9469843
_publ_section_title
;
Structure prediction by ZEFSAII (Michael W. Deem and Ramdas Pophale) SiO2 
 PCOD9469843
Probable space group: C M C M
;
_chemical_formula_sum "Si O2"
_cell_formula_units_Z 40
_cell_length_a 18.616118
_cell_length_b 16.100358
_cell_length_c 5.490817
_cell_angle_alpha 90.000000
_cell_angle_beta 90.000000
_cell_angle_gamma 90.000000
_cell_volume 1645.741519
_symmetry_space_group_name_H-M "C M C M"
_symmetry_group_IT_number 63
_symmetry_cell_setting 'orthorhombic'
loop_
_space_group_symop_operation_xyz
x,y,z
-x,-y,1/2+z
x,-y,-z
-x,y,1/2-z
-x,-y,-z
x,y,1/2-z
-x,y,z
x,-y,1/2+z
1/2+x,1/2+y,z
1/2-x,1/2-y,1/2+z
1/2+x,1/2-y,-z
1/2-x,1/2+y,1/2-z
1/2-x,1/2-y,-z
1/2+x,1/2+y,1/2-z
1/2-x,1/2+y,z
1/2+x,1/2-y,1/2+z
loop_
_atom_site_type_symbol
_atom_site_label
_atom_site_fract_x
_atom_site_fract_y
_atom_site_fract_z
Si Si1 0.659650 0.283938 0.750000
Si Si2 0.678286 0.269444 0.250000
Si Si3 0.420677 0.551004 0.250000
Si Si4 0.078442 0.554166 0.750000
Si Si5 0.258145 0.945612 0.250000
O O1 0.635425 0.249385 0.492263
O O2 0.746462 0.279471 0.750000
O O3 0.636987 0.378404 0.750000
O O4 0.704308 0.366337 0.250000
O O5 0.415527 0.500000 0.500000
O O6 0.500000 0.590255 0.250000
O O7 0.077962 0.500000 0.500000
O O8 0.160003 0.589914 0.750000
O O9 0.000000 0.599345 0.750000
O O10 0.250341 0.000000 0.500000
#
# Coordination Sequence:
#
# PCOD9469843 Si02
#       5
#     8   8   8   8   8
#     4  10  21  37  54  74 107 142 172 214 269 329
#     4  10  21  35  52  76 106 142 177 212 263 324
#     4  10  21  37  59  86 112 141 183 235 286 336
#     4   8  14  25  40  58  84 117 148 184 231 272
#     4  10  19  30  47  72  99 126 166 215 251 295
#
# _framework density 24.305153000000001
#
# number of rings (size 3 to 8) (size 9 to 14) (size 15 to 20)
#    0.000    2.400    0.000    2.400    0.000    4.800 
#    0.000    1.000    0.000    0.000    0.000   16.800 
#    0.000    0.000    0.000    0.000    0.000    0.800 
#
# Total GULP energy -111629.339978 kJ/mol
# GULP energy per Si atom -5581.466999 kJ/mol
# Density = 2.424983 g / cm^3
# Si number density = 24.305153 Si / 1000 Ang^3
#
#
#
# Elastic Constant Matrix: (Units=GPa)
#
#
# Indices 1 2 3 4 5 6 
#
# 1 74.8000 15.6924 11.6053 0.0000 0.0000 0.0000
# 2 15.6924 86.2893 50.5944 0.0000 0.0000 0.0000
# 3 11.6053 50.5944 280.6971 0.0000 0.0000 0.0000
# 4 0.0000 0.0000 0.0000 25.9825 0.0000 0.0000
# 5 0.0000 0.0000 0.0000 0.0000 31.2692 0.0000
# 6 0.0000 0.0000 0.0000 0.0000 0.0000 -1.5983
#
#
#
# Elastic Compliance Matrix: (Units=1/GPa)
#
#
# Indices 1 2 3 4 5 6 
#
# 1 0.013904 -0.002450 -0.000133 0.000000 0.000000 0.000000
# 2 -0.002450 0.013390 -0.002312 0.000000 0.000000 0.000000
# 3 -0.000133 -0.002312 0.003985 0.000000 0.000000 0.000000
# 4 0.000000 0.000000 0.000000 0.038487 0.000000 0.000000
# 5 0.000000 0.000000 0.000000 0.000000 0.031980 0.000000
# 6 0.000000 0.000000 0.000000 0.000000 0.000000 -0.625651
#
#
# Mechanical properties :
#
#
# Convention : Reuss Voigt Hill
#
# Bulk Modulus (GPa) = 46.53932 66.39673 56.46802
# Shear Modulus (GPa) = -9.86289 35.39029 12.76370
#
# Velocity S-wave (km/s) = -2.01662 3.82000 2.29409
# Velocity P-wave (km/s) = 3.71041 6.84353 5.50459
#
# Compressibility (1/GPa) = 0.02148721
#
# Stress axis : x y z
#
# Youngs Moduli (GPa) = 71.92322 74.68093 250.95142
#
# Poissons Ratio (x) = 0.18300 0.03342
# Poissons Ratio (y) = 0.17624 0.58026
# Poissons Ratio (z) = 0.00958 0.17268
#
# Static dielectric constant tensor:
#      x y z
#    x 1.944220 0.000000 0.000000 
#    y 0.000000 1.922210 0.000000 
#    z 0.000000 0.000000 2.007260 
# 
# From -- ./inp_files/908.got.cif
#   From: 2010.05.17/outbox.cif.g08.bks.cpg/sg63_1_cif.got.tgz:908.got - 2010.06.03 15:47:04.
