data_PCOD9469002
_publ_section_title
;
Structure prediction by ZEFSAII (Michael W. Deem and Ramdas Pophale) SiO2 
 PCOD9469002
Probable space group: C M C M
;
_chemical_formula_sum "Si O2"
_cell_formula_units_Z 116
_cell_length_a 7.747373
_cell_length_b 25.916582
_cell_length_c 31.071421
_cell_angle_alpha 90.000000
_cell_angle_beta 90.000000
_cell_angle_gamma 90.000000
_cell_volume 6238.688553
_symmetry_space_group_name_H-M "C M C M"
_symmetry_group_IT_number 63
_symmetry_cell_setting 'orthorhombic'
loop_
_space_group_symop_operation_xyz
x,y,z
-x,-y,1/2+z
x,-y,-z
-x,y,1/2-z
-x,-y,-z
x,y,1/2-z
-x,y,z
x,-y,1/2+z
1/2+x,1/2+y,z
1/2-x,1/2-y,1/2+z
1/2+x,1/2-y,-z
1/2-x,1/2+y,1/2-z
1/2-x,1/2-y,-z
1/2+x,1/2+y,1/2-z
1/2-x,1/2+y,z
1/2+x,1/2-y,1/2+z
loop_
_atom_site_type_symbol
_atom_site_label
_atom_site_fract_x
_atom_site_fract_y
_atom_site_fract_z
Si Si1 0.292024 0.736728 0.049556
Si Si2 0.500000 0.487251 0.750000
Si Si3 0.691249 0.013253 0.685598
Si Si4 0.290329 0.482439 0.909924
Si Si5 0.796627 0.324196 0.385393
Si Si6 0.208344 0.913076 0.049243
Si Si7 0.788818 0.878491 0.955232
Si Si8 0.297707 0.371129 0.201716
O O1 0.500000 0.737456 0.052512
O O2 0.225283 0.778720 0.083854
O O3 0.231773 0.678432 0.058403
O O4 0.250000 0.750000 0.000000
O O5 0.347167 0.490289 0.713023
O O6 0.500000 0.996678 0.699161
O O7 0.718913 0.998147 0.636178
O O8 0.703075 0.075358 0.691152
O O9 0.500000 0.482561 0.907813
O O10 0.239707 0.527929 0.942905
O O11 0.234496 0.426233 0.925800
O O12 0.766150 0.377018 0.411610
O O13 0.726067 0.331425 0.337279
O O14 0.000000 0.316117 0.380847
O O15 0.000000 0.911813 0.048731
O O16 0.268831 0.889994 0.004042
O O17 0.000000 0.878263 0.955529
O O18 0.248101 0.353512 0.250000
O O19 0.500000 0.384991 0.203256
#
# Coordination Sequence:
#
# PCOD9469002 Si02
#       8
#    16   4  16  16  16  16  16  16
#     4  10  20  35  54  79 109 148 198 241 286 344
#     4  12  22  40  56  86 114 156 198 232 292 354
#     4  12  22  35  57  85 120 152 188 239 291 350
#     4  10  19  33  52  81 115 149 194 238 286 353
#     4  11  22  32  50  82 116 147 186 239 293 345
#     4  10  18  30  52  77 108 149 189 230 280 341
#     4   9  18  33  54  77 107 153 199 239 284 338
#     4  11  21  37  56  81 111 146 189 235 292 358
#
# _framework density 18.593651999999999
#
# number of rings (size 3 to 8) (size 9 to 14) (size 15 to 20)
#    0.000    1.517    4.828    1.448    0.000    3.034 
#    0.000    1.379    0.000    1.655    1.793    0.000 
#    0.000    0.000    0.000    0.000    0.000    0.138 
#
# Total GULP energy -323302.903429 kJ/mol
# GULP energy per Si atom -5574.187990 kJ/mol
# Density = 1.855133 g / cm^3
# Si number density = 18.593652 Si / 1000 Ang^3
#
#
#
# Elastic Constant Matrix: (Units=GPa)
#
#
# Indices 1 2 3 4 5 6 
#
# 1 69.2206 11.3660 14.0018 0.0000 0.0000 0.0000
# 2 11.3660 117.7915 56.1503 0.0000 0.0000 0.0000
# 3 14.0018 56.1503 133.0036 0.0000 0.0000 0.0000
# 4 0.0000 0.0000 0.0000 -31.3722 0.0000 0.0000
# 5 0.0000 0.0000 0.0000 0.0000 -7.7197 0.0000
# 6 0.0000 0.0000 0.0000 0.0000 0.0000 8.6922
#
#
#
# Elastic Compliance Matrix: (Units=1/GPa)
#
#
# Indices 1 2 3 4 5 6 
#
# 1 0.014830 -0.000860 -0.001198 0.000000 0.000000 0.000000
# 2 -0.000860 0.010678 -0.004418 0.000000 0.000000 0.000000
# 3 -0.001198 -0.004418 0.009510 0.000000 0.000000 0.000000
# 4 0.000000 0.000000 0.000000 -0.031875 0.000000 0.000000
# 5 0.000000 0.000000 0.000000 0.000000 -0.129539 0.000000
# 6 0.000000 0.000000 0.000000 0.000000 0.000000 0.115046
#
#
# Mechanical properties :
#
#
# Convention : Reuss Voigt Hill
#
# Bulk Modulus (GPa) = 45.31665 53.67244 49.49454
# Shear Modulus (GPa) = 558.26913 9.81990 284.04452
#
# Velocity S-wave (km/s) = 17.34644 2.30061 12.37319
# Velocity P-wave (km/s) = 20.63065 5.99881 15.19226
#
# Compressibility (1/GPa) = 0.02206695
#
# Stress axis : x y z
#
# Youngs Moduli (GPa) = 67.43033 93.64729 105.15557
#
# Poissons Ratio (x) = 0.08052 0.12600
# Poissons Ratio (y) = 0.05798 0.46453
# Poissons Ratio (z) = 0.08080 0.41369
#
# Static dielectric constant tensor:
#      x y z
#    x 1.678270 0.000000 0.000000 
#    y 0.000000 1.639630 0.000000 
#    z 0.000000 0.000000 1.601430 
# 
# From -- ./inp_files/72077.got.cif
#   From: 2010.05.17/outbox.cif.g08.bks.cpg/sg63_37_cif.got.tgz:72077.got - 2010.06.03 15:47:04.
