data_PCOD9469738
_publ_section_title
;
Structure prediction by ZEFSAII (Michael W. Deem and Ramdas Pophale) SiO2 
 PCOD9469738
Probable space group: C M C M
;
_chemical_formula_sum "Si O2"
_cell_formula_units_Z 96
_cell_length_a 25.100042
_cell_length_b 25.608917
_cell_length_c 9.164868
_cell_angle_alpha 90.000000
_cell_angle_beta 90.000000
_cell_angle_gamma 90.000000
_cell_volume 5891.038690
_symmetry_space_group_name_H-M "C M C M"
_symmetry_group_IT_number 63
_symmetry_cell_setting 'orthorhombic'
loop_
_space_group_symop_operation_xyz
x,y,z
-x,-y,1/2+z
x,-y,-z
-x,y,1/2-z
-x,-y,-z
x,y,1/2-z
-x,y,z
x,-y,1/2+z
1/2+x,1/2+y,z
1/2-x,1/2-y,1/2+z
1/2+x,1/2-y,-z
1/2-x,1/2+y,1/2-z
1/2-x,1/2-y,-z
1/2+x,1/2+y,1/2-z
1/2-x,1/2+y,z
1/2+x,1/2-y,1/2+z
loop_
_atom_site_type_symbol
_atom_site_label
_atom_site_fract_x
_atom_site_fract_y
_atom_site_fract_z
Si Si1 0.165703 0.240853 0.422342
Si Si2 0.730003 0.169378 0.076171
Si Si3 0.605461 0.049758 0.413823
Si Si4 0.938973 0.645132 0.917905
Si Si5 0.440164 0.743538 0.575384
Si Si6 0.232701 0.449247 0.585807
O O1 0.156602 0.247618 0.250000
O O2 0.214732 0.200784 0.440556
O O3 0.185859 0.295587 0.493658
O O4 0.112317 0.219897 0.500284
O O5 0.716332 0.167276 0.250000
O O6 0.737945 0.109693 0.024123
O O7 0.583659 0.053926 0.250000
O O8 0.595452 0.101538 0.504905
O O9 0.668997 0.043230 0.402892
O O10 0.583349 0.000000 0.500000
O O11 0.923353 0.654583 0.750000
O O12 0.000000 0.625987 0.917218
O O13 0.938727 0.698037 0.010077
O O14 0.434531 0.743974 0.750000
O O15 0.500000 0.722610 0.540996
O O16 0.253457 0.500000 0.500000
O O17 0.255123 0.448833 0.750000
#
# Coordination Sequence:
#
# PCOD9469738 Si02
#       6
#    16  16  16  16  16  16
#     4  10  19  30  48  72  96 124 156 191 230 274
#     4   9  18  32  48  69  98 127 154 188 232 278
#     4  10  19  30  44  60  80 109 144 183 225 266
#     4  10  20  32  45  61  80 104 140 186 230 271
#     4  10  20  33  48  65  88 119 151 184 225 273
#     4   9  18  31  46  64  87 115 147 182 219 263
#
# _framework density 16.295938
#
# number of rings (size 3 to 8) (size 9 to 14) (size 15 to 20)
#    0.000    2.333    0.000    3.000    0.000    5.667 
#    0.000    0.000    0.000    0.000    0.000    0.000 
#    0.000    0.667    0.000    1.500    0.000    2.667 
#
# Total GULP energy -267451.867499 kJ/mol
# GULP energy per Si atom -5571.913906 kJ/mol
# Density = 1.625885 g / cm^3
# Si number density = 16.295938 Si / 1000 Ang^3
#
#
#
# Elastic Constant Matrix: (Units=GPa)
#
#
# Indices 1 2 3 4 5 6 
#
# 1 65.7666 2.9142 38.9357 0.0000 0.0000 0.0000
# 2 2.9142 63.2449 22.2387 0.0000 0.0000 0.0000
# 3 38.9357 22.2387 74.4824 0.0000 0.0000 0.0000
# 4 0.0000 0.0000 0.0000 21.2912 0.0000 0.0000
# 5 0.0000 0.0000 0.0000 0.0000 19.8855 0.0000
# 6 0.0000 0.0000 0.0000 0.0000 0.0000 2.6188
#
#
#
# Elastic Compliance Matrix: (Units=1/GPa)
#
#
# Indices 1 2 3 4 5 6 
#
# 1 0.022690 0.003492 -0.012904 0.000000 0.000000 0.000000
# 2 0.003492 0.018204 -0.007261 0.000000 0.000000 0.000000
# 3 -0.012904 -0.007261 0.022339 0.000000 0.000000 0.000000
# 4 0.000000 0.000000 0.000000 0.046968 0.000000 0.000000
# 5 0.000000 0.000000 0.000000 0.000000 0.050288 0.000000
# 6 0.000000 0.000000 0.000000 0.000000 0.000000 0.381858
#
#
# Mechanical properties :
#
#
# Convention : Reuss Voigt Hill
#
# Bulk Modulus (GPa) = 33.45835 36.85236 35.15535
# Shear Modulus (GPa) = 8.53746 18.05277 13.29512
#
# Velocity S-wave (km/s) = 2.29137 3.33199 2.85942
# Velocity P-wave (km/s) = 5.25136 6.12098 5.70277
#
# Compressibility (1/GPa) = 0.02988791
#
# Stress axis : x y z
#
# Youngs Moduli (GPa) = 44.07237 54.93400 44.76423
#
# Poissons Ratio (x) = -0.19182 0.57763
# Poissons Ratio (y) = -0.15389 0.32501
# Poissons Ratio (z) = 0.56870 0.39885
#
# Static dielectric constant tensor:
#      x y z
#    x 1.583250 0.000000 0.000000 
#    y 0.000000 1.548870 0.000000 
#    z 0.000000 0.000000 1.566050 
# 
# From -- ./inp_files/10695.got.cif
#   From: 2010.05.17/outbox.cif.g08.bks.cpg/sg63_6_cif.got.tgz:10695.got - 2010.06.03 15:47:04.
