data_PCOD9469210
_publ_section_title
;
Structure prediction by ZEFSAII (Michael W. Deem and Ramdas Pophale) SiO2 
 PCOD9469210
Probable space group: C M C M
;
_chemical_formula_sum "Si O2"
_cell_formula_units_Z 96
_cell_length_a 18.673246
_cell_length_b 6.876679
_cell_length_c 27.592529
_cell_angle_alpha 90.000000
_cell_angle_beta 90.000000
_cell_angle_gamma 90.000000
_cell_volume 3543.154404
_symmetry_space_group_name_H-M "C M C M"
_symmetry_group_IT_number 63
_symmetry_cell_setting 'orthorhombic'
loop_
_space_group_symop_operation_xyz
x,y,z
-x,-y,1/2+z
x,-y,-z
-x,y,1/2-z
-x,-y,-z
x,y,1/2-z
-x,y,z
x,-y,1/2+z
1/2+x,1/2+y,z
1/2-x,1/2-y,1/2+z
1/2+x,1/2-y,-z
1/2-x,1/2+y,1/2-z
1/2-x,1/2-y,-z
1/2+x,1/2+y,1/2-z
1/2-x,1/2+y,z
1/2+x,1/2-y,1/2+z
loop_
_atom_site_type_symbol
_atom_site_label
_atom_site_fract_x
_atom_site_fract_y
_atom_site_fract_z
Si Si1 0.209022 0.016496 0.580863
Si Si2 0.847571 0.525949 0.649590
Si Si3 0.152081 0.008613 0.324212
Si Si4 0.784352 0.534083 0.250000
Si Si5 0.656518 0.233448 0.996572
Si Si6 0.000000 0.390895 0.383311
Si Si7 0.000000 0.074463 0.199493
Si Si8 0.500000 0.228099 0.509078
O O1 0.283205 0.985244 0.610708
O O2 0.159809 0.092439 0.624277
O O3 0.292932 0.665101 0.536141
O O4 0.171325 0.829783 0.555791
O O5 0.843802 0.757932 0.664241
O O6 0.838617 0.431887 0.703690
O O7 0.925084 0.496377 0.624419
O O8 0.220791 0.976215 0.290605
O O9 0.074735 0.964263 0.303225
O O10 0.575617 0.295480 0.010931
O O11 0.660600 0.000000 0.000000
O O12 0.000000 0.227957 0.342625
O O13 0.000000 0.270112 0.433029
O O14 0.000000 0.187591 0.250000
O O15 0.500000 0.000000 0.500000
#
# Coordination Sequence:
#
# PCOD9469210 Si02
#       8
#    16  16  16   8  16   8   8   8
#     4  10  23  44  72 116 146 198 248 318 381 449
#     4  10  22  41  70 104 150 189 257 308 382 458
#     4  10  20  39  64 102 150 190 247 307 371 448
#     4  10  20  36  62 104 144 194 232 310 376 436
#     4  10  22  46  78 111 152 198 256 310 382 450
#     4  10  22  40  68 100 139 197 254 315 374 454
#     4  10  18  31  65 102 142 195 249 296 378 454
#     4  10  22  46  73 103 152 197 251 317 373 443
#
# _framework density 27.094498999999999
#
# number of rings (size 3 to 8) (size 9 to 14) (size 15 to 20)
#    0.000    2.000    0.833    2.500    3.500    2.000 
#   21.000    4.167    0.000    0.000    0.000   14.583 
#    0.000    1.333    0.000    0.000    0.000    0.000 
#
# Total GULP energy -267485.732462 kJ/mol
# GULP energy per Si atom -5572.619426 kJ/mol
# Density = 2.703283 g / cm^3
# Si number density = 27.094499 Si / 1000 Ang^3
#
#
#
# Elastic Constant Matrix: (Units=GPa)
#
#
# Indices 1 2 3 4 5 6 
#
# 1 206.7893 11.5400 36.4996 0.0000 0.0000 0.0000
# 2 11.5400 113.1002 19.0883 0.0000 0.0000 0.0000
# 3 36.4996 19.0883 220.5250 0.0000 0.0000 0.0000
# 4 0.0000 0.0000 0.0000 58.8714 0.0000 0.0000
# 5 0.0000 0.0000 0.0000 0.0000 36.6421 0.0000
# 6 0.0000 0.0000 0.0000 0.0000 0.0000 14.0459
#
#
#
# Elastic Compliance Matrix: (Units=1/GPa)
#
#
# Indices 1 2 3 4 5 6 
#
# 1 0.004997 -0.000376 -0.000795 0.000000 0.000000 0.000000
# 2 -0.000376 0.009001 -0.000717 0.000000 0.000000 0.000000
# 3 -0.000795 -0.000717 0.004728 0.000000 0.000000 0.000000
# 4 0.000000 0.000000 0.000000 0.016986 0.000000 0.000000
# 5 0.000000 0.000000 0.000000 0.000000 0.027291 0.000000
# 6 0.000000 0.000000 0.000000 0.000000 0.000000 0.071195
#
#
# Mechanical properties :
#
#
# Convention : Reuss Voigt Hill
#
# Bulk Modulus (GPa) = 66.88147 74.96338 70.92243
# Shear Modulus (GPa) = 34.97550 53.46433 44.21991
#
# Velocity S-wave (km/s) = 3.59677 4.44695 4.04426
# Velocity P-wave (km/s) = 6.47974 7.35490 6.93115
#
# Compressibility (1/GPa) = 0.01495182
#
# Stress axis : x y z
#
# Youngs Moduli (GPa) = 200.11799 111.09808 211.49710
#
# Poissons Ratio (x) = 0.04175 0.16804
# Poissons Ratio (y) = 0.07520 0.15163
# Poissons Ratio (z) = 0.15900 0.07965
#
# Static dielectric constant tensor:
#      x y z
#    x 2.160430 0.000000 0.000000 
#    y 0.000000 2.312310 0.000000 
#    z 0.000000 0.000000 2.095450 
# 
# From -- ./inp_files/69943.got.cif
#   From: 2010.05.17/outbox.cif.g08.bks.cpg/sg63_35_cif.got.tgz:69943.got - 2010.06.03 15:47:04.
