data_PCOD9469166
_publ_section_title
;
Structure prediction by ZEFSAII (Michael W. Deem and Ramdas Pophale) SiO2 
 PCOD9469166
Probable space group: C M C M
;
_chemical_formula_sum "Si O2"
_cell_formula_units_Z 96
_cell_length_a 13.752062
_cell_length_b 16.981285
_cell_length_c 20.878774
_cell_angle_alpha 90.000000
_cell_angle_beta 90.000000
_cell_angle_gamma 90.000000
_cell_volume 4875.771740
_symmetry_space_group_name_H-M "C M C M"
_symmetry_group_IT_number 63
_symmetry_cell_setting 'orthorhombic'
loop_
_space_group_symop_operation_xyz
x,y,z
-x,-y,1/2+z
x,-y,-z
-x,y,1/2-z
-x,-y,-z
x,y,1/2-z
-x,y,z
x,-y,1/2+z
1/2+x,1/2+y,z
1/2-x,1/2-y,1/2+z
1/2+x,1/2-y,-z
1/2-x,1/2+y,1/2-z
1/2-x,1/2-y,-z
1/2+x,1/2+y,1/2-z
1/2-x,1/2+y,z
1/2+x,1/2-y,1/2+z
loop_
_atom_site_type_symbol
_atom_site_label
_atom_site_fract_x
_atom_site_fract_y
_atom_site_fract_z
Si Si1 0.244291 0.849786 0.322361
Si Si2 0.180301 0.097008 0.441186
Si Si3 0.606988 0.922285 0.954805
Si Si4 0.614223 0.701716 0.176206
Si Si5 0.388967 0.579503 0.575514
Si Si6 0.108548 0.505446 0.679849
O O1 0.204381 0.844436 0.250000
O O2 0.315638 0.776430 0.332567
O O3 0.161850 0.862170 0.374890
O O4 0.312498 0.926821 0.325624
O O5 0.289936 0.119953 0.462955
O O6 0.145309 0.139858 0.377562
O O7 0.115256 0.112481 0.503469
O O8 0.170107 0.003166 0.427675
O O9 0.500000 0.885097 0.966312
O O10 0.611994 0.948503 0.880526
O O11 0.609670 0.000000 0.000000
O O12 0.626651 0.673412 0.250000
O O13 0.500000 0.721887 0.168739
O O14 0.500000 0.562000 0.593240
O O15 0.120175 0.466696 0.750000
O O16 0.000000 0.541604 0.678518
#
# Coordination Sequence:
#
# PCOD9469166 Si02
#       6
#    16  16  16  16  16  16
#     4  10  20  36  56  81 110 146 193 243 286 334
#     4  11  20  38  58  85 121 154 185 238 291 346
#     4  10  18  31  53  81 110 141 180 225 277 333
#     4  10  22  39  60  86 116 153 194 237 288 344
#     4  11  22  37  58  84 114 154 197 237 288 345
#     4   9  16  28  49  75 102 132 173 226 277 325
#
# _framework density 19.68919
#
# number of rings (size 3 to 8) (size 9 to 14) (size 15 to 20)
#    0.000    1.833    3.333    2.500    0.000    4.333 
#    0.000    1.667    0.000    1.000    0.000    0.000 
#    0.000    0.000    0.000    0.000    0.000    0.000 
#
# Total GULP energy -267627.045850 kJ/mol
# GULP energy per Si atom -5575.563455 kJ/mol
# Density = 1.964438 g / cm^3
# Si number density = 19.689190 Si / 1000 Ang^3
#
#
#
# Elastic Constant Matrix: (Units=GPa)
#
#
# Indices 1 2 3 4 5 6 
#
# 1 115.6213 13.3031 37.1007 0.0000 0.0000 0.0000
# 2 13.3031 19.1372 28.1348 0.0000 0.0000 0.0000
# 3 37.1007 28.1348 102.5021 0.0000 0.0000 0.0000
# 4 0.0000 0.0000 0.0000 23.0375 0.0000 0.0000
# 5 0.0000 0.0000 0.0000 0.0000 29.3106 0.0000
# 6 0.0000 0.0000 0.0000 0.0000 0.0000 17.5256
#
#
#
# Elastic Compliance Matrix: (Units=1/GPa)
#
#
# Indices 1 2 3 4 5 6 
#
# 1 0.009868 -0.002697 -0.002831 0.000000 0.000000 0.000000
# 2 -0.002697 0.088343 -0.023272 0.000000 0.000000 0.000000
# 3 -0.002831 -0.023272 0.017168 0.000000 0.000000 0.000000
# 4 0.000000 0.000000 0.000000 0.043407 0.000000 0.000000
# 5 0.000000 0.000000 0.000000 0.000000 0.034117 0.000000
# 6 0.000000 0.000000 0.000000 0.000000 0.000000 0.057060
#
#
# Mechanical properties :
#
#
# Convention : Reuss Voigt Hill
#
# Bulk Modulus (GPa) = 17.30762 43.81533 30.56148
# Shear Modulus (GPa) = 15.29876 24.55620 19.92748
#
# Velocity S-wave (km/s) = 2.79052 3.53539 3.18481
# Velocity P-wave (km/s) = 4.38089 6.24237 5.39256
#
# Compressibility (1/GPa) = 0.05777801
#
# Stress axis : x y z
#
# Youngs Moduli (GPa) = 101.34011 11.31954 58.24624
#
# Poissons Ratio (x) = 0.03053 0.16492
# Poissons Ratio (y) = 0.27331 1.35552
# Poissons Ratio (z) = 0.28693 0.26343
#
# Static dielectric constant tensor:
#      x y z
#    x 1.733530 0.000000 0.000000 
#    y 0.000000 1.672390 0.000000 
#    z 0.000000 0.000000 1.710010 
# 
# From -- ./inp_files/54226.got.cif
#   From: 2010.05.17/outbox.cif.g08.bks.cpg/sg63_28_cif.got.tgz:54226.got - 2010.06.03 15:47:04.
