data_PCOD9469667
_publ_section_title
;
Structure prediction by ZEFSAII (Michael W. Deem and Ramdas Pophale) SiO2 
 PCOD9469667
Probable space group: C M C M
;
_chemical_formula_sum "Si O2"
_cell_formula_units_Z 96
_cell_length_a 12.737931
_cell_length_b 12.594284
_cell_length_c 22.924613
_cell_angle_alpha 90.000000
_cell_angle_beta 90.000000
_cell_angle_gamma 90.000000
_cell_volume 3677.683805
_symmetry_space_group_name_H-M "C M C M"
_symmetry_group_IT_number 63
_symmetry_cell_setting 'orthorhombic'
loop_
_space_group_symop_operation_xyz
x,y,z
-x,-y,1/2+z
x,-y,-z
-x,y,1/2-z
-x,-y,-z
x,y,1/2-z
-x,y,z
x,-y,1/2+z
1/2+x,1/2+y,z
1/2-x,1/2-y,1/2+z
1/2+x,1/2-y,-z
1/2-x,1/2+y,1/2-z
1/2-x,1/2-y,-z
1/2+x,1/2+y,1/2-z
1/2-x,1/2+y,z
1/2+x,1/2-y,1/2+z
loop_
_atom_site_type_symbol
_atom_site_label
_atom_site_fract_x
_atom_site_fract_y
_atom_site_fract_z
Si Si1 0.117594 0.884480 0.686873
Si Si2 0.376556 0.718203 0.812515
Si Si3 0.376651 0.282743 0.062654
Si Si4 0.339901 0.973798 0.812421
Si Si5 0.162602 0.468066 0.936989
Si Si6 0.878799 0.113485 0.059459
O O1 0.125529 0.826599 0.750000
O O2 0.212982 0.966708 0.687698
O O3 0.127749 0.829786 0.623225
O O4 0.000000 0.931248 0.685951
O O5 0.331016 0.683646 0.750000
O O6 0.500000 0.691975 0.811833
O O7 0.330914 0.681181 0.874592
O O8 0.369332 0.847602 0.812230
O O9 0.500000 0.307140 0.066090
O O10 0.361206 0.156684 0.065068
O O11 0.348484 0.319991 0.997609
O O12 0.375846 0.018453 0.750000
O O13 0.375358 0.016202 0.875525
O O14 0.290013 0.476516 0.937988
O O15 0.121444 0.500000 0.000000
O O16 0.000000 0.078226 0.053750
#
# Coordination Sequence:
#
# PCOD9469667 Si02
#       6
#    16  16  16  16  16  16
#     4   8  13  22  38  60  81 101 132 173 208 236
#     4   8  13  22  38  60  81 101 132 173 208 236
#     4   9  17  29  45  64  86 112 140 172 210 249
#     4   8  14  25  40  57  78 104 136 172 204 236
#     4  10  19  29  44  65  87 112 140 172 210 250
#     4   9  17  29  45  64  86 112 140 172 210 249
#
# _framework density 26.103384999999999
#
# number of rings (size 3 to 8) (size 9 to 14) (size 15 to 20)
#    0.000    3.333    0.000    0.500    0.000    0.667 
#    0.000    0.000    0.000    2.000    0.000    0.000 
#    0.000    0.000    0.000    0.000    0.000    0.000 
#
# Total GULP energy -267295.348131 kJ/mol
# GULP energy per Si atom -5568.653086 kJ/mol
# Density = 2.604397 g / cm^3
# Si number density = 26.103385 Si / 1000 Ang^3
#
#
#
# Elastic Constant Matrix: (Units=GPa)
#
#
# Indices 1 2 3 4 5 6 
#
# 1 113.0081 1.0215 10.6454 0.0000 0.0000 0.0000
# 2 1.0215 47.9970 46.4958 0.0000 0.0000 0.0000
# 3 10.6454 46.4958 410.8404 0.0000 0.0000 0.0000
# 4 0.0000 0.0000 0.0000 30.3682 0.0000 0.0000
# 5 0.0000 0.0000 0.0000 0.0000 -18.3072 0.0000
# 6 0.0000 0.0000 0.0000 0.0000 0.0000 -19.6726
#
#
#
# Elastic Compliance Matrix: (Units=1/GPa)
#
#
# Indices 1 2 3 4 5 6 
#
# 1 0.008871 0.000038 -0.000234 0.000000 0.000000 0.000000
# 2 0.000038 0.023400 -0.002649 0.000000 0.000000 0.000000
# 3 -0.000234 -0.002649 0.002740 0.000000 0.000000 0.000000
# 4 0.000000 0.000000 0.000000 0.032929 0.000000 0.000000
# 5 0.000000 0.000000 0.000000 0.000000 -0.054623 0.000000
# 6 0.000000 0.000000 0.000000 0.000000 0.000000 -0.050832
#
#
# Mechanical properties :
#
#
# Convention : Reuss Voigt Hill
#
# Bulk Modulus (GPa) = 34.10633 76.46341 55.28487
# Shear Modulus (GPa) = -226.74330 32.72319 -97.01005
#
# Velocity S-wave (km/s) = -9.33017 3.54446 -6.10282
# Velocity P-wave (km/s) = 10.14767 6.79022 5.33236
#
# Compressibility (1/GPa) = 0.02932007
#
# Stress axis : x y z
#
# Youngs Moduli (GPa) = 112.73143 42.73468 364.97364
#
# Poissons Ratio (x) = -0.00163 0.08546
# Poissons Ratio (y) = -0.00429 0.96690
# Poissons Ratio (z) = 0.02640 0.11321
#
# Static dielectric constant tensor:
#      x y z
#    x 2.053020 0.000000 0.000000 
#    y 0.000000 2.062370 0.000000 
#    z 0.000000 0.000000 2.233000 
# 
# From -- ./inp_files/54624.got.cif
#   From: 2010.05.17/outbox.cif.g08.bks.cpg/sg63_28_cif.got.tgz:54624.got - 2010.06.03 15:47:04.
