data_PCOD9469494
_publ_section_title
;
Structure prediction by ZEFSAII (Michael W. Deem and Ramdas Pophale) SiO2 
 PCOD9469494
Probable space group: C M C M
;
_chemical_formula_sum "Si O2"
_cell_formula_units_Z 56
_cell_length_a 14.579532
_cell_length_b 11.976509
_cell_length_c 12.741910
_cell_angle_alpha 90.000000
_cell_angle_beta 90.000000
_cell_angle_gamma 90.000000
_cell_volume 2224.889066
_symmetry_space_group_name_H-M "C M C M"
_symmetry_group_IT_number 63
_symmetry_cell_setting 'orthorhombic'
loop_
_space_group_symop_operation_xyz
x,y,z
-x,-y,1/2+z
x,-y,-z
-x,y,1/2-z
-x,-y,-z
x,y,1/2-z
-x,y,z
x,-y,1/2+z
1/2+x,1/2+y,z
1/2-x,1/2-y,1/2+z
1/2+x,1/2-y,-z
1/2-x,1/2+y,1/2-z
1/2-x,1/2-y,-z
1/2+x,1/2+y,1/2-z
1/2-x,1/2+y,z
1/2+x,1/2-y,1/2+z
loop_
_atom_site_type_symbol
_atom_site_label
_atom_site_fract_x
_atom_site_fract_y
_atom_site_fract_z
Si Si1 0.401925 0.254278 0.250000
Si Si2 0.209196 0.091022 0.071473
Si Si3 0.268592 0.073731 0.750000
Si Si4 0.901206 0.630661 0.472771
Si Si5 0.107097 0.226890 0.250000
O O1 0.500000 0.317438 0.250000
O O2 0.315400 0.337031 0.250000
O O3 0.401919 0.177283 0.353261
O O4 0.292155 0.148103 0.005865
O O5 0.149546 0.170682 0.144922
O O6 0.258892 0.009224 0.153615
O O7 0.155828 0.000000 0.000000
O O8 0.361033 0.144778 0.750000
O O9 0.909297 0.500000 0.500000
O O10 0.000000 0.677567 0.516516
O O11 0.000000 0.211864 0.250000
#
# Coordination Sequence:
#
# PCOD9469494 Si02
#       5
#     8  16   8  16   8
#     4  10  18  34  59  86 118 152 200 251 298 369
#     4  10  22  41  66  89 126 167 206 257 317 380
#     4  11  22  39  64  91 119 162 211 255 314 367
#     4   9  17  33  59  89 118 147 189 248 312 365
#     4  11  24  43  61  91 131 168 215 262 308 368
#
# _framework density 25.169792999999999
#
# number of rings (size 3 to 8) (size 9 to 14) (size 15 to 20)
#    0.000    2.000    2.857    0.857    0.000    5.143 
#    0.000    0.000    0.000    0.000    0.000    0.000 
#    0.000    0.000    0.000    0.000    0.000    0.000 
#
# Total GULP energy -156006.391297 kJ/mol
# GULP energy per Si atom -5571.656832 kJ/mol
# Density = 2.511251 g / cm^3
# Si number density = 25.169793 Si / 1000 Ang^3
#
#
#
# Elastic Constant Matrix: (Units=GPa)
#
#
# Indices 1 2 3 4 5 6 
#
# 1 184.8723 71.4087 17.2835 0.0000 0.0000 0.0000
# 2 71.4087 106.2109 34.4673 0.0000 0.0000 0.0000
# 3 17.2835 34.4673 58.9968 0.0000 0.0000 0.0000
# 4 0.0000 0.0000 0.0000 10.4734 0.0000 0.0000
# 5 0.0000 0.0000 0.0000 0.0000 -45.0719 0.0000
# 6 0.0000 0.0000 0.0000 0.0000 0.0000 6.5589
#
#
#
# Elastic Compliance Matrix: (Units=1/GPa)
#
#
# Indices 1 2 3 4 5 6 
#
# 1 0.007346 -0.005232 0.000905 0.000000 0.000000 0.000000
# 2 -0.005232 0.015345 -0.007432 0.000000 0.000000 0.000000
# 3 0.000905 -0.007432 0.021027 0.000000 0.000000 0.000000
# 4 0.000000 0.000000 0.000000 0.095480 0.000000 0.000000
# 5 0.000000 0.000000 0.000000 0.000000 -0.022187 0.000000
# 6 0.000000 0.000000 0.000000 0.000000 0.000000 0.152465
#
#
# Mechanical properties :
#
#
# Convention : Reuss Voigt Hill
#
# Bulk Modulus (GPa) = 49.50847 66.26657 57.88752
# Shear Modulus (GPa) = 16.68181 9.52010 13.10096
#
# Velocity S-wave (km/s) = 2.57723 1.94694 2.28393
# Velocity P-wave (km/s) = 5.34496 5.60705 5.47758
#
# Compressibility (1/GPa) = 0.02019856
#
# Stress axis : x y z
#
# Youngs Moduli (GPa) = 136.13666 65.16841 47.55808
#
# Poissons Ratio (x) = 0.34098 -0.04303
# Poissons Ratio (y) = 0.71231 0.35345
# Poissons Ratio (z) = -0.12319 0.48433
#
# Static dielectric constant tensor:
#      x y z
#    x 2.037250 0.000000 0.000000 
#    y 0.000000 1.987570 0.000000 
#    z 0.000000 0.000000 2.163840 
# 
# From -- ./inp_files/30853.got.cif
#   From: 2010.05.17/outbox.cif.g08.bks.cpg/sg63_16_cif.got.tgz:30853.got - 2010.06.03 15:47:04.
