data_PCOD9469707
_publ_section_title
;
Structure prediction by ZEFSAII (Michael W. Deem and Ramdas Pophale) SiO2 
 PCOD9469707
Probable space group: C M C M
;
_chemical_formula_sum "Si O2"
_cell_formula_units_Z 112
_cell_length_a 15.523681
_cell_length_b 23.936365
_cell_length_c 14.124672
_cell_angle_alpha 90.000000
_cell_angle_beta 90.000000
_cell_angle_gamma 90.000000
_cell_volume 5248.452607
_symmetry_space_group_name_H-M "C M C M"
_symmetry_group_IT_number 63
_symmetry_cell_setting 'orthorhombic'
loop_
_space_group_symop_operation_xyz
x,y,z
-x,-y,1/2+z
x,-y,-z
-x,y,1/2-z
-x,-y,-z
x,y,1/2-z
-x,y,z
x,-y,1/2+z
1/2+x,1/2+y,z
1/2-x,1/2-y,1/2+z
1/2+x,1/2-y,-z
1/2-x,1/2+y,1/2-z
1/2-x,1/2-y,-z
1/2+x,1/2+y,1/2-z
1/2-x,1/2+y,z
1/2+x,1/2-y,1/2+z
loop_
_atom_site_type_symbol
_atom_site_label
_atom_site_fract_x
_atom_site_fract_y
_atom_site_fract_z
Si Si1 0.403421 0.808566 0.494195
Si Si2 0.596223 0.315315 0.556547
Si Si3 0.273819 0.146578 0.362916
Si Si4 0.286812 0.023210 0.357426
Si Si5 0.135351 0.864681 0.355169
Si Si6 0.334008 0.900963 0.361236
Si Si7 0.592795 0.492546 0.112621
O O1 0.500000 0.808449 0.534371
O O2 0.392716 0.751252 0.436137
O O3 0.332161 0.811766 0.576233
O O4 0.391786 0.861047 0.424490
O O5 0.500000 0.331351 0.588268
O O6 0.674100 0.345134 0.609941
O O7 0.604065 0.330118 0.444979
O O8 0.284332 0.151745 0.250000
O O9 0.302973 0.084610 0.396609
O O10 0.319189 0.024725 0.250000
O O11 0.323374 0.965089 0.397161
O O12 0.182825 0.017522 0.353494
O O13 0.116313 0.842162 0.250000
O O14 0.238004 0.874339 0.364183
O O15 0.096989 0.927068 0.362900
O O16 0.359433 0.901962 0.250000
O O17 0.500000 0.515259 0.144732
O O18 0.595266 0.500000 0.000000
#
# Coordination Sequence:
#
# PCOD9469707 Si02
#       7
#    16  16  16  16  16  16  16
#     4  11  25  44  66  92 123 165 218 272 325 377
#     4  11  24  42  63  94 132 167 213 262 312 381
#     4  11  24  43  65  90 129 171 210 259 320 384
#     4   9  20  36  56  85 118 160 206 254 311 379
#     4  10  20  35  59  89 124 166 210 255 312 380
#     4   9  19  38  64  92 123 159 206 264 322 376
#     4  10  19  29  47  80 120 161 203 248 301 370
#
# _framework density 21.339623
#
# number of rings (size 3 to 8) (size 9 to 14) (size 15 to 20)
#    0.000    1.857    1.429    3.000    2.000    5.714 
#    0.000    5.714    0.000    2.571    0.000    0.000 
#    0.000    0.000    0.000    0.000    0.000    0.000 
#
# Total GULP energy -312683.257696 kJ/mol
# GULP energy per Si atom -5583.629602 kJ/mol
# Density = 2.129105 g / cm^3
# Si number density = 21.339623 Si / 1000 Ang^3
#
#
#
# Elastic Constant Matrix: (Units=GPa)
#
#
# Indices 1 2 3 4 5 6 
#
# 1 45.5637 9.5509 15.0182 0.0000 0.0000 0.0000
# 2 9.5509 67.2197 6.1739 0.0000 0.0000 0.0000
# 3 15.0182 6.1739 81.0747 0.0000 0.0000 0.0000
# 4 0.0000 0.0000 0.0000 6.1960 0.0000 0.0000
# 5 0.0000 0.0000 0.0000 0.0000 13.8523 0.0000
# 6 0.0000 0.0000 0.0000 0.0000 0.0000 -12.7170
#
#
#
# Elastic Compliance Matrix: (Units=1/GPa)
#
#
# Indices 1 2 3 4 5 6 
#
# 1 0.023968 -0.003019 -0.004210 0.000000 0.000000 0.000000
# 2 -0.003019 0.015362 -0.000611 0.000000 0.000000 0.000000
# 3 -0.004210 -0.000611 0.013161 0.000000 0.000000 0.000000
# 4 0.000000 0.000000 0.000000 0.161395 0.000000 0.000000
# 5 0.000000 0.000000 0.000000 0.000000 0.072190 0.000000
# 6 0.000000 0.000000 0.000000 0.000000 0.000000 -0.078635
#
#
# Mechanical properties :
#
#
# Convention : Reuss Voigt Hill
#
# Bulk Modulus (GPa) = 27.16546 28.37154 27.76850
# Shear Modulus (GPa) = 21.24147 12.34062 16.79104
#
# Velocity S-wave (km/s) = 3.15842 2.40739 2.80812
# Velocity P-wave (km/s) = 5.10475 4.58819 4.85335
#
# Compressibility (1/GPa) = 0.03681145
#
# Stress axis : x y z
#
# Youngs Moduli (GPa) = 41.72284 65.09741 75.98424
#
# Poissons Ratio (x) = 0.19651 0.31988
# Poissons Ratio (y) = 0.12595 0.04640
# Poissons Ratio (z) = 0.17565 0.03975
#
# Static dielectric constant tensor:
#      x y z
#    x 1.768740 0.000000 0.000000 
#    y 0.000000 1.778170 0.000000 
#    z 0.000000 0.000000 1.766290 
# 
# From -- ./inp_files/32282.got.cif
#   From: 2010.05.17/outbox.cif.g08.bks.cpg/sg63_17_cif.got.tgz:32282.got - 2010.06.03 15:47:04.
