data_PCOD9469630
_publ_section_title
;
Structure prediction by ZEFSAII (Michael W. Deem and Ramdas Pophale) SiO2 
 PCOD9469630
Probable space group: C M C M
;
_chemical_formula_sum "Si O2"
_cell_formula_units_Z 112
_cell_length_a 31.138563
_cell_length_b 13.561453
_cell_length_c 15.435053
_cell_angle_alpha 90.000000
_cell_angle_beta 90.000000
_cell_angle_gamma 90.000000
_cell_volume 6517.978369
_symmetry_space_group_name_H-M "C M C M"
_symmetry_group_IT_number 63
_symmetry_cell_setting 'orthorhombic'
loop_
_space_group_symop_operation_xyz
x,y,z
-x,-y,1/2+z
x,-y,-z
-x,y,1/2-z
-x,-y,-z
x,y,1/2-z
-x,y,z
x,-y,1/2+z
1/2+x,1/2+y,z
1/2-x,1/2-y,1/2+z
1/2+x,1/2-y,-z
1/2-x,1/2+y,1/2-z
1/2-x,1/2-y,-z
1/2+x,1/2+y,1/2-z
1/2-x,1/2+y,z
1/2+x,1/2-y,1/2+z
loop_
_atom_site_type_symbol
_atom_site_label
_atom_site_fract_x
_atom_site_fract_y
_atom_site_fract_z
Si Si1 0.367027 0.831171 0.848044
Si Si2 0.548394 0.260021 0.354498
Si Si3 0.202721 0.817485 0.536083
Si Si4 0.209992 0.392369 0.538727
Si Si5 0.048497 0.010774 0.603303
Si Si6 0.815479 0.127171 0.655219
Si Si7 0.364196 0.581233 0.346135
O O1 0.370540 0.869183 0.750000
O O2 0.414284 0.812688 0.886905
O O3 0.331885 0.891489 0.900817
O O4 0.347215 0.720727 0.843644
O O5 0.549097 0.252719 0.250000
O O6 0.500000 0.238011 0.384970
O O7 0.557492 0.374571 0.375446
O O8 0.202549 0.699554 0.527015
O O9 0.245139 0.858921 0.584054
O O10 0.207355 0.859728 0.437551
O O11 0.159565 0.855690 0.580553
O O12 0.215411 0.500000 0.500000
O O13 0.085726 0.941144 0.639416
O O14 0.000000 0.989073 0.634692
O O15 0.049051 0.000000 0.500000
O O16 0.792433 0.128916 0.750000
O O17 0.841370 0.025648 0.651103
O O18 0.357325 0.623470 0.250000
#
# Coordination Sequence:
#
# PCOD9469630 Si02
#       7
#    16  16  16  16  16  16  16
#     4   9  17  30  50  75  98 130 170 211 259 306
#     4   9  16  28  47  74 106 135 170 217 262 304
#     4  10  21  36  54  74 101 133 174 218 258 320
#     4  10  21  37  54  74  98 131 166 215 274 309
#     4  10  19  28  44  74 111 149 183 215 256 308
#     4   9  16  28  49  75 100 132 171 209 254 304
#     4  11  20  30  48  74 109 149 179 207 254 313
#
# _framework density 17.183240999999999
#
# number of rings (size 3 to 8) (size 9 to 14) (size 15 to 20)
#    0.000    2.286    1.429    2.571    2.000    1.429 
#    0.000    3.571    0.000    0.429    0.000    0.000 
#    0.000    2.286    0.000    0.000    0.000    0.000 
#
# Total GULP energy -311786.361043 kJ/mol
# GULP energy per Si atom -5567.613590 kJ/mol
# Density = 1.714413 g / cm^3
# Si number density = 17.183241 Si / 1000 Ang^3
#
#
#
# Elastic Constant Matrix: (Units=GPa)
#
#
# Indices 1 2 3 4 5 6 
#
# 1 112.4375 27.0950 31.4416 0.0000 0.0000 0.0000
# 2 27.0950 68.1439 17.2174 0.0000 0.0000 0.0000
# 3 31.4416 17.2174 58.9812 0.0000 0.0000 0.0000
# 4 0.0000 0.0000 0.0000 7.1145 0.0000 0.0000
# 5 0.0000 0.0000 0.0000 0.0000 18.4351 0.0000
# 6 0.0000 0.0000 0.0000 0.0000 0.0000 25.6418
#
#
#
# Elastic Compliance Matrix: (Units=1/GPa)
#
#
# Indices 1 2 3 4 5 6 
#
# 1 0.011039 -0.003133 -0.004970 0.000000 0.000000 0.000000
# 2 -0.003133 0.016733 -0.003214 0.000000 0.000000 0.000000
# 3 -0.004970 -0.003214 0.020542 0.000000 0.000000 0.000000
# 4 0.000000 0.000000 0.000000 0.140558 0.000000 0.000000
# 5 0.000000 0.000000 0.000000 0.000000 0.054244 0.000000
# 6 0.000000 0.000000 0.000000 0.000000 0.000000 0.038999
#
#
# Mechanical properties :
#
#
# Convention : Reuss Voigt Hill
#
# Bulk Modulus (GPa) = 38.94262 43.45229 41.19745
# Shear Modulus (GPa) = 15.95869 21.15885 18.55877
#
# Velocity S-wave (km/s) = 3.05082 3.51289 3.28998
# Velocity P-wave (km/s) = 5.92641 6.46501 6.20156
#
# Compressibility (1/GPa) = 0.02567881
#
# Stress axis : x y z
#
# Youngs Moduli (GPa) = 90.59076 59.76275 48.68050
#
# Poissons Ratio (x) = 0.18726 0.24193
# Poissons Ratio (y) = 0.28386 0.15647
# Poissons Ratio (z) = 0.45022 0.19209
#
# Static dielectric constant tensor:
#      x y z
#    x 1.642850 0.000000 0.000000 
#    y 0.000000 1.548870 0.000000 
#    z 0.000000 0.000000 1.639790 
# 
# From -- ./inp_files/38699.got.cif
#   From: 2010.05.17/outbox.cif.g08.bks.cpg/sg63_20_cif.got.tgz:38699.got - 2010.06.03 15:47:04.
