data_PCOD9469313
_publ_section_title
;
Structure prediction by ZEFSAII (Michael W. Deem and Ramdas Pophale) SiO2 
 PCOD9469313
Probable space group: C M C M
;
_chemical_formula_sum "Si O2"
_cell_formula_units_Z 128
_cell_length_a 11.386753
_cell_length_b 26.556633
_cell_length_c 22.574164
_cell_angle_alpha 90.000000
_cell_angle_beta 90.000000
_cell_angle_gamma 90.000000
_cell_volume 6826.287696
_symmetry_space_group_name_H-M "C M C M"
_symmetry_group_IT_number 63
_symmetry_cell_setting 'orthorhombic'
loop_
_space_group_symop_operation_xyz
x,y,z
-x,-y,1/2+z
x,-y,-z
-x,y,1/2-z
-x,-y,-z
x,y,1/2-z
-x,y,z
x,-y,1/2+z
1/2+x,1/2+y,z
1/2-x,1/2-y,1/2+z
1/2+x,1/2-y,-z
1/2-x,1/2+y,1/2-z
1/2-x,1/2-y,-z
1/2+x,1/2+y,1/2-z
1/2-x,1/2+y,z
1/2+x,1/2-y,1/2+z
loop_
_atom_site_type_symbol
_atom_site_label
_atom_site_fract_x
_atom_site_fract_y
_atom_site_fract_z
Si Si1 0.260593 0.858596 0.914067
Si Si2 0.366027 0.943786 0.501588
Si Si3 0.635543 0.537280 0.678694
Si Si4 0.368019 0.761890 0.879870
Si Si5 0.633283 0.786764 0.321289
Si Si6 0.641009 0.575935 0.182552
Si Si7 0.706840 0.115593 0.610090
Si Si8 0.133572 0.181884 0.976546
O O1 0.305113 0.904920 0.953843
O O2 0.358295 0.821584 0.887919
O O3 0.187200 0.882039 0.861019
O O4 0.185660 0.823529 0.958377
O O5 0.500000 0.949107 0.521802
O O6 0.363557 0.918751 0.436420
O O7 0.312522 0.000000 0.500000
O O8 0.636315 0.539382 0.750000
O O9 0.500000 0.544666 0.659355
O O10 0.674532 0.480588 0.662417
O O11 0.719095 0.579081 0.651978
O O12 0.500000 0.748190 0.856091
O O13 0.250665 0.742672 0.844951
O O14 0.362618 0.735977 0.944902
O O15 0.641868 0.790106 0.250000
O O16 0.500000 0.766287 0.335001
O O17 0.640819 0.841947 0.351802
O O18 0.682349 0.583588 0.250000
O O19 0.500000 0.576273 0.183490
O O20 0.795074 0.146509 0.567925
O O21 0.000000 0.164765 0.978638
#
# Coordination Sequence:
#
# PCOD9469313 Si02
#       8
#    16  16  16  16  16  16  16  16
#     4  11  20  34  57  79 103 143 184 225 274 331
#     4  10  21  35  52  77 108 141 179 224 274 329
#     4   9  17  30  50  77 110 148 187 226 269 320
#     4  10  22  39  57  80 110 143 183 232 282 336
#     4  10  22  39  58  83 114 147 187 235 285 339
#     4   9  19  34  51  76 109 142 181 227 270 319
#     4  10  18  32  54  79 108 145 183 226 276 331
#     4   9  19  33  50  78 110 138 176 226 277 331
#
# _framework density 18.751041000000001
#
# number of rings (size 3 to 8) (size 9 to 14) (size 15 to 20)
#    0.000    2.250    0.000    3.750    0.000    2.250 
#    0.000    4.375    0.000    7.125    0.000    7.000 
#    0.000    0.000    0.000    0.000    0.000    0.000 
#
# Total GULP energy -356595.878588 kJ/mol
# GULP energy per Si atom -5571.810603 kJ/mol
# Density = 1.870836 g / cm^3
# Si number density = 18.751041 Si / 1000 Ang^3
#
#
#
# Elastic Constant Matrix: (Units=GPa)
#
#
# Indices 1 2 3 4 5 6 
#
# 1 92.6286 30.1906 28.0111 0.0000 0.0000 0.0000
# 2 30.1906 89.8078 26.3375 0.0000 0.0000 0.0000
# 3 28.0111 26.3375 59.8111 0.0000 0.0000 0.0000
# 4 0.0000 0.0000 0.0000 3.2449 0.0000 0.0000
# 5 0.0000 0.0000 0.0000 0.0000 20.6993 0.0000
# 6 0.0000 0.0000 0.0000 0.0000 0.0000 12.2944
#
#
#
# Elastic Compliance Matrix: (Units=1/GPa)
#
#
# Indices 1 2 3 4 5 6 
#
# 1 0.013257 -0.003027 -0.004876 0.000000 0.000000 0.000000
# 2 -0.003027 0.013477 -0.004517 0.000000 0.000000 0.000000
# 3 -0.004876 -0.004517 0.020992 0.000000 0.000000 0.000000
# 4 0.000000 0.000000 0.000000 0.308178 0.000000 0.000000
# 5 0.000000 0.000000 0.000000 0.000000 0.048311 0.000000
# 6 0.000000 0.000000 0.000000 0.000000 0.000000 0.081338
#
#
# Mechanical properties :
#
#
# Convention : Reuss Voigt Hill
#
# Bulk Modulus (GPa) = 43.69348 45.70287 44.69817
# Shear Modulus (GPa) = 9.65214 17.76161 13.70687
#
# Velocity S-wave (km/s) = 2.27128 3.08105 2.70662
# Velocity P-wave (km/s) = 5.49825 6.08963 5.80148
#
# Compressibility (1/GPa) = 0.02288671
#
# Stress axis : x y z
#
# Youngs Moduli (GPa) = 75.43360 74.20017 47.63764
#
# Poissons Ratio (x) = 0.22458 0.23227
# Poissons Ratio (y) = 0.22831 0.21518
# Poissons Ratio (z) = 0.36779 0.33517
#
# Static dielectric constant tensor:
#      x y z
#    x 1.664090 0.000000 0.000000 
#    y 0.000000 1.672760 0.000000 
#    z 0.000000 0.000000 1.630950 
# 
# From -- ./inp_files/62023.got.cif
#   From: 2010.05.17/outbox.cif.g08.bks.cpg/sg63_32_cif.got.tgz:62023.got - 2010.06.03 15:47:04.
