data_PCOD9469138
_publ_section_title
;
Structure prediction by ZEFSAII (Michael W. Deem and Ramdas Pophale) SiO2 
 PCOD9469138
Probable space group: C M C M
;
_chemical_formula_sum "Si O2"
_cell_formula_units_Z 80
_cell_length_a 8.706511
_cell_length_b 20.955682
_cell_length_c 25.437699
_cell_angle_alpha 90.000000
_cell_angle_beta 90.000000
_cell_angle_gamma 90.000000
_cell_volume 4641.130462
_symmetry_space_group_name_H-M "C M C M"
_symmetry_group_IT_number 63
_symmetry_cell_setting 'orthorhombic'
loop_
_space_group_symop_operation_xyz
x,y,z
-x,-y,1/2+z
x,-y,-z
-x,y,1/2-z
-x,-y,-z
x,y,1/2-z
-x,y,z
x,-y,1/2+z
1/2+x,1/2+y,z
1/2-x,1/2-y,1/2+z
1/2+x,1/2-y,-z
1/2-x,1/2+y,1/2-z
1/2-x,1/2-y,-z
1/2+x,1/2+y,1/2-z
1/2-x,1/2+y,z
1/2+x,1/2-y,1/2+z
loop_
_atom_site_type_symbol
_atom_site_label
_atom_site_fract_x
_atom_site_fract_y
_atom_site_fract_z
Si Si1 0.823279 0.394638 0.750000
Si Si2 0.185334 0.385285 0.635927
Si Si3 0.816953 0.742082 0.861204
Si Si4 0.677145 0.739407 0.750000
Si Si5 0.684088 0.308207 0.034207
Si Si6 0.315063 0.564377 0.470012
O O1 0.757644 0.411507 0.807233
O O2 0.822866 0.317106 0.750000
O O3 0.000000 0.416775 0.750000
O O4 0.251412 0.313679 0.629542
O O5 0.238241 0.426507 0.586614
O O6 0.000000 0.380640 0.637870
O O7 0.760062 0.720376 0.803780
O O8 0.752474 0.698421 0.907695
O O9 0.000000 0.744773 0.863040
O O10 0.500000 0.718939 0.750000
O O11 0.500000 0.302924 0.036482
O O12 0.750000 0.250000 0.000000
O O13 0.724194 0.374167 0.005472
O O14 0.270121 0.500000 0.500000
O O15 0.500000 0.563920 0.463079
#
# Coordination Sequence:
#
# PCOD9469138 Si02
#       6
#     8  16  16   8  16  16
#     4   7  14  27  45  72 101 130 163 209 261 307
#     4  10  18  31  52  76 105 138 177 220 266 319
#     4  11  20  31  50  78 110 141 177 221 269 322
#     4   9  17  31  49  74 107 140 175 219 271 319
#     4  11  21  34  54  78 106 140 178 223 270 319
#     4  10  22  38  54  75 107 143 180 224 274 325
#
# _framework density 17.237179000000001
#
# number of rings (size 3 to 8) (size 9 to 14) (size 15 to 20)
#    0.000    2.000    2.000    4.500    0.000    1.200 
#    0.000    1.500    0.000    1.200    0.000    7.000 
#    0.000    0.000    0.000    0.000    0.000    0.000 
#
# Total GULP energy -223126.371262 kJ/mol
# GULP energy per Si atom -5578.159282 kJ/mol
# Density = 1.719795 g / cm^3
# Si number density = 17.237179 Si / 1000 Ang^3
#
#
#
# Elastic Constant Matrix: (Units=GPa)
#
#
# Indices 1 2 3 4 5 6 
#
# 1 70.5560 36.0222 58.5287 0.0000 0.0000 0.0000
# 2 36.0222 77.8550 63.6160 0.0000 0.0000 0.0000
# 3 58.5287 63.6160 198.8868 0.0000 0.0000 0.0000
# 4 0.0000 0.0000 0.0000 18.7122 0.0000 0.0000
# 5 0.0000 0.0000 0.0000 0.0000 33.6574 0.0000
# 6 0.0000 0.0000 0.0000 0.0000 0.0000 16.0380
#
#
#
# Elastic Compliance Matrix: (Units=1/GPa)
#
#
# Indices 1 2 3 4 5 6 
#
# 1 0.020778 -0.006251 -0.004115 0.000000 0.000000 0.000000
# 2 -0.006251 0.019270 -0.004324 0.000000 0.000000 0.000000
# 3 -0.004115 -0.004324 0.007622 0.000000 0.000000 0.000000
# 4 0.000000 0.000000 0.000000 0.053441 0.000000 0.000000
# 5 0.000000 0.000000 0.000000 0.000000 0.029711 0.000000
# 6 0.000000 0.000000 0.000000 0.000000 0.000000 0.062352
#
#
# Mechanical properties :
#
#
# Convention : Reuss Voigt Hill
#
# Bulk Modulus (GPa) = 54.67632 73.73685 64.20659
# Shear Modulus (GPa) = 21.86726 26.29023 24.07875
#
# Velocity S-wave (km/s) = 3.56562 3.90962 3.74158
# Velocity P-wave (km/s) = 6.98143 7.95304 7.48302
#
# Compressibility (1/GPa) = 0.01828945
#
# Stress axis : x y z
#
# Youngs Moduli (GPa) = 48.12693 51.89412 131.19744
#
# Poissons Ratio (x) = 0.32441 0.53990
# Poissons Ratio (y) = 0.30086 0.56731
# Poissons Ratio (z) = 0.19805 0.22439
#
# Static dielectric constant tensor:
#      x y z
#    x 1.584050 0.000000 0.000000 
#    y 0.000000 1.551980 0.000000 
#    z 0.000000 0.000000 1.617740 
# 
# From -- ./inp_files/59548.got.cif
#   From: 2010.05.17/outbox.cif.g08.bks.cpg/sg63_30_cif.got.tgz:59548.got - 2010.06.03 15:47:04.
