data_PCOD9469053
_publ_section_title
;
Structure prediction by ZEFSAII (Michael W. Deem and Ramdas Pophale) SiO2 
 PCOD9469053
Probable space group: C M C M
;
_chemical_formula_sum "Si O2"
_cell_formula_units_Z 96
_cell_length_a 8.276134
_cell_length_b 24.323016
_cell_length_c 26.367681
_cell_angle_alpha 90.000000
_cell_angle_beta 90.000000
_cell_angle_gamma 90.000000
_cell_volume 5307.828416
_symmetry_space_group_name_H-M "C M C M"
_symmetry_group_IT_number 63
_symmetry_cell_setting 'orthorhombic'
loop_
_space_group_symop_operation_xyz
x,y,z
-x,-y,1/2+z
x,-y,-z
-x,y,1/2-z
-x,-y,-z
x,y,1/2-z
-x,y,z
x,-y,1/2+z
1/2+x,1/2+y,z
1/2-x,1/2-y,1/2+z
1/2+x,1/2-y,-z
1/2-x,1/2+y,1/2-z
1/2-x,1/2-y,-z
1/2+x,1/2+y,1/2-z
1/2-x,1/2+y,z
1/2+x,1/2-y,1/2+z
loop_
_atom_site_type_symbol
_atom_site_label
_atom_site_fract_x
_atom_site_fract_y
_atom_site_fract_z
Si Si1 0.194796 0.113644 0.905598
Si Si2 0.197405 0.438652 0.808125
Si Si3 0.805518 0.434582 0.308109
Si Si4 0.184781 0.994435 0.559841
Si Si5 0.814489 0.382127 0.905951
Si Si6 0.192229 0.812416 0.499174
O O1 0.246325 0.112037 0.846978
O O2 0.255100 0.156057 0.948405
O O3 0.000000 0.114983 0.907446
O O4 0.248377 0.052795 0.922040
O O5 0.243783 0.427187 0.750000
O O6 0.248919 0.501988 0.820053
O O7 0.253276 0.393362 0.849126
O O8 0.000000 0.438844 0.810305
O O9 0.756096 0.423989 0.250000
O O10 0.000000 0.435656 0.309934
O O11 0.297905 0.943872 0.572713
O O12 0.000000 0.984386 0.578869
O O13 0.172043 0.000000 0.500000
O O14 0.000000 0.364669 0.901552
O O15 0.735972 0.343520 0.948465
O O16 0.250000 0.750000 0.500000
O O17 0.000000 0.813122 0.495500
#
# Coordination Sequence:
#
# PCOD9469053 Si02
#       6
#    16  16  16  16  16  16
#     4  10  20  33  52  75 106 141 173 212 263 314
#     4   8  15  28  46  73 110 144 172 205 246 298
#     4   9  17  30  49  76 111 145 175 210 252 300
#     4  10  18  31  47  71 108 144 169 206 263 315
#     4  11  20  31  53  81 106 139 177 216 258 313
#     4  11  24  42  57  75 102 136 176 224 272 317
#
# _framework density 18.086492
#
# number of rings (size 3 to 8) (size 9 to 14) (size 15 to 20)
#    0.000    2.167    3.333    2.000    0.000    2.000 
#    0.000    0.000    0.000    3.000    0.000    2.333 
#    0.000    0.000    0.000    0.000    0.000    0.000 
#
# Total GULP energy -267242.283897 kJ/mol
# GULP energy per Si atom -5567.547581 kJ/mol
# Density = 1.804533 g / cm^3
# Si number density = 18.086492 Si / 1000 Ang^3
#
#
#
# Elastic Constant Matrix: (Units=GPa)
#
#
# Indices 1 2 3 4 5 6 
#
# 1 13.0738 16.5284 16.3507 0.0000 0.0000 0.0000
# 2 16.5284 95.3829 72.5399 0.0000 0.0000 0.0000
# 3 16.3507 72.5399 156.8706 0.0000 0.0000 0.0000
# 4 0.0000 0.0000 0.0000 10.2828 0.0000 0.0000
# 5 0.0000 0.0000 0.0000 0.0000 21.5263 0.0000
# 6 0.0000 0.0000 0.0000 0.0000 0.0000 58.4760
#
#
#
# Elastic Compliance Matrix: (Units=1/GPa)
#
#
# Indices 1 2 3 4 5 6 
#
# 1 0.099313 -0.014402 -0.003692 0.000000 0.000000 0.000000
# 2 -0.014402 0.018259 -0.006942 0.000000 0.000000 0.000000
# 3 -0.003692 -0.006942 0.009970 0.000000 0.000000 0.000000
# 4 0.000000 0.000000 0.000000 0.097250 0.000000 0.000000
# 5 0.000000 0.000000 0.000000 0.000000 0.046455 0.000000
# 6 0.000000 0.000000 0.000000 0.000000 0.000000 0.017101
#
#
# Mechanical properties :
#
#
# Convention : Reuss Voigt Hill
#
# Bulk Modulus (GPa) = 12.90814 52.90726 32.90770
# Shear Modulus (GPa) = 13.72706 28.71757 21.22231
#
# Velocity S-wave (km/s) = 2.75793 3.98903 3.42918
# Velocity P-wave (km/s) = 4.15860 7.10861 5.82350
#
# Compressibility (1/GPa) = 0.07747052
#
# Stress axis : x y z
#
# Youngs Moduli (GPa) = 10.06913 54.76602 100.30306
#
# Poissons Ratio (x) = 0.78873 0.37030
# Poissons Ratio (y) = 0.14501 0.69635
# Poissons Ratio (z) = 0.03717 0.38021
#
# Static dielectric constant tensor:
#      x y z
#    x 1.674130 0.000000 0.000000 
#    y 0.000000 1.613900 0.000000 
#    z 0.000000 0.000000 1.784580 
# 
# From -- ./inp_files/67251.got.cif
#   From: 2010.05.17/outbox.cif.g08.bks.cpg/sg63_34_cif.got.tgz:67251.got - 2010.06.03 15:47:04.
