data_PCOD9469193
_publ_section_title
;
Structure prediction by ZEFSAII (Michael W. Deem and Ramdas Pophale) SiO2 
 PCOD9469193
Probable space group: C M C M
;
_chemical_formula_sum "Si O2"
_cell_formula_units_Z 112
_cell_length_a 17.058612
_cell_length_b 12.191241
_cell_length_c 27.530914
_cell_angle_alpha 90.000000
_cell_angle_beta 90.000000
_cell_angle_gamma 90.000000
_cell_volume 5725.484426
_symmetry_space_group_name_H-M "C M C M"
_symmetry_group_IT_number 63
_symmetry_cell_setting 'orthorhombic'
loop_
_space_group_symop_operation_xyz
x,y,z
-x,-y,1/2+z
x,-y,-z
-x,y,1/2-z
-x,-y,-z
x,y,1/2-z
-x,y,z
x,-y,1/2+z
1/2+x,1/2+y,z
1/2-x,1/2-y,1/2+z
1/2+x,1/2-y,-z
1/2-x,1/2+y,1/2-z
1/2-x,1/2-y,-z
1/2+x,1/2+y,1/2-z
1/2-x,1/2+y,z
1/2+x,1/2-y,1/2+z
loop_
_atom_site_type_symbol
_atom_site_label
_atom_site_fract_x
_atom_site_fract_y
_atom_site_fract_z
Si Si1 0.913422 0.005159 0.192986
Si Si2 0.349471 0.260595 0.195219
Si Si3 0.095741 0.625667 0.999054
Si Si4 0.594445 0.739313 0.095257
Si Si5 0.904754 0.000239 0.556081
Si Si6 0.664193 0.268132 0.805159
Si Si7 0.905491 0.238628 0.906398
O O1 0.925780 0.014964 0.250000
O O2 0.880056 0.884344 0.187599
O O3 0.000000 0.017964 0.169128
O O4 0.854099 0.103838 0.184325
O O5 0.375816 0.224810 0.250000
O O6 0.255974 0.255266 0.195354
O O7 0.378431 0.208926 0.144703
O O8 0.120435 0.690592 0.047249
O O9 0.000000 0.627555 0.999050
O O10 0.121281 0.500000 0.000000
O O11 0.120826 0.686725 0.950007
O O12 0.500000 0.740991 0.097144
O O13 0.617687 0.613644 0.081911
O O14 0.625116 0.783243 0.147049
O O15 0.000000 0.002295 0.554285
O O16 0.877998 0.000000 0.500000
O O17 0.879768 0.112342 0.582926
O O18 0.634400 0.242193 0.750000
O O19 0.000000 0.236560 0.905274
#
# Coordination Sequence:
#
# PCOD9469193 Si02
#       7
#    16  16  16  16  16  16  16
#     4   9  17  33  59  86 110 144 196 246 283 336
#     4  10  21  36  53  80 118 154 187 234 295 350
#     4   9  18  33  52  75 105 142 185 229 278 342
#     4  10  18  31  55  82 108 141 185 237 288 345
#     4   9  15  27  52  86 115 135 170 236 304 341
#     4  10  21  36  53  80 118 154 187 234 295 350
#     4  10  18  31  55  82 108 141 185 237 288 345
#
# _framework density 19.561662999999999
#
# number of rings (size 3 to 8) (size 9 to 14) (size 15 to 20)
#    0.000    2.429    1.429    1.714    0.000    2.857 
#    2.571    0.714    0.000    0.000    0.000    4.000 
#    0.000    0.000    0.000    0.000    0.000    0.000 
#
# Total GULP energy -311763.009028 kJ/mol
# GULP energy per Si atom -5567.196590 kJ/mol
# Density = 1.951714 g / cm^3
# Si number density = 19.561663 Si / 1000 Ang^3
#
#
#
# Elastic Constant Matrix: (Units=GPa)
#
#
# Indices 1 2 3 4 5 6 
#
# 1 21.8165 11.9345 17.9852 0.0000 0.0000 0.0000
# 2 11.9345 71.8370 44.2133 0.0000 0.0000 0.0000
# 3 17.9852 44.2133 226.7174 0.0000 0.0000 0.0000
# 4 0.0000 0.0000 0.0000 9.2364 0.0000 0.0000
# 5 0.0000 0.0000 0.0000 0.0000 20.3947 0.0000
# 6 0.0000 0.0000 0.0000 0.0000 0.0000 0.5143
#
#
#
# Elastic Compliance Matrix: (Units=1/GPa)
#
#
# Indices 1 2 3 4 5 6 
#
# 1 0.051904 -0.006919 -0.002768 0.000000 0.000000 0.000000
# 2 -0.006919 0.016741 -0.002716 0.000000 0.000000 0.000000
# 3 -0.002768 -0.002716 0.005160 0.000000 0.000000 0.000000
# 4 0.000000 0.000000 0.000000 0.108267 0.000000 0.000000
# 5 0.000000 0.000000 0.000000 0.000000 0.049032 0.000000
# 6 0.000000 0.000000 0.000000 0.000000 0.000000 1.944336
#
#
# Mechanical properties :
#
#
# Convention : Reuss Voigt Hill
#
# Bulk Modulus (GPa) = 20.40868 52.07076 36.23972
# Shear Modulus (GPa) = 2.25573 22.44496 12.35034
#
# Velocity S-wave (km/s) = 1.07501 3.39100 2.51540
# Velocity P-wave (km/s) = 3.46360 6.48139 5.19639
#
# Compressibility (1/GPa) = 0.04899876
#
# Stress axis : x y z
#
# Youngs Moduli (GPa) = 19.26639 59.73181 193.79780
#
# Poissons Ratio (x) = 0.41330 0.53645
# Poissons Ratio (y) = 0.13331 0.52635
# Poissons Ratio (z) = 0.05333 0.16223
#
# Static dielectric constant tensor:
#      x y z
#    x 1.674050 0.000000 0.000000 
#    y 0.000000 1.690200 0.000000 
#    z 0.000000 0.000000 1.785520 
# 
# From -- ./inp_files/73393.got.cif
#   From: 2010.05.17/outbox.cif.g08.bks.cpg/sg63_37_cif.got.tgz:73393.got - 2010.06.03 15:47:04.
