data_PCOD9469964
_publ_section_title
;
Structure prediction by ZEFSAII (Michael W. Deem and Ramdas Pophale) SiO2 
 PCOD9469964
Probable space group: C M C M
;
_chemical_formula_sum "Si O2"
_cell_formula_units_Z 96
_cell_length_a 8.146827
_cell_length_b 28.503854
_cell_length_c 23.548044
_cell_angle_alpha 90.000000
_cell_angle_beta 90.000000
_cell_angle_gamma 90.000000
_cell_volume 5468.231817
_symmetry_space_group_name_H-M "C M C M"
_symmetry_group_IT_number 63
_symmetry_cell_setting 'orthorhombic'
loop_
_space_group_symop_operation_xyz
x,y,z
-x,-y,1/2+z
x,-y,-z
-x,y,1/2-z
-x,-y,-z
x,y,1/2-z
-x,y,z
x,-y,1/2+z
1/2+x,1/2+y,z
1/2-x,1/2-y,1/2+z
1/2+x,1/2-y,-z
1/2-x,1/2+y,1/2-z
1/2-x,1/2-y,-z
1/2+x,1/2+y,1/2-z
1/2-x,1/2+y,z
1/2+x,1/2-y,1/2+z
loop_
_atom_site_type_symbol
_atom_site_label
_atom_site_fract_x
_atom_site_fract_y
_atom_site_fract_z
Si Si1 0.797678 0.622434 0.750000
Si Si2 0.806011 0.351007 0.371318
Si Si3 0.301503 0.442092 0.434163
Si Si4 0.304491 0.198122 0.984063
Si Si5 0.697646 0.608037 0.450214
Si Si6 0.302067 0.466743 0.632887
Si Si7 0.805152 0.513355 0.750000
O O1 0.741254 0.648635 0.692818
O O2 0.742642 0.567587 0.750000
O O3 0.000000 0.621807 0.750000
O O4 0.779094 0.403916 0.393119
O O5 0.736580 0.318979 0.422403
O O6 0.000000 0.341170 0.367786
O O7 0.500000 0.438496 0.429980
O O8 0.256517 0.426512 0.497558
O O9 0.254446 0.493235 0.412707
O O10 0.500000 0.197420 0.979997
O O11 0.250000 0.250000 0.000000
O O12 0.256428 0.159228 0.030891
O O13 0.500000 0.610057 0.448449
O O14 0.755796 0.583174 0.392310
O O15 0.500000 0.465253 0.634297
O O16 0.246242 0.484941 0.693920
O O17 0.000000 0.517053 0.750000
#
# Coordination Sequence:
#
# PCOD9469964 Si02
#       7
#     8  16  16  16  16  16   8
#     4   9  16  29  47  68  99 132 163 196 233 282
#     4   9  17  30  48  71  98 130 163 198 243 294
#     4   9  16  27  45  70  99 130 162 197 238 285
#     4  10  20  34  54  76  98 124 161 209 262 312
#     4   9  18  32  50  72  98 128 162 202 247 294
#     4  10  19  31  47  69 100 135 170 203 238 285
#     4  11  21  31  47  68  99 142 175 204 239 280
#
# _framework density 17.555948999999998
#
# number of rings (size 3 to 8) (size 9 to 14) (size 15 to 20)
#    0.000    2.500    1.667    1.250    0.000    3.333 
#    0.000    0.417    0.000    6.000    0.000    5.833 
#    0.000    0.000    0.000    0.000    0.000    0.000 
#
# Total GULP energy -267409.144035 kJ/mol
# GULP energy per Si atom -5571.023834 kJ/mol
# Density = 1.751599 g / cm^3
# Si number density = 17.555949 Si / 1000 Ang^3
#
#
#
# Elastic Constant Matrix: (Units=GPa)
#
#
# Indices 1 2 3 4 5 6 
#
# 1 10.1226 15.1197 10.5555 0.0000 0.0000 0.0000
# 2 15.1197 125.4291 73.5886 0.0000 0.0000 0.0000
# 3 10.5555 73.5886 82.7211 0.0000 0.0000 0.0000
# 4 0.0000 0.0000 0.0000 11.6077 0.0000 0.0000
# 5 0.0000 0.0000 0.0000 0.0000 16.7351 0.0000
# 6 0.0000 0.0000 0.0000 0.0000 0.0000 19.1152
#
#
#
# Elastic Compliance Matrix: (Units=1/GPa)
#
#
# Indices 1 2 3 4 5 6 
#
# 1 0.121533 -0.011612 -0.005178 0.000000 0.000000 0.000000
# 2 -0.011612 0.017786 -0.014341 0.000000 0.000000 0.000000
# 3 -0.005178 -0.014341 0.025507 0.000000 0.000000 0.000000
# 4 0.000000 0.000000 0.000000 0.086150 0.000000 0.000000
# 5 0.000000 0.000000 0.000000 0.000000 0.059755 0.000000
# 6 0.000000 0.000000 0.000000 0.000000 0.000000 0.052315
#
#
# Mechanical properties :
#
#
# Convention : Reuss Voigt Hill
#
# Bulk Modulus (GPa) = 9.74994 46.31117 28.03056
# Shear Modulus (GPa) = 10.88151 17.42551 14.15351
#
# Velocity S-wave (km/s) = 2.49232 3.15393 2.84244
# Velocity P-wave (km/s) = 3.72127 6.30075 5.17433
#
# Compressibility (1/GPa) = 0.10256475
#
# Stress axis : x y z
#
# Youngs Moduli (GPa) = 8.22820 56.22385 39.20499
#
# Poissons Ratio (x) = 0.65289 0.20299
# Poissons Ratio (y) = 0.09555 0.56223
# Poissons Ratio (z) = 0.04260 0.80629
#
# Static dielectric constant tensor:
#      x y z
#    x 1.626880 0.000000 0.000000 
#    y 0.000000 1.590400 0.000000 
#    z 0.000000 0.000000 1.631630 
# 
# From -- ./inp_files/60066.got.cif
#   From: 2010.05.17/outbox.cif.g08.bks.cpg/sg63_31_cif.got.tgz:60066.got - 2010.06.03 15:47:04.
