data_PCOD9469047
_publ_section_title
;
Structure prediction by ZEFSAII (Michael W. Deem and Ramdas Pophale) SiO2 
 PCOD9469047
Probable space group: C M C M
;
_chemical_formula_sum "Si O2"
_cell_formula_units_Z 80
_cell_length_a 28.082255
_cell_length_b 26.619523
_cell_length_c 7.548043
_cell_angle_alpha 90.000000
_cell_angle_beta 90.000000
_cell_angle_gamma 90.000000
_cell_volume 5642.435630
_symmetry_space_group_name_H-M "C M C M"
_symmetry_group_IT_number 63
_symmetry_cell_setting 'orthorhombic'
loop_
_space_group_symop_operation_xyz
x,y,z
-x,-y,1/2+z
x,-y,-z
-x,y,1/2-z
-x,-y,-z
x,y,1/2-z
-x,y,z
x,-y,1/2+z
1/2+x,1/2+y,z
1/2-x,1/2-y,1/2+z
1/2+x,1/2-y,-z
1/2-x,1/2+y,1/2-z
1/2-x,1/2-y,-z
1/2+x,1/2+y,1/2-z
1/2-x,1/2+y,z
1/2+x,1/2-y,1/2+z
loop_
_atom_site_type_symbol
_atom_site_label
_atom_site_fract_x
_atom_site_fract_y
_atom_site_fract_z
Si Si1 0.716392 0.298022 0.039174
Si Si2 0.874320 0.441435 0.039566
Si Si3 0.444688 0.101106 0.250000
Si Si4 0.444687 0.222391 0.250000
Si Si5 0.803387 0.643736 0.535353
Si Si6 0.870847 0.263164 0.452775
O O1 0.709801 0.302152 0.250000
O O2 0.749838 0.343673 0.974168
O O3 0.750000 0.250000 0.000000
O O4 0.665397 0.283914 0.960388
O O5 0.882689 0.434396 0.250000
O O6 0.828140 0.408327 0.987388
O O7 0.867652 0.500000 0.000000
O O8 0.917479 0.420475 0.921443
O O9 0.500000 0.086330 0.250000
O O10 0.442143 0.161546 0.250000
O O11 0.500000 0.236665 0.250000
O O12 0.415670 0.241496 0.420319
O O13 0.801470 0.646224 0.750000
O O14 0.839277 0.688871 0.482469
O O15 0.884652 0.272591 0.250000
#
# Coordination Sequence:
#
# PCOD9469047 Si02
#       6
#    16  16   8   8  16  16
#     4   9  15  25  43  67  87 112 136 167 214 258
#     4  11  21  36  50  65  85 110 142 187 233 272
#     4  11  24  38  50  63  76 108 152 193 238 267
#     4  11  22  34  50  65  84 118 150 181 228 267
#     4   8  16  28  45  65  87 110 138 175 218 263
#     4  10  18  31  46  65  91 110 139 182 216 255
#
# _framework density 14.178274999999999
#
# number of rings (size 3 to 8) (size 9 to 14) (size 15 to 20)
#    0.000    2.200    4.000    1.800    0.000    1.200 
#    1.800    2.000    0.000    0.000    0.000    0.000 
#    0.000    0.000    0.000    0.000    0.000    1.000 
#
# Total GULP energy -222847.985339 kJ/mol
# GULP energy per Si atom -5571.199633 kJ/mol
# Density = 1.414600 g / cm^3
# Si number density = 14.178275 Si / 1000 Ang^3
#
#
#
# Elastic Constant Matrix: (Units=GPa)
#
#
# Indices 1 2 3 4 5 6 
#
# 1 113.4267 48.7564 39.5467 0.0000 0.0000 0.0000
# 2 48.7564 45.6382 16.0256 0.0000 0.0000 0.0000
# 3 39.5467 16.0256 79.9473 0.0000 0.0000 0.0000
# 4 0.0000 0.0000 0.0000 8.2395 0.0000 0.0000
# 5 0.0000 0.0000 0.0000 0.0000 17.2432 0.0000
# 6 0.0000 0.0000 0.0000 0.0000 0.0000 19.0828
#
#
#
# Elastic Compliance Matrix: (Units=1/GPa)
#
#
# Indices 1 2 3 4 5 6 
#
# 1 0.018324 -0.017635 -0.005529 0.000000 0.000000 0.000000
# 2 -0.017635 0.040542 0.000597 0.000000 0.000000 0.000000
# 3 -0.005529 0.000597 0.015124 0.000000 0.000000 0.000000
# 4 0.000000 0.000000 0.000000 0.121366 0.000000 0.000000
# 5 0.000000 0.000000 0.000000 0.000000 0.057994 0.000000
# 6 0.000000 0.000000 0.000000 0.000000 0.000000 0.052403
#
#
# Mechanical properties :
#
#
# Convention : Reuss Voigt Hill
#
# Bulk Modulus (GPa) = 34.65653 49.74108 42.19880
# Shear Modulus (GPa) = 13.86937 17.89201 15.88069
#
# Velocity S-wave (km/s) = 3.13103 3.55622 3.35038
# Velocity P-wave (km/s) = 6.12924 7.21256 6.69286
#
# Compressibility (1/GPa) = 0.02885459
#
# Stress axis : x y z
#
# Youngs Moduli (GPa) = 54.57194 24.66599 66.12074
#
# Poissons Ratio (x) = 0.43498 0.36561
# Poissons Ratio (y) = 0.96237 -0.03944
# Poissons Ratio (z) = 0.30175 -0.01471
#
# Static dielectric constant tensor:
#      x y z
#    x 1.470580 0.000000 0.000000 
#    y 0.000000 1.464300 0.000000 
#    z 0.000000 0.000000 1.558150 
# 
# From -- ./inp_files/10644.got.cif
#   From: 2010.05.17/outbox.cif.g08.bks.cpg/sg63_6_cif.got.tgz:10644.got - 2010.06.03 15:47:04.
