data_PCOD9469933
_publ_section_title
;
Structure prediction by ZEFSAII (Michael W. Deem and Ramdas Pophale) SiO2 
 PCOD9469933
Probable space group: C M C M
;
_chemical_formula_sum "Si O2"
_cell_formula_units_Z 80
_cell_length_a 19.296091
_cell_length_b 29.895606
_cell_length_c 10.155623
_cell_angle_alpha 90.000000
_cell_angle_beta 90.000000
_cell_angle_gamma 90.000000
_cell_volume 5858.457319
_symmetry_space_group_name_H-M "C M C M"
_symmetry_group_IT_number 63
_symmetry_cell_setting 'orthorhombic'
loop_
_space_group_symop_operation_xyz
x,y,z
-x,-y,1/2+z
x,-y,-z
-x,y,1/2-z
-x,-y,-z
x,y,1/2-z
-x,y,z
x,-y,1/2+z
1/2+x,1/2+y,z
1/2-x,1/2-y,1/2+z
1/2+x,1/2-y,-z
1/2-x,1/2+y,1/2-z
1/2-x,1/2-y,-z
1/2+x,1/2+y,1/2-z
1/2-x,1/2+y,z
1/2+x,1/2-y,1/2+z
loop_
_atom_site_type_symbol
_atom_site_label
_atom_site_fract_x
_atom_site_fract_y
_atom_site_fract_z
Si Si1 0.654753 0.777630 0.594118
Si Si2 0.582914 0.542133 0.750000
Si Si3 0.000000 0.165793 0.591596
Si Si4 0.271256 0.683288 0.594708
Si Si5 0.916720 0.064844 0.250000
Si Si6 0.370204 0.394682 0.478825
Si Si7 0.000000 0.732663 0.409538
O O1 0.664127 0.788459 0.750000
O O2 0.673478 0.724534 0.582298
O O3 0.707851 0.803139 0.499411
O O4 0.575014 0.786867 0.554746
O O5 0.500000 0.552599 0.750000
O O6 0.589353 0.488869 0.750000
O O7 0.617980 0.565287 0.875624
O O8 0.933472 0.139131 0.545571
O O9 0.000000 0.216279 0.542345
O O10 0.000000 0.166907 0.750000
O O11 0.253089 0.681367 0.750000
O O12 0.303952 0.636162 0.550494
O O13 0.879946 0.085392 0.377165
O O14 0.000000 0.074944 0.250000
O O15 0.000000 0.733701 0.250000
#
# Coordination Sequence:
#
# PCOD9469933 Si02
#       7
#    16   8   8  16   8  16   8
#     4   9  18  30  46  67  90 116 152 195 229 262
#     4  11  20  34  50  63  86 123 161 194 231 273
#     4  11  16  27  46  67  83 122 168 187 213 270
#     4  10  19  31  46  65  89 121 157 188 224 270
#     4  11  24  32  42  69  96 115 151 206 243 259
#     4  12  19  32  48  64  88 124 160 194 227 269
#     4   9  16  28  48  67  90 118 158 194 225 268
#
# _framework density 13.655472
#
# number of rings (size 3 to 8) (size 9 to 14) (size 15 to 20)
#    0.000    1.600    6.000    0.600    1.400    1.600 
#    0.000    0.500    2.200    0.000    0.000    0.000 
#    0.000    0.000    0.000    5.400    0.000    0.100 
#
# Total GULP energy -222910.044765 kJ/mol
# GULP energy per Si atom -5572.751119 kJ/mol
# Density = 1.362439 g / cm^3
# Si number density = 13.655472 Si / 1000 Ang^3
#
#
#
# Elastic Constant Matrix: (Units=GPa)
#
#
# Indices 1 2 3 4 5 6 
#
# 1 89.9445 34.3101 46.7099 0.0000 0.0000 0.0000
# 2 34.3101 65.6019 47.5959 0.0000 0.0000 0.0000
# 3 46.7099 47.5959 114.4305 0.0000 0.0000 0.0000
# 4 0.0000 0.0000 0.0000 9.1213 0.0000 0.0000
# 5 0.0000 0.0000 0.0000 0.0000 14.8298 0.0000
# 6 0.0000 0.0000 0.0000 0.0000 0.0000 26.6877
#
#
#
# Elastic Compliance Matrix: (Units=1/GPa)
#
#
# Indices 1 2 3 4 5 6 
#
# 1 0.015142 -0.004919 -0.004135 0.000000 0.000000 0.000000
# 2 -0.004919 0.023430 -0.007737 0.000000 0.000000 0.000000
# 3 -0.004135 -0.007737 0.013645 0.000000 0.000000 0.000000
# 4 0.000000 0.000000 0.000000 0.109633 0.000000 0.000000
# 5 0.000000 0.000000 0.000000 0.000000 0.067432 0.000000
# 6 0.000000 0.000000 0.000000 0.000000 0.000000 0.037470
#
#
# Mechanical properties :
#
#
# Convention : Reuss Voigt Hill
#
# Bulk Modulus (GPa) = 53.66567 58.57875 56.12221
# Shear Modulus (GPa) = 16.31077 19.55183 17.93130
#
# Velocity S-wave (km/s) = 3.45983 3.78801 3.62763
# Velocity P-wave (km/s) = 7.43946 7.88180 7.66383
#
# Compressibility (1/GPa) = 0.01863389
#
# Stress axis : x y z
#
# Youngs Moduli (GPa) = 66.04282 42.68042 73.28758
#
# Poissons Ratio (x) = 0.20996 0.30301
# Poissons Ratio (y) = 0.32489 0.56705
# Poissons Ratio (z) = 0.27306 0.33023
#
# Static dielectric constant tensor:
#      x y z
#    x 1.452280 0.000000 0.000000 
#    y 0.000000 1.435200 0.000000 
#    z 0.000000 0.000000 1.452830 
# 
# From -- ./inp_files/6757.got.cif
#   From: 2010.05.17/outbox.cif.g08.bks.cpg/sg63_4_cif.got.tgz:6757.got - 2010.06.03 15:47:04.
