data_PCOD9469521
_publ_section_title
;
Structure prediction by ZEFSAII (Michael W. Deem and Ramdas Pophale) SiO2 
 PCOD9469521
Probable space group: C M C M
;
_chemical_formula_sum "Si O2"
_cell_formula_units_Z 72
_cell_length_a 25.734987
_cell_length_b 11.037666
_cell_length_c 14.338039
_cell_angle_alpha 90.000000
_cell_angle_beta 90.000000
_cell_angle_gamma 90.000000
_cell_volume 4072.780069
_symmetry_space_group_name_H-M "C M C M"
_symmetry_group_IT_number 63
_symmetry_cell_setting 'orthorhombic'
loop_
_space_group_symop_operation_xyz
x,y,z
-x,-y,1/2+z
x,-y,-z
-x,y,1/2-z
-x,-y,-z
x,y,1/2-z
-x,y,z
x,-y,1/2+z
1/2+x,1/2+y,z
1/2-x,1/2-y,1/2+z
1/2+x,1/2-y,-z
1/2-x,1/2+y,1/2-z
1/2-x,1/2-y,-z
1/2+x,1/2+y,1/2-z
1/2-x,1/2+y,z
1/2+x,1/2-y,1/2+z
loop_
_atom_site_type_symbol
_atom_site_label
_atom_site_fract_x
_atom_site_fract_y
_atom_site_fract_z
Si Si1 0.783508 0.931699 0.142478
Si Si2 0.640721 0.782867 0.588528
Si Si3 0.939233 0.942176 0.750000
Si Si4 0.875491 0.100624 0.428087
Si Si5 0.801373 0.500000 0.000000
Si Si6 0.062007 0.765976 0.250000
O O1 0.768522 0.950581 0.250000
O O2 0.817255 0.809155 0.134042
O O3 0.821354 0.041668 0.108608
O O4 0.736113 0.926833 0.070621
O O5 0.629430 0.720157 0.488971
O O6 0.664985 0.911681 0.564588
O O7 0.591781 0.783229 0.658309
O O8 0.929884 0.087789 0.750000
O O9 0.000000 0.921602 0.750000
O O10 0.912433 0.888337 0.659275
O O11 0.897080 0.000000 0.500000
O O12 0.000000 0.743300 0.250000
#
# Coordination Sequence:
#
# PCOD9469521 Si02
#       6
#    16  16   8  16   8   8
#     4  11  20  36  60  88 122 158 191 242 300 345
#     4  11  22  42  58  88 126 153 206 246 290 368
#     4  11  20  34  60  94 116 149 200 255 322 357
#     4  10  18  35  56  83 124 154 184 251 298 350
#     4  12  26  38  59  90 119 170 206 230 294 362
#     4  11  22  40  68  90 114 157 202 257 310 355
#
# _framework density 17.678343000000002
#
# number of rings (size 3 to 8) (size 9 to 14) (size 15 to 20)
#    0.000    1.111   10.000    0.667    1.556    1.333 
#    2.000    0.556    0.000    1.333    0.000    0.000 
#    0.000    0.000    0.000    0.000    0.000    0.000 
#
# Total GULP energy -200902.610275 kJ/mol
# GULP energy per Si atom -5580.628063 kJ/mol
# Density = 1.763811 g / cm^3
# Si number density = 17.678343 Si / 1000 Ang^3
#
#
#
# Elastic Constant Matrix: (Units=GPa)
#
#
# Indices 1 2 3 4 5 6 
#
# 1 80.0800 37.9675 38.8096 0.0000 0.0000 0.0000
# 2 37.9675 36.7597 12.2599 0.0000 0.0000 0.0000
# 3 38.8096 12.2599 121.9553 0.0000 0.0000 0.0000
# 4 0.0000 0.0000 0.0000 4.6774 0.0000 0.0000
# 5 0.0000 0.0000 0.0000 0.0000 171.3024 0.0000
# 6 0.0000 0.0000 0.0000 0.0000 0.0000 5.4980
#
#
#
# Elastic Compliance Matrix: (Units=1/GPa)
#
#
# Indices 1 2 3 4 5 6 
#
# 1 0.028519 -0.027346 -0.006326 0.000000 0.000000 0.000000
# 2 -0.027346 0.054369 0.003237 0.000000 0.000000 0.000000
# 3 -0.006326 0.003237 0.009888 0.000000 0.000000 0.000000
# 4 0.000000 0.000000 0.000000 0.213793 0.000000 0.000000
# 5 0.000000 0.000000 0.000000 0.000000 0.005838 0.000000
# 6 0.000000 0.000000 0.000000 0.000000 0.000000 0.181884
#
#
# Mechanical properties :
#
#
# Convention : Reuss Voigt Hill
#
# Bulk Modulus (GPa) = 31.34430 46.31878 38.83154
# Shear Modulus (GPa) = 8.83712 46.27942 27.55827
#
# Velocity S-wave (km/s) = 2.23823 5.12205 3.95254
# Velocity P-wave (km/s) = 4.94453 7.82549 6.54548
#
# Compressibility (1/GPa) = 0.03190372
#
# Stress axis : x y z
#
# Youngs Moduli (GPa) = 35.06470 18.39298 101.13665
#
# Poissons Ratio (x) = 0.50297 0.63984
# Poissons Ratio (y) = 0.95887 -0.32735
# Poissons Ratio (z) = 0.22184 -0.05953
#
# Static dielectric constant tensor:
#      x y z
#    x 1.602170 0.000000 0.000000 
#    y 0.000000 1.590620 0.000000 
#    z 0.000000 0.000000 1.608350 
# 
# From -- ./inp_files/36407.got.cif
#   From: 2010.05.17/outbox.cif.g08.bks.cpg/sg63_19_cif.got.tgz:36407.got - 2010.06.03 15:47:04.
