data_PCOD9469122
_publ_section_title
;
Structure prediction by ZEFSAII (Michael W. Deem and Ramdas Pophale) SiO2 
 PCOD9469122
Probable space group: C M C M
;
_chemical_formula_sum "Si O2"
_cell_formula_units_Z 56
_cell_length_a 13.945599
_cell_length_b 24.153221
_cell_length_c 7.539974
_cell_angle_alpha 90.000000
_cell_angle_beta 90.000000
_cell_angle_gamma 90.000000
_cell_volume 2539.697997
_symmetry_space_group_name_H-M "C M C M"
_symmetry_group_IT_number 63
_symmetry_cell_setting 'orthorhombic'
loop_
_space_group_symop_operation_xyz
x,y,z
-x,-y,1/2+z
x,-y,-z
-x,y,1/2-z
-x,-y,-z
x,y,1/2-z
-x,y,z
x,-y,1/2+z
1/2+x,1/2+y,z
1/2-x,1/2-y,1/2+z
1/2+x,1/2-y,-z
1/2-x,1/2+y,1/2-z
1/2-x,1/2-y,-z
1/2+x,1/2+y,1/2-z
1/2-x,1/2+y,z
1/2+x,1/2-y,1/2+z
loop_
_atom_site_type_symbol
_atom_site_label
_atom_site_fract_x
_atom_site_fract_y
_atom_site_fract_z
Si Si1 0.311483 0.627871 0.037860
Si Si2 0.890229 0.760003 0.537126
Si Si3 0.395222 0.134286 0.537135
Si Si4 0.000000 0.064736 0.037232
O O1 0.321212 0.631165 0.250000
O O2 0.323109 0.691082 0.967611
O O3 0.401623 0.592680 0.970189
O O4 0.205126 0.605179 0.003845
O O5 0.876899 0.756061 0.750000
O O6 0.884164 0.697571 0.467178
O O7 0.000000 0.778871 0.508682
O O8 0.400424 0.136925 0.750000
O O9 0.500000 0.113321 0.475588
O O10 0.000000 0.072296 0.250000
O O11 0.000000 0.000000 0.000000
#
# Coordination Sequence:
#
# PCOD9469122 Si02
#       4
#    16  16  16   8
#     4  10  18  31  52  73  97 131 170 209 250 297
#     4   8  13  25  45  69 100 136 168 198 238 294
#     4   9  18  30  46  72 106 140 168 196 239 294
#     4  10  22  38  56  78 100 128 168 216 267 306
#
# _framework density 22.049865
#
# number of rings (size 3 to 8) (size 9 to 14) (size 15 to 20)
#    0.000    2.857    1.429    2.571    0.000    1.714 
#    0.000    0.000    0.000    2.571    0.000    0.000 
#    0.000    0.000    0.000    0.000    0.000    0.000 
#
# Total GULP energy -156091.640064 kJ/mol
# GULP energy per Si atom -5574.701431 kJ/mol
# Density = 2.199968 g / cm^3
# Si number density = 22.049865 Si / 1000 Ang^3
#
#
#
# Elastic Constant Matrix: (Units=GPa)
#
#
# Indices 1 2 3 4 5 6 
#
# 1 216.9155 38.7044 7.6669 0.0000 0.0000 0.0000
# 2 38.7044 27.3507 1.3007 0.0000 0.0000 0.0000
# 3 7.6669 1.3007 56.9007 0.0000 0.0000 0.0000
# 4 0.0000 0.0000 0.0000 9.2331 0.0000 0.0000
# 5 0.0000 0.0000 0.0000 0.0000 21.6880 0.0000
# 6 0.0000 0.0000 0.0000 0.0000 0.0000 12.0360
#
#
#
# Elastic Compliance Matrix: (Units=1/GPa)
#
#
# Indices 1 2 3 4 5 6 
#
# 1 0.006190 -0.008730 -0.000635 0.000000 0.000000 0.000000
# 2 -0.008730 0.048913 0.000058 0.000000 0.000000 0.000000
# 3 -0.000635 0.000058 0.017659 0.000000 0.000000 0.000000
# 4 0.000000 0.000000 0.000000 0.108306 0.000000 0.000000
# 5 0.000000 0.000000 0.000000 0.000000 0.046108 0.000000
# 6 0.000000 0.000000 0.000000 0.000000 0.000000 0.083084
#
#
# Mechanical properties :
#
#
# Convention : Reuss Voigt Hill
#
# Bulk Modulus (GPa) = 18.46736 44.05677 31.26206
# Shear Modulus (GPa) = 14.41244 25.49107 19.95176
#
# Velocity S-wave (km/s) = 2.55939 3.40378 3.01133
# Velocity P-wave (km/s) = 4.13853 5.95580 5.12830
#
# Compressibility (1/GPa) = 0.05414960
#
# Stress axis : x y z
#
# Youngs Moduli (GPa) = 161.54710 20.44454 56.62950
#
# Poissons Ratio (x) = 0.17847 0.03593
# Poissons Ratio (y) = 1.41024 -0.00329
# Poissons Ratio (z) = 0.10250 -0.00119
#
# Static dielectric constant tensor:
#      x y z
#    x 1.904150 0.000000 0.000000 
#    y 0.000000 1.775910 0.000000 
#    z 0.000000 0.000000 1.842630 
# 
# From -- ./inp_files/3964.got.cif
#   From: 2010.05.17/outbox.cif.g08.bks.cpg/sg63_2_cif.got.tgz:3964.got - 2010.06.03 15:47:04.
