data_PCOD9469940
_publ_section_title
;
Structure prediction by ZEFSAII (Michael W. Deem and Ramdas Pophale) SiO2 
 PCOD9469940
Probable space group: C M C M
;
_chemical_formula_sum "Si O2"
_cell_formula_units_Z 96
_cell_length_a 27.048848
_cell_length_b 29.456813
_cell_length_c 8.760464
_cell_angle_alpha 90.000000
_cell_angle_beta 90.000000
_cell_angle_gamma 90.000000
_cell_volume 6980.099933
_symmetry_space_group_name_H-M "C M C M"
_symmetry_group_IT_number 63
_symmetry_cell_setting 'orthorhombic'
loop_
_space_group_symop_operation_xyz
x,y,z
-x,-y,1/2+z
x,-y,-z
-x,y,1/2-z
-x,-y,-z
x,y,1/2-z
-x,y,z
x,-y,1/2+z
1/2+x,1/2+y,z
1/2-x,1/2-y,1/2+z
1/2+x,1/2-y,-z
1/2-x,1/2+y,1/2-z
1/2-x,1/2-y,-z
1/2+x,1/2+y,1/2-z
1/2-x,1/2+y,z
1/2+x,1/2-y,1/2+z
loop_
_atom_site_type_symbol
_atom_site_label
_atom_site_fract_x
_atom_site_fract_y
_atom_site_fract_z
Si Si1 0.708674 0.047314 0.068372
Si Si2 0.401844 0.047928 0.567385
Si Si3 0.202048 0.224546 0.567103
Si Si4 0.056641 0.639296 0.068326
Si Si5 0.757956 0.637927 0.567427
Si Si6 0.856065 0.697943 0.932361
O O1 0.703534 0.043962 0.250000
O O2 0.654219 0.053793 0.994365
O O3 0.740487 0.090768 0.020544
O O4 0.728081 0.000000 0.000000
O O5 0.401092 0.046239 0.750000
O O6 0.432400 0.090836 0.509148
O O7 0.420126 0.000000 0.500000
O O8 0.201992 0.228872 0.750000
O O9 0.250000 0.250000 0.500000
O O10 0.212696 0.171863 0.530371
O O11 0.156534 0.252310 0.497824
O O12 0.063802 0.634651 0.250000
O O13 0.000000 0.652632 0.039117
O O14 0.095740 0.675144 0.003255
O O15 0.758086 0.629875 0.750000
O O16 0.808871 0.665329 0.531594
O O17 0.859837 0.699891 0.750000
#
# Coordination Sequence:
#
# PCOD9469940 Si02
#       6
#    16  16  16  16  16  16
#     4  11  20  29  44  62  84 112 141 174 211 252
#     4  11  21  34  49  62  79 103 136 176 220 264
#     4   9  17  28  44  64  87 109 134 167 206 250
#     4  11  23  36  49  64  81 105 139 177 220 265
#     4   9  17  29  44  64  86 109 136 169 207 249
#     4  10  19  31  47  64  85 108 134 171 213 257
#
# _framework density 13.753385
#
# number of rings (size 3 to 8) (size 9 to 14) (size 15 to 20)
#    0.000    1.833    1.667    6.500    0.000    5.000 
#    0.000    0.000    0.000    0.000    0.000    0.000 
#    0.000    0.000    0.000    0.000    0.000    0.833 
#
# Total GULP energy -267768.621148 kJ/mol
# GULP energy per Si atom -5578.512941 kJ/mol
# Density = 1.372208 g / cm^3
# Si number density = 13.753385 Si / 1000 Ang^3
#
#
#
# Elastic Constant Matrix: (Units=GPa)
#
#
# Indices 1 2 3 4 5 6 
#
# 1 54.7232 52.7091 39.5403 0.0000 0.0000 0.0000
# 2 52.7091 98.6520 59.9067 0.0000 0.0000 0.0000
# 3 39.5403 59.9067 89.1326 0.0000 0.0000 0.0000
# 4 0.0000 0.0000 0.0000 25.2391 0.0000 0.0000
# 5 0.0000 0.0000 0.0000 0.0000 15.3958 0.0000
# 6 0.0000 0.0000 0.0000 0.0000 0.0000 18.0433
#
#
#
# Elastic Compliance Matrix: (Units=1/GPa)
#
#
# Indices 1 2 3 4 5 6 
#
# 1 0.039238 -0.017562 -0.005603 0.000000 0.000000 0.000000
# 2 -0.017562 0.024987 -0.009003 0.000000 0.000000 0.000000
# 3 -0.005603 -0.009003 0.019756 0.000000 0.000000 0.000000
# 4 0.000000 0.000000 0.000000 0.039621 0.000000 0.000000
# 5 0.000000 0.000000 0.000000 0.000000 0.064953 0.000000
# 6 0.000000 0.000000 0.000000 0.000000 0.000000 0.055422
#
#
# Mechanical properties :
#
#
# Convention : Reuss Voigt Hill
#
# Bulk Modulus (GPa) = 50.90480 60.75780 55.83130
# Shear Modulus (GPa) = 15.87996 17.75909 16.81953
#
# Velocity S-wave (km/s) = 3.40166 3.59730 3.50085
# Velocity P-wave (km/s) = 7.24716 7.84389 7.55142
#
# Compressibility (1/GPa) = 0.01964451
#
# Stress axis : x y z
#
# Youngs Moduli (GPa) = 25.48549 40.02008 50.61790
#
# Poissons Ratio (x) = 0.70285 0.28359
# Poissons Ratio (y) = 0.44759 0.45573
# Poissons Ratio (z) = 0.14279 0.36031
#
# Static dielectric constant tensor:
#      x y z
#    x 1.422620 0.000000 0.000000 
#    y 0.000000 1.470660 0.000000 
#    z 0.000000 0.000000 1.456310 
# 
# From -- ./inp_files/12987.got.cif
#   From: 2010.05.17/outbox.cif.g08.bks.cpg/sg63_7_cif.got.tgz:12987.got - 2010.06.03 15:47:04.
