data_PCOD9469440
_publ_section_title
;
Structure prediction by ZEFSAII (Michael W. Deem and Ramdas Pophale) SiO2 
 PCOD9469440
Probable space group: C M C M
;
_chemical_formula_sum "Si O2"
_cell_formula_units_Z 84
_cell_length_a 12.181324
_cell_length_b 36.867051
_cell_length_c 10.003507
_cell_angle_alpha 90.000000
_cell_angle_beta 90.000000
_cell_angle_gamma 90.000000
_cell_volume 4492.469888
_symmetry_space_group_name_H-M "C M C M"
_symmetry_group_IT_number 63
_symmetry_cell_setting 'orthorhombic'
loop_
_space_group_symop_operation_xyz
x,y,z
-x,-y,1/2+z
x,-y,-z
-x,y,1/2-z
-x,-y,-z
x,y,1/2-z
-x,y,z
x,-y,1/2+z
1/2+x,1/2+y,z
1/2-x,1/2-y,1/2+z
1/2+x,1/2-y,-z
1/2-x,1/2+y,1/2-z
1/2-x,1/2-y,-z
1/2+x,1/2+y,1/2-z
1/2-x,1/2+y,z
1/2+x,1/2-y,1/2+z
loop_
_atom_site_type_symbol
_atom_site_label
_atom_site_fract_x
_atom_site_fract_y
_atom_site_fract_z
Si Si1 0.276621 0.169244 0.540014
Si Si2 0.377831 0.396045 0.408027
Si Si3 0.000000 0.560094 0.595517
Si Si4 0.000000 0.308618 0.750000
Si Si5 0.756148 0.466659 0.092139
Si Si6 0.500000 0.864330 0.500909
Si Si7 0.237174 0.297563 0.750000
Si Si8 0.865501 0.724695 0.750000
O O1 0.176401 0.143424 0.577367
O O2 0.385723 0.145441 0.568076
O O3 0.257756 0.179344 0.385552
O O4 0.306841 0.205138 0.623663
O O5 0.386403 0.401997 0.250000
O O6 0.500000 0.397496 0.467226
O O7 0.300527 0.429044 0.454923
O O8 0.887549 0.538332 0.581503
O O9 0.000000 0.592607 0.488074
O O10 0.000000 0.575041 0.750000
O O11 0.000000 0.336604 0.874089
O O12 0.109430 0.284626 0.750000
O O13 0.731629 0.472708 0.250000
O O14 0.720517 0.500000 0.000000
O O15 0.327210 0.266251 0.750000
O O16 0.000000 0.720774 0.750000
#
# Coordination Sequence:
#
# PCOD9469440 Si02
#       8
#    16  16   8   4  16   8   8   8
#     4  11  21  40  63  87 119 152 197 245 291 344
#     4  10  21  38  61  87 114 155 201 243 289 344
#     4  10  19  31  58  86 117 149 186 240 295 335
#     4   8  20  40  54  80 124 158 180 234 296 354
#     4  10  21  38  57  84 119 151 189 238 292 347
#     4  10  18  33  61  88 109 151 195 236 287 339
#     4  10  24  42  58  86 129 155 183 245 304 349
#     4  12  24  38  64  92 114 157 204 238 286 357
#
# _framework density 18.697955
#
# number of rings (size 3 to 8) (size 9 to 14) (size 15 to 20)
#    0.000    1.714    3.810    0.857    1.333    1.143 
#    5.143    0.000    0.000    0.000    0.000    0.000 
#    0.000    0.000    0.000    0.000    0.000    0.000 
#
# Total GULP energy -233847.482336 kJ/mol
# GULP energy per Si atom -5567.797198 kJ/mol
# Density = 1.865540 g / cm^3
# Si number density = 18.697955 Si / 1000 Ang^3
#
#
#
# Elastic Constant Matrix: (Units=GPa)
#
#
# Indices 1 2 3 4 5 6 
#
# 1 108.2590 38.5846 20.8342 0.0000 0.0000 0.0000
# 2 38.5846 78.3055 25.1342 0.0000 0.0000 0.0000
# 3 20.8342 25.1342 57.3495 0.0000 0.0000 0.0000
# 4 0.0000 0.0000 0.0000 19.2920 0.0000 0.0000
# 5 0.0000 0.0000 0.0000 0.0000 12.3884 0.0000
# 6 0.0000 0.0000 0.0000 0.0000 0.0000 18.8757
#
#
#
# Elastic Compliance Matrix: (Units=1/GPa)
#
#
# Indices 1 2 3 4 5 6 
#
# 1 0.011390 -0.004985 -0.001953 0.000000 0.000000 0.000000
# 2 -0.004985 0.017043 -0.005658 0.000000 0.000000 0.000000
# 3 -0.001953 -0.005658 0.020626 0.000000 0.000000 0.000000
# 4 0.000000 0.000000 0.000000 0.051835 0.000000 0.000000
# 5 0.000000 0.000000 0.000000 0.000000 0.080720 0.000000
# 6 0.000000 0.000000 0.000000 0.000000 0.000000 0.052978
#
#
# Mechanical properties :
#
#
# Convention : Reuss Voigt Hill
#
# Bulk Modulus (GPa) = 41.90037 45.89110 43.89574
# Shear Modulus (GPa) = 18.67474 20.73528 19.70501
#
# Velocity S-wave (km/s) = 3.16374 3.33372 3.24984
# Velocity P-wave (km/s) = 5.98359 6.27813 6.13263
#
# Compressibility (1/GPa) = 0.02386614
#
# Stress axis : x y z
#
# Youngs Moduli (GPa) = 87.79797 58.67430 48.48208
#
# Poissons Ratio (x) = 0.29252 0.09467
# Poissons Ratio (y) = 0.43771 0.27433
# Poissons Ratio (z) = 0.17145 0.33200
#
# Static dielectric constant tensor:
#      x y z
#    x 1.681790 0.000000 0.000000 
#    y 0.000000 1.631410 0.000000 
#    z 0.000000 0.000000 1.666400 
# 
# From -- ./inp_files/18056.got.cif
#   From: 2010.05.17/outbox.cif.g08.bks.cpg/sg63_10_cif.got.tgz:18056.got - 2010.06.03 15:47:04.
