data_PCOD9469492
_publ_section_title
;
Structure prediction by ZEFSAII (Michael W. Deem and Ramdas Pophale) SiO2 
 PCOD9469492
Probable space group: C M C M
;
_chemical_formula_sum "Si O2"
_cell_formula_units_Z 72
_cell_length_a 16.263948
_cell_length_b 9.056080
_cell_length_c 22.637089
_cell_angle_alpha 90.000000
_cell_angle_beta 90.000000
_cell_angle_gamma 90.000000
_cell_volume 3334.162831
_symmetry_space_group_name_H-M "C M C M"
_symmetry_group_IT_number 63
_symmetry_cell_setting 'orthorhombic'
loop_
_space_group_symop_operation_xyz
x,y,z
-x,-y,1/2+z
x,-y,-z
-x,y,1/2-z
-x,-y,-z
x,y,1/2-z
-x,y,z
x,-y,1/2+z
1/2+x,1/2+y,z
1/2-x,1/2-y,1/2+z
1/2+x,1/2-y,-z
1/2-x,1/2+y,1/2-z
1/2-x,1/2-y,-z
1/2+x,1/2+y,1/2-z
1/2-x,1/2+y,z
1/2+x,1/2-y,1/2+z
loop_
_atom_site_type_symbol
_atom_site_label
_atom_site_fract_x
_atom_site_fract_y
_atom_site_fract_z
Si Si1 0.163391 0.172961 0.511691
Si Si2 0.168600 0.152812 0.648198
Si Si3 0.177289 0.483945 0.817607
Si Si4 0.000000 0.923533 0.344232
Si Si5 0.000000 0.139271 0.455056
Si Si6 0.000000 0.423419 0.677888
O O1 0.250000 0.250000 0.500000
O O2 0.141937 0.186289 0.580839
O O3 0.085352 0.220725 0.471312
O O4 0.175778 0.000000 0.500000
O O5 0.186091 0.307282 0.679406
O O6 0.251309 0.058837 0.645642
O O7 0.093452 0.066545 0.679669
O O8 0.186073 0.534218 0.750000
O O9 0.083376 0.508188 0.837647
O O10 0.000000 0.053273 0.393206
O O11 0.000000 0.741057 0.349881
O O12 0.000000 0.000000 0.500000
O O13 0.000000 0.402447 0.750000
#
# Coordination Sequence:
#
# PCOD9469492 Si02
#       6
#    16  16  16   8   8   8
#     4  11  21  36  57  85 114 150 190 231 282 337
#     4  11  20  35  58  84 110 149 187 233 281 338
#     4  10  21  37  57  82 111 144 189 238 282 333
#     4  10  18  34  59  82 109 149 196 225 275 334
#     4  10  18  36  56  80 114 153 182 234 276 332
#     4   8  18  36  58  80 109 152 194 229 280 352
#
# _framework density 21.594628
#
# number of rings (size 3 to 8) (size 9 to 14) (size 15 to 20)
#    0.000    1.778    4.444    2.000    0.000    0.889 
#    0.000    2.778    0.000    0.000    0.000    0.000 
#    0.000    0.000    0.000    0.000    0.000    0.000 
#
# Total GULP energy -200504.629557 kJ/mol
# GULP energy per Si atom -5569.573043 kJ/mol
# Density = 2.154548 g / cm^3
# Si number density = 21.594628 Si / 1000 Ang^3
#
#
#
# Elastic Constant Matrix: (Units=GPa)
#
#
# Indices 1 2 3 4 5 6 
#
# 1 225.3711 47.3944 15.6575 0.0000 0.0000 0.0000
# 2 47.3944 15.8418 0.0832 0.0000 0.0000 0.0000
# 3 15.6575 0.0832 46.5260 0.0000 0.0000 0.0000
# 4 0.0000 0.0000 0.0000 7.9895 0.0000 0.0000
# 5 0.0000 0.0000 0.0000 0.0000 16.3423 0.0000
# 6 0.0000 0.0000 0.0000 0.0000 0.0000 39.1255
#
#
#
# Elastic Compliance Matrix: (Units=1/GPa)
#
#
# Indices 1 2 3 4 5 6 
#
# 1 0.012743 -0.038101 -0.004220 0.000000 0.000000 0.000000
# 2 -0.038101 0.177045 0.012506 0.000000 0.000000 0.000000
# 3 -0.004220 0.012506 0.022891 0.000000 0.000000 0.000000
# 4 0.000000 0.000000 0.000000 0.125165 0.000000 0.000000
# 5 0.000000 0.000000 0.000000 0.000000 0.061191 0.000000
# 6 0.000000 0.000000 0.000000 0.000000 0.000000 0.025559
#
#
# Mechanical properties :
#
#
# Convention : Reuss Voigt Hill
#
# Bulk Modulus (GPa) = 6.53386 46.00100 26.26743
# Shear Modulus (GPa) = 9.34160 27.66503 18.50331
#
# Velocity S-wave (km/s) = 2.08213 3.58314 2.93037
# Velocity P-wave (km/s) = 2.96861 6.20216 4.86207
#
# Compressibility (1/GPa) = 0.15304884
#
# Stress axis : x y z
#
# Youngs Moduli (GPa) = 78.47648 5.64827 43.68479
#
# Poissons Ratio (x) = 0.21520 0.18436
# Poissons Ratio (y) = 2.99000 -0.54630
# Poissons Ratio (z) = 0.33119 -0.07063
#
# Static dielectric constant tensor:
#      x y z
#    x 1.922070 0.000000 0.000000 
#    y 0.000000 1.756180 0.000000 
#    z 0.000000 0.000000 1.887280 
# 
# From -- ./inp_files/69091.got.cif
#   From: 2010.05.17/outbox.cif.g08.bks.cpg/sg63_35_cif.got.tgz:69091.got - 2010.06.03 15:47:04.
