data_PCOD9469499
_publ_section_title
;
Structure prediction by ZEFSAII (Michael W. Deem and Ramdas Pophale) SiO2 
 PCOD9469499
Probable space group: C M C M
;
_chemical_formula_sum "Si O2"
_cell_formula_units_Z 104
_cell_length_a 21.282728
_cell_length_b 30.870710
_cell_length_c 8.491438
_cell_angle_alpha 90.000000
_cell_angle_beta 90.000000
_cell_angle_gamma 90.000000
_cell_volume 5578.984510
_symmetry_space_group_name_H-M "C M C M"
_symmetry_group_IT_number 63
_symmetry_cell_setting 'orthorhombic'
loop_
_space_group_symop_operation_xyz
x,y,z
-x,-y,1/2+z
x,-y,-z
-x,y,1/2-z
-x,-y,-z
x,y,1/2-z
-x,y,z
x,-y,1/2+z
1/2+x,1/2+y,z
1/2-x,1/2-y,1/2+z
1/2+x,1/2-y,-z
1/2-x,1/2+y,1/2-z
1/2-x,1/2-y,-z
1/2+x,1/2+y,1/2-z
1/2-x,1/2+y,z
1/2+x,1/2-y,1/2+z
loop_
_atom_site_type_symbol
_atom_site_label
_atom_site_fract_x
_atom_site_fract_y
_atom_site_fract_z
Si Si1 0.282409 0.872517 0.559893
Si Si2 0.500000 0.049228 0.437805
Si Si3 0.311644 0.224043 0.440744
Si Si4 0.634243 0.950570 0.062709
Si Si5 0.072272 0.044790 0.060644
Si Si6 0.363685 0.367115 0.940304
Si Si7 0.071226 0.781121 0.060270
O O1 0.286299 0.876325 0.750000
O O2 0.312288 0.826416 0.512011
O O3 0.314196 0.915354 0.489398
O O4 0.209350 0.866955 0.516399
O O5 0.500000 0.050164 0.250000
O O6 0.433451 0.066501 0.499692
O O7 0.500000 0.000000 0.500000
O O8 0.308898 0.225203 0.250000
O O9 0.250000 0.250000 0.500000
O O10 0.375286 0.247666 0.494741
O O11 0.631523 0.953508 0.250000
O O12 0.644659 0.000000 0.000000
O O13 0.072289 0.044066 0.250000
O O14 0.108061 0.087216 0.007882
O O15 0.000000 0.047211 0.006012
O O16 0.100324 0.000000 0.000000
O O17 0.367731 0.364026 0.750000
O O18 0.403334 0.328057 0.011161
O O19 0.069668 0.778721 0.250000
O O20 0.000000 0.773836 0.002464
#
# Coordination Sequence:
#
# PCOD9469499 Si02
#       7
#    16   8  16  16  16  16  16
#     4  10  21  37  56  83 114 148 190 236 288 345
#     4  10  18  34  60  86 114 150 190 234 286 342
#     4  10  20  37  60  83 113 150 191 236 288 348
#     4  11  22  38  60  86 118 153 193 239 286 344
#     4   9  18  32  49  71 101 137 176 222 274 327
#     4  10  20  35  56  80 108 143 188 235 281 338
#     4  10  21  36  56  84 115 146 187 235 283 343
#
# _framework density 18.641386000000001
#
# number of rings (size 3 to 8) (size 9 to 14) (size 15 to 20)
#    0.000    2.000    1.538    3.462    0.000    3.385 
#    1.385    3.077    0.000    0.000    0.000    0.000 
#    0.000    0.000    0.000    0.000    0.000    0.000 
#
# Total GULP energy -290113.019245 kJ/mol
# GULP energy per Si atom -5579.096524 kJ/mol
# Density = 1.859896 g / cm^3
# Si number density = 18.641386 Si / 1000 Ang^3
#
#
#
# Elastic Constant Matrix: (Units=GPa)
#
#
# Indices 1 2 3 4 5 6 
#
# 1 141.7680 78.0473 28.2463 0.0000 0.0000 0.0000
# 2 78.0473 148.8658 26.0469 0.0000 0.0000 0.0000
# 3 28.2463 26.0469 43.9281 0.0000 0.0000 0.0000
# 4 0.0000 0.0000 0.0000 23.0029 0.0000 0.0000
# 5 0.0000 0.0000 0.0000 0.0000 24.5014 0.0000
# 6 0.0000 0.0000 0.0000 0.0000 0.0000 18.0041
#
#
#
# Elastic Compliance Matrix: (Units=1/GPa)
#
#
# Indices 1 2 3 4 5 6 
#
# 1 0.010478 -0.004814 -0.003883 0.000000 0.000000 0.000000
# 2 -0.004814 0.009707 -0.002660 0.000000 0.000000 0.000000
# 3 -0.003883 -0.002660 0.026839 0.000000 0.000000 0.000000
# 4 0.000000 0.000000 0.000000 0.043473 0.000000 0.000000
# 5 0.000000 0.000000 0.000000 0.000000 0.040814 0.000000
# 6 0.000000 0.000000 0.000000 0.000000 0.000000 0.055543
#
#
# Mechanical properties :
#
#
# Convention : Reuss Voigt Hill
#
# Bulk Modulus (GPa) = 41.13693 66.58256 53.85975
# Shear Modulus (GPa) = 22.97062 26.58310 24.77686
#
# Velocity S-wave (km/s) = 3.51413 3.78037 3.64968
# Velocity P-wave (km/s) = 6.21136 7.40609 6.83488
#
# Compressibility (1/GPa) = 0.02430906
#
# Stress axis : x y z
#
# Youngs Moduli (GPa) = 95.44226 103.02181 37.25981
#
# Poissons Ratio (x) = 0.49592 0.14468
# Poissons Ratio (y) = 0.45944 0.09912
# Poissons Ratio (z) = 0.37059 0.27406
#
# Static dielectric constant tensor:
#      x y z
#    x 1.658110 0.000000 0.000000 
#    y 0.000000 1.631020 0.000000 
#    z 0.000000 0.000000 1.642550 
# 
# From -- ./inp_files/9083.got.cif
#   From: 2010.05.17/outbox.cif.g08.bks.cpg/sg63_5_cif.got.tgz:9083.got - 2010.06.03 15:47:04.
