data_PCOD9469715
_publ_section_title
;
Structure prediction by ZEFSAII (Michael W. Deem and Ramdas Pophale) SiO2 
 PCOD9469715
Probable space group: C M C M
;
_chemical_formula_sum "Si O2"
_cell_formula_units_Z 120
_cell_length_a 22.077458
_cell_length_b 18.142397
_cell_length_c 17.375637
_cell_angle_alpha 90.000000
_cell_angle_beta 90.000000
_cell_angle_gamma 90.000000
_cell_volume 6959.603028
_symmetry_space_group_name_H-M "C M C M"
_symmetry_group_IT_number 63
_symmetry_cell_setting 'orthorhombic'
loop_
_space_group_symop_operation_xyz
x,y,z
-x,-y,1/2+z
x,-y,-z
-x,y,1/2-z
-x,-y,-z
x,y,1/2-z
-x,y,z
x,-y,1/2+z
1/2+x,1/2+y,z
1/2-x,1/2-y,1/2+z
1/2+x,1/2-y,-z
1/2-x,1/2+y,1/2-z
1/2-x,1/2-y,-z
1/2+x,1/2+y,1/2-z
1/2-x,1/2+y,z
1/2+x,1/2-y,1/2+z
loop_
_atom_site_type_symbol
_atom_site_label
_atom_site_fract_x
_atom_site_fract_y
_atom_site_fract_z
Si Si1 0.702667 0.416019 0.662264
Si Si2 0.661427 0.574856 0.841862
Si Si3 0.320666 0.000000 0.000000
Si Si4 0.261471 0.144769 0.936097
Si Si5 0.570622 0.671508 0.942299
Si Si6 0.068435 0.313352 0.836374
Si Si7 0.345282 0.047376 0.162973
Si Si8 0.332218 0.286238 0.552285
O O1 0.683710 0.406260 0.750000
O O2 0.669474 0.489744 0.633146
O O3 0.774050 0.434147 0.661994
O O4 0.688761 0.342099 0.617533
O O5 0.650357 0.579326 0.750000
O O6 0.726188 0.613481 0.861876
O O7 0.609521 0.612705 0.893157
O O8 0.281341 0.925604 0.012770
O O9 0.355733 0.005117 0.081971
O O10 0.316963 0.201792 0.926378
O O11 0.210060 0.191808 0.979684
O O12 0.500000 0.651455 0.947408
O O13 0.576343 0.747966 0.895615
O O14 0.601350 0.690654 0.023868
O O15 0.074112 0.282147 0.750000
O O16 0.116524 0.377879 0.844067
O O17 0.000000 0.343322 0.844081
O O18 0.358299 0.016350 0.250000
#
# Coordination Sequence:
#
# PCOD9469715 Si02
#       8
#    16  16   8  16  16  16  16  16
#     4  10  20  35  52  74 108 142 177 229 284 332
#     4  10  20  33  51  77 109 139 176 228 279 332
#     4  12  18  32  53  76 111 148 172 224 278 332
#     4  10  19  29  50  77 105 137 172 216 276 335
#     4  10  21  35  54  78 107 143 183 227 277 334
#     4   9  18  34  54  78 110 144 180 225 274 332
#     4  10  20  32  52  79 107 147 185 219 282 345
#     4  10  20  34  49  75 105 135 179 223 268 332
#
# _framework density 17.242362
#
# number of rings (size 3 to 8) (size 9 to 14) (size 15 to 20)
#    0.000    2.000    2.667    1.200    3.733    2.933 
#    0.000    1.667    0.000    2.000    0.000    0.000 
#    0.000    1.067    0.000    0.000    0.000    0.000 
#
# Total GULP energy -334039.147749 kJ/mol
# GULP energy per Si atom -5567.319129 kJ/mol
# Density = 1.720312 g / cm^3
# Si number density = 17.242362 Si / 1000 Ang^3
#
#
#
# Elastic Constant Matrix: (Units=GPa)
#
#
# Indices 1 2 3 4 5 6 
#
# 1 58.1580 30.9456 9.8411 0.0000 0.0000 0.0000
# 2 30.9456 66.1594 15.0360 0.0000 0.0000 0.0000
# 3 9.8411 15.0360 60.1939 0.0000 0.0000 0.0000
# 4 0.0000 0.0000 0.0000 24.3396 0.0000 0.0000
# 5 0.0000 0.0000 0.0000 0.0000 28.6696 0.0000
# 6 0.0000 0.0000 0.0000 0.0000 0.0000 23.0655
#
#
#
# Elastic Compliance Matrix: (Units=1/GPa)
#
#
# Indices 1 2 3 4 5 6 
#
# 1 0.022965 -0.010484 -0.001136 0.000000 0.000000 0.000000
# 2 -0.010484 0.020811 -0.003484 0.000000 0.000000 0.000000
# 3 -0.001136 -0.003484 0.017669 0.000000 0.000000 0.000000
# 4 0.000000 0.000000 0.000000 0.041085 0.000000 0.000000
# 5 0.000000 0.000000 0.000000 0.000000 0.034880 0.000000
# 6 0.000000 0.000000 0.000000 0.000000 0.000000 0.043355
#
#
# Mechanical properties :
#
#
# Convention : Reuss Voigt Hill
#
# Bulk Modulus (GPa) = 32.01328 32.90631 32.45979
# Shear Modulus (GPa) = 22.58511 23.79417 23.18964
#
# Velocity S-wave (km/s) = 3.62313 3.71884 3.67130
# Velocity P-wave (km/s) = 6.00913 6.12909 6.06941
#
# Compressibility (1/GPa) = 0.03123704
#
# Stress axis : x y z
#
# Youngs Moduli (GPa) = 43.54452 48.05261 56.59610
#
# Poissons Ratio (x) = 0.50376 0.06428
# Poissons Ratio (y) = 0.45650 0.19720
# Poissons Ratio (z) = 0.04946 0.16743
#
# Static dielectric constant tensor:
#      x y z
#    x 1.596830 0.000000 0.000000 
#    y 0.000000 1.588950 0.000000 
#    z 0.000000 0.000000 1.637020 
# 
# From -- ./inp_files/47400.got.cif
#   From: 2010.05.17/outbox.cif.g08.bks.cpg/sg63_24_cif.got.tgz:47400.got - 2010.06.03 15:47:04.
