data_PCOD9469465
_publ_section_title
;
Structure prediction by ZEFSAII (Michael W. Deem and Ramdas Pophale) SiO2 
 PCOD9469465
Probable space group: C M C M
;
_chemical_formula_sum "Si O2"
_cell_formula_units_Z 72
_cell_length_a 9.829353
_cell_length_b 17.555330
_cell_length_c 20.626241
_cell_angle_alpha 90.000000
_cell_angle_beta 90.000000
_cell_angle_gamma 90.000000
_cell_volume 3559.213316
_symmetry_space_group_name_H-M "C M C M"
_symmetry_group_IT_number 63
_symmetry_cell_setting 'orthorhombic'
loop_
_space_group_symop_operation_xyz
x,y,z
-x,-y,1/2+z
x,-y,-z
-x,y,1/2-z
-x,-y,-z
x,y,1/2-z
-x,y,z
x,-y,1/2+z
1/2+x,1/2+y,z
1/2-x,1/2-y,1/2+z
1/2+x,1/2-y,-z
1/2-x,1/2+y,1/2-z
1/2-x,1/2-y,-z
1/2+x,1/2+y,1/2-z
1/2-x,1/2+y,z
1/2+x,1/2-y,1/2+z
loop_
_atom_site_type_symbol
_atom_site_label
_atom_site_fract_x
_atom_site_fract_y
_atom_site_fract_z
Si Si1 0.000000 0.907284 0.329413
Si Si2 0.500000 0.092848 0.496303
Si Si3 0.500000 0.843883 0.141240
Si Si4 0.292706 0.120867 0.387250
Si Si5 0.500000 0.234453 0.173028
Si Si6 0.715972 0.965843 0.175091
Si Si7 0.000000 0.163634 0.170382
O O1 0.000000 0.820431 0.351354
O O2 0.135098 0.948560 0.351551
O O3 0.000000 0.907585 0.250000
O O4 0.500000 0.134801 0.565325
O O5 0.362052 0.119435 0.458477
O O6 0.500000 0.000000 0.500000
O O7 0.629032 0.889410 0.169369
O O8 0.500000 0.755359 0.159375
O O9 0.369364 0.188887 0.350936
O O10 0.134797 0.131069 0.366329
O O11 0.340887 0.038957 0.360599
O O12 0.500000 0.236267 0.250000
O O13 0.725892 0.987010 0.250000
O O14 0.000000 0.148195 0.250000
#
# Coordination Sequence:
#
# PCOD9469465 Si02
#       7
#     8   8   8  16   8  16   8
#     4   9  20  34  53  83 129 159 190 250 322 398
#     4  11  23  48  66  90 126 177 242 269 291 380
#     4  12  24  40  67  88 130 174 217 276 315 380
#     4  11  23  39  66  89 127 171 209 272 323 377
#     4  10  18  34  56  85 118 164 205 248 316 387
#     4  11  20  35  59  92 120 165 216 264 331 384
#     4  12  25  42  63 105 139 156 200 279 353 398
#
# _framework density 20.229189999999999
#
# number of rings (size 3 to 8) (size 9 to 14) (size 15 to 20)
#    0.000    1.111    2.222    5.667    0.000    3.556 
#    0.000    1.667    0.000    0.000    0.000    0.000 
#    0.000    0.000    0.000    0.000    0.000    0.000 
#
# Total GULP energy -200864.718249 kJ/mol
# GULP energy per Si atom -5579.575507 kJ/mol
# Density = 2.018315 g / cm^3
# Si number density = 20.229190 Si / 1000 Ang^3
#
#
#
# Elastic Constant Matrix: (Units=GPa)
#
#
# Indices 1 2 3 4 5 6 
#
# 1 134.9862 11.8043 17.3872 0.0000 0.0000 0.0000
# 2 11.8043 103.0983 4.0451 0.0000 0.0000 0.0000
# 3 17.3872 4.0451 73.7029 0.0000 0.0000 0.0000
# 4 0.0000 0.0000 0.0000 -117.1454 0.0000 0.0000
# 5 0.0000 0.0000 0.0000 0.0000 26.9622 0.0000
# 6 0.0000 0.0000 0.0000 0.0000 0.0000 33.3273
#
#
#
# Elastic Compliance Matrix: (Units=1/GPa)
#
#
# Indices 1 2 3 4 5 6 
#
# 1 0.007708 -0.000813 -0.001774 0.000000 0.000000 0.000000
# 2 -0.000813 0.009806 -0.000346 0.000000 0.000000 0.000000
# 3 -0.001774 -0.000346 0.014005 0.000000 0.000000 0.000000
# 4 0.000000 0.000000 0.000000 -0.008536 0.000000 0.000000
# 5 0.000000 0.000000 0.000000 0.000000 0.037089 0.000000
# 6 0.000000 0.000000 0.000000 0.000000 0.000000 0.030005
#
#
# Mechanical properties :
#
#
# Convention : Reuss Voigt Hill
#
# Bulk Modulus (GPa) = 38.98146 42.02896 40.50521
# Shear Modulus (GPa) = 47.84948 7.19890 27.52419
#
# Velocity S-wave (km/s) = 4.86878 1.88849 3.69266
# Velocity P-wave (km/s) = 7.13572 5.05734 6.18446
#
# Compressibility (1/GPa) = 0.02565322
#
# Stress axis : x y z
#
# Youngs Moduli (GPa) = 129.74013 101.97683 71.40090
#
# Poissons Ratio (x) = 0.08290 0.12664
# Poissons Ratio (y) = 0.10547 0.02473
# Poissons Ratio (z) = 0.23012 0.03533
#
# Static dielectric constant tensor:
#      x y z
#    x 1.769800 0.000000 0.000000 
#    y 0.000000 1.682570 0.000000 
#    z 0.000000 0.000000 1.703060 
# 
# From -- ./inp_files/59374.got.cif
#   From: 2010.05.17/outbox.cif.g08.bks.cpg/sg63_30_cif.got.tgz:59374.got - 2010.06.03 15:47:04.
