data_PCOD9469353
_publ_section_title
;
Structure prediction by ZEFSAII (Michael W. Deem and Ramdas Pophale) SiO2 
 PCOD9469353
Probable space group: C M C M
;
_chemical_formula_sum "Si O2"
_cell_formula_units_Z 80
_cell_length_a 12.197555
_cell_length_b 20.484786
_cell_length_c 14.757758
_cell_angle_alpha 90.000000
_cell_angle_beta 90.000000
_cell_angle_gamma 90.000000
_cell_volume 3687.436930
_symmetry_space_group_name_H-M "C M C M"
_symmetry_group_IT_number 63
_symmetry_cell_setting 'orthorhombic'
loop_
_space_group_symop_operation_xyz
x,y,z
-x,-y,1/2+z
x,-y,-z
-x,y,1/2-z
-x,-y,-z
x,y,1/2-z
-x,y,z
x,-y,1/2+z
1/2+x,1/2+y,z
1/2-x,1/2-y,1/2+z
1/2+x,1/2-y,-z
1/2-x,1/2+y,1/2-z
1/2-x,1/2-y,-z
1/2+x,1/2+y,1/2-z
1/2-x,1/2+y,z
1/2+x,1/2-y,1/2+z
loop_
_atom_site_type_symbol
_atom_site_label
_atom_site_fract_x
_atom_site_fract_y
_atom_site_fract_z
Si Si1 0.500000 0.695453 0.639787
Si Si2 0.000000 0.349997 0.640638
Si Si3 0.218480 0.127876 0.643394
Si Si4 0.375899 0.236533 0.861196
Si Si5 0.124252 0.992011 0.606839
Si Si6 0.758971 0.362287 0.858139
O O1 0.500000 0.687835 0.750000
O O2 0.500000 0.772238 0.624016
O O3 0.608278 0.660134 0.603666
O O4 0.882165 0.375171 0.606366
O O5 0.000000 0.360536 0.750000
O O6 0.216963 0.142637 0.750000
O O7 0.323572 0.167473 0.609392
O O8 0.204125 0.050704 0.635953
O O9 0.380291 0.238727 0.750000
O O10 0.500000 0.245254 0.893601
O O11 0.296380 0.295216 0.891274
O O12 0.177901 0.922564 0.627088
O O13 0.000000 0.998544 0.644707
O O14 0.115346 0.000000 0.500000
O O15 0.770264 0.353341 0.750000
#
# Coordination Sequence:
#
# PCOD9469353 Si02
#       6
#     8   8  16  16  16  16
#     4   9  14  26  53  84 104 125 169 224 269 311
#     4   9  16  30  55  86 112 133 169 222 269 311
#     4  10  18  32  57  82 105 136 176 220 264 316
#     4   9  17  30  53  85 113 134 166 219 272 314
#     4  11  24  39  53  74 108 146 183 224 267 313
#     4  10  19  34  58  84 109 139 176 218 265 318
#
# _framework density 21.695285999999999
#
# number of rings (size 3 to 8) (size 9 to 14) (size 15 to 20)
#    0.000    2.200    3.000    1.200    0.000    2.000 
#    1.800    1.500    0.000    0.000    0.000    0.000 
#    0.000    0.000    0.000    0.000    0.000    0.000 
#
# Total GULP energy -223266.139819 kJ/mol
# GULP energy per Si atom -5581.653495 kJ/mol
# Density = 2.164591 g / cm^3
# Si number density = 21.695286 Si / 1000 Ang^3
#
#
#
# Elastic Constant Matrix: (Units=GPa)
#
#
# Indices 1 2 3 4 5 6 
#
# 1 153.4000 59.5103 12.6038 0.0000 0.0000 0.0000
# 2 59.5103 107.6707 -14.7911 0.0000 0.0000 0.0000
# 3 12.6038 -14.7911 39.7635 0.0000 0.0000 0.0000
# 4 0.0000 0.0000 0.0000 -50.5097 0.0000 0.0000
# 5 0.0000 0.0000 0.0000 0.0000 5.3619 0.0000
# 6 0.0000 0.0000 0.0000 0.0000 0.0000 29.7540
#
#
#
# Elastic Compliance Matrix: (Units=1/GPa)
#
#
# Indices 1 2 3 4 5 6 
#
# 1 0.009169 -0.005761 -0.005049 0.000000 0.000000 0.000000
# 2 -0.005761 0.013408 0.006814 0.000000 0.000000 0.000000
# 3 -0.005049 0.006814 0.029284 0.000000 0.000000 0.000000
# 4 0.000000 0.000000 0.000000 -0.019798 0.000000 0.000000
# 5 0.000000 0.000000 0.000000 0.000000 0.186502 0.000000
# 6 0.000000 0.000000 0.000000 0.000000 0.000000 0.033609
#
#
# Mechanical properties :
#
#
# Convention : Reuss Voigt Hill
#
# Bulk Modulus (GPa) = 22.79653 46.16446 34.48049
# Shear Modulus (GPa) = 18.19577 13.15533 15.67555
#
# Velocity S-wave (km/s) = 2.89917 2.46513 2.69091
# Velocity P-wave (km/s) = 4.66233 5.42469 5.05789
#
# Compressibility (1/GPa) = 0.04386633
#
# Stress axis : x y z
#
# Youngs Moduli (GPa) = 109.06529 74.58295 34.14874
#
# Poissons Ratio (x) = 0.42970 0.17243
# Poissons Ratio (y) = 0.62836 -0.23268
# Poissons Ratio (z) = 0.55070 -0.50818
#
# Static dielectric constant tensor:
#      x y z
#    x 1.810430 0.000000 0.000000 
#    y 0.000000 1.772550 0.000000 
#    z 0.000000 0.000000 1.827100 
# 
# From -- ./inp_files/52459.got.cif
#   From: 2010.05.17/outbox.cif.g08.bks.cpg/sg63_27_cif.got.tgz:52459.got - 2010.06.03 15:47:04.
