data_PCOD9469487
_publ_section_title
;
Structure prediction by ZEFSAII (Michael W. Deem and Ramdas Pophale) SiO2 
 PCOD9469487
Probable space group: C M C M
;
_chemical_formula_sum "Si O2"
_cell_formula_units_Z 88
_cell_length_a 22.357540
_cell_length_b 7.627857
_cell_length_c 26.327014
_cell_angle_alpha 90.000000
_cell_angle_beta 90.000000
_cell_angle_gamma 90.000000
_cell_volume 4489.812074
_symmetry_space_group_name_H-M "C M C M"
_symmetry_group_IT_number 63
_symmetry_cell_setting 'orthorhombic'
loop_
_space_group_symop_operation_xyz
x,y,z
-x,-y,1/2+z
x,-y,-z
-x,y,1/2-z
-x,-y,-z
x,y,1/2-z
-x,y,z
x,-y,1/2+z
1/2+x,1/2+y,z
1/2-x,1/2-y,1/2+z
1/2+x,1/2-y,-z
1/2-x,1/2+y,1/2-z
1/2-x,1/2-y,-z
1/2+x,1/2+y,1/2-z
1/2-x,1/2+y,z
1/2+x,1/2-y,1/2+z
loop_
_atom_site_type_symbol
_atom_site_label
_atom_site_fract_x
_atom_site_fract_y
_atom_site_fract_z
Si Si1 0.000000 0.277550 0.530233
Si Si2 0.807737 0.387735 0.408288
Si Si3 0.384848 0.400076 0.643199
Si Si4 0.236935 0.139150 0.750000
Si Si5 0.500000 0.591334 0.421222
Si Si6 0.388980 0.000000 0.500000
Si Si7 0.309124 0.731880 0.861810
Si Si8 0.648797 0.305678 0.750000
O O1 0.937468 0.384793 0.532086
O O2 0.000000 0.193028 0.474079
O O3 0.000000 0.116090 0.568246
O O4 0.832469 0.219476 0.379088
O O5 0.843724 0.401523 0.461380
O O6 0.736630 0.353380 0.403419
O O7 0.820143 0.569742 0.378867
O O8 0.442150 0.361743 0.610318
O O9 0.365747 0.602776 0.640058
O O10 0.390197 0.337163 0.700706
O O11 0.218342 0.222647 0.695364
O O12 0.309325 0.133638 0.750000
O O13 0.200457 0.956841 0.750000
#
# Coordination Sequence:
#
# PCOD9469487 Si02
#       8
#     8  16  16   8   8   8  16   8
#     4  10  22  42  66  83 109 163 222 248 292 371
#     4  12  22  38  59  89 127 156 200 256 310 359
#     4  11  23  40  60  93 122 162 205 254 301 368
#     4  10  18  34  58  87 121 163 200 234 289 381
#     4  11  22  43  66  83 117 162 208 254 303 359
#     4  11  24  40  60  92 118 159 210 266 304 363
#     4  11  22  38  60  92 128 159 200 247 310 370
#     4  10  20  33  60  89 125 156 200 246 307 363
#
# _framework density 19.599928999999999
#
# number of rings (size 3 to 8) (size 9 to 14) (size 15 to 20)
#    0.000    1.091    5.455    2.182    0.000    1.091 
#    0.000    0.000    0.000    0.000    0.000    2.545 
#    0.000    0.000    0.000    0.000    0.000    0.000 
#
# Total GULP energy -245389.137414 kJ/mol
# GULP energy per Si atom -5577.025850 kJ/mol
# Density = 1.955532 g / cm^3
# Si number density = 19.599929 Si / 1000 Ang^3
#
#
#
# Elastic Constant Matrix: (Units=GPa)
#
#
# Indices 1 2 3 4 5 6 
#
# 1 48.5256 -16.5783 11.2353 0.0000 0.0000 0.0000
# 2 -16.5783 56.7598 -9.2187 0.0000 0.0000 0.0000
# 3 11.2353 -9.2187 58.0093 0.0000 0.0000 0.0000
# 4 0.0000 0.0000 0.0000 20.9429 0.0000 0.0000
# 5 0.0000 0.0000 0.0000 0.0000 2.7084 0.0000
# 6 0.0000 0.0000 0.0000 0.0000 0.0000 14.3321
#
#
#
# Elastic Compliance Matrix: (Units=1/GPa)
#
#
# Indices 1 2 3 4 5 6 
#
# 1 0.023589 0.006311 -0.003566 0.000000 0.000000 0.000000
# 2 0.006311 0.019773 0.001920 0.000000 0.000000 0.000000
# 3 -0.003566 0.001920 0.018234 0.000000 0.000000 0.000000
# 4 0.000000 0.000000 0.000000 0.047749 0.000000 0.000000
# 5 0.000000 0.000000 0.000000 0.000000 0.369220 0.000000
# 6 0.000000 0.000000 0.000000 0.000000 0.000000 0.069773
#
#
# Mechanical properties :
#
#
# Convention : Reuss Voigt Hill
#
# Bulk Modulus (GPa) = 14.09906 14.90791 14.50348
# Shear Modulus (GPa) = 8.88649 19.45379 14.17014
#
# Velocity S-wave (km/s) = 2.13162 3.15388 2.69173
# Velocity P-wave (km/s) = 3.64245 4.57004 4.13235
#
# Compressibility (1/GPa) = 0.07092674
#
# Stress axis : x y z
#
# Youngs Moduli (GPa) = 42.39201 50.57349 54.84141
#
# Poissons Ratio (x) = -0.31916 0.19556
# Poissons Ratio (y) = -0.26753 -0.10530
# Poissons Ratio (z) = 0.15117 -0.09710
#
# Static dielectric constant tensor:
#      x y z
#    x 1.685700 0.000000 0.000000 
#    y 0.000000 1.725640 0.000000 
#    z 0.000000 0.000000 1.690270 
# 
# From -- ./inp_files/64500.got.cif
#   From: 2010.05.17/outbox.cif.g08.bks.cpg/sg63_33_cif.got.tgz:64500.got - 2010.06.03 15:47:04.
