data_PCOD9469724
_publ_section_title
;
Structure prediction by ZEFSAII (Michael W. Deem and Ramdas Pophale) SiO2 
 PCOD9469724
Probable space group: C M C M
;
_chemical_formula_sum "Si O2"
_cell_formula_units_Z 104
_cell_length_a 23.668964
_cell_length_b 31.045364
_cell_length_c 7.496226
_cell_angle_alpha 90.000000
_cell_angle_beta 90.000000
_cell_angle_gamma 90.000000
_cell_volume 5508.313843
_symmetry_space_group_name_H-M "C M C M"
_symmetry_group_IT_number 63
_symmetry_cell_setting 'orthorhombic'
loop_
_space_group_symop_operation_xyz
x,y,z
-x,-y,1/2+z
x,-y,-z
-x,y,1/2-z
-x,-y,-z
x,y,1/2-z
-x,y,z
x,-y,1/2+z
1/2+x,1/2+y,z
1/2-x,1/2-y,1/2+z
1/2+x,1/2-y,-z
1/2-x,1/2+y,1/2-z
1/2-x,1/2-y,-z
1/2+x,1/2+y,1/2-z
1/2-x,1/2+y,z
1/2+x,1/2-y,1/2+z
loop_
_atom_site_type_symbol
_atom_site_label
_atom_site_fract_x
_atom_site_fract_y
_atom_site_fract_z
Si Si1 0.388139 0.598864 0.037942
Si Si2 0.934745 0.378228 0.968975
Si Si3 0.931318 0.283797 0.543311
Si Si4 0.000000 0.050743 0.036012
Si Si5 0.652145 0.950412 0.536225
Si Si6 0.435182 0.309645 0.034784
Si Si7 0.279609 0.450280 0.963761
O O1 0.387210 0.590808 0.250000
O O2 0.443264 0.573741 0.966250
O O3 0.329362 0.580139 0.966372
O O4 0.397734 0.649453 0.011448
O O5 0.934652 0.377202 0.750000
O O6 0.915751 0.330526 0.031438
O O7 0.893280 0.415918 0.029425
O O8 0.000000 0.385274 0.021615
O O9 0.912837 0.284052 0.750000
O O10 0.914992 0.237207 0.466997
O O11 0.000000 0.283276 0.542361
O O12 0.000000 0.056543 0.250000
O O13 0.000000 0.000000 0.000000
O O14 0.653983 0.945702 0.750000
O O15 0.715971 0.943081 0.466853
O O16 0.636636 0.000000 0.500000
O O17 0.437455 0.306689 0.250000
O O18 0.500000 0.317304 0.972962
O O19 0.276531 0.444863 0.750000
O O20 0.294665 0.500000 0.000000
#
# Coordination Sequence:
#
# PCOD9469724 Si02
#       7
#    16  16  16   8  16  16  16
#     4  10  19  30  42  58  82 110 139 173 214 257
#     4   8  13  23  42  67  91 113 138 169 206 245
#     4   7  11  21  38  61  86 108 134 171 206 239
#     4  10  20  30  40  56  78 104 134 170 213 254
#     4   9  17  29  45  65  87 113 143 172 205 245
#     4   9  16  26  42  64  85 105 135 175 215 251
#     4   9  18  31  45  60  80 109 145 178 206 244
#
# _framework density 18.880551000000001
#
# number of rings (size 3 to 8) (size 9 to 14) (size 15 to 20)
#    0.000    3.231    0.769    2.308    0.000    1.538 
#    0.000    0.000    0.000    1.846    0.000    2.154 
#    0.000    0.000    0.000    0.000    0.000    0.000 
#
# Total GULP energy -289714.110474 kJ/mol
# GULP energy per Si atom -5571.425201 kJ/mol
# Density = 1.883758 g / cm^3
# Si number density = 18.880551 Si / 1000 Ang^3
#
#
#
# Elastic Constant Matrix: (Units=GPa)
#
#
# Indices 1 2 3 4 5 6 
#
# 1 102.3397 113.1306 4.9277 0.0000 0.0000 0.0000
# 2 113.1306 197.1224 -4.5828 0.0000 0.0000 0.0000
# 3 4.9277 -4.5828 49.2777 0.0000 0.0000 0.0000
# 4 0.0000 0.0000 0.0000 7.3935 0.0000 0.0000
# 5 0.0000 0.0000 0.0000 0.0000 20.0696 0.0000
# 6 0.0000 0.0000 0.0000 0.0000 0.0000 -26.6077
#
#
#
# Elastic Compliance Matrix: (Units=1/GPa)
#
#
# Indices 1 2 3 4 5 6 
#
# 1 0.027585 -0.015930 -0.004240 0.000000 0.000000 0.000000
# 2 -0.015930 0.014283 0.002921 0.000000 0.000000 0.000000
# 3 -0.004240 0.002921 0.020989 0.000000 0.000000 0.000000
# 4 0.000000 0.000000 0.000000 0.135255 0.000000 0.000000
# 5 0.000000 0.000000 0.000000 0.000000 0.049827 0.000000
# 6 0.000000 0.000000 0.000000 0.000000 0.000000 -0.037583
#
#
# Mechanical properties :
#
#
# Convention : Reuss Voigt Hill
#
# Bulk Modulus (GPa) = 35.26089 63.96565 49.61327
# Shear Modulus (GPa) = 19.66131 15.85534 17.75832
#
# Velocity S-wave (km/s) = 3.23050 2.90102 3.07019
# Velocity P-wave (km/s) = 5.71237 6.72116 6.23719
#
# Compressibility (1/GPa) = 0.02836003
#
# Stress axis : x y z
#
# Youngs Moduli (GPa) = 36.25117 70.01161 47.64441
#
# Poissons Ratio (x) = 1.11529 0.20201
# Poissons Ratio (y) = 0.57748 -0.13918
# Poissons Ratio (z) = 0.15370 -0.20453
#
# Static dielectric constant tensor:
#      x y z
#    x 1.643510 0.000000 0.000000 
#    y 0.000000 1.666180 0.000000 
#    z 0.000000 0.000000 1.720960 
# 
# From -- ./inp_files/11085.got.cif
#   From: 2010.05.17/outbox.cif.g08.bks.cpg/sg63_6_cif.got.tgz:11085.got - 2010.06.03 15:47:04.
