data_PCOD9469359
_publ_section_title
;
Structure prediction by ZEFSAII (Michael W. Deem and Ramdas Pophale) SiO2 
 PCOD9469359
Probable space group: C M C M
;
_chemical_formula_sum "Si O2"
_cell_formula_units_Z 96
_cell_length_a 21.042094
_cell_length_b 14.665827
_cell_length_c 17.541696
_cell_angle_alpha 90.000000
_cell_angle_beta 90.000000
_cell_angle_gamma 90.000000
_cell_volume 5413.362304
_symmetry_space_group_name_H-M "C M C M"
_symmetry_group_IT_number 63
_symmetry_cell_setting 'orthorhombic'
loop_
_space_group_symop_operation_xyz
x,y,z
-x,-y,1/2+z
x,-y,-z
-x,y,1/2-z
-x,-y,-z
x,y,1/2-z
-x,y,z
x,-y,1/2+z
1/2+x,1/2+y,z
1/2-x,1/2-y,1/2+z
1/2+x,1/2-y,-z
1/2-x,1/2+y,1/2-z
1/2-x,1/2-y,-z
1/2+x,1/2+y,1/2-z
1/2-x,1/2+y,z
1/2+x,1/2-y,1/2+z
loop_
_atom_site_type_symbol
_atom_site_label
_atom_site_fract_x
_atom_site_fract_y
_atom_site_fract_z
Si Si1 0.122989 0.268186 0.658237
Si Si2 0.763373 0.768499 0.588584
Si Si3 0.690056 0.086187 0.658487
Si Si4 0.927613 0.070403 0.657887
Si Si5 0.071138 0.463709 0.842938
Si Si6 0.692706 0.526104 0.088822
O O1 0.122998 0.269394 0.750000
O O2 0.195191 0.268022 0.630095
O O3 0.088816 0.174650 0.634767
O O4 0.088774 0.360927 0.632486
O O5 0.750000 0.750000 0.500000
O O6 0.804265 0.685964 0.622538
O O7 0.795317 0.866700 0.598432
O O8 0.690486 0.092492 0.750000
O O9 0.626813 0.032322 0.633296
O O10 0.751511 0.028876 0.631939
O O11 0.922655 0.065769 0.750000
O O12 0.000000 0.048326 0.636602
O O13 0.874724 0.006104 0.621391
O O14 0.071346 0.463646 0.750000
O O15 0.000000 0.488156 0.867917
O O16 0.696742 0.500000 0.000000
#
# Coordination Sequence:
#
# PCOD9469359 Si02
#       6
#    16  16  16  16  16  16
#     4  10  18  32  58  87 116 150 195 248 293 338
#     4  12  23  37  58  86 120 155 197 246 298 350
#     4  11  22  37  60  89 120 154 195 244 294 354
#     4  10  21  37  58  87 121 154 196 248 297 351
#     4   9  18  33  56  87 119 152 190 237 294 349
#     4  12  23  39  61  86 118 161 199 244 297 358
#
# _framework density 17.733893999999999
#
# number of rings (size 3 to 8) (size 9 to 14) (size 15 to 20)
#    0.000    1.333    5.000    1.500    0.000    4.333 
#    0.000    0.833    0.000    7.500    0.000    0.000 
#    0.000    0.000    0.000    0.000    0.000    0.000 
#
# Total GULP energy -268100.056875 kJ/mol
# GULP energy per Si atom -5585.417852 kJ/mol
# Density = 1.769353 g / cm^3
# Si number density = 17.733894 Si / 1000 Ang^3
#
#
#
# Elastic Constant Matrix: (Units=GPa)
#
#
# Indices 1 2 3 4 5 6 
#
# 1 145.7053 72.2701 20.9928 0.0000 0.0000 0.0000
# 2 72.2701 155.0089 33.3058 0.0000 0.0000 0.0000
# 3 20.9928 33.3058 35.4367 0.0000 0.0000 0.0000
# 4 0.0000 0.0000 0.0000 25.8586 0.0000 0.0000
# 5 0.0000 0.0000 0.0000 0.0000 -8.9802 0.0000
# 6 0.0000 0.0000 0.0000 0.0000 0.0000 17.3707
#
#
#
# Elastic Compliance Matrix: (Units=1/GPa)
#
#
# Indices 1 2 3 4 5 6 
#
# 1 0.009013 -0.003828 -0.001741 0.000000 0.000000 0.000000
# 2 -0.003828 0.009709 -0.006858 0.000000 0.000000 0.000000
# 3 -0.001741 -0.006858 0.035697 0.000000 0.000000 0.000000
# 4 0.000000 0.000000 0.000000 0.038672 0.000000 0.000000
# 5 0.000000 0.000000 0.000000 0.000000 -0.111356 0.000000
# 6 0.000000 0.000000 0.000000 0.000000 0.000000 0.057568
#
#
# Mechanical properties :
#
#
# Convention : Reuss Voigt Hill
#
# Bulk Modulus (GPa) = 33.82475 65.47648 49.65061
# Shear Modulus (GPa) = 67.55654 20.82197 44.18926
#
# Velocity S-wave (km/s) = 6.17878 3.43028 4.99721
# Velocity P-wave (km/s) = 8.36767 7.25885 7.83291
#
# Compressibility (1/GPa) = 0.02956415
#
# Stress axis : x y z
#
# Youngs Moduli (GPa) = 110.95478 102.99275 28.01388
#
# Poissons Ratio (x) = 0.39424 0.04879
# Poissons Ratio (y) = 0.42471 0.19212
# Poissons Ratio (z) = 0.19323 0.70632
#
# Static dielectric constant tensor:
#      x y z
#    x 1.589040 0.000000 0.000000 
#    y 0.000000 1.600200 0.000000 
#    z 0.000000 0.000000 1.594650 
# 
# From -- ./inp_files/35289.got.cif
#   From: 2010.05.17/outbox.cif.g08.bks.cpg/sg63_18_cif.got.tgz:35289.got - 2010.06.03 15:47:04.
