data_PCOD9469203
_publ_section_title
;
Structure prediction by ZEFSAII (Michael W. Deem and Ramdas Pophale) SiO2 
 PCOD9469203
Probable space group: C M C M
;
_chemical_formula_sum "Si O2"
_cell_formula_units_Z 104
_cell_length_a 13.944081
_cell_length_b 17.654940
_cell_length_c 24.444816
_cell_angle_alpha 90.000000
_cell_angle_beta 90.000000
_cell_angle_gamma 90.000000
_cell_volume 6017.871576
_symmetry_space_group_name_H-M "C M C M"
_symmetry_group_IT_number 63
_symmetry_cell_setting 'orthorhombic'
loop_
_space_group_symop_operation_xyz
x,y,z
-x,-y,1/2+z
x,-y,-z
-x,y,1/2-z
-x,-y,-z
x,y,1/2-z
-x,y,z
x,-y,1/2+z
1/2+x,1/2+y,z
1/2-x,1/2-y,1/2+z
1/2+x,1/2-y,-z
1/2-x,1/2+y,1/2-z
1/2-x,1/2-y,-z
1/2+x,1/2+y,1/2-z
1/2-x,1/2+y,z
1/2+x,1/2-y,1/2+z
loop_
_atom_site_type_symbol
_atom_site_label
_atom_site_fract_x
_atom_site_fract_y
_atom_site_fract_z
Si Si1 0.000000 0.207830 0.315521
Si Si2 0.817269 0.096279 0.185763
Si Si3 0.000000 0.413493 0.520030
Si Si4 0.615554 0.574138 0.688373
Si Si5 0.500000 0.780798 0.428276
Si Si6 0.316726 0.135368 0.408131
Si Si7 0.669549 0.311184 0.983626
Si Si8 0.387364 0.305881 0.101277
O O1 0.904364 0.155968 0.325217
O O2 0.000000 0.228446 0.250000
O O3 0.000000 0.274601 0.361755
O O4 0.794982 0.103899 0.250000
O O5 0.722395 0.105082 0.149203
O O6 0.856035 0.011662 0.175970
O O7 0.000000 0.500000 0.500000
O O8 0.000000 0.357171 0.466399
O O9 0.092208 0.396543 0.558746
O O10 0.647553 0.592467 0.750000
O O11 0.500000 0.577297 0.687365
O O12 0.652202 0.635399 0.645290
O O13 0.408582 0.733321 0.448756
O O14 0.225068 0.127764 0.448089
O O15 0.338406 0.224080 0.397451
O O16 0.750000 0.250000 0.000000
O O17 0.625291 0.338577 0.040340
O O18 0.500000 0.293331 0.111034
#
# Coordination Sequence:
#
# PCOD9469203 Si02
#       8
#     8  16   8  16   8  16  16  16
#     4  10  20  34  60  94 121 151 188 230 295 373
#     4  10  20  36  57  85 123 156 188 237 297 358
#     4  12  26  42  60  82 116 162 202 239 290 353
#     4   9  18  33  55  82 114 150 179 226 301 357
#     4  12  18  38  63  86 120 152 191 248 296 343
#     4  11  21  38  57  83 112 151 203 238 281 345
#     4  10  18  31  57  83 110 147 187 238 293 332
#     4  10  18  33  55  78 112 144 188 243 283 340
#
# _framework density 17.281856999999999
#
# number of rings (size 3 to 8) (size 9 to 14) (size 15 to 20)
#    0.000    1.692    6.923    0.000    0.000    1.846 
#    0.000    0.385    0.000    3.692    0.000    0.000 
#    0.000    0.000    0.000    0.000    0.000    0.000 
#
# Total GULP energy -289486.311339 kJ/mol
# GULP energy per Si atom -5567.044449 kJ/mol
# Density = 1.724252 g / cm^3
# Si number density = 17.281857 Si / 1000 Ang^3
#
#
#
# Elastic Constant Matrix: (Units=GPa)
#
#
# Indices 1 2 3 4 5 6 
#
# 1 66.4266 27.8316 37.1657 0.0000 0.0000 0.0000
# 2 27.8316 69.7076 65.5370 0.0000 0.0000 0.0000
# 3 37.1657 65.5370 117.0129 0.0000 0.0000 0.0000
# 4 0.0000 0.0000 0.0000 27.1838 0.0000 0.0000
# 5 0.0000 0.0000 0.0000 0.0000 24.1616 0.0000
# 6 0.0000 0.0000 0.0000 0.0000 0.0000 11.2042
#
#
#
# Elastic Compliance Matrix: (Units=1/GPa)
#
#
# Indices 1 2 3 4 5 6 
#
# 1 0.018822 -0.004001 -0.003737 0.000000 0.000000 0.000000
# 2 -0.004001 0.031152 -0.016177 0.000000 0.000000 0.000000
# 3 -0.003737 -0.016177 0.018794 0.000000 0.000000 0.000000
# 4 0.000000 0.000000 0.000000 0.036787 0.000000 0.000000
# 5 0.000000 0.000000 0.000000 0.000000 0.041388 0.000000
# 6 0.000000 0.000000 0.000000 0.000000 0.000000 0.089252
#
#
# Mechanical properties :
#
#
# Convention : Reuss Voigt Hill
#
# Bulk Modulus (GPa) = 47.76302 57.13508 52.44905
# Shear Modulus (GPa) = 17.18191 20.68412 18.93301
#
# Velocity S-wave (km/s) = 3.15654 3.46333 3.31349
# Velocity P-wave (km/s) = 6.40177 7.00895 6.71223
#
# Compressibility (1/GPa) = 0.02093670
#
# Stress axis : x y z
#
# Youngs Moduli (GPa) = 53.13055 32.10032 53.20982
#
# Poissons Ratio (x) = 0.12844 0.19885
# Poissons Ratio (y) = 0.21259 0.86078
# Poissons Ratio (z) = 0.19855 0.51929
#
# Static dielectric constant tensor:
#      x y z
#    x 1.590190 0.000000 0.000000 
#    y 0.000000 1.576980 0.000000 
#    z 0.000000 0.000000 1.661330 
# 
# From -- ./inp_files/54554.got.cif
#   From: 2010.05.17/outbox.cif.g08.bks.cpg/sg63_28_cif.got.tgz:54554.got - 2010.06.03 15:47:04.
