data_PCOD9469388
_publ_section_title
;
Structure prediction by ZEFSAII (Michael W. Deem and Ramdas Pophale) SiO2 
 PCOD9469388
Probable space group: C M C M
;
_chemical_formula_sum "Si O2"
_cell_formula_units_Z 128
_cell_length_a 21.367132
_cell_length_b 18.371648
_cell_length_c 18.886706
_cell_angle_alpha 90.000000
_cell_angle_beta 90.000000
_cell_angle_gamma 90.000000
_cell_volume 7413.965635
_symmetry_space_group_name_H-M "C M C M"
_symmetry_group_IT_number 63
_symmetry_cell_setting 'orthorhombic'
loop_
_space_group_symop_operation_xyz
x,y,z
-x,-y,1/2+z
x,-y,-z
-x,y,1/2-z
-x,-y,-z
x,y,1/2-z
-x,y,z
x,-y,1/2+z
1/2+x,1/2+y,z
1/2-x,1/2-y,1/2+z
1/2+x,1/2-y,-z
1/2-x,1/2+y,1/2-z
1/2-x,1/2-y,-z
1/2+x,1/2+y,1/2-z
1/2-x,1/2+y,z
1/2+x,1/2-y,1/2+z
loop_
_atom_site_type_symbol
_atom_site_label
_atom_site_fract_x
_atom_site_fract_y
_atom_site_fract_z
Si Si1 0.926954 0.711220 0.334233
Si Si2 0.309052 0.638087 0.330328
Si Si3 0.701764 0.858037 0.478131
Si Si4 0.200114 0.431317 0.169908
Si Si5 0.425768 0.639573 0.916300
Si Si6 0.336775 0.697563 0.023146
Si Si7 0.671815 0.089527 0.125141
Si Si8 0.846865 0.026767 0.669622
O O1 0.920471 0.718844 0.250000
O O2 0.909809 0.788369 0.369825
O O3 0.884484 0.644094 0.358688
O O4 0.000000 0.697673 0.351042
O O5 0.320184 0.662206 0.250000
O O6 0.330413 0.690265 0.392749
O O7 0.235036 0.624107 0.341643
O O8 0.342100 0.559786 0.341801
O O9 0.686478 0.882605 0.398762
O O10 0.667438 0.782262 0.495536
O O11 0.775738 0.840897 0.488060
O O12 0.683421 0.913567 0.540509
O O13 0.186666 0.404506 0.250000
O O14 0.166883 0.509332 0.157777
O O15 0.274949 0.446249 0.165831
O O16 0.500000 0.629402 0.916110
O O17 0.390047 0.570724 0.883721
O O18 0.397473 0.658617 0.992626
O O19 0.869152 0.039827 0.750000
#
# Coordination Sequence:
#
# PCOD9469388 Si02
#       8
#    16  16  16  16  16  16  16  16
#     4  10  20  33  52  79 110 143 177 215 264 323
#     4   9  19  33  53  76 103 138 176 225 273 319
#     4  10  19  33  52  76 108 141 174 225 270 313
#     4  10  19  31  52  81 110 140 174 216 268 319
#     4  11  21  35  53  75 109 145 178 220 269 323
#     4  10  20  34  51  76 104 138 183 219 270 318
#     4  10  18  33  54  78 108 140 175 215 272 323
#     4   9  18  33  50  74 107 137 174 221 267 318
#
# _framework density 17.264714999999999
#
# number of rings (size 3 to 8) (size 9 to 14) (size 15 to 20)
#    0.000    2.125    2.500    2.625    0.000    1.750 
#    0.000    1.250    0.000    3.375    0.000    0.000 
#    0.000    0.000    0.000    0.000    0.000    0.000 
#
# Total GULP energy -356875.810829 kJ/mol
# GULP energy per Si atom -5576.184544 kJ/mol
# Density = 1.722542 g / cm^3
# Si number density = 17.264715 Si / 1000 Ang^3
#
#
#
# Elastic Constant Matrix: (Units=GPa)
#
#
# Indices 1 2 3 4 5 6 
#
# 1 38.4945 19.8055 15.9912 0.0000 0.0000 0.0000
# 2 19.8055 25.5445 20.5923 0.0000 0.0000 0.0000
# 3 15.9912 20.5923 100.2026 0.0000 0.0000 0.0000
# 4 0.0000 0.0000 0.0000 26.5368 0.0000 0.0000
# 5 0.0000 0.0000 0.0000 0.0000 13.2576 0.0000
# 6 0.0000 0.0000 0.0000 0.0000 0.0000 21.9363
#
#
#
# Elastic Compliance Matrix: (Units=1/GPa)
#
#
# Indices 1 2 3 4 5 6 
#
# 1 0.043218 -0.033498 -0.000013 0.000000 0.000000 0.000000
# 2 -0.033498 0.072884 -0.009632 0.000000 0.000000 0.000000
# 3 -0.000013 -0.009632 0.011961 0.000000 0.000000 0.000000
# 4 0.000000 0.000000 0.000000 0.037683 0.000000 0.000000
# 5 0.000000 0.000000 0.000000 0.000000 0.075428 0.000000
# 6 0.000000 0.000000 0.000000 0.000000 0.000000 0.045587
#
#
# Mechanical properties :
#
#
# Convention : Reuss Voigt Hill
#
# Bulk Modulus (GPa) = 23.93649 30.77996 27.35822
# Shear Modulus (GPa) = 12.92080 19.53633 16.22856
#
# Velocity S-wave (km/s) = 2.73865 3.36754 3.06924
# Velocity P-wave (km/s) = 4.88822 5.74346 5.33302
#
# Compressibility (1/GPa) = 0.04177722
#
# Stress axis : x y z
#
# Youngs Moduli (GPa) = 23.13867 13.72042 83.60241
#
# Poissons Ratio (x) = 0.45960 0.00109
# Poissons Ratio (y) = 0.77509 0.80529
# Poissons Ratio (z) = 0.00030 0.13216
#
# Static dielectric constant tensor:
#      x y z
#    x 1.559420 0.000000 0.000000 
#    y 0.000000 1.583540 0.000000 
#    z 0.000000 0.000000 1.609010 
# 
# From -- ./inp_files/47539.got.cif
#   From: 2010.05.17/outbox.cif.g08.bks.cpg/sg63_24_cif.got.tgz:47539.got - 2010.06.03 15:47:04.
