data_PCOD9469530
_publ_section_title
;
Structure prediction by ZEFSAII (Michael W. Deem and Ramdas Pophale) SiO2 
 PCOD9469530
Probable space group: C M C M
;
_chemical_formula_sum "Si O2"
_cell_formula_units_Z 96
_cell_length_a 7.374253
_cell_length_b 24.595555
_cell_length_c 22.330574
_cell_angle_alpha 90.000000
_cell_angle_beta 90.000000
_cell_angle_gamma 90.000000
_cell_volume 4050.182073
_symmetry_space_group_name_H-M "C M C M"
_symmetry_group_IT_number 63
_symmetry_cell_setting 'orthorhombic'
loop_
_space_group_symop_operation_xyz
x,y,z
-x,-y,1/2+z
x,-y,-z
-x,y,1/2-z
-x,-y,-z
x,y,1/2-z
-x,y,z
x,-y,1/2+z
1/2+x,1/2+y,z
1/2-x,1/2-y,1/2+z
1/2+x,1/2-y,-z
1/2-x,1/2+y,1/2-z
1/2-x,1/2-y,-z
1/2+x,1/2+y,1/2-z
1/2-x,1/2+y,z
1/2+x,1/2-y,1/2+z
loop_
_atom_site_type_symbol
_atom_site_label
_atom_site_fract_x
_atom_site_fract_y
_atom_site_fract_z
Si Si1 0.211140 0.525264 0.134590
Si Si2 0.282352 0.164511 0.574178
Si Si3 0.722093 0.090717 0.681549
Si Si4 0.283177 0.598622 0.250000
Si Si5 0.277273 0.883399 0.949144
Si Si6 0.713684 0.777520 0.620815
Si Si7 0.704966 0.775230 0.750000
O O1 0.284996 0.467229 0.154993
O O2 0.224413 0.565158 0.191648
O O3 0.284951 0.559613 0.078726
O O4 0.000000 0.515206 0.120994
O O5 0.500000 0.161610 0.573465
O O6 0.218826 0.136946 0.635557
O O7 0.219316 0.131801 0.515956
O O8 0.233974 0.227796 0.575433
O O9 0.780872 0.097847 0.750000
O O10 0.500000 0.090090 0.682688
O O11 0.500000 0.603286 0.250000
O O12 0.203246 0.658921 0.250000
O O13 0.500000 0.883839 0.948484
O O14 0.216669 0.833746 0.906365
O O15 0.500000 0.786472 0.630753
O O16 0.791257 0.761313 0.685900
O O17 0.500000 0.752771 0.750000
#
# Coordination Sequence:
#
# PCOD9469530 Si02
#       7
#    16  16  16   8  16  16   8
#     4  10  18  35  60  77 103 146 184 216 263 325
#     4  10  21  35  52  80 114 141 177 228 270 311
#     4   9  18  32  54  80 106 141 180 217 266 319
#     4  12  22  32  51  86 117 133 170 228 282 319
#     4   9  18  33  56  82 105 138 183 227 267 314
#     4  10  20  35  55  78 105 144 186 215 261 329
#     4  10  20  36  57  78 105 139 182 226 260 321
#
# _framework density 23.702636999999999
#
# number of rings (size 3 to 8) (size 9 to 14) (size 15 to 20)
#    0.000    2.167    2.500    1.250    1.167    1.333 
#    0.000    5.000    0.000    0.000    0.000    2.333 
#    0.000    0.000    0.000    0.000    0.000    0.000 
#
# Total GULP energy -268298.002047 kJ/mol
# GULP energy per Si atom -5589.541709 kJ/mol
# Density = 2.364869 g / cm^3
# Si number density = 23.702637 Si / 1000 Ang^3
#
#
#
# Elastic Constant Matrix: (Units=GPa)
#
#
# Indices 1 2 3 4 5 6 
#
# 1 90.6654 -7.4919 7.3826 0.0000 0.0000 0.0000
# 2 -7.4919 52.5557 29.1868 0.0000 0.0000 0.0000
# 3 7.3826 29.1868 109.0401 0.0000 0.0000 0.0000
# 4 0.0000 0.0000 0.0000 10.9240 0.0000 0.0000
# 5 0.0000 0.0000 0.0000 0.0000 -12.6189 0.0000
# 6 0.0000 0.0000 0.0000 0.0000 0.0000 0.7705
#
#
#
# Elastic Compliance Matrix: (Units=1/GPa)
#
#
# Indices 1 2 3 4 5 6 
#
# 1 0.011343 0.002400 -0.001410 0.000000 0.000000 0.000000
# 2 0.002400 0.022858 -0.006281 0.000000 0.000000 0.000000
# 3 -0.001410 -0.006281 0.010948 0.000000 0.000000 0.000000
# 4 0.000000 0.000000 0.000000 0.091542 0.000000 0.000000
# 5 0.000000 0.000000 0.000000 0.000000 -0.079246 0.000000
# 6 0.000000 0.000000 0.000000 0.000000 0.000000 1.297904
#
#
# Mechanical properties :
#
#
# Convention : Reuss Voigt Hill
#
# Bulk Modulus (GPa) = 28.93023 34.49069 31.71046
# Shear Modulus (GPa) = 3.62989 14.69402 9.16195
#
# Velocity S-wave (km/s) = 1.23885 2.49254 1.96819
# Velocity P-wave (km/s) = 3.77867 4.78191 4.30958
#
# Compressibility (1/GPa) = 0.03456592
#
# Stress axis : x y z
#
# Youngs Moduli (GPa) = 88.16205 43.74908 91.34405
#
# Poissons Ratio (x) = -0.10501 0.12883
# Poissons Ratio (y) = -0.21161 0.57372
# Poissons Ratio (z) = 0.12435 0.27478
#
# Static dielectric constant tensor:
#      x y z
#    x 1.917680 0.000000 0.000000 
#    y 0.000000 1.838330 0.000000 
#    z 0.000000 0.000000 1.899720 
# 
# From -- ./inp_files/60093.got.cif
#   From: 2010.05.17/outbox.cif.g08.bks.cpg/sg63_31_cif.got.tgz:60093.got - 2010.06.03 15:47:04.
