data_PCOD9469021
_publ_section_title
;
Structure prediction by ZEFSAII (Michael W. Deem and Ramdas Pophale) SiO2 
 PCOD9469021
Probable space group: C M C M
;
_chemical_formula_sum "Si O2"
_cell_formula_units_Z 128
_cell_length_a 20.103309
_cell_length_b 19.801340
_cell_length_c 19.290731
_cell_angle_alpha 90.000000
_cell_angle_beta 90.000000
_cell_angle_gamma 90.000000
_cell_volume 7679.108679
_symmetry_space_group_name_H-M "C M C M"
_symmetry_group_IT_number 63
_symmetry_cell_setting 'orthorhombic'
loop_
_space_group_symop_operation_xyz
x,y,z
-x,-y,1/2+z
x,-y,-z
-x,y,1/2-z
-x,-y,-z
x,y,1/2-z
-x,y,z
x,-y,1/2+z
1/2+x,1/2+y,z
1/2-x,1/2-y,1/2+z
1/2+x,1/2-y,-z
1/2-x,1/2+y,1/2-z
1/2-x,1/2-y,-z
1/2+x,1/2+y,1/2-z
1/2-x,1/2+y,z
1/2+x,1/2-y,1/2+z
loop_
_atom_site_type_symbol
_atom_site_label
_atom_site_fract_x
_atom_site_fract_y
_atom_site_fract_z
Si Si1 0.426215 0.350981 0.668176
Si Si2 0.074909 0.788091 0.448480
Si Si3 0.572923 0.447789 0.064430
Si Si4 0.280521 0.602455 0.331829
Si Si5 0.202828 0.713079 0.407242
Si Si6 0.926512 0.286671 0.096867
Si Si7 0.706447 0.158751 0.560783
Si Si8 0.784732 0.022463 0.919392
O O1 0.428138 0.364912 0.750000
O O2 0.500000 0.371488 0.638726
O O3 0.356278 0.381041 0.641396
O O4 0.420980 0.270717 0.655175
O O5 0.083337 0.869006 0.456034
O O6 0.131482 0.750530 0.404030
O O7 0.079133 0.756051 0.525153
O O8 0.000000 0.776484 0.422019
O O9 0.500000 0.452334 0.098643
O O10 0.639174 0.466339 0.105449
O O11 0.570964 0.500000 0.000000
O O12 0.283923 0.591144 0.250000
O O13 0.231517 0.664557 0.348449
O O14 0.255986 0.536934 0.372806
O O15 0.254954 0.773951 0.416013
O O16 0.202476 0.667929 0.477544
O O17 0.866431 0.338348 0.094067
O O18 0.000000 0.317189 0.099822
O O19 0.745630 0.092359 0.582077
O O20 0.786197 0.000000 0.000000
#
# Coordination Sequence:
#
# PCOD9469021 Si02
#       8
#    16  16  16  16  16  16  16  16
#     4   9  18  31  47  70 102 141 176 205 249 312
#     4   9  17  29  48  77 106 132 167 216 261 304
#     4   9  18  27  42  72 108 141 172 205 249 305
#     4  11  23  37  52  75 106 141 179 218 262 315
#     4  10  18  32  53  77 102 134 170 220 262 307
#     4   9  17  28  48  74 103 129 162 212 263 307
#     4  10  18  30  53  79 102 130 174 214 263 306
#     4  11  21  33  51  75 104 143 175 213 260 313
#
# _framework density 16.668600999999999
#
# number of rings (size 3 to 8) (size 9 to 14) (size 15 to 20)
#    0.000    2.250    3.750    0.000    3.500    0.500 
#    0.000    1.250    0.000    1.500    0.000    1.750 
#    0.000    0.000    0.000    0.000    0.000    0.000 
#
# Total GULP energy -356360.663009 kJ/mol
# GULP energy per Si atom -5568.135360 kJ/mol
# Density = 1.663066 g / cm^3
# Si number density = 16.668601 Si / 1000 Ang^3
#
#
#
# Elastic Constant Matrix: (Units=GPa)
#
#
# Indices 1 2 3 4 5 6 
#
# 1 106.3918 49.9131 13.3395 0.0000 0.0000 0.0000
# 2 49.9131 85.2748 20.0860 0.0000 0.0000 0.0000
# 3 13.3395 20.0860 29.3248 0.0000 0.0000 0.0000
# 4 0.0000 0.0000 0.0000 15.5556 0.0000 0.0000
# 5 0.0000 0.0000 0.0000 0.0000 10.1419 0.0000
# 6 0.0000 0.0000 0.0000 0.0000 0.0000 19.4503
#
#
#
# Elastic Compliance Matrix: (Units=1/GPa)
#
#
# Indices 1 2 3 4 5 6 
#
# 1 0.012974 -0.007398 -0.000835 0.000000 0.000000 0.000000
# 2 -0.007398 0.018200 -0.009101 0.000000 0.000000 0.000000
# 3 -0.000835 -0.009101 0.040715 0.000000 0.000000 0.000000
# 4 0.000000 0.000000 0.000000 0.064285 0.000000 0.000000
# 5 0.000000 0.000000 0.000000 0.000000 0.098601 0.000000
# 6 0.000000 0.000000 0.000000 0.000000 0.000000 0.051413
#
#
# Mechanical properties :
#
#
# Convention : Reuss Voigt Hill
#
# Bulk Modulus (GPa) = 26.86600 43.07429 34.97014
# Shear Modulus (GPa) = 15.00313 18.20642 16.60478
#
# Velocity S-wave (km/s) = 3.00339 3.30852 3.15964
# Velocity P-wave (km/s) = 5.30847 6.36339 5.85972
#
# Compressibility (1/GPa) = 0.03722177
#
# Stress axis : x y z
#
# Youngs Moduli (GPa) = 77.07476 54.94359 24.56125
#
# Poissons Ratio (x) = 0.40645 0.02051
# Poissons Ratio (y) = 0.57016 0.22354
# Poissons Ratio (z) = 0.06436 0.50006
#
# Static dielectric constant tensor:
#      x y z
#    x 1.618140 0.000000 0.000000 
#    y 0.000000 1.546470 0.000000 
#    z 0.000000 0.000000 1.571750 
# 
# From -- ./inp_files/56969.got.cif
#   From: 2010.05.17/outbox.cif.g08.bks.cpg/sg63_29_cif.got.tgz:56969.got - 2010.06.03 15:47:04.
