data_PCOD9469361
_publ_section_title
;
Structure prediction by ZEFSAII (Michael W. Deem and Ramdas Pophale) SiO2 
 PCOD9469361
Probable space group: C M C M
;
_chemical_formula_sum "Si O2"
_cell_formula_units_Z 96
_cell_length_a 14.339481
_cell_length_b 22.704795
_cell_length_c 14.424431
_cell_angle_alpha 90.000000
_cell_angle_beta 90.000000
_cell_angle_gamma 90.000000
_cell_volume 4696.233784
_symmetry_space_group_name_H-M "C M C M"
_symmetry_group_IT_number 63
_symmetry_cell_setting 'orthorhombic'
loop_
_space_group_symop_operation_xyz
x,y,z
-x,-y,1/2+z
x,-y,-z
-x,y,1/2-z
-x,-y,-z
x,y,1/2-z
-x,y,z
x,-y,1/2+z
1/2+x,1/2+y,z
1/2-x,1/2-y,1/2+z
1/2+x,1/2-y,-z
1/2-x,1/2+y,1/2-z
1/2-x,1/2-y,-z
1/2+x,1/2+y,1/2-z
1/2-x,1/2+y,z
1/2+x,1/2-y,1/2+z
loop_
_atom_site_type_symbol
_atom_site_label
_atom_site_fract_x
_atom_site_fract_y
_atom_site_fract_z
Si Si1 0.857577 0.745595 0.250000
Si Si2 0.885887 0.395516 0.750000
Si Si3 0.305063 0.056591 0.058356
Si Si4 0.889076 0.665051 0.550949
Si Si5 0.609306 0.326904 0.750000
Si Si6 0.611473 0.605376 0.441567
Si Si7 0.895168 0.219307 0.543395
Si Si8 0.671556 0.807365 0.250000
O O1 0.846966 0.673174 0.250000
O O2 0.899835 0.759157 0.351005
O O3 0.781458 0.798871 0.250000
O O4 0.848375 0.430991 0.839910
O O5 0.000000 0.391231 0.750000
O O6 0.191837 0.056482 0.059510
O O7 0.339323 0.113332 0.002252
O O8 0.337796 0.000000 0.000000
O O9 0.850142 0.727912 0.514788
O O10 0.869070 0.663163 0.659289
O O11 0.000000 0.661950 0.532619
O O12 0.500000 0.317997 0.750000
O O13 0.629986 0.361324 0.655934
O O14 0.649051 0.262106 0.750000
O O15 0.500000 0.589097 0.446584
O O16 0.636453 0.653155 0.521968
O O17 0.000000 0.216334 0.504187
#
# Coordination Sequence:
#
# PCOD9469361 Si02
#       8
#     8   8  16  16   8  16  16   8
#     4  12  22  34  60  93 127 165 207 252 310 380
#     4  12  26  45  68  93 123 166 218 269 314 364
#     4  12  27  45  66  91 122 170 227 268 310 367
#     4  11  23  39  61  91 128 168 208 256 315 376
#     4  10  18  32  58  93 126 156 191 237 309 386
#     4  10  21  39  65  98 133 164 202 259 323 385
#     4  10  20  35  59  91 126 161 199 247 316 384
#     4  12  22  33  59  95 134 165 195 252 322 384
#
# _framework density 20.441913
#
# number of rings (size 3 to 8) (size 9 to 14) (size 15 to 20)
#    0.000    1.000    3.333    4.500    0.000    3.667 
#    0.000    0.833    0.000    0.000    0.000    0.000 
#    0.000    0.000    0.000    0.000    0.000    0.000 
#
# Total GULP energy -267538.959067 kJ/mol
# GULP energy per Si atom -5573.728314 kJ/mol
# Density = 2.039539 g / cm^3
# Si number density = 20.441913 Si / 1000 Ang^3
#
#
#
# Elastic Constant Matrix: (Units=GPa)
#
#
# Indices 1 2 3 4 5 6 
#
# 1 82.8903 18.8082 22.9258 0.0000 0.0000 0.0000
# 2 18.8082 44.3765 26.9105 0.0000 0.0000 0.0000
# 3 22.9258 26.9105 126.9246 0.0000 0.0000 0.0000
# 4 0.0000 0.0000 0.0000 24.6423 0.0000 0.0000
# 5 0.0000 0.0000 0.0000 0.0000 30.4386 0.0000
# 6 0.0000 0.0000 0.0000 0.0000 0.0000 873.5894
#
#
#
# Elastic Compliance Matrix: (Units=1/GPa)
#
#
# Indices 1 2 3 4 5 6 
#
# 1 0.013565 -0.004893 -0.001413 0.000000 0.000000 0.000000
# 2 -0.004893 0.027624 -0.004973 0.000000 0.000000 0.000000
# 3 -0.001413 -0.004973 0.009188 0.000000 0.000000 0.000000
# 4 0.000000 0.000000 0.000000 0.040581 0.000000 0.000000
# 5 0.000000 0.000000 0.000000 0.000000 0.032853 0.000000
# 6 0.000000 0.000000 0.000000 0.000000 0.000000 0.001145
#
#
# Mechanical properties :
#
#
# Convention : Reuss Voigt Hill
#
# Bulk Modulus (GPa) = 35.94511 43.49783 39.72147
# Shear Modulus (GPa) = 31.89061 198.10384 114.99723
#
# Velocity S-wave (km/s) = 3.95404 9.85500 7.50851
# Velocity P-wave (km/s) = 6.20227 12.28086 9.72851
#
# Compressibility (1/GPa) = 0.02782020
#
# Stress axis : x y z
#
# Youngs Moduli (GPa) = 73.71887 36.20062 108.83420
#
# Poissons Ratio (x) = 0.17711 0.15377
# Poissons Ratio (y) = 0.36067 0.54124
# Poissons Ratio (z) = 0.10416 0.18003
#
# Static dielectric constant tensor:
#      x y z
#    x 1.683420 0.000000 0.000000 
#    y 0.000000 1.699620 0.000000 
#    z 0.000000 0.000000 1.730580 
# 
# From -- ./inp_files/32026.got.cif
#   From: 2010.05.17/outbox.cif.g08.bks.cpg/sg63_17_cif.got.tgz:32026.got - 2010.06.03 15:47:04.
