data_PCOD9469506
_publ_section_title
;
Structure prediction by ZEFSAII (Michael W. Deem and Ramdas Pophale) SiO2 
 PCOD9469506
Probable space group: C M C M
;
_chemical_formula_sum "Si O2"
_cell_formula_units_Z 116
_cell_length_a 17.233179
_cell_length_b 10.996390
_cell_length_c 26.887653
_cell_angle_alpha 90.000000
_cell_angle_beta 90.000000
_cell_angle_gamma 90.000000
_cell_volume 5095.284379
_symmetry_space_group_name_H-M "C M C M"
_symmetry_group_IT_number 63
_symmetry_cell_setting 'orthorhombic'
loop_
_space_group_symop_operation_xyz
x,y,z
-x,-y,1/2+z
x,-y,-z
-x,y,1/2-z
-x,-y,-z
x,y,1/2-z
-x,y,z
x,-y,1/2+z
1/2+x,1/2+y,z
1/2-x,1/2-y,1/2+z
1/2+x,1/2-y,-z
1/2-x,1/2+y,1/2-z
1/2-x,1/2-y,-z
1/2+x,1/2+y,1/2-z
1/2-x,1/2+y,z
1/2+x,1/2-y,1/2+z
loop_
_atom_site_type_symbol
_atom_site_label
_atom_site_fract_x
_atom_site_fract_y
_atom_site_fract_z
Si Si1 0.088806 0.105884 0.190498
Si Si2 0.909551 0.618901 0.471432
Si Si3 0.808532 0.762494 0.097428
Si Si4 0.377993 0.118729 0.665192
Si Si5 0.500000 0.048710 0.750000
Si Si6 0.588442 0.483775 0.059188
Si Si7 0.707514 0.609089 0.809056
Si Si8 0.128312 0.745188 0.570365
O O1 0.082814 0.104248 0.250000
O O2 0.124752 0.237148 0.179073
O O3 0.000000 0.097726 0.172178
O O4 0.143549 0.992595 0.178993
O O5 0.881206 0.500000 0.500000
O O6 0.858064 0.652984 0.424612
O O7 0.898708 0.719946 0.514413
O O8 0.000000 0.607766 0.458980
O O9 0.809532 0.773566 0.156963
O O10 0.721245 0.756983 0.076720
O O11 0.850329 0.885097 0.077913
O O12 0.433615 0.058609 0.705422
O O13 0.291943 0.067007 0.671881
O O14 0.402153 0.138469 0.607451
O O15 0.500000 0.441871 0.068925
O O16 0.600851 0.618012 0.082371
O O17 0.597528 0.500000 0.000000
O O18 0.709424 0.631487 0.750000
#
# Coordination Sequence:
#
# PCOD9469506 Si02
#       8
#    16  16  16  16   4  16  16  16
#     4  10  18  34  61  92 122 164 212 258 311 376
#     4  11  25  44  65  89 123 169 218 266 319 392
#     4  11  24  40  64  95 130 172 208 264 329 390
#     4  11  21  38  61  96 128 164 211 269 320 373
#     4  12  20  36  68  92 126 170 212 272 316 370
#     4  11  23  40  66  98 132 164 210 273 329 377
#     4  10  22  39  58  94 134 168 209 261 323 383
#     4  11  25  38  65  96 131 166 209 266 328 388
#
# _framework density 22.766148999999999
#
# number of rings (size 3 to 8) (size 9 to 14) (size 15 to 20)
#    0.000    1.241    3.448    2.069    3.862    2.207 
#    2.483    0.000    0.000    0.000    1.793    0.000 
#    0.000    0.000    0.000    0.000    0.000    0.000 
#
# Total GULP energy -323799.735681 kJ/mol
# GULP energy per Si atom -5582.754063 kJ/mol
# Density = 2.271433 g / cm^3
# Si number density = 22.766149 Si / 1000 Ang^3
#
#
#
# Elastic Constant Matrix: (Units=GPa)
#
#
# Indices 1 2 3 4 5 6 
#
# 1 112.8485 22.7591 7.6142 0.0000 0.0000 0.0000
# 2 22.7591 52.5781 -10.6396 0.0000 0.0000 0.0000
# 3 7.6142 -10.6396 69.8294 0.0000 0.0000 0.0000
# 4 0.0000 0.0000 0.0000 18.9925 0.0000 0.0000
# 5 0.0000 0.0000 0.0000 0.0000 34.2817 0.0000
# 6 0.0000 0.0000 0.0000 0.0000 0.0000 25.5799
#
#
#
# Elastic Compliance Matrix: (Units=1/GPa)
#
#
# Indices 1 2 3 4 5 6 
#
# 1 0.009922 -0.004657 -0.001791 0.000000 0.000000 0.000000
# 2 -0.004657 0.021810 0.003831 0.000000 0.000000 0.000000
# 3 -0.001791 0.003831 0.015100 0.000000 0.000000 0.000000
# 4 0.000000 0.000000 0.000000 0.052652 0.000000 0.000000
# 5 0.000000 0.000000 0.000000 0.000000 0.029170 0.000000
# 6 0.000000 0.000000 0.000000 0.000000 0.000000 0.039093
#
#
# Mechanical properties :
#
#
# Convention : Reuss Voigt Hill
#
# Bulk Modulus (GPa) = 24.04054 30.52483 27.28268
# Shear Modulus (GPa) = 26.75972 30.13898 28.44935
#
# Velocity S-wave (km/s) = 3.43215 3.64242 3.53885
# Velocity P-wave (km/s) = 5.12727 5.57914 5.35797
#
# Compressibility (1/GPa) = 0.04159641
#
# Stress axis : x y z
#
# Youngs Moduli (GPa) = 100.79050 45.84950 66.22667
#
# Poissons Ratio (x) = 0.21353 0.11864
# Poissons Ratio (y) = 0.46940 -0.25371
# Poissons Ratio (z) = 0.18056 -0.17565
#
# Static dielectric constant tensor:
#      x y z
#    x 1.550850 0.000000 0.000000 
#    y 0.000000 1.875260 0.000000 
#    z 0.000000 0.000000 1.947720 
# 
# From -- ./inp_files/73938.got.cif
#   From: 2010.05.17/outbox.cif.g08.bks.cpg/sg63_37_cif.got.tgz:73938.got - 2010.06.03 15:47:04.
