data_PCOD9469489
_publ_section_title
;
Structure prediction by ZEFSAII (Michael W. Deem and Ramdas Pophale) SiO2 
 PCOD9469489
Probable space group: C M C M
;
_chemical_formula_sum "Si O2"
_cell_formula_units_Z 68
_cell_length_a 7.644982
_cell_length_b 24.361521
_cell_length_c 17.571026
_cell_angle_alpha 90.000000
_cell_angle_beta 90.000000
_cell_angle_gamma 90.000000
_cell_volume 3272.487440
_symmetry_space_group_name_H-M "C M C M"
_symmetry_group_IT_number 63
_symmetry_cell_setting 'orthorhombic'
loop_
_space_group_symop_operation_xyz
x,y,z
-x,-y,1/2+z
x,-y,-z
-x,y,1/2-z
-x,-y,-z
x,y,1/2-z
-x,y,z
x,-y,1/2+z
1/2+x,1/2+y,z
1/2-x,1/2-y,1/2+z
1/2+x,1/2-y,-z
1/2-x,1/2+y,1/2-z
1/2-x,1/2-y,-z
1/2+x,1/2+y,1/2-z
1/2-x,1/2+y,z
1/2+x,1/2-y,1/2+z
loop_
_atom_site_type_symbol
_atom_site_label
_atom_site_fract_x
_atom_site_fract_y
_atom_site_fract_z
Si Si1 0.708923 0.250176 0.838628
Si Si2 0.712556 0.938355 0.519143
Si Si3 0.790433 0.625897 0.336113
Si Si4 0.500000 0.114790 0.750000
Si Si5 0.695189 0.366197 0.375141
O O1 0.766826 0.244495 0.750000
O O2 0.500000 0.243433 0.838865
O O3 0.752871 0.311835 0.862288
O O4 0.788666 0.199790 0.884139
O O5 0.500000 0.937644 0.519280
O O6 0.773433 0.917041 0.601516
O O7 0.774966 0.897161 0.454124
O O8 0.768934 0.000000 0.500000
O O9 0.720435 0.619477 0.250000
O O10 0.000000 0.620205 0.331691
O O11 0.653906 0.116979 0.816282
O O12 0.500000 0.378651 0.347081
#
# Coordination Sequence:
#
# PCOD9469489 Si02
#       5
#    16  16  16   4  16
#     4  10  18  34  58  90 130 165 204 258 317 385
#     4  10  22  43  62  89 130 175 220 278 328 373
#     4   9  19  36  60  90 123 169 221 263 320 392
#     4  12  22  44  62 102 134 168 212 268 314 400
#     4  12  23  39  67  97 132 173 213 263 325 385
#
# _framework density 20.779301
#
# number of rings (size 3 to 8) (size 9 to 14) (size 15 to 20)
#    0.000    1.647    3.529    1.059    0.000    3.294 
#    2.118    0.000    0.000    0.000    0.000    0.000 
#    0.000    0.000    0.000    0.000    0.000    0.000 
#
# Total GULP energy -189408.913697 kJ/mol
# GULP energy per Si atom -5570.850403 kJ/mol
# Density = 2.073201 g / cm^3
# Si number density = 20.779301 Si / 1000 Ang^3
#
#
#
# Elastic Constant Matrix: (Units=GPa)
#
#
# Indices 1 2 3 4 5 6 
#
# 1 111.3108 11.3571 34.2378 0.0000 0.0000 0.0000
# 2 11.3571 155.5274 92.6771 0.0000 0.0000 0.0000
# 3 34.2378 92.6771 125.2289 0.0000 0.0000 0.0000
# 4 0.0000 0.0000 0.0000 111.0061 0.0000 0.0000
# 5 0.0000 0.0000 0.0000 0.0000 0.1994 0.0000
# 6 0.0000 0.0000 0.0000 0.0000 0.0000 21.3028
#
#
#
# Elastic Compliance Matrix: (Units=1/GPa)
#
#
# Indices 1 2 3 4 5 6 
#
# 1 0.010030 0.001613 -0.003936 0.000000 0.000000 0.000000
# 2 0.001613 0.011761 -0.009145 0.000000 0.000000 0.000000
# 3 -0.003936 -0.009145 0.015829 0.000000 0.000000 0.000000
# 4 0.000000 0.000000 0.000000 0.009009 0.000000 0.000000
# 5 0.000000 0.000000 0.000000 0.000000 5.014459 0.000000
# 6 0.000000 0.000000 0.000000 0.000000 0.000000 0.046942
#
#
# Mechanical properties :
#
#
# Convention : Reuss Voigt Hill
#
# Bulk Modulus (GPa) = 68.09867 74.29014 71.19441
# Shear Modulus (GPa) = 0.97355 43.42132 22.19744
#
# Velocity S-wave (km/s) = 0.68523 4.57622 3.27195
# Velocity P-wave (km/s) = 5.78529 7.98449 6.97214
#
# Compressibility (1/GPa) = 0.01468457
#
# Stress axis : x y z
#
# Youngs Moduli (GPa) = 99.70185 85.02336 63.17343
#
# Poissons Ratio (x) = -0.13714 0.24864
# Poissons Ratio (y) = -0.16081 0.57773
# Poissons Ratio (z) = 0.39241 0.77755
#
# Static dielectric constant tensor:
#      x y z
#    x 1.754530 0.000000 0.000000 
#    y 0.000000 1.742640 0.000000 
#    z 0.000000 0.000000 1.724080 
# 
# From -- ./inp_files/40195.got.cif
#   From: 2010.05.17/outbox.cif.g08.bks.cpg/sg63_21_cif.got.tgz:40195.got - 2010.06.03 15:47:04.
