data_PCOD9469082
_publ_section_title
;
Structure prediction by ZEFSAII (Michael W. Deem and Ramdas Pophale) SiO2 
 PCOD9469082
Probable space group: C M C M
;
_chemical_formula_sum "Si O2"
_cell_formula_units_Z 80
_cell_length_a 28.802769
_cell_length_b 20.803900
_cell_length_c 7.833545
_cell_angle_alpha 90.000000
_cell_angle_beta 90.000000
_cell_angle_gamma 90.000000
_cell_volume 4693.937920
_symmetry_space_group_name_H-M "C M C M"
_symmetry_group_IT_number 63
_symmetry_cell_setting 'orthorhombic'
loop_
_space_group_symop_operation_xyz
x,y,z
-x,-y,1/2+z
x,-y,-z
-x,y,1/2-z
-x,-y,-z
x,y,1/2-z
-x,y,z
x,-y,1/2+z
1/2+x,1/2+y,z
1/2-x,1/2-y,1/2+z
1/2+x,1/2-y,-z
1/2-x,1/2+y,1/2-z
1/2-x,1/2-y,-z
1/2+x,1/2+y,1/2-z
1/2-x,1/2+y,z
1/2+x,1/2-y,1/2+z
loop_
_atom_site_type_symbol
_atom_site_label
_atom_site_fract_x
_atom_site_fract_y
_atom_site_fract_z
Si Si1 0.946474 0.095520 0.750000
Si Si2 0.215219 0.692489 0.454993
Si Si3 0.116978 0.255231 0.439037
Si Si4 0.447392 0.752153 0.750000
Si Si5 0.622925 0.399848 0.949706
Si Si6 0.773065 0.929555 0.954423
O O1 0.948087 0.173857 0.750000
O O2 0.917046 0.078111 0.580383
O O3 0.000000 0.072712 0.750000
O O4 0.209705 0.689779 0.250000
O O5 0.250000 0.750000 0.500000
O O6 0.165613 0.709061 0.533955
O O7 0.239745 0.627136 0.516913
O O8 0.098779 0.267663 0.250000
O O9 0.080788 0.273193 0.584171
O O10 0.125228 0.178145 0.453487
O O11 0.500000 0.774656 0.750000
O O12 0.615342 0.418363 0.750000
O O13 0.673490 0.422690 0.013120
O O14 0.775576 0.922554 0.750000
O O15 0.755695 0.000000 0.000000
#
# Coordination Sequence:
#
# PCOD9469082 Si02
#       6
#     8  16  16   8  16  16
#     4   9  18  30  50  73  92 128 172 214 273 315
#     4  11  20  32  51  77 107 139 178 218 256 313
#     4  10  18  31  50  75 104 136 173 212 258 310
#     4   9  18  32  48  73 108 136 166 216 265 309
#     4   9  18  32  48  71  99 128 173 217 254 311
#     4  10  22  35  49  74 104 139 177 214 261 313
#
# _framework density 17.04326
#
# number of rings (size 3 to 8) (size 9 to 14) (size 15 to 20)
#    0.000    2.200    3.000    0.600    1.400    2.400 
#    0.000    4.000    0.000    0.600    0.000    0.000 
#    0.000    0.800    0.400    0.000    0.000    0.000 
#
# Total GULP energy -223236.741857 kJ/mol
# GULP energy per Si atom -5580.918546 kJ/mol
# Density = 1.700447 g / cm^3
# Si number density = 17.043260 Si / 1000 Ang^3
#
#
#
# Elastic Constant Matrix: (Units=GPa)
#
#
# Indices 1 2 3 4 5 6 
#
# 1 112.9991 38.9315 51.3189 0.0000 0.0000 0.0000
# 2 38.9315 71.9634 23.4867 0.0000 0.0000 0.0000
# 3 51.3189 23.4867 93.7457 0.0000 0.0000 0.0000
# 4 0.0000 0.0000 0.0000 14.1852 0.0000 0.0000
# 5 0.0000 0.0000 0.0000 0.0000 14.0054 0.0000
# 6 0.0000 0.0000 0.0000 0.0000 0.0000 6.2125
#
#
#
# Elastic Compliance Matrix: (Units=1/GPa)
#
#
# Indices 1 2 3 4 5 6 
#
# 1 0.013402 -0.005288 -0.006012 0.000000 0.000000 0.000000
# 2 -0.005288 0.017220 -0.001419 0.000000 0.000000 0.000000
# 3 -0.006012 -0.001419 0.014314 0.000000 0.000000 0.000000
# 4 0.000000 0.000000 0.000000 0.070496 0.000000 0.000000
# 5 0.000000 0.000000 0.000000 0.000000 0.071401 0.000000
# 6 0.000000 0.000000 0.000000 0.000000 0.000000 0.160965
#
#
# Mechanical properties :
#
#
# Convention : Reuss Voigt Hill
#
# Bulk Modulus (GPa) = 51.28945 56.24248 53.76597
# Shear Modulus (GPa) = 13.16708 17.87869 15.52289
#
# Velocity S-wave (km/s) = 2.78253 3.24237 3.02121
# Velocity P-wave (km/s) = 6.36257 6.86212 6.61706
#
# Compressibility (1/GPa) = 0.01949719
#
# Stress axis : x y z
#
# Youngs Moduli (GPa) = 74.61707 58.07178 69.86336
#
# Poissons Ratio (x) = 0.30710 0.41999
# Poissons Ratio (y) = 0.39459 0.09916
# Poissons Ratio (z) = 0.44857 0.08242
#
# Static dielectric constant tensor:
#      x y z
#    x 1.557670 0.000000 0.000000 
#    y 0.000000 1.539880 0.000000 
#    z 0.000000 0.000000 1.599040 
# 
# From -- ./inp_files/10111.got.cif
#   From: 2010.05.17/outbox.cif.g08.bks.cpg/sg63_6_cif.got.tgz:10111.got - 2010.06.03 15:47:04.
