data_PCOD9469381
_publ_section_title
;
Structure prediction by ZEFSAII (Michael W. Deem and Ramdas Pophale) SiO2 
 PCOD9469381
Probable space group: C M C M
;
_chemical_formula_sum "Si O2"
_cell_formula_units_Z 80
_cell_length_a 17.564458
_cell_length_b 7.405360
_cell_length_c 24.398941
_cell_angle_alpha 90.000000
_cell_angle_beta 90.000000
_cell_angle_gamma 90.000000
_cell_volume 3173.597941
_symmetry_space_group_name_H-M "C M C M"
_symmetry_group_IT_number 63
_symmetry_cell_setting 'orthorhombic'
loop_
_space_group_symop_operation_xyz
x,y,z
-x,-y,1/2+z
x,-y,-z
-x,y,1/2-z
-x,-y,-z
x,y,1/2-z
-x,y,z
x,-y,1/2+z
1/2+x,1/2+y,z
1/2-x,1/2-y,1/2+z
1/2+x,1/2-y,-z
1/2-x,1/2+y,1/2-z
1/2-x,1/2-y,-z
1/2+x,1/2+y,1/2-z
1/2-x,1/2+y,z
1/2+x,1/2-y,1/2+z
loop_
_atom_site_type_symbol
_atom_site_label
_atom_site_fract_x
_atom_site_fract_y
_atom_site_fract_z
Si Si1 0.843075 0.284013 0.060452
Si Si2 0.661543 0.123626 0.185705
Si Si3 0.500000 0.052712 0.187291
Si Si4 0.500000 0.353216 0.548843
Si Si5 0.168499 0.022210 0.337501
Si Si6 0.000000 0.014427 0.670606
Si Si7 0.256885 0.500000 0.500000
O O1 0.930663 0.283808 0.050001
O O2 0.828954 0.163937 0.113347
O O3 0.812227 0.165224 0.009737
O O4 0.796234 0.465621 0.052836
O O5 0.646215 0.172641 0.250000
O O6 0.586577 0.009103 0.166580
O O7 0.746265 0.039851 0.187336
O O8 0.663200 0.308070 0.150851
O O9 0.500000 0.987746 0.250000
O O10 0.500000 0.271973 0.183209
O O11 0.500000 0.500000 0.500000
O O12 0.500000 0.468473 0.605564
O O13 0.083954 0.056662 0.310639
#
# Coordination Sequence:
#
# PCOD9469381 Si02
#       7
#    16  16   8   8  16   8   8
#     4  10  20  34  54  75 105 140 178 227 267 322
#     4  10  19  33  54  78 105 135 173 216 265 320
#     4   8  16  32  51  73 100 133 170 213 258 316
#     4  10  18  33  53  77 105 140 182 227 269 323
#     4  10  19  34  54  77 105 139 178 217 269 314
#     4   8  18  32  52  76 103 143 178 218 261 322
#     4  10  20  34  50  76 104 136 180 218 276 312
#
# _framework density 25.207979000000002
#
# number of rings (size 3 to 8) (size 9 to 14) (size 15 to 20)
#    0.000    2.400    1.000    1.800    0.000    1.200 
#    0.000    1.000    0.000    1.200    0.000    0.000 
#    0.000    0.000    0.000    0.000    0.000    0.000 
#
# Total GULP energy -222743.653221 kJ/mol
# GULP energy per Si atom -5568.591331 kJ/mol
# Density = 2.515060 g / cm^3
# Si number density = 25.207979 Si / 1000 Ang^3
#
#
#
# Elastic Constant Matrix: (Units=GPa)
#
#
# Indices 1 2 3 4 5 6 
#
# 1 294.6381 29.1029 30.3119 0.0000 0.0000 0.0000
# 2 29.1029 62.4206 5.5463 0.0000 0.0000 0.0000
# 3 30.3119 5.5463 62.4853 0.0000 0.0000 0.0000
# 4 0.0000 0.0000 0.0000 17.4962 0.0000 0.0000
# 5 0.0000 0.0000 0.0000 0.0000 16.9775 0.0000
# 6 0.0000 0.0000 0.0000 0.0000 0.0000 31.2964
#
#
#
# Elastic Compliance Matrix: (Units=1/GPa)
#
#
# Indices 1 2 3 4 5 6 
#
# 1 0.003722 -0.001587 -0.001665 0.000000 0.000000 0.000000
# 2 -0.001587 0.016825 -0.000723 0.000000 0.000000 0.000000
# 3 -0.001665 -0.000723 0.016876 0.000000 0.000000 0.000000
# 4 0.000000 0.000000 0.000000 0.057155 0.000000 0.000000
# 5 0.000000 0.000000 0.000000 0.000000 0.058901 0.000000
# 6 0.000000 0.000000 0.000000 0.000000 0.000000 0.031953
#
#
# Mechanical properties :
#
#
# Convention : Reuss Voigt Hill
#
# Bulk Modulus (GPa) = 33.93120 61.05183 47.49152
# Shear Modulus (GPa) = 24.60552 36.79287 30.69919
#
# Velocity S-wave (km/s) = 3.12765 3.82458 3.49354
# Velocity P-wave (km/s) = 5.15099 6.61627 5.92907
#
# Compressibility (1/GPa) = 0.02947140
#
# Stress axis : x y z
#
# Youngs Moduli (GPa) = 268.66879 59.43627 59.25750
#
# Poissons Ratio (x) = 0.09435 0.09864
# Poissons Ratio (y) = 0.42650 0.04286
# Poissons Ratio (z) = 0.44725 0.04299
#
# Static dielectric constant tensor:
#      x y z
#    x 2.100070 0.000000 0.000000 
#    y 0.000000 2.119480 0.000000 
#    z 0.000000 0.000000 2.119160 
# 
# From -- ./inp_files/69812.got.cif
#   From: 2010.05.17/outbox.cif.g08.bks.cpg/sg63_35_cif.got.tgz:69812.got - 2010.06.03 15:47:04.
