data_PCOD9469032
_publ_section_title
;
Structure prediction by ZEFSAII (Michael W. Deem and Ramdas Pophale) SiO2 
 PCOD9469032
Probable space group: C M C M
;
_chemical_formula_sum "Si O2"
_cell_formula_units_Z 68
_cell_length_a 7.351838
_cell_length_b 15.694417
_cell_length_c 28.676090
_cell_angle_alpha 90.000000
_cell_angle_beta 90.000000
_cell_angle_gamma 90.000000
_cell_volume 3308.727881
_symmetry_space_group_name_H-M "C M C M"
_symmetry_group_IT_number 63
_symmetry_cell_setting 'orthorhombic'
loop_
_space_group_symop_operation_xyz
x,y,z
-x,-y,1/2+z
x,-y,-z
-x,y,1/2-z
-x,-y,-z
x,y,1/2-z
-x,y,z
x,-y,1/2+z
1/2+x,1/2+y,z
1/2-x,1/2-y,1/2+z
1/2+x,1/2-y,-z
1/2-x,1/2+y,1/2-z
1/2-x,1/2-y,-z
1/2+x,1/2+y,1/2-z
1/2-x,1/2+y,z
1/2+x,1/2-y,1/2+z
loop_
_atom_site_type_symbol
_atom_site_label
_atom_site_fract_x
_atom_site_fract_y
_atom_site_fract_z
Si Si1 0.783537 0.850632 0.496097
Si Si2 0.000000 0.222793 0.250000
Si Si3 0.279323 0.597049 0.402602
Si Si4 0.290494 0.249083 0.167536
Si Si5 0.278579 0.592163 0.894539
O O1 0.750000 0.750000 0.500000
O O2 0.717015 0.893276 0.543793
O O3 0.714042 0.884012 0.446601
O O4 0.000000 0.865530 0.495282
O O5 0.158441 0.224987 0.209171
O O6 0.500000 0.600959 0.402547
O O7 0.213429 0.675088 0.371529
O O8 0.225075 0.504481 0.383621
O O9 0.500000 0.260745 0.182652
O O10 0.225258 0.336054 0.142317
O O11 0.500000 0.594631 0.895530
#
# Coordination Sequence:
#
# PCOD9469032 Si02
#       5
#    16   4  16  16  16
#     4  10  18  30  55  90 129 177 214 243 300 374
#     4  12  26  48  72  90 120 162 214 272 336 388
#     4  10  19  36  62  92 131 174 210 255 311 377
#     4  11  23  43  69  93 123 164 209 270 327 377
#     4   9  19  36  61  91 131 170 212 258 311 373
#
# _framework density 20.551705999999999
#
# number of rings (size 3 to 8) (size 9 to 14) (size 15 to 20)
#    0.000    1.882    3.529    1.059    0.000    2.824 
#    2.118    1.176    0.000    2.824    0.000    0.000 
#    0.000    0.000    0.000    0.000    0.000    0.000 
#
# Total GULP energy -189464.248616 kJ/mol
# GULP energy per Si atom -5572.477900 kJ/mol
# Density = 2.050493 g / cm^3
# Si number density = 20.551706 Si / 1000 Ang^3
#
#
#
# Elastic Constant Matrix: (Units=GPa)
#
#
# Indices 1 2 3 4 5 6 
#
# 1 105.7710 -15.1191 16.5566 0.0000 0.0000 0.0000
# 2 -15.1191 64.1765 -35.6483 0.0000 0.0000 0.0000
# 3 16.5566 -35.6483 47.5269 0.0000 0.0000 0.0000
# 4 0.0000 0.0000 0.0000 -2.4784 0.0000 0.0000
# 5 0.0000 0.0000 0.0000 0.0000 40.8285 0.0000
# 6 0.0000 0.0000 0.0000 0.0000 0.0000 -24.0994
#
#
#
# Elastic Compliance Matrix: (Units=1/GPa)
#
#
# Indices 1 2 3 4 5 6 
#
# 1 0.010019 0.000723 -0.002948 0.000000 0.000000 0.000000
# 2 0.000723 0.026763 0.019822 0.000000 0.000000 0.000000
# 3 -0.002948 0.019822 0.036936 0.000000 0.000000 0.000000
# 4 0.000000 0.000000 0.000000 -0.403480 0.000000 0.000000
# 5 0.000000 0.000000 0.000000 0.000000 0.024493 0.000000
# 6 0.000000 0.000000 0.000000 0.000000 0.000000 -0.041495
#
#
# Mechanical properties :
#
#
# Convention : Reuss Voigt Hill
#
# Bulk Modulus (GPa) = 9.18179 16.56144 12.87162
# Shear Modulus (GPa) = -14.46532 19.62913 2.58190
#
# Velocity S-wave (km/s) = -2.65590 3.09384 1.12206
# Velocity P-wave (km/s) = 2.21984 4.56490 2.82052
#
# Compressibility (1/GPa) = 0.10891125
#
# Stress axis : x y z
#
# Youngs Moduli (GPa) = 99.80847 37.36504 27.07408
#
# Poissons Ratio (x) = -0.02700 0.07982
# Poissons Ratio (y) = -0.07213 -0.53667
# Poissons Ratio (z) = 0.29426 -0.74066
#
# Static dielectric constant tensor:
#      x y z
#    x 1.868970 0.000000 0.000000 
#    y 0.000000 1.713440 0.000000 
#    z 0.000000 0.000000 1.683800 
# 
# From -- ./inp_files/66267.got.cif
#   From: 2010.05.17/outbox.cif.g08.bks.cpg/sg63_34_cif.got.tgz:66267.got - 2010.06.03 15:47:04.
