data_PCOD9469452
_publ_section_title
;
Structure prediction by ZEFSAII (Michael W. Deem and Ramdas Pophale) SiO2 
 PCOD9469452
Probable space group: C M C M
;
_chemical_formula_sum "Si O2"
_cell_formula_units_Z 64
_cell_length_a 10.959103
_cell_length_b 14.376664
_cell_length_c 20.403989
_cell_angle_alpha 90.000000
_cell_angle_beta 90.000000
_cell_angle_gamma 90.000000
_cell_volume 3214.757456
_symmetry_space_group_name_H-M "C M C M"
_symmetry_group_IT_number 63
_symmetry_cell_setting 'orthorhombic'
loop_
_space_group_symop_operation_xyz
x,y,z
-x,-y,1/2+z
x,-y,-z
-x,y,1/2-z
-x,-y,-z
x,y,1/2-z
-x,y,z
x,-y,1/2+z
1/2+x,1/2+y,z
1/2-x,1/2-y,1/2+z
1/2+x,1/2-y,-z
1/2-x,1/2+y,1/2-z
1/2-x,1/2-y,-z
1/2+x,1/2+y,1/2-z
1/2-x,1/2+y,z
1/2+x,1/2-y,1/2+z
loop_
_atom_site_type_symbol
_atom_site_label
_atom_site_fract_x
_atom_site_fract_y
_atom_site_fract_z
Si Si1 0.000000 0.374555 0.609173
Si Si2 0.500000 0.920564 0.172062
Si Si3 0.000000 0.114124 0.495350
Si Si4 0.500000 0.322680 0.354870
Si Si5 0.747085 0.423522 0.942469
Si Si6 0.738531 0.435501 0.174582
O O1 0.124498 0.372405 0.567339
O O2 0.000000 0.472438 0.647522
O O3 0.000000 0.286732 0.656408
O O4 0.500000 0.912293 0.250000
O O5 0.365487 0.885926 0.151921
O O6 0.000000 0.157101 0.567182
O O7 0.872322 0.136162 0.460100
O O8 0.000000 0.000000 0.500000
O O9 0.377877 0.369788 0.328593
O O10 0.719460 0.479925 0.875618
O O11 0.763680 0.500000 0.000000
O O12 0.753208 0.467327 0.250000
#
# Coordination Sequence:
#
# PCOD9469452 Si02
#       6
#     8   8   8   8  16  16
#     4  10  23  32  55  88 110 140 183 233 291 321
#     4   8  18  37  56  76 106 146 188 225 270 333
#     4  10  18  34  55  74 112 148 183 225 277 322
#     4  12  21  35  51  88 116 140 180 239 286 328
#     4  10  18  38  59  79 111 149 189 231 272 334
#     4  10  19  34  58  82 107 147 190 224 271 339
#
# _framework density 19.908189
#
# number of rings (size 3 to 8) (size 9 to 14) (size 15 to 20)
#    0.000    2.000    5.000    0.750    0.000    2.000 
#    0.000    1.250    0.000    0.000    0.000   14.000 
#    0.000    0.000    0.000    0.000    0.000    0.000 
#
# Total GULP energy -178311.271852 kJ/mol
# GULP energy per Si atom -5572.227245 kJ/mol
# Density = 1.986288 g / cm^3
# Si number density = 19.908189 Si / 1000 Ang^3
#
#
#
# Elastic Constant Matrix: (Units=GPa)
#
#
# Indices 1 2 3 4 5 6 
#
# 1 170.4847 23.7489 -0.7908 0.0000 0.0000 0.0000
# 2 23.7489 24.8531 3.3708 0.0000 0.0000 0.0000
# 3 -0.7908 3.3708 66.1194 0.0000 0.0000 0.0000
# 4 0.0000 0.0000 0.0000 8.0431 0.0000 0.0000
# 5 0.0000 0.0000 0.0000 0.0000 49.7189 0.0000
# 6 0.0000 0.0000 0.0000 0.0000 0.0000 -4.9306
#
#
#
# Elastic Compliance Matrix: (Units=1/GPa)
#
#
# Indices 1 2 3 4 5 6 
#
# 1 0.006778 -0.006533 0.000414 0.000000 0.000000 0.000000
# 2 -0.006533 0.046813 -0.002465 0.000000 0.000000 0.000000
# 3 0.000414 -0.002465 0.015255 0.000000 0.000000 0.000000
# 4 0.000000 0.000000 0.000000 0.124331 0.000000 0.000000
# 5 0.000000 0.000000 0.000000 0.000000 0.020113 0.000000
# 6 0.000000 0.000000 0.000000 0.000000 0.000000 -0.202816
#
#
# Mechanical properties :
#
#
# Convention : Reuss Voigt Hill
#
# Bulk Modulus (GPa) = 19.35025 34.90169 27.12597
# Shear Modulus (GPa) = 111.44365 26.24150 68.84257
#
# Velocity S-wave (km/s) = 7.49001 3.63454 5.88686
# Velocity P-wave (km/s) = 9.19463 5.93149 7.73705
#
# Compressibility (1/GPa) = 0.05167892
#
# Stress axis : x y z
#
# Youngs Moduli (GPa) = 147.54581 21.36158 65.55334
#
# Poissons Ratio (x) = 0.13955 -0.02715
# Poissons Ratio (y) = 0.96386 0.16157
# Poissons Ratio (z) = -0.06110 0.05265
#
# Static dielectric constant tensor:
#      x y z
#    x 1.784200 0.000000 0.000000 
#    y 0.000000 1.661010 0.000000 
#    z 0.000000 0.000000 1.707610 
# 
# From -- ./inp_files/41567.got.cif
#   From: 2010.05.17/outbox.cif.g08.bks.cpg/sg63_21_cif.got.tgz:41567.got - 2010.06.03 15:47:04.
