data_PCOD9469855
_publ_section_title
;
Structure prediction by ZEFSAII (Michael W. Deem and Ramdas Pophale) SiO2 
 PCOD9469855
Probable space group: C M C M
;
_chemical_formula_sum "Si O2"
_cell_formula_units_Z 80
_cell_length_a 24.050171
_cell_length_b 5.662363
_cell_length_c 24.035752
_cell_angle_alpha 90.000000
_cell_angle_beta 90.000000
_cell_angle_gamma 90.000000
_cell_volume 3273.207898
_symmetry_space_group_name_H-M "C M C M"
_symmetry_group_IT_number 63
_symmetry_cell_setting 'orthorhombic'
loop_
_space_group_symop_operation_xyz
x,y,z
-x,-y,1/2+z
x,-y,-z
-x,y,1/2-z
-x,-y,-z
x,y,1/2-z
-x,y,z
x,-y,1/2+z
1/2+x,1/2+y,z
1/2-x,1/2-y,1/2+z
1/2+x,1/2-y,-z
1/2-x,1/2+y,1/2-z
1/2-x,1/2-y,-z
1/2+x,1/2+y,1/2-z
1/2-x,1/2+y,z
1/2+x,1/2-y,1/2+z
loop_
_atom_site_type_symbol
_atom_site_label
_atom_site_fract_x
_atom_site_fract_y
_atom_site_fract_z
Si Si1 0.648171 0.577536 0.812819
Si Si2 0.599895 0.619126 0.927052
Si Si3 0.729201 0.263300 0.436680
Si Si4 0.345921 0.079181 0.685709
Si Si5 0.436455 0.881118 0.087486
O O1 0.626265 0.575086 0.750000
O O2 0.600281 0.588832 0.859257
O O3 0.681904 0.335324 0.820562
O O4 0.681331 0.821605 0.819559
O O5 0.664487 0.669413 0.938716
O O6 0.582061 0.356508 0.945809
O O7 0.568111 0.860531 0.941143
O O8 0.750000 0.250000 0.500000
O O9 0.760735 0.496953 0.413910
O O10 0.366414 0.079403 0.750000
O O11 0.394503 0.091236 0.639718
O O12 0.500000 0.843569 0.104180
#
# Coordination Sequence:
#
# PCOD9469855 Si02
#       5
#    16  16  16  16  16
#     4   8  14  25  42  65  97 139 177 209 254 303
#     4  10  19  33  53  77 109 142 175 223 266 302
#     4  10  21  38  61  88 105 124 166 226 286 327
#     4   8  14  24  38  60  95 139 186 225 245 273
#     4  10  19  30  47  76 111 149 184 207 248 313
#
# _framework density 24.440856
#
# number of rings (size 3 to 8) (size 9 to 14) (size 15 to 20)
#    0.000    2.800    0.000    1.800    0.000    0.400 
#    0.000    0.000    0.000   13.200    0.000   56.000 
#    0.000    0.000    0.000    0.000    0.000    0.000 
#
# Total GULP energy -222766.042331 kJ/mol
# GULP energy per Si atom -5569.151058 kJ/mol
# Density = 2.438523 g / cm^3
# Si number density = 24.440856 Si / 1000 Ang^3
#
#
#
# Elastic Constant Matrix: (Units=GPa)
#
#
# Indices 1 2 3 4 5 6 
#
# 1 96.5964 31.9321 10.2123 0.0000 0.0000 0.0000
# 2 31.9321 348.6582 27.0404 0.0000 0.0000 0.0000
# 3 10.2123 27.0404 80.5120 0.0000 0.0000 0.0000
# 4 0.0000 0.0000 0.0000 39.8088 0.0000 0.0000
# 5 0.0000 0.0000 0.0000 0.0000 2.2945 0.0000
# 6 0.0000 0.0000 0.0000 0.0000 0.0000 34.5321
#
#
#
# Elastic Compliance Matrix: (Units=1/GPa)
#
#
# Indices 1 2 3 4 5 6 
#
# 1 0.010763 -0.000903 -0.001062 0.000000 0.000000 0.000000
# 2 -0.000903 0.003021 -0.000900 0.000000 0.000000 0.000000
# 3 -0.001062 -0.000900 0.012857 0.000000 0.000000 0.000000
# 4 0.000000 0.000000 0.000000 0.025120 0.000000 0.000000
# 5 0.000000 0.000000 0.000000 0.000000 0.435827 0.000000
# 6 0.000000 0.000000 0.000000 0.000000 0.000000 0.028959
#
#
# Mechanical properties :
#
#
# Convention : Reuss Voigt Hill
#
# Bulk Modulus (GPa) = 47.82155 73.79290 60.80723
# Shear Modulus (GPa) = 9.44738 45.76586 27.60662
#
# Velocity S-wave (km/s) = 1.96820 4.33195 3.36449
# Velocity P-wave (km/s) = 4.97733 7.43499 6.32664
#
# Compressibility (1/GPa) = 0.02091108
#
# Stress axis : x y z
#
# Youngs Moduli (GPa) = 92.90873 331.05224 77.77600
#
# Poissons Ratio (x) = 0.29908 0.08258
# Poissons Ratio (y) = 0.08393 0.06999
# Poissons Ratio (z) = 0.09865 0.29792
#
# Static dielectric constant tensor:
#      x y z
#    x 1.818310 0.000000 0.000000 
#    y 0.000000 2.184130 0.000000 
#    z 0.000000 0.000000 2.038920 
# 
# From -- ./inp_files/71024.got.cif
#   From: 2010.05.17/outbox.cif.g08.bks.cpg/sg63_36_cif.got.tgz:71024.got - 2010.06.03 15:47:04.
