data_PCOD9469448
_publ_section_title
;
Structure prediction by ZEFSAII (Michael W. Deem and Ramdas Pophale) SiO2 
 PCOD9469448
Probable space group: C M C M
;
_chemical_formula_sum "Si O2"
_cell_formula_units_Z 56
_cell_length_a 31.428186
_cell_length_b 8.949891
_cell_length_c 7.991789
_cell_angle_alpha 90.000000
_cell_angle_beta 90.000000
_cell_angle_gamma 90.000000
_cell_volume 2247.921132
_symmetry_space_group_name_H-M "C M C M"
_symmetry_group_IT_number 63
_symmetry_cell_setting 'orthorhombic'
loop_
_space_group_symop_operation_xyz
x,y,z
-x,-y,1/2+z
x,-y,-z
-x,y,1/2-z
-x,-y,-z
x,y,1/2-z
-x,y,z
x,-y,1/2+z
1/2+x,1/2+y,z
1/2-x,1/2-y,1/2+z
1/2+x,1/2-y,-z
1/2-x,1/2+y,1/2-z
1/2-x,1/2-y,-z
1/2+x,1/2+y,1/2-z
1/2-x,1/2+y,z
1/2+x,1/2-y,1/2+z
loop_
_atom_site_type_symbol
_atom_site_label
_atom_site_fract_x
_atom_site_fract_y
_atom_site_fract_z
Si Si1 0.256145 0.832184 0.750000
Si Si2 0.365232 0.705803 0.058360
Si Si3 0.811559 0.065973 0.750000
Si Si4 0.952814 0.673461 0.548291
Si Si5 0.815662 0.500000 0.500000
O O1 0.266105 0.657557 0.750000
O O2 0.209095 0.898454 0.750000
O O3 0.282986 0.897701 0.599295
O O4 0.368980 0.641475 0.250000
O O5 0.413180 0.727134 0.990686
O O6 0.346284 0.873464 0.075218
O O7 0.337327 0.624550 0.913400
O O8 0.946502 0.500000 0.500000
O O9 0.952483 0.679800 0.750000
O O10 0.000000 0.718124 0.488476
#
# Coordination Sequence:
#
# PCOD9469448 Si02
#       5
#     8  16   8  16   8
#     4  10  22  38  56  80 110 144 198 236 282 324
#     4  10  19  33  52  74 107 149 190 223 279 339
#     4  10  24  40  57  82 110 152 193 238 276 340
#     4   9  17  26  43  70 104 142 183 221 267 333
#     4  10  18  34  53  76 104 146 189 224 266 332
#
# _framework density 24.911905999999998
#
# number of rings (size 3 to 8) (size 9 to 14) (size 15 to 20)
#    0.000    2.286    2.857    0.000    2.000    4.571 
#    2.571    0.000    0.000    0.000    0.000    0.000 
#    0.000    0.000    0.000   43.714    0.571   19.714 
#
# Total GULP energy -156290.976611 kJ/mol
# GULP energy per Si atom -5581.820593 kJ/mol
# Density = 2.485521 g / cm^3
# Si number density = 24.911906 Si / 1000 Ang^3
#
#
#
# Elastic Constant Matrix: (Units=GPa)
#
#
# Indices 1 2 3 4 5 6 
#
# 1 224.1523 41.5870 42.2127 0.0000 0.0000 0.0000
# 2 41.5870 82.7530 37.0556 0.0000 0.0000 0.0000
# 3 42.2127 37.0556 107.4205 0.0000 0.0000 0.0000
# 4 0.0000 0.0000 0.0000 33.4159 0.0000 0.0000
# 5 0.0000 0.0000 0.0000 0.0000 31.8322 0.0000
# 6 0.0000 0.0000 0.0000 0.0000 0.0000 21.6566
#
#
#
# Elastic Compliance Matrix: (Units=1/GPa)
#
#
# Indices 1 2 3 4 5 6 
#
# 1 0.005073 -0.001959 -0.001318 0.000000 0.000000 0.000000
# 2 -0.001959 0.015049 -0.004421 0.000000 0.000000 0.000000
# 3 -0.001318 -0.004421 0.011352 0.000000 0.000000 0.000000
# 4 0.000000 0.000000 0.000000 0.029926 0.000000 0.000000
# 5 0.000000 0.000000 0.000000 0.000000 0.031415 0.000000
# 6 0.000000 0.000000 0.000000 0.000000 0.000000 0.046175
#
#
# Mechanical properties :
#
#
# Convention : Reuss Voigt Hill
#
# Bulk Modulus (GPa) = 62.19936 72.89294 67.54615
# Shear Modulus (GPa) = 31.29991 36.94563 34.12277
#
# Velocity S-wave (km/s) = 3.54845 3.85522 3.70501
# Velocity P-wave (km/s) = 6.46611 7.01005 6.74357
#
# Compressibility (1/GPa) = 0.01607734
#
# Stress axis : x y z
#
# Youngs Moduli (GPa) = 197.12584 66.45155 88.08947
#
# Poissons Ratio (x) = 0.13020 0.11607
# Poissons Ratio (y) = 0.38624 0.38946
# Poissons Ratio (z) = 0.25973 0.29379
#
# Static dielectric constant tensor:
#      x y z
#    x 2.001900 0.000000 0.000000 
#    y 0.000000 2.101980 0.000000 
#    z 0.000000 0.000000 2.026050 
# 
# From -- ./inp_files/11463.got.cif
#   From: 2010.05.17/outbox.cif.g08.bks.cpg/sg63_6_cif.got.tgz:11463.got - 2010.06.03 15:47:04.
