data_PCOD9469111
_publ_section_title
;
Structure prediction by ZEFSAII (Michael W. Deem and Ramdas Pophale) SiO2 
 PCOD9469111
Probable space group: C M C M
;
_chemical_formula_sum "Si O2"
_cell_formula_units_Z 80
_cell_length_a 25.311450
_cell_length_b 20.769935
_cell_length_c 9.119670
_cell_angle_alpha 90.000000
_cell_angle_beta 90.000000
_cell_angle_gamma 90.000000
_cell_volume 4794.367115
_symmetry_space_group_name_H-M "C M C M"
_symmetry_group_IT_number 63
_symmetry_cell_setting 'orthorhombic'
loop_
_space_group_symop_operation_xyz
x,y,z
-x,-y,1/2+z
x,-y,-z
-x,y,1/2-z
-x,-y,-z
x,y,1/2-z
-x,y,z
x,-y,1/2+z
1/2+x,1/2+y,z
1/2-x,1/2-y,1/2+z
1/2+x,1/2-y,-z
1/2-x,1/2+y,1/2-z
1/2-x,1/2-y,-z
1/2+x,1/2+y,1/2-z
1/2-x,1/2+y,z
1/2+x,1/2-y,1/2+z
loop_
_atom_site_type_symbol
_atom_site_label
_atom_site_fract_x
_atom_site_fract_y
_atom_site_fract_z
Si Si1 0.107381 0.392131 0.923446
Si Si2 0.285735 0.695140 0.426180
Si Si3 0.500000 0.739796 0.419722
Si Si4 0.608191 0.262966 0.076225
Si Si5 0.223052 0.435148 0.925925
Si Si6 0.500000 0.103256 0.917617
O O1 0.101343 0.403881 0.750000
O O2 0.113166 0.314715 0.942354
O O3 0.162532 0.422207 0.975303
O O4 0.054534 0.415491 0.003837
O O5 0.286510 0.703298 0.250000
O O6 0.250000 0.750000 0.500000
O O7 0.343713 0.703197 0.493557
O O8 0.258801 0.626680 0.459849
O O9 0.500000 0.719730 0.250000
O O10 0.447535 0.718645 0.504381
O O11 0.500000 0.818226 0.420811
O O12 0.609434 0.275776 0.250000
O O13 0.221979 0.441822 0.750000
O O14 0.242801 0.500000 0.000000
O O15 0.500000 0.081628 0.750000
#
# Coordination Sequence:
#
# PCOD9469111 Si02
#       6
#    16  16   8  16  16   8
#     4   9  17  32  49  68  99 135 170 212 259 305
#     4  11  21  35  54  79 107 136 176 221 264 315
#     4   9  17  29  45  74 109 138 169 211 261 309
#     4  10  18  31  51  77 106 138 173 214 263 311
#     4  10  22  38  53  74 103 137 176 217 264 314
#     4   9  17  27  44  72  97 126 173 217 253 300
#
# _framework density 16.686247999999999
#
# number of rings (size 3 to 8) (size 9 to 14) (size 15 to 20)
#    0.000    2.200    2.000    1.800    0.000    5.600 
#    0.000    0.500    0.000    0.000    0.000    0.700 
#    0.000    0.000    0.000    0.000    0.000    0.000 
#
# Total GULP energy -223248.212780 kJ/mol
# GULP energy per Si atom -5581.205319 kJ/mol
# Density = 1.664827 g / cm^3
# Si number density = 16.686248 Si / 1000 Ang^3
#
#
#
# Elastic Constant Matrix: (Units=GPa)
#
#
# Indices 1 2 3 4 5 6 
#
# 1 143.4886 55.6295 64.9493 0.0000 0.0000 0.0000
# 2 55.6295 80.1638 53.5084 0.0000 0.0000 0.0000
# 3 64.9493 53.5084 81.4424 0.0000 0.0000 0.0000
# 4 0.0000 0.0000 0.0000 19.4356 0.0000 0.0000
# 5 0.0000 0.0000 0.0000 0.0000 33.7973 0.0000
# 6 0.0000 0.0000 0.0000 0.0000 0.0000 10.0650
#
#
#
# Elastic Compliance Matrix: (Units=1/GPa)
#
#
# Indices 1 2 3 4 5 6 
#
# 1 0.011369 -0.003273 -0.006916 0.000000 0.000000 0.000000
# 2 -0.003273 0.023160 -0.012607 0.000000 0.000000 0.000000
# 3 -0.006916 -0.012607 0.026077 0.000000 0.000000 0.000000
# 4 0.000000 0.000000 0.000000 0.051452 0.000000 0.000000
# 5 0.000000 0.000000 0.000000 0.000000 0.029588 0.000000
# 6 0.000000 0.000000 0.000000 0.000000 0.000000 0.099354
#
#
# Mechanical properties :
#
#
# Convention : Reuss Voigt Hill
#
# Bulk Modulus (GPa) = 66.60080 72.58548 69.59314
# Shear Modulus (GPa) = 17.14705 21.39343 19.27024
#
# Velocity S-wave (km/s) = 3.20912 3.58453 3.40201
# Velocity P-wave (km/s) = 7.33018 7.79271 7.56498
#
# Compressibility (1/GPa) = 0.01501484
#
# Stress axis : x y z
#
# Youngs Moduli (GPa) = 87.96211 43.17724 38.34850
#
# Poissons Ratio (x) = 0.14131 0.26522
# Poissons Ratio (y) = 0.28788 0.48344
# Poissons Ratio (z) = 0.60835 0.54432
#
# Static dielectric constant tensor:
#      x y z
#    x 1.560740 0.000000 0.000000 
#    y 0.000000 1.548760 0.000000 
#    z 0.000000 0.000000 1.556960 
# 
# From -- ./inp_files/10063.got.cif
#   From: 2010.05.17/outbox.cif.g08.bks.cpg/sg63_6_cif.got.tgz:10063.got - 2010.06.03 15:47:04.
