data_PCOD9469803
_publ_section_title
;
Structure prediction by ZEFSAII (Michael W. Deem and Ramdas Pophale) SiO2 
 PCOD9469803
Probable space group: C M C M
;
_chemical_formula_sum "Si O2"
_cell_formula_units_Z 96
_cell_length_a 8.958481
_cell_length_b 23.828280
_cell_length_c 30.180829
_cell_angle_alpha 90.000000
_cell_angle_beta 90.000000
_cell_angle_gamma 90.000000
_cell_volume 6442.556507
_symmetry_space_group_name_H-M "C M C M"
_symmetry_group_IT_number 63
_symmetry_cell_setting 'orthorhombic'
loop_
_space_group_symop_operation_xyz
x,y,z
-x,-y,1/2+z
x,-y,-z
-x,y,1/2-z
-x,-y,-z
x,y,1/2-z
-x,y,z
x,-y,1/2+z
1/2+x,1/2+y,z
1/2-x,1/2-y,1/2+z
1/2+x,1/2-y,-z
1/2-x,1/2+y,1/2-z
1/2-x,1/2-y,-z
1/2+x,1/2+y,1/2-z
1/2-x,1/2+y,z
1/2+x,1/2-y,1/2+z
loop_
_atom_site_type_symbol
_atom_site_label
_atom_site_fract_x
_atom_site_fract_y
_atom_site_fract_z
Si Si1 0.823144 0.267811 0.568486
Si Si2 0.324486 0.359023 0.623811
Si Si3 0.176581 0.061571 0.300903
Si Si4 0.177610 0.473482 0.885855
Si Si5 0.678291 0.544713 0.961234
Si Si6 0.177154 0.664815 0.977042
O O1 0.753918 0.302400 0.609015
O O2 0.797115 0.306929 0.525124
O O3 0.743698 0.209124 0.558077
O O4 0.000000 0.260003 0.573470
O O5 0.500000 0.357530 0.613024
O O6 0.308062 0.377420 0.675324
O O7 0.246969 0.412811 0.600154
O O8 0.223282 0.060471 0.250000
O O9 0.000000 0.047709 0.303459
O O10 0.268255 0.022461 0.334709
O O11 0.247094 0.520730 0.916751
O O12 0.000000 0.472091 0.610966
O O13 0.500000 0.547619 0.956128
O O14 0.743241 0.605251 0.973209
O O15 0.712336 0.500000 0.000000
O O16 0.000000 0.658602 0.970985
#
# Coordination Sequence:
#
# PCOD9469803 Si02
#       6
#    16  16  16  16  16  16
#     4  10  19  32  48  68  93 124 160 199 240 283
#     4   9  17  29  47  69  95 125 156 192 237 284
#     4   8  16  31  49  71  99 128 158 195 242 292
#     4  10  19  30  46  70  98 126 158 197 242 290
#     4  11  22  34  48  67  94 130 168 204 242 288
#     4  10  21  33  47  66  92 126 164 201 237 281
#
# _framework density 14.900917
#
# number of rings (size 3 to 8) (size 9 to 14) (size 15 to 20)
#    1.000    1.333    0.000    4.000    0.000    6.333 
#    0.000    0.000    0.000    0.000    0.000    1.167 
#    0.000    6.667    0.000    0.000    0.000    0.000 
#
# Total GULP energy -267236.739664 kJ/mol
# GULP energy per Si atom -5567.432076 kJ/mol
# Density = 1.486700 g / cm^3
# Si number density = 14.900917 Si / 1000 Ang^3
#
#
#
# Elastic Constant Matrix: (Units=GPa)
#
#
# Indices 1 2 3 4 5 6 
#
# 1 79.9541 50.5329 50.2705 0.0000 0.0000 0.0000
# 2 50.5329 92.6532 35.7746 0.0000 0.0000 0.0000
# 3 50.2705 35.7746 75.3120 0.0000 0.0000 0.0000
# 4 0.0000 0.0000 0.0000 17.4951 0.0000 0.0000
# 5 0.0000 0.0000 0.0000 0.0000 15.1779 0.0000
# 6 0.0000 0.0000 0.0000 0.0000 0.0000 27.7678
#
#
#
# Elastic Compliance Matrix: (Units=1/GPa)
#
#
# Indices 1 2 3 4 5 6 
#
# 1 0.027020 -0.009519 -0.013514 0.000000 0.000000 0.000000
# 2 -0.009519 0.016570 -0.001517 0.000000 0.000000 0.000000
# 3 -0.013514 -0.001517 0.023020 0.000000 0.000000 0.000000
# 4 0.000000 0.000000 0.000000 0.057159 0.000000 0.000000
# 5 0.000000 0.000000 0.000000 0.000000 0.065885 0.000000
# 6 0.000000 0.000000 0.000000 0.000000 0.000000 0.036013
#
#
# Mechanical properties :
#
#
# Convention : Reuss Voigt Hill
#
# Bulk Modulus (GPa) = 57.11300 57.89728 57.50514
# Shear Modulus (GPa) = 17.81861 19.51089 18.66475
#
# Velocity S-wave (km/s) = 3.46179 3.62245 3.54304
# Velocity P-wave (km/s) = 7.37499 7.51235 7.44399
#
# Compressibility (1/GPa) = 0.01750915
#
# Stress axis : x y z
#
# Youngs Moduli (GPa) = 37.00912 60.34863 43.44093
#
# Poissons Ratio (x) = 0.57445 0.58708
# Poissons Ratio (y) = 0.35228 0.06592
# Poissons Ratio (z) = 0.50016 0.09158
#
# Static dielectric constant tensor:
#      x y z
#    x 1.492050 0.000000 0.000000 
#    y 0.000000 1.476820 0.000000 
#    z 0.000000 0.000000 1.498780 
# 
# From -- ./inp_files/67227.got.cif
#   From: 2010.05.17/outbox.cif.g08.bks.cpg/sg63_34_cif.got.tgz:67227.got - 2010.06.03 15:47:04.
