data_PCOD9469935
_publ_section_title
;
Structure prediction by ZEFSAII (Michael W. Deem and Ramdas Pophale) SiO2 
 PCOD9469935
Probable space group: C M C M
;
_chemical_formula_sum "Si O2"
_cell_formula_units_Z 96
_cell_length_a 25.911821
_cell_length_b 16.377002
_cell_length_c 14.821869
_cell_angle_alpha 90.000000
_cell_angle_beta 90.000000
_cell_angle_gamma 90.000000
_cell_volume 6289.777860
_symmetry_space_group_name_H-M "C M C M"
_symmetry_group_IT_number 63
_symmetry_cell_setting 'orthorhombic'
loop_
_space_group_symop_operation_xyz
x,y,z
-x,-y,1/2+z
x,-y,-z
-x,y,1/2-z
-x,-y,-z
x,y,1/2-z
-x,y,z
x,-y,1/2+z
1/2+x,1/2+y,z
1/2-x,1/2-y,1/2+z
1/2+x,1/2-y,-z
1/2-x,1/2+y,1/2-z
1/2-x,1/2-y,-z
1/2+x,1/2+y,1/2-z
1/2-x,1/2+y,z
1/2+x,1/2-y,1/2+z
loop_
_atom_site_type_symbol
_atom_site_label
_atom_site_fract_x
_atom_site_fract_y
_atom_site_fract_z
Si Si1 0.729308 0.051867 0.250000
Si Si2 0.204947 0.790523 0.059190
Si Si3 0.558619 0.923201 0.566766
Si Si4 0.253116 0.763563 0.750000
Si Si5 0.385139 0.978616 0.750000
Si Si6 0.859860 0.325256 0.250000
Si Si7 0.229822 0.437671 0.078121
Si Si8 0.633095 0.813533 0.052964
O O1 0.757947 0.138956 0.250000
O O2 0.668287 0.071107 0.250000
O O3 0.737439 0.993169 0.165219
O O4 0.214214 0.757648 0.160438
O O5 0.218869 0.885381 0.061134
O O6 0.250000 0.750000 0.000000
O O7 0.154740 0.761375 0.006106
O O8 0.500000 0.894877 0.583624
O O9 0.584340 0.953749 0.659873
O O10 0.592601 0.858475 0.511309
O O11 0.556685 0.000000 0.500000
O O12 0.200140 0.708913 0.750000
O O13 0.369659 0.075595 0.750000
O O14 0.883998 0.293852 0.344635
O O15 0.181202 0.375560 0.075422
O O16 0.218199 0.500000 0.000000
#
# Coordination Sequence:
#
# PCOD9469935 Si02
#       8
#     8  16  16   8   8   8  16  16
#     4  12  20  29  48  68  99 127 167 205 234 301
#     4  10  19  31  46  65  96 128 167 205 238 298
#     4  11  22  34  50  72  97 125 171 216 249 292
#     4  12  20  30  44  72  91 134 170 201 246 287
#     4  12  19  36  50  69  91 138 165 209 254 288
#     4  12  20  31  50  63  95 127 172 195 241 304
#     4  11  19  29  45  69  94 129 165 201 239 290
#     4  11  20  35  48  68  95 135 164 202 252 291
#
# _framework density 15.26286
#
# number of rings (size 3 to 8) (size 9 to 14) (size 15 to 20)
#    0.000    0.833    6.667    5.250    0.000    0.000 
#    0.000    0.417    0.000    0.000    0.000    0.000 
#    0.000    0.667    0.000    0.000    0.000    0.000 
#
# Total GULP energy -267384.634082 kJ/mol
# GULP energy per Si atom -5570.513210 kJ/mol
# Density = 1.522812 g / cm^3
# Si number density = 15.262860 Si / 1000 Ang^3
#
#
#
# Elastic Constant Matrix: (Units=GPa)
#
#
# Indices 1 2 3 4 5 6 
#
# 1 66.4481 25.0573 24.6610 0.0000 0.0000 0.0000
# 2 25.0573 40.8841 10.5942 0.0000 0.0000 0.0000
# 3 24.6610 10.5942 121.6325 0.0000 0.0000 0.0000
# 4 0.0000 0.0000 0.0000 -5.8601 0.0000 0.0000
# 5 0.0000 0.0000 0.0000 0.0000 13.7881 0.0000
# 6 0.0000 0.0000 0.0000 0.0000 0.0000 13.6885
#
#
#
# Elastic Compliance Matrix: (Units=1/GPa)
#
#
# Indices 1 2 3 4 5 6 
#
# 1 0.020698 -0.011866 -0.003163 0.000000 0.000000 0.000000
# 2 -0.011866 0.031827 -0.000366 0.000000 0.000000 0.000000
# 3 -0.003163 -0.000366 0.008895 0.000000 0.000000 0.000000
# 4 0.000000 0.000000 0.000000 -0.170647 0.000000 0.000000
# 5 0.000000 0.000000 0.000000 0.000000 0.072526 0.000000
# 6 0.000000 0.000000 0.000000 0.000000 0.000000 0.073054
#
#
# Mechanical properties :
#
#
# Convention : Reuss Voigt Hill
#
# Bulk Modulus (GPa) = 32.64878 38.84330 35.74604
# Shear Modulus (GPa) = 64.63915 15.56679 40.10297
#
# Velocity S-wave (km/s) = 6.51480 3.19707 5.13146
# Velocity P-wave (km/s) = 8.83332 6.25565 7.65378
#
# Compressibility (1/GPa) = 0.03062901
#
# Stress axis : x y z
#
# Youngs Moduli (GPa) = 48.31448 31.42020 112.42673
#
# Poissons Ratio (x) = 0.37282 0.35560
# Poissons Ratio (y) = 0.57329 0.04118
# Poissons Ratio (z) = 0.15282 0.01151
#
# Static dielectric constant tensor:
#      x y z
#    x 1.512580 0.000000 0.000000 
#    y 0.000000 1.509670 0.000000 
#    z 0.000000 0.000000 1.562370 
# 
# From -- ./inp_files/37900.got.cif
#   From: 2010.05.17/outbox.cif.g08.bks.cpg/sg63_19_cif.got.tgz:37900.got - 2010.06.03 15:47:04.
