data_PCOD9469003
_publ_section_title
;
Structure prediction by ZEFSAII (Michael W. Deem and Ramdas Pophale) SiO2 
 PCOD9469003
Probable space group: C M C M
;
_chemical_formula_sum "Si O2"
_cell_formula_units_Z 96
_cell_length_a 7.493095
_cell_length_b 30.403827
_cell_length_c 20.886528
_cell_angle_alpha 90.000000
_cell_angle_beta 90.000000
_cell_angle_gamma 90.000000
_cell_volume 4758.342995
_symmetry_space_group_name_H-M "C M C M"
_symmetry_group_IT_number 63
_symmetry_cell_setting 'orthorhombic'
loop_
_space_group_symop_operation_xyz
x,y,z
-x,-y,1/2+z
x,-y,-z
-x,y,1/2-z
-x,-y,-z
x,y,1/2-z
-x,y,z
x,-y,1/2+z
1/2+x,1/2+y,z
1/2-x,1/2-y,1/2+z
1/2+x,1/2-y,-z
1/2-x,1/2+y,1/2-z
1/2-x,1/2-y,-z
1/2+x,1/2+y,1/2-z
1/2-x,1/2+y,z
1/2+x,1/2-y,1/2+z
loop_
_atom_site_type_symbol
_atom_site_label
_atom_site_fract_x
_atom_site_fract_y
_atom_site_fract_z
Si Si1 0.287807 0.030199 0.441829
Si Si2 0.218202 0.783752 0.322310
Si Si3 0.216074 0.876723 0.119787
Si Si4 0.714320 0.221762 0.436312
Si Si5 0.284859 0.469409 0.177838
Si Si6 0.209635 0.625979 0.030619
O O1 0.500000 0.034093 0.453353
O O2 0.214456 0.079770 0.444167
O O3 0.215813 0.000000 0.500000
O O4 0.262582 0.005597 0.374915
O O5 0.274709 0.774409 0.250000
O O6 0.273797 0.832579 0.344094
O O7 0.279755 0.748499 0.374673
O O8 0.000000 0.783658 0.323090
O O9 0.277915 0.921666 0.153021
O O10 0.000000 0.877140 0.120286
O O11 0.274066 0.874947 0.046190
O O12 0.500000 0.219055 0.430741
O O13 0.750000 0.250000 0.500000
O O14 0.785425 0.172247 0.444521
O O15 0.221535 0.478269 0.250000
O O16 0.500000 0.467490 0.179835
O O17 0.000000 0.626595 0.047320
#
# Coordination Sequence:
#
# PCOD9469003 Si02
#       6
#    16  16  16  16  16  16
#     4  10  20  35  53  73 102 140 177 211 252 305
#     4   9  17  30  49  74 102 131 164 202 248 302
#     4  10  18  30  52  78 102 130 166 208 256 307
#     4  10  19  32  52  76 102 132 167 209 253 298
#     4  10  21  35  52  78 108 134 168 216 262 304
#     4  10  20  33  50  76 106 131 167 217 256 294
#
# _framework density 20.175090000000001
#
# number of rings (size 3 to 8) (size 9 to 14) (size 15 to 20)
#    0.000    2.167    3.333    0.500    0.000    3.333 
#    0.000    0.833    0.000    6.000    0.000    0.000 
#    0.000    0.000    0.000    0.000    0.000    0.000 
#
# Total GULP energy -268064.256062 kJ/mol
# GULP energy per Si atom -5584.672001 kJ/mol
# Density = 2.012917 g / cm^3
# Si number density = 20.175090 Si / 1000 Ang^3
#
#
#
# Elastic Constant Matrix: (Units=GPa)
#
#
# Indices 1 2 3 4 5 6 
#
# 1 54.4719 9.2782 -12.8868 0.0000 0.0000 0.0000
# 2 9.2782 226.5070 124.9369 0.0000 0.0000 0.0000
# 3 -12.8868 124.9369 163.2317 0.0000 0.0000 0.0000
# 4 0.0000 0.0000 0.0000 22.2552 0.0000 0.0000
# 5 0.0000 0.0000 0.0000 0.0000 24.5724 0.0000
# 6 0.0000 0.0000 0.0000 0.0000 0.0000 -12.4671
#
#
#
# Elastic Compliance Matrix: (Units=1/GPa)
#
#
# Indices 1 2 3 4 5 6 
#
# 1 0.019741 -0.002887 0.003768 0.000000 0.000000 0.000000
# 2 -0.002887 0.008063 -0.006399 0.000000 0.000000 0.000000
# 3 0.003768 -0.006399 0.011322 0.000000 0.000000 0.000000
# 4 0.000000 0.000000 0.000000 0.044933 0.000000 0.000000
# 5 0.000000 0.000000 0.000000 0.000000 0.040696 0.000000
# 6 0.000000 0.000000 0.000000 0.000000 0.000000 -0.080211
#
#
# Mechanical properties :
#
#
# Convention : Reuss Voigt Hill
#
# Bulk Modulus (GPa) = 35.59998 76.31857 55.95928
# Shear Modulus (GPa) = 76.99012 28.39758 52.69385
#
# Velocity S-wave (km/s) = 6.18416 3.75581 5.11615
# Velocity P-wave (km/s) = 8.28707 7.53116 7.91814
#
# Compressibility (1/GPa) = 0.02808991
#
# Stress axis : x y z
#
# Youngs Moduli (GPa) = 50.65494 124.02623 88.32607
#
# Poissons Ratio (x) = 0.35809 -0.33285
# Poissons Ratio (y) = 0.14625 0.56522
# Poissons Ratio (z) = -0.19089 0.79367
#
# Static dielectric constant tensor:
#      x y z
#    x 1.781460 0.000000 0.000000 
#    y 0.000000 1.719870 0.000000 
#    z 0.000000 0.000000 1.664200 
# 
# From -- ./inp_files/51364.got.cif
#   From: 2010.05.17/outbox.cif.g08.bks.cpg/sg63_26_cif.got.tgz:51364.got - 2010.06.03 15:47:04.
