data_PCOD9469110
_publ_section_title
;
Structure prediction by ZEFSAII (Michael W. Deem and Ramdas Pophale) SiO2 
 PCOD9469110
Probable space group: C M C M
;
_chemical_formula_sum "Si O2"
_cell_formula_units_Z 48
_cell_length_a 16.939024
_cell_length_b 8.455323
_cell_length_c 15.629000
_cell_angle_alpha 90.000000
_cell_angle_beta 90.000000
_cell_angle_gamma 90.000000
_cell_volume 2238.462263
_symmetry_space_group_name_H-M "C M C M"
_symmetry_group_IT_number 63
_symmetry_cell_setting 'orthorhombic'
loop_
_space_group_symop_operation_xyz
x,y,z
-x,-y,1/2+z
x,-y,-z
-x,y,1/2-z
-x,-y,-z
x,y,1/2-z
-x,y,z
x,-y,1/2+z
1/2+x,1/2+y,z
1/2-x,1/2-y,1/2+z
1/2+x,1/2-y,-z
1/2-x,1/2+y,1/2-z
1/2-x,1/2-y,-z
1/2+x,1/2+y,1/2-z
1/2-x,1/2+y,z
1/2+x,1/2-y,1/2+z
loop_
_atom_site_type_symbol
_atom_site_label
_atom_site_fract_x
_atom_site_fract_y
_atom_site_fract_z
Si Si1 0.000000 0.094159 0.846400
Si Si2 0.330124 0.937877 0.901493
Si Si3 0.000000 0.558387 0.097341
Si Si4 0.833837 0.941419 0.402368
O O1 0.082740 0.007388 0.861718
O O2 0.000000 0.156144 0.750000
O O3 0.000000 0.250027 0.905411
O O4 0.415216 0.989072 0.863769
O O5 0.328973 0.748265 0.900667
O O6 0.247796 0.996277 0.862630
O O7 0.329878 0.000000 0.000000
O O8 0.000000 0.500000 0.000000
O O9 0.836768 0.000000 0.500000
#
# Coordination Sequence:
#
# PCOD9469110 Si02
#       4
#     8  16   8  16
#     4  10  21  35  50  75 109 144 176 216 267 317
#     4   9  16  28  49  79 105 128 169 218 259 303
#     4   8  16  31  52  77 102 136 174 214 260 315
#     4  10  18  31  51  77 103 135 174 214 256 310
#
# _framework density 21.443294000000002
#
# number of rings (size 3 to 8) (size 9 to 14) (size 15 to 20)
#    0.000    2.667    0.000    4.500    0.000    0.000 
#    0.000   11.667    0.000    0.000    0.000  130.667 
#    0.000    0.000    0.000    0.000    0.000    0.000 
#
# Total GULP energy -133642.552956 kJ/mol
# GULP energy per Si atom -5568.439706 kJ/mol
# Density = 2.139449 g / cm^3
# Si number density = 21.443294 Si / 1000 Ang^3
#
#
#
# Elastic Constant Matrix: (Units=GPa)
#
#
# Indices 1 2 3 4 5 6 
#
# 1 305.5312 48.1365 22.1528 0.0000 0.0000 0.0000
# 2 48.1365 46.1616 11.4356 0.0000 0.0000 0.0000
# 3 22.1528 11.4356 34.9361 0.0000 0.0000 0.0000
# 4 0.0000 0.0000 0.0000 -0.9252 0.0000 0.0000
# 5 0.0000 0.0000 0.0000 0.0000 -55.8166 0.0000
# 6 0.0000 0.0000 0.0000 0.0000 0.0000 30.1234
#
#
#
# Elastic Compliance Matrix: (Units=1/GPa)
#
#
# Indices 1 2 3 4 5 6 
#
# 1 0.003967 -0.003824 -0.001264 0.000000 0.000000 0.000000
# 2 -0.003824 0.027260 -0.006498 0.000000 0.000000 0.000000
# 3 -0.001264 -0.006498 0.031552 0.000000 0.000000 0.000000
# 4 0.000000 0.000000 0.000000 -1.080841 0.000000 0.000000
# 5 0.000000 0.000000 0.000000 0.000000 -0.017916 0.000000
# 6 0.000000 0.000000 0.000000 0.000000 0.000000 0.033197
#
#
# Mechanical properties :
#
#
# Convention : Reuss Voigt Hill
#
# Bulk Modulus (GPa) = 25.24777 61.11984 43.18381
# Shear Modulus (GPa) = -5.17381 15.00324 4.91472
#
# Velocity S-wave (km/s) = -1.55500 2.64800 1.51556
# Velocity P-wave (km/s) = 2.92844 6.15744 4.82130
#
# Compressibility (1/GPa) = 0.03960746
#
# Stress axis : x y z
#
# Youngs Moduli (GPa) = 252.07660 36.68358 31.69346
#
# Poissons Ratio (x) = 0.14027 0.04006
# Poissons Ratio (y) = 0.96386 0.20596
# Poissons Ratio (z) = 0.31860 0.23839
#
# Static dielectric constant tensor:
#      x y z
#    x 1.923100 0.000000 0.000000 
#    y 0.000000 1.744490 0.000000 
#    z 0.000000 0.000000 1.741260 
# 
# From -- ./inp_files/33079.got.cif
#   From: 2010.05.17/outbox.cif.g08.bks.cpg/sg63_17_cif.got.tgz:33079.got - 2010.06.03 15:47:04.
