data_PCOD9469165
_publ_section_title
;
Structure prediction by ZEFSAII (Michael W. Deem and Ramdas Pophale) SiO2 
 PCOD9469165
Probable space group: C M C M
;
_chemical_formula_sum "Si O2"
_cell_formula_units_Z 88
_cell_length_a 12.310247
_cell_length_b 21.855848
_cell_length_c 13.678958
_cell_angle_alpha 90.000000
_cell_angle_beta 90.000000
_cell_angle_gamma 90.000000
_cell_volume 3680.335787
_symmetry_space_group_name_H-M "C M C M"
_symmetry_group_IT_number 63
_symmetry_cell_setting 'orthorhombic'
loop_
_space_group_symop_operation_xyz
x,y,z
-x,-y,1/2+z
x,-y,-z
-x,y,1/2-z
-x,-y,-z
x,y,1/2-z
-x,y,z
x,-y,1/2+z
1/2+x,1/2+y,z
1/2-x,1/2-y,1/2+z
1/2+x,1/2-y,-z
1/2-x,1/2+y,1/2-z
1/2-x,1/2-y,-z
1/2+x,1/2+y,1/2-z
1/2-x,1/2+y,z
1/2+x,1/2-y,1/2+z
loop_
_atom_site_type_symbol
_atom_site_label
_atom_site_fract_x
_atom_site_fract_y
_atom_site_fract_z
Si Si1 0.744199 0.030648 0.858952
Si Si2 0.266001 0.897202 0.631144
Si Si3 0.000000 0.362599 0.548595
Si Si4 0.000000 0.541673 0.596908
Si Si5 0.000000 0.769288 0.365689
Si Si6 0.728175 0.666101 0.631942
Si Si7 0.125928 0.221472 0.130993
O O1 0.792990 0.032980 0.750000
O O2 0.613059 0.028567 0.852326
O O3 0.765151 0.096795 0.906080
O O4 0.775199 0.964508 0.901114
O O5 0.266819 0.898237 0.750000
O O6 0.389285 0.888059 0.596087
O O7 0.193956 0.838689 0.601571
O O8 0.000000 0.291844 0.572443
O O9 0.000000 0.387734 0.438174
O O10 0.000000 0.500000 0.500000
O O11 0.891145 0.807013 0.383734
O O12 0.000000 0.751827 0.250000
O O13 0.745582 0.661880 0.750000
O O14 0.814806 0.716457 0.596094
O O15 0.129667 0.222985 0.250000
O O16 0.000000 0.216854 0.103414
#
# Coordination Sequence:
#
# PCOD9469165 Si02
#       7
#    16  16   8   8   8  16  16
#     4  10  21  37  55  81 111 145 186 231 281 331
#     4  10  18  31  53  80 110 144 186 232 273 324
#     4  12  20  32  55  82 109 142 187 230 280 326
#     4  12  23  36  53  84 114 147 183 229 288 333
#     4  10  18  34  59  86 113 144 188 231 273 326
#     4   9  18  32  55  82 110 145 183 229 278 323
#     4   9  17  29  48  78 112 145 183 228 274 322
#
# _framework density 23.910862000000002
#
# number of rings (size 3 to 8) (size 9 to 14) (size 15 to 20)
#    0.000    2.000    3.636    1.091    1.273    1.455 
#    1.636    0.909    0.000    0.000    0.000    1.909 
#    0.000    0.000    0.000    0.000    0.000    0.000 
#
# Total GULP energy -246271.142356 kJ/mol
# GULP energy per Si atom -5597.071417 kJ/mol
# Density = 2.385644 g / cm^3
# Si number density = 23.910862 Si / 1000 Ang^3
#
#
#
# Elastic Constant Matrix: (Units=GPa)
#
#
# Indices 1 2 3 4 5 6 
#
# 1 114.9970 82.0515 16.1794 0.0000 0.0000 0.0000
# 2 82.0515 268.7471 45.1767 0.0000 0.0000 0.0000
# 3 16.1794 45.1767 80.1339 0.0000 0.0000 0.0000
# 4 0.0000 0.0000 0.0000 31.9277 0.0000 0.0000
# 5 0.0000 0.0000 0.0000 0.0000 23.6574 0.0000
# 6 0.0000 0.0000 0.0000 0.0000 0.0000 31.6003
#
#
#
# Elastic Compliance Matrix: (Units=1/GPa)
#
#
# Indices 1 2 3 4 5 6 
#
# 1 0.011128 -0.003336 -0.000366 0.000000 0.000000 0.000000
# 2 -0.003336 0.005111 -0.002208 0.000000 0.000000 0.000000
# 3 -0.000366 -0.002208 0.013798 0.000000 0.000000 0.000000
# 4 0.000000 0.000000 0.000000 0.031321 0.000000 0.000000
# 5 0.000000 0.000000 0.000000 0.000000 0.042270 0.000000
# 6 0.000000 0.000000 0.000000 0.000000 0.000000 0.031645
#
#
# Mechanical properties :
#
#
# Convention : Reuss Voigt Hill
#
# Bulk Modulus (GPa) = 54.89489 83.41035 69.15262
# Shear Modulus (GPa) = 32.64496 38.80178 35.72337
#
# Velocity S-wave (km/s) = 3.69897 4.03273 3.86945
# Velocity P-wave (km/s) = 6.42271 7.52619 6.99624
#
# Compressibility (1/GPa) = 0.01821663
#
# Stress axis : x y z
#
# Youngs Moduli (GPa) = 89.86719 195.67412 72.47632
#
# Poissons Ratio (x) = 0.65273 0.02653
# Poissons Ratio (y) = 0.29978 0.16000
# Poissons Ratio (z) = 0.03290 0.43197
#
# Static dielectric constant tensor:
#      x y z
#    x 1.808560 0.000000 0.000000 
#    y 0.000000 1.927230 0.000000 
#    z 0.000000 0.000000 1.957870 
# 
# From -- ./inp_files/42330.got.cif
#   From: 2010.05.17/outbox.cif.g08.bks.cpg/sg63_22_cif.got.tgz:42330.got - 2010.06.03 15:47:04.
