data_PCOD9469098
_publ_section_title
;
Structure prediction by ZEFSAII (Michael W. Deem and Ramdas Pophale) SiO2 
 PCOD9469098
Probable space group: C M C M
;
_chemical_formula_sum "Si O2"
_cell_formula_units_Z 128
_cell_length_a 12.720003
_cell_length_b 24.687600
_cell_length_c 22.567857
_cell_angle_alpha 90.000000
_cell_angle_beta 90.000000
_cell_angle_gamma 90.000000
_cell_volume 7086.901672
_symmetry_space_group_name_H-M "C M C M"
_symmetry_group_IT_number 63
_symmetry_cell_setting 'orthorhombic'
loop_
_space_group_symop_operation_xyz
x,y,z
-x,-y,1/2+z
x,-y,-z
-x,y,1/2-z
-x,-y,-z
x,y,1/2-z
-x,y,z
x,-y,1/2+z
1/2+x,1/2+y,z
1/2-x,1/2-y,1/2+z
1/2+x,1/2-y,-z
1/2-x,1/2+y,1/2-z
1/2-x,1/2-y,-z
1/2+x,1/2+y,1/2-z
1/2-x,1/2+y,z
1/2+x,1/2-y,1/2+z
loop_
_atom_site_type_symbol
_atom_site_label
_atom_site_fract_x
_atom_site_fract_y
_atom_site_fract_z
Si Si1 0.128875 0.083085 0.355390
Si Si2 0.743251 0.017408 0.817509
Si Si3 0.877144 0.427444 0.423403
Si Si4 0.884193 0.118856 0.679785
Si Si5 0.615304 0.677264 0.513338
Si Si6 0.778910 0.686398 0.891423
Si Si7 0.379213 0.298179 0.627125
Si Si8 0.679637 0.560509 0.007791
O O1 0.155845 0.145878 0.342350
O O2 0.165979 0.071979 0.422830
O O3 0.000000 0.076450 0.350712
O O4 0.199884 0.040562 0.320142
O O5 0.704421 0.027160 0.750000
O O6 0.659558 0.033535 0.868663
O O7 0.836835 0.059736 0.831041
O O8 0.857027 0.364118 0.405075
O O9 0.796131 0.438376 0.477868
O O10 0.000000 0.435479 0.437062
O O11 0.887861 0.125888 0.750000
O O12 0.806414 0.161582 0.652280
O O13 0.000000 0.123928 0.654859
O O14 0.500000 0.696930 0.532390
O O15 0.713318 0.700142 0.549286
O O16 0.624728 0.689683 0.443685
O O17 0.622636 0.612004 0.521766
O O18 0.824839 0.740889 0.864525
O O19 0.500000 0.291260 0.643777
O O20 0.636864 0.500000 0.000000
#
# Coordination Sequence:
#
# PCOD9469098 Si02
#       8
#    16  16  16  16  16  16  16  16
#     4  10  20  34  53  78 107 137 167 205 260 314
#     4  10  20  36  55  78 104 132 170 211 259 313
#     4  10  21  35  52  76 104 138 177 215 253 293
#     4   9  18  32  51  76 102 126 156 203 259 305
#     4   9  18  29  46  74 104 134 165 199 246 303
#     4  10  18  31  51  74 100 133 171 206 243 293
#     4   9  18  32  49  70 101 135 166 203 243 289
#     4  10  18  32  48  77 106 137 167 204 255 309
#
# _framework density 18.061489000000002
#
# number of rings (size 3 to 8) (size 9 to 14) (size 15 to 20)
#    0.000    2.375    1.250    2.625    0.000    2.250 
#    0.000    0.625    0.000    6.375    0.000    0.000 
#    0.000    0.000    0.000    0.000    0.000    0.000 
#
# Total GULP energy -356371.723265 kJ/mol
# GULP energy per Si atom -5568.308176 kJ/mol
# Density = 1.802038 g / cm^3
# Si number density = 18.061489 Si / 1000 Ang^3
#
#
#
# Elastic Constant Matrix: (Units=GPa)
#
#
# Indices 1 2 3 4 5 6 
#
# 1 72.5578 22.1514 10.3681 0.0000 0.0000 0.0000
# 2 22.1514 112.3201 -3.1216 0.0000 0.0000 0.0000
# 3 10.3681 -3.1216 14.7714 0.0000 0.0000 0.0000
# 4 0.0000 0.0000 0.0000 14.4181 0.0000 0.0000
# 5 0.0000 0.0000 0.0000 0.0000 15.5986 0.0000
# 6 0.0000 0.0000 0.0000 0.0000 0.0000 13.4886
#
#
#
# Elastic Compliance Matrix: (Units=1/GPa)
#
#
# Indices 1 2 3 4 5 6 
#
# 1 0.016674 -0.003635 -0.012472 0.000000 0.000000 0.000000
# 2 -0.003635 0.009748 0.004611 0.000000 0.000000 0.000000
# 3 -0.012472 0.004611 0.077427 0.000000 0.000000 0.000000
# 4 0.000000 0.000000 0.000000 0.069357 0.000000 0.000000
# 5 0.000000 0.000000 0.000000 0.000000 0.064108 0.000000
# 6 0.000000 0.000000 0.000000 0.000000 0.000000 0.074137
#
#
# Mechanical properties :
#
#
# Convention : Reuss Voigt Hill
#
# Bulk Modulus (GPa) = 12.36727 28.71613 20.54170
# Shear Modulus (GPa) = 13.83528 20.05115 16.94321
#
# Velocity S-wave (km/s) = 2.77069 3.33552 3.06614
# Velocity P-wave (km/s) = 4.13495 5.54688 4.89212
#
# Compressibility (1/GPa) = 0.08085857
#
# Stress axis : x y z
#
# Youngs Moduli (GPa) = 59.97362 102.58336 12.91539
#
# Poissons Ratio (x) = 0.37289 0.16108
# Poissons Ratio (y) = 0.21800 -0.05956
# Poissons Ratio (z) = 0.74798 -0.47306
#
# Static dielectric constant tensor:
#      x y z
#    x 1.347720 0.000000 0.000000 
#    y 0.000000 1.649360 0.000000 
#    z 0.000000 0.000000 1.694110 
# 
# From -- ./inp_files/62055.got.cif
#   From: 2010.05.17/outbox.cif.g08.bks.cpg/sg63_32_cif.got.tgz:62055.got - 2010.06.03 15:47:04.
