data_PCOD9469510
_publ_section_title
;
Structure prediction by ZEFSAII (Michael W. Deem and Ramdas Pophale) SiO2 
 PCOD9469510
Probable space group: C M C M
;
_chemical_formula_sum "Si O2"
_cell_formula_units_Z 88
_cell_length_a 11.746676
_cell_length_b 20.370777
_cell_length_c 18.147119
_cell_angle_alpha 90.000000
_cell_angle_beta 90.000000
_cell_angle_gamma 90.000000
_cell_volume 4342.404457
_symmetry_space_group_name_H-M "C M C M"
_symmetry_group_IT_number 63
_symmetry_cell_setting 'orthorhombic'
loop_
_space_group_symop_operation_xyz
x,y,z
-x,-y,1/2+z
x,-y,-z
-x,y,1/2-z
-x,-y,-z
x,y,1/2-z
-x,y,z
x,-y,1/2+z
1/2+x,1/2+y,z
1/2-x,1/2-y,1/2+z
1/2+x,1/2-y,-z
1/2-x,1/2+y,1/2-z
1/2-x,1/2-y,-z
1/2+x,1/2+y,1/2-z
1/2-x,1/2+y,z
1/2+x,1/2-y,1/2+z
loop_
_atom_site_type_symbol
_atom_site_label
_atom_site_fract_x
_atom_site_fract_y
_atom_site_fract_z
Si Si1 0.500000 0.291555 0.666886
Si Si2 0.707850 0.285082 0.073332
Si Si3 0.236114 0.662614 0.166817
Si Si4 0.000000 0.028582 0.418765
Si Si5 0.365118 0.115388 0.837523
Si Si6 0.763732 0.018208 0.161026
Si Si7 0.000000 0.829485 0.514356
O O1 0.500000 0.256786 0.750000
O O2 0.626201 0.324814 0.669487
O O3 0.500000 0.272470 0.578499
O O4 0.679800 0.223288 0.125239
O O5 0.796956 0.330521 0.116268
O O6 0.750000 0.250000 0.000000
O O7 0.605390 0.327364 0.040886
O O8 0.193780 0.662257 0.250000
O O9 0.219358 0.589658 0.134867
O O10 0.112576 0.008843 0.374537
O O11 0.000000 0.106057 0.435573
O O12 0.000000 0.000000 0.500000
O O13 0.343654 0.125524 0.750000
O O14 0.500000 0.119531 0.850081
O O15 0.317306 0.042975 0.856009
O O16 0.775714 0.022445 0.250000
#
# Coordination Sequence:
#
# PCOD9469510 Si02
#       7
#     8  16  16   8  16  16   8
#     4  10  18  34  62  98 121 155 219 272 316 374
#     4  12  24  40  62  93 134 173 220 270 334 387
#     4  10  20  37  64  93 125 167 221 274 321 386
#     4  12  21  34  61  92 129 168 205 258 329 390
#     4  10  24  45  69  97 131 176 224 271 329 400
#     4  10  20  39  66  98 130 165 217 277 330 390
#     4  12  24  40  58  94 132 168 210 275 327 392
#
# _framework density 20.265272
#
# number of rings (size 3 to 8) (size 9 to 14) (size 15 to 20)
#    0.000    1.273    3.636    1.909    2.545    0.000 
#    1.636    2.727    0.000    4.909    0.000    0.000 
#    0.000    0.000    0.000    0.000    0.000    0.000 
#
# Total GULP energy -245253.235653 kJ/mol
# GULP energy per Si atom -5573.937174 kJ/mol
# Density = 2.021915 g / cm^3
# Si number density = 20.265272 Si / 1000 Ang^3
#
#
#
# Elastic Constant Matrix: (Units=GPa)
#
#
# Indices 1 2 3 4 5 6 
#
# 1 91.5328 35.9095 44.8677 0.0000 0.0000 0.0000
# 2 35.9095 97.2747 40.5585 0.0000 0.0000 0.0000
# 3 44.8677 40.5585 82.7912 0.0000 0.0000 0.0000
# 4 0.0000 0.0000 0.0000 36.5302 0.0000 0.0000
# 5 0.0000 0.0000 0.0000 0.0000 35.0157 0.0000
# 6 0.0000 0.0000 0.0000 0.0000 0.0000 22.4878
#
#
#
# Elastic Compliance Matrix: (Units=1/GPa)
#
#
# Indices 1 2 3 4 5 6 
#
# 1 0.015453 -0.002781 -0.007012 0.000000 0.000000 0.000000
# 2 -0.002781 0.013419 -0.005067 0.000000 0.000000 0.000000
# 3 -0.007012 -0.005067 0.018361 0.000000 0.000000 0.000000
# 4 0.000000 0.000000 0.000000 0.027375 0.000000 0.000000
# 5 0.000000 0.000000 0.000000 0.000000 0.028559 0.000000
# 6 0.000000 0.000000 0.000000 0.000000 0.000000 0.044469
#
#
# Mechanical properties :
#
#
# Convention : Reuss Voigt Hill
#
# Bulk Modulus (GPa) = 57.09928 57.14112 57.12020
# Shear Modulus (GPa) = 27.29346 28.82427 28.05886
#
# Velocity S-wave (km/s) = 3.67387 3.77549 3.72503
# Velocity P-wave (km/s) = 6.79952 6.87485 6.83729
#
# Compressibility (1/GPa) = 0.01751336
#
# Stress axis : x y z
#
# Youngs Moduli (GPa) = 64.71074 74.51900 54.46284
#
# Poissons Ratio (x) = 0.20723 0.38192
# Poissons Ratio (y) = 0.17995 0.27596
# Poissons Ratio (z) = 0.45378 0.37759
#
# Static dielectric constant tensor:
#      x y z
#    x 1.705240 0.000000 0.000000 
#    y 0.000000 1.863800 0.000000 
#    z 0.000000 0.000000 -0.479290 
# 
# From -- ./inp_files/42306.got.cif
#   From: 2010.05.17/outbox.cif.g08.bks.cpg/sg63_22_cif.got.tgz:42306.got - 2010.06.03 15:47:04.
