data_PCOD9469824
_publ_section_title
;
Structure prediction by ZEFSAII (Michael W. Deem and Ramdas Pophale) SiO2 
 PCOD9469824
Probable space group: C M C M
;
_chemical_formula_sum "Si O2"
_cell_formula_units_Z 112
_cell_length_a 7.338506
_cell_length_b 25.744172
_cell_length_c 26.387851
_cell_angle_alpha 90.000000
_cell_angle_beta 90.000000
_cell_angle_gamma 90.000000
_cell_volume 4985.292047
_symmetry_space_group_name_H-M "C M C M"
_symmetry_group_IT_number 63
_symmetry_cell_setting 'orthorhombic'
loop_
_space_group_symop_operation_xyz
x,y,z
-x,-y,1/2+z
x,-y,-z
-x,y,1/2-z
-x,-y,-z
x,y,1/2-z
-x,y,z
x,-y,1/2+z
1/2+x,1/2+y,z
1/2-x,1/2-y,1/2+z
1/2+x,1/2-y,-z
1/2-x,1/2+y,1/2-z
1/2-x,1/2-y,-z
1/2+x,1/2+y,1/2-z
1/2-x,1/2+y,z
1/2+x,1/2-y,1/2+z
loop_
_atom_site_type_symbol
_atom_site_label
_atom_site_fract_x
_atom_site_fract_y
_atom_site_fract_z
Si Si1 0.278198 0.537944 0.892119
Si Si2 0.779864 0.233075 0.657867
Si Si3 0.787068 0.152612 0.194542
Si Si4 0.716729 0.288918 0.454187
Si Si5 0.222080 0.119332 0.806623
Si Si6 0.722534 0.579372 0.105004
Si Si7 0.777471 0.098276 0.989859
O O1 0.500000 0.538910 0.891683
O O2 0.217975 0.579955 0.850493
O O3 0.223424 0.479178 0.880856
O O4 0.222800 0.555442 0.948571
O O5 0.723207 0.285874 0.684711
O O6 0.715578 0.232149 0.599505
O O7 0.721289 0.178609 0.682395
O O8 0.000000 0.233328 0.658930
O O9 0.708257 0.140681 0.250000
O O10 0.713000 0.120933 0.146475
O O11 0.000000 0.138655 0.196674
O O12 0.500000 0.294423 0.447997
O O13 0.750000 0.250000 0.500000
O O14 0.783924 0.346031 0.468558
O O15 0.277194 0.103736 0.750000
O O16 0.000000 0.119319 0.807997
O O17 0.500000 0.581167 0.103743
O O18 0.782417 0.590609 0.047500
O O19 0.000000 0.098033 0.990797
#
# Coordination Sequence:
#
# PCOD9469824 Si02
#       7
#    16  16  16  16  16  16  16
#     4   9  15  25  41  65  94 124 159 197 240 290
#     4  10  19  33  51  72  97 128 168 207 242 290
#     4  10  21  35  49  70 101 132 164 204 248 296
#     4  10  19  30  47  71 102 133 163 202 244 291
#     4   9  16  26  42  65  92 120 154 201 248 282
#     4   9  17  27  43  65  93 129 161 192 239 293
#     4   9  15  26  42  64  94 124 157 197 239 287
#
# _framework density 22.466085
#
# number of rings (size 3 to 8) (size 9 to 14) (size 15 to 20)
#    0.000    2.571    1.429    1.714    0.000    4.857 
#    0.000    2.857    0.000    0.000    0.000    2.000 
#    0.000    4.571    0.000    0.000    0.000    0.000 
#
# Total GULP energy -312931.849773 kJ/mol
# GULP energy per Si atom -5588.068746 kJ/mol
# Density = 2.241495 g / cm^3
# Si number density = 22.466085 Si / 1000 Ang^3
#
#
#
# Elastic Constant Matrix: (Units=GPa)
#
#
# Indices 1 2 3 4 5 6 
#
# 1 84.4825 -4.0980 4.2520 0.0000 0.0000 0.0000
# 2 -4.0980 103.0791 64.6340 0.0000 0.0000 0.0000
# 3 4.2520 64.6340 194.4946 0.0000 0.0000 0.0000
# 4 0.0000 0.0000 0.0000 11.8767 0.0000 0.0000
# 5 0.0000 0.0000 0.0000 0.0000 -4.1161 0.0000
# 6 0.0000 0.0000 0.0000 0.0000 0.0000 87.4013
#
#
#
# Elastic Compliance Matrix: (Units=1/GPa)
#
#
# Indices 1 2 3 4 5 6 
#
# 1 0.011902 0.000804 -0.000527 0.000000 0.000000 0.000000
# 2 0.000804 0.012309 -0.004108 0.000000 0.000000 0.000000
# 3 -0.000527 -0.004108 0.006518 0.000000 0.000000 0.000000
# 4 0.000000 0.000000 0.000000 0.084198 0.000000 0.000000
# 5 0.000000 0.000000 0.000000 0.000000 -0.242951 0.000000
# 6 0.000000 0.000000 0.000000 0.000000 0.000000 0.011441
#
#
# Mechanical properties :
#
#
# Convention : Reuss Voigt Hill
#
# Bulk Modulus (GPa) = 43.35292 56.84802 50.10047
# Shear Modulus (GPa) = -49.39310 40.18360 -4.60475
#
# Velocity S-wave (km/s) = -4.69397 4.23381 -1.43321
# Velocity P-wave (km/s) = 3.16842 7.01848 4.42833
#
# Compressibility (1/GPa) = 0.02306650
#
# Stress axis : x y z
#
# Youngs Moduli (GPa) = 84.01736 81.24016 153.41504
#
# Poissons Ratio (x) = -0.06530 0.08090
# Poissons Ratio (y) = -0.06754 0.63025
# Poissons Ratio (z) = 0.04431 0.33375
#
# Static dielectric constant tensor:
#      x y z
#    x 1.925790 0.000000 0.000000 
#    y 0.000000 1.764630 0.000000 
#    z 0.000000 0.000000 1.776800 
# 
# From -- ./inp_files/61929.got.cif
#   From: 2010.05.17/outbox.cif.g08.bks.cpg/sg63_31_cif.got.tgz:61929.got - 2010.06.03 15:47:04.
