data_PCOD9469035
_publ_section_title
;
Structure prediction by ZEFSAII (Michael W. Deem and Ramdas Pophale) SiO2 
 PCOD9469035
Probable space group: C M C M
;
_chemical_formula_sum "Si O2"
_cell_formula_units_Z 104
_cell_length_a 8.063845
_cell_length_b 30.129032
_cell_length_c 21.339283
_cell_angle_alpha 90.000000
_cell_angle_beta 90.000000
_cell_angle_gamma 90.000000
_cell_volume 5184.503513
_symmetry_space_group_name_H-M "C M C M"
_symmetry_group_IT_number 63
_symmetry_cell_setting 'orthorhombic'
loop_
_space_group_symop_operation_xyz
x,y,z
-x,-y,1/2+z
x,-y,-z
-x,y,1/2-z
-x,-y,-z
x,y,1/2-z
-x,y,z
x,-y,1/2+z
1/2+x,1/2+y,z
1/2-x,1/2-y,1/2+z
1/2+x,1/2-y,-z
1/2-x,1/2+y,1/2-z
1/2-x,1/2-y,-z
1/2+x,1/2+y,1/2-z
1/2-x,1/2+y,z
1/2+x,1/2-y,1/2+z
loop_
_atom_site_type_symbol
_atom_site_label
_atom_site_fract_x
_atom_site_fract_y
_atom_site_fract_z
Si Si1 0.297474 0.286601 0.822775
Si Si2 0.698972 0.122306 0.532454
Si Si3 0.691463 0.440534 0.139724
Si Si4 0.262535 0.878296 0.250000
Si Si5 0.798101 0.310239 0.137767
Si Si6 0.695861 0.965929 0.822075
Si Si7 0.803108 0.876529 0.889039
O O1 0.247514 0.287170 0.750000
O O2 0.500000 0.286566 0.823915
O O3 0.244167 0.240462 0.854502
O O4 0.240524 0.330706 0.858294
O O5 0.500000 0.120518 0.530093
O O6 0.762160 0.080786 0.573452
O O7 0.748031 0.165710 0.573099
O O8 0.767213 0.123006 0.462765
O O9 0.500000 0.430168 0.155268
O O10 0.791104 0.415809 0.194663
O O11 0.719057 0.492841 0.143359
O O12 0.236943 0.840445 0.195023
O O13 0.000000 0.311566 0.143148
O O14 0.755228 0.964088 0.750000
O O15 0.500000 0.974612 0.821857
O O16 0.727520 0.919446 0.855796
O O17 0.000000 0.878511 0.878875
#
# Coordination Sequence:
#
# PCOD9469035 Si02
#       7
#    16  16  16   8  16  16  16
#     4   9  17  32  57  89 119 154 200 247 293 349
#     4  10  22  39  59  87 120 161 204 245 294 355
#     4  11  22  38  61  90 123 153 191 244 302 358
#     4  10  18  30  56  88 121 152 183 234 291 352
#     4   9  17  31  56  88 121 156 196 241 292 352
#     4  11  24  41  63  90 119 155 199 246 296 355
#     4  11  23  39  60  85 120 163 205 249 297 349
#
# _framework density 20.05978
#
# number of rings (size 3 to 8) (size 9 to 14) (size 15 to 20)
#    0.000    1.846    1.538    2.769    0.000    4.615 
#    0.000    3.077    0.000   10.154    0.000    0.000 
#    0.000    0.000    0.000    0.000    0.000    0.000 
#
# Total GULP energy -289483.614089 kJ/mol
# GULP energy per Si atom -5566.992579 kJ/mol
# Density = 2.001412 g / cm^3
# Si number density = 20.059780 Si / 1000 Ang^3
#
#
#
# Elastic Constant Matrix: (Units=GPa)
#
#
# Indices 1 2 3 4 5 6 
#
# 1 28.8544 3.4107 -1.0871 0.0000 0.0000 0.0000
# 2 3.4107 161.6505 41.9100 0.0000 0.0000 0.0000
# 3 -1.0871 41.9100 71.0918 0.0000 0.0000 0.0000
# 4 0.0000 0.0000 0.0000 36.2825 0.0000 0.0000
# 5 0.0000 0.0000 0.0000 0.0000 1.3503 0.0000
# 6 0.0000 0.0000 0.0000 0.0000 0.0000 6.2359
#
#
#
# Elastic Compliance Matrix: (Units=1/GPa)
#
#
# Indices 1 2 3 4 5 6 
#
# 1 0.034822 -0.001030 0.001140 0.000000 0.000000 0.000000
# 2 -0.001030 0.007333 -0.004339 0.000000 0.000000 0.000000
# 3 0.001140 -0.004339 0.016641 0.000000 0.000000 0.000000
# 4 0.000000 0.000000 0.000000 0.027561 0.000000 0.000000
# 5 0.000000 0.000000 0.000000 0.000000 0.740591 0.000000
# 6 0.000000 0.000000 0.000000 0.000000 0.000000 0.160362
#
#
# Mechanical properties :
#
#
# Convention : Reuss Voigt Hill
#
# Bulk Modulus (GPa) = 19.86579 38.89597 29.38088
# Shear Modulus (GPa) = 4.93804 23.26462 14.10133
#
# Velocity S-wave (km/s) = 1.57067 3.40923 2.65423
# Velocity P-wave (km/s) = 3.63513 5.91009 4.90629
#
# Compressibility (1/GPa) = 0.05033778
#
# Stress axis : x y z
#
# Youngs Moduli (GPa) = 28.71787 136.37458 60.09112
#
# Poissons Ratio (x) = 0.14050 -0.06849
# Poissons Ratio (y) = 0.02959 0.26071
# Poissons Ratio (z) = -0.03273 0.59167
#
# Static dielectric constant tensor:
#      x y z
#    x 1.761490 0.000000 0.000000 
#    y 0.000000 1.717250 0.000000 
#    z 0.000000 0.000000 1.666620 
# 
# From -- ./inp_files/51523.got.cif
#   From: 2010.05.17/outbox.cif.g08.bks.cpg/sg63_26_cif.got.tgz:51523.got - 2010.06.03 15:47:04.
