data_PCOD9469612
_publ_section_title
;
Structure prediction by ZEFSAII (Michael W. Deem and Ramdas Pophale) SiO2 
 PCOD9469612
Probable space group: C M C M
;
_chemical_formula_sum "Si O2"
_cell_formula_units_Z 88
_cell_length_a 21.318367
_cell_length_b 27.510587
_cell_length_c 7.346284
_cell_angle_alpha 90.000000
_cell_angle_beta 90.000000
_cell_angle_gamma 90.000000
_cell_volume 4308.454444
_symmetry_space_group_name_H-M "C M C M"
_symmetry_group_IT_number 63
_symmetry_cell_setting 'orthorhombic'
loop_
_space_group_symop_operation_xyz
x,y,z
-x,-y,1/2+z
x,-y,-z
-x,y,1/2-z
-x,-y,-z
x,y,1/2-z
-x,y,z
x,-y,1/2+z
1/2+x,1/2+y,z
1/2-x,1/2-y,1/2+z
1/2+x,1/2-y,-z
1/2-x,1/2+y,1/2-z
1/2-x,1/2-y,-z
1/2+x,1/2+y,1/2-z
1/2-x,1/2+y,z
1/2+x,1/2-y,1/2+z
loop_
_atom_site_type_symbol
_atom_site_label
_atom_site_fract_x
_atom_site_fract_y
_atom_site_fract_z
Si Si1 0.863071 0.289572 0.529146
Si Si2 0.000000 0.293946 0.961843
Si Si3 0.364143 0.942528 0.468018
Si Si4 0.762123 0.370262 0.459844
Si Si5 0.500000 0.941836 0.033167
Si Si6 0.363170 0.323175 0.473317
Si Si7 0.000000 0.824266 0.462396
O O1 0.864213 0.290789 0.750000
O O2 0.806847 0.323072 0.464759
O O3 0.854282 0.233381 0.474964
O O4 0.931796 0.307702 0.462848
O O5 0.000000 0.234821 0.968496
O O6 0.000000 0.308395 0.750000
O O7 0.365624 0.935215 0.250000
O O8 0.305343 0.912565 0.541410
O O9 0.432449 0.925116 0.538771
O O10 0.358340 0.000000 0.500000
O O11 0.750063 0.383707 0.250000
O O12 0.694939 0.355339 0.537456
O O13 0.500000 0.933464 0.250000
O O14 0.500000 0.000000 0.000000
O O15 0.363548 0.323300 0.250000
O O16 0.432328 0.339412 0.536200
O O17 0.000000 0.838056 0.250000
#
# Coordination Sequence:
#
# PCOD9469612 Si02
#       7
#    16   8  16  16   8  16   8
#     4   9  16  27  42  59  82 114 145 169 193 232
#     4   7  12  23  38  56  78 107 146 178 192 212
#     4   9  18  31  45  59  78 103 133 168 204 240
#     4  10  19  28  40  63  89 108 129 167 214 250
#     4   8  14  27  44  58  73 100 134 165 198 237
#     4   8  14  25  41  61  85 110 138 169 199 232
#     4   7  10  20  39  58  77 107 141 169 193 223
#
# _framework density 20.424958
#
# number of rings (size 3 to 8) (size 9 to 14) (size 15 to 20)
#    0.000    3.455    0.000    2.727    0.000    1.455 
#    0.000    1.364    0.000    3.273    0.000    2.545 
#    0.000    0.000    0.000    0.000    0.000    0.000 
#
# Total GULP energy -245283.960292 kJ/mol
# GULP energy per Si atom -5574.635461 kJ/mol
# Density = 2.037847 g / cm^3
# Si number density = 20.424958 Si / 1000 Ang^3
#
#
#
# Elastic Constant Matrix: (Units=GPa)
#
#
# Indices 1 2 3 4 5 6 
#
# 1 219.9918 72.3883 2.3602 0.0000 0.0000 0.0000
# 2 72.3883 68.2830 -0.7906 0.0000 0.0000 0.0000
# 3 2.3602 -0.7906 79.2156 0.0000 0.0000 0.0000
# 4 0.0000 0.0000 0.0000 4.0740 0.0000 0.0000
# 5 0.0000 0.0000 0.0000 0.0000 7.0737 0.0000
# 6 0.0000 0.0000 0.0000 0.0000 0.0000 127.8259
#
#
#
# Elastic Compliance Matrix: (Units=1/GPa)
#
#
# Indices 1 2 3 4 5 6 
#
# 1 0.006987 -0.007410 -0.000282 0.000000 0.000000 0.000000
# 2 -0.007410 0.022506 0.000445 0.000000 0.000000 0.000000
# 3 -0.000282 0.000445 0.012637 0.000000 0.000000 0.000000
# 4 0.000000 0.000000 0.000000 0.245460 0.000000 0.000000
# 5 0.000000 0.000000 0.000000 0.000000 0.141368 0.000000
# 6 0.000000 0.000000 0.000000 0.000000 0.000000 0.007823
#
#
# Mechanical properties :
#
#
# Convention : Reuss Voigt Hill
#
# Bulk Modulus (GPa) = 36.18539 57.26735 46.72637
# Shear Modulus (GPa) = 10.85806 47.36356 29.11081
#
# Velocity S-wave (km/s) = 2.30816 4.82073 3.77935
# Velocity P-wave (km/s) = 4.98580 7.68666 6.47854
#
# Compressibility (1/GPa) = 0.02763546
#
# Stress axis : x y z
#
# Youngs Moduli (GPa) = 143.12218 44.43256 79.13506
#
# Poissons Ratio (x) = 0.32926 0.02233
# Poissons Ratio (y) = 1.06059 -0.03525
# Poissons Ratio (z) = 0.04038 -0.01979
#
# Static dielectric constant tensor:
#      x y z
#    x 1.783450 0.000000 0.000000 
#    y 0.000000 1.690440 0.000000 
#    z 0.000000 0.000000 1.764090 
# 
# From -- ./inp_files/8276.got.cif
#   From: 2010.05.17/outbox.cif.g08.bks.cpg/sg63_5_cif.got.tgz:8276.got - 2010.06.03 15:47:04.
