data_PCOD9469471
_publ_section_title
;
Structure prediction by ZEFSAII (Michael W. Deem and Ramdas Pophale) SiO2 
 PCOD9469471
Probable space group: C M C M
;
_chemical_formula_sum "Si O2"
_cell_formula_units_Z 76
_cell_length_a 17.199823
_cell_length_b 18.149159
_cell_length_c 13.936255
_cell_angle_alpha 90.000000
_cell_angle_beta 90.000000
_cell_angle_gamma 90.000000
_cell_volume 4350.373726
_symmetry_space_group_name_H-M "C M C M"
_symmetry_group_IT_number 63
_symmetry_cell_setting 'orthorhombic'
loop_
_space_group_symop_operation_xyz
x,y,z
-x,-y,1/2+z
x,-y,-z
-x,y,1/2-z
-x,-y,-z
x,y,1/2-z
-x,y,z
x,-y,1/2+z
1/2+x,1/2+y,z
1/2-x,1/2-y,1/2+z
1/2+x,1/2-y,-z
1/2-x,1/2+y,1/2-z
1/2-x,1/2-y,-z
1/2+x,1/2+y,1/2-z
1/2-x,1/2+y,z
1/2+x,1/2-y,1/2+z
loop_
_atom_site_type_symbol
_atom_site_label
_atom_site_fract_x
_atom_site_fract_y
_atom_site_fract_z
Si Si1 0.762140 0.328706 0.947739
Si Si2 0.590029 0.783022 0.860980
Si Si3 0.500000 0.349995 0.750000
Si Si4 0.905107 0.014852 0.750000
Si Si5 0.000000 0.083253 0.459137
Si Si6 0.666597 0.349815 0.750000
Si Si7 0.642750 0.622323 0.917629
O O1 0.852973 0.333718 0.923281
O O2 0.715725 0.333399 0.846308
O O3 0.750000 0.250000 0.000000
O O4 0.723533 0.382846 0.025491
O O5 0.592057 0.806040 0.750000
O O6 0.500000 0.780175 0.891705
O O7 0.627187 0.700867 0.867008
O O8 0.500000 0.399641 0.846828
O O9 0.582585 0.308246 0.750000
O O10 0.874215 0.057878 0.656773
O O11 0.000000 0.025685 0.750000
O O12 0.863601 0.934915 0.750000
O O13 0.923181 0.119153 0.501264
O O14 0.000000 0.000000 0.500000
#
# Coordination Sequence:
#
# PCOD9469471 Si02
#       7
#    16  16   4   8   8   8  16
#     4  10  23  36  53  77 113 152 196 237 282 338
#     4  10  18  34  57  79 103 143 196 249 281 326
#     4  12  22  34  48  78 114 154 178 214 268 342
#     4  12  22  33  58  90 123 158 193 224 267 364
#     4  12  22  32  50  76 120 158 184 211 267 352
#     4  12  22  37  52  80 121 152 181 227 281 336
#     4  11  21  34  52  82 117 156 187 222 278 347
#
# _framework density 17.469763
#
# number of rings (size 3 to 8) (size 9 to 14) (size 15 to 20)
#    0.000    1.053    6.842    1.263    0.000    0.000 
#    0.000    0.000    0.000    0.000    0.000    4.421 
#    0.000    0.000    0.000    0.000    0.000    0.000 
#
# Total GULP energy -211714.962331 kJ/mol
# GULP energy per Si atom -5571.446377 kJ/mol
# Density = 1.743000 g / cm^3
# Si number density = 17.469763 Si / 1000 Ang^3
#
#
#
# Elastic Constant Matrix: (Units=GPa)
#
#
# Indices 1 2 3 4 5 6 
#
# 1 120.7159 22.4798 44.8373 0.0000 0.0000 0.0000
# 2 22.4798 35.6636 27.0795 0.0000 0.0000 0.0000
# 3 44.8373 27.0795 124.5174 0.0000 0.0000 0.0000
# 4 0.0000 0.0000 0.0000 23.6186 0.0000 0.0000
# 5 0.0000 0.0000 0.0000 0.0000 36.9884 0.0000
# 6 0.0000 0.0000 0.0000 0.0000 0.0000 18.1163
#
#
#
# Elastic Compliance Matrix: (Units=1/GPa)
#
#
# Indices 1 2 3 4 5 6 
#
# 1 0.010088 -0.004313 -0.002695 0.000000 0.000000 0.000000
# 2 -0.004313 0.035429 -0.006152 0.000000 0.000000 0.000000
# 3 -0.002695 -0.006152 0.010339 0.000000 0.000000 0.000000
# 4 0.000000 0.000000 0.000000 0.042339 0.000000 0.000000
# 5 0.000000 0.000000 0.000000 0.000000 0.027036 0.000000
# 6 0.000000 0.000000 0.000000 0.000000 0.000000 0.055199
#
#
# Mechanical properties :
#
#
# Convention : Reuss Voigt Hill
#
# Bulk Modulus (GPa) = 33.85489 52.18779 43.02134
# Shear Modulus (GPa) = 23.08453 28.17801 25.63127
#
# Velocity S-wave (km/s) = 3.63905 4.02052 3.83453
# Velocity P-wave (km/s) = 6.08918 7.17571 6.65466
#
# Compressibility (1/GPa) = 0.02953783
#
# Stress axis : x y z
#
# Youngs Moduli (GPa) = 99.12882 28.22508 96.71887
#
# Poissons Ratio (x) = 0.12172 0.26062
# Poissons Ratio (y) = 0.42751 0.59502
# Poissons Ratio (z) = 0.26712 0.17364
#
# Static dielectric constant tensor:
#      x y z
#    x 1.650510 0.000000 0.000000 
#    y 0.000000 1.627070 0.000000 
#    z 0.000000 0.000000 1.635830 
# 
# From -- ./inp_files/31724.got.cif
#   From: 2010.05.17/outbox.cif.g08.bks.cpg/sg63_16_cif.got.tgz:31724.got - 2010.06.03 15:47:04.
