data_PCOD9469508
_publ_section_title
;
Structure prediction by ZEFSAII (Michael W. Deem and Ramdas Pophale) SiO2 
 PCOD9469508
Probable space group: C M C M
;
_chemical_formula_sum "Si O2"
_cell_formula_units_Z 104
_cell_length_a 19.617664
_cell_length_b 26.611939
_cell_length_c 8.219042
_cell_angle_alpha 90.000000
_cell_angle_beta 90.000000
_cell_angle_gamma 90.000000
_cell_volume 4290.866581
_symmetry_space_group_name_H-M "C M C M"
_symmetry_group_IT_number 63
_symmetry_cell_setting 'orthorhombic'
loop_
_space_group_symop_operation_xyz
x,y,z
-x,-y,1/2+z
x,-y,-z
-x,y,1/2-z
-x,-y,-z
x,y,1/2-z
-x,y,z
x,-y,1/2+z
1/2+x,1/2+y,z
1/2-x,1/2-y,1/2+z
1/2+x,1/2-y,-z
1/2-x,1/2+y,1/2-z
1/2-x,1/2-y,-z
1/2+x,1/2+y,1/2-z
1/2-x,1/2+y,z
1/2+x,1/2-y,1/2+z
loop_
_atom_site_type_symbol
_atom_site_label
_atom_site_fract_x
_atom_site_fract_y
_atom_site_fract_z
Si Si1 0.577703 0.702830 0.442761
Si Si2 0.713148 0.903643 0.443335
Si Si3 0.774422 0.804603 0.944071
Si Si4 0.074612 0.424543 0.059890
Si Si5 0.642240 0.442701 0.942429
Si Si6 0.419720 0.186874 0.064981
Si Si7 0.500000 0.441569 0.057319
O O1 0.573987 0.692413 0.250000
O O2 0.500000 0.693525 0.508493
O O3 0.649510 0.680343 0.508187
O O4 0.595909 0.761982 0.470217
O O5 0.705507 0.903187 0.250000
O O6 0.719562 0.846231 0.504030
O O7 0.649507 0.936947 0.511053
O O8 0.786709 0.924786 0.486778
O O9 0.779301 0.804773 0.750000
O O10 0.750000 0.750000 0.000000
O O11 0.071781 0.438652 0.250000
O O12 0.000000 0.438605 0.987383
O O13 0.082226 0.364267 0.038997
O O14 0.646168 0.439119 0.750000
O O15 0.636544 0.500000 0.000000
O O16 0.570336 0.417996 0.994448
O O17 0.389849 0.183804 0.250000
O O18 0.500000 0.192321 0.091072
O O19 0.500000 0.441159 0.250000
O O20 0.500000 0.500000 0.000000
#
# Coordination Sequence:
#
# PCOD9469508 Si02
#       7
#    16  16  16  16  16  16   8
#     4   9  18  33  50  66  90 131 181 229 280 342
#     4  11  23  39  59  87 121 156 199 251 308 370
#     4  11  23  38  55  77 110 153 198 248 304 367
#     4   9  18  33  53  76 105 144 189 236 288 349
#     4  11  22  40  66  96 129 165 204 251 305 366
#     4   9  16  25  42  70  99 129 173 232 288 338
#     4  10  18  34  62  96 130 164 206 250 298 358
#
# _framework density 24.237527
#
# number of rings (size 3 to 8) (size 9 to 14) (size 15 to 20)
#    0.000    2.000    0.000    5.308    0.000    8.000 
#    1.385    0.000    0.000    0.462    0.000    0.000 
#    0.000    0.000    0.000    0.000    0.000    0.000 
#
# Total GULP energy -289990.421461 kJ/mol
# GULP energy per Si atom -5576.738874 kJ/mol
# Density = 2.418236 g / cm^3
# Si number density = 24.237527 Si / 1000 Ang^3
#
#
#
# Elastic Constant Matrix: (Units=GPa)
#
#
# Indices 1 2 3 4 5 6 
#
# 1 232.1827 34.5223 19.1132 0.0000 0.0000 0.0000
# 2 34.5223 48.5079 -7.5523 0.0000 0.0000 0.0000
# 3 19.1132 -7.5523 64.0138 0.0000 0.0000 0.0000
# 4 0.0000 0.0000 0.0000 16.4260 0.0000 0.0000
# 5 0.0000 0.0000 0.0000 0.0000 30.5787 0.0000
# 6 0.0000 0.0000 0.0000 0.0000 0.0000 10.6725
#
#
#
# Elastic Compliance Matrix: (Units=1/GPa)
#
#
# Indices 1 2 3 4 5 6 
#
# 1 0.005049 -0.003899 -0.001967 0.000000 0.000000 0.000000
# 2 -0.003899 0.024013 0.003997 0.000000 0.000000 0.000000
# 3 -0.001967 0.003997 0.016681 0.000000 0.000000 0.000000
# 4 0.000000 0.000000 0.000000 0.060879 0.000000 0.000000
# 5 0.000000 0.000000 0.000000 0.000000 0.032703 0.000000
# 6 0.000000 0.000000 0.000000 0.000000 0.000000 0.093699
#
#
# Mechanical properties :
#
#
# Convention : Reuss Voigt Hill
#
# Bulk Modulus (GPa) = 23.80792 48.54119 36.17455
# Shear Modulus (GPa) = 19.93917 31.44350 25.69134
#
# Velocity S-wave (km/s) = 2.87131 3.60572 3.25927
# Velocity P-wave (km/s) = 4.56472 6.11602 5.39641
#
# Compressibility (1/GPa) = 0.04200283
#
# Stress axis : x y z
#
# Youngs Moduli (GPa) = 198.07073 41.64465 59.94963
#
# Poissons Ratio (x) = 0.16239 0.11795
# Poissons Ratio (y) = 0.77236 -0.23963
# Poissons Ratio (z) = 0.38970 -0.16646
#
# Static dielectric constant tensor:
#      x y z
#    x 2.102980 0.000000 0.000000 
#    y 0.000000 2.015600 0.000000 
#    z 0.000000 0.000000 1.882360 
# 
# From -- ./inp_files/8836.got.cif
#   From: 2010.05.17/outbox.cif.g08.bks.cpg/sg63_5_cif.got.tgz:8836.got - 2010.06.03 15:47:04.
