data_PCOD9470501
_publ_section_title
;
Structure prediction by ZEFSAII (Michael W. Deem and Ramdas Pophale) SiO2 
 PCOD9470501
Probable space group: C M C M
;
_chemical_formula_sum "Si O2"
_cell_formula_units_Z 64
_cell_length_a 15.221627
_cell_length_b 11.574680
_cell_length_c 15.847894
_cell_angle_alpha 90.000000
_cell_angle_beta 90.000000
_cell_angle_gamma 90.000000
_cell_volume 2792.168520
_symmetry_space_group_name_H-M "C M C M"
_symmetry_group_IT_number 63
_symmetry_cell_setting 'orthorhombic'
loop_
_space_group_symop_operation_xyz
x,y,z
-x,-y,1/2+z
x,-y,-z
-x,y,1/2-z
-x,-y,-z
x,y,1/2-z
-x,y,z
x,-y,1/2+z
1/2+x,1/2+y,z
1/2-x,1/2-y,1/2+z
1/2+x,1/2-y,-z
1/2-x,1/2+y,1/2-z
1/2-x,1/2-y,-z
1/2+x,1/2+y,1/2-z
1/2-x,1/2+y,z
1/2+x,1/2-y,1/2+z
loop_
_atom_site_type_symbol
_atom_site_label
_atom_site_fract_x
_atom_site_fract_y
_atom_site_fract_z
Si Si1 0.840842 0.816606 0.517415
Si Si2 0.601265 0.272558 0.156895
Si Si3 0.404417 0.082062 0.916788
Si Si4 0.259449 0.061032 0.155974
O O1 0.750000 0.750000 0.500000
O O2 0.879490 0.847504 0.426088
O O3 0.900233 0.715423 0.556802
O O4 0.812316 0.911743 0.584946
O O5 0.613219 0.326336 0.250000
O O6 0.500000 0.233471 0.151590
O O7 0.667270 0.163883 0.152783
O O8 0.500000 0.057895 0.877413
O O9 0.318692 0.051131 0.862781
O O10 0.397566 0.000000 0.000000
O O11 0.222766 0.060115 0.250000
#
# Coordination Sequence:
#
# PCOD9470501 Si02
#       4
#    16  16  16  16
#     4  10  19  32  52  80 119 158 191 236 297 355
#     4   9  16  28  49  77 107 142 186 234 284 340
#     4  11  20  33  57  87 117 150 194 247 297 348
#     4  10  21  35  52  79 117 158 197 243 297 351
#
# _framework density 22.921251999999999
#
# number of rings (size 3 to 8) (size 9 to 14) (size 15 to 20)
#    0.000    2.000    5.000    1.500    0.000    2.500 
#    0.000    0.000    0.000    3.750    0.000   36.750 
#    0.000    0.000    0.000    0.000    0.000    0.000 
#
# Total GULP energy -178688.022774 kJ/mol
# GULP energy per Si atom -5584.000712 kJ/mol
# Density = 2.286908 g / cm^3
# Si number density = 22.921252 Si / 1000 Ang^3
#
#
#
# Elastic Constant Matrix: (Units=GPa)
#
#
# Indices 1 2 3 4 5 6 
#
# 1 71.4991 33.4721 42.9283 0.0000 0.0000 0.0000
# 2 33.4721 89.7866 42.4916 0.0000 0.0000 0.0000
# 3 42.9283 42.4916 200.2530 0.0000 0.0000 0.0000
# 4 0.0000 0.0000 0.0000 7.3515 0.0000 0.0000
# 5 0.0000 0.0000 0.0000 0.0000 26.6667 0.0000
# 6 0.0000 0.0000 0.0000 0.0000 0.0000 21.0362
#
#
#
# Elastic Compliance Matrix: (Units=1/GPa)
#
#
# Indices 1 2 3 4 5 6 
#
# 1 0.018199 -0.005489 -0.002737 0.000000 0.000000 0.000000
# 2 -0.005489 0.014037 -0.001802 0.000000 0.000000 0.000000
# 3 -0.002737 -0.001802 0.005963 0.000000 0.000000 0.000000
# 4 0.000000 0.000000 0.000000 0.136026 0.000000 0.000000
# 5 0.000000 0.000000 0.000000 0.000000 0.037500 0.000000
# 6 0.000000 0.000000 0.000000 0.000000 0.000000 0.047537
#
#
# Mechanical properties :
#
#
# Convention : Reuss Voigt Hill
#
# Bulk Modulus (GPa) = 55.11770 66.59141 60.85456
# Shear Modulus (GPa) = 17.52147 27.18735 22.35441
#
# Velocity S-wave (km/s) = 2.76781 3.44775 3.12632
# Velocity P-wave (km/s) = 5.85774 6.70556 6.29594
#
# Compressibility (1/GPa) = 0.01814299
#
# Stress axis : x y z
#
# Youngs Moduli (GPa) = 54.94780 71.24232 167.71195
#
# Poissons Ratio (x) = 0.39108 0.45895
# Poissons Ratio (y) = 0.30163 0.30216
# Poissons Ratio (z) = 0.15037 0.12835
#
# Static dielectric constant tensor:
#      x y z
#    x 1.958540 0.000000 0.000000 
#    y 0.000000 1.933770 0.000000 
#    z 0.000000 0.000000 1.917870 
# 
# From -- ./inp_files/43452.got.cif
#   From: 2010.05.17/outbox.cif.g08.bks.cpg/sg63_22_cif.got.tgz:43452.got - 2010.06.03 15:47:04.
