data_PCOD9470124
_publ_section_title
;
Structure prediction by ZEFSAII (Michael W. Deem and Ramdas Pophale) SiO2 
 PCOD9470124
Probable space group: C M C M
;
_chemical_formula_sum "Si O2"
_cell_formula_units_Z 64
_cell_length_a 13.672910
_cell_length_b 13.083468
_cell_length_c 19.712016
_cell_angle_alpha 90.000000
_cell_angle_beta 90.000000
_cell_angle_gamma 90.000000
_cell_volume 3526.264416
_symmetry_space_group_name_H-M "C M C M"
_symmetry_group_IT_number 63
_symmetry_cell_setting 'orthorhombic'
loop_
_space_group_symop_operation_xyz
x,y,z
-x,-y,1/2+z
x,-y,-z
-x,y,1/2-z
-x,-y,-z
x,y,1/2-z
-x,y,z
x,-y,1/2+z
1/2+x,1/2+y,z
1/2-x,1/2-y,1/2+z
1/2+x,1/2-y,-z
1/2-x,1/2+y,1/2-z
1/2-x,1/2-y,-z
1/2+x,1/2+y,1/2-z
1/2-x,1/2+y,z
1/2+x,1/2-y,1/2+z
loop_
_atom_site_type_symbol
_atom_site_label
_atom_site_fract_x
_atom_site_fract_y
_atom_site_fract_z
Si Si1 0.702215 0.809850 0.895277
Si Si2 0.888535 0.556551 0.750000
Si Si3 0.613055 0.241041 0.531992
Si Si4 0.114044 0.307783 0.750000
Si Si5 0.383376 0.965652 0.394330
O O1 0.814985 0.797846 0.916273
O O2 0.669018 0.778590 0.819659
O O3 0.670843 0.928125 0.903327
O O4 0.646175 0.746389 0.954157
O O5 0.888742 0.432379 0.750000
O O6 0.846960 0.583843 0.676837
O O7 0.000000 0.595336 0.750000
O O8 0.500000 0.267093 0.541321
O O9 0.625362 0.120332 0.549107
O O10 0.000000 0.274550 0.750000
O O11 0.500000 0.989010 0.387403
#
# Coordination Sequence:
#
# PCOD9470124 Si02
#       5
#    16   8  16   8  16
#     4  10  19  31  50  73  98 127 164 202 241 286
#     4   7  12  23  42  69  94 116 150 192 230 273
#     4  10  20  32  49  74 101 127 159 201 246 290
#     4   9  16  29  49  71  96 128 163 200 239 281
#     4   9  16  29  50  72  95 125 160 200 242 282
#
# _framework density 18.149518
#
# number of rings (size 3 to 8) (size 9 to 14) (size 15 to 20)
#    0.000    2.750    0.000    4.500    0.000    3.000 
#    0.000    1.875    0.000   15.000    0.000    0.000 
#    0.000    0.000    0.000    0.000    0.000    0.000 
#
# Total GULP energy -178163.280451 kJ/mol
# GULP energy per Si atom -5567.602514 kJ/mol
# Density = 1.810821 g / cm^3
# Si number density = 18.149518 Si / 1000 Ang^3
#
#
#
# Elastic Constant Matrix: (Units=GPa)
#
#
# Indices 1 2 3 4 5 6 
#
# 1 123.7834 24.4107 63.1101 0.0000 0.0000 0.0000
# 2 24.4107 26.0892 4.6626 0.0000 0.0000 0.0000
# 3 63.1101 4.6626 169.9886 0.0000 0.0000 0.0000
# 4 0.0000 0.0000 0.0000 14.1893 0.0000 0.0000
# 5 0.0000 0.0000 0.0000 0.0000 -23.6924 0.0000
# 6 0.0000 0.0000 0.0000 0.0000 0.0000 22.0815
#
#
#
# Elastic Compliance Matrix: (Units=1/GPa)
#
#
# Indices 1 2 3 4 5 6 
#
# 1 0.012416 -0.010847 -0.004312 0.000000 0.000000 0.000000
# 2 -0.010847 0.047994 0.002711 0.000000 0.000000 0.000000
# 3 -0.004312 0.002711 0.007409 0.000000 0.000000 0.000000
# 4 0.000000 0.000000 0.000000 0.070476 0.000000 0.000000
# 5 0.000000 0.000000 0.000000 0.000000 -0.042208 0.000000
# 6 0.000000 0.000000 0.000000 0.000000 0.000000 0.045287
#
#
# Mechanical properties :
#
#
# Convention : Reuss Voigt Hill
#
# Bulk Modulus (GPa) = 23.29733 56.02531 39.66132
# Shear Modulus (GPa) = 27.68871 17.69420 22.69146
#
# Velocity S-wave (km/s) = 3.91012 3.12575 3.53973
# Velocity P-wave (km/s) = 5.76624 6.63045 6.21339
#
# Compressibility (1/GPa) = 0.04292337
#
# Stress axis : x y z
#
# Youngs Moduli (GPa) = 80.54036 20.83575 134.96512
#
# Poissons Ratio (x) = 0.22600 0.58198
# Poissons Ratio (y) = 0.87359 -0.36582
# Poissons Ratio (z) = 0.34730 -0.05648
#
# Static dielectric constant tensor:
#      x y z
#    x 1.627610 0.000000 0.000000 
#    y 0.000000 1.602510 0.000000 
#    z 0.000000 0.000000 1.745540 
# 
# From -- ./inp_files/52322.got.cif
#   From: 2010.05.17/outbox.cif.g08.bks.cpg/sg63_27_cif.got.tgz:52322.got - 2010.06.03 15:47:04.
