data_PCOD9470589
_publ_section_title
;
Structure prediction by ZEFSAII (Michael W. Deem and Ramdas Pophale) SiO2 
 PCOD9470589
Probable space group: C M C M
;
_chemical_formula_sum "Si O2"
_cell_formula_units_Z 88
_cell_length_a 17.109218
_cell_length_b 29.979002
_cell_length_c 7.550391
_cell_angle_alpha 90.000000
_cell_angle_beta 90.000000
_cell_angle_gamma 90.000000
_cell_volume 3872.726019
_symmetry_space_group_name_H-M "C M C M"
_symmetry_group_IT_number 63
_symmetry_cell_setting 'orthorhombic'
loop_
_space_group_symop_operation_xyz
x,y,z
-x,-y,1/2+z
x,-y,-z
-x,y,1/2-z
-x,-y,-z
x,y,1/2-z
-x,y,z
x,-y,1/2+z
1/2+x,1/2+y,z
1/2-x,1/2-y,1/2+z
1/2+x,1/2-y,-z
1/2-x,1/2+y,1/2-z
1/2-x,1/2-y,-z
1/2+x,1/2+y,1/2-z
1/2-x,1/2+y,z
1/2+x,1/2-y,1/2+z
loop_
_atom_site_type_symbol
_atom_site_label
_atom_site_fract_x
_atom_site_fract_y
_atom_site_fract_z
Si Si1 0.327066 0.448209 0.951345
Si Si2 0.000000 0.551939 0.538754
Si Si3 0.162586 0.594486 0.964700
Si Si4 0.409683 0.639051 0.467269
Si Si5 0.087237 0.317861 0.465923
Si Si6 0.334853 0.270197 0.537961
O O1 0.352433 0.447864 0.750000
O O2 0.378039 0.408489 0.036407
O O3 0.332758 0.500000 0.000000
O O4 0.237951 0.431128 0.966917
O O5 0.000000 0.500000 0.500000
O O6 0.081609 0.572086 0.474272
O O7 0.000000 0.560139 0.750000
O O8 0.166605 0.592466 0.750000
O O9 0.152422 0.646111 0.019793
O O10 0.406173 0.638952 0.250000
O O11 0.500000 0.646113 0.515006
O O12 0.356492 0.680665 0.528793
O O13 0.087571 0.318145 0.250000
O O14 0.105996 0.268154 0.526283
O O15 0.000000 0.331746 0.520072
O O16 0.342624 0.272258 0.750000
O O17 0.250000 0.250000 0.500000
#
# Coordination Sequence:
#
# PCOD9470589 Si02
#       6
#    16   8  16  16  16  16
#     4  11  23  38  57  80 107 140 182 233 286 337
#     4  10  20  32  48  70 100 140 182 224 265 310
#     4  10  19  34  54  78 110 144 181 225 272 324
#     4   9  19  37  59  83 111 145 187 232 275 326
#     4   9  16  29  52  80 107 139 180 219 255 306
#     4  10  19  32  55  84 113 145 179 217 265 322
#
# _framework density 22.723013000000002
#
# number of rings (size 3 to 8) (size 9 to 14) (size 15 to 20)
#    0.000    2.182    0.909    2.727    0.000    4.727 
#    0.000    0.909    0.000    7.091    0.000    0.000 
#    0.000    0.000    0.000    0.000    0.000    0.000 
#
# Total GULP energy -245684.051568 kJ/mol
# GULP energy per Si atom -5583.728445 kJ/mol
# Density = 2.267129 g / cm^3
# Si number density = 22.723013 Si / 1000 Ang^3
#
#
#
# Elastic Constant Matrix: (Units=GPa)
#
#
# Indices 1 2 3 4 5 6 
#
# 1 104.3945 76.3806 -12.0452 0.0000 0.0000 0.0000
# 2 76.3806 224.8828 13.6786 0.0000 0.0000 0.0000
# 3 -12.0452 13.6786 45.4747 0.0000 0.0000 0.0000
# 4 0.0000 0.0000 0.0000 -6.9014 0.0000 0.0000
# 5 0.0000 0.0000 0.0000 0.0000 9.6571 0.0000
# 6 0.0000 0.0000 0.0000 0.0000 0.0000 35.7115
#
#
#
# Elastic Compliance Matrix: (Units=1/GPa)
#
#
# Indices 1 2 3 4 5 6 
#
# 1 0.013848 -0.005018 0.005178 0.000000 0.000000 0.000000
# 2 -0.005018 0.006348 -0.003239 0.000000 0.000000 0.000000
# 3 0.005178 -0.003239 0.024336 0.000000 0.000000 0.000000
# 4 0.000000 0.000000 0.000000 -0.144898 0.000000 0.000000
# 5 0.000000 0.000000 0.000000 0.000000 0.103551 0.000000
# 6 0.000000 0.000000 0.000000 0.000000 0.000000 0.028002
#
#
# Mechanical properties :
#
#
# Convention : Reuss Voigt Hill
#
# Bulk Modulus (GPa) = 26.05994 58.97556 42.51775
# Shear Modulus (GPa) = 99.72510 27.47597 63.60054
#
# Velocity S-wave (km/s) = 6.63193 3.48108 5.29625
# Velocity P-wave (km/s) = 8.37477 6.49367 7.49348
#
# Compressibility (1/GPa) = 0.03837307
#
# Stress axis : x y z
#
# Youngs Moduli (GPa) = 72.21168 157.52389 41.09159
#
# Poissons Ratio (x) = 0.79052 -0.21275
# Poissons Ratio (y) = 0.36239 0.13309
# Poissons Ratio (z) = -0.37388 0.51019
#
# Static dielectric constant tensor:
#      x y z
#    x 1.814970 0.000000 0.000000 
#    y 0.000000 1.882010 0.000000 
#    z 0.000000 0.000000 1.867890 
# 
# From -- ./inp_files/6785.got.cif
#   From: 2010.05.17/outbox.cif.g08.bks.cpg/sg63_4_cif.got.tgz:6785.got - 2010.06.03 15:47:04.
