data_PCOD9470919
_publ_section_title
;
Structure prediction by ZEFSAII (Michael W. Deem and Ramdas Pophale) SiO2 
 PCOD9470919
Probable space group: C M C M
;
_chemical_formula_sum "Si O2"
_cell_formula_units_Z 104
_cell_length_a 22.059498
_cell_length_b 29.056033
_cell_length_c 8.786893
_cell_angle_alpha 90.000000
_cell_angle_beta 90.000000
_cell_angle_gamma 90.000000
_cell_volume 5632.060134
_symmetry_space_group_name_H-M "C M C M"
_symmetry_group_IT_number 63
_symmetry_cell_setting 'orthorhombic'
loop_
_space_group_symop_operation_xyz
x,y,z
-x,-y,1/2+z
x,-y,-z
-x,y,1/2-z
-x,-y,-z
x,y,1/2-z
-x,y,z
x,-y,1/2+z
1/2+x,1/2+y,z
1/2-x,1/2-y,1/2+z
1/2+x,1/2-y,-z
1/2-x,1/2+y,1/2-z
1/2-x,1/2-y,-z
1/2+x,1/2+y,1/2-z
1/2-x,1/2+y,z
1/2+x,1/2-y,1/2+z
loop_
_atom_site_type_symbol
_atom_site_label
_atom_site_fract_x
_atom_site_fract_y
_atom_site_fract_z
Si Si1 0.878275 0.097807 0.566763
Si Si2 0.317927 0.798199 0.573203
Si Si3 0.759702 0.050060 0.431734
Si Si4 0.344309 0.112239 0.925270
Si Si5 0.927688 0.546566 0.422311
Si Si6 0.185777 0.806529 0.430347
Si Si7 0.000000 0.947653 0.566452
O O1 0.882486 0.093511 0.750000
O O2 0.822951 0.067158 0.503715
O O3 0.858442 0.150963 0.532406
O O4 0.940353 0.079589 0.492565
O O5 0.326107 0.809712 0.750000
O O6 0.350432 0.834810 0.468149
O O7 0.247188 0.805382 0.528713
O O8 0.338166 0.745501 0.550516
O O9 0.764375 0.047536 0.250000
O O10 0.708684 0.086985 0.479750
O O11 0.744826 0.000000 0.500000
O O12 0.329321 0.106070 0.750000
O O13 0.405441 0.087298 0.972949
O O14 0.905117 0.500000 0.500000
O O15 0.904435 0.550880 0.250000
O O16 0.000000 0.544756 0.416027
O O17 0.202060 0.811532 0.250000
O O18 0.000000 0.949924 0.750000
O O19 0.000000 0.000000 0.500000
#
# Coordination Sequence:
#
# PCOD9470919 Si02
#       7
#    16  16  16  16  16  16   8
#     4  11  22  40  63  88 118 153 195 243 298 355
#     4  10  19  33  56  87 119 151 190 233 282 341
#     4  12  24  38  56  83 117 153 190 236 289 346
#     4  12  23  36  55  83 117 153 190 236 286 338
#     4  10  21  38  59  82 110 147 190 233 279 338
#     4   9  19  35  58  86 117 150 187 232 286 345
#     4  12  26  44  64  88 118 158 206 252 301 360
#
# _framework density 18.465712
#
# number of rings (size 3 to 8) (size 9 to 14) (size 15 to 20)
#    0.000    1.231    1.538    5.769    0.000    2.154 
#    0.000    0.000    1.692    0.000    0.000    0.000 
#    0.000    0.000    0.000    0.000    0.000    0.000 
#
# Total GULP energy -290400.646210 kJ/mol
# GULP energy per Si atom -5584.627812 kJ/mol
# Density = 1.842368 g / cm^3
# Si number density = 18.465712 Si / 1000 Ang^3
#
#
#
# Elastic Constant Matrix: (Units=GPa)
#
#
# Indices 1 2 3 4 5 6 
#
# 1 56.5834 35.4519 28.4288 0.0000 0.0000 0.0000
# 2 35.4519 106.0590 54.1879 0.0000 0.0000 0.0000
# 3 28.4288 54.1879 108.4823 0.0000 0.0000 0.0000
# 4 0.0000 0.0000 0.0000 31.9369 0.0000 0.0000
# 5 0.0000 0.0000 0.0000 0.0000 27.3749 0.0000
# 6 0.0000 0.0000 0.0000 0.0000 0.0000 28.0901
#
#
#
# Elastic Compliance Matrix: (Units=1/GPa)
#
#
# Indices 1 2 3 4 5 6 
#
# 1 0.023033 -0.006197 -0.002941 0.000000 0.000000 0.000000
# 2 -0.006197 0.014327 -0.005532 0.000000 0.000000 0.000000
# 3 -0.002941 -0.005532 0.012752 0.000000 0.000000 0.000000
# 4 0.000000 0.000000 0.000000 0.031312 0.000000 0.000000
# 5 0.000000 0.000000 0.000000 0.000000 0.036530 0.000000
# 6 0.000000 0.000000 0.000000 0.000000 0.000000 0.035600
#
#
# Mechanical properties :
#
#
# Convention : Reuss Voigt Hill
#
# Bulk Modulus (GPa) = 48.14101 56.36242 52.25172
# Shear Modulus (GPa) = 26.34118 27.68413 27.01265
#
# Velocity S-wave (km/s) = 3.78099 3.87617 3.82888
# Velocity P-wave (km/s) = 6.72222 7.11491 6.92135
#
# Compressibility (1/GPa) = 0.02077231
#
# Stress axis : x y z
#
# Youngs Moduli (GPa) = 43.41602 69.79991 78.41767
#
# Poissons Ratio (x) = 0.43253 0.23060
# Poissons Ratio (y) = 0.26903 0.43384
# Poissons Ratio (z) = 0.12767 0.38616
#
# Static dielectric constant tensor:
#      x y z
#    x 1.634110 0.000000 0.000000 
#    y 0.000000 1.643380 0.000000 
#    z 0.000000 0.000000 1.626960 
# 
# From -- ./inp_files/10849.got.cif
#   From: 2010.05.17/outbox.cif.g08.bks.cpg/sg63_6_cif.got.tgz:10849.got - 2010.06.03 15:47:04.
