data_PCOD9470508
_publ_section_title
;
Structure prediction by ZEFSAII (Michael W. Deem and Ramdas Pophale) SiO2 
 PCOD9470508
Probable space group: C M C M
;
_chemical_formula_sum "Si O2"
_cell_formula_units_Z 92
_cell_length_a 29.757655
_cell_length_b 23.860197
_cell_length_c 7.600222
_cell_angle_alpha 90.000000
_cell_angle_beta 90.000000
_cell_angle_gamma 90.000000
_cell_volume 5396.336305
_symmetry_space_group_name_H-M "C M C M"
_symmetry_group_IT_number 63
_symmetry_cell_setting 'orthorhombic'
loop_
_space_group_symop_operation_xyz
x,y,z
-x,-y,1/2+z
x,-y,-z
-x,y,1/2-z
-x,-y,-z
x,y,1/2-z
-x,y,z
x,-y,1/2+z
1/2+x,1/2+y,z
1/2-x,1/2-y,1/2+z
1/2+x,1/2-y,-z
1/2-x,1/2+y,1/2-z
1/2-x,1/2-y,-z
1/2+x,1/2+y,1/2-z
1/2-x,1/2+y,z
1/2+x,1/2-y,1/2+z
loop_
_atom_site_type_symbol
_atom_site_label
_atom_site_fract_x
_atom_site_fract_y
_atom_site_fract_z
Si Si1 0.078499 0.256321 0.456222
Si Si2 0.500000 0.565216 0.960228
Si Si3 0.680807 0.565498 0.958594
Si Si4 0.500000 0.227500 0.250000
Si Si5 0.590142 0.373503 0.465123
Si Si6 0.261433 0.667912 0.043715
Si Si7 0.823669 0.267017 0.454363
O O1 0.068928 0.271253 0.250000
O O2 0.087257 0.189365 0.465988
O O3 0.126726 0.280867 0.520394
O O4 0.039300 0.270013 0.593525
O O5 0.500000 0.572442 0.750000
O O6 0.454635 0.594270 0.024268
O O7 0.500000 0.500000 0.000000
O O8 0.679604 0.570548 0.750000
O O9 0.634283 0.592991 0.025417
O O10 0.684431 0.500000 0.000000
O O11 0.721135 0.605205 0.021067
O O12 0.590387 0.371115 0.250000
O O13 0.257530 0.680036 0.250000
O O14 0.298809 0.711655 0.968781
O O15 0.213203 0.684160 0.967075
O O16 0.831687 0.253997 0.250000
#
# Coordination Sequence:
#
# PCOD9470508 Si02
#       7
#    16   8  16   4  16  16  16
#     4  11  22  36  56  78 103 140 178 221 270 328
#     4  10  21  34  46  61  82 117 169 223 276 317
#     4  11  22  34  50  72 104 140 180 225 276 323
#     4  12  24  36  52  76 114 134 180 218 282 326
#     4  10  20  34  51  68  93 130 175 230 276 320
#     4  10  19  32  53  77 103 133 173 220 268 323
#     4   9  19  34  53  79 103 130 175 220 264 320
#
# _framework density 17.048604000000001
#
# number of rings (size 3 to 8) (size 9 to 14) (size 15 to 20)
#    0.000    1.739    2.609    2.348    2.435    2.087 
#    0.000    0.000    0.000    0.000    0.000    0.000 
#    0.000    0.000    0.000    0.783    5.565    2.261 
#
# Total GULP energy -256111.300707 kJ/mol
# GULP energy per Si atom -5567.636972 kJ/mol
# Density = 1.700980 g / cm^3
# Si number density = 17.048604 Si / 1000 Ang^3
#
#
#
# Elastic Constant Matrix: (Units=GPa)
#
#
# Indices 1 2 3 4 5 6 
#
# 1 159.7276 30.7021 34.3519 0.0000 0.0000 0.0000
# 2 30.7021 28.7730 -2.2770 0.0000 0.0000 0.0000
# 3 34.3519 -2.2770 76.4078 0.0000 0.0000 0.0000
# 4 0.0000 0.0000 0.0000 17.9929 0.0000 0.0000
# 5 0.0000 0.0000 0.0000 0.0000 16.4510 0.0000
# 6 0.0000 0.0000 0.0000 0.0000 0.0000 16.0205
#
#
#
# Elastic Compliance Matrix: (Units=1/GPa)
#
#
# Indices 1 2 3 4 5 6 
#
# 1 0.009156 -0.010119 -0.004418 0.000000 0.000000 0.000000
# 2 -0.010119 0.046021 0.005921 0.000000 0.000000 0.000000
# 3 -0.004418 0.005921 0.015250 0.000000 0.000000 0.000000
# 4 0.000000 0.000000 0.000000 0.055578 0.000000 0.000000
# 5 0.000000 0.000000 0.000000 0.000000 0.060786 0.000000
# 6 0.000000 0.000000 0.000000 0.000000 0.000000 0.062420
#
#
# Mechanical properties :
#
#
# Convention : Reuss Voigt Hill
#
# Bulk Modulus (GPa) = 18.79880 43.38470 31.09175
# Shear Modulus (GPa) = 17.59473 23.56830 20.58152
#
# Velocity S-wave (km/s) = 3.21601 3.72212 3.47829
# Velocity P-wave (km/s) = 4.98406 6.63138 5.86583
#
# Compressibility (1/GPa) = 0.05319489
#
# Stress axis : x y z
#
# Youngs Moduli (GPa) = 109.21907 21.72910 65.57218
#
# Poissons Ratio (x) = 0.21989 0.28969
# Poissons Ratio (y) = 1.10523 -0.38825
# Poissons Ratio (z) = 0.48252 -0.12866
#
# Static dielectric constant tensor:
#      x y z
#    x 1.625340 0.000000 0.000000 
#    y 0.000000 1.414870 0.000000 
#    z 0.000000 0.000000 1.612760 
# 
# From -- ./inp_files/12451.got.cif
#   From: 2010.05.17/outbox.cif.g08.bks.cpg/sg63_7_cif.got.tgz:12451.got - 2010.06.03 15:47:04.
