data_PCOD9470832
_publ_section_title
;
Structure prediction by ZEFSAII (Michael W. Deem and Ramdas Pophale) SiO2 
 PCOD9470832
Probable space group: C M C M
;
_chemical_formula_sum "Si O2"
_cell_formula_units_Z 104
_cell_length_a 21.360308
_cell_length_b 31.118247
_cell_length_c 8.111867
_cell_angle_alpha 90.000000
_cell_angle_beta 90.000000
_cell_angle_gamma 90.000000
_cell_volume 5391.920196
_symmetry_space_group_name_H-M "C M C M"
_symmetry_group_IT_number 63
_symmetry_cell_setting 'orthorhombic'
loop_
_space_group_symop_operation_xyz
x,y,z
-x,-y,1/2+z
x,-y,-z
-x,y,1/2-z
-x,-y,-z
x,y,1/2-z
-x,y,z
x,-y,1/2+z
1/2+x,1/2+y,z
1/2-x,1/2-y,1/2+z
1/2+x,1/2-y,-z
1/2-x,1/2+y,1/2-z
1/2-x,1/2-y,-z
1/2+x,1/2+y,1/2-z
1/2-x,1/2+y,z
1/2+x,1/2-y,1/2+z
loop_
_atom_site_type_symbol
_atom_site_label
_atom_site_fract_x
_atom_site_fract_y
_atom_site_fract_z
Si Si1 0.282130 0.870178 0.445391
Si Si2 0.500000 0.950207 0.551356
Si Si3 0.187320 0.276040 0.449705
Si Si4 0.637342 0.950451 0.946127
Si Si5 0.071612 0.954364 0.948389
Si Si6 0.361091 0.368797 0.949934
Si Si7 0.071121 0.781550 0.951327
O O1 0.290328 0.870782 0.250000
O O2 0.311344 0.825331 0.509516
O O3 0.312114 0.914390 0.509049
O O4 0.209137 0.866082 0.487048
O O5 0.500000 0.945807 0.750000
O O6 0.431708 0.935049 0.490470
O O7 0.500000 0.000000 0.500000
O O8 0.187119 0.276329 0.250000
O O9 0.250000 0.250000 0.500000
O O10 0.124484 0.251791 0.505629
O O11 0.633837 0.952335 0.750000
O O12 0.649487 0.000000 0.000000
O O13 0.069900 0.952768 0.750000
O O14 0.109084 0.913331 0.007711
O O15 0.000000 0.952516 0.009517
O O16 0.099276 0.000000 0.000000
O O17 0.359252 0.368690 0.750000
O O18 0.403759 0.328584 0.000209
O O19 0.070068 0.780662 0.750000
O O20 0.000000 0.773703 0.007298
#
# Coordination Sequence:
#
# PCOD9470832 Si02
#       7
#    16   8  16  16  16  16  16
#     4  11  23  36  52  81 115 147 184 225 270 326
#     4   8  16  32  56  82 106 138 180 222 270 324
#     4  10  20  36  58  82 110 146 186 230 278 332
#     4  10  20  37  60  84 112 145 183 227 275 329
#     4   9  18  32  50  74 103 134 173 218 267 320
#     4  10  19  33  55  78 101 139 185 228 274 325
#     4   9  17  32  57  84 106 134 181 236 284 333
#
# _framework density 19.288119999999999
#
# number of rings (size 3 to 8) (size 9 to 14) (size 15 to 20)
#    0.000    2.308    1.538    1.385    0.000    4.308 
#    1.385    1.538    0.000    2.769    0.000    0.000 
#    0.000    0.000    0.000    0.000    0.000    0.000 
#
# Total GULP energy -289936.218231 kJ/mol
# GULP energy per Si atom -5575.696504 kJ/mol
# Density = 1.924422 g / cm^3
# Si number density = 19.288120 Si / 1000 Ang^3
#
#
#
# Elastic Constant Matrix: (Units=GPa)
#
#
# Indices 1 2 3 4 5 6 
#
# 1 141.7824 84.7142 7.1621 0.0000 0.0000 0.0000
# 2 84.7142 164.3152 16.1582 0.0000 0.0000 0.0000
# 3 7.1621 16.1582 14.9822 0.0000 0.0000 0.0000
# 4 0.0000 0.0000 0.0000 15.9151 0.0000 0.0000
# 5 0.0000 0.0000 0.0000 0.0000 19.0686 0.0000
# 6 0.0000 0.0000 0.0000 0.0000 0.0000 38.3902
#
#
#
# Elastic Compliance Matrix: (Units=1/GPa)
#
#
# Indices 1 2 3 4 5 6 
#
# 1 0.010204 -0.005348 0.000890 0.000000 0.000000 0.000000
# 2 -0.005348 0.009611 -0.007809 0.000000 0.000000 0.000000
# 3 0.000890 -0.007809 0.074742 0.000000 0.000000 0.000000
# 4 0.000000 0.000000 0.000000 0.062833 0.000000 0.000000
# 5 0.000000 0.000000 0.000000 0.000000 0.052442 0.000000
# 6 0.000000 0.000000 0.000000 0.000000 0.000000 0.026048
#
#
# Mechanical properties :
#
#
# Convention : Reuss Voigt Hill
#
# Bulk Modulus (GPa) = 14.28094 59.68319 36.98207
# Shear Modulus (GPa) = 17.62082 28.87781 23.24931
#
# Velocity S-wave (km/s) = 3.02579 3.87354 3.47561
# Velocity P-wave (km/s) = 4.43027 7.14254 5.94320
#
# Compressibility (1/GPa) = 0.07002339
#
# Stress axis : x y z
#
# Youngs Moduli (GPa) = 98.00523 104.04739 13.37930
#
# Poissons Ratio (x) = 0.55645 -0.01191
# Poissons Ratio (y) = 0.52414 0.10448
# Poissons Ratio (z) = -0.08724 0.81249
#
# Static dielectric constant tensor:
#      x y z
#    x 1.680580 0.000000 0.000000 
#    y 0.000000 1.671520 0.000000 
#    z 0.000000 0.000000 1.700710 
# 
# From -- ./inp_files/9081.got.cif
#   From: 2010.05.17/outbox.cif.g08.bks.cpg/sg63_5_cif.got.tgz:9081.got - 2010.06.03 15:47:04.
