data_PCOD9470229
_publ_section_title
;
Structure prediction by ZEFSAII (Michael W. Deem and Ramdas Pophale) SiO2 
 PCOD9470229
Probable space group: C M C M
;
_chemical_formula_sum "Si O2"
_cell_formula_units_Z 96
_cell_length_a 16.074995
_cell_length_b 20.070407
_cell_length_c 14.212898
_cell_angle_alpha 90.000000
_cell_angle_beta 90.000000
_cell_angle_gamma 90.000000
_cell_volume 4585.531332
_symmetry_space_group_name_H-M "C M C M"
_symmetry_group_IT_number 63
_symmetry_cell_setting 'orthorhombic'
loop_
_space_group_symop_operation_xyz
x,y,z
-x,-y,1/2+z
x,-y,-z
-x,y,1/2-z
-x,-y,-z
x,y,1/2-z
-x,y,z
x,-y,1/2+z
1/2+x,1/2+y,z
1/2-x,1/2-y,1/2+z
1/2+x,1/2-y,-z
1/2-x,1/2+y,1/2-z
1/2-x,1/2-y,-z
1/2+x,1/2+y,1/2-z
1/2-x,1/2+y,z
1/2+x,1/2-y,1/2+z
loop_
_atom_site_type_symbol
_atom_site_label
_atom_site_fract_x
_atom_site_fract_y
_atom_site_fract_z
Si Si1 0.688813 0.150703 0.495079
Si Si2 0.735057 0.262866 0.138433
Si Si3 0.591319 0.464623 0.900385
Si Si4 0.593585 0.083980 0.854466
Si Si5 0.273014 0.034226 0.147922
Si Si6 0.409306 0.312890 0.861034
O O1 0.679307 0.209836 0.418872
O O2 0.757877 0.171670 0.573467
O O3 0.610204 0.132891 0.559483
O O4 0.713097 0.085988 0.435536
O O5 0.717988 0.270809 0.250000
O O6 0.828102 0.231582 0.126604
O O7 0.500000 0.476890 0.856314
O O8 0.676939 0.487575 0.853221
O O9 0.598417 0.384473 0.909902
O O10 0.590381 0.500000 0.000000
O O11 0.603058 0.116153 0.750000
O O12 0.500000 0.056826 0.859236
O O13 0.662412 0.026189 0.860558
O O14 0.288002 0.067429 0.250000
O O15 0.410256 0.329065 0.750000
O O16 0.500000 0.283087 0.884590
#
# Coordination Sequence:
#
# PCOD9470229 Si02
#       6
#    16  16  16  16  16  16
#     4  11  21  35  59  84 114 156 201 252 308 361
#     4  10  21  36  55  84 118 155 203 255 307 364
#     4  10  19  31  52  83 115 148 189 237 294 360
#     4  10  23  42  63  90 123 158 203 260 318 375
#     4  11  22  37  59  87 122 162 205 253 306 362
#     4   9  17  31  52  78 110 147 188 238 292 349
#
# _framework density 20.935414999999999
#
# number of rings (size 3 to 8) (size 9 to 14) (size 15 to 20)
#    0.000    1.833    1.667    3.000    0.000    3.000 
#    0.000    1.667    0.000    1.500    0.000    0.000 
#    0.000    1.333    0.000    0.000    0.000    0.000 
#
# Total GULP energy -267706.785030 kJ/mol
# GULP energy per Si atom -5577.224688 kJ/mol
# Density = 2.088777 g / cm^3
# Si number density = 20.935415 Si / 1000 Ang^3
#
#
#
# Elastic Constant Matrix: (Units=GPa)
#
#
# Indices 1 2 3 4 5 6 
#
# 1 116.4032 30.9620 35.7604 0.0000 0.0000 0.0000
# 2 30.9620 51.4855 49.0716 0.0000 0.0000 0.0000
# 3 35.7604 49.0716 167.6417 0.0000 0.0000 0.0000
# 4 0.0000 0.0000 0.0000 21.1730 0.0000 0.0000
# 5 0.0000 0.0000 0.0000 0.0000 25.8831 0.0000
# 6 0.0000 0.0000 0.0000 0.0000 0.0000 20.3510
#
#
#
# Elastic Compliance Matrix: (Units=1/GPa)
#
#
# Indices 1 2 3 4 5 6 
#
# 1 0.010261 -0.005665 -0.000531 0.000000 0.000000 0.000000
# 2 -0.005665 0.030066 -0.007592 0.000000 0.000000 0.000000
# 3 -0.000531 -0.007592 0.008301 0.000000 0.000000 0.000000
# 4 0.000000 0.000000 0.000000 0.047230 0.000000 0.000000
# 5 0.000000 0.000000 0.000000 0.000000 0.038635 0.000000
# 6 0.000000 0.000000 0.000000 0.000000 0.000000 0.049138
#
#
# Mechanical properties :
#
#
# Convention : Reuss Voigt Hill
#
# Bulk Modulus (GPa) = 47.50187 63.01316 55.25751
# Shear Modulus (GPa) = 22.91231 28.13050 25.52141
#
# Velocity S-wave (km/s) = 3.31180 3.66960 3.49528
# Velocity P-wave (km/s) = 6.11253 6.93677 6.53765
#
# Compressibility (1/GPa) = 0.02105180
#
# Stress axis : x y z
#
# Youngs Moduli (GPa) = 97.46035 33.26006 120.47137
#
# Poissons Ratio (x) = 0.18841 0.06392
# Poissons Ratio (y) = 0.55209 0.91468
# Poissons Ratio (z) = 0.05171 0.25253
#
# Static dielectric constant tensor:
#      x y z
#    x 1.787070 0.000000 0.000000 
#    y 0.000000 1.789040 0.000000 
#    z 0.000000 0.000000 1.787330 
# 
# From -- ./inp_files/31934.got.cif
#   From: 2010.05.17/outbox.cif.g08.bks.cpg/sg63_16_cif.got.tgz:31934.got - 2010.06.03 15:47:04.
