data_PCOD9470514
_publ_section_title
;
Structure prediction by ZEFSAII (Michael W. Deem and Ramdas Pophale) SiO2 
 PCOD9470514
Probable space group: C M C M
;
_chemical_formula_sum "Si O2"
_cell_formula_units_Z 96
_cell_length_a 7.385323
_cell_length_b 20.868290
_cell_length_c 28.915926
_cell_angle_alpha 90.000000
_cell_angle_beta 90.000000
_cell_angle_gamma 90.000000
_cell_volume 4456.495395
_symmetry_space_group_name_H-M "C M C M"
_symmetry_group_IT_number 63
_symmetry_cell_setting 'orthorhombic'
loop_
_space_group_symop_operation_xyz
x,y,z
-x,-y,1/2+z
x,-y,-z
-x,y,1/2-z
-x,-y,-z
x,y,1/2-z
-x,y,z
x,-y,1/2+z
1/2+x,1/2+y,z
1/2-x,1/2-y,1/2+z
1/2+x,1/2-y,-z
1/2-x,1/2+y,1/2-z
1/2-x,1/2-y,-z
1/2+x,1/2+y,1/2-z
1/2-x,1/2+y,z
1/2+x,1/2-y,1/2+z
loop_
_atom_site_type_symbol
_atom_site_label
_atom_site_fract_x
_atom_site_fract_y
_atom_site_fract_z
Si Si1 0.721698 0.233748 0.851172
Si Si2 0.720710 0.195614 0.750000
Si Si3 0.779316 0.453323 0.250000
Si Si4 0.218332 0.608978 0.908651
Si Si5 0.711425 0.570868 0.490429
Si Si6 0.719188 0.989113 0.847461
Si Si7 0.709577 0.638195 0.100358
O O1 0.500000 0.234303 0.850513
O O2 0.779091 0.228201 0.797780
O O3 0.777079 0.170147 0.879015
O O4 0.786020 0.297416 0.877217
O O5 0.500000 0.195679 0.750000
O O6 0.776319 0.120968 0.750000
O O7 0.722010 0.488715 0.296687
O O8 0.000000 0.452783 0.250000
O O9 0.275924 0.609160 0.961790
O O10 0.278919 0.543246 0.884105
O O11 0.000000 0.608646 0.907877
O O12 0.790366 0.500000 0.500000
O O13 0.500000 0.560314 0.478810
O O14 0.790280 0.609424 0.447020
O O15 0.500000 0.988307 0.847898
O O16 0.782718 0.919717 0.863178
O O17 0.500000 0.653764 0.090026
#
# Coordination Sequence:
#
# PCOD9470514 Si02
#       7
#    16   8   8  16  16  16  16
#     4   9  18  32  51  77 105 132 168 215 258 302
#     4   9  14  27  52  77 101 130 165 206 260 308
#     4   9  16  29  51  79 105 130 163 208 260 310
#     4  10  19  32  54  80 100 125 172 223 252 288
#     4  10  20  34  51  72 104 145 174 201 259 322
#     4  10  19  32  53  79 103 129 167 212 254 299
#     4  10  21  36  52  74 107 140 172 211 257 309
#
# _framework density 21.541592000000001
#
# number of rings (size 3 to 8) (size 9 to 14) (size 15 to 20)
#    0.000    2.333    3.333    0.000    0.000    2.333 
#    0.000    2.083    0.000    0.000    0.000    1.750 
#    0.000    0.000    0.000    0.000    0.000    0.000 
#
# Total GULP energy -268155.000554 kJ/mol
# GULP energy per Si atom -5586.562512 kJ/mol
# Density = 2.149256 g / cm^3
# Si number density = 21.541592 Si / 1000 Ang^3
#
#
#
# Elastic Constant Matrix: (Units=GPa)
#
#
# Indices 1 2 3 4 5 6 
#
# 1 72.0034 -5.3365 -6.0933 0.0000 0.0000 0.0000
# 2 -5.3365 117.2291 42.3027 0.0000 0.0000 0.0000
# 3 -6.0933 42.3027 145.4431 0.0000 0.0000 0.0000
# 4 0.0000 0.0000 0.0000 33.7142 0.0000 0.0000
# 5 0.0000 0.0000 0.0000 0.0000 21.6027 0.0000
# 6 0.0000 0.0000 0.0000 0.0000 0.0000 27.2696
#
#
#
# Elastic Compliance Matrix: (Units=1/GPa)
#
#
# Indices 1 2 3 4 5 6 
#
# 1 0.013961 0.000474 0.000447 0.000000 0.000000 0.000000
# 2 0.000474 0.009547 -0.002757 0.000000 0.000000 0.000000
# 3 0.000447 -0.002757 0.007696 0.000000 0.000000 0.000000
# 4 0.000000 0.000000 0.000000 0.029661 0.000000 0.000000
# 5 0.000000 0.000000 0.000000 0.000000 0.046290 0.000000
# 6 0.000000 0.000000 0.000000 0.000000 0.000000 0.036671
#
#
# Mechanical properties :
#
#
# Convention : Reuss Voigt Hill
#
# Bulk Modulus (GPa) = 36.32032 44.04681 40.18357
# Shear Modulus (GPa) = 31.91313 36.77081 34.34197
#
# Velocity S-wave (km/s) = 3.85316 4.13603 3.99710
# Velocity P-wave (km/s) = 6.05747 6.58033 6.32430
#
# Compressibility (1/GPa) = 0.02753280
#
# Stress axis : x y z
#
# Youngs Moduli (GPa) = 71.62706 104.74809 129.93591
#
# Poissons Ratio (x) = -0.04968 -0.05808
# Poissons Ratio (y) = -0.03397 0.35821
# Poissons Ratio (z) = -0.03201 0.28877
#
# Static dielectric constant tensor:
#      x y z
#    x 1.820560 0.000000 0.000000 
#    y 0.000000 1.736920 0.000000 
#    z 0.000000 0.000000 1.756380 
# 
# From -- ./inp_files/61546.got.cif
#   From: 2010.05.17/outbox.cif.g08.bks.cpg/sg63_31_cif.got.tgz:61546.got - 2010.06.03 15:47:04.
