data_PCOD9470009
_publ_section_title
;
Structure prediction by ZEFSAII (Michael W. Deem and Ramdas Pophale) SiO2 
 PCOD9470009
Probable space group: C M C M
;
_chemical_formula_sum "Si O2"
_cell_formula_units_Z 112
_cell_length_a 16.051754
_cell_length_b 23.934427
_cell_length_c 14.384209
_cell_angle_alpha 90.000000
_cell_angle_beta 90.000000
_cell_angle_gamma 90.000000
_cell_volume 5526.262557
_symmetry_space_group_name_H-M "C M C M"
_symmetry_group_IT_number 63
_symmetry_cell_setting 'orthorhombic'
loop_
_space_group_symop_operation_xyz
x,y,z
-x,-y,1/2+z
x,-y,-z
-x,y,1/2-z
-x,-y,-z
x,y,1/2-z
-x,y,z
x,-y,1/2+z
1/2+x,1/2+y,z
1/2-x,1/2-y,1/2+z
1/2+x,1/2-y,-z
1/2-x,1/2+y,1/2-z
1/2-x,1/2-y,-z
1/2+x,1/2+y,1/2-z
1/2-x,1/2+y,z
1/2+x,1/2-y,1/2+z
loop_
_atom_site_type_symbol
_atom_site_label
_atom_site_fract_x
_atom_site_fract_y
_atom_site_fract_z
Si Si1 0.092357 0.509811 0.889720
Si Si2 0.732394 0.436348 0.351519
Si Si3 0.230690 0.302666 0.639890
Si Si4 0.406453 0.473672 0.897643
Si Si5 0.909821 0.209797 0.643335
Si Si6 0.654319 0.636527 0.488353
Si Si7 0.411224 0.881366 0.855499
O O1 0.172447 0.543582 0.858681
O O2 0.097757 0.447428 0.850335
O O3 0.000000 0.532813 0.867137
O O4 0.096538 0.500000 0.000000
O O5 0.720798 0.409023 0.250000
O O6 0.668088 0.489204 0.354540
O O7 0.714390 0.397806 0.440796
O O8 0.252440 0.307946 0.750000
O O9 0.171006 0.248948 0.630413
O O10 0.307765 0.312528 0.571837
O O11 0.170351 0.353099 0.606429
O O12 0.500000 0.477960 0.856357
O O13 0.381152 0.409356 0.916175
O O14 0.412816 0.500000 0.000000
O O15 0.906780 0.188999 0.750000
O O16 0.907313 0.162781 0.564646
O O17 0.000000 0.239833 0.635170
O O18 0.415422 0.858933 0.750000
O O19 0.500000 0.870385 0.903101
#
# Coordination Sequence:
#
# PCOD9470009 Si02
#       7
#    16  16  16  16  16  16  16
#     4  10  19  31  48  71 101 139 183 229 275 327
#     4  11  22  35  53  79 114 154 192 231 278 333
#     4  10  20  34  55  81 108 140 178 225 280 335
#     4   9  19  35  54  77 109 148 189 232 276 325
#     4  10  21  38  60  84 108 137 180 234 289 343
#     4  11  21  36  56  82 114 146 183 230 285 341
#     4   9  16  27  45  69  97 129 168 215 264 313
#
# _framework density 20.266862
#
# number of rings (size 3 to 8) (size 9 to 14) (size 15 to 20)
#    0.000    2.000    0.000    5.143    0.000    5.143 
#    0.000    0.714    0.000    1.286    0.000    0.000 
#    0.000    0.000    0.000    0.000    0.000    0.000 
#
# Total GULP energy -311880.611048 kJ/mol
# GULP energy per Si atom -5569.296626 kJ/mol
# Density = 2.022073 g / cm^3
# Si number density = 20.266862 Si / 1000 Ang^3
#
#
#
# Elastic Constant Matrix: (Units=GPa)
#
#
# Indices 1 2 3 4 5 6 
#
# 1 105.7328 19.0789 25.6717 0.0000 0.0000 0.0000
# 2 19.0789 38.0941 12.9683 0.0000 0.0000 0.0000
# 3 25.6717 12.9683 89.7629 0.0000 0.0000 0.0000
# 4 0.0000 0.0000 0.0000 24.9162 0.0000 0.0000
# 5 0.0000 0.0000 0.0000 0.0000 4.4545 0.0000
# 6 0.0000 0.0000 0.0000 0.0000 0.0000 21.4478
#
#
#
# Elastic Compliance Matrix: (Units=1/GPa)
#
#
# Indices 1 2 3 4 5 6 
#
# 1 0.010885 -0.004619 -0.002446 0.000000 0.000000 0.000000
# 2 -0.004619 0.029569 -0.002951 0.000000 0.000000 0.000000
# 3 -0.002446 -0.002951 0.012266 0.000000 0.000000 0.000000
# 4 0.000000 0.000000 0.000000 0.040134 0.000000 0.000000
# 5 0.000000 0.000000 0.000000 0.000000 0.224492 0.000000
# 6 0.000000 0.000000 0.000000 0.000000 0.000000 0.046625
#
#
# Mechanical properties :
#
#
# Convention : Reuss Voigt Hill
#
# Bulk Modulus (GPa) = 30.59158 38.78085 34.68621
# Shear Modulus (GPa) = 12.66147 21.88843 17.27495
#
# Velocity S-wave (km/s) = 2.50219 3.28992 2.92271
# Velocity P-wave (km/s) = 4.84511 5.79725 5.34243
#
# Compressibility (1/GPa) = 0.03268874
#
# Stress axis : x y z
#
# Youngs Moduli (GPa) = 91.86863 33.81956 81.52451
#
# Poissons Ratio (x) = 0.15621 0.19939
# Poissons Ratio (y) = 0.42434 0.24057
# Poissons Ratio (z) = 0.22469 0.09980
#
# Static dielectric constant tensor:
#      x y z
#    x 1.122050 0.000000 0.000000 
#    y 0.000000 1.744580 0.000000 
#    z 0.000000 0.000000 1.715310 
# 
# From -- ./inp_files/32253.got.cif
#   From: 2010.05.17/outbox.cif.g08.bks.cpg/sg63_17_cif.got.tgz:32253.got - 2010.06.03 15:47:04.
