data_PCOD9470357
_publ_section_title
;
Structure prediction by ZEFSAII (Michael W. Deem and Ramdas Pophale) SiO2 
 PCOD9470357
Probable space group: C M C M
;
_chemical_formula_sum "Si O2"
_cell_formula_units_Z 120
_cell_length_a 15.227931
_cell_length_b 28.577023
_cell_length_c 13.492127
_cell_angle_alpha 90.000000
_cell_angle_beta 90.000000
_cell_angle_gamma 90.000000
_cell_volume 5871.354530
_symmetry_space_group_name_H-M "C M C M"
_symmetry_group_IT_number 63
_symmetry_cell_setting 'orthorhombic'
loop_
_space_group_symop_operation_xyz
x,y,z
-x,-y,1/2+z
x,-y,-z
-x,y,1/2-z
-x,-y,-z
x,y,1/2-z
-x,y,z
x,-y,1/2+z
1/2+x,1/2+y,z
1/2-x,1/2-y,1/2+z
1/2+x,1/2-y,-z
1/2-x,1/2+y,1/2-z
1/2-x,1/2-y,-z
1/2+x,1/2+y,1/2-z
1/2-x,1/2+y,z
1/2+x,1/2-y,1/2+z
loop_
_atom_site_type_symbol
_atom_site_label
_atom_site_fract_x
_atom_site_fract_y
_atom_site_fract_z
Si Si1 0.315334 0.594808 0.557337
Si Si2 0.602044 0.320649 0.357459
Si Si3 0.894790 0.227416 0.057256
Si Si4 0.745839 0.500000 0.000000
Si Si5 0.625154 0.900645 0.139768
Si Si6 0.729742 0.347398 0.862419
Si Si7 0.596416 0.173869 0.021812
Si Si8 0.597757 0.987635 0.635794
O O1 0.389179 0.625242 0.610222
O O2 0.314608 0.539065 0.549390
O O3 0.229123 0.604196 0.623433
O O4 0.303388 0.616312 0.446889
O O5 0.643020 0.312415 0.250000
O O6 0.500000 0.308621 0.351508
O O7 0.637055 0.290516 0.448579
O O8 0.835728 0.197146 0.130526
O O9 0.882678 0.282886 0.051711
O O10 0.000000 0.217931 0.069628
O O11 0.816310 0.474315 0.926870
O O12 0.600506 0.884301 0.250000
O O13 0.590468 0.871390 0.047909
O O14 0.600752 0.955498 0.133931
O O15 0.730911 0.365337 0.750000
O O16 0.826885 0.332645 0.898862
O O17 0.500000 0.183383 0.066279
O O18 0.606441 0.972911 0.750000
O O19 0.500000 0.972724 0.600921
#
# Coordination Sequence:
#
# PCOD9470357 Si02
#       8
#    16  16  16   8  16  16  16  16
#     4   9  19  34  51  74  98 126 164 203 244 297
#     4   9  17  32  55  78  99 124 155 198 252 302
#     4   9  19  35  54  78 103 128 168 215 252 292
#     4  10  19  32  51  70  94 126 156 198 249 290
#     4   9  17  30  49  72 101 135 167 203 248 291
#     4  10  21  36  51  69 101 142 174 203 245 296
#     4  10  20  33  50  75 106 137 172 210 244 287
#     4   9  17  29  46  69  95 125 164 204 240 282
#
# _framework density 20.438215
#
# number of rings (size 3 to 8) (size 9 to 14) (size 15 to 20)
#    0.000    2.667    0.000    1.400    0.000    3.467 
#    0.000    3.667    0.000    0.000    0.000    0.000 
#    0.000    0.000    0.000    0.000    0.000    0.000 
#
# Total GULP energy -334360.855435 kJ/mol
# GULP energy per Si atom -5572.680924 kJ/mol
# Density = 2.039170 g / cm^3
# Si number density = 20.438215 Si / 1000 Ang^3
#
#
#
# Elastic Constant Matrix: (Units=GPa)
#
#
# Indices 1 2 3 4 5 6 
#
# 1 32.6907 -3.9527 9.5415 0.0000 0.0000 0.0000
# 2 -3.9527 28.3736 -11.0466 0.0000 0.0000 0.0000
# 3 9.5415 -11.0466 83.8709 0.0000 0.0000 0.0000
# 4 0.0000 0.0000 0.0000 12.0922 0.0000 0.0000
# 5 0.0000 0.0000 0.0000 0.0000 5.0373 0.0000
# 6 0.0000 0.0000 0.0000 0.0000 0.0000 17.0600
#
#
#
# Elastic Compliance Matrix: (Units=1/GPa)
#
#
# Indices 1 2 3 4 5 6 
#
# 1 0.031913 0.003196 -0.003210 0.000000 0.000000 0.000000
# 2 0.003196 0.037469 0.004571 0.000000 0.000000 0.000000
# 3 -0.003210 0.004571 0.012890 0.000000 0.000000 0.000000
# 4 0.000000 0.000000 0.000000 0.082698 0.000000 0.000000
# 5 0.000000 0.000000 0.000000 0.000000 0.198518 0.000000
# 6 0.000000 0.000000 0.000000 0.000000 0.000000 0.058617
#
#
# Mechanical properties :
#
#
# Convention : Reuss Voigt Hill
#
# Bulk Modulus (GPa) = 10.94229 14.89106 12.91668
# Shear Modulus (GPa) = 11.27518 16.86411 14.06964
#
# Velocity S-wave (km/s) = 2.35132 2.87562 2.62658
# Velocity P-wave (km/s) = 3.56890 4.28104 3.94109
#
# Compressibility (1/GPa) = 0.09138855
#
# Stress axis : x y z
#
# Youngs Moduli (GPa) = 31.33522 26.68863 77.57755
#
# Poissons Ratio (x) = -0.08530 0.24899
# Poissons Ratio (y) = -0.10015 -0.35464
# Poissons Ratio (z) = 0.10057 -0.12201
#
# Static dielectric constant tensor:
#      x y z
#    x 1.757720 0.000000 0.000000 
#    y 0.000000 1.747050 0.000000 
#    z 0.000000 0.000000 1.761960 
# 
# From -- ./inp_files/32829.got.cif
#   From: 2010.05.17/outbox.cif.g08.bks.cpg/sg63_17_cif.got.tgz:32829.got - 2010.06.03 15:47:04.
