data_PCOD9470506
_publ_section_title
;
Structure prediction by ZEFSAII (Michael W. Deem and Ramdas Pophale) SiO2 
 PCOD9470506
Probable space group: C M C M
;
_chemical_formula_sum "Si O2"
_cell_formula_units_Z 96
_cell_length_a 20.402034
_cell_length_b 8.767812
_cell_length_c 31.893847
_cell_angle_alpha 90.000000
_cell_angle_beta 90.000000
_cell_angle_gamma 90.000000
_cell_volume 5705.209577
_symmetry_space_group_name_H-M "C M C M"
_symmetry_group_IT_number 63
_symmetry_cell_setting 'orthorhombic'
loop_
_space_group_symop_operation_xyz
x,y,z
-x,-y,1/2+z
x,-y,-z
-x,y,1/2-z
-x,-y,-z
x,y,1/2-z
-x,y,z
x,-y,1/2+z
1/2+x,1/2+y,z
1/2-x,1/2-y,1/2+z
1/2+x,1/2-y,-z
1/2-x,1/2+y,1/2-z
1/2-x,1/2-y,-z
1/2+x,1/2+y,1/2-z
1/2-x,1/2+y,z
1/2+x,1/2-y,1/2+z
loop_
_atom_site_type_symbol
_atom_site_label
_atom_site_fract_x
_atom_site_fract_y
_atom_site_fract_z
Si Si1 0.220574 0.654430 0.672597
Si Si2 0.577438 0.383434 0.130434
Si Si3 0.181969 0.370598 0.878922
Si Si4 0.660176 0.543626 0.296617
Si Si5 0.426539 0.622192 0.536792
Si Si6 0.193611 0.656030 0.024197
O O1 0.181948 0.532534 0.644298
O O2 0.265416 0.760782 0.643224
O O3 0.271891 0.552948 0.699336
O O4 0.176842 0.777553 0.697039
O O5 0.500000 0.372782 0.138884
O O6 0.613362 0.219021 0.126607
O O7 0.613963 0.481146 0.166122
O O8 0.586876 0.447861 0.083025
O O9 0.205350 0.382369 0.926910
O O10 0.632929 0.518088 0.250000
O O11 0.425687 0.500000 0.500000
O O12 0.500000 0.688860 0.539340
O O13 0.371776 0.743833 0.525799
O O14 0.183868 0.500000 0.000000
O O15 0.250000 0.750000 0.000000
#
# Coordination Sequence:
#
# PCOD9470506 Si02
#       6
#    16  16  16  16  16  16
#     4   9  18  32  51  74 100 130 164 203 253 302
#     4   9  19  35  53  73  99 134 170 204 248 301
#     4   9  18  33  50  71 102 136 169 207 251 302
#     4  10  19  32  53  77 101 128 162 207 253 303
#     4   9  19  36  54  72  99 135 173 211 253 305
#     4  11  21  30  47  75 105 135 171 216 259 299
#
# _framework density 16.826726000000001
#
# number of rings (size 3 to 8) (size 9 to 14) (size 15 to 20)
#    0.000    2.500    0.000    2.000    0.000    7.333 
#    0.000    1.667    0.000    0.000    0.000    0.000 
#    0.000    0.000    0.000    0.000    0.000    0.000 
#
# Total GULP energy -267349.046798 kJ/mol
# GULP energy per Si atom -5569.771808 kJ/mol
# Density = 1.678843 g / cm^3
# Si number density = 16.826726 Si / 1000 Ang^3
#
#
#
# Elastic Constant Matrix: (Units=GPa)
#
#
# Indices 1 2 3 4 5 6 
#
# 1 81.5921 32.3812 53.2895 0.0000 0.0000 0.0000
# 2 32.3812 86.7071 56.3101 0.0000 0.0000 0.0000
# 3 53.2895 56.3101 136.5348 0.0000 0.0000 0.0000
# 4 0.0000 0.0000 0.0000 19.9061 0.0000 0.0000
# 5 0.0000 0.0000 0.0000 0.0000 16.9666 0.0000
# 6 0.0000 0.0000 0.0000 0.0000 0.0000 14.5643
#
#
#
# Elastic Compliance Matrix: (Units=1/GPa)
#
#
# Indices 1 2 3 4 5 6 
#
# 1 0.016924 -0.002773 -0.005462 0.000000 0.000000 0.000000
# 2 -0.002773 0.016207 -0.005602 0.000000 0.000000 0.000000
# 3 -0.005462 -0.005602 0.011766 0.000000 0.000000 0.000000
# 4 0.000000 0.000000 0.000000 0.050236 0.000000 0.000000
# 5 0.000000 0.000000 0.000000 0.000000 0.058939 0.000000
# 6 0.000000 0.000000 0.000000 0.000000 0.000000 0.068661
#
#
# Mechanical properties :
#
#
# Convention : Reuss Voigt Hill
#
# Bulk Modulus (GPa) = 58.06033 65.42175 61.74104
# Shear Modulus (GPa) = 19.52006 21.14428 20.33217
#
# Velocity S-wave (km/s) = 3.40966 3.54869 3.47987
# Velocity P-wave (km/s) = 7.07678 7.46692 7.27447
#
# Compressibility (1/GPa) = 0.01722346
#
# Stress axis : x y z
#
# Youngs Moduli (GPa) = 59.08840 61.70321 84.99076
#
# Poissons Ratio (x) = 0.17113 0.46418
# Poissons Ratio (y) = 0.16387 0.47608
# Poissons Ratio (z) = 0.32271 0.34563
#
# Static dielectric constant tensor:
#      x y z
#    x 1.585780 0.000000 0.000000 
#    y 0.000000 1.552210 0.000000 
#    z 0.000000 0.000000 1.601150 
# 
# From -- ./inp_files/70624.got.cif
#   From: 2010.05.17/outbox.cif.g08.bks.cpg/sg63_36_cif.got.tgz:70624.got - 2010.06.03 15:47:04.
