data_PCOD9470762
_publ_section_title
;
Structure prediction by ZEFSAII (Michael W. Deem and Ramdas Pophale) SiO2 
 PCOD9470762
Probable space group: C M C M
;
_chemical_formula_sum "Si O2"
_cell_formula_units_Z 56
_cell_length_a 10.237608
_cell_length_b 29.467266
_cell_length_c 8.118040
_cell_angle_alpha 90.000000
_cell_angle_beta 90.000000
_cell_angle_gamma 90.000000
_cell_volume 2449.004182
_symmetry_space_group_name_H-M "C M C M"
_symmetry_group_IT_number 63
_symmetry_cell_setting 'orthorhombic'
loop_
_space_group_symop_operation_xyz
x,y,z
-x,-y,1/2+z
x,-y,-z
-x,y,1/2-z
-x,-y,-z
x,y,1/2-z
-x,y,z
x,-y,1/2+z
1/2+x,1/2+y,z
1/2-x,1/2-y,1/2+z
1/2+x,1/2-y,-z
1/2-x,1/2+y,1/2-z
1/2-x,1/2-y,-z
1/2+x,1/2+y,1/2-z
1/2-x,1/2+y,z
1/2+x,1/2-y,1/2+z
loop_
_atom_site_type_symbol
_atom_site_label
_atom_site_fract_x
_atom_site_fract_y
_atom_site_fract_z
Si Si1 0.287791 0.551162 0.445818
Si Si2 0.000000 0.551733 0.052126
Si Si3 0.500000 0.180124 0.951409
Si Si4 0.717829 0.354415 0.053984
Si Si5 0.000000 0.214907 0.052526
O O1 0.328125 0.500000 0.500000
O O2 0.282908 0.547759 0.250000
O O3 0.142513 0.563359 0.514833
O O4 0.350937 0.599105 0.490761
O O5 0.000000 0.558832 0.250000
O O6 0.000000 0.500000 0.000000
O O7 0.500000 0.177995 0.750000
O O8 0.365279 0.156760 0.009998
O O9 0.500000 0.232732 0.000892
O O10 0.725325 0.358084 0.250000
O O11 0.626626 0.312106 0.008800
O O12 0.000000 0.214344 0.250000
#
# Coordination Sequence:
#
# PCOD9470762 Si02
#       5
#    16   8   8  16   8
#     4  10  19  33  53  82 118 159 201 246 295 352
#     4   8  15  26  44  71 106 144 187 234 285 336
#     4   9  21  40  65  93 122 155 200 253 306 359
#     4  11  22  39  62  91 123 160 202 249 302 361
#     4  11  23  42  63  88 122 161 202 251 304 361
#
# _framework density 22.866437000000001
#
# number of rings (size 3 to 8) (size 9 to 14) (size 15 to 20)
#    0.000    2.000    0.000    3.857    0.000    1.143 
#    0.000   11.429    0.000    0.000    0.000    0.000 
#    0.000    0.000    0.000    0.000    0.000    0.000 
#
# Total GULP energy -155969.792689 kJ/mol
# GULP energy per Si atom -5570.349739 kJ/mol
# Density = 2.281439 g / cm^3
# Si number density = 22.866437 Si / 1000 Ang^3
#
#
#
# Elastic Constant Matrix: (Units=GPa)
#
#
# Indices 1 2 3 4 5 6 
#
# 1 124.0892 51.5339 2.8018 0.0000 0.0000 0.0000
# 2 51.5339 244.4873 24.8375 0.0000 0.0000 0.0000
# 3 2.8018 24.8375 48.9732 0.0000 0.0000 0.0000
# 4 0.0000 0.0000 0.0000 33.2293 0.0000 0.0000
# 5 0.0000 0.0000 0.0000 0.0000 20.9193 0.0000
# 6 0.0000 0.0000 0.0000 0.0000 0.0000 359.1398
#
#
#
# Elastic Compliance Matrix: (Units=1/GPa)
#
#
# Indices 1 2 3 4 5 6 
#
# 1 0.008842 -0.001911 0.000463 0.000000 0.000000 0.000000
# 2 -0.001911 0.004725 -0.002287 0.000000 0.000000 0.000000
# 3 0.000463 -0.002287 0.021553 0.000000 0.000000 0.000000
# 4 0.000000 0.000000 0.000000 0.030094 0.000000 0.000000
# 5 0.000000 0.000000 0.000000 0.000000 0.047803 0.000000
# 6 0.000000 0.000000 0.000000 0.000000 0.000000 0.002784
#
#
# Mechanical properties :
#
#
# Convention : Reuss Voigt Hill
#
# Bulk Modulus (GPa) = 36.16578 63.98847 50.07713
# Shear Modulus (GPa) = 37.73944 105.21610 71.47777
#
# Velocity S-wave (km/s) = 4.06696 6.79067 5.59702
# Velocity P-wave (km/s) = 6.15662 9.46196 7.98225
#
# Compressibility (1/GPa) = 0.02765044
#
# Stress axis : x y z
#
# Youngs Moduli (GPa) = 113.09917 211.62649 46.39767
#
# Poissons Ratio (x) = 0.40437 -0.02149
# Poissons Ratio (y) = 0.21611 0.10612
# Poissons Ratio (z) = -0.05239 0.48403
#
# Static dielectric constant tensor:
#      x y z
#    x 2.258970 0.000000 0.000000 
#    y 0.000000 1.844490 0.000000 
#    z 0.000000 0.000000 1.797830 
# 
# From -- ./inp_files/2905.got.cif
#   From: 2010.05.17/outbox.cif.g08.bks.cpg/sg63_2_cif.got.tgz:2905.got - 2010.06.03 15:47:04.
