data_PCOD9470423
_publ_section_title
;
Structure prediction by ZEFSAII (Michael W. Deem and Ramdas Pophale) SiO2 
 PCOD9470423
Probable space group: C M C M
;
_chemical_formula_sum "Si O2"
_cell_formula_units_Z 72
_cell_length_a 19.030640
_cell_length_b 23.252112
_cell_length_c 9.168340
_cell_angle_alpha 90.000000
_cell_angle_beta 90.000000
_cell_angle_gamma 90.000000
_cell_volume 4057.014037
_symmetry_space_group_name_H-M "C M C M"
_symmetry_group_IT_number 63
_symmetry_cell_setting 'orthorhombic'
loop_
_space_group_symop_operation_xyz
x,y,z
-x,-y,1/2+z
x,-y,-z
-x,y,1/2-z
-x,-y,-z
x,y,1/2-z
-x,y,z
x,-y,1/2+z
1/2+x,1/2+y,z
1/2-x,1/2-y,1/2+z
1/2+x,1/2-y,-z
1/2-x,1/2+y,1/2-z
1/2-x,1/2-y,-z
1/2+x,1/2+y,1/2-z
1/2-x,1/2+y,z
1/2+x,1/2-y,1/2+z
loop_
_atom_site_type_symbol
_atom_site_label
_atom_site_fract_x
_atom_site_fract_y
_atom_site_fract_z
Si Si1 0.000000 0.447089 0.401879
Si Si2 0.280501 0.938616 0.575446
Si Si3 0.113571 0.058477 0.078047
Si Si4 0.618663 0.852765 0.419824
Si Si5 0.500000 0.347074 0.926233
Si Si6 0.500000 0.776341 0.926231
O O1 0.000000 0.500000 0.500000
O O2 0.066157 0.406538 0.413410
O O3 0.000000 0.477347 0.250000
O O4 0.294705 0.941509 0.750000
O O5 0.196584 0.933352 0.552134
O O6 0.316419 0.881956 0.504885
O O7 0.301724 0.000000 0.500000
O O8 0.103316 0.050109 0.250000
O O9 0.067423 0.113527 0.037204
O O10 0.090879 0.000000 0.000000
O O11 0.633605 0.835580 0.250000
O O12 0.570647 0.806154 0.505458
O O13 0.500000 0.335466 0.750000
O O14 0.500000 0.288746 0.016719
O O15 0.500000 0.781567 0.750000
#
# Coordination Sequence:
#
# PCOD9470423 Si02
#       6
#     8  16  16  16   8   8
#     4   9  18  28  42  66  94 125 167 209 251 300
#     4  10  19  32  51  80 113 144 177 217 265 319
#     4   9  19  34  56  84 113 141 173 215 267 321
#     4  10  20  35  52  72 102 142 180 219 264 313
#     4  10  20  38  59  79 106 142 179 221 269 318
#     4  11  23  38  56  79 104 137 181 228 268 312
#
# _framework density 17.747043000000001
#
# number of rings (size 3 to 8) (size 9 to 14) (size 15 to 20)
#    0.000    2.222    0.000    4.000    0.000    6.222 
#    0.000    1.111    0.000    0.000    0.000    0.000 
#    0.000    0.000    0.000    0.000    0.000    0.000 
#
# Total GULP energy -200466.283660 kJ/mol
# GULP energy per Si atom -5568.507879 kJ/mol
# Density = 1.770665 g / cm^3
# Si number density = 17.747043 Si / 1000 Ang^3
#
#
#
# Elastic Constant Matrix: (Units=GPa)
#
#
# Indices 1 2 3 4 5 6 
#
# 1 71.5930 53.7722 53.5581 0.0000 0.0000 0.0000
# 2 53.7722 133.0550 84.7380 0.0000 0.0000 0.0000
# 3 53.5581 84.7380 113.5368 0.0000 0.0000 0.0000
# 4 0.0000 0.0000 0.0000 33.0383 0.0000 0.0000
# 5 0.0000 0.0000 0.0000 0.0000 15.0046 0.0000
# 6 0.0000 0.0000 0.0000 0.0000 0.0000 64.0534
#
#
#
# Elastic Compliance Matrix: (Units=1/GPa)
#
#
# Indices 1 2 3 4 5 6 
#
# 1 0.022935 -0.004534 -0.007436 0.000000 0.000000 0.000000
# 2 -0.004534 0.015221 -0.009221 0.000000 0.000000 0.000000
# 3 -0.007436 -0.009221 0.019198 0.000000 0.000000 0.000000
# 4 0.000000 0.000000 0.000000 0.030268 0.000000 0.000000
# 5 0.000000 0.000000 0.000000 0.000000 0.066646 0.000000
# 6 0.000000 0.000000 0.000000 0.000000 0.000000 0.015612
#
#
# Mechanical properties :
#
#
# Convention : Reuss Voigt Hill
#
# Bulk Modulus (GPa) = 66.78815 78.03571 72.41193
# Shear Modulus (GPa) = 23.01483 30.82702 26.92093
#
# Velocity S-wave (km/s) = 3.60505 4.17228 3.89900
# Velocity P-wave (km/s) = 7.41914 8.20226 7.82051
#
# Compressibility (1/GPa) = 0.01497272
#
# Stress axis : x y z
#
# Youngs Moduli (GPa) = 43.60072 65.70076 52.09008
#
# Poissons Ratio (x) = 0.29786 0.38732
# Poissons Ratio (y) = 0.19767 0.48033
# Poissons Ratio (z) = 0.32420 0.60584
#
# Static dielectric constant tensor:
#      x y z
#    x 1.607220 0.000000 0.000000 
#    y 0.000000 1.564420 0.000000 
#    z 0.000000 0.000000 1.624340 
# 
# From -- ./inp_files/6179.got.cif
#   From: 2010.05.17/outbox.cif.g08.bks.cpg/sg63_4_cif.got.tgz:6179.got - 2010.06.03 15:47:04.
