data_PCOD9470828
_publ_section_title
;
Structure prediction by ZEFSAII (Michael W. Deem and Ramdas Pophale) SiO2 
 PCOD9470828
Probable space group: C M C M
;
_chemical_formula_sum "Si O2"
_cell_formula_units_Z 88
_cell_length_a 23.328501
_cell_length_b 7.686361
_cell_length_c 18.237813
_cell_angle_alpha 90.000000
_cell_angle_beta 90.000000
_cell_angle_gamma 90.000000
_cell_volume 3270.245598
_symmetry_space_group_name_H-M "C M C M"
_symmetry_group_IT_number 63
_symmetry_cell_setting 'orthorhombic'
loop_
_space_group_symop_operation_xyz
x,y,z
-x,-y,1/2+z
x,-y,-z
-x,y,1/2-z
-x,-y,-z
x,y,1/2-z
-x,y,z
x,-y,1/2+z
1/2+x,1/2+y,z
1/2-x,1/2-y,1/2+z
1/2+x,1/2-y,-z
1/2-x,1/2+y,1/2-z
1/2-x,1/2-y,-z
1/2+x,1/2+y,1/2-z
1/2-x,1/2+y,z
1/2+x,1/2-y,1/2+z
loop_
_atom_site_type_symbol
_atom_site_label
_atom_site_fract_x
_atom_site_fract_y
_atom_site_fract_z
Si Si1 0.743280 0.122989 0.750000
Si Si2 0.649075 0.217225 0.002274
Si Si3 0.859189 0.258805 0.750000
Si Si4 0.564534 0.183517 0.117194
Si Si5 0.756528 0.908322 0.079652
Si Si6 0.563833 0.396996 0.897802
Si Si7 0.877094 0.166437 0.250000
O O1 0.791389 0.279711 0.750000
O O2 0.755957 0.045533 0.833835
O O3 0.680234 0.214886 0.750000
O O4 0.692139 0.144757 0.940672
O O5 0.612439 0.353898 0.955796
O O6 0.599024 0.123004 0.047104
O O7 0.693658 0.265009 0.068618
O O8 0.893316 0.343963 0.683982
O O9 0.864358 0.045088 0.750000
O O10 0.500000 0.117386 0.125067
O O11 0.561217 0.395025 0.112111
O O12 0.771797 0.000000 0.000000
O O13 0.500000 0.339529 0.920349
O O14 0.584470 0.310298 0.822280
#
# Coordination Sequence:
#
# PCOD9470828 Si02
#       7
#     8  16   8  16  16  16   8
#     4  12  22  42  62  81 118 161 201 248 305 351
#     4  11  21  36  57  85 121 151 195 242 295 370
#     4  10  21  34  55  86 122 155 198 235 289 359
#     4  10  19  33  54  85 122 155 186 233 295 355
#     4  11  25  40  60  87 119 159 207 256 303 356
#     4  10  19  33  57  87 121 153 187 239 297 355
#     4  10  21  36  57  89 116 154 203 239 296 358
#
# _framework density 26.909295
#
# number of rings (size 3 to 8) (size 9 to 14) (size 15 to 20)
#    0.000    1.455    3.636    2.727    2.545    3.636 
#    0.000    0.000    0.000    2.182    0.000    0.000 
#    0.000    0.000    0.000    0.000    0.000    0.000 
#
# Total GULP energy -245457.635908 kJ/mol
# GULP energy per Si atom -5578.582634 kJ/mol
# Density = 2.684805 g / cm^3
# Si number density = 26.909295 Si / 1000 Ang^3
#
#
#
# Elastic Constant Matrix: (Units=GPa)
#
#
# Indices 1 2 3 4 5 6 
#
# 1 216.9062 20.6207 70.8869 0.0000 0.0000 0.0000
# 2 20.6207 33.2749 44.3271 0.0000 0.0000 0.0000
# 3 70.8869 44.3271 231.6258 0.0000 0.0000 0.0000
# 4 0.0000 0.0000 0.0000 21.9384 0.0000 0.0000
# 5 0.0000 0.0000 0.0000 0.0000 17.2972 0.0000
# 6 0.0000 0.0000 0.0000 0.0000 0.0000 9.3473
#
#
#
# Elastic Compliance Matrix: (Units=1/GPa)
#
#
# Indices 1 2 3 4 5 6 
#
# 1 0.005176 -0.001473 -0.001302 0.000000 0.000000 0.000000
# 2 -0.001473 0.040755 -0.007349 0.000000 0.000000 0.000000
# 3 -0.001302 -0.007349 0.006122 0.000000 0.000000 0.000000
# 4 0.000000 0.000000 0.000000 0.045582 0.000000 0.000000
# 5 0.000000 0.000000 0.000000 0.000000 0.057813 0.000000
# 6 0.000000 0.000000 0.000000 0.000000 0.000000 0.106983
#
#
# Mechanical properties :
#
#
# Convention : Reuss Voigt Hill
#
# Bulk Modulus (GPa) = 31.44099 83.71959 57.58029
# Shear Modulus (GPa) = 17.04852 32.78138 24.91495
#
# Velocity S-wave (km/s) = 2.51978 3.49408 3.04614
# Velocity P-wave (km/s) = 4.49168 6.88894 5.81518
#
# Compressibility (1/GPa) = 0.03180562
#
# Stress axis : x y z
#
# Youngs Moduli (GPa) = 193.20435 24.53689 163.34085
#
# Poissons Ratio (x) = 0.03614 0.21270
# Poissons Ratio (y) = 0.28456 1.20034
# Poissons Ratio (z) = 0.25158 0.18031
#
# Static dielectric constant tensor:
#      x y z
#    x 2.072590 0.000000 0.000000 
#    y 0.000000 2.516970 0.000000 
#    z 0.000000 0.000000 2.093230 
# 
# From -- ./inp_files/46959.got.cif
#   From: 2010.05.17/outbox.cif.g08.bks.cpg/sg63_24_cif.got.tgz:46959.got - 2010.06.03 15:47:04.
