data_PCOD9470072
_publ_section_title
;
Structure prediction by ZEFSAII (Michael W. Deem and Ramdas Pophale) SiO2 
 PCOD9470072
Probable space group: C M C M
;
_chemical_formula_sum "Si O2"
_cell_formula_units_Z 80
_cell_length_a 7.288427
_cell_length_b 25.002763
_cell_length_c 16.955158
_cell_angle_alpha 90.000000
_cell_angle_beta 90.000000
_cell_angle_gamma 90.000000
_cell_volume 3089.752226
_symmetry_space_group_name_H-M "C M C M"
_symmetry_group_IT_number 63
_symmetry_cell_setting 'orthorhombic'
loop_
_space_group_symop_operation_xyz
x,y,z
-x,-y,1/2+z
x,-y,-z
-x,y,1/2-z
-x,-y,-z
x,y,1/2-z
-x,y,z
x,-y,1/2+z
1/2+x,1/2+y,z
1/2-x,1/2-y,1/2+z
1/2+x,1/2-y,-z
1/2-x,1/2+y,1/2-z
1/2-x,1/2-y,-z
1/2+x,1/2+y,1/2-z
1/2-x,1/2+y,z
1/2+x,1/2-y,1/2+z
loop_
_atom_site_type_symbol
_atom_site_label
_atom_site_fract_x
_atom_site_fract_y
_atom_site_fract_z
Si Si1 0.277679 0.228790 0.607082
Si Si2 0.275841 0.971419 0.420358
Si Si3 0.222950 0.472257 0.250000
Si Si4 0.280546 0.654715 0.337562
Si Si5 0.283242 0.863443 0.492616
Si Si6 0.721743 0.848458 0.250000
O O1 0.500000 0.233491 0.605037
O O2 0.210284 0.286294 0.636762
O O3 0.212962 0.196118 0.529214
O O4 0.227321 0.186318 0.674679
O O5 0.500000 0.972482 0.419810
O O6 0.216139 0.993614 0.335304
O O7 0.217523 0.910010 0.434964
O O8 0.215911 0.000000 0.500000
O O9 0.278940 0.409795 0.250000
O O10 0.000000 0.475277 0.250000
O O11 0.213285 0.639388 0.250000
O O12 0.500000 0.657420 0.332061
O O13 0.241607 0.620926 0.416091
O O14 0.500000 0.860620 0.479658
O O15 0.500000 0.851015 0.250000
#
# Coordination Sequence:
#
# PCOD9470072 Si02
#       6
#    16  16   8  16  16   8
#     4   9  15  26  46  70  93 122 162 202 237 276
#     4   9  17  29  45  70 101 128 160 200 245 295
#     4   9  14  24  44  65  90 128 164 198 240 287
#     4  10  20  33  48  67  95 133 171 198 229 289
#     4  10  19  31  49  73 100 124 155 206 253 286
#     4   9  12  20  42  67  88 118 162 202 230 265
#
# _framework density 25.892046000000001
#
# number of rings (size 3 to 8) (size 9 to 14) (size 15 to 20)
#    0.000    2.600    3.000    0.600    0.000    0.400 
#    1.800    0.000    0.000    0.600    0.000    2.100 
#    0.000    0.000    0.000    0.000    0.000    0.000 
#
# Total GULP energy -223360.933265 kJ/mol
# GULP energy per Si atom -5584.023332 kJ/mol
# Density = 2.583311 g / cm^3
# Si number density = 25.892046 Si / 1000 Ang^3
#
#
#
# Elastic Constant Matrix: (Units=GPa)
#
#
# Indices 1 2 3 4 5 6 
#
# 1 111.8441 -1.5904 -6.2440 0.0000 0.0000 0.0000
# 2 -1.5904 26.5252 18.1539 0.0000 0.0000 0.0000
# 3 -6.2440 18.1539 219.1337 0.0000 0.0000 0.0000
# 4 0.0000 0.0000 0.0000 37.0865 0.0000 0.0000
# 5 0.0000 0.0000 0.0000 0.0000 -3.8838 0.0000
# 6 0.0000 0.0000 0.0000 0.0000 0.0000 -10.8611
#
#
#
# Elastic Compliance Matrix: (Units=1/GPa)
#
#
# Indices 1 2 3 4 5 6 
#
# 1 0.008959 0.000384 0.000223 0.000000 0.000000 0.000000
# 2 0.000384 0.039982 -0.003301 0.000000 0.000000 0.000000
# 3 0.000223 -0.003301 0.004843 0.000000 0.000000 0.000000
# 4 0.000000 0.000000 0.000000 0.026964 0.000000 0.000000
# 5 0.000000 0.000000 0.000000 0.000000 -0.257482 0.000000
# 6 0.000000 0.000000 0.000000 0.000000 0.000000 -0.092072
#
#
# Mechanical properties :
#
#
# Convention : Reuss Voigt Hill
#
# Bulk Modulus (GPa) = 20.66229 42.01579 31.33904
# Shear Modulus (GPa) = -20.21954 27.61390 3.69718
#
# Velocity S-wave (km/s) = -2.79752 3.26928 1.19625
# Velocity P-wave (km/s) = 1.56120 5.52389 3.74674
#
# Compressibility (1/GPa) = 0.04839734
#
# Stress axis : x y z
#
# Youngs Moduli (GPa) = 111.62012 25.01098 206.47122
#
# Poissons Ratio (x) = -0.00961 -0.04613
# Poissons Ratio (y) = -0.04289 0.68164
# Poissons Ratio (z) = -0.02494 0.08257
#
# Static dielectric constant tensor:
#      x y z
#    x 2.012550 0.000000 0.000000 
#    y 0.000000 2.031860 0.000000 
#    z 0.000000 0.000000 2.098720 
# 
# From -- ./inp_files/30048.got.cif
#   From: 2010.05.17/outbox.cif.g08.bks.cpg/sg63_16_cif.got.tgz:30048.got - 2010.06.03 15:47:04.
