data_PCOD9470670
_publ_section_title
;
Structure prediction by ZEFSAII (Michael W. Deem and Ramdas Pophale) SiO2 
 PCOD9470670
Probable space group: C M C M
;
_chemical_formula_sum "Si O2"
_cell_formula_units_Z 88
_cell_length_a 25.980052
_cell_length_b 25.367348
_cell_length_c 8.502091
_cell_angle_alpha 90.000000
_cell_angle_beta 90.000000
_cell_angle_gamma 90.000000
_cell_volume 5603.260734
_symmetry_space_group_name_H-M "C M C M"
_symmetry_group_IT_number 63
_symmetry_cell_setting 'orthorhombic'
loop_
_space_group_symop_operation_xyz
x,y,z
-x,-y,1/2+z
x,-y,-z
-x,y,1/2-z
-x,-y,-z
x,y,1/2-z
-x,y,z
x,-y,1/2+z
1/2+x,1/2+y,z
1/2-x,1/2-y,1/2+z
1/2+x,1/2-y,-z
1/2-x,1/2+y,1/2-z
1/2-x,1/2-y,-z
1/2+x,1/2+y,1/2-z
1/2-x,1/2+y,z
1/2+x,1/2-y,1/2+z
loop_
_atom_site_type_symbol
_atom_site_label
_atom_site_fract_x
_atom_site_fract_y
_atom_site_fract_z
Si Si1 0.200992 0.559832 0.063917
Si Si2 0.000000 0.441722 0.938859
Si Si3 0.256855 0.164579 0.562194
Si Si4 0.168737 0.759928 0.559686
Si Si5 0.098998 0.383813 0.062882
Si Si6 0.559222 0.767858 0.441225
O O1 0.204006 0.556434 0.250000
O O2 0.206287 0.500000 0.000000
O O3 0.239690 0.605472 0.003877
O O4 0.146920 0.586515 0.014066
O O5 0.000000 0.437002 0.750000
O O6 0.000000 0.500000 0.000000
O O7 0.049681 0.416515 0.015809
O O8 0.258574 0.161598 0.750000
O O9 0.206178 0.195508 0.507175
O O10 0.304791 0.203394 0.513527
O O11 0.170525 0.761154 0.750000
O O12 0.108939 0.766960 0.511371
O O13 0.108608 0.382037 0.250000
O O14 0.081161 0.325328 0.013946
O O15 0.556513 0.766348 0.250000
O O16 0.500000 0.759229 0.496931
#
# Coordination Sequence:
#
# PCOD9470670 Si02
#       6
#    16   8  16  16  16  16
#     4  12  24  37  52  72  99 130 167 211 257 304
#     4  12  24  36  46  62  84 120 168 216 257 296
#     4  10  19  33  52  74  99 130 167 208 253 303
#     4   9  17  31  51  75 100 129 166 207 252 303
#     4  11  20  35  52  68  92 127 168 211 254 296
#     4   9  16  29  51  74  97 129 166 206 251 295
#
# _framework density 15.705140999999999
#
# number of rings (size 3 to 8) (size 9 to 14) (size 15 to 20)
#    0.000    1.636    2.727    4.091    0.000    0.727 
#    0.000    0.000    0.000    0.000    0.000    0.000 
#    0.000    0.727    0.000    2.000    0.000    2.909 
#
# Total GULP energy -245099.139675 kJ/mol
# GULP energy per Si atom -5570.434993 kJ/mol
# Density = 1.566940 g / cm^3
# Si number density = 15.705141 Si / 1000 Ang^3
#
#
#
# Elastic Constant Matrix: (Units=GPa)
#
#
# Indices 1 2 3 4 5 6 
#
# 1 126.9652 59.6586 25.9447 0.0000 0.0000 0.0000
# 2 59.6586 84.8180 28.8982 0.0000 0.0000 0.0000
# 3 25.9447 28.8982 40.9974 0.0000 0.0000 0.0000
# 4 0.0000 0.0000 0.0000 14.5390 0.0000 0.0000
# 5 0.0000 0.0000 0.0000 0.0000 33.6815 0.0000
# 6 0.0000 0.0000 0.0000 0.0000 0.0000 30.8636
#
#
#
# Elastic Compliance Matrix: (Units=1/GPa)
#
#
# Indices 1 2 3 4 5 6 
#
# 1 0.011906 -0.007643 -0.002147 0.000000 0.000000 0.000000
# 2 -0.007643 0.020422 -0.009559 0.000000 0.000000 0.000000
# 3 -0.002147 -0.009559 0.032488 0.000000 0.000000 0.000000
# 4 0.000000 0.000000 0.000000 0.068781 0.000000 0.000000
# 5 0.000000 0.000000 0.000000 0.000000 0.029690 0.000000
# 6 0.000000 0.000000 0.000000 0.000000 0.000000 0.032401
#
#
# Mechanical properties :
#
#
# Convention : Reuss Voigt Hill
#
# Bulk Modulus (GPa) = 38.28593 53.53150 45.90871
# Shear Modulus (GPa) = 20.56828 25.03540 22.80184
#
# Velocity S-wave (km/s) = 3.62284 3.99694 3.81448
# Velocity P-wave (km/s) = 6.47540 7.44715 6.97821
#
# Compressibility (1/GPa) = 0.02611926
#
# Stress axis : x y z
#
# Youngs Moduli (GPa) = 83.98970 48.96572 30.78014
#
# Poissons Ratio (x) = 0.37424 0.06610
# Poissons Ratio (y) = 0.64192 0.29422
# Poissons Ratio (z) = 0.18036 0.46805
#
# Static dielectric constant tensor:
#      x y z
#    x 1.544060 0.000000 0.000000 
#    y 0.000000 1.523610 0.000000 
#    z 0.000000 0.000000 1.529900 
# 
# From -- ./inp_files/10238.got.cif
#   From: 2010.05.17/outbox.cif.g08.bks.cpg/sg63_6_cif.got.tgz:10238.got - 2010.06.03 15:47:04.
