data_PCOD9470443
_publ_section_title
;
Structure prediction by ZEFSAII (Michael W. Deem and Ramdas Pophale) SiO2 
 PCOD9470443
Probable space group: C M C M
;
_chemical_formula_sum "Si O2"
_cell_formula_units_Z 112
_cell_length_a 15.764781
_cell_length_b 23.872691
_cell_length_c 16.427066
_cell_angle_alpha 90.000000
_cell_angle_beta 90.000000
_cell_angle_gamma 90.000000
_cell_volume 6182.289254
_symmetry_space_group_name_H-M "C M C M"
_symmetry_group_IT_number 63
_symmetry_cell_setting 'orthorhombic'
loop_
_space_group_symop_operation_xyz
x,y,z
-x,-y,1/2+z
x,-y,-z
-x,y,1/2-z
-x,-y,-z
x,y,1/2-z
-x,y,z
x,-y,1/2+z
1/2+x,1/2+y,z
1/2-x,1/2-y,1/2+z
1/2+x,1/2-y,-z
1/2-x,1/2+y,1/2-z
1/2-x,1/2-y,-z
1/2+x,1/2+y,1/2-z
1/2-x,1/2+y,z
1/2+x,1/2-y,1/2+z
loop_
_atom_site_type_symbol
_atom_site_label
_atom_site_fract_x
_atom_site_fract_y
_atom_site_fract_z
Si Si1 0.835045 0.633241 0.537453
Si Si2 0.752869 0.216462 0.843182
Si Si3 0.404348 0.293757 0.616363
Si Si4 0.234451 0.541088 0.423845
Si Si5 0.093311 0.075180 0.154122
Si Si6 0.098056 0.463475 0.155378
Si Si7 0.405186 0.760254 0.552611
O O1 0.769407 0.664833 0.597226
O O2 0.792551 0.600136 0.462848
O O3 0.883149 0.588039 0.594059
O O4 0.891179 0.681807 0.496476
O O5 0.768714 0.199817 0.750000
O O6 0.669902 0.256299 0.846412
O O7 0.831902 0.249479 0.882285
O O8 0.500000 0.274638 0.639345
O O9 0.396646 0.358153 0.640731
O O10 0.397431 0.286071 0.518926
O O11 0.240842 0.500000 0.500000
O O12 0.325522 0.545474 0.382915
O O13 0.162192 0.513744 0.367002
O O14 0.092670 0.064627 0.250000
O O15 0.000000 0.059323 0.120748
O O16 0.109877 0.446843 0.250000
O O17 0.000000 0.480786 0.144652
O O18 0.500000 0.758444 0.586995
#
# Coordination Sequence:
#
# PCOD9470443 Si02
#       7
#    16  16  16  16  16  16  16
#     4  10  20  36  55  77 104 139 181 220 260 309
#     4  11  21  33  52  78 110 141 172 215 261 309
#     4   9  18  33  53  76 101 130 167 212 260 309
#     4  10  21  35  54  75 102 138 175 219 263 312
#     4  10  19  32  52  76 101 129 164 210 262 312
#     4  10  21  37  57  81 108 137 173 221 274 321
#     4  10  20  34  53  76 106 143 178 210 249 309
#
# _framework density 18.116267000000001
#
# number of rings (size 3 to 8) (size 9 to 14) (size 15 to 20)
#    0.000    2.000    0.000    5.143    0.000    5.143 
#    0.000    0.714    0.000    0.857    0.000    0.000 
#    0.000    0.000    0.000    0.000    0.000    0.000 
#
# Total GULP energy -312377.359763 kJ/mol
# GULP energy per Si atom -5578.167139 kJ/mol
# Density = 1.807503 g / cm^3
# Si number density = 18.116267 Si / 1000 Ang^3
#
#
#
# Elastic Constant Matrix: (Units=GPa)
#
#
# Indices 1 2 3 4 5 6 
#
# 1 137.7969 33.9475 50.8740 0.0000 0.0000 0.0000
# 2 33.9475 34.1497 10.4837 0.0000 0.0000 0.0000
# 3 50.8740 10.4837 51.6181 0.0000 0.0000 0.0000
# 4 0.0000 0.0000 0.0000 14.3710 0.0000 0.0000
# 5 0.0000 0.0000 0.0000 0.0000 19.9331 0.0000
# 6 0.0000 0.0000 0.0000 0.0000 0.0000 17.0771
#
#
#
# Elastic Compliance Matrix: (Units=1/GPa)
#
#
# Indices 1 2 3 4 5 6 
#
# 1 0.014237 -0.010500 -0.011899 0.000000 0.000000 0.000000
# 2 -0.010500 0.038974 0.002433 0.000000 0.000000 0.000000
# 3 -0.011899 0.002433 0.030607 0.000000 0.000000 0.000000
# 4 0.000000 0.000000 0.000000 0.069585 0.000000 0.000000
# 5 0.000000 0.000000 0.000000 0.000000 0.050168 0.000000
# 6 0.000000 0.000000 0.000000 0.000000 0.000000 0.058558
#
#
# Mechanical properties :
#
#
# Convention : Reuss Voigt Hill
#
# Bulk Modulus (GPa) = 22.78693 46.01947 34.40320
# Shear Modulus (GPa) = 15.78843 18.82687 17.30765
#
# Velocity S-wave (km/s) = 2.95533 3.22720 3.09425
# Velocity P-wave (km/s) = 4.92451 6.27247 5.63891
#
# Compressibility (1/GPa) = 0.04388481
#
# Stress axis : x y z
#
# Youngs Moduli (GPa) = 70.24035 25.65845 32.67277
#
# Poissons Ratio (x) = 0.26940 0.38878
# Poissons Ratio (y) = 0.73750 -0.07948
# Poissons Ratio (z) = 0.83580 -0.06242
#
# Static dielectric constant tensor:
#      x y z
#    x 1.633820 0.000000 0.000000 
#    y 0.000000 1.630560 0.000000 
#    z 0.000000 0.000000 1.618260 
# 
# From -- ./inp_files/32327.got.cif
#   From: 2010.05.17/outbox.cif.g08.bks.cpg/sg63_17_cif.got.tgz:32327.got - 2010.06.03 15:47:04.
