data_PCOD9470143
_publ_section_title
;
Structure prediction by ZEFSAII (Michael W. Deem and Ramdas Pophale) SiO2 
 PCOD9470143
Probable space group: C M C M
;
_chemical_formula_sum "Si O2"
_cell_formula_units_Z 80
_cell_length_a 19.538985
_cell_length_b 27.220379
_cell_length_c 8.405842
_cell_angle_alpha 90.000000
_cell_angle_beta 90.000000
_cell_angle_gamma 90.000000
_cell_volume 4470.719164
_symmetry_space_group_name_H-M "C M C M"
_symmetry_group_IT_number 63
_symmetry_cell_setting 'orthorhombic'
loop_
_space_group_symop_operation_xyz
x,y,z
-x,-y,1/2+z
x,-y,-z
-x,y,1/2-z
-x,-y,-z
x,y,1/2-z
-x,y,z
x,-y,1/2+z
1/2+x,1/2+y,z
1/2-x,1/2-y,1/2+z
1/2+x,1/2-y,-z
1/2-x,1/2+y,1/2-z
1/2-x,1/2-y,-z
1/2+x,1/2+y,1/2-z
1/2-x,1/2+y,z
1/2+x,1/2-y,1/2+z
loop_
_atom_site_type_symbol
_atom_site_label
_atom_site_fract_x
_atom_site_fract_y
_atom_site_fract_z
Si Si1 0.671626 0.250355 0.941816
Si Si2 0.421322 0.553311 0.940116
Si Si3 0.672812 0.143114 0.557106
Si Si4 0.078930 0.553385 0.942135
Si Si5 0.170753 0.142367 0.440784
O O1 0.670295 0.250638 0.750000
O O2 0.644250 0.196951 0.993066
O O3 0.643645 0.303468 0.994384
O O4 0.750000 0.250000 0.000000
O O5 0.421619 0.552547 0.750000
O O6 0.500000 0.559623 0.996987
O O7 0.397086 0.500000 0.000000
O O8 0.374521 0.597820 0.997049
O O9 0.674120 0.142327 0.750000
O O10 0.626261 0.098021 0.501937
O O11 0.750744 0.138027 0.498358
O O12 0.079428 0.553465 0.750000
O O13 0.000000 0.559688 0.994543
O O14 0.102831 0.500000 0.000000
O O15 0.170427 0.141330 0.250000
#
# Coordination Sequence:
#
# PCOD9470143 Si02
#       5
#    16  16  16  16  16
#     4   8  15  28  46  69  96 127 160 195 237 282
#     4  10  21  37  55  73  96 128 163 199 242 291
#     4   9  17  31  50  71  97 129 166 205 242 282
#     4   9  18  32  49  68  92 124 160 198 241 286
#     4  10  19  31  50  76 102 127 159 198 241 290
#
# _framework density 17.894212
#
# number of rings (size 3 to 8) (size 9 to 14) (size 15 to 20)
#    0.000    2.800    0.000    1.200    0.000    3.600 
#    0.000    3.000    0.000    3.600    0.000    2.800 
#    0.000    0.000    0.000    0.000    0.000    0.000 
#
# Total GULP energy -222774.575651 kJ/mol
# GULP energy per Si atom -5569.364391 kJ/mol
# Density = 1.785348 g / cm^3
# Si number density = 17.894212 Si / 1000 Ang^3
#
#
#
# Elastic Constant Matrix: (Units=GPa)
#
#
# Indices 1 2 3 4 5 6 
#
# 1 52.2789 86.1352 12.3598 0.0000 0.0000 0.0000
# 2 86.1352 239.6851 29.5626 0.0000 0.0000 0.0000
# 3 12.3598 29.5626 15.1440 0.0000 0.0000 0.0000
# 4 0.0000 0.0000 0.0000 22.4225 0.0000 0.0000
# 5 0.0000 0.0000 0.0000 0.0000 6.4213 0.0000
# 6 0.0000 0.0000 0.0000 0.0000 0.0000 -35.5141
#
#
#
# Elastic Compliance Matrix: (Units=1/GPa)
#
#
# Indices 1 2 3 4 5 6 
#
# 1 0.047478 -0.016178 -0.007168 0.000000 0.000000 0.000000
# 2 -0.016178 0.011008 -0.008285 0.000000 0.000000 0.000000
# 3 -0.007168 -0.008285 0.088055 0.000000 0.000000 0.000000
# 4 0.000000 0.000000 0.000000 0.044598 0.000000 0.000000
# 5 0.000000 0.000000 0.000000 0.000000 0.155732 0.000000
# 6 0.000000 0.000000 0.000000 0.000000 0.000000 -0.028158
#
#
# Mechanical properties :
#
#
# Convention : Reuss Voigt Hill
#
# Bulk Modulus (GPa) = 12.00776 62.58035 37.29405
# Shear Modulus (GPa) = 12.20305 10.60264 11.40284
#
# Velocity S-wave (km/s) = 2.61426 2.43681 2.52709
# Velocity P-wave (km/s) = 3.97963 6.55482 5.42232
#
# Compressibility (1/GPa) = 0.08327948
#
# Stress axis : x y z
#
# Youngs Moduli (GPa) = 21.06253 90.84489 11.35650
#
# Poissons Ratio (x) = 1.46968 0.08140
# Poissons Ratio (y) = 0.34075 0.09408
# Poissons Ratio (z) = 0.15098 0.75262
#
# Static dielectric constant tensor:
#      x y z
#    x 1.576190 0.000000 0.000000 
#    y 0.000000 1.653590 0.000000 
#    z 0.000000 0.000000 1.625510 
# 
# From -- ./inp_files/6407.got.cif
#   From: 2010.05.17/outbox.cif.g08.bks.cpg/sg63_4_cif.got.tgz:6407.got - 2010.06.03 15:47:04.
