data_PCOD9470911
_publ_section_title
;
Structure prediction by ZEFSAII (Michael W. Deem and Ramdas Pophale) SiO2 
 PCOD9470911
Probable space group: C M C M
;
_chemical_formula_sum "Si O2"
_cell_formula_units_Z 96
_cell_length_a 27.795029
_cell_length_b 9.950164
_cell_length_c 20.127584
_cell_angle_alpha 90.000000
_cell_angle_beta 90.000000
_cell_angle_gamma 90.000000
_cell_volume 5566.587220
_symmetry_space_group_name_H-M "C M C M"
_symmetry_group_IT_number 63
_symmetry_cell_setting 'orthorhombic'
loop_
_space_group_symop_operation_xyz
x,y,z
-x,-y,1/2+z
x,-y,-z
-x,y,1/2-z
-x,-y,-z
x,y,1/2-z
-x,y,z
x,-y,1/2+z
1/2+x,1/2+y,z
1/2-x,1/2-y,1/2+z
1/2+x,1/2-y,-z
1/2-x,1/2+y,1/2-z
1/2-x,1/2-y,-z
1/2+x,1/2+y,1/2-z
1/2-x,1/2+y,z
1/2+x,1/2-y,1/2+z
loop_
_atom_site_type_symbol
_atom_site_label
_atom_site_fract_x
_atom_site_fract_y
_atom_site_fract_z
Si Si1 0.317739 0.080359 0.591986
Si Si2 0.446253 0.543376 0.326630
Si Si3 0.648302 0.803820 0.547982
Si Si4 0.204701 0.958467 0.077051
Si Si5 0.944369 0.130691 0.954271
Si Si6 0.153279 0.172329 0.172638
O O1 0.328749 0.159620 0.523371
O O2 0.261173 0.048885 0.592199
O O3 0.331817 0.179379 0.650841
O O4 0.347341 0.941740 0.588858
O O5 0.442870 0.498007 0.250000
O O6 0.500000 0.599689 0.337148
O O7 0.440599 0.423324 0.378879
O O8 0.403625 0.648192 0.337892
O O9 0.679230 0.686214 0.582251
O O10 0.595016 0.745594 0.536310
O O11 0.179989 0.065700 0.125373
O O12 0.198463 0.000000 0.000000
O O13 0.000000 0.168901 0.967569
O O14 0.933301 0.000000 0.000000
O O15 0.164050 0.147431 0.250000
#
# Coordination Sequence:
#
# PCOD9470911 Si02
#       6
#    16  16  16  16  16  16
#     4  11  23  36  55  83 117 153 187 231 284 345
#     4   9  18  35  58  81 105 141 189 232 275 335
#     4  11  20  35  58  87 108 145 196 242 274 335
#     4  12  20  38  64  84 104 150 208 240 268 334
#     4  10  19  33  56  86 115 144 185 243 294 327
#     4  11  23  38  57  86 120 149 184 240 298 338
#
# _framework density 17.245754999999999
#
# number of rings (size 3 to 8) (size 9 to 14) (size 15 to 20)
#    0.000    1.333    5.000    3.000    0.000    0.667 
#    0.000    4.167    0.000    0.000    0.000    0.000 
#    0.000    0.000    0.000    0.000    0.000    0.000 
#
# Total GULP energy -267915.323148 kJ/mol
# GULP energy per Si atom -5581.569232 kJ/mol
# Density = 1.720650 g / cm^3
# Si number density = 17.245755 Si / 1000 Ang^3
#
#
#
# Elastic Constant Matrix: (Units=GPa)
#
#
# Indices 1 2 3 4 5 6 
#
# 1 138.0219 63.8742 45.6877 0.0000 0.0000 0.0000
# 2 63.8742 113.2203 35.9358 0.0000 0.0000 0.0000
# 3 45.6877 35.9358 75.3719 0.0000 0.0000 0.0000
# 4 0.0000 0.0000 0.0000 17.3257 0.0000 0.0000
# 5 0.0000 0.0000 0.0000 0.0000 20.5611 0.0000
# 6 0.0000 0.0000 0.0000 0.0000 0.0000 2.7336
#
#
#
# Elastic Compliance Matrix: (Units=1/GPa)
#
#
# Indices 1 2 3 4 5 6 
#
# 1 0.010883 -0.004767 -0.004324 0.000000 0.000000 0.000000
# 2 -0.004767 0.012496 -0.003068 0.000000 0.000000 0.000000
# 3 -0.004324 -0.003068 0.017351 0.000000 0.000000 0.000000
# 4 0.000000 0.000000 0.000000 0.057718 0.000000 0.000000
# 5 0.000000 0.000000 0.000000 0.000000 0.048636 0.000000
# 6 0.000000 0.000000 0.000000 0.000000 0.000000 0.365816
#
#
# Mechanical properties :
#
#
# Convention : Reuss Voigt Hill
#
# Bulk Modulus (GPa) = 60.93247 68.62328 64.77787
# Shear Modulus (GPa) = 9.21341 20.19852 14.70597
#
# Velocity S-wave (km/s) = 2.31388 3.42602 2.92332
# Velocity P-wave (km/s) = 6.52283 7.45171 7.00268
#
# Compressibility (1/GPa) = 0.01641161
#
# Stress axis : x y z
#
# Youngs Moduli (GPa) = 91.88948 80.02861 57.63299
#
# Poissons Ratio (x) = 0.38151 0.24919
# Poissons Ratio (y) = 0.43805 0.17681
# Poissons Ratio (z) = 0.39731 0.24552
#
# Static dielectric constant tensor:
#      x y z
#    x 1.599550 0.000000 0.000000 
#    y 0.000000 1.568320 0.000000 
#    z 0.000000 0.000000 1.599500 
# 
# From -- ./inp_files/58096.got.cif
#   From: 2010.05.17/outbox.cif.g08.bks.cpg/sg63_30_cif.got.tgz:58096.got - 2010.06.03 15:47:04.
