data_PCOD9470316
_publ_section_title
;
Structure prediction by ZEFSAII (Michael W. Deem and Ramdas Pophale) SiO2 
 PCOD9470316
Probable space group: C M C M
;
_chemical_formula_sum "Si O2"
_cell_formula_units_Z 104
_cell_length_a 25.862812
_cell_length_b 24.394454
_cell_length_c 7.520622
_cell_angle_alpha 90.000000
_cell_angle_beta 90.000000
_cell_angle_gamma 90.000000
_cell_volume 4744.829441
_symmetry_space_group_name_H-M "C M C M"
_symmetry_group_IT_number 63
_symmetry_cell_setting 'orthorhombic'
loop_
_space_group_symop_operation_xyz
x,y,z
-x,-y,1/2+z
x,-y,-z
-x,y,1/2-z
-x,-y,-z
x,y,1/2-z
-x,y,z
x,-y,1/2+z
1/2+x,1/2+y,z
1/2-x,1/2-y,1/2+z
1/2+x,1/2-y,-z
1/2-x,1/2+y,1/2-z
1/2-x,1/2-y,-z
1/2+x,1/2+y,1/2-z
1/2-x,1/2+y,z
1/2+x,1/2-y,1/2+z
loop_
_atom_site_type_symbol
_atom_site_label
_atom_site_fract_x
_atom_site_fract_y
_atom_site_fract_z
Si Si1 0.285679 0.171246 0.454891
Si Si2 0.888291 0.269130 0.049551
Si Si3 0.000000 0.935037 0.537630
Si Si4 0.661219 0.063437 0.538800
Si Si5 0.557906 0.876205 0.467614
Si Si6 0.112748 0.935965 0.963184
Si Si7 0.170811 0.832248 0.531293
O O1 0.288815 0.189076 0.250000
O O2 0.332820 0.199928 0.554578
O O3 0.297663 0.106220 0.460914
O O4 0.228623 0.182728 0.526065
O O5 0.907113 0.258580 0.250000
O O6 0.926262 0.314853 0.970541
O O7 0.872631 0.210833 0.969840
O O8 0.055998 0.917268 0.468621
O O9 0.000000 0.925636 0.750000
O O10 0.000000 0.000000 0.500000
O O11 0.662792 0.071047 0.750000
O O12 0.604008 0.083128 0.476519
O O13 0.670251 0.000000 0.500000
O O14 0.558539 0.875249 0.250000
O O15 0.500000 0.891028 0.523483
O O16 0.110893 0.931525 0.750000
O O17 0.155511 0.893264 0.025251
O O18 0.121582 0.000000 0.000000
O O19 0.171793 0.830102 0.750000
#
# Coordination Sequence:
#
# PCOD9470316 Si02
#       7
#    16  16   8  16  16  16  16
#     4  10  19  32  50  70  97 132 165 201 243 287
#     4   9  17  32  51  71  97 128 161 201 245 289
#     4   8  14  26  46  64  84 116 150 182 221 272
#     4  10  20  34  52  74 102 132 167 206 246 294
#     4   8  15  29  49  73 100 129 160 198 245 294
#     4   9  17  31  47  67  94 122 155 193 236 283
#     4   9  18  31  48  72  99 125 159 204 245 287
#
# _framework density 21.918596000000001
#
# number of rings (size 3 to 8) (size 9 to 14) (size 15 to 20)
#    0.000    2.923    0.000    2.308    0.000    0.923 
#    1.385    4.615    0.000   11.077    0.000    0.000 
#    0.000    0.000    0.000    0.000    0.000    0.000 
#
# Total GULP energy -289944.742080 kJ/mol
# GULP energy per Si atom -5575.860425 kJ/mol
# Density = 2.186871 g / cm^3
# Si number density = 21.918596 Si / 1000 Ang^3
#
#
#
# Elastic Constant Matrix: (Units=GPa)
#
#
# Indices 1 2 3 4 5 6 
#
# 1 22.9549 -13.1352 -1.2649 0.0000 0.0000 0.0000
# 2 -13.1352 84.5652 -7.6351 0.0000 0.0000 0.0000
# 3 -1.2649 -7.6351 66.5334 0.0000 0.0000 0.0000
# 4 0.0000 0.0000 0.0000 8.6097 0.0000 0.0000
# 5 0.0000 0.0000 0.0000 0.0000 -0.8854 0.0000
# 6 0.0000 0.0000 0.0000 0.0000 0.0000 18.4590
#
#
#
# Elastic Compliance Matrix: (Units=1/GPa)
#
#
# Indices 1 2 3 4 5 6 
#
# 1 0.048023 0.007621 0.001788 0.000000 0.000000 0.000000
# 2 0.007621 0.013158 0.001655 0.000000 0.000000 0.000000
# 3 0.001788 0.001655 0.015254 0.000000 0.000000 0.000000
# 4 0.000000 0.000000 0.000000 0.116148 0.000000 0.000000
# 5 0.000000 0.000000 0.000000 0.000000 -1.129409 0.000000
# 6 0.000000 0.000000 0.000000 0.000000 0.000000 0.054174
#
#
# Mechanical properties :
#
#
# Convention : Reuss Voigt Hill
#
# Bulk Modulus (GPa) = 10.14600 14.44256 12.29428
# Shear Modulus (GPa) = -5.73444 18.30925 6.28741
#
# Velocity S-wave (km/s) = -1.61924 2.89334 1.69551
# Velocity P-wave (km/s) = 1.06916 4.21490 3.07478
#
# Compressibility (1/GPa) = 0.09856102
#
# Stress axis : x y z
#
# Youngs Moduli (GPa) = 20.82345 75.99770 65.55688
#
# Poissons Ratio (x) = -0.57915 -0.11718
# Poissons Ratio (y) = -0.15869 -0.10849
# Poissons Ratio (z) = -0.03722 -0.12577
#
# Static dielectric constant tensor:
#      x y z
#    x 1.794760 0.000000 0.000000 
#    y 0.000000 1.810490 0.000000 
#    z 0.000000 0.000000 1.846970 
# 
# From -- ./inp_files/12850.got.cif
#   From: 2010.05.17/outbox.cif.g08.bks.cpg/sg63_7_cif.got.tgz:12850.got - 2010.06.03 15:47:04.
