data_PCOD9470162
_publ_section_title
;
Structure prediction by ZEFSAII (Michael W. Deem and Ramdas Pophale) SiO2 
 PCOD9470162
Probable space group: C M C M
;
_chemical_formula_sum "Si O2"
_cell_formula_units_Z 112
_cell_length_a 14.598900
_cell_length_b 19.960626
_cell_length_c 15.392488
_cell_angle_alpha 90.000000
_cell_angle_beta 90.000000
_cell_angle_gamma 90.000000
_cell_volume 4485.419996
_symmetry_space_group_name_H-M "C M C M"
_symmetry_group_IT_number 63
_symmetry_cell_setting 'orthorhombic'
loop_
_space_group_symop_operation_xyz
x,y,z
-x,-y,1/2+z
x,-y,-z
-x,y,1/2-z
-x,-y,-z
x,y,1/2-z
-x,y,z
x,-y,1/2+z
1/2+x,1/2+y,z
1/2-x,1/2-y,1/2+z
1/2+x,1/2-y,-z
1/2-x,1/2+y,1/2-z
1/2-x,1/2-y,-z
1/2+x,1/2+y,1/2-z
1/2-x,1/2+y,z
1/2+x,1/2-y,1/2+z
loop_
_atom_site_type_symbol
_atom_site_label
_atom_site_fract_x
_atom_site_fract_y
_atom_site_fract_z
Si Si1 0.607653 0.736009 0.651196
Si Si2 0.893696 0.709626 0.976784
Si Si3 0.133020 0.598467 0.844199
Si Si4 0.610334 0.324611 0.850727
Si Si5 0.196660 0.043730 0.085949
Si Si6 0.352704 0.590982 0.655638
Si Si7 0.400929 0.057751 0.150313
O O1 0.647903 0.740588 0.750000
O O2 0.500000 0.749700 0.661408
O O3 0.644614 0.783584 0.574193
O O4 0.617466 0.660300 0.611497
O O5 0.890630 0.638417 0.930173
O O6 0.854761 0.759875 0.903678
O O7 0.000000 0.728393 0.985702
O O8 0.104426 0.628473 0.750000
O O9 0.242685 0.595167 0.842518
O O10 0.096424 0.523379 0.847851
O O11 0.643360 0.329048 0.750000
O O12 0.500000 0.321212 0.845883
O O13 0.639038 0.389102 0.906753
O O14 0.135846 0.987008 0.134920
O O15 0.298472 0.066579 0.114646
O O16 0.212892 0.000000 0.000000
O O17 0.394089 0.600772 0.750000
O O18 0.399709 0.082383 0.250000
O O19 0.500000 0.080657 0.111960
#
# Coordination Sequence:
#
# PCOD9470162 Si02
#       7
#    16  16  16  16  16  16  16
#     4   9  18  32  48  68  98 135 174 214 252 297
#     4  10  19  31  50  77 106 136 170 207 255 319
#     4   9  17  30  51  79 106 130 163 213 267 312
#     4  10  21  35  51  76 112 148 179 216 266 325
#     4  11  21  33  51  75 107 141 177 221 269 320
#     4   9  18  33  51  72  97 128 173 221 259 301
#     4   9  18  34  56  80 105 135 176 227 276 317
#
# _framework density 24.969791000000001
#
# number of rings (size 3 to 8) (size 9 to 14) (size 15 to 20)
#    0.000    2.429    0.000    3.857    0.000    3.143 
#    0.000    1.429    0.000    0.000    0.000    9.000 
#    0.000   16.000    0.000    0.286    0.000    0.000 
#
# Total GULP energy -312166.052287 kJ/mol
# GULP energy per Si atom -5574.393791 kJ/mol
# Density = 2.491296 g / cm^3
# Si number density = 24.969791 Si / 1000 Ang^3
#
#
#
# Elastic Constant Matrix: (Units=GPa)
#
#
# Indices 1 2 3 4 5 6 
#
# 1 76.3424 -9.4741 8.9409 0.0000 0.0000 0.0000
# 2 -9.4741 71.6291 23.4720 0.0000 0.0000 0.0000
# 3 8.9409 23.4720 111.8557 0.0000 0.0000 0.0000
# 4 0.0000 0.0000 0.0000 23.6306 0.0000 0.0000
# 5 0.0000 0.0000 0.0000 0.0000 165.6071 0.0000
# 6 0.0000 0.0000 0.0000 0.0000 0.0000 20.8022
#
#
#
# Elastic Compliance Matrix: (Units=1/GPa)
#
#
# Indices 1 2 3 4 5 6 
#
# 1 0.013569 0.002309 -0.001569 0.000000 0.000000 0.000000
# 2 0.002309 0.015385 -0.003413 0.000000 0.000000 0.000000
# 3 -0.001569 -0.003413 0.009782 0.000000 0.000000 0.000000
# 4 0.000000 0.000000 0.000000 0.042318 0.000000 0.000000
# 5 0.000000 0.000000 0.000000 0.000000 0.006038 0.000000
# 6 0.000000 0.000000 0.000000 0.000000 0.000000 0.048072
#
#
# Mechanical properties :
#
#
# Convention : Reuss Voigt Hill
#
# Bulk Modulus (GPa) = 29.94974 33.96720 31.95847
# Shear Modulus (GPa) = 32.97294 57.80056 45.38675
#
# Velocity S-wave (km/s) = 3.63783 4.81648 4.26804
# Velocity P-wave (km/s) = 5.44660 6.67564 6.09219
#
# Compressibility (1/GPa) = 0.03338927
#
# Stress axis : x y z
#
# Youngs Moduli (GPa) = 73.69641 65.00021 102.23199
#
# Poissons Ratio (x) = -0.15008 0.16041
# Poissons Ratio (y) = -0.17016 0.34891
# Poissons Ratio (z) = 0.11564 0.22184
#
# Static dielectric constant tensor:
#      x y z
#    x 1.944390 0.000000 0.000000 
#    y 0.000000 2.049710 0.000000 
#    z 0.000000 0.000000 2.070550 
# 
# From -- ./inp_files/32268.got.cif
#   From: 2010.05.17/outbox.cif.g08.bks.cpg/sg63_17_cif.got.tgz:32268.got - 2010.06.03 15:47:04.
