data_PCOD9470967
_publ_section_title
;
Structure prediction by ZEFSAII (Michael W. Deem and Ramdas Pophale) SiO2 
 PCOD9470967
Probable space group: C M C M
;
_chemical_formula_sum "Si O2"
_cell_formula_units_Z 112
_cell_length_a 12.427057
_cell_length_b 15.124155
_cell_length_c 32.699451
_cell_angle_alpha 90.000000
_cell_angle_beta 90.000000
_cell_angle_gamma 90.000000
_cell_volume 6145.820492
_symmetry_space_group_name_H-M "C M C M"
_symmetry_group_IT_number 63
_symmetry_cell_setting 'orthorhombic'
loop_
_space_group_symop_operation_xyz
x,y,z
-x,-y,1/2+z
x,-y,-z
-x,y,1/2-z
-x,-y,-z
x,y,1/2-z
-x,y,z
x,-y,1/2+z
1/2+x,1/2+y,z
1/2-x,1/2-y,1/2+z
1/2+x,1/2-y,-z
1/2-x,1/2+y,1/2-z
1/2-x,1/2-y,-z
1/2+x,1/2+y,1/2-z
1/2-x,1/2+y,z
1/2+x,1/2-y,1/2+z
loop_
_atom_site_type_symbol
_atom_site_label
_atom_site_fract_x
_atom_site_fract_y
_atom_site_fract_z
Si Si1 0.873902 0.594095 0.653213
Si Si2 0.250902 0.419628 0.650946
Si Si3 0.882244 0.693973 0.092858
Si Si4 0.311903 0.902108 0.514218
Si Si5 0.627465 0.274978 0.701900
Si Si6 0.764518 0.644351 0.928409
Si Si7 0.372834 0.468036 0.931103
O O1 0.795280 0.513730 0.665505
O O2 0.848720 0.684226 0.677597
O O3 0.849551 0.611504 0.605194
O O4 0.000000 0.573334 0.659321
O O5 0.151185 0.369340 0.629750
O O6 0.304904 0.356330 0.683996
O O7 0.335036 0.433444 0.613427
O O8 0.879067 0.637232 0.051258
O O9 0.792857 0.768827 0.087950
O O10 0.000000 0.732941 0.098896
O O11 0.311833 0.843366 0.473615
O O12 0.192903 0.914727 0.534171
O O13 0.347354 0.000000 0.500000
O O14 0.647394 0.262964 0.750000
O O15 0.500000 0.292692 0.696155
O O16 0.675579 0.566971 0.933223
O O17 0.500000 0.464375 0.936282
#
# Coordination Sequence:
#
# PCOD9470967 Si02
#       7
#    16  16  16  16  16  16  16
#     4  10  21  38  61  87 117 153 191 228 279 341
#     4  10  20  36  57  85 114 148 184 235 282 337
#     4  11  21  33  51  76 108 148 191 235 287 337
#     4   9  20  33  47  71 106 143 195 240 281 334
#     4  10  21  39  64  90 114 145 186 230 279 339
#     4  10  19  34  51  77 109 146 190 237 281 329
#     4   9  18  32  52  75 105 143 186 236 285 331
#
# _framework density 18.223766000000001
#
# number of rings (size 3 to 8) (size 9 to 14) (size 15 to 20)
#    0.000    2.143    1.429    2.571    0.000    4.571 
#    0.000    0.000    0.000    1.286    0.000    0.000 
#    0.000    0.000    0.000    0.000    0.000    0.000 
#
# Total GULP energy -312472.303417 kJ/mol
# GULP energy per Si atom -5579.862561 kJ/mol
# Density = 1.818229 g / cm^3
# Si number density = 18.223766 Si / 1000 Ang^3
#
#
#
# Elastic Constant Matrix: (Units=GPa)
#
#
# Indices 1 2 3 4 5 6 
#
# 1 59.2345 29.7766 33.9497 0.0000 0.0000 0.0000
# 2 29.7766 75.5837 36.0181 0.0000 0.0000 0.0000
# 3 33.9497 36.0181 88.7592 0.0000 0.0000 0.0000
# 4 0.0000 0.0000 0.0000 25.4432 0.0000 0.0000
# 5 0.0000 0.0000 0.0000 0.0000 -97.9155 0.0000
# 6 0.0000 0.0000 0.0000 0.0000 0.0000 21.3141
#
#
#
# Elastic Compliance Matrix: (Units=1/GPa)
#
#
# Indices 1 2 3 4 5 6 
#
# 1 0.023781 -0.006241 -0.006564 0.000000 0.000000 0.000000
# 2 -0.006241 0.018040 -0.004933 0.000000 0.000000 0.000000
# 3 -0.006564 -0.004933 0.015779 0.000000 0.000000 0.000000
# 4 0.000000 0.000000 0.000000 0.039303 0.000000 0.000000
# 5 0.000000 0.000000 0.000000 0.000000 -0.010213 0.000000
# 6 0.000000 0.000000 0.000000 0.000000 0.000000 0.046917
#
#
# Mechanical properties :
#
#
# Convention : Reuss Voigt Hill
#
# Bulk Modulus (GPa) = 45.19950 47.00739 46.10344
# Shear Modulus (GPa) = 28.33531 -1.97611 13.17960
#
# Velocity S-wave (km/s) = 3.94744 -1.04246 2.69217
# Velocity P-wave (km/s) = 6.75520 4.93980 5.91753
#
# Compressibility (1/GPa) = 0.02212414
#
# Stress axis : x y z
#
# Youngs Moduli (GPa) = 42.05009 55.43248 63.37579
#
# Poissons Ratio (x) = 0.34595 0.41597
# Poissons Ratio (y) = 0.26243 0.31266
# Poissons Ratio (z) = 0.27600 0.27347
#
# Static dielectric constant tensor:
#      x y z
#    x 1.611030 0.000000 0.000000 
#    y 0.000000 1.640200 0.000000 
#    z 0.000000 0.000000 1.616810 
# 
# From -- ./inp_files/72866.got.cif
#   From: 2010.05.17/outbox.cif.g08.bks.cpg/sg63_37_cif.got.tgz:72866.got - 2010.06.03 15:47:04.
