data_PCOD9470050
_publ_section_title
;
Structure prediction by ZEFSAII (Michael W. Deem and Ramdas Pophale) SiO2 
 PCOD9470050
Probable space group: C M C M
;
_chemical_formula_sum "Si O2"
_cell_formula_units_Z 64
_cell_length_a 27.569535
_cell_length_b 10.730731
_cell_length_c 9.998981
_cell_angle_alpha 90.000000
_cell_angle_beta 90.000000
_cell_angle_gamma 90.000000
_cell_volume 2958.111177
_symmetry_space_group_name_H-M "C M C M"
_symmetry_group_IT_number 63
_symmetry_cell_setting 'orthorhombic'
loop_
_space_group_symop_operation_xyz
x,y,z
-x,-y,1/2+z
x,-y,-z
-x,y,1/2-z
-x,-y,-z
x,y,1/2-z
-x,y,z
x,-y,1/2+z
1/2+x,1/2+y,z
1/2-x,1/2-y,1/2+z
1/2+x,1/2-y,-z
1/2-x,1/2+y,1/2-z
1/2-x,1/2-y,-z
1/2+x,1/2+y,1/2-z
1/2-x,1/2+y,z
1/2+x,1/2-y,1/2+z
loop_
_atom_site_type_symbol
_atom_site_label
_atom_site_fract_x
_atom_site_fract_y
_atom_site_fract_z
Si Si1 0.189777 0.173608 0.104617
Si Si2 0.058500 0.611455 0.902857
Si Si3 0.417619 0.393828 0.902034
Si Si4 0.799451 0.392295 0.902204
O O1 0.189880 0.243286 0.250000
O O2 0.140834 0.095103 0.104368
O O3 0.240559 0.101702 0.102680
O O4 0.189074 0.264241 0.978149
O O5 0.076193 0.594502 0.750000
O O6 0.072734 0.751298 0.946459
O O7 0.000000 0.608439 0.899579
O O8 0.074174 0.500000 0.000000
O O9 0.436443 0.405663 0.750000
O O10 0.436810 0.500000 0.000000
O O11 0.817214 0.397287 0.750000
O O12 0.816956 0.500000 0.000000
#
# Coordination Sequence:
#
# PCOD9470050 Si02
#       4
#    16  16  16  16
#     4   9  19  34  49  69  99 134 173 216 261 310
#     4   9  19  37  59  82 109 141 177 218 264 315
#     4  10  21  36  55  81 112 143 177 219 266 318
#     4  10  19  31  49  70  95 131 174 219 265 313
#
# _framework density 21.635427
#
# number of rings (size 3 to 8) (size 9 to 14) (size 15 to 20)
#    0.000    2.500    0.000    1.500    0.000    4.500 
#    0.000    2.500    0.000    0.000    0.000    0.000 
#    0.000    0.000    0.000    0.000    0.000    0.000 
#
# Total GULP energy -178583.534782 kJ/mol
# GULP energy per Si atom -5580.735462 kJ/mol
# Density = 2.158618 g / cm^3
# Si number density = 21.635427 Si / 1000 Ang^3
#
#
#
# Elastic Constant Matrix: (Units=GPa)
#
#
# Indices 1 2 3 4 5 6 
#
# 1 61.3460 6.3416 10.3713 0.0000 0.0000 0.0000
# 2 6.3416 128.9891 95.3705 0.0000 0.0000 0.0000
# 3 10.3713 95.3705 175.6456 0.0000 0.0000 0.0000
# 4 0.0000 0.0000 0.0000 43.2668 0.0000 0.0000
# 5 0.0000 0.0000 0.0000 0.0000 -20.4435 0.0000
# 6 0.0000 0.0000 0.0000 0.0000 0.0000 0.6946
#
#
#
# Elastic Compliance Matrix: (Units=1/GPa)
#
#
# Indices 1 2 3 4 5 6 
#
# 1 0.016467 -0.000151 -0.000890 0.000000 0.000000 0.000000
# 2 -0.000151 0.012954 -0.007025 0.000000 0.000000 0.000000
# 3 -0.000890 -0.007025 0.009560 0.000000 0.000000 0.000000
# 4 0.000000 0.000000 0.000000 0.023112 0.000000 0.000000
# 5 0.000000 0.000000 0.000000 0.000000 -0.048915 0.000000
# 6 0.000000 0.000000 0.000000 0.000000 0.000000 1.439624
#
#
# Mechanical properties :
#
#
# Convention : Reuss Voigt Hill
#
# Bulk Modulus (GPa) = 43.76640 65.57196 54.66918
# Shear Modulus (GPa) = 3.38627 21.63008 12.50818
#
# Velocity S-wave (km/s) = 1.25242 3.16532 2.40705
# Velocity P-wave (km/s) = 4.72910 6.61305 5.74877
#
# Compressibility (1/GPa) = 0.02284858
#
# Stress axis : x y z
#
# Youngs Moduli (GPa) = 60.72712 77.19734 104.60255
#
# Poissons Ratio (x) = 0.01169 0.09310
# Poissons Ratio (y) = 0.00920 0.73479
# Poissons Ratio (z) = 0.05405 0.54228
#
# Static dielectric constant tensor:
#      x y z
#    x 1.816410 0.000000 0.000000 
#    y 0.000000 1.779010 0.000000 
#    z 0.000000 0.000000 1.799040 
# 
# From -- ./inp_files/13708.got.cif
#   From: 2010.05.17/outbox.cif.g08.bks.cpg/sg63_7_cif.got.tgz:13708.got - 2010.06.03 15:47:04.
