data_PCOD9470478
_publ_section_title
;
Structure prediction by ZEFSAII (Michael W. Deem and Ramdas Pophale) SiO2 
 PCOD9470478
Probable space group: C M C M
;
_chemical_formula_sum "Si O2"
_cell_formula_units_Z 72
_cell_length_a 16.646857
_cell_length_b 28.022011
_cell_length_c 8.525332
_cell_angle_alpha 90.000000
_cell_angle_beta 90.000000
_cell_angle_gamma 90.000000
_cell_volume 3976.883316
_symmetry_space_group_name_H-M "C M C M"
_symmetry_group_IT_number 63
_symmetry_cell_setting 'orthorhombic'
loop_
_space_group_symop_operation_xyz
x,y,z
-x,-y,1/2+z
x,-y,-z
-x,y,1/2-z
-x,-y,-z
x,y,1/2-z
-x,y,z
x,-y,1/2+z
1/2+x,1/2+y,z
1/2-x,1/2-y,1/2+z
1/2+x,1/2-y,-z
1/2-x,1/2+y,1/2-z
1/2-x,1/2-y,-z
1/2+x,1/2+y,1/2-z
1/2-x,1/2+y,z
1/2+x,1/2-y,1/2+z
loop_
_atom_site_type_symbol
_atom_site_label
_atom_site_fract_x
_atom_site_fract_y
_atom_site_fract_z
Si Si1 0.185294 0.052492 0.562144
Si Si2 0.158961 0.392590 0.563003
Si Si3 0.751372 0.196308 0.938900
Si Si4 0.000000 0.554769 0.562611
Si Si5 0.911885 0.142470 0.559821
O O1 0.194555 0.052519 0.750000
O O2 0.266427 0.074303 0.489518
O O3 0.113183 0.088447 0.521224
O O4 0.171351 0.000000 0.500000
O O5 0.153137 0.391392 0.750000
O O6 0.182589 0.339646 0.501543
O O7 0.078447 0.416216 0.494634
O O8 0.747981 0.195423 0.750000
O O9 0.837122 0.174434 0.991834
O O10 0.750000 0.250000 0.000000
O O11 0.000000 0.500000 0.500000
O O12 0.000000 0.552512 0.750000
O O13 0.913811 0.145829 0.750000
O O14 0.000000 0.155261 0.499882
#
# Coordination Sequence:
#
# PCOD9470478 Si02
#       5
#    16  16  16   8  16
#     4  10  19  32  52  78 109 146 184 224 273 328
#     4  11  22  38  58  82 112 148 192 236 283 341
#     4  10  20  37  60  83 111 147 187 235 289 341
#     4  12  24  40  60  86 120 154 192 240 293 350
#     4   8  16  32  53  77 105 139 180 226 273 323
#
# _framework density 18.104628999999999
#
# number of rings (size 3 to 8) (size 9 to 14) (size 15 to 20)
#    0.000    2.000    0.000    6.333    0.000    0.444 
#    2.000    0.000    0.000   22.667    0.000    0.000 
#    0.000    0.000    0.000    0.000    0.000    0.000 
#
# Total GULP energy -200889.781758 kJ/mol
# GULP energy per Si atom -5580.271716 kJ/mol
# Density = 1.806342 g / cm^3
# Si number density = 18.104629 Si / 1000 Ang^3
#
#
#
# Elastic Constant Matrix: (Units=GPa)
#
#
# Indices 1 2 3 4 5 6 
#
# 1 125.7658 66.0086 39.9468 0.0000 0.0000 0.0000
# 2 66.0086 169.8854 50.9286 0.0000 0.0000 0.0000
# 3 39.9468 50.9286 111.7085 0.0000 0.0000 0.0000
# 4 0.0000 0.0000 0.0000 33.8824 0.0000 0.0000
# 5 0.0000 0.0000 0.0000 0.0000 16.7446 0.0000
# 6 0.0000 0.0000 0.0000 0.0000 0.0000 15.6747
#
#
#
# Elastic Compliance Matrix: (Units=1/GPa)
#
#
# Indices 1 2 3 4 5 6 
#
# 1 0.010427 -0.003398 -0.002180 0.000000 0.000000 0.000000
# 2 -0.003398 0.007926 -0.002398 0.000000 0.000000 0.000000
# 3 -0.002180 -0.002398 0.010825 0.000000 0.000000 0.000000
# 4 0.000000 0.000000 0.000000 0.029514 0.000000 0.000000
# 5 0.000000 0.000000 0.000000 0.000000 0.059721 0.000000
# 6 0.000000 0.000000 0.000000 0.000000 0.000000 0.063797
#
#
# Mechanical properties :
#
#
# Convention : Reuss Voigt Hill
#
# Bulk Modulus (GPa) = 75.61001 80.12527 77.86764
# Shear Modulus (GPa) = 24.68298 29.95872 27.32085
#
# Velocity S-wave (km/s) = 3.69636 4.07228 3.88887
# Velocity P-wave (km/s) = 7.75055 8.15256 7.95409
#
# Compressibility (1/GPa) = 0.01322576
#
# Stress axis : x y z
#
# Youngs Moduli (GPa) = 95.90463 126.17428 92.38211
#
# Poissons Ratio (x) = 0.42874 0.20135
# Poissons Ratio (y) = 0.32589 0.22155
# Poissons Ratio (z) = 0.20902 0.30259
#
# Static dielectric constant tensor:
#      x y z
#    x 1.616070 0.000000 0.000000 
#    y 0.000000 1.602270 0.000000 
#    z 0.000000 0.000000 1.617140 
# 
# From -- ./inp_files/4663.got.cif
#   From: 2010.05.17/outbox.cif.g08.bks.cpg/sg63_3_cif.got.tgz:4663.got - 2010.06.03 15:47:04.
