data_PCOD9470791
_publ_section_title
;
Structure prediction by ZEFSAII (Michael W. Deem and Ramdas Pophale) SiO2 
 PCOD9470791
Probable space group: C M C M
;
_chemical_formula_sum "Si O2"
_cell_formula_units_Z 104
_cell_length_a 32.544074
_cell_length_b 20.052786
_cell_length_c 9.058538
_cell_angle_alpha 90.000000
_cell_angle_beta 90.000000
_cell_angle_gamma 90.000000
_cell_volume 5911.596024
_symmetry_space_group_name_H-M "C M C M"
_symmetry_group_IT_number 63
_symmetry_cell_setting 'orthorhombic'
loop_
_space_group_symop_operation_xyz
x,y,z
-x,-y,1/2+z
x,-y,-z
-x,y,1/2-z
-x,-y,-z
x,y,1/2-z
-x,y,z
x,-y,1/2+z
1/2+x,1/2+y,z
1/2-x,1/2-y,1/2+z
1/2+x,1/2-y,-z
1/2-x,1/2+y,1/2-z
1/2-x,1/2-y,-z
1/2+x,1/2+y,1/2-z
1/2-x,1/2+y,z
1/2+x,1/2-y,1/2+z
loop_
_atom_site_type_symbol
_atom_site_label
_atom_site_fract_x
_atom_site_fract_y
_atom_site_fract_z
Si Si1 0.921089 0.838309 0.072785
Si Si2 0.271844 0.350929 0.923304
Si Si3 0.048047 0.430896 0.072718
Si Si4 0.306416 0.799174 0.424295
Si Si5 0.843050 0.929468 0.426448
Si Si6 0.901551 0.300221 0.071742
Si Si7 0.500000 0.427123 0.071938
O O1 0.922397 0.829717 0.250000
O O2 0.879033 0.877085 0.035205
O O3 0.959684 0.884472 0.030350
O O4 0.920547 0.766484 0.996886
O O5 0.271680 0.366821 0.750000
O O6 0.292633 0.277845 0.942359
O O7 0.225990 0.343340 0.986082
O O8 0.300081 0.402213 0.011513
O O9 0.050825 0.436900 0.250000
O O10 0.074019 0.366507 0.027172
O O11 0.000000 0.421158 0.034169
O O12 0.062018 0.500000 0.000000
O O13 0.303217 0.814900 0.250000
O O14 0.353617 0.805744 0.471186
O O15 0.841605 0.935823 0.250000
O O16 0.852737 0.000000 0.500000
O O17 0.903043 0.294693 0.250000
O O18 0.500000 0.434670 0.250000
O O19 0.500000 0.500000 0.000000
#
# Coordination Sequence:
#
# PCOD9470791 Si02
#       7
#    16  16  16  16  16  16   8
#     4  10  22  37  55  81 113 146 186 233 280 330
#     4  10  19  33  54  79 106 141 183 223 271 328
#     4   9  19  36  57  82 111 143 179 218 266 325
#     4   9  18  33  53  78 109 142 176 222 273 323
#     4  11  22  36  55  79 110 148 189 234 279 327
#     4  10  20  35  57  85 113 144 185 230 274 326
#     4  10  22  40  56  78 111 150 191 232 281 334
#
# _framework density 17.592541000000001
#
# number of rings (size 3 to 8) (size 9 to 14) (size 15 to 20)
#    0.000    2.154    1.538    1.385    1.077    3.077 
#    0.000    0.769    0.000    1.846    0.000    0.000 
#    0.000    0.000    0.000    0.000    0.000    0.000 
#
# Total GULP energy -290253.717378 kJ/mol
# GULP energy per Si atom -5581.802257 kJ/mol
# Density = 1.755250 g / cm^3
# Si number density = 17.592541 Si / 1000 Ang^3
#
#
#
# Elastic Constant Matrix: (Units=GPa)
#
#
# Indices 1 2 3 4 5 6 
#
# 1 108.8508 76.2147 32.9408 0.0000 0.0000 0.0000
# 2 76.2147 143.7020 49.6405 0.0000 0.0000 0.0000
# 3 32.9408 49.6405 31.2419 0.0000 0.0000 0.0000
# 4 0.0000 0.0000 0.0000 34.4337 0.0000 0.0000
# 5 0.0000 0.0000 0.0000 0.0000 18.9187 0.0000
# 6 0.0000 0.0000 0.0000 0.0000 0.0000 23.2393
#
#
#
# Elastic Compliance Matrix: (Units=1/GPa)
#
#
# Indices 1 2 3 4 5 6 
#
# 1 0.015308 -0.005638 -0.007183 0.000000 0.000000 0.000000
# 2 -0.005638 0.017502 -0.021865 0.000000 0.000000 0.000000
# 3 -0.007183 -0.021865 0.074322 0.000000 0.000000 0.000000
# 4 0.000000 0.000000 0.000000 0.029041 0.000000 0.000000
# 5 0.000000 0.000000 0.000000 0.000000 0.052858 0.000000
# 6 0.000000 0.000000 0.000000 0.000000 0.000000 0.043031
#
#
# Mechanical properties :
#
#
# Convention : Reuss Voigt Hill
#
# Bulk Modulus (GPa) = 26.48140 66.82074 46.65107
# Shear Modulus (GPa) = 15.92263 23.65158 19.78711
#
# Velocity S-wave (km/s) = 3.01172 3.67060 3.35736
# Velocity P-wave (km/s) = 5.21337 7.48527 6.45014
#
# Compressibility (1/GPa) = 0.03776235
#
# Stress axis : x y z
#
# Youngs Moduli (GPa) = 65.32610 57.13727 13.45492
#
# Poissons Ratio (x) = 0.32212 0.09664
# Poissons Ratio (y) = 0.36828 0.29419
# Poissons Ratio (z) = 0.46921 1.24928
#
# Static dielectric constant tensor:
#      x y z
#    x 1.597780 0.000000 0.000000 
#    y 0.000000 1.569260 0.000000 
#    z 0.000000 0.000000 1.584060 
# 
# From -- ./inp_files/14491.got.cif
#   From: 2010.05.17/outbox.cif.g08.bks.cpg/sg63_8_cif.got.tgz:14491.got - 2010.06.03 15:47:04.
