data_PCOD9470087
_publ_section_title
;
Structure prediction by ZEFSAII (Michael W. Deem and Ramdas Pophale) SiO2 
 PCOD9470087
Probable space group: C M C M
;
_chemical_formula_sum "Si O2"
_cell_formula_units_Z 80
_cell_length_a 27.715482
_cell_length_b 18.597022
_cell_length_c 8.227412
_cell_angle_alpha 90.000000
_cell_angle_beta 90.000000
_cell_angle_gamma 90.000000
_cell_volume 4240.617356
_symmetry_space_group_name_H-M "C M C M"
_symmetry_group_IT_number 63
_symmetry_cell_setting 'orthorhombic'
loop_
_space_group_symop_operation_xyz
x,y,z
-x,-y,1/2+z
x,-y,-z
-x,y,1/2-z
-x,-y,-z
x,y,1/2-z
-x,y,z
x,-y,1/2+z
1/2+x,1/2+y,z
1/2-x,1/2-y,1/2+z
1/2+x,1/2-y,-z
1/2-x,1/2+y,1/2-z
1/2-x,1/2-y,-z
1/2+x,1/2+y,1/2-z
1/2-x,1/2+y,z
1/2+x,1/2-y,1/2+z
loop_
_atom_site_type_symbol
_atom_site_label
_atom_site_fract_x
_atom_site_fract_y
_atom_site_fract_z
Si Si1 0.552121 0.583416 0.444419
Si Si2 0.948206 0.416452 0.446425
Si Si3 0.343261 0.917152 0.053386
Si Si4 0.250892 0.667991 0.946739
Si Si5 0.655073 0.417191 0.443724
O O1 0.552284 0.500000 0.500000
O O2 0.553010 0.585098 0.250000
O O3 0.500000 0.614014 0.499363
O O4 0.602903 0.613811 0.505089
O O5 0.948213 0.500000 0.500000
O O6 0.948338 0.413636 0.250000
O O7 0.895951 0.388105 0.501713
O O8 0.000000 0.385396 0.502806
O O9 0.343003 0.915777 0.250000
O O10 0.297350 0.872493 0.994931
O O11 0.338888 0.000000 0.000000
O O12 0.251081 0.664967 0.750000
O O13 0.299252 0.627775 0.005544
O O14 0.250000 0.750000 0.000000
O O15 0.658700 0.500000 0.500000
O O16 0.656361 0.417795 0.250000
#
# Coordination Sequence:
#
# PCOD9470087 Si02
#       5
#    16  16  16  16  16
#     4   9  16  26  43  69  98 125 153 187 231 281
#     4   8  13  22  39  64  92 118 143 176 220 266
#     4   9  17  30  48  71  96 121 153 191 229 273
#     4  10  22  36  49  67  92 125 163 199 239 285
#     4  10  19  31  49  73  97 123 158 197 239 287
#
# _framework density 18.865178
#
# number of rings (size 3 to 8) (size 9 to 14) (size 15 to 20)
#    0.000    2.800    0.000    3.000    0.000    3.600 
#    0.000    0.000    0.000    1.200    0.000    2.800 
#    0.000    0.000    0.000    0.000    0.000    0.000 
#
# Total GULP energy -222708.323690 kJ/mol
# GULP energy per Si atom -5567.708092 kJ/mol
# Density = 1.882224 g / cm^3
# Si number density = 18.865178 Si / 1000 Ang^3
#
#
#
# Elastic Constant Matrix: (Units=GPa)
#
#
# Indices 1 2 3 4 5 6 
#
# 1 264.6546 72.1955 23.9663 0.0000 0.0000 0.0000
# 2 72.1955 51.1537 3.3272 0.0000 0.0000 0.0000
# 3 23.9663 3.3272 18.0951 0.0000 0.0000 0.0000
# 4 0.0000 0.0000 0.0000 17.9049 0.0000 0.0000
# 5 0.0000 0.0000 0.0000 0.0000 19.4060 0.0000
# 6 0.0000 0.0000 0.0000 0.0000 0.0000 -3.7201
#
#
#
# Elastic Compliance Matrix: (Units=1/GPa)
#
#
# Indices 1 2 3 4 5 6 
#
# 1 0.007043 -0.009446 -0.007591 0.000000 0.000000 0.000000
# 2 -0.009446 0.032455 0.006543 0.000000 0.000000 0.000000
# 3 -0.007591 0.006543 0.064114 0.000000 0.000000 0.000000
# 4 0.000000 0.000000 0.000000 0.055851 0.000000 0.000000
# 5 0.000000 0.000000 0.000000 0.000000 0.051530 0.000000
# 6 0.000000 0.000000 0.000000 0.000000 0.000000 -0.268812
#
#
# Mechanical properties :
#
#
# Convention : Reuss Voigt Hill
#
# Bulk Modulus (GPa) = 12.10293 59.20905 35.65599
# Shear Modulus (GPa) = -538.17423 22.34580 -257.91422
#
# Velocity S-wave (km/s) = -16.90838 3.44539 -11.70518
# Velocity P-wave (km/s) = 19.35876 6.87613 12.79610
#
# Compressibility (1/GPa) = 0.08262460
#
# Stress axis : x y z
#
# Youngs Moduli (GPa) = 141.99121 30.81211 15.59711
#
# Poissons Ratio (x) = 0.29105 0.11840
# Poissons Ratio (y) = 1.34124 -0.10206
# Poissons Ratio (z) = 1.07785 -0.20161
#
# Static dielectric constant tensor:
#      x y z
#    x 1.755870 0.000000 0.000000 
#    y 0.000000 1.590600 0.000000 
#    z 0.000000 0.000000 1.650990 
# 
# From -- ./inp_files/12031.got.cif
#   From: 2010.05.17/outbox.cif.g08.bks.cpg/sg63_7_cif.got.tgz:12031.got - 2010.06.03 15:47:04.
