data_PCOD9470819
_publ_section_title
;
Structure prediction by ZEFSAII (Michael W. Deem and Ramdas Pophale) SiO2 
 PCOD9470819
Probable space group: C M C M
;
_chemical_formula_sum "Si O2"
_cell_formula_units_Z 80
_cell_length_a 20.288528
_cell_length_b 13.744041
_cell_length_c 14.440713
_cell_angle_alpha 90.000000
_cell_angle_beta 90.000000
_cell_angle_gamma 90.000000
_cell_volume 4026.740265
_symmetry_space_group_name_H-M "C M C M"
_symmetry_group_IT_number 63
_symmetry_cell_setting 'orthorhombic'
loop_
_space_group_symop_operation_xyz
x,y,z
-x,-y,1/2+z
x,-y,-z
-x,y,1/2-z
-x,-y,-z
x,y,1/2-z
-x,y,z
x,-y,1/2+z
1/2+x,1/2+y,z
1/2-x,1/2-y,1/2+z
1/2+x,1/2-y,-z
1/2-x,1/2+y,1/2-z
1/2-x,1/2-y,-z
1/2+x,1/2+y,1/2-z
1/2-x,1/2+y,z
1/2+x,1/2-y,1/2+z
loop_
_atom_site_type_symbol
_atom_site_label
_atom_site_fract_x
_atom_site_fract_y
_atom_site_fract_z
Si Si1 0.106435 0.430749 0.642946
Si Si2 0.575399 0.741613 0.969830
Si Si3 0.241675 0.975203 0.642725
Si Si4 0.421712 0.148247 0.647115
Si Si5 0.292134 0.652961 0.977557
O O1 0.084865 0.424837 0.750000
O O2 0.076726 0.342480 0.586515
O O3 0.185527 0.428201 0.639787
O O4 0.089042 0.539197 0.610426
O O5 0.500000 0.704109 0.969258
O O6 0.635646 0.675912 0.936036
O O7 0.598427 0.772120 0.073144
O O8 0.220727 0.979215 0.750000
O O9 0.200226 0.908878 0.572328
O O10 0.244402 0.081885 0.595527
O O11 0.391651 0.155521 0.750000
O O12 0.500000 0.159882 0.654991
O O13 0.250000 0.750000 0.000000
#
# Coordination Sequence:
#
# PCOD9470819 Si02
#       5
#    16  16  16  16  16
#     4  10  19  33  54  82 116 150 190 242 304 362
#     4  11  22  35  57  87 119 155 195 244 301 356
#     4  10  23  40  60  87 116 156 207 253 297 351
#     4   9  18  31  49  78 115 153 190 231 291 363
#     4  11  22  39  63  87 121 158 202 251 298 357
#
# _framework density 19.867187000000001
#
# number of rings (size 3 to 8) (size 9 to 14) (size 15 to 20)
#    0.000    1.800    2.000    2.400    2.800    5.200 
#    0.000    2.000    0.000    1.200    0.000    0.000 
#    0.000    0.000    0.000    0.000    0.000    0.000 
#
# Total GULP energy -223129.888990 kJ/mol
# GULP energy per Si atom -5578.247225 kJ/mol
# Density = 1.982197 g / cm^3
# Si number density = 19.867187 Si / 1000 Ang^3
#
#
#
# Elastic Constant Matrix: (Units=GPa)
#
#
# Indices 1 2 3 4 5 6 
#
# 1 78.1220 17.3027 8.0810 0.0000 0.0000 0.0000
# 2 17.3027 59.5208 19.3493 0.0000 0.0000 0.0000
# 3 8.0810 19.3493 74.5989 0.0000 0.0000 0.0000
# 4 0.0000 0.0000 0.0000 4.9067 0.0000 0.0000
# 5 0.0000 0.0000 0.0000 0.0000 18.6770 0.0000
# 6 0.0000 0.0000 0.0000 0.0000 0.0000 27.4084
#
#
#
# Elastic Compliance Matrix: (Units=1/GPa)
#
#
# Indices 1 2 3 4 5 6 
#
# 1 0.013698 -0.003822 -0.000493 0.000000 0.000000 0.000000
# 2 -0.003822 0.019414 -0.004622 0.000000 0.000000 0.000000
# 3 -0.000493 -0.004622 0.014657 0.000000 0.000000 0.000000
# 4 0.000000 0.000000 0.000000 0.203803 0.000000 0.000000
# 5 0.000000 0.000000 0.000000 0.000000 0.053542 0.000000
# 6 0.000000 0.000000 0.000000 0.000000 0.000000 0.036485
#
#
# Mechanical properties :
#
#
# Convention : Reuss Voigt Hill
#
# Bulk Modulus (GPa) = 33.44785 33.52306 33.48545
# Shear Modulus (GPa) = 13.53412 21.36567 17.44990
#
# Velocity S-wave (km/s) = 2.61287 3.28293 2.96687
# Velocity P-wave (km/s) = 5.09657 5.59288 5.35049
#
# Compressibility (1/GPa) = 0.02989729
#
# Stress axis : x y z
#
# Youngs Moduli (GPa) = 73.00382 51.50844 68.22618
#
# Poissons Ratio (x) = 0.19686 0.03360
# Poissons Ratio (y) = 0.27901 0.31532
# Poissons Ratio (z) = 0.03596 0.23805
#
# Static dielectric constant tensor:
#      x y z
#    x 1.728510 0.000000 0.000000 
#    y 0.000000 1.691260 0.000000 
#    z 0.000000 0.000000 1.769590 
# 
# From -- ./inp_files/35100.got.cif
#   From: 2010.05.17/outbox.cif.g08.bks.cpg/sg63_18_cif.got.tgz:35100.got - 2010.06.03 15:47:04.
