data_PCOD9470975
_publ_section_title
;
Structure prediction by ZEFSAII (Michael W. Deem and Ramdas Pophale) SiO2 
 PCOD9470975
Probable space group: C M C M
;
_chemical_formula_sum "Si O2"
_cell_formula_units_Z 128
_cell_length_a 19.473024
_cell_length_b 20.196499
_cell_length_c 19.490375
_cell_angle_alpha 90.000000
_cell_angle_beta 90.000000
_cell_angle_gamma 90.000000
_cell_volume 7665.309353
_symmetry_space_group_name_H-M "C M C M"
_symmetry_group_IT_number 63
_symmetry_cell_setting 'orthorhombic'
loop_
_space_group_symop_operation_xyz
x,y,z
-x,-y,1/2+z
x,-y,-z
-x,y,1/2-z
-x,-y,-z
x,y,1/2-z
-x,y,z
x,-y,1/2+z
1/2+x,1/2+y,z
1/2-x,1/2-y,1/2+z
1/2+x,1/2-y,-z
1/2-x,1/2+y,1/2-z
1/2-x,1/2-y,-z
1/2+x,1/2+y,1/2-z
1/2-x,1/2+y,z
1/2+x,1/2-y,1/2+z
loop_
_atom_site_type_symbol
_atom_site_label
_atom_site_fract_x
_atom_site_fract_y
_atom_site_fract_z
Si Si1 0.579745 0.923213 0.670790
Si Si2 0.922266 0.164943 0.624297
Si Si3 0.268205 0.354478 0.327510
Si Si4 0.709995 0.188430 0.532623
Si Si5 0.572769 0.421394 0.986597
Si Si6 0.420751 0.810253 0.942569
Si Si7 0.219056 0.067747 0.044252
Si Si8 0.285963 0.995732 0.827792
O O1 0.587297 0.898256 0.750000
O O2 0.500000 0.942018 0.662295
O O3 0.595556 0.867095 0.614001
O O4 0.632395 0.984085 0.663254
O O5 0.851297 0.149727 0.663824
O O6 0.921358 0.115940 0.559002
O O7 0.916359 0.239645 0.595874
O O8 0.000000 0.158467 0.655764
O O9 0.251264 0.333534 0.250000
O O10 0.229489 0.314215 0.387217
O O11 0.241842 0.430035 0.336660
O O12 0.750000 0.250000 0.500000
O O13 0.631714 0.190321 0.506104
O O14 0.740988 0.122065 0.499076
O O15 0.500000 0.401747 0.954529
O O16 0.641434 0.407582 0.945668
O O17 0.571064 0.500000 0.000000
O O18 0.500000 0.819550 0.964028
O O19 0.251946 0.051083 0.116427
O O20 0.218386 0.000000 0.000000
O O21 0.269160 0.975887 0.750000
#
# Coordination Sequence:
#
# PCOD9470975 Si02
#       8
#    16  16  16  16  16  16  16  16
#     4   9  18  33  53  80 112 145 182 229 286 343
#     4  10  19  34  52  79 113 144 177 223 285 344
#     4  11  22  36  54  80 113 149 184 226 282 334
#     4  12  21  36  56  82 111 146 186 234 275 330
#     4   9  16  27  47  72  98 132 180 226 265 318
#     4  10  20  34  55  81 112 144 181 231 284 335
#     4  11  18  32  55  75 100 144 188 227 274 328
#     4  10  20  34  53  79 110 145 186 231 276 332
#
# _framework density 16.698608
#
# number of rings (size 3 to 8) (size 9 to 14) (size 15 to 20)
#    0.000    1.750    5.000    0.750    0.000    0.750 
#    0.000    2.500    0.000    4.500    0.000    0.000 
#    0.000    5.000    0.000    0.000    0.000    0.000 
#
# Total GULP energy -356410.101896 kJ/mol
# GULP energy per Si atom -5568.907842 kJ/mol
# Density = 1.666060 g / cm^3
# Si number density = 16.698608 Si / 1000 Ang^3
#
#
#
# Elastic Constant Matrix: (Units=GPa)
#
#
# Indices 1 2 3 4 5 6 
#
# 1 121.5264 27.6095 60.5344 0.0000 0.0000 0.0000
# 2 27.6095 60.3748 27.5592 0.0000 0.0000 0.0000
# 3 60.5344 27.5592 104.2580 0.0000 0.0000 0.0000
# 4 0.0000 0.0000 0.0000 20.0759 0.0000 0.0000
# 5 0.0000 0.0000 0.0000 0.0000 29.1230 0.0000
# 6 0.0000 0.0000 0.0000 0.0000 0.0000 27.4382
#
#
#
# Elastic Compliance Matrix: (Units=1/GPa)
#
#
# Indices 1 2 3 4 5 6 
#
# 1 0.011927 -0.002608 -0.006236 0.000000 0.000000 0.000000
# 2 -0.002608 0.019406 -0.003616 0.000000 0.000000 0.000000
# 3 -0.006236 -0.003616 0.014168 0.000000 0.000000 0.000000
# 4 0.000000 0.000000 0.000000 0.049811 0.000000 0.000000
# 5 0.000000 0.000000 0.000000 0.000000 0.034337 0.000000
# 6 0.000000 0.000000 0.000000 0.000000 0.000000 0.036446
#
#
# Mechanical properties :
#
#
# Convention : Reuss Voigt Hill
#
# Bulk Modulus (GPa) = 48.58421 57.50727 53.04574
# Shear Modulus (GPa) = 25.26849 26.69116 25.97983
#
# Velocity S-wave (km/s) = 3.89422 4.00234 3.94865
# Velocity P-wave (km/s) = 7.02694 7.47472 7.25429
#
# Compressibility (1/GPa) = 0.02058282
#
# Stress axis : x y z
#
# Youngs Moduli (GPa) = 83.84070 51.52992 70.58150
#
# Poissons Ratio (x) = 0.13439 0.44014
# Poissons Ratio (y) = 0.21865 0.25519
# Poissons Ratio (z) = 0.52282 0.18631
#
# Static dielectric constant tensor:
#      x y z
#    x 1.614580 0.000000 0.000000 
#    y 0.000000 1.551800 0.000000 
#    z 0.000000 0.000000 1.538110 
# 
# From -- ./inp_files/56048.got.cif
#   From: 2010.05.17/outbox.cif.g08.bks.cpg/sg63_29_cif.got.tgz:56048.got - 2010.06.03 15:47:04.
