data_PCOD9470889
_publ_section_title
;
Structure prediction by ZEFSAII (Michael W. Deem and Ramdas Pophale) SiO2 
 PCOD9470889
Probable space group: C M C M
;
_chemical_formula_sum "Si O2"
_cell_formula_units_Z 96
_cell_length_a 28.770398
_cell_length_b 20.582518
_cell_length_c 9.274412
_cell_angle_alpha 90.000000
_cell_angle_beta 90.000000
_cell_angle_gamma 90.000000
_cell_volume 5492.002908
_symmetry_space_group_name_H-M "C M C M"
_symmetry_group_IT_number 63
_symmetry_cell_setting 'orthorhombic'
loop_
_space_group_symop_operation_xyz
x,y,z
-x,-y,1/2+z
x,-y,-z
-x,y,1/2-z
-x,-y,-z
x,y,1/2-z
-x,y,z
x,-y,1/2+z
1/2+x,1/2+y,z
1/2-x,1/2-y,1/2+z
1/2+x,1/2-y,-z
1/2-x,1/2+y,1/2-z
1/2-x,1/2-y,-z
1/2+x,1/2+y,1/2-z
1/2-x,1/2+y,z
1/2+x,1/2-y,1/2+z
loop_
_atom_site_type_symbol
_atom_site_label
_atom_site_fract_x
_atom_site_fract_y
_atom_site_fract_z
Si Si1 0.093271 0.200622 0.423434
Si Si2 0.055854 0.937790 0.914280
Si Si3 0.866165 0.569242 0.423441
Si Si4 0.553969 0.172296 0.422564
Si Si5 0.689795 0.302172 0.084587
Si Si6 0.224707 0.652762 0.415756
O O1 0.091277 0.206236 0.250000
O O2 0.069700 0.132951 0.469657
O O3 0.068449 0.262380 0.494948
O O4 0.145578 0.196365 0.481265
O O5 0.072407 0.942289 0.750000
O O6 0.000000 0.940753 0.913941
O O7 0.073703 0.000000 0.000000
O O8 0.868637 0.500000 0.500000
O O9 0.866962 0.561178 0.250000
O O10 0.909817 0.615406 0.462327
O O11 0.818133 0.606798 0.459482
O O12 0.558971 0.183133 0.250000
O O13 0.500000 0.155989 0.451402
O O14 0.678444 0.319447 0.250000
O O15 0.706406 0.227056 0.085108
O O16 0.731197 0.346083 0.020790
O O17 0.237972 0.637034 0.250000
#
# Coordination Sequence:
#
# PCOD9470889 Si02
#       6
#    16  16  16  16  16  16
#     4  11  21  34  55  84 116 146 181 229 281 330
#     4   9  19  35  53  75 105 141 180 221 266 321
#     4  10  21  38  57  81 113 150 190 235 285 339
#     4  10  21  38  58  81 112 149 191 239 288 337
#     4  10  19  33  56  83 110 138 178 222 271 329
#     4   9  18  35  55  78 109 140 177 224 272 323
#
# _framework density 17.479963000000001
#
# number of rings (size 3 to 8) (size 9 to 14) (size 15 to 20)
#    0.000    2.167    1.667    1.500    0.000    4.667 
#    0.000    2.500    0.000    0.000    0.000    0.000 
#    0.000    0.000    0.000    0.000    0.000    0.000 
#
# Total GULP energy -267684.851759 kJ/mol
# GULP energy per Si atom -5576.767745 kJ/mol
# Density = 1.744018 g / cm^3
# Si number density = 17.479963 Si / 1000 Ang^3
#
#
#
# Elastic Constant Matrix: (Units=GPa)
#
#
# Indices 1 2 3 4 5 6 
#
# 1 67.7680 42.8431 26.5902 0.0000 0.0000 0.0000
# 2 42.8431 120.1204 44.5134 0.0000 0.0000 0.0000
# 3 26.5902 44.5134 36.6497 0.0000 0.0000 0.0000
# 4 0.0000 0.0000 0.0000 32.7107 0.0000 0.0000
# 5 0.0000 0.0000 0.0000 0.0000 21.8274 0.0000
# 6 0.0000 0.0000 0.0000 0.0000 0.0000 8.7598
#
#
#
# Elastic Compliance Matrix: (Units=1/GPa)
#
#
# Indices 1 2 3 4 5 6 
#
# 1 0.021371 -0.003412 -0.011361 0.000000 0.000000 0.000000
# 2 -0.003412 0.015684 -0.016573 0.000000 0.000000 0.000000
# 3 -0.011361 -0.016573 0.055656 0.000000 0.000000 0.000000
# 4 0.000000 0.000000 0.000000 0.030571 0.000000 0.000000
# 5 0.000000 0.000000 0.000000 0.000000 0.045814 0.000000
# 6 0.000000 0.000000 0.000000 0.000000 0.000000 0.114158
#
#
# Mechanical properties :
#
#
# Convention : Reuss Voigt Hill
#
# Bulk Modulus (GPa) = 33.31184 50.27018 41.79101
# Shear Modulus (GPa) = 14.04681 20.03234 17.03957
#
# Velocity S-wave (km/s) = 2.83785 3.38896 3.12558
# Velocity P-wave (km/s) = 5.46227 6.64339 6.08157
#
# Compressibility (1/GPa) = 0.03001935
#
# Stress axis : x y z
#
# Youngs Moduli (GPa) = 46.79200 63.76118 17.96740
#
# Poissons Ratio (x) = 0.21758 0.20412
# Poissons Ratio (y) = 0.15968 0.29777
# Poissons Ratio (z) = 0.53158 1.05670
#
# Static dielectric constant tensor:
#      x y z
#    x 1.594420 0.000000 0.000000 
#    y 0.000000 1.572280 0.000000 
#    z 0.000000 0.000000 1.602860 
# 
# From -- ./inp_files/12386.got.cif
#   From: 2010.05.17/outbox.cif.g08.bks.cpg/sg63_7_cif.got.tgz:12386.got - 2010.06.03 15:47:04.
