data_PCOD9470823
_publ_section_title
;
Structure prediction by ZEFSAII (Michael W. Deem and Ramdas Pophale) SiO2 
 PCOD9470823
Probable space group: C M C M
;
_chemical_formula_sum "Si O2"
_cell_formula_units_Z 80
_cell_length_a 13.759173
_cell_length_b 28.539627
_cell_length_c 9.983012
_cell_angle_alpha 90.000000
_cell_angle_beta 90.000000
_cell_angle_gamma 90.000000
_cell_volume 3920.145776
_symmetry_space_group_name_H-M "C M C M"
_symmetry_group_IT_number 63
_symmetry_cell_setting 'orthorhombic'
loop_
_space_group_symop_operation_xyz
x,y,z
-x,-y,1/2+z
x,-y,-z
-x,y,1/2-z
-x,-y,-z
x,y,1/2-z
-x,y,z
x,-y,1/2+z
1/2+x,1/2+y,z
1/2-x,1/2-y,1/2+z
1/2+x,1/2-y,-z
1/2-x,1/2+y,1/2-z
1/2-x,1/2-y,-z
1/2+x,1/2+y,1/2-z
1/2-x,1/2+y,z
1/2+x,1/2-y,1/2+z
loop_
_atom_site_type_symbol
_atom_site_label
_atom_site_fract_x
_atom_site_fract_y
_atom_site_fract_z
Si Si1 0.889860 0.788897 0.969731
Si Si2 0.671959 0.806734 0.599081
Si Si3 0.698003 0.456567 0.910374
Si Si4 0.607946 0.908979 0.588173
Si Si5 0.112533 0.116071 0.606122
O O1 0.874670 0.735888 0.018081
O O2 0.884359 0.828018 0.086575
O O3 0.000000 0.793975 0.912217
O O4 0.788881 0.800377 0.894654
O O5 0.633567 0.804038 0.750000
O O6 0.644451 0.857673 0.541784
O O7 0.681170 0.460883 0.750000
O O8 0.812184 0.448209 0.938306
O O9 0.662620 0.500000 0.000000
O O10 0.652325 0.409970 0.975507
O O11 0.604919 0.905848 0.750000
O O12 0.500000 0.918607 0.537671
O O13 0.158845 0.102947 0.750000
O O14 0.000000 0.102651 0.612059
#
# Coordination Sequence:
#
# PCOD9470823 Si02
#       5
#    16  16  16  16  16
#     4  10  20  33  54  85 118 155 194 233 279 338
#     4  10  19  33  54  83 117 155 193 234 282 336
#     4  11  23  40  61  87 115 149 194 245 300 350
#     4   9  18  34  57  84 114 148 189 235 285 344
#     4  10  21  38  60  87 120 157 194 235 287 347
#
# _framework density 20.407405000000001
#
# number of rings (size 3 to 8) (size 9 to 14) (size 15 to 20)
#    0.000    2.000    2.000    1.800    0.000    3.600 
#    0.000    2.000    0.000    1.800    0.000    0.000 
#    0.000    0.000    0.000    0.000    0.000    0.000 
#
# Total GULP energy -222690.420498 kJ/mol
# GULP energy per Si atom -5567.260512 kJ/mol
# Density = 2.036096 g / cm^3
# Si number density = 20.407405 Si / 1000 Ang^3
#
#
#
# Elastic Constant Matrix: (Units=GPa)
#
#
# Indices 1 2 3 4 5 6 
#
# 1 79.5334 -7.3702 12.6804 0.0000 0.0000 0.0000
# 2 -7.3702 73.5945 31.9512 0.0000 0.0000 0.0000
# 3 12.6804 31.9512 84.5887 0.0000 0.0000 0.0000
# 4 0.0000 0.0000 0.0000 6.2097 0.0000 0.0000
# 5 0.0000 0.0000 0.0000 0.0000 10.7914 0.0000
# 6 0.0000 0.0000 0.0000 0.0000 0.0000 10.9529
#
#
#
# Elastic Compliance Matrix: (Units=1/GPa)
#
#
# Indices 1 2 3 4 5 6 
#
# 1 0.013293 0.002627 -0.002985 0.000000 0.000000 0.000000
# 2 0.002627 0.016773 -0.006729 0.000000 0.000000 0.000000
# 3 -0.002985 -0.006729 0.014811 0.000000 0.000000 0.000000
# 4 0.000000 0.000000 0.000000 0.161038 0.000000 0.000000
# 5 0.000000 0.000000 0.000000 0.000000 0.092667 0.000000
# 6 0.000000 0.000000 0.000000 0.000000 0.000000 0.091300
#
#
# Mechanical properties :
#
#
# Convention : Reuss Voigt Hill
#
# Bulk Modulus (GPa) = 32.57086 34.69326 33.63206
# Shear Modulus (GPa) = 12.06887 18.95448 15.51167
#
# Velocity S-wave (km/s) = 2.43450 3.05093 2.75998
# Velocity P-wave (km/s) = 4.88849 5.42662 5.16457
#
# Compressibility (1/GPa) = 0.03070229
#
# Stress axis : x y z
#
# Youngs Moduli (GPa) = 75.22925 59.62108 67.51656
#
# Poissons Ratio (x) = -0.15663 0.20154
# Poissons Ratio (y) = -0.19764 0.45434
# Poissons Ratio (z) = 0.22456 0.40120
#
# Static dielectric constant tensor:
#      x y z
#    x 1.777960 0.000000 0.000000 
#    y 0.000000 1.716310 0.000000 
#    z 0.000000 0.000000 1.754100 
# 
# From -- ./inp_files/19674.got.cif
#   From: 2010.05.17/outbox.cif.g08.bks.cpg/sg63_10_cif.got.tgz:19674.got - 2010.06.03 15:47:04.
