data_PCOD9470488
_publ_section_title
;
Structure prediction by ZEFSAII (Michael W. Deem and Ramdas Pophale) SiO2 
 PCOD9470488
Probable space group: C M C M
;
_chemical_formula_sum "Si O2"
_cell_formula_units_Z 56
_cell_length_a 10.037237
_cell_length_b 26.456930
_cell_length_c 10.069967
_cell_angle_alpha 90.000000
_cell_angle_beta 90.000000
_cell_angle_gamma 90.000000
_cell_volume 2674.124817
_symmetry_space_group_name_H-M "C M C M"
_symmetry_group_IT_number 63
_symmetry_cell_setting 'orthorhombic'
loop_
_space_group_symop_operation_xyz
x,y,z
-x,-y,1/2+z
x,-y,-z
-x,y,1/2-z
-x,-y,-z
x,y,1/2-z
-x,y,z
x,-y,1/2+z
1/2+x,1/2+y,z
1/2-x,1/2-y,1/2+z
1/2+x,1/2-y,-z
1/2-x,1/2+y,1/2-z
1/2-x,1/2-y,-z
1/2+x,1/2+y,1/2-z
1/2-x,1/2+y,z
1/2+x,1/2-y,1/2+z
loop_
_atom_site_type_symbol
_atom_site_label
_atom_site_fract_x
_atom_site_fract_y
_atom_site_fract_z
Si Si1 0.795094 0.637877 0.903650
Si Si2 0.000000 0.179016 0.901364
Si Si3 0.000000 0.726833 0.903565
Si Si4 0.798867 0.450034 0.904811
Si Si5 0.000000 0.961528 0.614731
O O1 0.819992 0.621724 0.750000
O O2 0.636605 0.647565 0.916500
O O3 0.872463 0.690512 0.924019
O O4 0.848712 0.596858 0.008022
O O5 0.000000 0.198575 0.750000
O O6 0.000000 0.225382 0.001982
O O7 0.000000 0.743300 0.750000
O O8 0.844703 0.456805 0.750000
O O9 0.641812 0.435829 0.890569
O O10 0.812832 0.500000 0.000000
O O11 0.000000 0.993201 0.750000
O O12 0.000000 0.000000 0.500000
#
# Coordination Sequence:
#
# PCOD9470488 Si02
#       5
#    16   8   8  16   8
#     4  10  21  37  56  82 113 146 183 226 274 326
#     4  10  21  37  60  86 111 140 181 231 279 326
#     4  10  22  39  58  80 112 148 182 225 278 330
#     4  10  19  32  52  79 111 148 186 227 272 324
#     4   8  15  26  42  68 101 134 171 214 263 310
#
# _framework density 20.941431000000001
#
# number of rings (size 3 to 8) (size 9 to 14) (size 15 to 20)
#    0.000    2.286    0.000    2.571    0.000    3.429 
#    0.000    5.000    0.000    0.000    0.000    0.000 
#    0.000    0.000    0.000    0.000    0.000    0.000 
#
# Total GULP energy -155918.652012 kJ/mol
# GULP energy per Si atom -5568.523286 kJ/mol
# Density = 2.089377 g / cm^3
# Si number density = 20.941431 Si / 1000 Ang^3
#
#
#
# Elastic Constant Matrix: (Units=GPa)
#
#
# Indices 1 2 3 4 5 6 
#
# 1 109.1170 2.0165 19.1009 0.0000 0.0000 0.0000
# 2 2.0165 84.1481 106.4758 0.0000 0.0000 0.0000
# 3 19.1009 106.4758 213.7624 0.0000 0.0000 0.0000
# 4 0.0000 0.0000 0.0000 45.4132 0.0000 0.0000
# 5 0.0000 0.0000 0.0000 0.0000 -45.3489 0.0000
# 6 0.0000 0.0000 0.0000 0.0000 0.0000 9.5698
#
#
#
# Elastic Compliance Matrix: (Units=1/GPa)
#
#
# Indices 1 2 3 4 5 6 
#
# 1 0.009469 0.002282 -0.001983 0.000000 0.000000 0.000000
# 2 0.002282 0.032692 -0.016488 0.000000 0.000000 0.000000
# 3 -0.001983 -0.016488 0.013068 0.000000 0.000000 0.000000
# 4 0.000000 0.000000 0.000000 0.022020 0.000000 0.000000
# 5 0.000000 0.000000 0.000000 0.000000 -0.022051 0.000000
# 6 0.000000 0.000000 0.000000 0.000000 0.000000 0.104496
#
#
# Mechanical properties :
#
#
# Convention : Reuss Voigt Hill
#
# Bulk Modulus (GPa) = 43.76013 73.57931 58.66972
# Shear Modulus (GPa) = 25.03905 20.55576 22.79741
#
# Velocity S-wave (km/s) = 3.46160 3.13642 3.30301
# Velocity P-wave (km/s) = 6.07607 6.95185 6.52866
#
# Compressibility (1/GPa) = 0.02285185
#
# Stress axis : x y z
#
# Youngs Moduli (GPa) = 105.60332 30.58878 76.52347
#
# Poissons Ratio (x) = -0.06980 0.15173
# Poissons Ratio (y) = -0.24099 1.26170
# Poissons Ratio (z) = 0.20939 0.50434
#
# Static dielectric constant tensor:
#      x y z
#    x 1.517000 0.000000 0.000000 
#    y 0.000000 1.691750 0.000000 
#    z 0.000000 0.000000 1.768260 
# 
# From -- ./inp_files/2900.got.cif
#   From: 2010.05.17/outbox.cif.g08.bks.cpg/sg63_2_cif.got.tgz:2900.got - 2010.06.03 15:47:04.
