data_PCOD9470372
_publ_section_title
;
Structure prediction by ZEFSAII (Michael W. Deem and Ramdas Pophale) SiO2 
 PCOD9470372
Probable space group: C M C M
;
_chemical_formula_sum "Si O2"
_cell_formula_units_Z 80
_cell_length_a 8.610457
_cell_length_b 27.069208
_cell_length_c 19.426889
_cell_angle_alpha 90.000000
_cell_angle_beta 90.000000
_cell_angle_gamma 90.000000
_cell_volume 4527.985320
_symmetry_space_group_name_H-M "C M C M"
_symmetry_group_IT_number 63
_symmetry_cell_setting 'orthorhombic'
loop_
_space_group_symop_operation_xyz
x,y,z
-x,-y,1/2+z
x,-y,-z
-x,y,1/2-z
-x,-y,-z
x,y,1/2-z
-x,y,z
x,-y,1/2+z
1/2+x,1/2+y,z
1/2-x,1/2-y,1/2+z
1/2+x,1/2-y,-z
1/2-x,1/2+y,1/2-z
1/2-x,1/2-y,-z
1/2+x,1/2+y,1/2-z
1/2-x,1/2+y,z
1/2+x,1/2-y,1/2+z
loop_
_atom_site_type_symbol
_atom_site_label
_atom_site_fract_x
_atom_site_fract_y
_atom_site_fract_z
Si Si1 0.812304 0.448601 0.830096
Si Si2 0.314096 0.145068 0.918700
Si Si3 0.814218 0.055032 0.830274
Si Si4 0.686379 0.251601 0.078045
Si Si5 0.311141 0.856626 0.921150
O O1 0.768472 0.441491 0.750000
O O2 0.746899 0.501406 0.853351
O O3 0.757313 0.402746 0.876115
O O4 0.000000 0.450614 0.833403
O O5 0.500000 0.146148 0.918100
O O6 0.253662 0.099355 0.874883
O O7 0.252473 0.197835 0.891351
O O8 0.262828 0.139650 0.998802
O O9 0.767760 0.060799 0.750000
O O10 0.000000 0.055756 0.833984
O O11 0.500000 0.254369 0.077143
O O12 0.732564 0.197773 0.107181
O O13 0.750000 0.250000 0.000000
O O14 0.500000 0.857834 0.920982
#
# Coordination Sequence:
#
# PCOD9470372 Si02
#       5
#    16  16  16  16  16
#     4   9  17  32  53  72  93 126 164 197 234 286
#     4  10  19  32  51  73  98 129 165 204 244 290
#     4  10  21  36  51  69  96 127 159 200 249 296
#     4   9  16  29  48  71 101 133 164 200 244 290
#     4   8  16  30  49  74 100 127 161 200 239 281
#
# _framework density 17.667902000000002
#
# number of rings (size 3 to 8) (size 9 to 14) (size 15 to 20)
#    0.000    2.800    0.000    3.000    0.000    2.000 
#    0.000   11.000    0.000    3.600    0.000    0.000 
#    0.000    0.000    0.000    0.000    0.000    0.000 
#
# Total GULP energy -222865.929227 kJ/mol
# GULP energy per Si atom -5571.648231 kJ/mol
# Density = 1.762769 g / cm^3
# Si number density = 17.667902 Si / 1000 Ang^3
#
#
#
# Elastic Constant Matrix: (Units=GPa)
#
#
# Indices 1 2 3 4 5 6 
#
# 1 31.4835 42.8003 19.3541 0.0000 0.0000 0.0000
# 2 42.8003 230.7783 80.2970 0.0000 0.0000 0.0000
# 3 19.3541 80.2970 48.0052 0.0000 0.0000 0.0000
# 4 0.0000 0.0000 0.0000 -43.0597 0.0000 0.0000
# 5 0.0000 0.0000 0.0000 0.0000 17.5188 0.0000
# 6 0.0000 0.0000 0.0000 0.0000 0.0000 32.0068
#
#
#
# Elastic Compliance Matrix: (Units=1/GPa)
#
#
# Indices 1 2 3 4 5 6 
#
# 1 0.044339 -0.004793 -0.009859 0.000000 0.000000 0.000000
# 2 -0.004793 0.010884 -0.016274 0.000000 0.000000 0.000000
# 3 -0.009859 -0.016274 0.052026 0.000000 0.000000 0.000000
# 4 0.000000 0.000000 0.000000 -0.023224 0.000000 0.000000
# 5 0.000000 0.000000 0.000000 0.000000 0.057081 0.000000
# 6 0.000000 0.000000 0.000000 0.000000 0.000000 0.031243
#
#
# Mechanical properties :
#
#
# Convention : Reuss Voigt Hill
#
# Bulk Modulus (GPa) = 22.02721 66.12998 44.07860
# Shear Modulus (GPa) = 20.05335 12.48088 16.26711
#
# Velocity S-wave (km/s) = 3.37265 2.66073 3.03762
# Velocity P-wave (km/s) = 5.25936 6.85201 6.10782
#
# Compressibility (1/GPa) = 0.04539840
#
# Stress axis : x y z
#
# Youngs Moduli (GPa) = 22.55350 91.87606 19.22103
#
# Poissons Ratio (x) = 0.44033 0.18951
# Poissons Ratio (y) = 0.10809 0.31279
# Poissons Ratio (z) = 0.22236 1.49515
#
# Static dielectric constant tensor:
#      x y z
#    x 1.600380 0.000000 0.000000 
#    y 0.000000 1.602030 0.000000 
#    z 0.000000 0.000000 1.668630 
# 
# From -- ./inp_files/40497.got.cif
#   From: 2010.05.17/outbox.cif.g08.bks.cpg/sg63_21_cif.got.tgz:40497.got - 2010.06.03 15:47:04.
