data_PCOD9470416
_publ_section_title
;
Structure prediction by ZEFSAII (Michael W. Deem and Ramdas Pophale) SiO2 
 PCOD9470416
Probable space group: C M C M
;
_chemical_formula_sum "Si O2"
_cell_formula_units_Z 112
_cell_length_a 18.619480
_cell_length_b 20.165035
_cell_length_c 18.647809
_cell_angle_alpha 90.000000
_cell_angle_beta 90.000000
_cell_angle_gamma 90.000000
_cell_volume 7001.552350
_symmetry_space_group_name_H-M "C M C M"
_symmetry_group_IT_number 63
_symmetry_cell_setting 'orthorhombic'
loop_
_space_group_symop_operation_xyz
x,y,z
-x,-y,1/2+z
x,-y,-z
-x,y,1/2-z
-x,-y,-z
x,y,1/2-z
-x,y,z
x,-y,1/2+z
1/2+x,1/2+y,z
1/2-x,1/2-y,1/2+z
1/2+x,1/2-y,-z
1/2-x,1/2+y,1/2-z
1/2-x,1/2-y,-z
1/2+x,1/2+y,1/2-z
1/2-x,1/2+y,z
1/2+x,1/2-y,1/2+z
loop_
_atom_site_type_symbol
_atom_site_label
_atom_site_fract_x
_atom_site_fract_y
_atom_site_fract_z
Si Si1 0.808716 0.572293 0.534773
Si Si2 0.083030 0.365635 0.562941
Si Si3 0.785713 0.378679 0.666162
Si Si4 0.916420 0.102538 0.665271
Si Si5 0.781944 0.814188 0.960172
Si Si6 0.581858 0.707843 0.541231
Si Si7 0.771769 0.026301 0.667028
O O1 0.802796 0.500000 0.500000
O O2 0.885013 0.602192 0.509906
O O3 0.752201 0.621969 0.498560
O O4 0.784931 0.563843 0.616439
O O5 0.137419 0.387003 0.626293
O O6 0.089265 0.286002 0.557174
O O7 0.000000 0.383025 0.574700
O O8 0.794271 0.363906 0.750000
O O9 0.743350 0.322343 0.621493
O O10 0.742242 0.447771 0.658651
O O11 0.911029 0.120113 0.750000
O O12 0.902657 0.164658 0.612567
O O13 0.853463 0.049165 0.649930
O O14 0.000000 0.081008 0.653616
O O15 0.750000 0.750000 0.000000
O O16 0.865427 0.812059 0.977455
O O17 0.500000 0.694928 0.521365
O O18 0.759115 0.042606 0.750000
#
# Coordination Sequence:
#
# PCOD9470416 Si02
#       7
#    16  16  16  16  16  16  16
#     4  11  19  34  55  79 103 141 180 223 264 320
#     4  10  21  35  54  79 107 140 176 221 275 324
#     4  10  21  36  55  79 108 140 175 222 272 318
#     4   9  18  31  50  78 112 144 174 215 270 325
#     4  11  19  35  56  78 106 141 179 218 263 318
#     4  10  19  32  51  78 110 138 172 220 269 313
#     4  10  19  33  52  77 110 144 179 221 267 318
#
# _framework density 15.996453000000001
#
# number of rings (size 3 to 8) (size 9 to 14) (size 15 to 20)
#    0.000    1.857    7.143    0.000    0.000    1.143 
#    0.000    2.857    0.000    4.286    0.000    2.000 
#    0.000    0.000    0.000    0.000    0.000    0.000 
#
# Total GULP energy -311752.958065 kJ/mol
# GULP energy per Si atom -5567.017108 kJ/mol
# Density = 1.596004 g / cm^3
# Si number density = 15.996453 Si / 1000 Ang^3
#
#
#
# Elastic Constant Matrix: (Units=GPa)
#
#
# Indices 1 2 3 4 5 6 
#
# 1 120.4735 52.5020 60.7202 0.0000 0.0000 0.0000
# 2 52.5020 73.7143 30.3128 0.0000 0.0000 0.0000
# 3 60.7202 30.3128 101.9174 0.0000 0.0000 0.0000
# 4 0.0000 0.0000 0.0000 22.7207 0.0000 0.0000
# 5 0.0000 0.0000 0.0000 0.0000 23.7805 0.0000
# 6 0.0000 0.0000 0.0000 0.0000 0.0000 25.8036
#
#
#
# Elastic Compliance Matrix: (Units=1/GPa)
#
#
# Indices 1 2 3 4 5 6 
#
# 1 0.015160 -0.008071 -0.006632 0.000000 0.000000 0.000000
# 2 -0.008071 0.019753 -0.001067 0.000000 0.000000 0.000000
# 3 -0.006632 -0.001067 0.014080 0.000000 0.000000 0.000000
# 4 0.000000 0.000000 0.000000 0.044013 0.000000 0.000000
# 5 0.000000 0.000000 0.000000 0.000000 0.042051 0.000000
# 6 0.000000 0.000000 0.000000 0.000000 0.000000 0.038754
#
#
# Mechanical properties :
#
#
# Convention : Reuss Voigt Hill
#
# Bulk Modulus (GPa) = 57.28982 64.79725 61.04353
# Shear Modulus (GPa) = 23.67787 24.63229 24.15508
#
# Velocity S-wave (km/s) = 3.85150 3.92836 3.89012
# Velocity P-wave (km/s) = 7.46127 7.82120 7.64336
#
# Compressibility (1/GPa) = 0.01745511
#
# Stress axis : x y z
#
# Youngs Moduli (GPa) = 65.96236 50.62613 71.02189
#
# Poissons Ratio (x) = 0.40858 0.47100
# Poissons Ratio (y) = 0.53235 0.07576
# Poissons Ratio (z) = 0.43744 0.05400
#
# Static dielectric constant tensor:
#      x y z
#    x 1.557710 0.000000 0.000000 
#    y 0.000000 1.537510 0.000000 
#    z 0.000000 0.000000 1.548210 
# 
# From -- ./inp_files/46057.got.cif
#   From: 2010.05.17/outbox.cif.g08.bks.cpg/sg63_24_cif.got.tgz:46057.got - 2010.06.03 15:47:04.
