data_PCOD9470260
_publ_section_title
;
Structure prediction by ZEFSAII (Michael W. Deem and Ramdas Pophale) SiO2 
 PCOD9470260
Probable space group: C M C M
;
_chemical_formula_sum "Si O2"
_cell_formula_units_Z 96
_cell_length_a 18.838012
_cell_length_b 29.160410
_cell_length_c 9.690524
_cell_angle_alpha 90.000000
_cell_angle_beta 90.000000
_cell_angle_gamma 90.000000
_cell_volume 5323.238893
_symmetry_space_group_name_H-M "C M C M"
_symmetry_group_IT_number 63
_symmetry_cell_setting 'orthorhombic'
loop_
_space_group_symop_operation_xyz
x,y,z
-x,-y,1/2+z
x,-y,-z
-x,y,1/2-z
-x,-y,-z
x,y,1/2-z
-x,y,z
x,-y,1/2+z
1/2+x,1/2+y,z
1/2-x,1/2-y,1/2+z
1/2+x,1/2-y,-z
1/2-x,1/2+y,1/2-z
1/2-x,1/2-y,-z
1/2+x,1/2+y,1/2-z
1/2-x,1/2+y,z
1/2+x,1/2-y,1/2+z
loop_
_atom_site_type_symbol
_atom_site_label
_atom_site_fract_x
_atom_site_fract_y
_atom_site_fract_z
Si Si1 0.919393 0.774685 0.583927
Si Si2 0.714333 0.455618 0.910387
Si Si3 0.423361 0.121477 0.601414
Si Si4 0.693455 0.199265 0.591614
Si Si5 0.686237 0.649092 0.415234
Si Si6 0.386236 0.957721 0.907236
O O1 0.921870 0.767298 0.750000
O O2 0.856783 0.740229 0.535603
O O3 0.889024 0.825834 0.561093
O O4 0.000000 0.768015 0.531767
O O5 0.693382 0.461834 0.750000
O O6 0.689502 0.404649 0.956494
O O7 0.800367 0.454397 0.914556
O O8 0.692023 0.500000 0.000000
O O9 0.418997 0.096143 0.750000
O O10 0.500000 0.145187 0.597325
O O11 0.361105 0.157349 0.599990
O O12 0.416338 0.087604 0.475574
O O13 0.717213 0.210219 0.750000
O O14 0.756047 0.180026 0.495919
O O15 0.701281 0.650637 0.250000
O O16 0.407174 0.963370 0.750000
O O17 0.409136 0.000000 0.000000
#
# Coordination Sequence:
#
# PCOD9470260 Si02
#       6
#    16  16  16  16  16  16
#     4   9  18  33  54  79 107 139 173 210 252 302
#     4   9  18  31  49  74 101 130 165 209 256 303
#     4  10  20  32  46  66  95 131 170 210 251 298
#     4  10  19  32  52  77 103 135 174 211 249 296
#     4  10  19  33  54  80 107 134 171 215 256 301
#     4  10  19  32  48  66  92 126 166 212 258 307
#
# _framework density 18.034133000000001
#
# number of rings (size 3 to 8) (size 9 to 14) (size 15 to 20)
#    0.000    2.333    1.667    1.500    0.000    4.000 
#    0.000    0.000    0.000    3.500    0.000    0.000 
#    0.000    0.000    0.000    0.000    0.000    0.000 
#
# Total GULP energy -267369.555730 kJ/mol
# GULP energy per Si atom -5570.199078 kJ/mol
# Density = 1.799309 g / cm^3
# Si number density = 18.034133 Si / 1000 Ang^3
#
#
#
# Elastic Constant Matrix: (Units=GPa)
#
#
# Indices 1 2 3 4 5 6 
#
# 1 41.1604 42.9041 21.8013 0.0000 0.0000 0.0000
# 2 42.9041 112.3127 42.6098 0.0000 0.0000 0.0000
# 3 21.8013 42.6098 67.4071 0.0000 0.0000 0.0000
# 4 0.0000 0.0000 0.0000 17.9161 0.0000 0.0000
# 5 0.0000 0.0000 0.0000 0.0000 18.4735 0.0000
# 6 0.0000 0.0000 0.0000 0.0000 0.0000 129.1222
#
#
#
# Elastic Compliance Matrix: (Units=1/GPa)
#
#
# Indices 1 2 3 4 5 6 
#
# 1 0.041365 -0.014110 -0.004459 0.000000 0.000000 0.000000
# 2 -0.014110 0.016526 -0.005883 0.000000 0.000000 0.000000
# 3 -0.004459 -0.005883 0.019996 0.000000 0.000000 0.000000
# 4 0.000000 0.000000 0.000000 0.055816 0.000000 0.000000
# 5 0.000000 0.000000 0.000000 0.000000 0.054132 0.000000
# 6 0.000000 0.000000 0.000000 0.000000 0.000000 0.007745
#
#
# Mechanical properties :
#
#
# Convention : Reuss Voigt Hill
#
# Bulk Modulus (GPa) = 34.50332 48.39007 41.44669
# Shear Modulus (GPa) = 19.67399 40.67337 30.17368
#
# Velocity S-wave (km/s) = 3.30651 4.75421 4.09484
# Velocity P-wave (km/s) = 5.80957 7.55165 6.73715
#
# Compressibility (1/GPa) = 0.02898272
#
# Stress axis : x y z
#
# Youngs Moduli (GPa) = 24.17525 60.51238 50.00962
#
# Poissons Ratio (x) = 0.85381 0.22301
# Poissons Ratio (y) = 0.34111 0.29420
# Poissons Ratio (z) = 0.10780 0.35598
#
# Static dielectric constant tensor:
#      x y z
#    x 1.618200 0.000000 0.000000 
#    y 0.000000 1.640200 0.000000 
#    z 0.000000 0.000000 1.634080 
# 
# From -- ./inp_files/8615.got.cif
#   From: 2010.05.17/outbox.cif.g08.bks.cpg/sg63_5_cif.got.tgz:8615.got - 2010.06.03 15:47:04.
