data_PCOD9470476
_publ_section_title
;
Structure prediction by ZEFSAII (Michael W. Deem and Ramdas Pophale) SiO2 
 PCOD9470476
Probable space group: C M C M
;
_chemical_formula_sum "Si O2"
_cell_formula_units_Z 80
_cell_length_a 21.909070
_cell_length_b 12.798961
_cell_length_c 16.092244
_cell_angle_alpha 90.000000
_cell_angle_beta 90.000000
_cell_angle_gamma 90.000000
_cell_volume 4512.479767
_symmetry_space_group_name_H-M "C M C M"
_symmetry_group_IT_number 63
_symmetry_cell_setting 'orthorhombic'
loop_
_space_group_symop_operation_xyz
x,y,z
-x,-y,1/2+z
x,-y,-z
-x,y,1/2-z
-x,-y,-z
x,y,1/2-z
-x,y,z
x,-y,1/2+z
1/2+x,1/2+y,z
1/2-x,1/2-y,1/2+z
1/2+x,1/2-y,-z
1/2-x,1/2+y,1/2-z
1/2-x,1/2-y,-z
1/2+x,1/2+y,1/2-z
1/2-x,1/2+y,z
1/2+x,1/2-y,1/2+z
loop_
_atom_site_type_symbol
_atom_site_label
_atom_site_fract_x
_atom_site_fract_y
_atom_site_fract_z
Si Si1 0.836637 0.462976 0.904804
Si Si2 0.302053 0.257048 0.350111
Si Si3 0.931405 0.372937 0.151125
Si Si4 0.799967 0.012961 0.599068
Si Si5 0.664707 0.293279 0.650948
O O1 0.837848 0.338770 0.891714
O O2 0.892306 0.522671 0.862566
O O3 0.770191 0.498328 0.869353
O O4 0.837682 0.500000 0.000000
O O5 0.304295 0.245438 0.250000
O O6 0.322061 0.372862 0.375216
O O7 0.231325 0.244578 0.379557
O O8 0.936483 0.357308 0.250000
O O9 0.889681 0.278135 0.116956
O O10 0.000000 0.377286 0.116528
O O11 0.798260 0.000000 0.500000
O O12 0.838723 0.915963 0.632777
O O13 0.665909 0.279025 0.750000
#
# Coordination Sequence:
#
# PCOD9470476 Si02
#       5
#    16  16  16  16  16
#     4  10  21  32  52  78 110 137 170 213 265 316
#     4  10  19  32  52  78 108 138 169 212 266 318
#     4  10  20  35  54  74 101 138 180 218 251 303
#     4  10  20  30  51  78 109 137 166 210 268 315
#     4   9  18  31  50  74 102 135 172 210 255 309
#
# _framework density 17.728611999999998
#
# number of rings (size 3 to 8) (size 9 to 14) (size 15 to 20)
#    0.000    2.200    2.000    1.200    2.800    4.400 
#    0.000    0.000    0.000    1.800    0.000    2.800 
#    0.000    0.000    0.000    0.000    0.000    0.000 
#
# Total GULP energy -223054.926107 kJ/mol
# GULP energy per Si atom -5576.373153 kJ/mol
# Density = 1.768826 g / cm^3
# Si number density = 17.728612 Si / 1000 Ang^3
#
#
#
# Elastic Constant Matrix: (Units=GPa)
#
#
# Indices 1 2 3 4 5 6 
#
# 1 97.8102 55.2830 10.1698 0.0000 0.0000 0.0000
# 2 55.2830 151.7291 3.8877 0.0000 0.0000 0.0000
# 3 10.1698 3.8877 26.0792 0.0000 0.0000 0.0000
# 4 0.0000 0.0000 0.0000 22.8794 0.0000 0.0000
# 5 0.0000 0.0000 0.0000 0.0000 16.0446 0.0000
# 6 0.0000 0.0000 0.0000 0.0000 0.0000 -1.6341
#
#
#
# Elastic Compliance Matrix: (Units=1/GPa)
#
#
# Indices 1 2 3 4 5 6 
#
# 1 0.013384 -0.004761 -0.004509 0.000000 0.000000 0.000000
# 2 -0.004761 0.008309 0.000618 0.000000 0.000000 0.000000
# 3 -0.004509 0.000618 0.040011 0.000000 0.000000 0.000000
# 4 0.000000 0.000000 0.000000 0.043707 0.000000 0.000000
# 5 0.000000 0.000000 0.000000 0.000000 0.062326 0.000000
# 6 0.000000 0.000000 0.000000 0.000000 0.000000 -0.611966
#
#
# Mechanical properties :
#
#
# Convention : Reuss Voigt Hill
#
# Bulk Modulus (GPa) = 22.52277 46.03327 34.27802
# Shear Modulus (GPa) = -12.13230 21.20984 4.53877
#
# Velocity S-wave (km/s) = -2.61882 3.46260 1.60178
# Velocity P-wave (km/s) = 1.89407 6.48136 4.77470
#
# Compressibility (1/GPa) = 0.04439952
#
# Stress axis : x y z
#
# Youngs Moduli (GPa) = 74.71840 120.34445 24.99302
#
# Poissons Ratio (x) = 0.57294 0.11270
# Poissons Ratio (y) = 0.35572 -0.01544
# Poissons Ratio (z) = 0.33693 -0.07435
#
# Static dielectric constant tensor:
#      x y z
#    x 1.607100 0.000000 0.000000 
#    y 0.000000 1.625440 0.000000 
#    z 0.000000 0.000000 1.668630 
# 
# From -- ./inp_files/36449.got.cif
#   From: 2010.05.17/outbox.cif.g08.bks.cpg/sg63_19_cif.got.tgz:36449.got - 2010.06.03 15:47:04.
