data_PCOD9470669
_publ_section_title
;
Structure prediction by ZEFSAII (Michael W. Deem and Ramdas Pophale) SiO2 
 PCOD9470669
Probable space group: C M C M
;
_chemical_formula_sum "Si O2"
_cell_formula_units_Z 80
_cell_length_a 13.257003
_cell_length_b 24.828358
_cell_length_c 13.147363
_cell_angle_alpha 90.000000
_cell_angle_beta 90.000000
_cell_angle_gamma 90.000000
_cell_volume 4327.449489
_symmetry_space_group_name_H-M "C M C M"
_symmetry_group_IT_number 63
_symmetry_cell_setting 'orthorhombic'
loop_
_space_group_symop_operation_xyz
x,y,z
-x,-y,1/2+z
x,-y,-z
-x,y,1/2-z
-x,-y,-z
x,y,1/2-z
-x,y,z
x,-y,1/2+z
1/2+x,1/2+y,z
1/2-x,1/2-y,1/2+z
1/2+x,1/2-y,-z
1/2-x,1/2+y,1/2-z
1/2-x,1/2-y,-z
1/2+x,1/2+y,1/2-z
1/2-x,1/2+y,z
1/2+x,1/2-y,1/2+z
loop_
_atom_site_type_symbol
_atom_site_label
_atom_site_fract_x
_atom_site_fract_y
_atom_site_fract_z
Si Si1 0.248456 0.204423 0.867130
Si Si2 0.880891 0.801114 0.938668
Si Si3 0.386688 0.103515 0.872568
Si Si4 0.797117 0.033750 0.866378
Si Si5 0.616266 0.425148 0.568143
O O1 0.220100 0.195144 0.750000
O O2 0.312945 0.259037 0.877368
O O3 0.322896 0.156178 0.902712
O O4 0.155309 0.205541 0.944464
O O5 0.861321 0.863197 0.908684
O O6 0.000000 0.790612 0.926751
O O7 0.394617 0.106625 0.750000
O O8 0.500000 0.101866 0.914249
O O9 0.315880 0.052439 0.894292
O O10 0.816732 0.049751 0.750000
O O11 0.815742 0.970344 0.879116
O O12 0.868104 0.063668 0.947716
O O13 0.500000 0.435802 0.595132
#
# Coordination Sequence:
#
# PCOD9470669 Si02
#       5
#    16  16  16  16  16
#     4  10  20  36  57  81 110 141 178 227 275 326
#     4  10  21  36  56  81 110 144 182 225 274 327
#     4   9  17  31  53  78 101 131 176 224 267 314
#     4  10  19  33  52  74 106 143 178 218 264 312
#     4  10  21  35  51  77 111 140 176 220 262 320
#
# _framework density 18.486640000000001
#
# number of rings (size 3 to 8) (size 9 to 14) (size 15 to 20)
#    0.000    2.200    2.000    1.800    0.000    4.000 
#    0.000    6.000    0.000    0.000    0.000    2.800 
#    0.000    0.000    0.000    0.000    0.000    0.000 
#
# Total GULP energy -223032.104963 kJ/mol
# GULP energy per Si atom -5575.802624 kJ/mol
# Density = 1.844456 g / cm^3
# Si number density = 18.486640 Si / 1000 Ang^3
#
#
#
# Elastic Constant Matrix: (Units=GPa)
#
#
# Indices 1 2 3 4 5 6 
#
# 1 15.2065 3.7071 -12.5489 0.0000 0.0000 0.0000
# 2 3.7071 77.7486 -7.1093 0.0000 0.0000 0.0000
# 3 -12.5489 -7.1093 33.6803 0.0000 0.0000 0.0000
# 4 0.0000 0.0000 0.0000 13.5763 0.0000 0.0000
# 5 0.0000 0.0000 0.0000 0.0000 15.3749 0.0000
# 6 0.0000 0.0000 0.0000 0.0000 0.0000 28.3699
#
#
#
# Elastic Compliance Matrix: (Units=1/GPa)
#
#
# Indices 1 2 3 4 5 6 
#
# 1 0.095091 -0.001320 0.035152 0.000000 0.000000 0.000000
# 2 -0.001320 0.013133 0.002281 0.000000 0.000000 0.000000
# 3 0.035152 0.002281 0.043269 0.000000 0.000000 0.000000
# 4 0.000000 0.000000 0.000000 0.073658 0.000000 0.000000
# 5 0.000000 0.000000 0.000000 0.000000 0.065041 0.000000
# 6 0.000000 0.000000 0.000000 0.000000 0.000000 0.035249
#
#
# Mechanical properties :
#
#
# Convention : Reuss Voigt Hill
#
# Bulk Modulus (GPa) = 4.46990 10.52589 7.49789
# Shear Modulus (GPa) = 15.25366 20.96999 18.11183
#
# Velocity S-wave (km/s) = 2.87560 3.37164 3.13345
# Velocity P-wave (km/s) = 3.66724 4.56765 4.14198
#
# Compressibility (1/GPa) = 0.22371889
#
# Stress axis : x y z
#
# Youngs Moduli (GPa) = 10.51619 76.14161 23.11103
#
# Poissons Ratio (x) = 0.10049 -0.81239
# Poissons Ratio (y) = 0.01388 -0.05271
# Poissons Ratio (z) = -0.36966 -0.17364
#
# Static dielectric constant tensor:
#      x y z
#    x 1.629240 0.000000 0.000000 
#    y 0.000000 1.657750 0.000000 
#    z 0.000000 0.000000 1.655890 
# 
# From -- ./inp_files/29703.got.cif
#   From: 2010.05.17/outbox.cif.g08.bks.cpg/sg63_15_cif.got.tgz:29703.got - 2010.06.03 15:47:04.
