data_PCOD9470343
_publ_section_title
;
Structure prediction by ZEFSAII (Michael W. Deem and Ramdas Pophale) SiO2 
 PCOD9470343
Probable space group: C M C M
;
_chemical_formula_sum "Si O2"
_cell_formula_units_Z 80
_cell_length_a 17.728585
_cell_length_b 14.638359
_cell_length_c 14.712543
_cell_angle_alpha 90.000000
_cell_angle_beta 90.000000
_cell_angle_gamma 90.000000
_cell_volume 3818.160786
_symmetry_space_group_name_H-M "C M C M"
_symmetry_group_IT_number 63
_symmetry_cell_setting 'orthorhombic'
loop_
_space_group_symop_operation_xyz
x,y,z
-x,-y,1/2+z
x,-y,-z
-x,y,1/2-z
-x,-y,-z
x,y,1/2-z
-x,y,z
x,-y,1/2+z
1/2+x,1/2+y,z
1/2-x,1/2-y,1/2+z
1/2+x,1/2-y,-z
1/2-x,1/2+y,1/2-z
1/2-x,1/2-y,-z
1/2+x,1/2+y,1/2-z
1/2-x,1/2+y,z
1/2+x,1/2-y,1/2+z
loop_
_atom_site_type_symbol
_atom_site_label
_atom_site_fract_x
_atom_site_fract_y
_atom_site_fract_z
Si Si1 0.380026 0.239476 0.643340
Si Si2 0.698878 0.285119 0.354429
Si Si3 0.580967 0.962329 0.397987
Si Si4 0.784297 0.583525 0.351567
Si Si5 0.641247 0.403391 0.979249
O O1 0.397446 0.250259 0.750000
O O2 0.289440 0.223232 0.634273
O O3 0.415475 0.146588 0.606699
O O4 0.398904 0.328854 0.584788
O O5 0.683309 0.311763 0.250000
O O6 0.673850 0.179962 0.369834
O O7 0.664149 0.352094 0.428053
O O8 0.500000 0.991797 0.358747
O O9 0.584360 0.000000 0.500000
O O10 0.655036 0.003578 0.352355
O O11 0.750774 0.591519 0.250000
O O12 0.718351 0.572036 0.424161
O O13 0.602705 0.500000 0.000000
#
# Coordination Sequence:
#
# PCOD9470343 Si02
#       5
#    16  16  16  16  16
#     4  10  20  34  50  73 106 142 180 217 263 321
#     4   9  18  31  50  73 101 138 174 218 270 320
#     4  11  22  35  54  79 110 146 178 213 261 321
#     4  10  19  32  50  75 107 141 176 212 262 324
#     4  11  20  31  51  74 102 137 177 228 273 311
#
# _framework density 20.952496
#
# number of rings (size 3 to 8) (size 9 to 14) (size 15 to 20)
#    0.000    1.800    0.000    9.000    0.000    4.800 
#    0.000    0.000    0.000    0.600    0.000    0.000 
#    0.000    3.200    0.000    0.000    0.000    0.000 
#
# Total GULP energy -223485.109679 kJ/mol
# GULP energy per Si atom -5587.127742 kJ/mol
# Density = 2.090481 g / cm^3
# Si number density = 20.952496 Si / 1000 Ang^3
#
#
#
# Elastic Constant Matrix: (Units=GPa)
#
#
# Indices 1 2 3 4 5 6 
#
# 1 35.9239 20.6178 3.5133 0.0000 0.0000 0.0000
# 2 20.6178 155.1221 65.7262 0.0000 0.0000 0.0000
# 3 3.5133 65.7262 125.5276 0.0000 0.0000 0.0000
# 4 0.0000 0.0000 0.0000 22.3208 0.0000 0.0000
# 5 0.0000 0.0000 0.0000 0.0000 -20.3064 0.0000
# 6 0.0000 0.0000 0.0000 0.0000 0.0000 -69.4139
#
#
#
# Elastic Compliance Matrix: (Units=1/GPa)
#
#
# Indices 1 2 3 4 5 6 
#
# 1 0.030391 -0.004728 0.001625 0.000000 0.000000 0.000000
# 2 -0.004728 0.009020 -0.004591 0.000000 0.000000 0.000000
# 3 0.001625 -0.004591 0.010324 0.000000 0.000000 0.000000
# 4 0.000000 0.000000 0.000000 0.044801 0.000000 0.000000
# 5 0.000000 0.000000 0.000000 0.000000 -0.049246 0.000000
# 6 0.000000 0.000000 0.000000 0.000000 0.000000 -0.014406
#
#
# Mechanical properties :
#
#
# Convention : Reuss Voigt Hill
#
# Bulk Modulus (GPa) = 29.11317 55.14312 42.12815
# Shear Modulus (GPa) = 86.62274 1.63452 44.12863
#
# Velocity S-wave (km/s) = 6.43678 0.88419 4.59424
# Velocity P-wave (km/s) = 8.31673 5.23619 6.94930
#
# Compressibility (1/GPa) = 0.03434871
#
# Stress axis : x y z
#
# Youngs Moduli (GPa) = 32.90424 110.86505 96.85700
#
# Poissons Ratio (x) = 0.52416 -0.15739
# Poissons Ratio (y) = 0.15557 0.44463
# Poissons Ratio (z) = -0.05347 0.50893
#
# Static dielectric constant tensor:
#      x y z
#    x 1.725610 0.000000 0.000000 
#    y 0.000000 1.792130 0.000000 
#    z 0.000000 0.000000 1.306400 
# 
# From -- ./inp_files/35084.got.cif
#   From: 2010.05.17/outbox.cif.g08.bks.cpg/sg63_18_cif.got.tgz:35084.got - 2010.06.03 15:47:04.
