data_PCOD9470882
_publ_section_title
;
Structure prediction by ZEFSAII (Michael W. Deem and Ramdas Pophale) SiO2 
 PCOD9470882
Probable space group: C M C M
;
_chemical_formula_sum "Si O2"
_cell_formula_units_Z 112
_cell_length_a 13.041860
_cell_length_b 22.169482
_cell_length_c 21.042377
_cell_angle_alpha 90.000000
_cell_angle_beta 90.000000
_cell_angle_gamma 90.000000
_cell_volume 6084.009407
_symmetry_space_group_name_H-M "C M C M"
_symmetry_group_IT_number 63
_symmetry_cell_setting 'orthorhombic'
loop_
_space_group_symop_operation_xyz
x,y,z
-x,-y,1/2+z
x,-y,-z
-x,y,1/2-z
-x,-y,-z
x,y,1/2-z
-x,y,z
x,-y,1/2+z
1/2+x,1/2+y,z
1/2-x,1/2-y,1/2+z
1/2+x,1/2-y,-z
1/2-x,1/2+y,1/2-z
1/2-x,1/2-y,-z
1/2+x,1/2+y,1/2-z
1/2-x,1/2+y,z
1/2+x,1/2-y,1/2+z
loop_
_atom_site_type_symbol
_atom_site_label
_atom_site_fract_x
_atom_site_fract_y
_atom_site_fract_z
Si Si1 0.882989 0.112279 0.677488
Si Si2 0.388084 0.601332 0.173076
Si Si3 0.282756 0.706351 0.589977
Si Si4 0.375325 0.176259 0.476848
Si Si5 0.886045 0.761018 0.673919
Si Si6 0.272299 0.999126 0.323512
Si Si7 0.878955 0.539761 0.057617
O O1 0.874133 0.137843 0.750000
O O2 0.859985 0.158685 0.621053
O O3 0.000000 0.089018 0.672495
O O4 0.798703 0.059729 0.672802
O O5 0.391277 0.603348 0.250000
O O6 0.500000 0.580805 0.150738
O O7 0.372648 0.669796 0.151607
O O8 0.300708 0.554931 0.157795
O O9 0.343300 0.765444 0.565157
O O10 0.203610 0.682060 0.536306
O O11 0.205909 0.723622 0.646555
O O12 0.500000 0.178751 0.490289
O O13 0.351167 0.110949 0.445408
O O14 0.884831 0.760443 0.750000
O O15 0.000000 0.740824 0.653343
O O16 0.306445 0.005491 0.250000
O O17 0.357740 0.004739 0.376826
O O18 0.000000 0.541225 0.048354
O O19 0.832230 0.500000 0.000000
#
# Coordination Sequence:
#
# PCOD9470882 Si02
#       7
#    16  16  16  16  16  16  16
#     4  10  21  36  55  81 111 140 170 209 263 326
#     4   8  14  26  46  73 103 132 163 205 260 314
#     4  11  20  34  55  75 105 144 184 222 259 316
#     4  10  22  37  54  77 104 142 188 228 268 316
#     4   9  17  29  48  76 106 134 169 217 269 316
#     4  10  19  33  56  81 103 132 173 218 262 313
#     4  10  21  38  57  76 104 140 176 218 272 327
#
# _framework density 18.408913999999999
#
# number of rings (size 3 to 8) (size 9 to 14) (size 15 to 20)
#    0.000    2.286    0.000    4.286    0.000    2.000 
#    0.000    1.429    0.000   13.714    0.000    0.000 
#    0.000    0.000    0.000    0.000    0.000    0.000 
#
# Total GULP energy -311761.969340 kJ/mol
# GULP energy per Si atom -5567.178024 kJ/mol
# Density = 1.836701 g / cm^3
# Si number density = 18.408914 Si / 1000 Ang^3
#
#
#
# Elastic Constant Matrix: (Units=GPa)
#
#
# Indices 1 2 3 4 5 6 
#
# 1 37.3690 26.5690 18.7256 0.0000 0.0000 0.0000
# 2 26.5690 62.2926 38.9065 0.0000 0.0000 0.0000
# 3 18.7256 38.9065 69.0075 0.0000 0.0000 0.0000
# 4 0.0000 0.0000 0.0000 23.8587 0.0000 0.0000
# 5 0.0000 0.0000 0.0000 0.0000 23.4467 0.0000
# 6 0.0000 0.0000 0.0000 0.0000 0.0000 0.9054
#
#
#
# Elastic Compliance Matrix: (Units=1/GPa)
#
#
# Indices 1 2 3 4 5 6 
#
# 1 0.038558 -0.015297 -0.001838 0.000000 0.000000 0.000000
# 2 -0.015297 0.030848 -0.013241 0.000000 0.000000 0.000000
# 3 -0.001838 -0.013241 0.022455 0.000000 0.000000 0.000000
# 4 0.000000 0.000000 0.000000 0.041913 0.000000 0.000000
# 5 0.000000 0.000000 0.000000 0.000000 0.042650 0.000000
# 6 0.000000 0.000000 0.000000 0.000000 0.000000 1.104460
#
#
# Mechanical properties :
#
#
# Convention : Reuss Voigt Hill
#
# Bulk Modulus (GPa) = 32.14654 37.45237 34.79945
# Shear Modulus (GPa) = 3.69821 15.27336 9.48579
#
# Velocity S-wave (km/s) = 1.41890 2.88353 2.27245
# Velocity P-wave (km/s) = 4.49275 5.61027 5.08232
#
# Compressibility (1/GPa) = 0.03110754
#
# Stress axis : x y z
#
# Youngs Moduli (GPa) = 25.93528 32.41706 44.53298
#
# Poissons Ratio (x) = 0.49590 0.08186
# Poissons Ratio (y) = 0.39674 0.58966
# Poissons Ratio (z) = 0.04767 0.42924
#
# Static dielectric constant tensor:
#      x y z
#    x 1.652890 0.000000 0.000000 
#    y 0.000000 1.652490 0.000000 
#    z 0.000000 0.000000 1.637520 
# 
# From -- ./inp_files/53172.got.cif
#   From: 2010.05.17/outbox.cif.g08.bks.cpg/sg63_27_cif.got.tgz:53172.got - 2010.06.03 15:47:04.
