data_PCOD9470319
_publ_section_title
;
Structure prediction by ZEFSAII (Michael W. Deem and Ramdas Pophale) SiO2 
 PCOD9470319
Probable space group: C M C M
;
_chemical_formula_sum "Si O2"
_cell_formula_units_Z 72
_cell_length_a 17.154052
_cell_length_b 23.062041
_cell_length_c 7.328409
_cell_angle_alpha 90.000000
_cell_angle_beta 90.000000
_cell_angle_gamma 90.000000
_cell_volume 2899.173201
_symmetry_space_group_name_H-M "C M C M"
_symmetry_group_IT_number 63
_symmetry_cell_setting 'orthorhombic'
loop_
_space_group_symop_operation_xyz
x,y,z
-x,-y,1/2+z
x,-y,-z
-x,y,1/2-z
-x,-y,-z
x,y,1/2-z
-x,y,z
x,-y,1/2+z
1/2+x,1/2+y,z
1/2-x,1/2-y,1/2+z
1/2+x,1/2-y,-z
1/2-x,1/2+y,1/2-z
1/2-x,1/2-y,-z
1/2+x,1/2+y,1/2-z
1/2-x,1/2+y,z
1/2+x,1/2-y,1/2+z
loop_
_atom_site_type_symbol
_atom_site_label
_atom_site_fract_x
_atom_site_fract_y
_atom_site_fract_z
Si Si1 0.663860 0.225926 0.968060
Si Si2 0.500000 0.892263 0.973579
Si Si3 0.500000 0.753826 0.042681
Si Si4 0.833752 0.931617 0.967350
Si Si5 0.334813 0.906475 0.546030
Si Si6 0.000000 0.930233 0.968257
O O1 0.654841 0.219478 0.750000
O O2 0.586236 0.260309 0.032716
O O3 0.750000 0.250000 0.000000
O O4 0.660987 0.162928 0.056214
O O5 0.500000 0.890640 0.750000
O O6 0.580754 0.921952 0.033904
O O7 0.500000 0.824994 0.039064
O O8 0.500000 0.731473 0.250000
O O9 0.831266 0.918175 0.750000
O O10 0.748882 0.916482 0.043965
O O11 0.916593 0.907250 0.036812
O O12 0.839489 0.000000 0.000000
O O13 0.331398 0.932514 0.750000
O O14 0.000000 0.922365 0.750000
O O15 0.000000 0.000000 0.000000
#
# Coordination Sequence:
#
# PCOD9470319 Si02
#       6
#    16   8   8  16  16   8
#     4  10  19  32  50  71  94 121 153 190 229 272
#     4   8  14  26  45  64  84 114 151 185 219 262
#     4   8  16  30  47  66  89 119 154 186 221 268
#     4   9  17  29  46  66  89 116 148 184 222 264
#     4   9  17  30  47  67  90 118 151 187 225 267
#     4   8  14  26  43  62  83 113 149 181 215 260
#
# _framework density 24.834668000000001
#
# number of rings (size 3 to 8) (size 9 to 14) (size 15 to 20)
#    0.000    3.111    0.000    0.667    0.000    1.778 
#    0.000    1.667    0.000    4.000    0.000    0.000 
#    0.000    0.000    0.000    0.000    0.000    0.000 
#
# Total GULP energy -200469.435168 kJ/mol
# GULP energy per Si atom -5568.595421 kJ/mol
# Density = 2.477814 g / cm^3
# Si number density = 24.834668 Si / 1000 Ang^3
#
#
#
# Elastic Constant Matrix: (Units=GPa)
#
#
# Indices 1 2 3 4 5 6 
#
# 1 374.2782 23.7632 11.3150 0.0000 0.0000 0.0000
# 2 23.7632 26.7780 -10.1686 0.0000 0.0000 0.0000
# 3 11.3150 -10.1686 118.8212 0.0000 0.0000 0.0000
# 4 0.0000 0.0000 0.0000 2.1355 0.0000 0.0000
# 5 0.0000 0.0000 0.0000 0.0000 111.7421 0.0000
# 6 0.0000 0.0000 0.0000 0.0000 0.0000 34.3903
#
#
#
# Elastic Compliance Matrix: (Units=1/GPa)
#
#
# Indices 1 2 3 4 5 6 
#
# 1 0.002860 -0.002731 -0.000506 0.000000 0.000000 0.000000
# 2 -0.002731 0.041205 0.003786 0.000000 0.000000 0.000000
# 3 -0.000506 0.003786 0.008788 0.000000 0.000000 0.000000
# 4 0.000000 0.000000 0.000000 0.468267 0.000000 0.000000
# 5 0.000000 0.000000 0.000000 0.000000 0.008949 0.000000
# 6 0.000000 0.000000 0.000000 0.000000 0.000000 0.029078
#
#
# Mechanical properties :
#
#
# Convention : Reuss Voigt Hill
#
# Bulk Modulus (GPa) = 18.53462 63.29963 40.91712
# Shear Modulus (GPa) = 8.68007 62.65144 35.66575
#
# Velocity S-wave (km/s) = 1.87156 5.02814 3.79374
# Velocity P-wave (km/s) = 3.48564 7.69762 5.97507
#
# Compressibility (1/GPa) = 0.05395309
#
# Stress axis : x y z
#
# Youngs Moduli (GPa) = 349.59191 24.26884 113.78855
#
# Poissons Ratio (x) = 0.06627 0.05759
# Poissons Ratio (y) = 0.95460 -0.43084
# Poissons Ratio (z) = 0.17692 -0.09189
#
# Static dielectric constant tensor:
#      x y z
#    x 2.133930 0.000000 0.000000 
#    y 0.000000 1.916960 0.000000 
#    z 0.000000 0.000000 1.993020 
# 
# From -- ./inp_files/4966.got.cif
#   From: 2010.05.17/outbox.cif.g08.bks.cpg/sg63_3_cif.got.tgz:4966.got - 2010.06.03 15:47:04.
