data_PCOD9470176
_publ_section_title
;
Structure prediction by ZEFSAII (Michael W. Deem and Ramdas Pophale) SiO2 
 PCOD9470176
Probable space group: C M C M
;
_chemical_formula_sum "Si O2"
_cell_formula_units_Z 116
_cell_length_a 25.191372
_cell_length_b 19.324188
_cell_length_c 14.207839
_cell_angle_alpha 90.000000
_cell_angle_beta 90.000000
_cell_angle_gamma 90.000000
_cell_volume 6916.415928
_symmetry_space_group_name_H-M "C M C M"
_symmetry_group_IT_number 63
_symmetry_cell_setting 'orthorhombic'
loop_
_space_group_symop_operation_xyz
x,y,z
-x,-y,1/2+z
x,-y,-z
-x,y,1/2-z
-x,-y,-z
x,y,1/2-z
-x,y,z
x,-y,1/2+z
1/2+x,1/2+y,z
1/2-x,1/2-y,1/2+z
1/2+x,1/2-y,-z
1/2-x,1/2+y,1/2-z
1/2-x,1/2-y,-z
1/2+x,1/2+y,1/2-z
1/2-x,1/2+y,z
1/2+x,1/2-y,1/2+z
loop_
_atom_site_type_symbol
_atom_site_label
_atom_site_fract_x
_atom_site_fract_y
_atom_site_fract_z
Si Si1 0.851851 0.932398 0.357647
Si Si2 0.254899 0.078093 0.521695
Si Si3 0.557284 0.779343 0.424173
Si Si4 0.792953 0.167815 0.357799
Si Si5 0.058500 0.852722 0.457325
Si Si6 0.000000 0.220643 0.250000
Si Si7 0.096764 0.915797 0.645297
Si Si8 0.670190 0.822582 0.137009
O O1 0.835111 0.922172 0.250000
O O2 0.801380 0.929273 0.424873
O O3 0.894694 0.876533 0.390440
O O4 0.880776 0.006586 0.364070
O O5 0.243158 0.124416 0.429240
O O6 0.295630 0.118315 0.588025
O O7 0.272777 0.000000 0.500000
O O8 0.500000 0.817380 0.435135
O O9 0.564471 0.726581 0.510019
O O10 0.545399 0.731307 0.332887
O O11 0.610210 0.820978 0.402997
O O12 0.773329 0.164129 0.250000
O O13 0.851232 0.132667 0.358535
O O14 0.802516 0.247888 0.383967
O O15 0.062816 0.897218 0.554073
O O16 0.000000 0.863243 0.416261
O O17 0.070974 0.909630 0.750000
O O18 0.668478 0.829732 0.250000
#
# Coordination Sequence:
#
# PCOD9470176 Si02
#       8
#    16  16  16  16  16   4  16  16
#     4  11  22  37  48  65 100 148 185 212 259 314
#     4  12  22  36  54  78 109 140 178 218 271 327
#     4   9  17  31  53  80 111 135 167 217 270 315
#     4  10  20  34  54  75 105 137 176 220 266 316
#     4  11  21  31  50  74 102 134 180 227 266 310
#     4   8  16  28  56  80 110 140 168 212 274 328
#     4  10  19  31  51  68  95 135 173 216 268 314
#     4  11  20  33  55  85 107 133 176 220 264 315
#
# _framework density 16.771691000000001
#
# number of rings (size 3 to 8) (size 9 to 14) (size 15 to 20)
#    0.414    1.103    4.828    1.241    0.966    2.207 
#    0.000    1.379    0.000    0.414    0.000    0.000 
#    0.000    0.000    0.000    0.000    0.000    0.000 
#
# Total GULP energy -323032.718435 kJ/mol
# GULP energy per Si atom -5569.529628 kJ/mol
# Density = 1.673352 g / cm^3
# Si number density = 16.771691 Si / 1000 Ang^3
#
#
#
# Elastic Constant Matrix: (Units=GPa)
#
#
# Indices 1 2 3 4 5 6 
#
# 1 62.0730 35.3655 12.7692 0.0000 0.0000 0.0000
# 2 35.3655 64.2145 20.7056 0.0000 0.0000 0.0000
# 3 12.7692 20.7056 41.9161 0.0000 0.0000 0.0000
# 4 0.0000 0.0000 0.0000 14.1252 0.0000 0.0000
# 5 0.0000 0.0000 0.0000 0.0000 21.2962 0.0000
# 6 0.0000 0.0000 0.0000 0.0000 0.0000 -3.0292
#
#
#
# Elastic Compliance Matrix: (Units=1/GPa)
#
#
# Indices 1 2 3 4 5 6 
#
# 1 0.023506 -0.012652 -0.000911 0.000000 0.000000 0.000000
# 2 -0.012652 0.025333 -0.008660 0.000000 0.000000 0.000000
# 3 -0.000911 -0.008660 0.028412 0.000000 0.000000 0.000000
# 4 0.000000 0.000000 0.000000 0.070796 0.000000 0.000000
# 5 0.000000 0.000000 0.000000 0.000000 0.046957 0.000000
# 6 0.000000 0.000000 0.000000 0.000000 0.000000 -0.330120
#
#
# Mechanical properties :
#
#
# Convention : Reuss Voigt Hill
#
# Bulk Modulus (GPa) = 30.48218 33.98713 32.23466
# Shear Modulus (GPa) = -62.70674 13.10265 -24.80204
#
# Velocity S-wave (km/s) = -6.12124 2.79809 -3.84969
# Velocity P-wave (km/s) = 5.63429 5.54506 0.70625
#
# Compressibility (1/GPa) = 0.03280606
#
# Stress axis : x y z
#
# Youngs Moduli (GPa) = 42.54292 39.47436 35.19591
#
# Poissons Ratio (x) = 0.49942 0.03206
# Poissons Ratio (y) = 0.53824 0.30479
# Poissons Ratio (z) = 0.03876 0.34184
#
# Static dielectric constant tensor:
#      x y z
#    x 1.574460 0.000000 0.000000 
#    y 0.000000 1.571710 0.000000 
#    z 0.000000 0.000000 1.585310 
# 
# From -- ./inp_files/37136.got.cif
#   From: 2010.05.17/outbox.cif.g08.bks.cpg/sg63_19_cif.got.tgz:37136.got - 2010.06.03 15:47:04.
