data_PCOD9470115
_publ_section_title
;
Structure prediction by ZEFSAII (Michael W. Deem and Ramdas Pophale) SiO2 
 PCOD9470115
Probable space group: C M C M
;
_chemical_formula_sum "Si O2"
_cell_formula_units_Z 104
_cell_length_a 28.719052
_cell_length_b 21.000921
_cell_length_c 9.451338
_cell_angle_alpha 90.000000
_cell_angle_beta 90.000000
_cell_angle_gamma 90.000000
_cell_volume 5700.352808
_symmetry_space_group_name_H-M "C M C M"
_symmetry_group_IT_number 63
_symmetry_cell_setting 'orthorhombic'
loop_
_space_group_symop_operation_xyz
x,y,z
-x,-y,1/2+z
x,-y,-z
-x,y,1/2-z
-x,-y,-z
x,y,1/2-z
-x,y,z
x,-y,1/2+z
1/2+x,1/2+y,z
1/2-x,1/2-y,1/2+z
1/2+x,1/2-y,-z
1/2-x,1/2+y,1/2-z
1/2-x,1/2-y,-z
1/2+x,1/2+y,1/2-z
1/2-x,1/2+y,z
1/2+x,1/2-y,1/2+z
loop_
_atom_site_type_symbol
_atom_site_label
_atom_site_fract_x
_atom_site_fract_y
_atom_site_fract_z
Si Si1 0.500000 0.065895 0.581288
Si Si2 0.720080 0.802872 0.416012
Si Si3 0.555963 0.538448 0.250000
Si Si4 0.387338 0.774684 0.401757
Si Si5 0.943789 0.103929 0.750000
Si Si6 0.913233 0.383501 0.913285
Si Si7 0.808250 0.432613 0.921026
Si Si8 0.444213 0.651241 0.451747
O O1 0.500000 0.061069 0.750000
O O2 0.546616 0.097550 0.521432
O O3 0.500000 0.000000 0.500000
O O4 0.734723 0.812075 0.250000
O O5 0.750000 0.750000 0.500000
O O6 0.668118 0.773580 0.410171
O O7 0.715399 0.871100 0.499913
O O8 0.500000 0.532242 0.250000
O O9 0.575553 0.467803 0.250000
O O10 0.567109 0.583246 0.118085
O O11 0.398099 0.808411 0.250000
O O12 0.403280 0.811381 0.541304
O O13 0.413580 0.708216 0.395977
O O14 0.931957 0.142991 0.613443
O O15 0.000000 0.097815 0.750000
O O16 0.927625 0.390838 0.750000
O O17 0.864260 0.420384 0.933712
O O18 0.798068 0.434087 0.750000
O O19 0.797453 0.500000 0.000000
O O20 0.500000 0.662411 0.431345
#
# Coordination Sequence:
#
# PCOD9470115 Si02
#       8
#     8  16   8  16   8  16  16  16
#     4  12  24  38  54  74 108 154 197 234 279 328
#     4  10  21  39  62  88 115 149 189 239 291 347
#     4   9  16  30  50  70  97 138 184 232 269 330
#     4  10  21  36  54  80 113 145 187 227 282 338
#     4   9  18  30  46  72 101 136 188 232 277 314
#     4  10  22  37  54  79 111 151 192 240 282 333
#     4  10  20  36  61  91 119 149 189 238 288 346
#     4  10  19  31  49  76 108 145 182 227 276 331
#
# _framework density 18.244484
#
# number of rings (size 3 to 8) (size 9 to 14) (size 15 to 20)
#    0.000    2.000    0.769    3.000    2.154    5.538 
#    0.000    0.000    0.000    1.846    0.000    0.000 
#    0.000    0.000    0.000    0.000    0.000    0.000 
#
# Total GULP energy -289493.477203 kJ/mol
# GULP energy per Si atom -5567.182254 kJ/mol
# Density = 1.820296 g / cm^3
# Si number density = 18.244484 Si / 1000 Ang^3
#
#
#
# Elastic Constant Matrix: (Units=GPa)
#
#
# Indices 1 2 3 4 5 6 
#
# 1 37.5196 46.2528 44.6553 0.0000 0.0000 0.0000
# 2 46.2528 114.6247 61.6869 0.0000 0.0000 0.0000
# 3 44.6553 61.6869 177.1573 0.0000 0.0000 0.0000
# 4 0.0000 0.0000 0.0000 34.7910 0.0000 0.0000
# 5 0.0000 0.0000 0.0000 0.0000 5.5866 0.0000
# 6 0.0000 0.0000 0.0000 0.0000 0.0000 21.3172
#
#
#
# Elastic Compliance Matrix: (Units=1/GPa)
#
#
# Indices 1 2 3 4 5 6 
#
# 1 0.061948 -0.020420 -0.008505 0.000000 0.000000 0.000000
# 2 -0.020420 0.017467 -0.000935 0.000000 0.000000 0.000000
# 3 -0.008505 -0.000935 0.008114 0.000000 0.000000 0.000000
# 4 0.000000 0.000000 0.000000 0.028743 0.000000 0.000000
# 5 0.000000 0.000000 0.000000 0.000000 0.179001 0.000000
# 6 0.000000 0.000000 0.000000 0.000000 0.000000 0.046910
#
#
# Mechanical properties :
#
#
# Convention : Reuss Voigt Hill
#
# Bulk Modulus (GPa) = 35.95861 70.49907 53.22884
# Shear Modulus (GPa) = 12.16038 24.11940 18.13989
#
# Velocity S-wave (km/s) = 2.58451 3.63989 3.15662
# Velocity P-wave (km/s) = 5.35335 7.50935 6.52107
#
# Compressibility (1/GPa) = 0.02780975
#
# Stress axis : x y z
#
# Youngs Moduli (GPa) = 16.14266 57.25077 123.24439
#
# Poissons Ratio (x) = 1.16906 1.04814
# Poissons Ratio (y) = 0.32963 0.11522
# Poissons Ratio (z) = 0.13729 0.05353
#
# Static dielectric constant tensor:
#      x y z
#    x 1.585230 0.000000 0.000000 
#    y 0.000000 1.717030 0.000000 
#    z 0.000000 0.000000 1.758430 
# 
# From -- ./inp_files/12626.got.cif
#   From: 2010.05.17/outbox.cif.g08.bks.cpg/sg63_7_cif.got.tgz:12626.got - 2010.06.03 15:47:04.
