data_PCOD9470161
_publ_section_title
;
Structure prediction by ZEFSAII (Michael W. Deem and Ramdas Pophale) SiO2 
 PCOD9470161
Probable space group: C M C M
;
_chemical_formula_sum "Si O2"
_cell_formula_units_Z 104
_cell_length_a 29.320914
_cell_length_b 24.642401
_cell_length_c 8.691413
_cell_angle_alpha 90.000000
_cell_angle_beta 90.000000
_cell_angle_gamma 90.000000
_cell_volume 6279.873737
_symmetry_space_group_name_H-M "C M C M"
_symmetry_group_IT_number 63
_symmetry_cell_setting 'orthorhombic'
loop_
_space_group_symop_operation_xyz
x,y,z
-x,-y,1/2+z
x,-y,-z
-x,y,1/2-z
-x,-y,-z
x,y,1/2-z
-x,y,z
x,-y,1/2+z
1/2+x,1/2+y,z
1/2-x,1/2-y,1/2+z
1/2+x,1/2-y,-z
1/2-x,1/2+y,1/2-z
1/2-x,1/2-y,-z
1/2+x,1/2+y,1/2-z
1/2-x,1/2+y,z
1/2+x,1/2-y,1/2+z
loop_
_atom_site_type_symbol
_atom_site_label
_atom_site_fract_x
_atom_site_fract_y
_atom_site_fract_z
Si Si1 0.776595 0.938768 0.065393
Si Si2 0.913506 0.374297 0.065314
Si Si3 0.176122 0.439124 0.435305
Si Si4 0.129097 0.060872 0.065540
Si Si5 0.500000 0.939237 0.934095
Si Si6 0.553727 0.235677 0.066436
Si Si7 0.552554 0.353417 0.564442
O O1 0.780680 0.939776 0.250000
O O2 0.726487 0.916597 0.023039
O O3 0.822800 0.915102 0.994650
O O4 0.775593 0.000000 0.000000
O O5 0.916901 0.377135 0.250000
O O6 0.865929 0.401754 0.016247
O O7 0.918284 0.312437 0.011397
O O8 0.955369 0.407695 0.993044
O O9 0.170972 0.500000 0.500000
O O10 0.175189 0.443179 0.250000
O O11 0.130734 0.057477 0.250000
O O12 0.087259 0.099262 0.018729
O O13 0.123850 0.000000 0.000000
O O14 0.500000 0.940466 0.750000
O O15 0.500000 0.000000 0.000000
O O16 0.558351 0.232872 0.250000
O O17 0.500000 0.227063 0.028291
O O18 0.565671 0.295516 0.006940
O O19 0.553912 0.348804 0.750000
O O20 0.500000 0.365099 0.519811
#
# Coordination Sequence:
#
# PCOD9470161 Si02
#       7
#    16  16  16  16   8  16  16
#     4   9  16  29  48  70  98 129 163 202 242 291
#     4  11  21  34  52  72  97 132 168 207 254 301
#     4   9  19  32  48  72  98 128 166 205 249 298
#     4  10  19  31  50  77 105 133 165 198 240 296
#     4  12  24  36  48  70 102 134 169 208 255 306
#     4  10  20  34  52  74  98 126 167 212 249 294
#     4   9  19  35  53  73 100 134 168 202 242 292
#
# _framework density 16.560842999999998
#
# number of rings (size 3 to 8) (size 9 to 14) (size 15 to 20)
#    0.000    2.154    0.769    3.923    0.000    5.231 
#    0.000    0.000    0.000    0.923    0.000    0.000 
#    0.000    0.000    0.000    0.000    0.000    0.000 
#
# Total GULP energy -289993.874598 kJ/mol
# GULP energy per Si atom -5576.805281 kJ/mol
# Density = 1.652315 g / cm^3
# Si number density = 16.560843 Si / 1000 Ang^3
#
#
#
# Elastic Constant Matrix: (Units=GPa)
#
#
# Indices 1 2 3 4 5 6 
#
# 1 151.9472 84.4876 43.9468 0.0000 0.0000 0.0000
# 2 84.4876 98.8468 34.9730 0.0000 0.0000 0.0000
# 3 43.9468 34.9730 47.2070 0.0000 0.0000 0.0000
# 4 0.0000 0.0000 0.0000 22.1973 0.0000 0.0000
# 5 0.0000 0.0000 0.0000 0.0000 20.5368 0.0000
# 6 0.0000 0.0000 0.0000 0.0000 0.0000 0.9995
#
#
#
# Elastic Compliance Matrix: (Units=1/GPa)
#
#
# Indices 1 2 3 4 5 6 
#
# 1 0.013502 -0.009613 -0.005448 0.000000 0.000000 0.000000
# 2 -0.009613 0.020555 -0.006279 0.000000 0.000000 0.000000
# 3 -0.005448 -0.006279 0.030906 0.000000 0.000000 0.000000
# 4 0.000000 0.000000 0.000000 0.045051 0.000000 0.000000
# 5 0.000000 0.000000 0.000000 0.000000 0.048693 0.000000
# 6 0.000000 0.000000 0.000000 0.000000 0.000000 1.000465
#
#
# Mechanical properties :
#
#
# Convention : Reuss Voigt Hill
#
# Bulk Modulus (GPa) = 44.87503 69.42398 57.14951
# Shear Modulus (GPa) = 4.13469 17.71964 10.92717
#
# Velocity S-wave (km/s) = 1.58180 3.27459 2.57148
# Velocity P-wave (km/s) = 5.52196 7.50392 6.58790
#
# Compressibility (1/GPa) = 0.02228411
#
# Stress axis : x y z
#
# Youngs Moduli (GPa) = 74.06231 48.65034 32.35586
#
# Poissons Ratio (x) = 0.46769 0.17627
# Poissons Ratio (y) = 0.71198 0.20315
# Poissons Ratio (z) = 0.40347 0.30545
#
# Static dielectric constant tensor:
#      x y z
#    x 1.588090 0.000000 0.000000 
#    y 0.000000 1.545360 0.000000 
#    z 0.000000 0.000000 1.556800 
# 
# From -- ./inp_files/14467.got.cif
#   From: 2010.05.17/outbox.cif.g08.bks.cpg/sg63_8_cif.got.tgz:14467.got - 2010.06.03 15:47:04.
