data_PCOD9470226
_publ_section_title
;
Structure prediction by ZEFSAII (Michael W. Deem and Ramdas Pophale) SiO2 
 PCOD9470226
Probable space group: C M C M
;
_chemical_formula_sum "Si O2"
_cell_formula_units_Z 80
_cell_length_a 17.690679
_cell_length_b 26.910772
_cell_length_c 9.865718
_cell_angle_alpha 90.000000
_cell_angle_beta 90.000000
_cell_angle_gamma 90.000000
_cell_volume 4696.770682
_symmetry_space_group_name_H-M "C M C M"
_symmetry_group_IT_number 63
_symmetry_cell_setting 'orthorhombic'
loop_
_space_group_symop_operation_xyz
x,y,z
-x,-y,1/2+z
x,-y,-z
-x,y,1/2-z
-x,-y,-z
x,y,1/2-z
-x,y,z
x,-y,1/2+z
1/2+x,1/2+y,z
1/2-x,1/2-y,1/2+z
1/2+x,1/2-y,-z
1/2-x,1/2+y,1/2-z
1/2-x,1/2-y,-z
1/2+x,1/2+y,1/2-z
1/2-x,1/2+y,z
1/2+x,1/2-y,1/2+z
loop_
_atom_site_type_symbol
_atom_site_label
_atom_site_fract_x
_atom_site_fract_y
_atom_site_fract_z
Si Si1 0.082178 0.851189 0.412475
Si Si2 0.821263 0.600774 0.518736
Si Si3 0.410457 0.955817 0.250000
Si Si4 0.835932 0.048189 0.586629
Si Si5 0.908296 0.574416 0.250000
Si Si6 0.763032 0.201015 0.587320
O O1 0.079458 0.844571 0.250000
O O2 0.102232 0.908836 0.433899
O O3 0.154722 0.819982 0.456383
O O4 0.000000 0.837973 0.469259
O O5 0.875174 0.572536 0.623385
O O6 0.742841 0.570042 0.528601
O O7 0.865811 0.597542 0.378636
O O8 0.797047 0.656790 0.558255
O O9 0.500000 0.951229 0.250000
O O10 0.393493 0.014745 0.250000
O O11 0.827644 0.039943 0.750000
O O12 0.854894 0.000000 0.500000
O O13 0.000000 0.581499 0.250000
O O14 0.763099 0.210001 0.750000
O O15 0.750000 0.250000 0.500000
#
# Coordination Sequence:
#
# PCOD9470226 Si02
#       6
#    16  16   8  16   8  16
#     4   8  16  34  56  79 109 143 179 219 270 330
#     4  11  21  37  55  82 113 149 192 241 284 343
#     4  11  20  36  57  78 117 161 190 231 294 350
#     4  10  19  31  52  81 109 146 186 222 270 331
#     4  11  24  36  55  86 117 155 200 239 286 348
#     4  10  21  39  64  86 109 147 192 237 290 339
#
# _framework density 17.032979999999998
#
# number of rings (size 3 to 8) (size 9 to 14) (size 15 to 20)
#    0.000    2.000    2.000    3.600    2.800    2.000 
#    0.000    2.000    0.000    1.200    0.000    0.000 
#    0.000    0.000    0.000    0.000    0.000    0.000 
#
# Total GULP energy -222935.733473 kJ/mol
# GULP energy per Si atom -5573.393337 kJ/mol
# Density = 1.699421 g / cm^3
# Si number density = 17.032980 Si / 1000 Ang^3
#
#
#
# Elastic Constant Matrix: (Units=GPa)
#
#
# Indices 1 2 3 4 5 6 
#
# 1 101.0827 51.1053 37.4356 0.0000 0.0000 0.0000
# 2 51.1053 120.2449 39.6857 0.0000 0.0000 0.0000
# 3 37.4356 39.6857 94.8271 0.0000 0.0000 0.0000
# 4 0.0000 0.0000 0.0000 24.6675 0.0000 0.0000
# 5 0.0000 0.0000 0.0000 0.0000 30.9714 0.0000
# 6 0.0000 0.0000 0.0000 0.0000 0.0000 10.7874
#
#
#
# Elastic Compliance Matrix: (Units=1/GPa)
#
#
# Indices 1 2 3 4 5 6 
#
# 1 0.013480 -0.004609 -0.003392 0.000000 0.000000 0.000000
# 2 -0.004609 0.011225 -0.002878 0.000000 0.000000 0.000000
# 3 -0.003392 -0.002878 0.013089 0.000000 0.000000 0.000000
# 4 0.000000 0.000000 0.000000 0.040539 0.000000 0.000000
# 5 0.000000 0.000000 0.000000 0.000000 0.032288 0.000000
# 6 0.000000 0.000000 0.000000 0.000000 0.000000 0.092701
#
#
# Mechanical properties :
#
#
# Convention : Reuss Voigt Hill
#
# Bulk Modulus (GPa) = 62.36618 63.62310 62.99464
# Shear Modulus (GPa) = 21.69885 25.81381 23.75633
#
# Velocity S-wave (km/s) = 3.57309 3.89719 3.73865
# Velocity P-wave (km/s) = 7.32919 7.59505 7.46330
#
# Compressibility (1/GPa) = 0.01603433
#
# Stress axis : x y z
#
# Youngs Moduli (GPa) = 74.18596 89.08453 76.39835
#
# Poissons Ratio (x) = 0.41062 0.25917
# Poissons Ratio (y) = 0.34195 0.21989
# Poissons Ratio (z) = 0.25167 0.25640
#
# Static dielectric constant tensor:
#      x y z
#    x 1.590030 0.000000 0.000000 
#    y 0.000000 1.562120 0.000000 
#    z 0.000000 0.000000 2.460670 
# 
# From -- ./inp_files/6525.got.cif
#   From: 2010.05.17/outbox.cif.g08.bks.cpg/sg63_4_cif.got.tgz:6525.got - 2010.06.03 15:47:04.
