data_PCOD9470310
_publ_section_title
;
Structure prediction by ZEFSAII (Michael W. Deem and Ramdas Pophale) SiO2 
 PCOD9470310
Probable space group: C M C M
;
_chemical_formula_sum "Si O2"
_cell_formula_units_Z 112
_cell_length_a 13.933802
_cell_length_b 17.143807
_cell_length_c 28.079474
_cell_angle_alpha 90.000000
_cell_angle_beta 90.000000
_cell_angle_gamma 90.000000
_cell_volume 6707.580166
_symmetry_space_group_name_H-M "C M C M"
_symmetry_group_IT_number 63
_symmetry_cell_setting 'orthorhombic'
loop_
_space_group_symop_operation_xyz
x,y,z
-x,-y,1/2+z
x,-y,-z
-x,y,1/2-z
-x,-y,-z
x,y,1/2-z
-x,y,z
x,-y,1/2+z
1/2+x,1/2+y,z
1/2-x,1/2-y,1/2+z
1/2+x,1/2-y,-z
1/2-x,1/2+y,1/2-z
1/2-x,1/2-y,-z
1/2+x,1/2+y,1/2-z
1/2-x,1/2+y,z
1/2+x,1/2-y,1/2+z
loop_
_atom_site_type_symbol
_atom_site_label
_atom_site_fract_x
_atom_site_fract_y
_atom_site_fract_z
Si Si1 0.612748 0.089617 0.984098
Si Si2 0.610762 0.401556 0.806573
Si Si3 0.116279 0.274212 0.305703
Si Si4 0.890654 0.041507 0.865819
Si Si5 0.264563 0.194129 0.455140
Si Si6 0.391652 0.439231 0.960532
Si Si7 0.771826 0.338985 0.393031
O O1 0.500000 0.099956 0.973680
O O2 0.673759 0.117562 0.937463
O O3 0.644393 0.142433 0.029375
O O4 0.628956 0.000000 0.000000
O O5 0.609460 0.407411 0.750000
O O6 0.500000 0.401773 0.824063
O O7 0.648508 0.315165 0.817167
O O8 0.653254 0.480262 0.827989
O O9 0.141881 0.291166 0.250000
O O10 0.160563 0.327533 0.346887
O O11 0.000000 0.275590 0.307810
O O12 0.820388 0.111877 0.877156
O O13 0.000000 0.065757 0.852718
O O14 0.896654 0.989052 0.912937
O O15 0.250000 0.250000 0.500000
O O16 0.176325 0.133969 0.453184
O O17 0.262430 0.253836 0.411475
O O18 0.500000 0.414722 0.974440
O O19 0.355256 0.500000 0.000000
#
# Coordination Sequence:
#
# PCOD9470310 Si02
#       7
#    16  16  16  16  16  16  16
#     4  10  21  36  51  68  96 135 176 213 248 296
#     4   8  15  30  51  72  95 124 158 199 247 296
#     4   9  18  33  53  78 105 130 162 206 253 302
#     4  10  20  32  48  71  98 128 163 202 244 293
#     4  10  20  31  46  70  97 126 161 202 247 298
#     4  10  19  32  50  69  93 125 160 201 245 288
#     4  11  21  32  51  76 103 134 167 206 256 308
#
# _framework density 16.697527000000001
#
# number of rings (size 3 to 8) (size 9 to 14) (size 15 to 20)
#    0.000    2.286    0.000    5.143    0.000    5.143 
#    0.000    0.000    0.000    0.000    0.000    0.000 
#    0.000    2.286    0.000    0.000    0.000    0.000 
#
# Total GULP energy -311767.712014 kJ/mol
# GULP energy per Si atom -5567.280572 kJ/mol
# Density = 1.665952 g / cm^3
# Si number density = 16.697527 Si / 1000 Ang^3
#
#
#
# Elastic Constant Matrix: (Units=GPa)
#
#
# Indices 1 2 3 4 5 6 
#
# 1 74.5288 46.0329 26.5433 0.0000 0.0000 0.0000
# 2 46.0329 106.3714 40.6689 0.0000 0.0000 0.0000
# 3 26.5433 40.6689 73.9151 0.0000 0.0000 0.0000
# 4 0.0000 0.0000 0.0000 34.7523 0.0000 0.0000
# 5 0.0000 0.0000 0.0000 0.0000 82.3835 0.0000
# 6 0.0000 0.0000 0.0000 0.0000 0.0000 -9.3171
#
#
#
# Elastic Compliance Matrix: (Units=1/GPa)
#
#
# Indices 1 2 3 4 5 6 
#
# 1 0.018784 -0.007028 -0.002878 0.000000 0.000000 0.000000
# 2 -0.007028 0.014535 -0.005474 0.000000 0.000000 0.000000
# 3 -0.002878 -0.005474 0.017574 0.000000 0.000000 0.000000
# 4 0.000000 0.000000 0.000000 0.028775 0.000000 0.000000
# 5 0.000000 0.000000 0.000000 0.000000 0.012138 0.000000
# 6 0.000000 0.000000 0.000000 0.000000 0.000000 -0.107330
#
#
# Mechanical properties :
#
#
# Convention : Reuss Voigt Hill
#
# Bulk Modulus (GPa) = 49.66981 53.47839 51.57410
# Shear Modulus (GPa) = 227.80848 31.00176 129.40512
#
# Velocity S-wave (km/s) = 11.69310 4.31358 8.81293
# Velocity P-wave (km/s) = 14.56421 7.54364 11.59791
#
# Compressibility (1/GPa) = 0.02013296
#
# Stress axis : x y z
#
# Youngs Moduli (GPa) = 53.23732 68.79813 56.90137
#
# Poissons Ratio (x) = 0.48354 0.16378
# Poissons Ratio (y) = 0.37417 0.31145
# Poissons Ratio (z) = 0.15323 0.37657
#
# Static dielectric constant tensor:
#      x y z
#    x 1.570660 0.000000 0.000000 
#    y 0.000000 1.579460 0.000000 
#    z 0.000000 0.000000 2.123610 
# 
# From -- ./inp_files/69388.got.cif
#   From: 2010.05.17/outbox.cif.g08.bks.cpg/sg63_35_cif.got.tgz:69388.got - 2010.06.03 15:47:04.
