data_PCOD9470930
_publ_section_title
;
Structure prediction by ZEFSAII (Michael W. Deem and Ramdas Pophale) SiO2 
 PCOD9470930
Probable space group: C M C M
;
_chemical_formula_sum "Si O2"
_cell_formula_units_Z 64
_cell_length_a 17.719585
_cell_length_b 25.006167
_cell_length_c 7.783948
_cell_angle_alpha 90.000000
_cell_angle_beta 90.000000
_cell_angle_gamma 90.000000
_cell_volume 3449.058810
_symmetry_space_group_name_H-M "C M C M"
_symmetry_group_IT_number 63
_symmetry_cell_setting 'orthorhombic'
loop_
_space_group_symop_operation_xyz
x,y,z
-x,-y,1/2+z
x,-y,-z
-x,y,1/2-z
-x,-y,-z
x,y,1/2-z
-x,y,z
x,-y,1/2+z
1/2+x,1/2+y,z
1/2-x,1/2-y,1/2+z
1/2+x,1/2-y,-z
1/2-x,1/2+y,1/2-z
1/2-x,1/2-y,-z
1/2+x,1/2+y,1/2-z
1/2-x,1/2+y,z
1/2+x,1/2-y,1/2+z
loop_
_atom_site_type_symbol
_atom_site_label
_atom_site_fract_x
_atom_site_fract_y
_atom_site_fract_z
Si Si1 0.409691 0.866211 0.750000
Si Si2 0.319732 0.557781 0.454449
Si Si3 0.090624 0.835300 0.949415
Si Si4 0.408136 0.744089 0.750000
Si Si5 0.852340 0.560099 0.555444
O O1 0.500000 0.865475 0.750000
O O2 0.381312 0.805097 0.750000
O O3 0.382332 0.897890 0.582252
O O4 0.353995 0.500000 0.500000
O O5 0.305472 0.558744 0.250000
O O6 0.371146 0.608417 0.497059
O O7 0.238788 0.561324 0.545690
O O8 0.109297 0.823227 0.750000
O O9 0.000000 0.840719 0.960777
O O10 0.114694 0.789186 0.081172
O O11 0.500000 0.745630 0.750000
O O12 0.875124 0.500000 0.500000
O O13 0.877135 0.570576 0.750000
#
# Coordination Sequence:
#
# PCOD9470930 Si02
#       5
#     8  16  16   8  16
#     4  11  24  42  61  86 111 139 187 234 279 346
#     4  10  19  33  57  84 117 155 187 227 278 332
#     4   9  19  35  56  83 115 152 194 234 268 316
#     4   9  20  38  59  78 110 153 187 226 282 332
#     4  11  21  39  61  84 116 149 178 224 287 343
#
# _framework density 18.555786000000001
#
# number of rings (size 3 to 8) (size 9 to 14) (size 15 to 20)
#    0.000    2.000    2.500    2.250    3.500    2.500 
#    0.000    3.750    0.000    0.000    0.000    0.000 
#    0.000    0.000    0.000    0.000    0.000    0.000 
#
# Total GULP energy -178624.367560 kJ/mol
# GULP energy per Si atom -5582.011486 kJ/mol
# Density = 1.851355 g / cm^3
# Si number density = 18.555786 Si / 1000 Ang^3
#
#
#
# Elastic Constant Matrix: (Units=GPa)
#
#
# Indices 1 2 3 4 5 6 
#
# 1 17.9512 38.6433 27.0660 0.0000 0.0000 0.0000
# 2 38.6433 199.4939 102.5086 0.0000 0.0000 0.0000
# 3 27.0660 102.5086 147.1300 0.0000 0.0000 0.0000
# 4 0.0000 0.0000 0.0000 32.8087 0.0000 0.0000
# 5 0.0000 0.0000 0.0000 0.0000 17.9424 0.0000
# 6 0.0000 0.0000 0.0000 0.0000 0.0000 50.6590
#
#
#
# Elastic Compliance Matrix: (Units=1/GPa)
#
#
# Indices 1 2 3 4 5 6 
#
# 1 0.100853 -0.015580 -0.007698 0.000000 0.000000 0.000000
# 2 -0.015580 0.010215 -0.004251 0.000000 0.000000 0.000000
# 3 -0.007698 -0.004251 0.011174 0.000000 0.000000 0.000000
# 4 0.000000 0.000000 0.000000 0.030480 0.000000 0.000000
# 5 0.000000 0.000000 0.000000 0.000000 0.055734 0.000000
# 6 0.000000 0.000000 0.000000 0.000000 0.000000 0.019740
#
#
# Mechanical properties :
#
#
# Convention : Reuss Voigt Hill
#
# Bulk Modulus (GPa) = 14.88445 77.89009 46.38727
# Shear Modulus (GPa) = 16.35870 33.37251 24.86561
#
# Velocity S-wave (km/s) = 2.97239 4.24547 3.66464
# Velocity P-wave (km/s) = 4.45185 8.13015 6.55432
#
# Compressibility (1/GPa) = 0.06718420
#
# Stress axis : x y z
#
# Youngs Moduli (GPa) = 9.91547 97.89550 89.49038
#
# Poissons Ratio (x) = 1.52526 0.68886
# Poissons Ratio (y) = 0.15449 0.38041
# Poissons Ratio (z) = 0.07632 0.41614
#
# Static dielectric constant tensor:
#      x y z
#    x 1.630230 0.000000 0.000000 
#    y 0.000000 1.626150 0.000000 
#    z 0.000000 0.000000 1.650680 
# 
# From -- ./inp_files/5787.got.cif
#   From: 2010.05.17/outbox.cif.g08.bks.cpg/sg63_3_cif.got.tgz:5787.got - 2010.06.03 15:47:04.
