data_PCOD9470375
_publ_section_title
;
Structure prediction by ZEFSAII (Michael W. Deem and Ramdas Pophale) SiO2 
 PCOD9470375
Probable space group: C M C M
;
_chemical_formula_sum "Si O2"
_cell_formula_units_Z 80
_cell_length_a 24.012906
_cell_length_b 24.727437
_cell_length_c 8.718995
_cell_angle_alpha 90.000000
_cell_angle_beta 90.000000
_cell_angle_gamma 90.000000
_cell_volume 5177.144103
_symmetry_space_group_name_H-M "C M C M"
_symmetry_group_IT_number 63
_symmetry_cell_setting 'orthorhombic'
loop_
_space_group_symop_operation_xyz
x,y,z
-x,-y,1/2+z
x,-y,-z
-x,y,1/2-z
-x,-y,-z
x,y,1/2-z
-x,y,z
x,-y,1/2+z
1/2+x,1/2+y,z
1/2-x,1/2-y,1/2+z
1/2+x,1/2-y,-z
1/2-x,1/2+y,1/2-z
1/2-x,1/2-y,-z
1/2+x,1/2+y,1/2-z
1/2-x,1/2+y,z
1/2+x,1/2-y,1/2+z
loop_
_atom_site_type_symbol
_atom_site_label
_atom_site_fract_x
_atom_site_fract_y
_atom_site_fract_z
Si Si1 0.112253 0.942789 0.066441
Si Si2 0.226166 0.665994 0.932838
Si Si3 0.237292 0.056807 0.433042
Si Si4 0.337237 0.264375 0.066808
Si Si5 0.563995 0.666102 0.067170
O O1 0.113479 0.944535 0.250000
O O2 0.175339 0.936054 0.003924
O O3 0.077578 0.891780 0.008267
O O4 0.091443 0.000000 0.000000
O O5 0.222162 0.659610 0.750000
O O6 0.285492 0.695155 0.967338
O O7 0.227181 0.608209 0.014322
O O8 0.179621 0.707174 0.993681
O O9 0.232901 0.054017 0.250000
O O10 0.258686 0.000000 0.500000
O O11 0.341155 0.259552 0.250000
O O12 0.392596 0.290767 0.999272
O O13 0.571928 0.661531 0.250000
O O14 0.500000 0.680853 0.036537
#
# Coordination Sequence:
#
# PCOD9470375 Si02
#       5
#    16  16  16  16  16
#     4  11  21  34  50  68  92 126 166 209 251 291
#     4  10  19  32  51  74 100 128 160 200 245 296
#     4  11  20  31  49  72 101 131 163 201 244 292
#     4  10  20  33  51  73  97 127 163 202 247 294
#     4  11  23  37  52  70  95 128 166 209 252 293
#
# _framework density 15.452534999999999
#
# number of rings (size 3 to 8) (size 9 to 14) (size 15 to 20)
#    0.000    1.400    2.000    6.600    0.000    3.600 
#    0.000    0.000    0.000    0.000    0.000    0.000 
#    0.000    0.800    0.000    3.000    0.000    4.600 
#
# Total GULP energy -223471.319444 kJ/mol
# GULP energy per Si atom -5586.782986 kJ/mol
# Density = 1.541736 g / cm^3
# Si number density = 15.452535 Si / 1000 Ang^3
#
#
#
# Elastic Constant Matrix: (Units=GPa)
#
#
# Indices 1 2 3 4 5 6 
#
# 1 73.6576 56.5630 47.9527 0.0000 0.0000 0.0000
# 2 56.5630 114.4828 63.1762 0.0000 0.0000 0.0000
# 3 47.9527 63.1762 102.8920 0.0000 0.0000 0.0000
# 4 0.0000 0.0000 0.0000 30.8929 0.0000 0.0000
# 5 0.0000 0.0000 0.0000 0.0000 19.9265 0.0000
# 6 0.0000 0.0000 0.0000 0.0000 0.0000 20.5326
#
#
#
# Elastic Compliance Matrix: (Units=1/GPa)
#
#
# Indices 1 2 3 4 5 6 
#
# 1 0.024043 -0.008614 -0.005916 0.000000 0.000000 0.000000
# 2 -0.008614 0.016298 -0.005992 0.000000 0.000000 0.000000
# 3 -0.005916 -0.005992 0.016155 0.000000 0.000000 0.000000
# 4 0.000000 0.000000 0.000000 0.032370 0.000000 0.000000
# 5 0.000000 0.000000 0.000000 0.000000 0.050184 0.000000
# 6 0.000000 0.000000 0.000000 0.000000 0.000000 0.048703
#
#
# Mechanical properties :
#
#
# Convention : Reuss Voigt Hill
#
# Bulk Modulus (GPa) = 64.72071 69.60179 67.16125
# Shear Modulus (GPa) = 21.37224 22.49310 21.93267
#
# Velocity S-wave (km/s) = 3.72303 3.81941 3.77152
# Velocity P-wave (km/s) = 7.77533 8.03683 7.90716
#
# Compressibility (1/GPa) = 0.01545100
#
# Stress axis : x y z
#
# Youngs Moduli (GPa) = 41.59261 61.35803 61.89918
#
# Poissons Ratio (x) = 0.52855 0.36619
# Poissons Ratio (y) = 0.35829 0.37092
# Poissons Ratio (z) = 0.24606 0.36767
#
# Static dielectric constant tensor:
#      x y z
#    x 1.490300 0.000000 0.000000 
#    y 0.000000 1.519130 0.000000 
#    z 0.000000 0.000000 1.512160 
# 
# From -- ./inp_files/6453.got.cif
#   From: 2010.05.17/outbox.cif.g08.bks.cpg/sg63_4_cif.got.tgz:6453.got - 2010.06.03 15:47:04.
