data_PCOD9470868
_publ_section_title
;
Structure prediction by ZEFSAII (Michael W. Deem and Ramdas Pophale) SiO2 
 PCOD9470868
Probable space group: C M C M
;
_chemical_formula_sum "Si O2"
_cell_formula_units_Z 112
_cell_length_a 14.455102
_cell_length_b 24.207873
_cell_length_c 16.460352
_cell_angle_alpha 90.000000
_cell_angle_beta 90.000000
_cell_angle_gamma 90.000000
_cell_volume 5759.926095
_symmetry_space_group_name_H-M "C M C M"
_symmetry_group_IT_number 63
_symmetry_cell_setting 'orthorhombic'
loop_
_space_group_symop_operation_xyz
x,y,z
-x,-y,1/2+z
x,-y,-z
-x,y,1/2-z
-x,-y,-z
x,y,1/2-z
-x,y,z
x,-y,1/2+z
1/2+x,1/2+y,z
1/2-x,1/2-y,1/2+z
1/2+x,1/2-y,-z
1/2-x,1/2+y,1/2-z
1/2-x,1/2-y,-z
1/2+x,1/2+y,1/2-z
1/2-x,1/2+y,z
1/2+x,1/2-y,1/2+z
loop_
_atom_site_type_symbol
_atom_site_label
_atom_site_fract_x
_atom_site_fract_y
_atom_site_fract_z
Si Si1 0.108461 0.729825 0.572237
Si Si2 0.195076 0.168542 0.341959
Si Si3 0.763378 0.520353 0.591115
Si Si4 0.108244 0.951038 0.652454
Si Si5 0.098507 0.438111 0.658896
Si Si6 0.104438 0.323070 0.602834
Si Si7 0.890765 0.615453 0.653231
O O1 0.156227 0.786271 0.596790
O O2 0.123624 0.708455 0.480716
O O3 0.131655 0.678932 0.631548
O O4 0.000000 0.739637 0.580862
O O5 0.159032 0.176393 0.250000
O O6 0.164422 0.106154 0.366740
O O7 0.304829 0.180508 0.342367
O O8 0.780950 0.500000 0.500000
O O9 0.657709 0.504326 0.612125
O O10 0.819555 0.479602 0.649898
O O11 0.813483 0.578261 0.608393
O O12 0.112557 0.957282 0.750000
O O13 0.000000 0.945372 0.629620
O O14 0.100626 0.413579 0.750000
O O15 0.100617 0.389618 0.593326
O O16 0.000000 0.467991 0.651040
O O17 0.000000 0.307811 0.631763
O O18 0.885310 0.605772 0.750000
O O19 0.000000 0.606204 0.628867
#
# Coordination Sequence:
#
# PCOD9470868 Si02
#       7
#    16  16  16  16  16  16  16
#     4  10  21  37  57  84 118 152 190 235 285 338
#     4  11  21  36  61  87 113 151 195 237 285 338
#     4  12  23  35  55  81 115 150 188 231 290 343
#     4  10  22  40  61  84 109 142 193 249 292 334
#     4  10  19  33  55  83 116 152 190 231 278 336
#     4  10  20  34  54  85 121 150 179 227 287 343
#     4  10  21  36  55  82 116 152 190 230 277 343
#
# _framework density 19.444693999999998
#
# number of rings (size 3 to 8) (size 9 to 14) (size 15 to 20)
#    0.000    1.571    1.429    4.286    0.000    6.000 
#    0.000    0.000    0.000    0.857    0.000    0.000 
#    0.000    0.000    0.000    0.000    0.000    0.000 
#
# Total GULP energy -312011.786492 kJ/mol
# GULP energy per Si atom -5571.639045 kJ/mol
# Density = 1.940044 g / cm^3
# Si number density = 19.444694 Si / 1000 Ang^3
#
#
#
# Elastic Constant Matrix: (Units=GPa)
#
#
# Indices 1 2 3 4 5 6 
#
# 1 85.7328 21.8590 21.2962 0.0000 0.0000 0.0000
# 2 21.8590 48.8464 0.0123 0.0000 0.0000 0.0000
# 3 21.2962 0.0123 36.7256 0.0000 0.0000 0.0000
# 4 0.0000 0.0000 0.0000 18.7308 0.0000 0.0000
# 5 0.0000 0.0000 0.0000 0.0000 20.6682 0.0000
# 6 0.0000 0.0000 0.0000 0.0000 0.0000 23.4942
#
#
#
# Elastic Compliance Matrix: (Units=1/GPa)
#
#
# Indices 1 2 3 4 5 6 
#
# 1 0.015721 -0.007033 -0.009114 0.000000 0.000000 0.000000
# 2 -0.007033 0.023619 0.004070 0.000000 0.000000 0.000000
# 3 -0.009114 0.004070 0.032513 0.000000 0.000000 0.000000
# 4 0.000000 0.000000 0.000000 0.053388 0.000000 0.000000
# 5 0.000000 0.000000 0.000000 0.000000 0.048384 0.000000
# 6 0.000000 0.000000 0.000000 0.000000 0.000000 0.042564
#
#
# Mechanical properties :
#
#
# Convention : Reuss Voigt Hill
#
# Bulk Modulus (GPa) = 20.96476 28.62665 24.79570
# Shear Modulus (GPa) = 19.51289 21.12111 20.31700
#
# Velocity S-wave (km/s) = 3.17125 3.29935 3.23594
# Velocity P-wave (km/s) = 4.92080 5.41002 5.17120
#
# Compressibility (1/GPa) = 0.04769910
#
# Stress axis : x y z
#
# Youngs Moduli (GPa) = 63.60805 42.33943 30.75735
#
# Poissons Ratio (x) = 0.29778 0.28032
# Poissons Ratio (y) = 0.44736 -0.12519
# Poissons Ratio (z) = 0.57972 -0.17234
#
# Static dielectric constant tensor:
#      x y z
#    x 1.757540 0.000000 0.000000 
#    y 0.000000 1.680710 0.000000 
#    z 0.000000 0.000000 1.690090 
# 
# From -- ./inp_files/32558.got.cif
#   From: 2010.05.17/outbox.cif.g08.bks.cpg/sg63_17_cif.got.tgz:32558.got - 2010.06.03 15:47:04.
