data_PCOD9470158
_publ_section_title
;
Structure prediction by ZEFSAII (Michael W. Deem and Ramdas Pophale) SiO2 
 PCOD9470158
Probable space group: C M C M
;
_chemical_formula_sum "Si O2"
_cell_formula_units_Z 96
_cell_length_a 23.171385
_cell_length_b 24.784443
_cell_length_c 7.629203
_cell_angle_alpha 90.000000
_cell_angle_beta 90.000000
_cell_angle_gamma 90.000000
_cell_volume 4381.374005
_symmetry_space_group_name_H-M "C M C M"
_symmetry_group_IT_number 63
_symmetry_cell_setting 'orthorhombic'
loop_
_space_group_symop_operation_xyz
x,y,z
-x,-y,1/2+z
x,-y,-z
-x,y,1/2-z
-x,-y,-z
x,y,1/2-z
-x,y,z
x,-y,1/2+z
1/2+x,1/2+y,z
1/2-x,1/2-y,1/2+z
1/2+x,1/2-y,-z
1/2-x,1/2+y,1/2-z
1/2-x,1/2-y,-z
1/2+x,1/2+y,1/2-z
1/2-x,1/2+y,z
1/2+x,1/2-y,1/2+z
loop_
_atom_site_type_symbol
_atom_site_label
_atom_site_fract_x
_atom_site_fract_y
_atom_site_fract_z
Si Si1 0.436720 0.397724 0.045718
Si Si2 0.680168 0.441424 0.040542
Si Si3 0.066342 0.439501 0.039487
Si Si4 0.236737 0.831702 0.462522
Si Si5 0.868630 0.331523 0.465027
Si Si6 0.615569 0.715551 0.454176
O O1 0.440902 0.412628 0.250000
O O2 0.500000 0.403778 0.966049
O O3 0.384414 0.432401 0.967347
O O4 0.415598 0.335498 0.039978
O O5 0.676983 0.436178 0.250000
O O6 0.718315 0.391724 0.980402
O O7 0.703209 0.500000 0.000000
O O8 0.064592 0.435277 0.250000
O O9 0.102815 0.387750 0.976794
O O10 0.000000 0.436636 0.974110
O O11 0.088724 0.500000 0.000000
O O12 0.235646 0.827777 0.250000
O O13 0.302186 0.825101 0.521217
O O14 0.184853 0.793980 0.528704
O O15 0.868739 0.331918 0.250000
O O16 0.899009 0.275537 0.519622
O O17 0.600550 0.712773 0.250000
#
# Coordination Sequence:
#
# PCOD9470158 Si02
#       6
#    16  16  16  16  16  16
#     4   9  19  36  53  69  96 135 170 199 241 295
#     4   9  18  31  48  69  94 126 162 201 243 286
#     4   9  18  34  53  72  98 130 162 200 246 292
#     4   9  18  34  51  68  98 136 166 195 241 296
#     4   9  18  32  52  75  98 130 167 199 238 293
#     4  10  19  31  50  77 103 126 160 205 248 287
#
# _framework density 21.910934000000001
#
# number of rings (size 3 to 8) (size 9 to 14) (size 15 to 20)
#    0.000    2.833    0.000    2.000    0.000    4.667 
#    0.000    5.000    0.000    2.000    0.000    0.000 
#    0.000    0.000    0.000    0.000    0.000    0.000 
#
# Total GULP energy -267723.470961 kJ/mol
# GULP energy per Si atom -5577.572312 kJ/mol
# Density = 2.186106 g / cm^3
# Si number density = 21.910934 Si / 1000 Ang^3
#
#
#
# Elastic Constant Matrix: (Units=GPa)
#
#
# Indices 1 2 3 4 5 6 
#
# 1 8.5495 -11.8662 -7.6058 0.0000 0.0000 0.0000
# 2 -11.8662 126.7988 -14.0236 0.0000 0.0000 0.0000
# 3 -7.6058 -14.0236 41.8951 0.0000 0.0000 0.0000
# 4 0.0000 0.0000 0.0000 21.1716 0.0000 0.0000
# 5 0.0000 0.0000 0.0000 0.0000 6.3273 0.0000
# 6 0.0000 0.0000 0.0000 0.0000 0.0000 0.5787
#
#
#
# Elastic Compliance Matrix: (Units=1/GPa)
#
#
# Indices 1 2 3 4 5 6 
#
# 1 0.182894 0.021587 0.040429 0.000000 0.000000 0.000000
# 2 0.021587 0.010738 0.007513 0.000000 0.000000 0.000000
# 3 0.040429 0.007513 0.033724 0.000000 0.000000 0.000000
# 4 0.000000 0.000000 0.000000 0.047233 0.000000 0.000000
# 5 0.000000 0.000000 0.000000 0.000000 0.158046 0.000000
# 6 0.000000 0.000000 0.000000 0.000000 0.000000 1.728125
#
#
# Mechanical properties :
#
#
# Convention : Reuss Voigt Hill
#
# Bulk Modulus (GPa) = 2.72915 12.25023 7.48969
# Shear Modulus (GPa) = 2.33227 19.66478 10.99852
#
# Velocity S-wave (km/s) = 1.03283 2.99906 2.24289
# Velocity P-wave (km/s) = 1.63419 4.19470 3.18325
#
# Compressibility (1/GPa) = 0.36641504
#
# Stress axis : x y z
#
# Youngs Moduli (GPa) = 5.46765 93.13026 29.65266
#
# Poissons Ratio (x) = -2.01042 -1.19884
# Poissons Ratio (y) = -0.11803 -0.22279
# Poissons Ratio (z) = -0.22105 -0.69971
#
# Static dielectric constant tensor:
#      x y z
#    x 1.811030 0.000000 0.000000 
#    y 0.000000 1.801820 0.000000 
#    z 0.000000 0.000000 1.825610 
# 
# From -- ./inp_files/10455.got.cif
#   From: 2010.05.17/outbox.cif.g08.bks.cpg/sg63_6_cif.got.tgz:10455.got - 2010.06.03 15:47:04.
