data_PCOD9470563
_publ_section_title
;
Structure prediction by ZEFSAII (Michael W. Deem and Ramdas Pophale) SiO2 
 PCOD9470563
Probable space group: C M C M
;
_chemical_formula_sum "Si O2"
_cell_formula_units_Z 116
_cell_length_a 7.787658
_cell_length_b 24.525153
_cell_length_c 30.908590
_cell_angle_alpha 90.000000
_cell_angle_beta 90.000000
_cell_angle_gamma 90.000000
_cell_volume 5903.339907
_symmetry_space_group_name_H-M "C M C M"
_symmetry_group_IT_number 63
_symmetry_cell_setting 'orthorhombic'
loop_
_space_group_symop_operation_xyz
x,y,z
-x,-y,1/2+z
x,-y,-z
-x,y,1/2-z
-x,-y,-z
x,y,1/2-z
-x,y,z
x,-y,1/2+z
1/2+x,1/2+y,z
1/2-x,1/2-y,1/2+z
1/2+x,1/2-y,-z
1/2-x,1/2+y,1/2-z
1/2-x,1/2-y,-z
1/2+x,1/2+y,1/2-z
1/2-x,1/2+y,z
1/2+x,1/2-y,1/2+z
loop_
_atom_site_type_symbol
_atom_site_label
_atom_site_fract_x
_atom_site_fract_y
_atom_site_fract_z
Si Si1 0.291364 0.642196 0.377393
Si Si2 0.198322 0.448001 0.298308
Si Si3 0.701730 0.770243 0.684958
Si Si4 0.699626 0.344879 0.151047
Si Si5 0.207996 0.822104 0.966568
Si Si6 0.500000 0.694860 0.250000
Si Si7 0.199421 0.069049 0.201523
Si Si8 0.700536 0.200416 0.559221
O O1 0.500000 0.642398 0.376996
O O2 0.220153 0.699918 0.360917
O O3 0.241532 0.637348 0.427648
O O4 0.229325 0.599769 0.340605
O O5 0.247798 0.427625 0.250000
O O6 0.216566 0.400458 0.333007
O O7 0.296146 0.504324 0.306298
O O8 0.000000 0.464387 0.296811
O O9 0.500000 0.773441 0.698362
O O10 0.755579 0.707368 0.679355
O O11 0.845247 0.799701 0.713442
O O12 0.500000 0.351914 0.159960
O O13 0.721571 0.328534 0.101053
O O14 0.267462 0.761129 0.952358
O O15 0.000000 0.820977 0.969292
O O16 0.275739 0.832613 0.014578
O O17 0.275382 0.079063 0.250000
O O18 0.000000 0.086184 0.205491
O O19 0.500000 0.206665 0.569183
#
# Coordination Sequence:
#
# PCOD9470563 Si02
#       8
#    16  16  16  16  16   4  16  16
#     4  10  19  35  59  84 117 156 190 238 291 340
#     4  10  22  38  58  80 107 148 193 236 288 338
#     4  11  25  38  56  85 114 158 199 232 287 351
#     4  11  23  37  56  82 114 144 190 241 284 347
#     4   9  18  32  52  80 115 151 189 228 281 344
#     4  12  26  40  56  70 132 156 194 236 292 340
#     4   9  19  35  57  82 110 148 193 236 285 335
#     4  10  19  32  54  80 112 150 187 228 286 343
#
# _framework density 19.649892999999999
#
# number of rings (size 3 to 8) (size 9 to 14) (size 15 to 20)
#    0.000    1.931    2.069    1.448    3.862    2.483 
#    0.000    0.000    0.000    0.828    0.000    5.793 
#    0.000    0.000    0.000    0.000    0.000    0.000 
#
# Total GULP energy -322914.022158 kJ/mol
# GULP energy per Si atom -5567.483141 kJ/mol
# Density = 1.960517 g / cm^3
# Si number density = 19.649893 Si / 1000 Ang^3
#
#
#
# Elastic Constant Matrix: (Units=GPa)
#
#
# Indices 1 2 3 4 5 6 
#
# 1 47.1602 5.7436 5.2916 0.0000 0.0000 0.0000
# 2 5.7436 69.0089 27.4608 0.0000 0.0000 0.0000
# 3 5.2916 27.4608 85.5042 0.0000 0.0000 0.0000
# 4 0.0000 0.0000 0.0000 23.9614 0.0000 0.0000
# 5 0.0000 0.0000 0.0000 0.0000 40.3080 0.0000
# 6 0.0000 0.0000 0.0000 0.0000 0.0000 18.5409
#
#
#
# Elastic Compliance Matrix: (Units=1/GPa)
#
#
# Indices 1 2 3 4 5 6 
#
# 1 0.021477 -0.001443 -0.000866 0.000000 0.000000 0.000000
# 2 -0.001443 0.016711 -0.005278 0.000000 0.000000 0.000000
# 3 -0.000866 -0.005278 0.013444 0.000000 0.000000 0.000000
# 4 0.000000 0.000000 0.000000 0.041734 0.000000 0.000000
# 5 0.000000 0.000000 0.000000 0.000000 0.024809 0.000000
# 6 0.000000 0.000000 0.000000 0.000000 0.000000 0.053935
#
#
# Mechanical properties :
#
#
# Convention : Reuss Voigt Hill
#
# Bulk Modulus (GPa) = 27.42782 30.96282 29.19532
# Shear Modulus (GPa) = 25.07072 27.44055 26.25564
#
# Velocity S-wave (km/s) = 3.57581 3.74100 3.65933
# Velocity P-wave (km/s) = 5.57109 5.86954 5.72226
#
# Compressibility (1/GPa) = 0.03645933
#
# Stress axis : x y z
#
# Youngs Moduli (GPa) = 46.56102 59.84030 74.38309
#
# Poissons Ratio (x) = 0.08635 0.06439
# Poissons Ratio (y) = 0.06719 0.39257
# Poissons Ratio (z) = 0.04031 0.31582
#
# Static dielectric constant tensor:
#      x y z
#    x 1.713480 0.000000 0.000000 
#    y 0.000000 1.716300 0.000000 
#    z 0.000000 0.000000 1.710350 
# 
# From -- ./inp_files/72112.got.cif
#   From: 2010.05.17/outbox.cif.g08.bks.cpg/sg63_37_cif.got.tgz:72112.got - 2010.06.03 15:47:04.
