data_PCOD9470651
_publ_section_title
;
Structure prediction by ZEFSAII (Michael W. Deem and Ramdas Pophale) SiO2 
 PCOD9470651
Probable space group: C M C M
;
_chemical_formula_sum "Si O2"
_cell_formula_units_Z 104
_cell_length_a 23.551071
_cell_length_b 28.961628
_cell_length_c 8.413579
_cell_angle_alpha 90.000000
_cell_angle_beta 90.000000
_cell_angle_gamma 90.000000
_cell_volume 5738.711730
_symmetry_space_group_name_H-M "C M C M"
_symmetry_group_IT_number 63
_symmetry_cell_setting 'orthorhombic'
loop_
_space_group_symop_operation_xyz
x,y,z
-x,-y,1/2+z
x,-y,-z
-x,y,1/2-z
-x,-y,-z
x,y,1/2-z
-x,y,z
x,-y,1/2+z
1/2+x,1/2+y,z
1/2-x,1/2-y,1/2+z
1/2+x,1/2-y,-z
1/2-x,1/2+y,1/2-z
1/2-x,1/2-y,-z
1/2+x,1/2+y,1/2-z
1/2-x,1/2+y,z
1/2+x,1/2-y,1/2+z
loop_
_atom_site_type_symbol
_atom_site_label
_atom_site_fract_x
_atom_site_fract_y
_atom_site_fract_z
Si Si1 0.178413 0.805879 0.438780
Si Si2 0.309137 0.208597 0.938133
Si Si3 0.561521 0.051961 0.441273
Si Si4 0.384855 0.603043 0.440770
Si Si5 0.727681 0.448709 0.558615
Si Si6 0.833615 0.612973 0.057161
Si Si7 0.000000 0.053833 0.560491
O O1 0.179008 0.813049 0.250000
O O2 0.244602 0.803911 0.496832
O O3 0.162852 0.753120 0.480522
O O4 0.138422 0.845848 0.510644
O O5 0.305518 0.217253 0.750000
O O6 0.341690 0.162410 0.979836
O O7 0.562387 0.051628 0.250000
O O8 0.500000 0.070138 0.493613
O O9 0.614687 0.081101 0.494421
O O10 0.566693 0.000000 0.500000
O O11 0.388411 0.602315 0.250000
O O12 0.334051 0.568822 0.494290
O O13 0.444083 0.582716 0.505923
O O14 0.740117 0.500000 0.500000
O O15 0.728171 0.449115 0.750000
O O16 0.775391 0.412207 0.506648
O O17 0.832555 0.617222 0.250000
O O18 0.000000 0.051423 0.750000
O O19 0.000000 0.000000 0.500000
#
# Coordination Sequence:
#
# PCOD9470651 Si02
#       7
#    16  16  16  16  16  16   8
#     4  10  20  35  57  84 113 146 181 228 281 340
#     4  10  20  33  54  84 114 145 183 227 279 339
#     4   9  18  32  51  74 103 142 184 223 265 317
#     4  11  22  39  61  85 114 150 191 238 290 344
#     4  10  21  33  50  77 110 144 178 223 278 334
#     4  10  19  33  51  76 109 144 181 227 280 332
#     4  12  26  44  64  88 118 156 202 244 293 352
#
# _framework density 18.122534999999999
#
# number of rings (size 3 to 8) (size 9 to 14) (size 15 to 20)
#    0.000    1.846    1.538    3.000    0.000    4.923 
#    0.000    0.000    1.692    0.000    0.000    0.000 
#    0.000    0.000    0.000    0.000    0.000    0.000 
#
# Total GULP energy -289968.023348 kJ/mol
# GULP energy per Si atom -5576.308141 kJ/mol
# Density = 1.808129 g / cm^3
# Si number density = 18.122535 Si / 1000 Ang^3
#
#
#
# Elastic Constant Matrix: (Units=GPa)
#
#
# Indices 1 2 3 4 5 6 
#
# 1 80.4185 36.8919 21.0530 0.0000 0.0000 0.0000
# 2 36.8919 114.7932 17.1770 0.0000 0.0000 0.0000
# 3 21.0530 17.1770 36.4965 0.0000 0.0000 0.0000
# 4 0.0000 0.0000 0.0000 33.1309 0.0000 0.0000
# 5 0.0000 0.0000 0.0000 0.0000 11.1156 0.0000
# 6 0.0000 0.0000 0.0000 0.0000 0.0000 12.6571
#
#
#
# Elastic Compliance Matrix: (Units=1/GPa)
#
#
# Indices 1 2 3 4 5 6 
#
# 1 0.016273 -0.004115 -0.007450 0.000000 0.000000 0.000000
# 2 -0.004115 0.010412 -0.002527 0.000000 0.000000 0.000000
# 3 -0.007450 -0.002527 0.032887 0.000000 0.000000 0.000000
# 4 0.000000 0.000000 0.000000 0.030183 0.000000 0.000000
# 5 0.000000 0.000000 0.000000 0.000000 0.089964 0.000000
# 6 0.000000 0.000000 0.000000 0.000000 0.000000 0.079007
#
#
# Mechanical properties :
#
#
# Convention : Reuss Voigt Hill
#
# Bulk Modulus (GPa) = 31.85954 42.43913 37.14934
# Shear Modulus (GPa) = 16.81393 21.81981 19.31687
#
# Velocity S-wave (km/s) = 3.04927 3.47366 3.26836
# Velocity P-wave (km/s) = 5.47865 6.28944 5.89800
#
# Compressibility (1/GPa) = 0.03138777
#
# Stress axis : x y z
#
# Youngs Moduli (GPa) = 61.45077 96.04450 30.40727
#
# Poissons Ratio (x) = 0.39522 0.22655
# Poissons Ratio (y) = 0.25287 0.07683
# Poissons Ratio (z) = 0.45784 0.24266
#
# Static dielectric constant tensor:
#      x y z
#    x 1.637410 0.000000 0.000000 
#    y 0.000000 1.623250 0.000000 
#    z 0.000000 0.000000 1.620950 
# 
# From -- ./inp_files/10861.got.cif
#   From: 2010.05.17/outbox.cif.g08.bks.cpg/sg63_6_cif.got.tgz:10861.got - 2010.06.03 15:47:04.
