data_PCOD9470335
_publ_section_title
;
Structure prediction by ZEFSAII (Michael W. Deem and Ramdas Pophale) SiO2 
 PCOD9470335
Probable space group: C M C M
;
_chemical_formula_sum "Si O2"
_cell_formula_units_Z 112
_cell_length_a 14.420225
_cell_length_b 13.741481
_cell_length_c 29.159490
_cell_angle_alpha 90.000000
_cell_angle_beta 90.000000
_cell_angle_gamma 90.000000
_cell_volume 5778.105968
_symmetry_space_group_name_H-M "C M C M"
_symmetry_group_IT_number 63
_symmetry_cell_setting 'orthorhombic'
loop_
_space_group_symop_operation_xyz
x,y,z
-x,-y,1/2+z
x,-y,-z
-x,y,1/2-z
-x,-y,-z
x,y,1/2-z
-x,y,z
x,-y,1/2+z
1/2+x,1/2+y,z
1/2-x,1/2-y,1/2+z
1/2+x,1/2-y,-z
1/2-x,1/2+y,1/2-z
1/2-x,1/2-y,-z
1/2+x,1/2+y,1/2-z
1/2-x,1/2+y,z
1/2+x,1/2-y,1/2+z
loop_
_atom_site_type_symbol
_atom_site_label
_atom_site_fract_x
_atom_site_fract_y
_atom_site_fract_z
Si Si1 0.389107 0.016180 0.888182
Si Si2 0.607227 0.526055 0.838070
Si Si3 0.301601 0.096991 0.525525
Si Si4 0.892810 0.678923 0.056575
Si Si5 0.211049 0.560159 0.195963
Si Si6 0.395334 0.397946 0.436744
Si Si7 0.104676 0.243628 0.695003
O O1 0.500000 0.026318 0.886287
O O2 0.344950 0.093943 0.923572
O O3 0.344224 0.012635 0.837948
O O4 0.365724 0.910334 0.910764
O O5 0.500000 0.506121 0.826024
O O6 0.681324 0.454593 0.816019
O O7 0.614921 0.531633 0.893187
O O8 0.629007 0.636012 0.821683
O O9 0.335046 0.178922 0.490520
O O10 0.191393 0.089242 0.530290
O O11 0.337848 0.000000 0.500000
O O12 0.887233 0.784917 0.079265
O O13 0.000000 0.662261 0.043989
O O14 0.194891 0.541724 0.250000
O O15 0.173781 0.668298 0.184972
O O16 0.500000 0.408832 0.455549
O O17 0.100024 0.238094 0.750000
O O18 0.000000 0.267993 0.677839
#
# Coordination Sequence:
#
# PCOD9470335 Si02
#       7
#    16  16  16  16  16  16  16
#     4  10  19  33  51  75 106 135 169 217 271 326
#     4  10  20  36  57  81 110 145 187 231 275 326
#     4  10  19  32  50  75 105 139 170 210 263 322
#     4   9  18  32  54  79 101 131 172 218 269 319
#     4  11  21  33  54  83 111 142 181 227 279 329
#     4  10  19  32  50  74 103 136 175 219 261 313
#     4   9  18  33  54  81 108 135 177 231 278 322
#
# _framework density 19.383514000000002
#
# number of rings (size 3 to 8) (size 9 to 14) (size 15 to 20)
#    0.000    2.143    1.429    2.571    0.000    6.000 
#    0.000    0.000    0.000    1.714    0.000    4.000 
#    0.000    0.000    0.000    0.000    0.000    0.000 
#
# Total GULP energy -312271.765784 kJ/mol
# GULP energy per Si atom -5576.281532 kJ/mol
# Density = 1.933940 g / cm^3
# Si number density = 19.383514 Si / 1000 Ang^3
#
#
#
# Elastic Constant Matrix: (Units=GPa)
#
#
# Indices 1 2 3 4 5 6 
#
# 1 91.9611 25.5244 33.9159 0.0000 0.0000 0.0000
# 2 25.5244 37.9363 5.1203 0.0000 0.0000 0.0000
# 3 33.9159 5.1203 64.9885 0.0000 0.0000 0.0000
# 4 0.0000 0.0000 0.0000 18.3364 0.0000 0.0000
# 5 0.0000 0.0000 0.0000 0.0000 30.3122 0.0000
# 6 0.0000 0.0000 0.0000 0.0000 0.0000 25.9577
#
#
#
# Elastic Compliance Matrix: (Units=1/GPa)
#
#
# Indices 1 2 3 4 5 6 
#
# 1 0.016571 -0.010089 -0.007853 0.000000 0.000000 0.000000
# 2 -0.010089 0.032786 0.002682 0.000000 0.000000 0.000000
# 3 -0.007853 0.002682 0.019274 0.000000 0.000000 0.000000
# 4 0.000000 0.000000 0.000000 0.054536 0.000000 0.000000
# 5 0.000000 0.000000 0.000000 0.000000 0.032990 0.000000
# 6 0.000000 0.000000 0.000000 0.000000 0.000000 0.038524
#
#
# Mechanical properties :
#
#
# Convention : Reuss Voigt Hill
#
# Bulk Modulus (GPa) = 26.23899 36.00079 31.11989
# Shear Modulus (GPa) = 21.01674 23.60961 22.31318
#
# Velocity S-wave (km/s) = 3.29638 3.49381 3.39653
# Velocity P-wave (km/s) = 5.29663 5.90667 5.60995
#
# Compressibility (1/GPa) = 0.03811123
#
# Stress axis : x y z
#
# Youngs Moduli (GPa) = 60.34738 30.50058 51.88258
#
# Poissons Ratio (x) = 0.30773 0.40743
# Poissons Ratio (y) = 0.60886 -0.13916
# Poissons Ratio (z) = 0.47391 -0.08181
#
# Static dielectric constant tensor:
#      x y z
#    x 1.678680 0.000000 0.000000 
#    y 0.000000 1.697690 0.000000 
#    z 0.000000 0.000000 1.722870 
# 
# From -- ./inp_files/73568.got.cif
#   From: 2010.05.17/outbox.cif.g08.bks.cpg/sg63_37_cif.got.tgz:73568.got - 2010.06.03 15:47:04.
