data_PCOD9470233
_publ_section_title
;
Structure prediction by ZEFSAII (Michael W. Deem and Ramdas Pophale) SiO2 
 PCOD9470233
Probable space group: C M C M
;
_chemical_formula_sum "Si O2"
_cell_formula_units_Z 56
_cell_length_a 27.206544
_cell_length_b 16.664855
_cell_length_c 5.498659
_cell_angle_alpha 90.000000
_cell_angle_beta 90.000000
_cell_angle_gamma 90.000000
_cell_volume 2493.054109
_symmetry_space_group_name_H-M "C M C M"
_symmetry_group_IT_number 63
_symmetry_cell_setting 'orthorhombic'
loop_
_space_group_symop_operation_xyz
x,y,z
-x,-y,1/2+z
x,-y,-z
-x,y,1/2-z
-x,-y,-z
x,y,1/2-z
-x,y,z
x,-y,1/2+z
1/2+x,1/2+y,z
1/2-x,1/2-y,1/2+z
1/2+x,1/2-y,-z
1/2-x,1/2+y,1/2-z
1/2-x,1/2-y,-z
1/2+x,1/2+y,1/2-z
1/2-x,1/2+y,z
1/2+x,1/2-y,1/2+z
loop_
_atom_site_type_symbol
_atom_site_label
_atom_site_fract_x
_atom_site_fract_y
_atom_site_fract_z
Si Si1 0.312768 0.354560 0.750000
Si Si2 0.160950 0.579117 0.750000
Si Si3 0.648218 0.683039 0.750000
Si Si4 0.446299 0.900232 0.250000
Si Si5 0.699985 0.903254 0.750000
Si Si6 0.608875 0.496886 0.250000
Si Si7 0.445646 0.203537 0.250000
O O1 0.323106 0.306330 0.502383
O O2 0.256691 0.381941 0.750000
O O3 0.350162 0.431818 0.750000
O O4 0.104247 0.550999 0.750000
O O5 0.193953 0.499597 0.750000
O O6 0.173415 0.623312 0.498750
O O7 0.635748 0.588335 0.750000
O O8 0.598365 0.733562 0.750000
O O9 0.500000 0.941486 0.250000
O O10 0.443663 0.848265 0.499622
O O11 0.579725 0.500000 0.500000
O O12 0.500000 0.242259 0.250000
#
# Coordination Sequence:
#
# PCOD9470233 Si02
#       7
#     8   8   8   8   8   8   8
#     4  10  19  31  53  81 110 149 186 210 266 342
#     4  10  21  34  56  85 115 141 181 235 266 324
#     4  10  19  31  53  82 108 137 190 232 263 320
#     4  10  21  40  62  81 106 147 189 227 283 330
#     4  10  21  33  55  86 114 148 180 216 276 332
#     4   8  16  25  44  71 102 131 176 210 252 315
#     4  10  21  38  62  82 103 143 195 238 276 323
#
# _framework density 22.462408
#
# number of rings (size 3 to 8) (size 9 to 14) (size 15 to 20)
#    0.000    2.286    0.000    2.571   12.000    0.000 
#    0.000    2.857    0.000   24.857    0.000    0.000 
#    0.000    0.000    0.000    0.000    0.000    0.000 
#
# Total GULP energy -156203.678619 kJ/mol
# GULP energy per Si atom -5578.702808 kJ/mol
# Density = 2.241128 g / cm^3
# Si number density = 22.462408 Si / 1000 Ang^3
#
#
#
# Elastic Constant Matrix: (Units=GPa)
#
#
# Indices 1 2 3 4 5 6 
#
# 1 153.1236 22.7677 48.7479 0.0000 0.0000 0.0000
# 2 22.7677 62.4641 23.4713 0.0000 0.0000 0.0000
# 3 48.7479 23.4713 257.8514 0.0000 0.0000 0.0000
# 4 0.0000 0.0000 0.0000 -8.9411 0.0000 0.0000
# 5 0.0000 0.0000 0.0000 0.0000 31.7940 0.0000
# 6 0.0000 0.0000 0.0000 0.0000 0.0000 47.2825
#
#
#
# Elastic Compliance Matrix: (Units=1/GPa)
#
#
# Indices 1 2 3 4 5 6 
#
# 1 0.007229 -0.002196 -0.001167 0.000000 0.000000 0.000000
# 2 -0.002196 0.017244 -0.001154 0.000000 0.000000 0.000000
# 3 -0.001167 -0.001154 0.004204 0.000000 0.000000 0.000000
# 4 0.000000 0.000000 0.000000 -0.111844 0.000000 0.000000
# 5 0.000000 0.000000 0.000000 0.000000 0.031452 0.000000
# 6 0.000000 0.000000 0.000000 0.000000 0.000000 0.021149
#
#
# Mechanical properties :
#
#
# Convention : Reuss Voigt Hill
#
# Bulk Modulus (GPa) = 50.91359 73.71256 62.31307
# Shear Modulus (GPa) = -333.69829 39.25724 -147.22052
#
# Velocity S-wave (km/s) = -12.20168 4.18507 -8.10451
# Velocity P-wave (km/s) = 13.25869 7.49935 7.73151
#
# Compressibility (1/GPa) = 0.01964112
#
# Stress axis : x y z
#
# Youngs Moduli (GPa) = 138.33803 57.99276 237.87730
#
# Poissons Ratio (x) = 0.12738 0.27753
# Poissons Ratio (y) = 0.30385 0.27460
# Poissons Ratio (z) = 0.16140 0.06695
#
# Static dielectric constant tensor:
#      x y z
#    x 1.756390 0.000000 0.000000 
#    y 0.000000 1.846710 0.000000 
#    z 0.000000 0.000000 2.002010 
# 
# From -- ./inp_files/1241.got.cif
#   From: 2010.05.17/outbox.cif.g08.bks.cpg/sg63_1_cif.got.tgz:1241.got - 2010.06.03 15:47:04.
