data_PCOD9470171
_publ_section_title
;
Structure prediction by ZEFSAII (Michael W. Deem and Ramdas Pophale) SiO2 
 PCOD9470171
Probable space group: C M C M
;
_chemical_formula_sum "Si O2"
_cell_formula_units_Z 104
_cell_length_a 22.748455
_cell_length_b 28.555963
_cell_length_c 7.579615
_cell_angle_alpha 90.000000
_cell_angle_beta 90.000000
_cell_angle_gamma 90.000000
_cell_volume 4923.748520
_symmetry_space_group_name_H-M "C M C M"
_symmetry_group_IT_number 63
_symmetry_cell_setting 'orthorhombic'
loop_
_space_group_symop_operation_xyz
x,y,z
-x,-y,1/2+z
x,-y,-z
-x,y,1/2-z
-x,-y,-z
x,y,1/2-z
-x,y,z
x,-y,1/2+z
1/2+x,1/2+y,z
1/2-x,1/2-y,1/2+z
1/2+x,1/2-y,-z
1/2-x,1/2+y,1/2-z
1/2-x,1/2-y,-z
1/2+x,1/2+y,1/2-z
1/2-x,1/2+y,z
1/2+x,1/2-y,1/2+z
loop_
_atom_site_type_symbol
_atom_site_label
_atom_site_fract_x
_atom_site_fract_y
_atom_site_fract_z
Si Si1 0.393223 0.612088 0.962622
Si Si2 0.000000 0.053391 0.539408
Si Si3 0.774431 0.945090 0.958561
Si Si4 0.821497 0.623259 0.035803
Si Si5 0.906221 0.788769 0.052304
Si Si6 0.724076 0.299901 0.958402
Si Si7 0.432462 0.183346 0.034408
O O1 0.395510 0.616663 0.750000
O O2 0.439789 0.574699 0.028804
O O3 0.420238 0.661417 0.034255
O O4 0.328314 0.590565 0.997497
O O5 0.000000 0.061305 0.750000
O O6 0.000000 0.000000 0.500000
O O7 0.770003 0.942768 0.750000
O O8 0.711798 0.924010 0.027693
O O9 0.784907 0.000000 0.000000
O O10 0.826720 0.620365 0.250000
O O11 0.772849 0.662526 0.992884
O O12 0.883927 0.645081 0.974430
O O13 0.931518 0.786730 0.250000
O O14 0.917599 0.737020 0.975335
O O15 0.836633 0.798710 0.059871
O O16 0.711490 0.305705 0.750000
O O17 0.750000 0.250000 0.000000
O O18 0.428947 0.184137 0.250000
O O19 0.500000 0.172747 0.986073
#
# Coordination Sequence:
#
# PCOD9470171 Si02
#       7
#    16   8  16  16  16  16  16
#     4  10  21  35  53  79 109 140 179 220 267 315
#     4  10  22  38  52  70 100 140 184 230 267 308
#     4  11  22  37  56  78 106 135 173 225 278 324
#     4   9  18  32  50  76 107 135 171 218 265 313
#     4  10  19  31  50  79 110 138 174 214 255 310
#     4  11  19  31  50  76 107 139 171 208 255 306
#     4   9  17  30  52  80 108 141 179 217 257 308
#
# _framework density 21.122118
#
# number of rings (size 3 to 8) (size 9 to 14) (size 15 to 20)
#    0.000    2.000    3.077    1.385    1.077    1.846 
#    0.000    0.000    0.000    0.923    0.000    0.000 
#    0.000    0.000    0.000    0.000    0.000    0.154 
#
# Total GULP energy -289538.797103 kJ/mol
# GULP energy per Si atom -5568.053790 kJ/mol
# Density = 2.107404 g / cm^3
# Si number density = 21.122118 Si / 1000 Ang^3
#
#
#
# Elastic Constant Matrix: (Units=GPa)
#
#
# Indices 1 2 3 4 5 6 
#
# 1 146.7302 42.2904 9.5109 0.0000 0.0000 0.0000
# 2 42.2904 90.6551 0.9374 0.0000 0.0000 0.0000
# 3 9.5109 0.9374 54.7217 0.0000 0.0000 0.0000
# 4 0.0000 0.0000 0.0000 3.9160 0.0000 0.0000
# 5 0.0000 0.0000 0.0000 0.0000 10.6664 0.0000
# 6 0.0000 0.0000 0.0000 0.0000 0.0000 37.1665
#
#
#
# Elastic Compliance Matrix: (Units=1/GPa)
#
#
# Indices 1 2 3 4 5 6 
#
# 1 0.007968 -0.003704 -0.001321 0.000000 0.000000 0.000000
# 2 -0.003704 0.012754 0.000425 0.000000 0.000000 0.000000
# 3 -0.001321 0.000425 0.018497 0.000000 0.000000 0.000000
# 4 0.000000 0.000000 0.000000 0.255360 0.000000 0.000000
# 5 0.000000 0.000000 0.000000 0.000000 0.093753 0.000000
# 6 0.000000 0.000000 0.000000 0.000000 0.000000 0.026906
#
#
# Mechanical properties :
#
#
# Convention : Reuss Voigt Hill
#
# Bulk Modulus (GPa) = 33.31170 44.17604 38.74387
# Shear Modulus (GPa) = 11.50895 26.30765 18.90830
#
# Velocity S-wave (km/s) = 2.33679 3.53300 2.99522
# Velocity P-wave (km/s) = 4.80479 6.13211 5.50857
#
# Compressibility (1/GPa) = 0.03001949
#
# Stress axis : x y z
#
# Youngs Moduli (GPa) = 125.49706 78.40603 54.06372
#
# Poissons Ratio (x) = 0.29038 0.07144
# Poissons Ratio (y) = 0.46478 -0.02299
# Poissons Ratio (z) = 0.16584 -0.03334
#
# Static dielectric constant tensor:
#      x y z
#    x 1.725860 0.000000 0.000000 
#    y 0.000000 1.542670 0.000000 
#    z 0.000000 0.000000 1.729750 
# 
# From -- ./inp_files/8731.got.cif
#   From: 2010.05.17/outbox.cif.g08.bks.cpg/sg63_5_cif.got.tgz:8731.got - 2010.06.03 15:47:04.
