data_PCOD9470006
_publ_section_title
;
Structure prediction by ZEFSAII (Michael W. Deem and Ramdas Pophale) SiO2 
 PCOD9470006
Probable space group: C M C M
;
_chemical_formula_sum "Si O2"
_cell_formula_units_Z 80
_cell_length_a 15.640467
_cell_length_b 33.149677
_cell_length_c 7.469481
_cell_angle_alpha 90.000000
_cell_angle_beta 90.000000
_cell_angle_gamma 90.000000
_cell_volume 3872.749837
_symmetry_space_group_name_H-M "C M C M"
_symmetry_group_IT_number 63
_symmetry_cell_setting 'orthorhombic'
loop_
_space_group_symop_operation_xyz
x,y,z
-x,-y,1/2+z
x,-y,-z
-x,y,1/2-z
-x,-y,-z
x,y,1/2-z
-x,y,z
x,-y,1/2+z
1/2+x,1/2+y,z
1/2-x,1/2-y,1/2+z
1/2+x,1/2-y,-z
1/2-x,1/2+y,1/2-z
1/2-x,1/2-y,-z
1/2+x,1/2+y,1/2-z
1/2-x,1/2+y,z
1/2+x,1/2-y,1/2+z
loop_
_atom_site_type_symbol
_atom_site_label
_atom_site_fract_x
_atom_site_fract_y
_atom_site_fract_z
Si Si1 0.348649 0.760179 0.537606
Si Si2 0.409231 0.674025 0.041832
Si Si3 0.404138 0.452776 0.964052
Si Si4 0.269206 0.612886 0.031211
Si Si5 0.903368 0.349530 0.969061
O O1 0.360974 0.760585 0.750000
O O2 0.250000 0.750000 0.500000
O O3 0.399804 0.721918 0.466382
O O4 0.377497 0.804115 0.472645
O O5 0.412158 0.662252 0.250000
O O6 0.500000 0.661873 0.960012
O O7 0.325632 0.651561 0.972271
O O8 0.407082 0.447241 0.750000
O O9 0.500000 0.442247 0.031958
O O10 0.325988 0.425147 0.028977
O O11 0.390307 0.500000 0.000000
O O12 0.265311 0.611771 0.250000
O O13 0.171928 0.620185 0.972605
O O14 0.903064 0.349205 0.750000
O O15 0.000000 0.358927 0.025762
#
# Coordination Sequence:
#
# PCOD9470006 Si02
#       5
#    16  16  16  16  16
#     4  11  20  32  48  67  95 129 167 207 247 286
#     4  10  19  31  48  70  96 127 162 200 243 290
#     4   9  17  30  50  74  98 124 152 186 231 286
#     4   9  16  29  48  70  95 124 159 195 234 286
#     4   9  17  29  47  69  92 121 161 205 240 274
#
# _framework density 20.657157000000002
#
# number of rings (size 3 to 8) (size 9 to 14) (size 15 to 20)
#    0.000    2.400    2.000    1.800    0.000    3.600 
#    0.000    1.000    0.000    3.000    0.000    0.000 
#    0.000    0.000    0.000    0.000    0.000    0.000 
#
# Total GULP energy -223192.702781 kJ/mol
# GULP energy per Si atom -5579.817570 kJ/mol
# Density = 2.061014 g / cm^3
# Si number density = 20.657157 Si / 1000 Ang^3
#
#
#
# Elastic Constant Matrix: (Units=GPa)
#
#
# Indices 1 2 3 4 5 6 
#
# 1 228.4218 88.2086 2.8843 0.0000 0.0000 0.0000
# 2 88.2086 113.3205 -3.4684 0.0000 0.0000 0.0000
# 3 2.8843 -3.4684 58.3497 0.0000 0.0000 0.0000
# 4 0.0000 0.0000 0.0000 15.7134 0.0000 0.0000
# 5 0.0000 0.0000 0.0000 0.0000 -2.3427 0.0000
# 6 0.0000 0.0000 0.0000 0.0000 0.0000 -8.1813
#
#
#
# Elastic Compliance Matrix: (Units=1/GPa)
#
#
# Indices 1 2 3 4 5 6 
#
# 1 0.006280 -0.004907 -0.000602 0.000000 0.000000 0.000000
# 2 -0.004907 0.012675 0.000996 0.000000 0.000000 0.000000
# 3 -0.000602 0.000996 0.017227 0.000000 0.000000 0.000000
# 4 0.000000 0.000000 0.000000 0.063640 0.000000 0.000000
# 5 0.000000 0.000000 0.000000 0.000000 -0.426861 0.000000
# 6 0.000000 0.000000 0.000000 0.000000 0.000000 -0.122230
#
#
# Mechanical properties :
#
#
# Convention : Reuss Voigt Hill
#
# Bulk Modulus (GPa) = 36.82482 63.92677 50.37580
# Shear Modulus (GPa) = -11.59581 21.86903 5.13661
#
# Velocity S-wave (km/s) = -2.37184 3.25724 1.57861
# Velocity P-wave (km/s) = 3.21940 6.72011 5.26899
#
# Compressibility (1/GPa) = 0.02715559
#
# Stress axis : x y z
#
# Youngs Moduli (GPa) = 159.22485 78.89728 58.04834
#
# Poissons Ratio (x) = 0.38716 0.03495
# Poissons Ratio (y) = 0.78133 -0.05781
# Poissons Ratio (z) = 0.09587 -0.07858
#
# Static dielectric constant tensor:
#      x y z
#    x 1.764130 0.000000 0.000000 
#    y 0.000000 1.714150 0.000000 
#    z 0.000000 0.000000 1.783520 
# 
# From -- ./inp_files/6655.got.cif
#   From: 2010.05.17/outbox.cif.g08.bks.cpg/sg63_4_cif.got.tgz:6655.got - 2010.06.03 15:47:04.
