data_PCOD9470463
_publ_section_title
;
Structure prediction by ZEFSAII (Michael W. Deem and Ramdas Pophale) SiO2 
 PCOD9470463
Probable space group: C M C M
;
_chemical_formula_sum "Si O2"
_cell_formula_units_Z 128
_cell_length_a 26.020463
_cell_length_b 29.960593
_cell_length_c 7.427524
_cell_angle_alpha 90.000000
_cell_angle_beta 90.000000
_cell_angle_gamma 90.000000
_cell_volume 5790.412306
_symmetry_space_group_name_H-M "C M C M"
_symmetry_group_IT_number 63
_symmetry_cell_setting 'orthorhombic'
loop_
_space_group_symop_operation_xyz
x,y,z
-x,-y,1/2+z
x,-y,-z
-x,y,1/2-z
-x,-y,-z
x,y,1/2-z
-x,y,z
x,-y,1/2+z
1/2+x,1/2+y,z
1/2-x,1/2-y,1/2+z
1/2+x,1/2-y,-z
1/2-x,1/2+y,1/2-z
1/2-x,1/2-y,-z
1/2+x,1/2+y,1/2-z
1/2-x,1/2+y,z
1/2+x,1/2-y,1/2+z
loop_
_atom_site_type_symbol
_atom_site_label
_atom_site_fract_x
_atom_site_fract_y
_atom_site_fract_z
Si Si1 0.558332 0.885690 0.530062
Si Si2 0.443016 0.551623 0.464730
Si Si3 0.292958 0.212982 0.464829
Si Si4 0.361297 0.376750 0.969970
Si Si5 0.152828 0.447241 0.965232
Si Si6 0.255685 0.884127 0.970344
Si Si7 0.555273 0.690701 0.039138
Si Si8 0.408142 0.786336 0.967560
O O1 0.558737 0.885911 0.750000
O O2 0.500000 0.896559 0.474088
O O3 0.602349 0.920286 0.469485
O O4 0.572744 0.835123 0.474090
O O5 0.432236 0.500000 0.500000
O O6 0.445135 0.557945 0.250000
O O7 0.500000 0.561712 0.536482
O O8 0.398273 0.583352 0.529715
O O9 0.297039 0.209795 0.250000
O O10 0.250000 0.250000 0.500000
O O11 0.276996 0.163984 0.528176
O O12 0.350051 0.222843 0.532416
O O13 0.358054 0.375567 0.750000
O O14 0.303342 0.384981 0.031230
O O15 0.392700 0.332664 0.030345
O O16 0.152698 0.441781 0.750000
O O17 0.205006 0.422763 0.030059
O O18 0.151392 0.500000 0.000000
O O19 0.255377 0.885192 0.750000
O O20 0.553833 0.678864 0.250000
O O21 0.500000 0.675847 0.962201
O O22 0.559216 0.743755 0.023091
O O23 0.408761 0.787254 0.750000
#
# Coordination Sequence:
#
# PCOD9470463 Si02
#       8
#    16  16  16  16  16  16  16  16
#     4   9  17  32  55  78 101 134 174 212 253 310
#     4   9  17  30  48  69  92 121 161 205 247 295
#     4  10  19  32  52  77 104 136 174 214 255 305
#     4   9  17  30  50  72  97 134 172 204 248 307
#     4  10  20  36  56  78 103 134 171 214 261 311
#     4   9  17  32  52  73 100 132 169 207 248 305
#     4  10  20  33  50  76 108 139 174 217 263 310
#     4  10  19  33  53  77 104 137 179 218 255 310
#
# _framework density 22.105508
#
# number of rings (size 3 to 8) (size 9 to 14) (size 15 to 20)
#    0.000    2.500    1.250    1.500    0.000    4.500 
#    0.000    1.875    0.000    3.750    0.000    0.000 
#    0.000    0.000    0.000    0.000    0.000    0.000 
#
# Total GULP energy -357355.731261 kJ/mol
# GULP energy per Si atom -5583.683301 kJ/mol
# Density = 2.205519 g / cm^3
# Si number density = 22.105508 Si / 1000 Ang^3
#
#
#
# Elastic Constant Matrix: (Units=GPa)
#
#
# Indices 1 2 3 4 5 6 
#
# 1 211.8007 105.5097 6.6193 0.0000 0.0000 0.0000
# 2 105.5097 156.1330 -5.9895 0.0000 0.0000 0.0000
# 3 6.6193 -5.9895 68.9714 0.0000 0.0000 0.0000
# 4 0.0000 0.0000 0.0000 18.7049 0.0000 0.0000
# 5 0.0000 0.0000 0.0000 0.0000 0.6724 0.0000
# 6 0.0000 0.0000 0.0000 0.0000 0.0000 40.2299
#
#
#
# Elastic Compliance Matrix: (Units=1/GPa)
#
#
# Indices 1 2 3 4 5 6 
#
# 1 0.007202 -0.004910 -0.001118 0.000000 0.000000 0.000000
# 2 -0.004910 0.009773 0.001320 0.000000 0.000000 0.000000
# 3 -0.001118 0.001320 0.014721 0.000000 0.000000 0.000000
# 4 0.000000 0.000000 0.000000 0.053462 0.000000 0.000000
# 5 0.000000 0.000000 0.000000 0.000000 1.487309 0.000000
# 6 0.000000 0.000000 0.000000 0.000000 0.000000 0.024857
#
#
# Mechanical properties :
#
#
# Convention : Reuss Voigt Hill
#
# Bulk Modulus (GPa) = 44.88104 72.13158 58.50631
# Shear Modulus (GPa) = 3.09757 33.97248 18.53503
#
# Velocity S-wave (km/s) = 1.18504 3.92450 2.89879
# Velocity P-wave (km/s) = 4.71377 7.29637 6.14234
#
# Compressibility (1/GPa) = 0.02228113
#
# Stress axis : x y z
#
# Youngs Moduli (GPa) = 138.84548 102.31860 67.93186
#
# Poissons Ratio (x) = 0.50238 0.07592
# Poissons Ratio (y) = 0.68172 -0.08967
# Poissons Ratio (z) = 0.15517 -0.13505
#
# Static dielectric constant tensor:
#      x y z
#    x 1.826310 0.000000 0.000000 
#    y 0.000000 1.768270 0.000000 
#    z 0.000000 0.000000 1.836930 
# 
# From -- ./inp_files/24232.got.cif
#   From: 2010.05.17/outbox.cif.g08.bks.cpg/sg63_13_cif.got.tgz:24232.got - 2010.06.03 15:47:04.
