data_PCOD9470843
_publ_section_title
;
Structure prediction by ZEFSAII (Michael W. Deem and Ramdas Pophale) SiO2 
 PCOD9470843
Probable space group: C M C M
;
_chemical_formula_sum "Si O2"
_cell_formula_units_Z 80
_cell_length_a 10.922779
_cell_length_b 13.662998
_cell_length_c 27.343881
_cell_angle_alpha 90.000000
_cell_angle_beta 90.000000
_cell_angle_gamma 90.000000
_cell_volume 4080.743587
_symmetry_space_group_name_H-M "C M C M"
_symmetry_group_IT_number 63
_symmetry_cell_setting 'orthorhombic'
loop_
_space_group_symop_operation_xyz
x,y,z
-x,-y,1/2+z
x,-y,-z
-x,y,1/2-z
-x,-y,-z
x,y,1/2-z
-x,y,z
x,-y,1/2+z
1/2+x,1/2+y,z
1/2-x,1/2-y,1/2+z
1/2+x,1/2-y,-z
1/2-x,1/2+y,1/2-z
1/2-x,1/2-y,-z
1/2+x,1/2+y,1/2-z
1/2-x,1/2+y,z
1/2+x,1/2-y,1/2+z
loop_
_atom_site_type_symbol
_atom_site_label
_atom_site_fract_x
_atom_site_fract_y
_atom_site_fract_z
Si Si1 0.223584 0.747576 0.883386
Si Si2 0.137001 0.467392 0.111125
Si Si3 0.356500 0.872139 0.693543
Si Si4 0.366827 0.297363 0.474910
Si Si5 0.635466 0.438426 0.558276
O O1 0.148167 0.647932 0.879384
O O2 0.274454 0.790986 0.833144
O O3 0.338333 0.716221 0.918050
O O4 0.152755 0.835482 0.911119
O O5 0.154956 0.530138 0.160562
O O6 0.245036 0.501893 0.074952
O O7 0.000000 0.490069 0.092211
O O8 0.323469 0.887494 0.750000
O O9 0.500000 0.843954 0.691418
O O10 0.500000 0.252777 0.485787
O O11 0.250000 0.250000 0.500000
O O12 0.367611 0.401971 0.501853
O O13 0.500000 0.477916 0.571610
#
# Coordination Sequence:
#
# PCOD9470843 Si02
#       5
#    16  16  16  16  16
#     4  10  19  33  55  80 108 142 183 224 268 318
#     4  10  21  36  56  81 109 142 182 223 267 321
#     4   9  19  36  56  79 108 140 176 224 279 329
#     4   9  18  32  52  79 110 147 184 221 264 314
#     4   9  19  35  53  76 111 146 179 220 266 315
#
# _framework density 19.60427
#
# number of rings (size 3 to 8) (size 9 to 14) (size 15 to 20)
#    0.000    2.600    0.000    1.200    0.000    8.800 
#    0.000    3.000    0.000   14.400    0.000    0.000 
#    0.000    0.000    0.000    0.000    0.000    0.000 
#
# Total GULP energy -222925.577194 kJ/mol
# GULP energy per Si atom -5573.139430 kJ/mol
# Density = 1.955965 g / cm^3
# Si number density = 19.604270 Si / 1000 Ang^3
#
#
#
# Elastic Constant Matrix: (Units=GPa)
#
#
# Indices 1 2 3 4 5 6 
#
# 1 157.7828 46.0462 59.3790 0.0000 0.0000 0.0000
# 2 46.0462 84.1633 7.0032 0.0000 0.0000 0.0000
# 3 59.3790 7.0032 103.4415 0.0000 0.0000 0.0000
# 4 0.0000 0.0000 0.0000 19.9806 0.0000 0.0000
# 5 0.0000 0.0000 0.0000 0.0000 25.6877 0.0000
# 6 0.0000 0.0000 0.0000 0.0000 0.0000 28.2046
#
#
#
# Elastic Compliance Matrix: (Units=1/GPa)
#
#
# Indices 1 2 3 4 5 6 
#
# 1 0.009747 -0.004895 -0.005264 0.000000 0.000000 0.000000
# 2 -0.004895 0.014407 0.001834 0.000000 0.000000 0.000000
# 3 -0.005264 0.001834 0.012565 0.000000 0.000000 0.000000
# 4 0.000000 0.000000 0.000000 0.050048 0.000000 0.000000
# 5 0.000000 0.000000 0.000000 0.000000 0.038929 0.000000
# 6 0.000000 0.000000 0.000000 0.000000 0.000000 0.035455
#
#
# Mechanical properties :
#
#
# Convention : Reuss Voigt Hill
#
# Bulk Modulus (GPa) = 49.82444 63.36048 56.59246
# Shear Modulus (GPa) = 27.10167 30.30519 28.70343
#
# Velocity S-wave (km/s) = 3.72215 3.93599 3.83056
# Velocity P-wave (km/s) = 6.62893 7.28326 6.96379
#
# Compressibility (1/GPa) = 0.02007047
#
# Stress axis : x y z
#
# Youngs Moduli (GPa) = 102.59298 69.41076 79.58774
#
# Poissons Ratio (x) = 0.33975 0.41894
# Poissons Ratio (y) = 0.50217 -0.14599
# Poissons Ratio (z) = 0.54004 -0.12733
#
# Static dielectric constant tensor:
#      x y z
#    x 1.645300 0.000000 0.000000 
#    y 0.000000 1.779990 0.000000 
#    z 0.000000 0.000000 1.693440 
# 
# From -- ./inp_files/72676.got.cif
#   From: 2010.05.17/outbox.cif.g08.bks.cpg/sg63_37_cif.got.tgz:72676.got - 2010.06.03 15:47:04.
