data_PCOD9470091
_publ_section_title
;
Structure prediction by ZEFSAII (Michael W. Deem and Ramdas Pophale) SiO2 
 PCOD9470091
Probable space group: C M C M
;
_chemical_formula_sum "Si O2"
_cell_formula_units_Z 72
_cell_length_a 12.789396
_cell_length_b 33.037151
_cell_length_c 9.889516
_cell_angle_alpha 90.000000
_cell_angle_beta 90.000000
_cell_angle_gamma 90.000000
_cell_volume 4178.569794
_symmetry_space_group_name_H-M "C M C M"
_symmetry_group_IT_number 63
_symmetry_cell_setting 'orthorhombic'
loop_
_space_group_symop_operation_xyz
x,y,z
-x,-y,1/2+z
x,-y,-z
-x,y,1/2-z
-x,-y,-z
x,y,1/2-z
-x,y,z
x,-y,1/2+z
1/2+x,1/2+y,z
1/2-x,1/2-y,1/2+z
1/2+x,1/2-y,-z
1/2-x,1/2+y,1/2-z
1/2-x,1/2-y,-z
1/2+x,1/2+y,1/2-z
1/2-x,1/2+y,z
1/2+x,1/2-y,1/2+z
loop_
_atom_site_type_symbol
_atom_site_label
_atom_site_fract_x
_atom_site_fract_y
_atom_site_fract_z
Si Si1 0.775280 0.792015 0.750000
Si Si2 0.375971 0.795843 0.250000
Si Si3 0.120079 0.674582 0.040867
Si Si4 0.376456 0.379190 0.750000
Si Si5 0.622058 0.972794 0.750000
Si Si6 0.292036 0.089665 0.454603
Si Si7 0.873105 0.569700 0.750000
O O1 0.826813 0.748464 0.750000
O O2 0.699063 0.797795 0.876949
O O3 0.852559 0.830843 0.750000
O O4 0.500000 0.790248 0.250000
O O5 0.350741 0.820592 0.384268
O O6 0.136442 0.628274 0.084595
O O7 0.000000 0.686394 0.061265
O O8 0.500000 0.386663 0.750000
O O9 0.318254 0.397908 0.883347
O O10 0.500000 0.963095 0.750000
O O11 0.671877 0.951029 0.879965
O O12 0.632195 0.020905 0.750000
O O13 0.313489 0.084248 0.614227
O O14 0.000000 0.580895 0.750000
#
# Coordination Sequence:
#
# PCOD9470091 Si02
#       7
#     8   8  16   8   8  16   8
#     4  10  19  32  51  72  96 127 168 212 250 297
#     4  10  20  32  47  69 100 132 162 200 247 297
#     4  10  19  31  49  73  99 130 163 201 252 305
#     4   9  20  38  57  73  95 136 184 222 254 291
#     4  10  19  31  50  78 111 143 168 197 248 314
#     4  10  20  33  53  76 104 137 172 211 250 305
#     4  11  20  31  51  82 116 140 160 199 257 315
#
# _framework density 17.230775000000001
#
# number of rings (size 3 to 8) (size 9 to 14) (size 15 to 20)
#    0.000    2.000    0.000    5.333    0.000    2.667 
#    0.000    0.556    0.000   12.000    0.000    0.000 
#    0.000    0.000    0.000    0.000    0.000    0.000 
#
# Total GULP energy -200634.425796 kJ/mol
# GULP energy per Si atom -5573.178494 kJ/mol
# Density = 1.719156 g / cm^3
# Si number density = 17.230775 Si / 1000 Ang^3
#
#
#
# Elastic Constant Matrix: (Units=GPa)
#
#
# Indices 1 2 3 4 5 6 
#
# 1 93.8377 26.8322 58.0239 0.0000 0.0000 0.0000
# 2 26.8322 74.2448 21.2485 0.0000 0.0000 0.0000
# 3 58.0239 21.2485 134.7397 0.0000 0.0000 0.0000
# 4 0.0000 0.0000 0.0000 26.4546 0.0000 0.0000
# 5 0.0000 0.0000 0.0000 0.0000 74.7129 0.0000
# 6 0.0000 0.0000 0.0000 0.0000 0.0000 17.9707
#
#
#
# Elastic Compliance Matrix: (Units=1/GPa)
#
#
# Indices 1 2 3 4 5 6 
#
# 1 0.015518 -0.003870 -0.006072 0.000000 0.000000 0.000000
# 2 -0.003870 0.015071 -0.000710 0.000000 0.000000 0.000000
# 3 -0.006072 -0.000710 0.010149 0.000000 0.000000 0.000000
# 4 0.000000 0.000000 0.000000 0.037801 0.000000 0.000000
# 5 0.000000 0.000000 0.000000 0.000000 0.013385 0.000000
# 6 0.000000 0.000000 0.000000 0.000000 0.000000 0.055646
#
#
# Mechanical properties :
#
#
# Convention : Reuss Voigt Hill
#
# Bulk Modulus (GPa) = 51.46057 57.22570 54.34313
# Shear Modulus (GPa) = 28.51408 36.94215 32.72811
#
# Velocity S-wave (km/s) = 4.07238 4.63532 4.36294
# Velocity P-wave (km/s) = 7.21406 7.86967 7.54899
#
# Compressibility (1/GPa) = 0.01943235
#
# Stress axis : x y z
#
# Youngs Moduli (GPa) = 64.44039 66.35290 98.53524
#
# Poissons Ratio (x) = 0.25681 0.59834
# Poissons Ratio (y) = 0.24941 0.06995
# Poissons Ratio (z) = 0.39130 0.04711
#
# Static dielectric constant tensor:
#      x y z
#    x 1.558080 0.000000 0.000000 
#    y 0.000000 1.569940 0.000000 
#    z 0.000000 0.000000 1.640060 
# 
# From -- ./inp_files/5029.got.cif
#   From: 2010.05.17/outbox.cif.g08.bks.cpg/sg63_3_cif.got.tgz:5029.got - 2010.06.03 15:47:04.
