data_PCOD9470548
_publ_section_title
;
Structure prediction by ZEFSAII (Michael W. Deem and Ramdas Pophale) SiO2 
 PCOD9470548
Probable space group: C M C M
;
_chemical_formula_sum "Si O2"
_cell_formula_units_Z 72
_cell_length_a 9.832146
_cell_length_b 26.790971
_cell_length_c 13.399401
_cell_angle_alpha 90.000000
_cell_angle_beta 90.000000
_cell_angle_gamma 90.000000
_cell_volume 3529.572910
_symmetry_space_group_name_H-M "C M C M"
_symmetry_group_IT_number 63
_symmetry_cell_setting 'orthorhombic'
loop_
_space_group_symop_operation_xyz
x,y,z
-x,-y,1/2+z
x,-y,-z
-x,y,1/2-z
-x,-y,-z
x,y,1/2-z
-x,y,z
x,-y,1/2+z
1/2+x,1/2+y,z
1/2-x,1/2-y,1/2+z
1/2+x,1/2-y,-z
1/2-x,1/2+y,1/2-z
1/2-x,1/2-y,-z
1/2+x,1/2+y,1/2-z
1/2-x,1/2+y,z
1/2+x,1/2-y,1/2+z
loop_
_atom_site_type_symbol
_atom_site_label
_atom_site_fract_x
_atom_site_fract_y
_atom_site_fract_z
Si Si1 0.000000 0.794363 0.638218
Si Si2 0.500000 0.243889 0.070569
Si Si3 0.228605 0.915216 0.486122
Si Si4 0.295968 0.839564 0.864907
Si Si5 0.655707 0.499422 0.864111
Si Si6 0.000000 0.142790 0.866575
O O1 0.865195 0.828143 0.630122
O O2 0.000000 0.771851 0.750000
O O3 0.000000 0.755238 0.547713
O O4 0.372170 0.211104 0.105240
O O5 0.500000 0.297659 0.122208
O O6 0.328432 0.881004 0.551369
O O7 0.259765 0.959309 0.406951
O O8 0.130479 0.878853 0.424256
O O9 0.159339 0.949441 0.571344
O O10 0.329252 0.853021 0.750000
O O11 0.682962 0.488259 0.750000
O O12 0.500000 0.519640 0.872053
O O13 0.000000 0.128724 0.750000
#
# Coordination Sequence:
#
# PCOD9470548 Si02
#       6
#     8   8  16  16  16   8
#     4  10  22  38  59  86 117 154 200 253 302 347
#     4  12  24  44  59  85 125 167 212 253 286 357
#     4  11  19  34  53  83 118 152 193 250 300 355
#     4  11  23  40  62  87 119 164 207 248 302 356
#     4  10  19  32  53  84 118 154 192 242 307 373
#     4  12  22  33  54  85 122 165 204 247 305 364
#
# _framework density 20.399069000000001
#
# number of rings (size 3 to 8) (size 9 to 14) (size 15 to 20)
#    0.000    1.111    4.444    3.667    0.000    0.000 
#    0.000    1.111    0.000    2.667    0.000    1.556 
#    0.000    0.000    0.000    0.000    0.000    0.000 
#
# Total GULP energy -200768.532116 kJ/mol
# GULP energy per Si atom -5576.903670 kJ/mol
# Density = 2.035264 g / cm^3
# Si number density = 20.399069 Si / 1000 Ang^3
#
#
#
# Elastic Constant Matrix: (Units=GPa)
#
#
# Indices 1 2 3 4 5 6 
#
# 1 48.4231 16.0743 8.7274 0.0000 0.0000 0.0000
# 2 16.0743 115.5934 40.8990 0.0000 0.0000 0.0000
# 3 8.7274 40.8990 189.7101 0.0000 0.0000 0.0000
# 4 0.0000 0.0000 0.0000 23.8801 0.0000 0.0000
# 5 0.0000 0.0000 0.0000 0.0000 1.5550 0.0000
# 6 0.0000 0.0000 0.0000 0.0000 0.0000 145.1472
#
#
#
# Elastic Compliance Matrix: (Units=1/GPa)
#
#
# Indices 1 2 3 4 5 6 
#
# 1 0.021675 -0.002881 -0.000376 0.000000 0.000000 0.000000
# 2 -0.002881 0.009748 -0.001969 0.000000 0.000000 0.000000
# 3 -0.000376 -0.001969 0.005713 0.000000 0.000000 0.000000
# 4 0.000000 0.000000 0.000000 0.041876 0.000000 0.000000
# 5 0.000000 0.000000 0.000000 0.000000 0.643106 0.000000
# 6 0.000000 0.000000 0.000000 0.000000 0.000000 0.006890
#
#
# Mechanical properties :
#
#
# Convention : Reuss Voigt Hill
#
# Bulk Modulus (GPa) = 37.47507 53.90309 45.68908
# Shear Modulus (GPa) = 6.68132 53.31817 29.99974
#
# Velocity S-wave (km/s) = 1.81174 5.11804 3.83906
# Velocity P-wave (km/s) = 4.77362 7.83629 6.48825
#
# Compressibility (1/GPa) = 0.02668441
#
# Stress axis : x y z
#
# Youngs Moduli (GPa) = 46.13506 102.58139 175.03918
#
# Poissons Ratio (x) = 0.29555 0.06582
# Poissons Ratio (y) = 0.13292 0.34467
# Poissons Ratio (z) = 0.01735 0.20199
#
# Static dielectric constant tensor:
#      x y z
#    x 1.729250 0.000000 0.000000 
#    y 0.000000 1.743870 0.000000 
#    z 0.000000 0.000000 1.759700 
# 
# From -- ./inp_files/27983.got.cif
#   From: 2010.05.17/outbox.cif.g08.bks.cpg/sg63_14_cif.got.tgz:27983.got - 2010.06.03 15:47:04.
