data_PCOD9470369
_publ_section_title
;
Structure prediction by ZEFSAII (Michael W. Deem and Ramdas Pophale) SiO2 
 PCOD9470369
Probable space group: C M C M
;
_chemical_formula_sum "Si O2"
_cell_formula_units_Z 80
_cell_length_a 13.476023
_cell_length_b 18.714652
_cell_length_c 19.316069
_cell_angle_alpha 90.000000
_cell_angle_beta 90.000000
_cell_angle_gamma 90.000000
_cell_volume 4871.494846
_symmetry_space_group_name_H-M "C M C M"
_symmetry_group_IT_number 63
_symmetry_cell_setting 'orthorhombic'
loop_
_space_group_symop_operation_xyz
x,y,z
-x,-y,1/2+z
x,-y,-z
-x,y,1/2-z
-x,-y,-z
x,y,1/2-z
-x,y,z
x,-y,1/2+z
1/2+x,1/2+y,z
1/2-x,1/2-y,1/2+z
1/2+x,1/2-y,-z
1/2-x,1/2+y,1/2-z
1/2-x,1/2-y,-z
1/2+x,1/2+y,1/2-z
1/2-x,1/2+y,z
1/2+x,1/2-y,1/2+z
loop_
_atom_site_type_symbol
_atom_site_label
_atom_site_fract_x
_atom_site_fract_y
_atom_site_fract_z
Si Si1 0.617999 0.556359 0.832225
Si Si2 0.693964 0.310895 0.415564
Si Si3 0.315147 0.396308 0.667830
Si Si4 0.888290 0.675928 0.332130
Si Si5 0.113799 0.223320 0.065203
O O1 0.636068 0.566977 0.750000
O O2 0.500000 0.563482 0.843888
O O3 0.674376 0.615679 0.876408
O O4 0.651824 0.476137 0.850172
O O5 0.639350 0.247194 0.373798
O O6 0.808786 0.287105 0.420002
O O7 0.648926 0.310688 0.492502
O O8 0.333102 0.386499 0.750000
O O9 0.198411 0.381317 0.654410
O O10 0.372348 0.336648 0.624074
O O11 0.885179 0.692002 0.250000
O O12 0.000000 0.652588 0.349426
O O13 0.000000 0.246179 0.060926
#
# Coordination Sequence:
#
# PCOD9470369 Si02
#       5
#    16  16  16  16  16
#     4  10  19  32  51  73  98 126 156 197 243 279
#     4  10  20  32  49  74  98 121 158 201 236 279
#     4   9  19  33  48  70  98 127 161 195 233 286
#     4   9  16  29  50  71  93 125 162 199 237 278
#     4  10  20  34  51  70  96 129 159 192 236 283
#
# _framework density 16.422063999999999
#
# number of rings (size 3 to 8) (size 9 to 14) (size 15 to 20)
#    0.000    2.400    0.000    3.000    0.000    4.400 
#    0.000    3.000    0.000    1.200    0.000    8.400 
#    0.000    0.000    0.000    0.000    0.000    0.000 
#
# Total GULP energy -223098.929555 kJ/mol
# GULP energy per Si atom -5577.473239 kJ/mol
# Density = 1.638469 g / cm^3
# Si number density = 16.422064 Si / 1000 Ang^3
#
#
#
# Elastic Constant Matrix: (Units=GPa)
#
#
# Indices 1 2 3 4 5 6 
#
# 1 124.2301 41.9178 39.7605 0.0000 0.0000 0.0000
# 2 41.9178 83.9771 45.1369 0.0000 0.0000 0.0000
# 3 39.7605 45.1369 45.6992 0.0000 0.0000 0.0000
# 4 0.0000 0.0000 0.0000 -8.1464 0.0000 0.0000
# 5 0.0000 0.0000 0.0000 0.0000 17.2126 0.0000
# 6 0.0000 0.0000 0.0000 0.0000 0.0000 11.7005
#
#
#
# Elastic Compliance Matrix: (Units=1/GPa)
#
#
# Indices 1 2 3 4 5 6 
#
# 1 0.011178 -0.000751 -0.008984 0.000000 0.000000 0.000000
# 2 -0.000751 0.025434 -0.024468 0.000000 0.000000 0.000000
# 3 -0.008984 -0.024468 0.053866 0.000000 0.000000 0.000000
# 4 0.000000 0.000000 0.000000 -0.122753 0.000000 0.000000
# 5 0.000000 0.000000 0.000000 0.000000 0.058097 0.000000
# 6 0.000000 0.000000 0.000000 0.000000 0.000000 0.085467
#
#
# Mechanical properties :
#
#
# Convention : Reuss Voigt Hill
#
# Bulk Modulus (GPa) = 45.30531 56.39298 50.84915
# Shear Modulus (GPa) = 26.73064 12.62608 19.67836
#
# Velocity S-wave (km/s) = 4.03889 2.77582 3.46538
# Velocity P-wave (km/s) = 7.02838 6.68490 6.85879
#
# Compressibility (1/GPa) = 0.02207247
#
# Stress axis : x y z
#
# Youngs Moduli (GPa) = 89.45880 39.31733 18.56474
#
# Poissons Ratio (x) = 0.02952 0.16679
# Poissons Ratio (y) = 0.06718 0.45424
# Poissons Ratio (z) = 0.80370 0.96201
#
# Static dielectric constant tensor:
#      x y z
#    x 1.562280 0.000000 0.000000 
#    y 0.000000 1.510240 0.000000 
#    z 0.000000 0.000000 1.553910 
# 
# From -- ./inp_files/43926.got.cif
#   From: 2010.05.17/outbox.cif.g08.bks.cpg/sg63_22_cif.got.tgz:43926.got - 2010.06.03 15:47:04.
