data_PCOD9470469
_publ_section_title
;
Structure prediction by ZEFSAII (Michael W. Deem and Ramdas Pophale) SiO2 
 PCOD9470469
Probable space group: C M C M
;
_chemical_formula_sum "Si O2"
_cell_formula_units_Z 104
_cell_length_a 18.464767
_cell_length_b 31.881325
_cell_length_c 8.368116
_cell_angle_alpha 90.000000
_cell_angle_beta 90.000000
_cell_angle_gamma 90.000000
_cell_volume 4926.152885
_symmetry_space_group_name_H-M "C M C M"
_symmetry_group_IT_number 63
_symmetry_cell_setting 'orthorhombic'
loop_
_space_group_symop_operation_xyz
x,y,z
-x,-y,1/2+z
x,-y,-z
-x,y,1/2-z
-x,-y,-z
x,y,1/2-z
-x,y,z
x,-y,1/2+z
1/2+x,1/2+y,z
1/2-x,1/2-y,1/2+z
1/2+x,1/2-y,-z
1/2-x,1/2+y,1/2-z
1/2-x,1/2-y,-z
1/2+x,1/2+y,1/2-z
1/2-x,1/2+y,z
1/2+x,1/2-y,1/2+z
loop_
_atom_site_type_symbol
_atom_site_label
_atom_site_fract_x
_atom_site_fract_y
_atom_site_fract_z
Si Si1 0.761344 0.543501 0.943383
Si Si2 0.500000 0.451339 0.443376
Si Si3 0.833743 0.288587 0.074055
Si Si4 0.579421 0.056743 0.565443
Si Si5 0.138003 0.894232 0.055071
Si Si6 0.340151 0.299170 0.066416
Si Si7 0.419970 0.143000 0.424538
O O1 0.764447 0.544454 0.750000
O O2 0.843767 0.543735 0.008040
O O3 0.712360 0.582666 0.994917
O O4 0.726476 0.500000 0.000000
O O5 0.500000 0.500000 0.500000
O O6 0.500000 0.452649 0.250000
O O7 0.429321 0.423924 0.493203
O O8 0.860063 0.300805 0.250000
O O9 0.747236 0.294586 0.073014
O O10 0.859663 0.241604 0.035818
O O11 0.863585 0.320702 0.946454
O O12 0.578071 0.043010 0.750000
O O13 0.500000 0.046264 0.493378
O O14 0.585135 0.106965 0.555076
O O15 0.138044 0.893110 0.250000
O O16 0.137405 0.845340 0.005321
O O17 0.366516 0.294925 0.250000
O O18 0.412820 0.122449 0.250000
O O19 0.500000 0.161790 0.434381
#
# Coordination Sequence:
#
# PCOD9470469 Si02
#       7
#    16   8  16  16  16  16  16
#     4  10  20  34  52  76 104 134 170 213 262 314
#     4  10  20  36  58  80 102 134 174 220 276 330
#     4  10  19  32  52  77 106 140 173 212 262 311
#     4   9  18  33  52  73 101 138 176 214 260 313
#     4   9  18  34  55  77 102 135 175 218 263 317
#     4   9  18  34  54  75 102 136 175 216 258 312
#     4  10  20  33  50  74 102 135 175 215 252 296
#
# _framework density 21.111809000000001
#
# number of rings (size 3 to 8) (size 9 to 14) (size 15 to 20)
#    0.000    2.462    0.000    2.308    0.000    4.923 
#    1.385    1.538    0.000    0.000    0.000    0.000 
#    0.000    0.000    0.000    0.000    0.000    0.000 
#
# Total GULP energy -289702.519954 kJ/mol
# GULP energy per Si atom -5571.202307 kJ/mol
# Density = 2.106376 g / cm^3
# Si number density = 21.111809 Si / 1000 Ang^3
#
#
#
# Elastic Constant Matrix: (Units=GPa)
#
#
# Indices 1 2 3 4 5 6 
#
# 1 68.3964 31.7290 6.4418 0.0000 0.0000 0.0000
# 2 31.7290 124.7257 3.7035 0.0000 0.0000 0.0000
# 3 6.4418 3.7035 23.6430 0.0000 0.0000 0.0000
# 4 0.0000 0.0000 0.0000 25.8270 0.0000 0.0000
# 5 0.0000 0.0000 0.0000 0.0000 1.3010 0.0000
# 6 0.0000 0.0000 0.0000 0.0000 0.0000 20.1926
#
#
#
# Elastic Compliance Matrix: (Units=1/GPa)
#
#
# Indices 1 2 3 4 5 6 
#
# 1 0.016938 -0.004191 -0.003958 0.000000 0.000000 0.000000
# 2 -0.004191 0.009092 -0.000282 0.000000 0.000000 0.000000
# 3 -0.003958 -0.000282 0.043418 0.000000 0.000000 0.000000
# 4 0.000000 0.000000 0.000000 0.038719 0.000000 0.000000
# 5 0.000000 0.000000 0.000000 0.000000 0.768654 0.000000
# 6 0.000000 0.000000 0.000000 0.000000 0.000000 0.049523
#
#
# Mechanical properties :
#
#
# Convention : Reuss Voigt Hill
#
# Bulk Modulus (GPa) = 19.01697 33.39042 26.20370
# Shear Modulus (GPa) = 5.20434 21.12349 13.16392
#
# Velocity S-wave (km/s) = 1.57178 3.16658 2.49977
# Velocity P-wave (km/s) = 3.51017 5.40555 4.55748
#
# Compressibility (1/GPa) = 0.05258461
#
# Stress axis : x y z
#
# Youngs Moduli (GPa) = 59.03955 109.98453 23.03168
#
# Poissons Ratio (x) = 0.46097 0.09117
# Poissons Ratio (y) = 0.24745 0.00650
# Poissons Ratio (z) = 0.23370 0.03105
#
# Static dielectric constant tensor:
#      x y z
#    x 1.781040 0.000000 0.000000 
#    y 0.000000 1.743240 0.000000 
#    z 0.000000 0.000000 1.850070 
# 
# From -- ./inp_files/9158.got.cif
#   From: 2010.05.17/outbox.cif.g08.bks.cpg/sg63_5_cif.got.tgz:9158.got - 2010.06.03 15:47:04.
