data_PCOD9470421
_publ_section_title
;
Structure prediction by ZEFSAII (Michael W. Deem and Ramdas Pophale) SiO2 
 PCOD9470421
Probable space group: C M C M
;
_chemical_formula_sum "Si O2"
_cell_formula_units_Z 56
_cell_length_a 18.772053
_cell_length_b 12.363361
_cell_length_c 14.458734
_cell_angle_alpha 90.000000
_cell_angle_beta 90.000000
_cell_angle_gamma 90.000000
_cell_volume 3355.664938
_symmetry_space_group_name_H-M "C M C M"
_symmetry_group_IT_number 63
_symmetry_cell_setting 'orthorhombic'
loop_
_space_group_symop_operation_xyz
x,y,z
-x,-y,1/2+z
x,-y,-z
-x,y,1/2-z
-x,-y,-z
x,y,1/2-z
-x,y,z
x,-y,1/2+z
1/2+x,1/2+y,z
1/2-x,1/2-y,1/2+z
1/2+x,1/2-y,-z
1/2-x,1/2+y,1/2-z
1/2-x,1/2-y,-z
1/2+x,1/2+y,1/2-z
1/2-x,1/2+y,z
1/2+x,1/2-y,1/2+z
loop_
_atom_site_type_symbol
_atom_site_label
_atom_site_fract_x
_atom_site_fract_y
_atom_site_fract_z
Si Si1 0.176443 0.428744 0.141495
Si Si2 0.084266 0.641745 0.357723
Si Si3 0.165412 0.766253 0.515718
Si Si4 0.701249 0.500000 0.000000
O O1 0.191800 0.418910 0.250000
O O2 0.118585 0.523428 0.127515
O O3 0.149149 0.315589 0.099416
O O4 0.246003 0.466782 0.084149
O O5 0.096820 0.670391 0.250000
O O6 0.123370 0.723020 0.426828
O O7 0.000000 0.639582 0.374258
O O8 0.250000 0.750000 0.500000
O O9 0.156630 0.894251 0.527886
#
# Coordination Sequence:
#
# PCOD9470421 Si02
#       4
#    16  16  16   8
#     4  10  19  32  51  79 107 137 182 230 275 319
#     4  10  20  35  57  82 109 142 181 229 281 327
#     4  10  19  34  52  78 109 143 183 226 267 324
#     4  10  20  36  50  78 112 146 184 216 278 328
#
# _framework density 16.688199000000001
#
# number of rings (size 3 to 8) (size 9 to 14) (size 15 to 20)
#    0.000    2.000    5.714    0.000    0.000    8.000 
#    0.000    0.714    0.000    0.000    0.000    4.000 
#    0.000    0.000    0.000    0.000    0.000    0.000 
#
# Total GULP energy -156052.847196 kJ/mol
# GULP energy per Si atom -5573.315971 kJ/mol
# Density = 1.665022 g / cm^3
# Si number density = 16.688199 Si / 1000 Ang^3
#
#
#
# Elastic Constant Matrix: (Units=GPa)
#
#
# Indices 1 2 3 4 5 6 
#
# 1 55.6602 33.9141 46.7244 0.0000 0.0000 0.0000
# 2 33.9141 165.2154 73.7669 0.0000 0.0000 0.0000
# 3 46.7244 73.7669 112.2525 0.0000 0.0000 0.0000
# 4 0.0000 0.0000 0.0000 12.9799 0.0000 0.0000
# 5 0.0000 0.0000 0.0000 0.0000 24.9237 0.0000
# 6 0.0000 0.0000 0.0000 0.0000 0.0000 13.5741
#
#
#
# Elastic Compliance Matrix: (Units=1/GPa)
#
#
# Indices 1 2 3 4 5 6 
#
# 1 0.027683 -0.000761 -0.011023 0.000000 0.000000 0.000000
# 2 -0.000761 0.008587 -0.005326 0.000000 0.000000 0.000000
# 3 -0.011023 -0.005326 0.016997 0.000000 0.000000 0.000000
# 4 0.000000 0.000000 0.000000 0.077042 0.000000 0.000000
# 5 0.000000 0.000000 0.000000 0.000000 0.040122 0.000000
# 6 0.000000 0.000000 0.000000 0.000000 0.000000 0.073670
#
#
# Mechanical properties :
#
#
# Convention : Reuss Voigt Hill
#
# Bulk Modulus (GPa) = 52.50220 71.32654 61.91437
# Shear Modulus (GPa) = 17.56417 22.21038 19.88728
#
# Velocity S-wave (km/s) = 3.24773 3.65211 3.45584
# Velocity P-wave (km/s) = 6.75223 7.78572 7.28732
#
# Compressibility (1/GPa) = 0.01904682
#
# Stress axis : x y z
#
# Youngs Moduli (GPa) = 36.12324 116.45499 58.83471
#
# Poissons Ratio (x) = 0.08862 0.64852
# Poissons Ratio (y) = 0.02749 0.31337
# Poissons Ratio (z) = 0.39818 0.62026
#
# Static dielectric constant tensor:
#      x y z
#    x 1.541070 0.000000 0.000000 
#    y 0.000000 1.600520 0.000000 
#    z 0.000000 0.000000 1.570870 
# 
# From -- ./inp_files/30816.got.cif
#   From: 2010.05.17/outbox.cif.g08.bks.cpg/sg63_16_cif.got.tgz:30816.got - 2010.06.03 15:47:04.
