data_PCOD9470092
_publ_section_title
;
Structure prediction by ZEFSAII (Michael W. Deem and Ramdas Pophale) SiO2 
 PCOD9470092
Probable space group: C M C M
;
_chemical_formula_sum "Si O2"
_cell_formula_units_Z 80
_cell_length_a 26.684936
_cell_length_b 20.227179
_cell_length_c 8.465603
_cell_angle_alpha 90.000000
_cell_angle_beta 90.000000
_cell_angle_gamma 90.000000
_cell_volume 4569.402147
_symmetry_space_group_name_H-M "C M C M"
_symmetry_group_IT_number 63
_symmetry_cell_setting 'orthorhombic'
loop_
_space_group_symop_operation_xyz
x,y,z
-x,-y,1/2+z
x,-y,-z
-x,y,1/2-z
-x,-y,-z
x,y,1/2-z
-x,y,z
x,-y,1/2+z
1/2+x,1/2+y,z
1/2-x,1/2-y,1/2+z
1/2+x,1/2-y,-z
1/2-x,1/2+y,1/2-z
1/2-x,1/2-y,-z
1/2+x,1/2+y,1/2-z
1/2-x,1/2+y,z
1/2+x,1/2-y,1/2+z
loop_
_atom_site_type_symbol
_atom_site_label
_atom_site_fract_x
_atom_site_fract_y
_atom_site_fract_z
Si Si1 0.690564 0.573610 0.440871
Si Si2 0.392518 0.322215 0.938769
Si Si3 0.391108 0.172976 0.058122
Si Si4 0.500000 0.326374 0.431394
Si Si5 0.500000 0.834338 0.567677
Si Si6 0.804677 0.573589 0.059207
O O1 0.678735 0.500000 0.500000
O O2 0.689875 0.572983 0.250000
O O3 0.650154 0.627266 0.495373
O O4 0.747657 0.589545 0.491645
O O5 0.390319 0.318084 0.750000
O O6 0.384485 0.248720 0.006434
O O7 0.448050 0.346020 0.987661
O O8 0.393032 0.172452 0.250000
O O9 0.445749 0.147865 0.998416
O O10 0.345755 0.126515 0.005271
O O11 0.500000 0.347864 0.250000
O O12 0.500000 0.245908 0.432465
O O13 0.500000 0.857080 0.750000
O O14 0.805267 0.573169 0.250000
O O15 0.816477 0.500000 0.000000
#
# Coordination Sequence:
#
# PCOD9470092 Si02
#       6
#    16  16  16   8   8  16
#     4   9  19  34  50  69  95 127 162 201 245 290
#     4  10  19  31  49  74 100 123 155 201 244 283
#     4   9  17  30  49  71  96 128 165 200 237 287
#     4   9  17  31  50  71  96 127 159 189 233 291
#     4   7  12  25  44  65  89 119 153 187 224 271
#     4   9  18  33  50  68  94 129 166 203 244 288
#
# _framework density 17.507760000000001
#
# number of rings (size 3 to 8) (size 9 to 14) (size 15 to 20)
#    0.000    3.000    0.000    2.100    0.000    3.200 
#    0.000    1.000    0.000    0.000    0.000    0.000 
#    0.000    0.000    0.000    0.000    0.000    0.000 
#
# Total GULP energy -222783.045205 kJ/mol
# GULP energy per Si atom -5569.576130 kJ/mol
# Density = 1.746791 g / cm^3
# Si number density = 17.507760 Si / 1000 Ang^3
#
#
#
# Elastic Constant Matrix: (Units=GPa)
#
#
# Indices 1 2 3 4 5 6 
#
# 1 182.2825 108.8121 21.5821 0.0000 0.0000 0.0000
# 2 108.8121 88.6581 11.5318 0.0000 0.0000 0.0000
# 3 21.5821 11.5318 12.0213 0.0000 0.0000 0.0000
# 4 0.0000 0.0000 0.0000 23.9968 0.0000 0.0000
# 5 0.0000 0.0000 0.0000 0.0000 10.0106 0.0000
# 6 0.0000 0.0000 0.0000 0.0000 0.0000 -12.8035
#
#
#
# Elastic Compliance Matrix: (Units=1/GPa)
#
#
# Indices 1 2 3 4 5 6 
#
# 1 0.022994 -0.026109 -0.016235 0.000000 0.000000 0.000000
# 2 -0.026109 0.042534 0.006072 0.000000 0.000000 0.000000
# 3 -0.016235 0.006072 0.106508 0.000000 0.000000 0.000000
# 4 0.000000 0.000000 0.000000 0.041672 0.000000 0.000000
# 5 0.000000 0.000000 0.000000 0.000000 0.099894 0.000000
# 6 0.000000 0.000000 0.000000 0.000000 0.000000 -0.078103
#
#
# Mechanical properties :
#
#
# Convention : Reuss Voigt Hill
#
# Bulk Modulus (GPa) = 10.05107 62.97933 36.51520
# Shear Modulus (GPa) = 14.65385 13.64317 14.14851
#
# Velocity S-wave (km/s) = 2.89622 2.79456 2.84584
# Velocity P-wave (km/s) = 4.11552 6.81638 5.63030
#
# Compressibility (1/GPa) = 0.09949185
#
# Stress axis : x y z
#
# Youngs Moduli (GPa) = 43.48979 23.51069 9.38892
#
# Poissons Ratio (x) = 0.61385 0.15243
# Poissons Ratio (y) = 1.13548 -0.05701
# Poissons Ratio (z) = 0.70607 -0.14277
#
# Static dielectric constant tensor:
#      x y z
#    x 1.635870 0.000000 0.000000 
#    y 0.000000 1.554380 0.000000 
#    z 0.000000 0.000000 1.597370 
# 
# From -- ./inp_files/10115.got.cif
#   From: 2010.05.17/outbox.cif.g08.bks.cpg/sg63_6_cif.got.tgz:10115.got - 2010.06.03 15:47:04.
