data_PCOD9470520
_publ_section_title
;
Structure prediction by ZEFSAII (Michael W. Deem and Ramdas Pophale) SiO2 
 PCOD9470520
Probable space group: C M C M
;
_chemical_formula_sum "Si O2"
_cell_formula_units_Z 80
_cell_length_a 11.260929
_cell_length_b 28.444179
_cell_length_c 13.627546
_cell_angle_alpha 90.000000
_cell_angle_beta 90.000000
_cell_angle_gamma 90.000000
_cell_volume 4365.010371
_symmetry_space_group_name_H-M "C M C M"
_symmetry_group_IT_number 63
_symmetry_cell_setting 'orthorhombic'
loop_
_space_group_symop_operation_xyz
x,y,z
-x,-y,1/2+z
x,-y,-z
-x,y,1/2-z
-x,-y,-z
x,y,1/2-z
-x,y,z
x,-y,1/2+z
1/2+x,1/2+y,z
1/2-x,1/2-y,1/2+z
1/2+x,1/2-y,-z
1/2-x,1/2+y,1/2-z
1/2-x,1/2-y,-z
1/2+x,1/2+y,1/2-z
1/2-x,1/2+y,z
1/2+x,1/2-y,1/2+z
loop_
_atom_site_type_symbol
_atom_site_label
_atom_site_fract_x
_atom_site_fract_y
_atom_site_fract_z
Si Si1 0.629304 0.797614 0.076922
Si Si2 0.863887 0.053800 0.965456
Si Si3 0.365019 0.094714 0.867188
Si Si4 0.364321 0.627498 0.140947
Si Si5 0.803438 0.281634 0.640519
O O1 0.500000 0.787802 0.120414
O O2 0.652712 0.852855 0.089964
O O3 0.726355 0.765556 0.128904
O O4 0.626228 0.784913 0.961358
O O5 0.749155 0.064270 0.898530
O O6 0.000000 0.062511 0.926475
O O7 0.847292 0.088579 0.058173
O O8 0.860998 0.000000 0.000000
O O9 0.366131 0.098117 0.750000
O O10 0.500000 0.079023 0.897624
O O11 0.348511 0.606573 0.250000
O O12 0.500000 0.644359 0.132781
O O13 0.280690 0.672514 0.133979
O O14 0.858504 0.282204 0.750000
#
# Coordination Sequence:
#
# PCOD9470520 Si02
#       5
#    16  16  16  16  16
#     4  10  20  34  53  78 110 146 182 223 272 330
#     4  10  21  37  58  84 112 143 184 237 287 329
#     4  10  21  38  58  81 114 153 189 226 274 336
#     4   9  17  31  52  77 106 139 177 221 270 326
#     4  10  19  32  53  79 106 139 180 224 271 323
#
# _framework density 18.327562
#
# number of rings (size 3 to 8) (size 9 to 14) (size 15 to 20)
#    0.000    2.200    2.000    1.200    0.000    4.000 
#    0.000    2.000    0.000    3.000    0.000    0.000 
#    0.000    0.000    0.000    0.000    0.000    0.000 
#
# Total GULP energy -222747.423396 kJ/mol
# GULP energy per Si atom -5568.685585 kJ/mol
# Density = 1.828585 g / cm^3
# Si number density = 18.327562 Si / 1000 Ang^3
#
#
#
# Elastic Constant Matrix: (Units=GPa)
#
#
# Indices 1 2 3 4 5 6 
#
# 1 114.9831 46.0294 34.9099 0.0000 0.0000 0.0000
# 2 46.0294 54.5148 8.0112 0.0000 0.0000 0.0000
# 3 34.9099 8.0112 75.2594 0.0000 0.0000 0.0000
# 4 0.0000 0.0000 0.0000 12.4523 0.0000 0.0000
# 5 0.0000 0.0000 0.0000 0.0000 21.9872 0.0000
# 6 0.0000 0.0000 0.0000 0.0000 0.0000 32.6345
#
#
#
# Elastic Compliance Matrix: (Units=1/GPa)
#
#
# Indices 1 2 3 4 5 6 
#
# 1 0.015285 -0.012052 -0.005807 0.000000 0.000000 0.000000
# 2 -0.012052 0.028139 0.002595 0.000000 0.000000 0.000000
# 3 -0.005807 0.002595 0.015705 0.000000 0.000000 0.000000
# 4 0.000000 0.000000 0.000000 0.080307 0.000000 0.000000
# 5 0.000000 0.000000 0.000000 0.000000 0.045481 0.000000
# 6 0.000000 0.000000 0.000000 0.000000 0.000000 0.030642
#
#
# Mechanical properties :
#
#
# Convention : Reuss Voigt Hill
#
# Bulk Modulus (GPa) = 34.96501 46.96204 40.96353
# Shear Modulus (GPa) = 19.56033 23.80190 21.68112
#
# Velocity S-wave (km/s) = 3.27044 3.60765 3.44318
# Velocity P-wave (km/s) = 5.77757 6.55994 6.18115
#
# Compressibility (1/GPa) = 0.02860002
#
# Stress axis : x y z
#
# Youngs Moduli (GPa) = 65.42502 35.53846 63.67489
#
# Poissons Ratio (x) = 0.42832 0.36976
# Poissons Ratio (y) = 0.78852 -0.16525
# Poissons Ratio (z) = 0.37993 -0.09223
#
# Static dielectric constant tensor:
#      x y z
#    x 1.652890 0.000000 0.000000 
#    y 0.000000 1.586120 0.000000 
#    z 0.000000 0.000000 1.652720 
# 
# From -- ./inp_files/17834.got.cif
#   From: 2010.05.17/outbox.cif.g08.bks.cpg/sg63_9_cif.got.tgz:17834.got - 2010.06.03 15:47:04.
