data_PCOD9470433
_publ_section_title
;
Structure prediction by ZEFSAII (Michael W. Deem and Ramdas Pophale) SiO2 
 PCOD9470433
Probable space group: C M C M
;
_chemical_formula_sum "Si O2"
_cell_formula_units_Z 80
_cell_length_a 7.765975
_cell_length_b 19.492531
_cell_length_c 26.725272
_cell_angle_alpha 90.000000
_cell_angle_beta 90.000000
_cell_angle_gamma 90.000000
_cell_volume 4045.631813
_symmetry_space_group_name_H-M "C M C M"
_symmetry_group_IT_number 63
_symmetry_cell_setting 'orthorhombic'
loop_
_space_group_symop_operation_xyz
x,y,z
-x,-y,1/2+z
x,-y,-z
-x,y,1/2-z
-x,-y,-z
x,y,1/2-z
-x,y,z
x,-y,1/2+z
1/2+x,1/2+y,z
1/2-x,1/2-y,1/2+z
1/2+x,1/2-y,-z
1/2-x,1/2+y,1/2-z
1/2-x,1/2-y,-z
1/2+x,1/2+y,1/2-z
1/2-x,1/2+y,z
1/2+x,1/2-y,1/2+z
loop_
_atom_site_type_symbol
_atom_site_label
_atom_site_fract_x
_atom_site_fract_y
_atom_site_fract_z
Si Si1 0.295199 0.551261 0.341882
Si Si2 0.289158 0.457414 0.250000
Si Si3 0.707111 0.797428 0.953661
Si Si4 0.207871 0.453046 0.545236
Si Si5 0.711978 0.298657 0.250000
Si Si6 0.204134 0.710528 0.343666
O O1 0.500000 0.556014 0.337077
O O2 0.232295 0.499478 0.299116
O O3 0.254224 0.526525 0.398126
O O4 0.226990 0.628909 0.335241
O O5 0.500000 0.456956 0.250000
O O6 0.235013 0.378100 0.250000
O O7 0.500000 0.800740 0.950024
O O8 0.769912 0.875033 0.961618
O O9 0.773368 0.773617 0.899268
O O10 0.750000 0.750000 0.000000
O O11 0.272242 0.500000 0.500000
O O12 0.000000 0.452841 0.542855
O O13 0.500000 0.297691 0.250000
O O14 0.772796 0.257000 0.298874
O O15 0.000000 0.723478 0.344863
#
# Coordination Sequence:
#
# PCOD9470433 Si02
#       6
#    16   8  16  16   8  16
#     4  10  19  32  52  75 101 132 164 202 247 295
#     4   9  19  32  47  75 108 131 158 204 256 293
#     4   9  18  31  48  72  98 125 159 198 240 285
#     4   9  19  36  54  72  98 131 167 206 245 289
#     4   9  17  32  53  73  96 129 166 202 242 291
#     4   9  18  33  53  73  94 128 170 203 236 287
#
# _framework density 19.774414
#
# number of rings (size 3 to 8) (size 9 to 14) (size 15 to 20)
#    0.000    2.800    0.000    2.400    0.000    5.200 
#    0.000    3.500    0.000    4.800    0.000    0.000 
#    0.000    0.000    0.000    0.000    0.000    0.000 
#
# Total GULP energy -223099.407393 kJ/mol
# GULP energy per Si atom -5577.485185 kJ/mol
# Density = 1.972941 g / cm^3
# Si number density = 19.774414 Si / 1000 Ang^3
#
#
#
# Elastic Constant Matrix: (Units=GPa)
#
#
# Indices 1 2 3 4 5 6 
#
# 1 19.7878 -5.8118 1.7234 0.0000 0.0000 0.0000
# 2 -5.8118 110.0696 137.4620 0.0000 0.0000 0.0000
# 3 1.7234 137.4620 234.7774 0.0000 0.0000 0.0000
# 4 0.0000 0.0000 0.0000 41.1403 0.0000 0.0000
# 5 0.0000 0.0000 0.0000 0.0000 15.3882 0.0000
# 6 0.0000 0.0000 0.0000 0.0000 0.0000 16.6811
#
#
#
# Elastic Compliance Matrix: (Units=1/GPa)
#
#
# Indices 1 2 3 4 5 6 
#
# 1 0.054937 0.012665 -0.007819 0.000000 0.000000 0.000000
# 2 0.012665 0.036720 -0.021593 0.000000 0.000000 0.000000
# 3 -0.007819 -0.021593 0.016959 0.000000 0.000000 0.000000
# 4 0.000000 0.000000 0.000000 0.024307 0.000000 0.000000
# 5 0.000000 0.000000 0.000000 0.000000 0.064985 0.000000
# 6 0.000000 0.000000 0.000000 0.000000 0.000000 0.059948
#
#
# Mechanical properties :
#
#
# Convention : Reuss Voigt Hill
#
# Bulk Modulus (GPa) = 13.31127 70.15356 41.73241
# Shear Modulus (GPa) = 15.80331 30.05934 22.93133
#
# Velocity S-wave (km/s) = 2.83004 3.90309 3.40905
# Velocity P-wave (km/s) = 4.17433 7.47436 6.05356
#
# Compressibility (1/GPa) = 0.07512434
#
# Stress axis : x y z
#
# Youngs Moduli (GPa) = 18.20265 27.23310 58.96523
#
# Poissons Ratio (x) = -0.34492 0.46104
# Poissons Ratio (y) = -0.23054 1.27321
# Poissons Ratio (z) = 0.14232 0.58803
#
# Static dielectric constant tensor:
#      x y z
#    x 1.717730 0.000000 0.000000 
#    y 0.000000 1.664820 0.000000 
#    z 0.000000 0.000000 1.704400 
# 
# From -- ./inp_files/66806.got.cif
#   From: 2010.05.17/outbox.cif.g08.bks.cpg/sg63_34_cif.got.tgz:66806.got - 2010.06.03 15:47:04.
