data_PCOD9470849
_publ_section_title
;
Structure prediction by ZEFSAII (Michael W. Deem and Ramdas Pophale) SiO2 
 PCOD9470849
Probable space group: C M C M
;
_chemical_formula_sum "Si O2"
_cell_formula_units_Z 96
_cell_length_a 7.598348
_cell_length_b 20.473657
_cell_length_c 29.008620
_cell_angle_alpha 90.000000
_cell_angle_beta 90.000000
_cell_angle_gamma 90.000000
_cell_volume 4512.754130
_symmetry_space_group_name_H-M "C M C M"
_symmetry_group_IT_number 63
_symmetry_cell_setting 'orthorhombic'
loop_
_space_group_symop_operation_xyz
x,y,z
-x,-y,1/2+z
x,-y,-z
-x,y,1/2-z
-x,-y,-z
x,y,1/2-z
-x,y,z
x,-y,1/2+z
1/2+x,1/2+y,z
1/2-x,1/2-y,1/2+z
1/2+x,1/2-y,-z
1/2-x,1/2+y,1/2-z
1/2-x,1/2-y,-z
1/2+x,1/2+y,1/2-z
1/2-x,1/2+y,z
1/2+x,1/2-y,1/2+z
loop_
_atom_site_type_symbol
_atom_site_label
_atom_site_fract_x
_atom_site_fract_y
_atom_site_fract_z
Si Si1 0.286993 0.390845 0.197021
Si Si2 0.785224 0.761779 0.142266
Si Si3 0.216044 0.367592 0.696476
Si Si4 0.297815 0.011948 0.363181
Si Si5 0.791779 0.798942 0.041685
Si Si6 0.288697 0.046913 0.958856
O O1 0.236672 0.385510 0.250000
O O2 0.500000 0.396324 0.194555
O O3 0.234355 0.326947 0.169120
O O4 0.206852 0.453628 0.173203
O O5 0.729429 0.699161 0.171499
O O6 0.720540 0.769586 0.089853
O O7 0.000000 0.759086 0.141344
O O8 0.272215 0.372429 0.750000
O O9 0.279588 0.426186 0.663577
O O10 0.000000 0.369473 0.697567
O O11 0.500000 0.030115 0.374084
O O12 0.219862 0.982423 0.410354
O O13 0.743847 0.875475 0.035460
O O14 0.000000 0.799423 0.046383
O O15 0.750000 0.750000 0.000000
O O16 0.500000 0.041457 0.957849
O O17 0.224257 0.000000 0.000000
#
# Coordination Sequence:
#
# PCOD9470849 Si02
#       6
#    16  16  16  16  16  16
#     4  10  19  33  55  81 110 145 184 227 277 334
#     4   9  18  33  54  79 109 143 183 230 275 329
#     4   9  17  30  51  80 110 142 184 229 273 324
#     4  10  20  34  55  82 112 143 182 233 282 334
#     4  11  23  39  61  86 115 149 191 239 290 348
#     4  10  22  39  60  85 115 151 193 240 292 348
#
# _framework density 21.273039000000001
#
# number of rings (size 3 to 8) (size 9 to 14) (size 15 to 20)
#    0.000    2.167    1.667    1.500    2.333    3.333 
#    0.000    0.000    0.000    1.000    0.000    0.000 
#    0.000    0.000    0.000    0.000    0.000    0.000 
#
# Total GULP energy -267968.245199 kJ/mol
# GULP energy per Si atom -5582.671775 kJ/mol
# Density = 2.122462 g / cm^3
# Si number density = 21.273039 Si / 1000 Ang^3
#
#
#
# Elastic Constant Matrix: (Units=GPa)
#
#
# Indices 1 2 3 4 5 6 
#
# 1 46.0906 0.9989 7.8197 0.0000 0.0000 0.0000
# 2 0.9989 113.9878 23.5568 0.0000 0.0000 0.0000
# 3 7.8197 23.5568 125.3560 0.0000 0.0000 0.0000
# 4 0.0000 0.0000 0.0000 44.2558 0.0000 0.0000
# 5 0.0000 0.0000 0.0000 0.0000 7.5459 0.0000
# 6 0.0000 0.0000 0.0000 0.0000 0.0000 70.4429
#
#
#
# Elastic Compliance Matrix: (Units=1/GPa)
#
#
# Indices 1 2 3 4 5 6 
#
# 1 0.021929 0.000094 -0.001386 0.000000 0.000000 0.000000
# 2 0.000094 0.009128 -0.001721 0.000000 0.000000 0.000000
# 3 -0.001386 -0.001721 0.008387 0.000000 0.000000 0.000000
# 4 0.000000 0.000000 0.000000 0.022596 0.000000 0.000000
# 5 0.000000 0.000000 0.000000 0.000000 0.132522 0.000000
# 6 0.000000 0.000000 0.000000 0.000000 0.000000 0.014196
#
#
# Mechanical properties :
#
#
# Convention : Reuss Voigt Hill
#
# Bulk Modulus (GPa) = 29.92302 38.90948 34.41625
# Shear Modulus (GPa) = 22.13139 41.31953 31.72546
#
# Velocity S-wave (km/s) = 3.22894 4.41198 3.86598
# Velocity P-wave (km/s) = 5.29133 6.65465 6.01176
#
# Compressibility (1/GPa) = 0.03341908
#
# Stress axis : x y z
#
# Youngs Moduli (GPa) = 45.60079 109.55617 119.22998
#
# Poissons Ratio (x) = -0.01032 0.16521
# Poissons Ratio (y) = -0.00429 0.20521
# Poissons Ratio (z) = 0.06319 0.18856
#
# Static dielectric constant tensor:
#      x y z
#    x 1.819100 0.000000 0.000000 
#    y 0.000000 1.631560 0.000000 
#    z 0.000000 0.000000 1.799420 
# 
# From -- ./inp_files/61476.got.cif
#   From: 2010.05.17/outbox.cif.g08.bks.cpg/sg63_31_cif.got.tgz:61476.got - 2010.06.03 15:47:04.
