data_PCOD9470657
_publ_section_title
;
Structure prediction by ZEFSAII (Michael W. Deem and Ramdas Pophale) SiO2 
 PCOD9470657
Probable space group: C M C M
;
_chemical_formula_sum "Si O2"
_cell_formula_units_Z 80
_cell_length_a 24.008710
_cell_length_b 20.753154
_cell_length_c 9.744067
_cell_angle_alpha 90.000000
_cell_angle_beta 90.000000
_cell_angle_gamma 90.000000
_cell_volume 4855.044290
_symmetry_space_group_name_H-M "C M C M"
_symmetry_group_IT_number 63
_symmetry_cell_setting 'orthorhombic'
loop_
_space_group_symop_operation_xyz
x,y,z
-x,-y,1/2+z
x,-y,-z
-x,y,1/2-z
-x,-y,-z
x,y,1/2-z
-x,y,z
x,-y,1/2+z
1/2+x,1/2+y,z
1/2-x,1/2-y,1/2+z
1/2+x,1/2-y,-z
1/2-x,1/2+y,1/2-z
1/2-x,1/2-y,-z
1/2+x,1/2+y,1/2-z
1/2-x,1/2+y,z
1/2+x,1/2-y,1/2+z
loop_
_atom_site_type_symbol
_atom_site_label
_atom_site_fract_x
_atom_site_fract_y
_atom_site_fract_z
Si Si1 0.718785 0.195474 0.413195
Si Si2 0.000000 0.784705 0.591609
Si Si3 0.278890 0.560291 0.086622
Si Si4 0.625676 0.398223 0.398465
Si Si5 0.500000 0.576210 0.971403
Si Si6 0.896378 0.750285 0.406575
O O1 0.726013 0.208263 0.250000
O O2 0.750000 0.250000 0.500000
O O3 0.744306 0.125411 0.441587
O O4 0.652750 0.200948 0.441229
O O5 0.053486 0.756816 0.512472
O O6 0.000000 0.767516 0.750000
O O7 0.000000 0.863415 0.578575
O O8 0.279577 0.550064 0.250000
O O9 0.256324 0.500000 0.000000
O O10 0.340817 0.572232 0.024767
O O11 0.648069 0.420340 0.250000
O O12 0.559777 0.412285 0.400976
O O13 0.631526 0.321254 0.406166
O O14 0.500000 0.500000 0.000000
O O15 0.916511 0.739096 0.250000
#
# Coordination Sequence:
#
# PCOD9470657 Si02
#       6
#    16   8  16  16   8  16
#     4  10  20  35  56  80 103 135 177 219 261 312
#     4  10  21  33  49  77 106 130 168 217 257 303
#     4  11  23  36  52  76 107 138 173 215 262 314
#     4  10  19  33  52  70  95 133 177 219 261 303
#     4  10  21  33  45  65  97 134 178 215 258 295
#     4   9  18  34  54  75 101 134 170 211 262 310
#
# _framework density 16.477706999999999
#
# number of rings (size 3 to 8) (size 9 to 14) (size 15 to 20)
#    0.000    2.000    2.000    1.800    0.000    8.000 
#    0.000    0.000    0.000    0.000    0.000    0.700 
#    0.000    0.000    0.000    0.000    0.000    0.000 
#
# Total GULP energy -222853.201221 kJ/mol
# GULP energy per Si atom -5571.330031 kJ/mol
# Density = 1.644020 g / cm^3
# Si number density = 16.477707 Si / 1000 Ang^3
#
#
#
# Elastic Constant Matrix: (Units=GPa)
#
#
# Indices 1 2 3 4 5 6 
#
# 1 90.1008 55.4045 60.1577 0.0000 0.0000 0.0000
# 2 55.4045 94.4948 51.4406 0.0000 0.0000 0.0000
# 3 60.1577 51.4406 123.7131 0.0000 0.0000 0.0000
# 4 0.0000 0.0000 0.0000 18.8724 0.0000 0.0000
# 5 0.0000 0.0000 0.0000 0.0000 14.7465 0.0000
# 6 0.0000 0.0000 0.0000 0.0000 0.0000 22.7782
#
#
#
# Elastic Compliance Matrix: (Units=1/GPa)
#
#
# Indices 1 2 3 4 5 6 
#
# 1 0.020741 -0.008622 -0.006500 0.000000 0.000000 0.000000
# 2 -0.008622 0.017263 -0.002985 0.000000 0.000000 0.000000
# 3 -0.006500 -0.002985 0.012486 0.000000 0.000000 0.000000
# 4 0.000000 0.000000 0.000000 0.052987 0.000000 0.000000
# 5 0.000000 0.000000 0.000000 0.000000 0.067813 0.000000
# 6 0.000000 0.000000 0.000000 0.000000 0.000000 0.043902
#
#
# Mechanical properties :
#
#
# Convention : Reuss Voigt Hill
#
# Bulk Modulus (GPa) = 70.06030 71.36828 70.71429
# Shear Modulus (GPa) = 19.51868 20.69981 20.10925
#
# Velocity S-wave (km/s) = 3.44546 3.54818 3.49720
# Velocity P-wave (km/s) = 7.64453 7.75836 7.70166
#
# Compressibility (1/GPa) = 0.01427342
#
# Stress axis : x y z
#
# Youngs Moduli (GPa) = 48.21437 57.92688 80.09268
#
# Poissons Ratio (x) = 0.49945 0.52064
# Poissons Ratio (y) = 0.41571 0.23911
# Poissons Ratio (z) = 0.31341 0.17294
#
# Static dielectric constant tensor:
#      x y z
#    x 1.563210 0.000000 0.000000 
#    y 0.000000 1.567530 0.000000 
#    z 0.000000 0.000000 1.554160 
# 
# From -- ./inp_files/10124.got.cif
#   From: 2010.05.17/outbox.cif.g08.bks.cpg/sg63_6_cif.got.tgz:10124.got - 2010.06.03 15:47:04.
