data_PCOD9470486
_publ_section_title
;
Structure prediction by ZEFSAII (Michael W. Deem and Ramdas Pophale) SiO2 
 PCOD9470486
Probable space group: C M C M
;
_chemical_formula_sum "Si O2"
_cell_formula_units_Z 104
_cell_length_a 20.698307
_cell_length_b 30.288490
_cell_length_c 8.655301
_cell_angle_alpha 90.000000
_cell_angle_beta 90.000000
_cell_angle_gamma 90.000000
_cell_volume 5426.185324
_symmetry_space_group_name_H-M "C M C M"
_symmetry_group_IT_number 63
_symmetry_cell_setting 'orthorhombic'
loop_
_space_group_symop_operation_xyz
x,y,z
-x,-y,1/2+z
x,-y,-z
-x,y,1/2-z
-x,-y,-z
x,y,1/2-z
-x,y,z
x,-y,1/2+z
1/2+x,1/2+y,z
1/2-x,1/2-y,1/2+z
1/2+x,1/2-y,-z
1/2-x,1/2+y,1/2-z
1/2-x,1/2-y,-z
1/2+x,1/2+y,1/2-z
1/2-x,1/2+y,z
1/2+x,1/2-y,1/2+z
loop_
_atom_site_type_symbol
_atom_site_label
_atom_site_fract_x
_atom_site_fract_y
_atom_site_fract_z
Si Si1 0.326221 0.800640 0.936473
Si Si2 0.120064 0.393112 0.935267
Si Si3 0.500000 0.949601 0.434780
Si Si4 0.322473 0.295334 0.565571
Si Si5 0.070730 0.140413 0.563325
Si Si6 0.383047 0.453398 0.065310
Si Si7 0.268360 0.047826 0.564314
O O1 0.327820 0.798978 0.750000
O O2 0.371234 0.841776 0.983902
O O3 0.250986 0.806887 0.984651
O O4 0.342740 0.752582 0.001482
O O5 0.112509 0.394470 0.750000
O O6 0.062303 0.421492 0.009426
O O7 0.186780 0.416235 0.984760
O O8 0.500000 0.952589 0.250000
O O9 0.500000 0.000000 0.500000
O O10 0.322587 0.293778 0.750000
O O11 0.372005 0.331247 0.505310
O O12 0.075288 0.141516 0.750000
O O13 0.078714 0.089610 0.513857
O O14 0.000000 0.157189 0.518357
O O15 0.386612 0.455929 0.250000
O O16 0.307280 0.446808 0.024652
O O17 0.405342 0.500000 0.000000
O O18 0.275328 0.049336 0.750000
O O19 0.288579 0.000000 0.500000
#
# Coordination Sequence:
#
# PCOD9470486 Si02
#       7
#    16  16   8  16  16  16  16
#     4   9  20  38  61  87 115 146 180 226 287 344
#     4  11  22  38  59  84 112 146 188 231 281 341
#     4  12  26  44  62  82 114 154 196 238 287 344
#     4  10  20  36  60  89 116 144 185 235 281 332
#     4  10  21  37  55  77 110 153 192 225 273 334
#     4   9  19  34  53  79 110 145 187 233 279 328
#     4  10  19  32  52  79 110 143 181 229 281 330
#
# _framework density 19.166319999999999
#
# number of rings (size 3 to 8) (size 9 to 14) (size 15 to 20)
#    0.000    2.000    0.000    3.462    0.000    3.692 
#    1.385    0.000    0.000    0.000    0.000    0.000 
#    0.000    0.000    0.000    0.000    0.000    0.000 
#
# Total GULP energy -290348.073441 kJ/mol
# GULP energy per Si atom -5583.616797 kJ/mol
# Density = 1.912270 g / cm^3
# Si number density = 19.166320 Si / 1000 Ang^3
#
#
#
# Elastic Constant Matrix: (Units=GPa)
#
#
# Indices 1 2 3 4 5 6 
#
# 1 51.2459 56.5098 23.4272 0.0000 0.0000 0.0000
# 2 56.5098 136.9534 33.0984 0.0000 0.0000 0.0000
# 3 23.4272 33.0984 38.4776 0.0000 0.0000 0.0000
# 4 0.0000 0.0000 0.0000 33.1354 0.0000 0.0000
# 5 0.0000 0.0000 0.0000 0.0000 4.6483 0.0000
# 6 0.0000 0.0000 0.0000 0.0000 0.0000 20.7873
#
#
#
# Elastic Compliance Matrix: (Units=1/GPa)
#
#
# Indices 1 2 3 4 5 6 
#
# 1 0.040328 -0.013516 -0.012927 0.000000 0.000000 0.000000
# 2 -0.013516 0.013748 -0.003597 0.000000 0.000000 0.000000
# 3 -0.012927 -0.003597 0.036954 0.000000 0.000000 0.000000
# 4 0.000000 0.000000 0.000000 0.030179 0.000000 0.000000
# 5 0.000000 0.000000 0.000000 0.000000 0.215131 0.000000
# 6 0.000000 0.000000 0.000000 0.000000 0.000000 0.048106
#
#
# Mechanical properties :
#
#
# Convention : Reuss Voigt Hill
#
# Bulk Modulus (GPa) = 32.31055 50.30532 41.30794
# Shear Modulus (GPa) = 10.99282 19.29030 15.14156
#
# Velocity S-wave (km/s) = 2.39749 3.17593 2.81376
# Velocity P-wave (km/s) = 4.95565 6.30495 5.67058
#
# Compressibility (1/GPa) = 0.03094964
#
# Stress axis : x y z
#
# Youngs Moduli (GPa) = 24.79690 72.73829 27.06066
#
# Poissons Ratio (x) = 0.98311 0.34982
# Poissons Ratio (y) = 0.33515 0.09733
# Poissons Ratio (z) = 0.32056 0.26163
#
# Static dielectric constant tensor:
#      x y z
#    x 1.661940 0.000000 0.000000 
#    y 0.000000 1.665560 0.000000 
#    z 0.000000 0.000000 1.657240 
# 
# From -- ./inp_files/8771.got.cif
#   From: 2010.05.17/outbox.cif.g08.bks.cpg/sg63_5_cif.got.tgz:8771.got - 2010.06.03 15:47:04.
