data_PCOD9470485
_publ_section_title
;
Structure prediction by ZEFSAII (Michael W. Deem and Ramdas Pophale) SiO2 
 PCOD9470485
Probable space group: C M C M
;
_chemical_formula_sum "Si O2"
_cell_formula_units_Z 112
_cell_length_a 14.968990
_cell_length_b 27.640580
_cell_length_c 15.375234
_cell_angle_alpha 90.000000
_cell_angle_beta 90.000000
_cell_angle_gamma 90.000000
_cell_volume 6361.527139
_symmetry_space_group_name_H-M "C M C M"
_symmetry_group_IT_number 63
_symmetry_cell_setting 'orthorhombic'
loop_
_space_group_symop_operation_xyz
x,y,z
-x,-y,1/2+z
x,-y,-z
-x,y,1/2-z
-x,-y,-z
x,y,1/2-z
-x,y,z
x,-y,1/2+z
1/2+x,1/2+y,z
1/2-x,1/2-y,1/2+z
1/2+x,1/2-y,-z
1/2-x,1/2+y,1/2-z
1/2-x,1/2-y,-z
1/2+x,1/2+y,1/2-z
1/2-x,1/2+y,z
1/2+x,1/2-y,1/2+z
loop_
_atom_site_type_symbol
_atom_site_label
_atom_site_fract_x
_atom_site_fract_y
_atom_site_fract_z
Si Si1 0.901106 0.743697 0.849494
Si Si2 0.099159 0.933611 0.853168
Si Si3 0.226421 0.303684 0.467005
Si Si4 0.901867 0.161529 0.028579
Si Si5 0.204265 0.461950 0.852787
Si Si6 0.393657 0.882594 0.527643
Si Si7 0.394545 0.062885 0.651201
O O1 0.891317 0.758059 0.750000
O O2 0.826468 0.706230 0.878751
O O3 0.897905 0.791589 0.908581
O O4 0.000000 0.721597 0.861650
O O5 0.101431 0.921820 0.750000
O O6 0.105642 0.885256 0.910464
O O7 0.189515 0.963027 0.872068
O O8 0.000000 0.955427 0.870013
O O9 0.250000 0.250000 0.500000
O O10 0.317847 0.333651 0.465170
O O11 0.158558 0.331714 0.531242
O O12 0.000000 0.161124 0.986545
O O13 0.193784 0.450408 0.750000
O O14 0.153654 0.421574 0.909651
O O15 0.160360 0.514125 0.867056
O O16 0.500000 0.879202 0.544462
O O17 0.380083 0.900643 0.428152
O O18 0.373748 0.079854 0.750000
O O19 0.500000 0.050607 0.649839
#
# Coordination Sequence:
#
# PCOD9470485 Si02
#       7
#    16  16  16  16  16  16  16
#     4   9  17  29  47  70  95 125 164 213 262 307
#     4   9  16  27  47  74 100 127 163 208 254 300
#     4  10  20  33  48  73 101 133 169 214 264 311
#     4   9  16  29  48  68  93 126 166 208 255 305
#     4  10  19  32  52  79 110 141 171 210 264 327
#     4  11  21  34  53  77 106 141 178 217 263 318
#     4   9  19  35  55  79 106 137 175 217 261 311
#
# _framework density 17.605834000000002
#
# number of rings (size 3 to 8) (size 9 to 14) (size 15 to 20)
#    0.000    2.429    1.429    1.714    0.000    4.857 
#    0.000    1.429    0.000    3.000    0.000    0.000 
#    0.000    0.000    0.000    0.000    0.000    0.000 
#
# Total GULP energy -311884.625053 kJ/mol
# GULP energy per Si atom -5569.368305 kJ/mol
# Density = 1.756576 g / cm^3
# Si number density = 17.605834 Si / 1000 Ang^3
#
#
#
# Elastic Constant Matrix: (Units=GPa)
#
#
# Indices 1 2 3 4 5 6 
#
# 1 113.8411 34.3329 31.3052 0.0000 0.0000 0.0000
# 2 34.3329 46.2597 17.1685 0.0000 0.0000 0.0000
# 3 31.3052 17.1685 32.9806 0.0000 0.0000 0.0000
# 4 0.0000 0.0000 0.0000 15.6678 0.0000 0.0000
# 5 0.0000 0.0000 0.0000 0.0000 24.5863 0.0000
# 6 0.0000 0.0000 0.0000 0.0000 0.0000 29.7208
#
#
#
# Elastic Compliance Matrix: (Units=1/GPa)
#
#
# Indices 1 2 3 4 5 6 
#
# 1 0.013261 -0.006408 -0.009251 0.000000 0.000000 0.000000
# 2 -0.006408 0.029891 -0.009477 0.000000 0.000000 0.000000
# 3 -0.009251 -0.009477 0.044035 0.000000 0.000000 0.000000
# 4 0.000000 0.000000 0.000000 0.063825 0.000000 0.000000
# 5 0.000000 0.000000 0.000000 0.000000 0.040673 0.000000
# 6 0.000000 0.000000 0.000000 0.000000 0.000000 0.033646
#
#
# Mechanical properties :
#
#
# Convention : Reuss Voigt Hill
#
# Bulk Modulus (GPa) = 27.09035 39.85497 33.47266
# Shear Modulus (GPa) = 17.36656 21.34663 19.35659
#
# Velocity S-wave (km/s) = 3.14412 3.48584 3.31938
# Velocity P-wave (km/s) = 5.34801 6.23602 5.80901
#
# Compressibility (1/GPa) = 0.03691351
#
# Stress axis : x y z
#
# Youngs Moduli (GPa) = 75.40981 33.45537 22.70896
#
# Poissons Ratio (x) = 0.21440 0.21009
# Poissons Ratio (y) = 0.48326 0.21521
# Poissons Ratio (z) = 0.69763 0.31706
#
# Static dielectric constant tensor:
#      x y z
#    x 1.655790 0.000000 0.000000 
#    y 0.000000 1.601490 0.000000 
#    z 0.000000 0.000000 1.589650 
# 
# From -- ./inp_files/32302.got.cif
#   From: 2010.05.17/outbox.cif.g08.bks.cpg/sg63_17_cif.got.tgz:32302.got - 2010.06.03 15:47:04.
