data_PCOD9470858
_publ_section_title
;
Structure prediction by ZEFSAII (Michael W. Deem and Ramdas Pophale) SiO2 
 PCOD9470858
Probable space group: C M C M
;
_chemical_formula_sum "Si O2"
_cell_formula_units_Z 104
_cell_length_a 16.323221
_cell_length_b 16.847723
_cell_length_c 20.515466
_cell_angle_alpha 90.000000
_cell_angle_beta 90.000000
_cell_angle_gamma 90.000000
_cell_volume 5641.939961
_symmetry_space_group_name_H-M "C M C M"
_symmetry_group_IT_number 63
_symmetry_cell_setting 'orthorhombic'
loop_
_space_group_symop_operation_xyz
x,y,z
-x,-y,1/2+z
x,-y,-z
-x,y,1/2-z
-x,-y,-z
x,y,1/2-z
-x,y,z
x,-y,1/2+z
1/2+x,1/2+y,z
1/2-x,1/2-y,1/2+z
1/2+x,1/2-y,-z
1/2-x,1/2+y,1/2-z
1/2-x,1/2-y,-z
1/2+x,1/2+y,1/2-z
1/2-x,1/2+y,z
1/2+x,1/2-y,1/2+z
loop_
_atom_site_type_symbol
_atom_site_label
_atom_site_fract_x
_atom_site_fract_y
_atom_site_fract_z
Si Si1 0.808879 0.145110 0.450747
Si Si2 0.598148 0.684250 0.175787
Si Si3 0.598464 0.007361 0.626017
Si Si4 0.305982 0.149610 0.678237
Si Si5 0.799562 0.500000 0.000000
Si Si6 0.319223 0.284908 0.417495
Si Si7 0.902428 0.667143 0.176940
O O1 0.862763 0.137525 0.385382
O O2 0.758773 0.067537 0.470777
O O3 0.742430 0.213628 0.436439
O O4 0.853930 0.176387 0.516523
O O5 0.617810 0.655697 0.250000
O O6 0.500000 0.687115 0.169936
O O7 0.636617 0.772660 0.170578
O O8 0.500000 0.012488 0.624440
O O9 0.637725 0.072397 0.673045
O O10 0.639328 0.027559 0.556902
O O11 0.622715 0.917854 0.646742
O O12 0.267864 0.153887 0.750000
O O13 0.236352 0.153379 0.623106
O O14 0.380010 0.240827 0.368548
O O15 0.867413 0.675527 0.250000
O O16 0.000000 0.663122 0.181659
#
# Coordination Sequence:
#
# PCOD9470858 Si02
#       7
#    16  16  16  16   8  16  16
#     4  10  21  35  58  79 109 145 186 236 277 337
#     4   9  19  36  58  84 110 140 183 237 291 338
#     4  11  22  35  54  82 117 154 189 227 283 343
#     4  10  19  33  55  82 113 148 185 234 285 333
#     4  12  21  40  51  80 116 150 190 230 285 336
#     4  10  19  36  54  81 110 148 194 230 276 332
#     4  10  21  36  55  82 119 158 192 229 275 336
#
# _framework density 18.433375000000002
#
# number of rings (size 3 to 8) (size 9 to 14) (size 15 to 20)
#    0.000    1.846    3.077    1.615    0.000    2.769 
#    0.000    0.385    0.000    0.000    0.000    2.154 
#    0.000    0.000    0.000    0.000    0.000    0.000 
#
# Total GULP energy -289838.732465 kJ/mol
# GULP energy per Si atom -5573.821778 kJ/mol
# Density = 1.839142 g / cm^3
# Si number density = 18.433375 Si / 1000 Ang^3
#
#
#
# Elastic Constant Matrix: (Units=GPa)
#
#
# Indices 1 2 3 4 5 6 
#
# 1 39.7151 24.6540 47.7812 0.0000 0.0000 0.0000
# 2 24.6540 49.9397 31.6283 0.0000 0.0000 0.0000
# 3 47.7812 31.6283 144.2740 0.0000 0.0000 0.0000
# 4 0.0000 0.0000 0.0000 24.9852 0.0000 0.0000
# 5 0.0000 0.0000 0.0000 0.0000 31.9414 0.0000
# 6 0.0000 0.0000 0.0000 0.0000 0.0000 28.6503
#
#
#
# Elastic Compliance Matrix: (Units=1/GPa)
#
#
# Indices 1 2 3 4 5 6 
#
# 1 0.052041 -0.017158 -0.013474 0.000000 0.000000 0.000000
# 2 -0.017158 0.028910 -0.000655 0.000000 0.000000 0.000000
# 3 -0.013474 -0.000655 0.011537 0.000000 0.000000 0.000000
# 4 0.000000 0.000000 0.000000 0.040024 0.000000 0.000000
# 5 0.000000 0.000000 0.000000 0.000000 0.031307 0.000000
# 6 0.000000 0.000000 0.000000 0.000000 0.000000 0.034904
#
#
# Mechanical properties :
#
#
# Convention : Reuss Voigt Hill
#
# Bulk Modulus (GPa) = 33.42940 49.11732 41.27336
# Shear Modulus (GPa) = 18.43204 25.77306 22.10255
#
# Velocity S-wave (km/s) = 3.16559 3.74327 3.46649
# Velocity P-wave (km/s) = 5.61569 6.73695 6.20171
#
# Compressibility (1/GPa) = 0.02991379
#
# Stress axis : x y z
#
# Youngs Moduli (GPa) = 19.21578 34.59057 86.67669
#
# Poissons Ratio (x) = 0.59350 1.16784
# Poissons Ratio (y) = 0.32970 0.05679
# Poissons Ratio (z) = 0.25891 0.02266
#
# Static dielectric constant tensor:
#      x y z
#    x 1.612020 0.000000 0.000000 
#    y 0.000000 1.626300 0.000000 
#    z 0.000000 0.000000 1.710700 
# 
# From -- ./inp_files/54524.got.cif
#   From: 2010.05.17/outbox.cif.g08.bks.cpg/sg63_28_cif.got.tgz:54524.got - 2010.06.03 15:47:04.
