data_PCOD9470995
_publ_section_title
;
Structure prediction by ZEFSAII (Michael W. Deem and Ramdas Pophale) SiO2 
 PCOD9470995
Probable space group: C M C M
;
_chemical_formula_sum "Si O2"
_cell_formula_units_Z 104
_cell_length_a 18.002663
_cell_length_b 13.324752
_cell_length_c 20.694719
_cell_angle_alpha 90.000000
_cell_angle_beta 90.000000
_cell_angle_gamma 90.000000
_cell_volume 4964.270298
_symmetry_space_group_name_H-M "C M C M"
_symmetry_group_IT_number 63
_symmetry_cell_setting 'orthorhombic'
loop_
_space_group_symop_operation_xyz
x,y,z
-x,-y,1/2+z
x,-y,-z
-x,y,1/2-z
-x,-y,-z
x,y,1/2-z
-x,y,z
x,-y,1/2+z
1/2+x,1/2+y,z
1/2-x,1/2-y,1/2+z
1/2+x,1/2-y,-z
1/2-x,1/2+y,1/2-z
1/2-x,1/2-y,-z
1/2+x,1/2+y,1/2-z
1/2-x,1/2+y,z
1/2+x,1/2-y,1/2+z
loop_
_atom_site_type_symbol
_atom_site_label
_atom_site_fract_x
_atom_site_fract_y
_atom_site_fract_z
Si Si1 0.417218 0.061777 0.860421
Si Si2 0.084994 0.921821 0.174869
Si Si3 0.585082 0.762156 0.467727
Si Si4 0.328053 0.400955 0.886405
Si Si5 0.162145 0.766373 0.250000
Si Si6 0.799012 0.593215 0.750000
Si Si7 0.772357 0.881872 0.750000
Si Si8 0.663861 0.086401 0.445246
O O1 0.500000 0.056803 0.832184
O O2 0.417754 0.148972 0.914372
O O3 0.352339 0.087587 0.811044
O O4 0.395068 0.957462 0.894340
O O5 0.083805 0.962565 0.250000
O O6 0.119969 0.812023 0.188238
O O7 0.000000 0.916776 0.153301
O O8 0.133183 0.992128 0.128624
O O9 0.500000 0.742111 0.488083
O O10 0.622086 0.666787 0.433145
O O11 0.635421 0.809768 0.524193
O O12 0.315967 0.354471 0.815000
O O13 0.245462 0.408115 0.914902
O O14 0.244849 0.812544 0.250000
O O15 0.185435 0.652444 0.250000
O O16 0.740808 0.501715 0.750000
O O17 0.667412 0.000000 0.500000
#
# Coordination Sequence:
#
# PCOD9470995 Si02
#       8
#    16  16  16  16   8   8   8  16
#     4  10  20  36  57  81 117 156 187 233 300 358
#     4   9  18  36  58  79 114 154 185 228 287 347
#     4  10  22  37  57  86 115 153 200 246 293 350
#     4  12  20  37  60  90 115 148 198 251 297 345
#     4  10  19  34  53  78 120 152 186 220 279 359
#     4  12  19  37  53  91 123 146 189 243 298 351
#     4  12  22  33  60  91 117 152 189 239 301 360
#     4  10  21  38  60  80 112 158 199 239 294 348
#
# _framework density 20.949705000000002
#
# number of rings (size 3 to 8) (size 9 to 14) (size 15 to 20)
#    0.462    1.077    3.846    2.538    0.000    3.077 
#    0.000    2.308    0.000    3.692    0.000    0.000 
#    0.000    0.000    0.000    0.000    0.000    0.000 
#
# Total GULP energy -290159.032065 kJ/mol
# GULP energy per Si atom -5579.981386 kJ/mol
# Density = 2.090202 g / cm^3
# Si number density = 20.949705 Si / 1000 Ang^3
#
#
#
# Elastic Constant Matrix: (Units=GPa)
#
#
# Indices 1 2 3 4 5 6 
#
# 1 120.0014 -10.0726 11.5639 0.0000 0.0000 0.0000
# 2 -10.0726 16.6688 -18.5707 0.0000 0.0000 0.0000
# 3 11.5639 -18.5707 33.8046 0.0000 0.0000 0.0000
# 4 0.0000 0.0000 0.0000 8.7588 0.0000 0.0000
# 5 0.0000 0.0000 0.0000 0.0000 -442.1004 0.0000
# 6 0.0000 0.0000 0.0000 0.0000 0.0000 24.6411
#
#
#
# Elastic Compliance Matrix: (Units=1/GPa)
#
#
# Indices 1 2 3 4 5 6 
#
# 1 0.008779 0.005050 -0.000229 0.000000 0.000000 0.000000
# 2 0.005050 0.157538 0.084817 0.000000 0.000000 0.000000
# 3 -0.000229 0.084817 0.076255 0.000000 0.000000 0.000000
# 4 0.000000 0.000000 0.000000 0.114171 0.000000 0.000000
# 5 0.000000 0.000000 0.000000 0.000000 -0.002262 0.000000
# 6 0.000000 0.000000 0.000000 0.000000 0.000000 0.040583
#
#
# Mechanical properties :
#
#
# Convention : Reuss Voigt Hill
#
# Bulk Modulus (GPa) = 2.37052 15.14621 8.75836
# Shear Modulus (GPa) = 14.02900 -69.23649 -27.60375
#
# Velocity S-wave (km/s) = 2.59057 -5.75505 -3.63384
# Velocity P-wave (km/s) = 3.17523 6.07580 3.66288
#
# Compressibility (1/GPa) = 0.42184897
#
# Stress axis : x y z
#
# Youngs Moduli (GPa) = 113.90584 6.34766 13.11391
#
# Poissons Ratio (x) = -0.03206 0.00300
# Poissons Ratio (y) = -0.57523 -1.11228
# Poissons Ratio (z) = 0.02608 -0.53839
#
# Static dielectric constant tensor:
#      x y z
#    x 1.747420 0.000000 0.000000 
#    y 0.000000 1.765730 0.000000 
#    z 0.000000 0.000000 1.787430 
# 
# From -- ./inp_files/55673.got.cif
#   From: 2010.05.17/outbox.cif.g08.bks.cpg/sg63_28_cif.got.tgz:55673.got - 2010.06.03 15:47:04.
