data_PCOD9470397
_publ_section_title
;
Structure prediction by ZEFSAII (Michael W. Deem and Ramdas Pophale) SiO2 
 PCOD9470397
Probable space group: C M C M
;
_chemical_formula_sum "Si O2"
_cell_formula_units_Z 88
_cell_length_a 19.139563
_cell_length_b 29.021328
_cell_length_c 7.407562
_cell_angle_alpha 90.000000
_cell_angle_beta 90.000000
_cell_angle_gamma 90.000000
_cell_volume 4114.571318
_symmetry_space_group_name_H-M "C M C M"
_symmetry_group_IT_number 63
_symmetry_cell_setting 'orthorhombic'
loop_
_space_group_symop_operation_xyz
x,y,z
-x,-y,1/2+z
x,-y,-z
-x,y,1/2-z
-x,-y,-z
x,y,1/2-z
-x,y,z
x,-y,1/2+z
1/2+x,1/2+y,z
1/2-x,1/2-y,1/2+z
1/2+x,1/2-y,-z
1/2-x,1/2+y,1/2-z
1/2-x,1/2-y,-z
1/2+x,1/2+y,1/2-z
1/2-x,1/2+y,z
1/2+x,1/2-y,1/2+z
loop_
_atom_site_type_symbol
_atom_site_label
_atom_site_fract_x
_atom_site_fract_y
_atom_site_fract_z
Si Si1 0.317809 0.280930 0.034995
Si Si2 0.500000 0.054355 0.966276
Si Si3 0.922580 0.054149 0.965626
Si Si4 0.080053 0.703806 0.468961
Si Si5 0.292873 0.614996 0.527898
Si Si6 0.138545 0.604349 0.959355
O O1 0.326659 0.285235 0.250000
O O2 0.382872 0.250623 0.968309
O O3 0.306424 0.332527 0.967317
O O4 0.250000 0.250000 0.000000
O O5 0.500000 0.062460 0.750000
O O6 0.571235 0.077892 0.037829
O O7 0.500000 0.000000 0.000000
O O8 0.924407 0.060795 0.750000
O O9 0.857092 0.083390 0.032089
O O10 0.000000 0.067043 0.035331
O O11 0.912648 0.000000 0.000000
O O12 0.081352 0.703175 0.250000
O O13 0.121575 0.658714 0.531206
O O14 0.000000 0.700400 0.527547
O O15 0.290865 0.615030 0.750000
O O16 0.216482 0.598032 0.465707
O O17 0.142333 0.590216 0.750000
#
# Coordination Sequence:
#
# PCOD9470397 Si02
#       6
#    16   8  16  16  16  16
#     4  10  19  32  51  75 104 138 172 209 252 299
#     4  10  22  36  52  74 100 134 174 220 265 310
#     4   9  18  34  55  77 102 134 170 210 261 313
#     4  10  20  32  49  76 106 135 171 213 255 300
#     4   9  18  32  53  78 104 134 171 214 254 305
#     4  10  19  34  54  74  98 135 179 213 253 312
#
# _framework density 21.387405999999999
#
# number of rings (size 3 to 8) (size 9 to 14) (size 15 to 20)
#    0.000    2.364    2.727    0.000    0.000    2.182 
#    0.000    5.455    0.000    0.000    0.000    2.545 
#    0.000    0.000    0.000    0.000    0.000    0.000 
#
# Total GULP energy -245662.251830 kJ/mol
# GULP energy per Si atom -5583.232996 kJ/mol
# Density = 2.133873 g / cm^3
# Si number density = 21.387406 Si / 1000 Ang^3
#
#
#
# Elastic Constant Matrix: (Units=GPa)
#
#
# Indices 1 2 3 4 5 6 
#
# 1 230.5366 106.2590 4.3323 0.0000 0.0000 0.0000
# 2 106.2590 117.9970 -4.0554 0.0000 0.0000 0.0000
# 3 4.3323 -4.0554 70.1367 0.0000 0.0000 0.0000
# 4 0.0000 0.0000 0.0000 18.5055 0.0000 0.0000
# 5 0.0000 0.0000 0.0000 0.0000 -4.7409 0.0000
# 6 0.0000 0.0000 0.0000 0.0000 0.0000 57.6847
#
#
#
# Elastic Compliance Matrix: (Units=1/GPa)
#
#
# Indices 1 2 3 4 5 6 
#
# 1 0.007466 -0.006753 -0.000852 0.000000 0.000000 0.000000
# 2 -0.006753 0.014599 0.001261 0.000000 0.000000 0.000000
# 3 -0.000852 0.001261 0.014383 0.000000 0.000000 0.000000
# 4 0.000000 0.000000 0.000000 0.054038 0.000000 0.000000
# 5 0.000000 0.000000 0.000000 0.000000 -0.210932 0.000000
# 6 0.000000 0.000000 0.000000 0.000000 0.000000 0.017336
#
#
# Mechanical properties :
#
#
# Convention : Reuss Voigt Hill
#
# Bulk Modulus (GPa) = 42.08315 70.19356 56.13836
# Shear Modulus (GPa) = -60.60410 35.09882 -12.75264
#
# Velocity S-wave (km/s) = -5.32896 4.05544 -2.44451
# Velocity P-wave (km/s) = 4.25964 7.40406 4.28227
#
# Compressibility (1/GPa) = 0.02376248
#
# Stress axis : x y z
#
# Youngs Moduli (GPa) = 133.93720 68.49720 69.52461
#
# Poissons Ratio (x) = 0.46254 0.05921
# Poissons Ratio (y) = 0.90444 -0.08769
# Poissons Ratio (z) = 0.11407 -0.08639
#
# Static dielectric constant tensor:
#      x y z
#    x 1.778860 0.000000 0.000000 
#    y 0.000000 1.715580 0.000000 
#    z 0.000000 0.000000 1.811560 
# 
# From -- ./inp_files/6795.got.cif
#   From: 2010.05.17/outbox.cif.g08.bks.cpg/sg63_4_cif.got.tgz:6795.got - 2010.06.03 15:47:04.
