data_PCOD9470040
_publ_section_title
;
Structure prediction by ZEFSAII (Michael W. Deem and Ramdas Pophale) SiO2 
 PCOD9470040
Probable space group: C M C M
;
_chemical_formula_sum "Si O2"
_cell_formula_units_Z 96
_cell_length_a 7.784864
_cell_length_b 29.168870
_cell_length_c 23.450424
_cell_angle_alpha 90.000000
_cell_angle_beta 90.000000
_cell_angle_gamma 90.000000
_cell_volume 5325.021116
_symmetry_space_group_name_H-M "C M C M"
_symmetry_group_IT_number 63
_symmetry_cell_setting 'orthorhombic'
loop_
_space_group_symop_operation_xyz
x,y,z
-x,-y,1/2+z
x,-y,-z
-x,y,1/2-z
-x,-y,-z
x,y,1/2-z
-x,y,z
x,-y,1/2+z
1/2+x,1/2+y,z
1/2-x,1/2-y,1/2+z
1/2+x,1/2-y,-z
1/2-x,1/2+y,1/2-z
1/2-x,1/2-y,-z
1/2+x,1/2+y,1/2-z
1/2-x,1/2+y,z
1/2+x,1/2-y,1/2+z
loop_
_atom_site_type_symbol
_atom_site_label
_atom_site_fract_x
_atom_site_fract_y
_atom_site_fract_z
Si Si1 0.294867 0.302579 0.011991
Si Si2 0.000000 0.752743 0.181187
Si Si3 0.298345 0.050874 0.997357
Si Si4 0.799420 0.185554 0.182074
Si Si5 0.794480 0.123902 0.083201
Si Si6 0.500000 0.359669 0.181778
Si Si7 0.799481 0.377180 0.401109
O O1 0.500000 0.305872 0.017945
O O2 0.215008 0.327993 0.066726
O O3 0.250000 0.250000 0.000000
O O4 0.241419 0.334255 0.958338
O O5 0.829326 0.725656 0.163013
O O6 0.000000 0.805610 0.166360
O O7 0.000000 0.751145 0.250000
O O8 0.500000 0.046069 0.984968
O O9 0.279640 0.077777 0.056808
O O10 0.235365 0.085346 0.947920
O O11 0.221754 0.000000 0.000000
O O12 0.783368 0.179239 0.250000
O O13 0.751798 0.140188 0.146680
O O14 0.000000 0.196472 0.169658
O O15 0.000000 0.119542 0.079472
O O16 0.500000 0.364963 0.250000
O O17 0.328532 0.378884 0.152080
O O18 0.000000 0.384817 0.387066
#
# Coordination Sequence:
#
# PCOD9470040 Si02
#       7
#    16   8  16  16  16   8  16
#     4  10  19  31  48  75 111 146 181 225 275 326
#     4   9  20  34  50  73 100 146 190 218 261 304
#     4   9  19  36  58  84 109 135 174 225 279 338
#     4   9  18  33  51  73 106 143 182 225 260 308
#     4   9  19  31  47  76 105 138 178 211 265 326
#     4  11  24  40  57  81 113 148 196 238 264 320
#     4  10  21  38  57  81 112 144 183 231 285 334
#
# _framework density 18.028098
#
# number of rings (size 3 to 8) (size 9 to 14) (size 15 to 20)
#    0.000    2.500    0.833    0.500    4.667    2.000 
#    0.000    1.667    0.000    1.000    0.000    2.333 
#    0.000    0.000    0.000    0.000    0.000    0.000 
#
# Total GULP energy -267617.192246 kJ/mol
# GULP energy per Si atom -5575.358172 kJ/mol
# Density = 1.798707 g / cm^3
# Si number density = 18.028098 Si / 1000 Ang^3
#
#
#
# Elastic Constant Matrix: (Units=GPa)
#
#
# Indices 1 2 3 4 5 6 
#
# 1 73.9585 24.2092 41.4639 0.0000 0.0000 0.0000
# 2 24.2092 110.0957 26.2158 0.0000 0.0000 0.0000
# 3 41.4639 26.2158 70.6428 0.0000 0.0000 0.0000
# 4 0.0000 0.0000 0.0000 13.8418 0.0000 0.0000
# 5 0.0000 0.0000 0.0000 0.0000 17.5244 0.0000
# 6 0.0000 0.0000 0.0000 0.0000 0.0000 12.7104
#
#
#
# Elastic Compliance Matrix: (Units=1/GPa)
#
#
# Indices 1 2 3 4 5 6 
#
# 1 0.020473 -0.001799 -0.011349 0.000000 0.000000 0.000000
# 2 -0.001799 0.010122 -0.002700 0.000000 0.000000 0.000000
# 3 -0.011349 -0.002700 0.021819 0.000000 0.000000 0.000000
# 4 0.000000 0.000000 0.000000 0.072245 0.000000 0.000000
# 5 0.000000 0.000000 0.000000 0.000000 0.057063 0.000000
# 6 0.000000 0.000000 0.000000 0.000000 0.000000 0.078676
#
#
# Mechanical properties :
#
#
# Convention : Reuss Voigt Hill
#
# Bulk Modulus (GPa) = 48.26984 48.71942 48.49463
# Shear Modulus (GPa) = 16.72246 19.66918 18.19582
#
# Velocity S-wave (km/s) = 3.04892 3.30666 3.18040
# Velocity P-wave (km/s) = 6.26318 6.45457 6.35960
#
# Compressibility (1/GPa) = 0.02071687
#
# Stress axis : x y z
#
# Youngs Moduli (GPa) = 48.84578 98.79857 45.83202
#
# Poissons Ratio (x) = 0.17778 0.52013
# Poissons Ratio (y) = 0.08790 0.12375
# Poissons Ratio (z) = 0.55433 0.26675
#
# Static dielectric constant tensor:
#      x y z
#    x 1.644480 0.000000 0.000000 
#    y 0.000000 1.625390 0.000000 
#    z 0.000000 0.000000 1.630330 
# 
# From -- ./inp_files/60340.got.cif
#   From: 2010.05.17/outbox.cif.g08.bks.cpg/sg63_31_cif.got.tgz:60340.got - 2010.06.03 15:47:04.
