data_PCOD9470413
_publ_section_title
;
Structure prediction by ZEFSAII (Michael W. Deem and Ramdas Pophale) SiO2 
 PCOD9470413
Probable space group: C M C M
;
_chemical_formula_sum "Si O2"
_cell_formula_units_Z 72
_cell_length_a 23.089843
_cell_length_b 16.785993
_cell_length_c 9.944030
_cell_angle_alpha 90.000000
_cell_angle_beta 90.000000
_cell_angle_gamma 90.000000
_cell_volume 3854.166244
_symmetry_space_group_name_H-M "C M C M"
_symmetry_group_IT_number 63
_symmetry_cell_setting 'orthorhombic'
loop_
_space_group_symop_operation_xyz
x,y,z
-x,-y,1/2+z
x,-y,-z
-x,y,1/2-z
-x,-y,-z
x,y,1/2-z
-x,y,z
x,-y,1/2+z
1/2+x,1/2+y,z
1/2-x,1/2-y,1/2+z
1/2+x,1/2-y,-z
1/2-x,1/2+y,1/2-z
1/2-x,1/2-y,-z
1/2+x,1/2+y,1/2-z
1/2-x,1/2+y,z
1/2+x,1/2-y,1/2+z
loop_
_atom_site_type_symbol
_atom_site_label
_atom_site_fract_x
_atom_site_fract_y
_atom_site_fract_z
Si Si1 0.334293 0.406951 0.029180
Si Si2 0.226946 0.807992 0.250000
Si Si3 0.165706 0.189066 0.250000
Si Si4 0.115081 0.302338 0.750000
Si Si5 0.935861 0.690649 0.750000
Si Si6 0.932205 0.409338 0.980442
Si Si7 0.567959 0.368906 0.250000
O O1 0.285451 0.364404 0.121597
O O2 0.393611 0.395937 0.119202
O O3 0.325119 0.500000 0.000000
O O4 0.333368 0.362718 0.885934
O O5 0.285330 0.757857 0.250000
O O6 0.176614 0.741010 0.250000
O O7 0.106809 0.237112 0.250000
O O8 0.104497 0.358303 0.623242
O O9 0.071045 0.227503 0.750000
O O10 0.929048 0.635335 0.621107
O O11 0.000000 0.724206 0.750000
O O12 0.000000 0.411173 0.935783
O O13 0.913061 0.500000 0.000000
O O14 0.500000 0.393692 0.250000
#
# Coordination Sequence:
#
# PCOD9470413 Si02
#       7
#    16   8   8   8   8  16   8
#     4  10  22  41  62  86 120 158 196 246 305 356
#     4  10  23  41  60  85 115 155 202 247 295 353
#     4  12  22  39  64  87 115 152 201 249 294 356
#     4  10  19  35  54  74 107 151 194 232 285 349
#     4  10  21  35  53  81 111 140 181 233 288 345
#     4  10  19  32  51  77 111 147 183 229 285 344
#     4  10  21  38  61  89 120 158 202 247 304 369
#
# _framework density 18.681083000000001
#
# number of rings (size 3 to 8) (size 9 to 14) (size 15 to 20)
#    0.000    2.000    0.000    6.333    0.000    4.889 
#    0.000    7.778    0.000    0.000    0.000    0.000 
#    0.000    0.000    0.000    0.000    0.000    0.000 
#
# Total GULP energy -200891.743096 kJ/mol
# GULP energy per Si atom -5580.326197 kJ/mol
# Density = 1.863856 g / cm^3
# Si number density = 18.681083 Si / 1000 Ang^3
#
#
#
# Elastic Constant Matrix: (Units=GPa)
#
#
# Indices 1 2 3 4 5 6 
#
# 1 59.7332 67.5819 79.2181 0.0000 0.0000 0.0000
# 2 67.5819 183.5078 82.1812 0.0000 0.0000 0.0000
# 3 79.2181 82.1812 147.9348 0.0000 0.0000 0.0000
# 4 0.0000 0.0000 0.0000 54.8288 0.0000 0.0000
# 5 0.0000 0.0000 0.0000 0.0000 5.0841 0.0000
# 6 0.0000 0.0000 0.0000 0.0000 0.0000 13.6193
#
#
#
# Elastic Compliance Matrix: (Units=1/GPa)
#
#
# Indices 1 2 3 4 5 6 
#
# 1 0.075295 -0.012876 -0.033167 0.000000 0.000000 0.000000
# 2 -0.012876 0.009456 0.001642 0.000000 0.000000 0.000000
# 3 -0.033167 0.001642 0.023608 0.000000 0.000000 0.000000
# 4 0.000000 0.000000 0.000000 0.018239 0.000000 0.000000
# 5 0.000000 0.000000 0.000000 0.000000 0.196691 0.000000
# 6 0.000000 0.000000 0.000000 0.000000 0.000000 0.073425
#
#
# Mechanical properties :
#
#
# Convention : Reuss Voigt Hill
#
# Bulk Modulus (GPa) = 51.13213 94.34868 72.74041
# Shear Modulus (GPa) = 10.16185 25.51941 17.84063
#
# Velocity S-wave (km/s) = 2.33484 3.70003 3.09368
# Velocity P-wave (km/s) = 5.89059 8.29869 7.19609
#
# Compressibility (1/GPa) = 0.01955718
#
# Stress axis : x y z
#
# Youngs Moduli (GPa) = 13.28101 105.75291 42.35798
#
# Poissons Ratio (x) = 1.36170 1.40489
# Poissons Ratio (y) = 0.17101 -0.06956
# Poissons Ratio (z) = 0.44049 -0.17366
#
# Static dielectric constant tensor:
#      x y z
#    x 1.665300 0.000000 0.000000 
#    y 0.000000 1.555900 0.000000 
#    z 0.000000 0.000000 1.625790 
# 
# From -- ./inp_files/11809.got.cif
#   From: 2010.05.17/outbox.cif.g08.bks.cpg/sg63_6_cif.got.tgz:11809.got - 2010.06.03 15:47:04.
