data_PCOD9470505
_publ_section_title
;
Structure prediction by ZEFSAII (Michael W. Deem and Ramdas Pophale) SiO2 
 PCOD9470505
Probable space group: C M C M
;
_chemical_formula_sum "Si O2"
_cell_formula_units_Z 112
_cell_length_a 19.017082
_cell_length_b 10.721047
_cell_length_c 24.065773
_cell_angle_alpha 90.000000
_cell_angle_beta 90.000000
_cell_angle_gamma 90.000000
_cell_volume 4906.602717
_symmetry_space_group_name_H-M "C M C M"
_symmetry_group_IT_number 63
_symmetry_cell_setting 'orthorhombic'
loop_
_space_group_symop_operation_xyz
x,y,z
-x,-y,1/2+z
x,-y,-z
-x,y,1/2-z
-x,-y,-z
x,y,1/2-z
-x,y,z
x,-y,1/2+z
1/2+x,1/2+y,z
1/2-x,1/2-y,1/2+z
1/2+x,1/2-y,-z
1/2-x,1/2+y,1/2-z
1/2-x,1/2-y,-z
1/2+x,1/2+y,1/2-z
1/2-x,1/2+y,z
1/2+x,1/2-y,1/2+z
loop_
_atom_site_type_symbol
_atom_site_label
_atom_site_fract_x
_atom_site_fract_y
_atom_site_fract_z
Si Si1 0.285887 0.584292 0.453466
Si Si2 0.079296 0.230540 0.496844
Si Si3 0.723425 0.776197 0.852032
Si Si4 0.419772 0.357867 0.812692
Si Si5 0.797428 0.983031 0.163427
Si Si6 0.582046 0.129437 0.614477
Si Si7 0.580771 0.153984 0.119505
O O1 0.247265 0.500000 0.500000
O O2 0.355446 0.640774 0.482360
O O3 0.254677 0.808755 0.583027
O O4 0.305559 0.491057 0.403556
O O5 0.084681 0.337153 0.450082
O O6 0.082276 0.293578 0.556854
O O7 0.000000 0.173998 0.490472
O O8 0.752941 0.895206 0.820261
O O9 0.743677 0.643620 0.827004
O O10 0.639268 0.769952 0.848273
O O11 0.419927 0.308858 0.750000
O O12 0.500000 0.383791 0.829858
O O13 0.373972 0.482521 0.814514
O O14 0.388871 0.250569 0.853140
O O15 0.500000 0.125315 0.631712
O O16 0.608053 0.989421 0.622204
O O17 0.500000 0.160346 0.138541
#
# Coordination Sequence:
#
# PCOD9470505 Si02
#       7
#    16  16  16  16  16  16  16
#     4  10  22  35  56  84 125 174 217 258 316 376
#     4  10  19  32  52  85 126 173 221 263 313 374
#     4  10  24  40  61  86 132 169 220 260 322 382
#     4  10  21  40  71 101 125 160 212 276 338 391
#     4  10  23  41  61  91 128 168 215 264 325 385
#     4   9  17  33  56  88 125 162 203 260 322 378
#     4  10  21  34  57  88 126 173 220 262 310 374
#
# _framework density 22.826384000000001
#
# number of rings (size 3 to 8) (size 9 to 14) (size 15 to 20)
#    0.857    1.286    1.429    1.286    4.000    6.000 
#    0.000    0.714    0.000    0.857    0.000    2.000 
#    0.000    0.000    0.000    0.000    0.000    0.000 
#
# Total GULP energy -312092.603461 kJ/mol
# GULP energy per Si atom -5573.082205 kJ/mol
# Density = 2.277443 g / cm^3
# Si number density = 22.826384 Si / 1000 Ang^3
#
#
#
# Elastic Constant Matrix: (Units=GPa)
#
#
# Indices 1 2 3 4 5 6 
#
# 1 99.6037 32.8293 -0.6322 0.0000 0.0000 0.0000
# 2 32.8293 118.6526 -1.0340 0.0000 0.0000 0.0000
# 3 -0.6322 -1.0340 31.0753 0.0000 0.0000 0.0000
# 4 0.0000 0.0000 0.0000 5.5683 0.0000 0.0000
# 5 0.0000 0.0000 0.0000 0.0000 -4.4723 0.0000
# 6 0.0000 0.0000 0.0000 0.0000 0.0000 30.5723
#
#
#
# Elastic Compliance Matrix: (Units=1/GPa)
#
#
# Indices 1 2 3 4 5 6 
#
# 1 0.011048 -0.003056 0.000123 0.000000 0.000000 0.000000
# 2 -0.003056 0.009276 0.000246 0.000000 0.000000 0.000000
# 3 0.000123 0.000246 0.032191 0.000000 0.000000 0.000000
# 4 0.000000 0.000000 0.000000 0.179589 0.000000 0.000000
# 5 0.000000 0.000000 0.000000 0.000000 -0.223600 0.000000
# 6 0.000000 0.000000 0.000000 0.000000 0.000000 0.032709
#
#
# Mechanical properties :
#
#
# Convention : Reuss Voigt Hill
#
# Bulk Modulus (GPa) = 21.21264 34.62863 27.92064
# Shear Modulus (GPa) = 80.26000 20.87822 50.56911
#
# Velocity S-wave (km/s) = 5.93611 3.02760 4.71189
# Velocity P-wave (km/s) = 7.50309 5.23691 6.46999
#
# Compressibility (1/GPa) = 0.04714170
#
# Stress axis : x y z
#
# Youngs Moduli (GPa) = 90.51653 107.81014 31.06493
#
# Poissons Ratio (x) = 0.32943 -0.00382
# Poissons Ratio (y) = 0.27659 -0.00766
# Poissons Ratio (z) = -0.01114 -0.02657
#
# Static dielectric constant tensor:
#      x y z
#    x 1.908280 0.000000 0.000000 
#    y 0.000000 1.919850 0.000000 
#    z 0.000000 0.000000 1.840450 
# 
# From -- ./inp_files/64617.got.cif
#   From: 2010.05.17/outbox.cif.g08.bks.cpg/sg63_33_cif.got.tgz:64617.got - 2010.06.03 15:47:04.
