data_PCOD9470172
_publ_section_title
;
Structure prediction by ZEFSAII (Michael W. Deem and Ramdas Pophale) SiO2 
 PCOD9470172
Probable space group: C M C M
;
_chemical_formula_sum "Si O2"
_cell_formula_units_Z 96
_cell_length_a 23.203451
_cell_length_b 13.780973
_cell_length_c 14.178361
_cell_angle_alpha 90.000000
_cell_angle_beta 90.000000
_cell_angle_gamma 90.000000
_cell_volume 4533.759651
_symmetry_space_group_name_H-M "C M C M"
_symmetry_group_IT_number 63
_symmetry_cell_setting 'orthorhombic'
loop_
_space_group_symop_operation_xyz
x,y,z
-x,-y,1/2+z
x,-y,-z
-x,y,1/2-z
-x,-y,-z
x,y,1/2-z
-x,y,z
x,-y,1/2+z
1/2+x,1/2+y,z
1/2-x,1/2-y,1/2+z
1/2+x,1/2-y,-z
1/2-x,1/2+y,1/2-z
1/2-x,1/2-y,-z
1/2+x,1/2+y,1/2-z
1/2-x,1/2+y,z
1/2+x,1/2-y,1/2+z
loop_
_atom_site_type_symbol
_atom_site_label
_atom_site_fract_x
_atom_site_fract_y
_atom_site_fract_z
Si Si1 0.251782 0.799956 0.642550
Si Si2 0.374586 0.908264 0.059307
Si Si3 0.064699 0.398768 0.250000
Si Si4 0.066297 0.164627 0.250000
Si Si5 0.232562 0.516530 0.642046
Si Si6 0.127557 0.813600 0.553139
Si Si7 0.342648 0.377437 0.359413
O O1 0.228468 0.794255 0.750000
O O2 0.195892 0.803293 0.576645
O O3 0.298394 0.714644 0.634641
O O4 0.282860 0.903986 0.633575
O O5 0.401091 0.930332 0.159987
O O6 0.305808 0.918158 0.074623
O O7 0.391666 0.798653 0.035364
O O8 0.393733 0.000000 0.000000
O O9 0.064034 0.281876 0.250000
O O10 0.000000 0.435008 0.250000
O O11 0.097784 0.143943 0.351109
O O12 0.000000 0.128344 0.250000
O O13 0.223227 0.548297 0.750000
O O14 0.300292 0.531005 0.626108
O O15 0.118907 0.868049 0.453269
O O16 0.364975 0.379892 0.250000
#
# Coordination Sequence:
#
# PCOD9470172 Si02
#       7
#    16  16   8   8  16  16  16
#     4  10  19  31  50  79 112 151 186 224 266 327
#     4  11  21  32  52  79 103 145 185 223 272 325
#     4   9  20  38  55  72 102 139 186 241 280 311
#     4   9  20  38  63  84 100 133 190 247 284 313
#     4  10  20  32  48  75 116 151 183 213 265 336
#     4  11  20  35  55  78 110 144 182 231 278 316
#     4  10  21  33  48  75 118 158 180 211 268 333
#
# _framework density 21.174479000000002
#
# number of rings (size 3 to 8) (size 9 to 14) (size 15 to 20)
#    0.000    1.833    3.333    1.500    2.333    0.333 
#    1.500    0.000    0.000    0.500    0.000    2.333 
#    0.000    0.000    0.000    0.167    0.000    0.000 
#
# Total GULP energy -267753.181908 kJ/mol
# GULP energy per Si atom -5578.191290 kJ/mol
# Density = 2.112629 g / cm^3
# Si number density = 21.174479 Si / 1000 Ang^3
#
#
#
# Elastic Constant Matrix: (Units=GPa)
#
#
# Indices 1 2 3 4 5 6 
#
# 1 42.4826 -9.7861 30.5870 0.0000 0.0000 0.0000
# 2 -9.7861 46.6032 -4.7584 0.0000 0.0000 0.0000
# 3 30.5870 -4.7584 167.9627 0.0000 0.0000 0.0000
# 4 0.0000 0.0000 0.0000 25.9225 0.0000 0.0000
# 5 0.0000 0.0000 0.0000 0.0000 -10.5446 0.0000
# 6 0.0000 0.0000 0.0000 0.0000 0.0000 6.4669
#
#
#
# Elastic Compliance Matrix: (Units=1/GPa)
#
#
# Indices 1 2 3 4 5 6 
#
# 1 0.028409 0.005453 -0.005019 0.000000 0.000000 0.000000
# 2 0.005453 0.022567 -0.000354 0.000000 0.000000 0.000000
# 3 -0.005019 -0.000354 0.006858 0.000000 0.000000 0.000000
# 4 0.000000 0.000000 0.000000 0.038577 0.000000 0.000000
# 5 0.000000 0.000000 0.000000 0.000000 -0.094835 0.000000
# 6 0.000000 0.000000 0.000000 0.000000 0.000000 0.154633
#
#
# Mechanical properties :
#
#
# Convention : Reuss Voigt Hill
#
# Bulk Modulus (GPa) = 17.24317 32.12594 24.68456
# Shear Modulus (GPa) = 28.50988 20.43603 24.47296
#
# Velocity S-wave (km/s) = 3.67335 3.11002 3.40336
# Velocity P-wave (km/s) = 5.11394 5.30106 5.20834
#
# Compressibility (1/GPa) = 0.05799396
#
# Stress axis : x y z
#
# Youngs Moduli (GPa) = 35.20038 44.31307 145.82238
#
# Poissons Ratio (x) = -0.24164 0.73187
# Poissons Ratio (y) = -0.19195 0.05158
# Poissons Ratio (z) = 0.17667 0.01567
#
# Static dielectric constant tensor:
#      x y z
#    x 1.776330 0.000000 0.000000 
#    y 0.000000 1.798130 0.000000 
#    z 0.000000 0.000000 1.832750 
# 
# From -- ./inp_files/37877.got.cif
#   From: 2010.05.17/outbox.cif.g08.bks.cpg/sg63_19_cif.got.tgz:37877.got - 2010.06.03 15:47:04.
