data_PCOD9470875
_publ_section_title
;
Structure prediction by ZEFSAII (Michael W. Deem and Ramdas Pophale) SiO2 
 PCOD9470875
Probable space group: C M C M
;
_chemical_formula_sum "Si O2"
_cell_formula_units_Z 112
_cell_length_a 23.808509
_cell_length_b 15.978141
_cell_length_c 15.152221
_cell_angle_alpha 90.000000
_cell_angle_beta 90.000000
_cell_angle_gamma 90.000000
_cell_volume 5764.142967
_symmetry_space_group_name_H-M "C M C M"
_symmetry_group_IT_number 63
_symmetry_cell_setting 'orthorhombic'
loop_
_space_group_symop_operation_xyz
x,y,z
-x,-y,1/2+z
x,-y,-z
-x,y,1/2-z
-x,-y,-z
x,y,1/2-z
-x,y,z
x,-y,1/2+z
1/2+x,1/2+y,z
1/2-x,1/2-y,1/2+z
1/2+x,1/2-y,-z
1/2-x,1/2+y,1/2-z
1/2-x,1/2-y,-z
1/2+x,1/2+y,1/2-z
1/2-x,1/2+y,z
1/2+x,1/2-y,1/2+z
loop_
_atom_site_type_symbol
_atom_site_label
_atom_site_fract_x
_atom_site_fract_y
_atom_site_fract_z
Si Si1 0.344391 0.096934 0.020839
Si Si2 0.063944 0.141525 0.584840
Si Si3 0.831876 0.290853 0.151344
Si Si4 0.936416 0.822933 0.879165
Si Si5 0.762486 0.121244 0.145150
Si Si6 0.368721 0.489037 0.850758
Si Si7 0.566927 0.821775 0.849424
O O1 0.291313 0.108949 0.085239
O O2 0.397071 0.134539 0.074652
O O3 0.332285 0.144941 0.929119
O O4 0.353426 0.000000 0.000000
O O5 0.064811 0.174625 0.485232
O O6 0.077198 0.221870 0.644135
O O7 0.000000 0.112328 0.604685
O O8 0.107179 0.066059 0.594733
O O9 0.820568 0.325363 0.250000
O O10 0.892662 0.246014 0.152311
O O11 0.788839 0.214048 0.134354
O O12 0.913741 0.913710 0.851062
O O13 0.000000 0.808668 0.850969
O O14 0.751071 0.111066 0.250000
O O15 0.810795 0.054143 0.119995
O O16 0.361529 0.517977 0.750000
O O17 0.581396 0.850592 0.750000
O O18 0.500000 0.833550 0.862812
#
# Coordination Sequence:
#
# PCOD9470875 Si02
#       7
#    16  16  16  16  16  16  16
#     4  12  25  42  67  91 119 158 205 261 317 364
#     4  10  19  33  57  89 127 166 206 247 294 361
#     4  10  22  41  63  89 123 162 206 255 306 366
#     4  10  19  33  55  85 124 166 204 247 301 364
#     4   9  21  42  63  88 124 163 206 252 301 365
#     4  10  20  33  53  88 130 166 204 246 293 360
#     4  10  22  42  66  92 124 161 204 257 312 367
#
# _framework density 19.430468000000001
#
# number of rings (size 3 to 8) (size 9 to 14) (size 15 to 20)
#    0.000    1.857    1.429    3.429    0.000    7.429 
#    2.571    0.000    0.000    0.000    0.000    0.000 
#    0.000    0.000    0.000    0.000    0.000    0.000 
#
# Total GULP energy -312804.504754 kJ/mol
# GULP energy per Si atom -5585.794728 kJ/mol
# Density = 1.938624 g / cm^3
# Si number density = 19.430468 Si / 1000 Ang^3
#
#
#
# Elastic Constant Matrix: (Units=GPa)
#
#
# Indices 1 2 3 4 5 6 
#
# 1 75.6662 48.1999 40.2531 0.0000 0.0000 0.0000
# 2 48.1999 98.9382 64.2157 0.0000 0.0000 0.0000
# 3 40.2531 64.2157 120.7233 0.0000 0.0000 0.0000
# 4 0.0000 0.0000 0.0000 9.3118 0.0000 0.0000
# 5 0.0000 0.0000 0.0000 0.0000 8.1955 0.0000
# 6 0.0000 0.0000 0.0000 0.0000 0.0000 11.2069
#
#
#
# Elastic Compliance Matrix: (Units=1/GPa)
#
#
# Indices 1 2 3 4 5 6 
#
# 1 0.019544 -0.008082 -0.002218 0.000000 0.000000 0.000000
# 2 -0.008082 0.018779 -0.007294 0.000000 0.000000 0.000000
# 3 -0.002218 -0.007294 0.012903 0.000000 0.000000 0.000000
# 4 0.000000 0.000000 0.000000 0.107390 0.000000 0.000000
# 5 0.000000 0.000000 0.000000 0.000000 0.122018 0.000000
# 6 0.000000 0.000000 0.000000 0.000000 0.000000 0.089231
#
#
# Mechanical properties :
#
#
# Convention : Reuss Voigt Hill
#
# Bulk Modulus (GPa) = 62.35122 66.74056 64.54589
# Shear Modulus (GPa) = 12.18328 15.25343 13.71836
#
# Velocity S-wave (km/s) = 2.50675 2.80487 2.65999
# Velocity P-wave (km/s) = 6.36690 6.70170 6.53644
#
# Compressibility (1/GPa) = 0.01603818
#
# Stress axis : x y z
#
# Youngs Moduli (GPa) = 51.16686 53.25136 77.50261
#
# Poissons Ratio (x) = 0.43037 0.17187
# Poissons Ratio (y) = 0.41352 0.56532
# Poissons Ratio (z) = 0.11347 0.38843
#
# Static dielectric constant tensor:
#      x y z
#    x 1.667950 0.000000 0.000000 
#    y 0.000000 1.641510 0.000000 
#    z 0.000000 0.000000 1.715750 
# 
# From -- ./inp_files/36929.got.cif
#   From: 2010.05.17/outbox.cif.g08.bks.cpg/sg63_19_cif.got.tgz:36929.got - 2010.06.03 15:47:04.
