data_PCOD9470968
_publ_section_title
;
Structure prediction by ZEFSAII (Michael W. Deem and Ramdas Pophale) SiO2 
 PCOD9470968
Probable space group: C M C M
;
_chemical_formula_sum "Si O2"
_cell_formula_units_Z 96
_cell_length_a 12.739455
_cell_length_b 15.349273
_cell_length_c 26.737675
_cell_angle_alpha 90.000000
_cell_angle_beta 90.000000
_cell_angle_gamma 90.000000
_cell_volume 5228.321671
_symmetry_space_group_name_H-M "C M C M"
_symmetry_group_IT_number 63
_symmetry_cell_setting 'orthorhombic'
loop_
_space_group_symop_operation_xyz
x,y,z
-x,-y,1/2+z
x,-y,-z
-x,y,1/2-z
-x,-y,-z
x,y,1/2-z
-x,y,z
x,-y,1/2+z
1/2+x,1/2+y,z
1/2-x,1/2-y,1/2+z
1/2+x,1/2-y,-z
1/2-x,1/2+y,1/2-z
1/2-x,1/2-y,-z
1/2+x,1/2+y,1/2-z
1/2-x,1/2+y,z
1/2+x,1/2-y,1/2+z
loop_
_atom_site_type_symbol
_atom_site_label
_atom_site_fract_x
_atom_site_fract_y
_atom_site_fract_z
Si Si1 0.876530 0.278826 0.647046
Si Si2 0.764712 0.345979 0.551205
Si Si3 0.379582 0.498285 0.939237
Si Si4 0.747111 0.385789 0.132039
Si Si5 0.377762 0.030005 0.190423
Si Si6 0.122918 0.682359 0.543160
O O1 0.843847 0.301035 0.589809
O O2 0.805527 0.195402 0.661039
O O3 0.855549 0.368985 0.676384
O O4 0.000000 0.259185 0.651234
O O5 0.703907 0.425145 0.575937
O O6 0.826328 0.373431 0.501553
O O7 0.674188 0.277485 0.536643
O O8 0.500000 0.478482 0.926259
O O9 0.340591 0.581443 0.908068
O O10 0.374993 0.500000 0.000000
O O11 0.796763 0.462677 0.165077
O O12 0.840524 0.351235 0.096745
O O13 0.373017 0.020127 0.250000
O O14 0.500000 0.013411 0.174376
O O15 0.000000 0.685192 0.538289
#
# Coordination Sequence:
#
# PCOD9470968 Si02
#       6
#    16  16  16  16  16  16
#     4  10  21  37  60  87 116 151 193 239 286 342
#     4  10  19  34  51  78 113 156 194 227 282 336
#     4  11  21  34  52  80 119 159 195 231 281 341
#     4  11  21  37  58  86 115 152 198 236 287 340
#     4  10  22  41  64  87 113 147 188 241 304 357
#     4  10  20  32  50  78 113 149 192 238 275 329
#
# _framework density 18.361533000000001
#
# number of rings (size 3 to 8) (size 9 to 14) (size 15 to 20)
#    0.000    1.667    3.333    2.000    0.000    0.667 
#    0.000    0.833    0.000    1.500    0.000    0.000 
#    0.000    0.000    0.000    0.000    0.000    0.000 
#
# Total GULP energy -267647.210276 kJ/mol
# GULP energy per Si atom -5575.983547 kJ/mol
# Density = 1.831974 g / cm^3
# Si number density = 18.361533 Si / 1000 Ang^3
#
#
#
# Elastic Constant Matrix: (Units=GPa)
#
#
# Indices 1 2 3 4 5 6 
#
# 1 103.1088 50.1118 42.5276 0.0000 0.0000 0.0000
# 2 50.1118 99.1901 31.4267 0.0000 0.0000 0.0000
# 3 42.5276 31.4267 49.5467 0.0000 0.0000 0.0000
# 4 0.0000 0.0000 0.0000 18.3682 0.0000 0.0000
# 5 0.0000 0.0000 0.0000 0.0000 17.3740 0.0000
# 6 0.0000 0.0000 0.0000 0.0000 0.0000 26.1832
#
#
#
# Elastic Compliance Matrix: (Units=1/GPa)
#
#
# Indices 1 2 3 4 5 6 
#
# 1 0.016708 -0.004878 -0.011247 0.000000 0.000000 0.000000
# 2 -0.004878 0.014041 -0.004720 0.000000 0.000000 0.000000
# 3 -0.011247 -0.004720 0.032830 0.000000 0.000000 0.000000
# 4 0.000000 0.000000 0.000000 0.054442 0.000000 0.000000
# 5 0.000000 0.000000 0.000000 0.000000 0.057557 0.000000
# 6 0.000000 0.000000 0.000000 0.000000 0.000000 0.038192
#
#
# Mechanical properties :
#
#
# Convention : Reuss Voigt Hill
#
# Bulk Modulus (GPa) = 45.68117 55.55310 50.61713
# Shear Modulus (GPa) = 19.02898 20.90370 19.96634
#
# Velocity S-wave (km/s) = 3.22273 3.37775 3.30115
# Velocity P-wave (km/s) = 6.22742 6.74782 6.49284
#
# Compressibility (1/GPa) = 0.02189086
#
# Stress axis : x y z
#
# Youngs Moduli (GPa) = 59.85144 71.21935 30.45949
#
# Poissons Ratio (x) = 0.34737 0.34259
# Poissons Ratio (y) = 0.29193 0.14375
# Poissons Ratio (z) = 0.67317 0.33612
#
# Static dielectric constant tensor:
#      x y z
#    x 1.607520 0.000000 0.000000 
#    y 0.000000 1.679910 0.000000 
#    z 0.000000 0.000000 1.636110 
# 
# From -- ./inp_files/68316.got.cif
#   From: 2010.05.17/outbox.cif.g08.bks.cpg/sg63_35_cif.got.tgz:68316.got - 2010.06.03 15:47:04.
