data_PCOD9470781
_publ_section_title
;
Structure prediction by ZEFSAII (Michael W. Deem and Ramdas Pophale) SiO2 
 PCOD9470781
Probable space group: C M C M
;
_chemical_formula_sum "Si O2"
_cell_formula_units_Z 128
_cell_length_a 21.065465
_cell_length_b 19.700393
_cell_length_c 17.342381
_cell_angle_alpha 90.000000
_cell_angle_beta 90.000000
_cell_angle_gamma 90.000000
_cell_volume 7197.052376
_symmetry_space_group_name_H-M "C M C M"
_symmetry_group_IT_number 63
_symmetry_cell_setting 'orthorhombic'
loop_
_space_group_symop_operation_xyz
x,y,z
-x,-y,1/2+z
x,-y,-z
-x,y,1/2-z
-x,-y,-z
x,y,1/2-z
-x,y,z
x,-y,1/2+z
1/2+x,1/2+y,z
1/2-x,1/2-y,1/2+z
1/2+x,1/2-y,-z
1/2-x,1/2+y,1/2-z
1/2-x,1/2-y,-z
1/2+x,1/2+y,1/2-z
1/2-x,1/2+y,z
1/2+x,1/2-y,1/2+z
loop_
_atom_site_type_symbol
_atom_site_label
_atom_site_fract_x
_atom_site_fract_y
_atom_site_fract_z
Si Si1 0.260231 0.525318 0.157401
Si Si2 0.928490 0.628213 0.575495
Si Si3 0.683946 0.614093 0.660986
Si Si4 0.609313 0.003929 0.161887
Si Si5 0.068671 0.202573 0.657275
Si Si6 0.754826 0.660709 0.424834
Si Si7 0.599614 0.149141 0.104519
Si Si8 0.203626 0.307868 0.401675
O O1 0.268810 0.536678 0.250000
O O2 0.300244 0.460401 0.129924
O O3 0.185367 0.507600 0.147308
O O4 0.274809 0.591836 0.107629
O O5 0.919844 0.551158 0.604663
O O6 0.918288 0.633750 0.483741
O O7 0.869070 0.670463 0.609612
O O8 0.000000 0.651130 0.594667
O O9 0.666864 0.602767 0.750000
O O10 0.627294 0.658583 0.625372
O O11 0.748451 0.657482 0.657556
O O12 0.598670 0.982344 0.250000
O O13 0.584299 0.080420 0.150148
O O14 0.074112 0.205137 0.750000
O O15 0.070280 0.280024 0.629598
O O16 0.000000 0.172477 0.637274
O O17 0.824873 0.662606 0.387087
O O18 0.770561 0.663285 0.515860
O O19 0.714897 0.727426 0.404510
#
# Coordination Sequence:
#
# PCOD9470781 Si02
#       8
#    16  16  16  16  16  16  16  16
#     4   9  18  33  53  79 105 133 170 214 262 307
#     4  11  23  35  50  72 104 144 181 216 256 307
#     4  10  19  33  54  78 105 136 170 209 258 312
#     4  10  20  34  51  73 103 138 179 220 257 306
#     4  10  20  33  52  80 109 135 166 211 269 324
#     4   9  19  32  53  79 102 130 173 220 261 307
#     4  10  19  34  53  76 104 138 175 214 265 320
#     4  10  19  35  53  74 103 133 179 219 260 301
#
# _framework density 17.785059
#
# number of rings (size 3 to 8) (size 9 to 14) (size 15 to 20)
#    0.000    2.125    2.500    1.125    0.000    3.250 
#    0.000    0.000    0.000    0.750    0.000    0.875 
#    0.000    0.000    0.000    0.000    0.000    0.000 
#
# Total GULP energy -356816.031915 kJ/mol
# GULP energy per Si atom -5575.250499 kJ/mol
# Density = 1.774458 g / cm^3
# Si number density = 17.785059 Si / 1000 Ang^3
#
#
#
# Elastic Constant Matrix: (Units=GPa)
#
#
# Indices 1 2 3 4 5 6 
#
# 1 104.9521 68.4864 21.7621 0.0000 0.0000 0.0000
# 2 68.4864 133.1913 33.1264 0.0000 0.0000 0.0000
# 3 21.7621 33.1264 23.0713 0.0000 0.0000 0.0000
# 4 0.0000 0.0000 0.0000 9.9277 0.0000 0.0000
# 5 0.0000 0.0000 0.0000 0.0000 9.8718 0.0000
# 6 0.0000 0.0000 0.0000 0.0000 0.0000 13.0271
#
#
#
# Elastic Compliance Matrix: (Units=1/GPa)
#
#
# Indices 1 2 3 4 5 6 
#
# 1 0.014657 -0.006374 -0.004673 0.000000 0.000000 0.000000
# 2 -0.006374 0.014451 -0.014736 0.000000 0.000000 0.000000
# 3 -0.004673 -0.014736 0.068910 0.000000 0.000000 0.000000
# 4 0.000000 0.000000 0.000000 0.100728 0.000000 0.000000
# 5 0.000000 0.000000 0.000000 0.000000 0.101299 0.000000
# 6 0.000000 0.000000 0.000000 0.000000 0.000000 0.076763
#
#
# Mechanical properties :
#
#
# Convention : Reuss Voigt Hill
#
# Bulk Modulus (GPa) = 21.52796 56.44049 38.98423
# Shear Modulus (GPa) = 11.26490 15.75464 13.50977
#
# Velocity S-wave (km/s) = 2.51946 2.97953 2.75910
# Velocity P-wave (km/s) = 4.53810 6.60609 5.66722
#
# Compressibility (1/GPa) = 0.04645121
#
# Stress axis : x y z
#
# Youngs Moduli (GPa) = 68.22911 69.20094 14.51170
#
# Poissons Ratio (x) = 0.44110 0.06781
# Poissons Ratio (y) = 0.43491 0.21385
# Poissons Ratio (z) = 0.31880 1.01976
#
# Static dielectric constant tensor:
#      x y z
#    x 1.645480 0.000000 0.000000 
#    y 0.000000 1.604640 0.000000 
#    z 0.000000 0.000000 1.630820 
# 
# From -- ./inp_files/56957.got.cif
#   From: 2010.05.17/outbox.cif.g08.bks.cpg/sg63_29_cif.got.tgz:56957.got - 2010.06.03 15:47:04.
