data_PCOD9470808
_publ_section_title
;
Structure prediction by ZEFSAII (Michael W. Deem and Ramdas Pophale) SiO2 
 PCOD9470808
Probable space group: C M C M
;
_chemical_formula_sum "Si O2"
_cell_formula_units_Z 112
_cell_length_a 15.447167
_cell_length_b 14.479183
_cell_length_c 25.934313
_cell_angle_alpha 90.000000
_cell_angle_beta 90.000000
_cell_angle_gamma 90.000000
_cell_volume 5800.529594
_symmetry_space_group_name_H-M "C M C M"
_symmetry_group_IT_number 63
_symmetry_cell_setting 'orthorhombic'
loop_
_space_group_symop_operation_xyz
x,y,z
-x,-y,1/2+z
x,-y,-z
-x,y,1/2-z
-x,-y,-z
x,y,1/2-z
-x,y,z
x,-y,1/2+z
1/2+x,1/2+y,z
1/2-x,1/2-y,1/2+z
1/2+x,1/2-y,-z
1/2-x,1/2+y,1/2-z
1/2-x,1/2-y,-z
1/2+x,1/2+y,1/2-z
1/2-x,1/2+y,z
1/2+x,1/2-y,1/2+z
loop_
_atom_site_type_symbol
_atom_site_label
_atom_site_fract_x
_atom_site_fract_y
_atom_site_fract_z
Si Si1 0.223025 0.373907 0.306613
Si Si2 0.600464 0.825842 0.922594
Si Si3 0.405620 0.664686 0.840828
Si Si4 0.400035 0.729608 0.142484
Si Si5 0.595846 0.469102 0.897134
Si Si6 0.101187 0.655911 0.540137
Si Si7 0.716263 0.997788 0.409879
O O1 0.201615 0.411880 0.250000
O O2 0.320931 0.336382 0.306556
O O3 0.161304 0.288250 0.320898
O O4 0.216601 0.446830 0.353858
O O5 0.500000 0.856448 0.917658
O O6 0.610649 0.736029 0.887496
O O7 0.664427 0.906970 0.906227
O O8 0.615928 0.806248 0.982953
O O9 0.500000 0.686867 0.817811
O O10 0.410945 0.562322 0.864426
O O11 0.500000 0.748502 0.155769
O O12 0.388347 0.619945 0.139080
O O13 0.385026 0.768151 0.084445
O O14 0.500000 0.454576 0.922204
O O15 0.685262 0.482998 0.927865
O O16 0.163929 0.570840 0.552676
O O17 0.000000 0.626254 0.543511
#
# Coordination Sequence:
#
# PCOD9470808 Si02
#       7
#    16  16  16  16  16  16  16
#     4  10  21  37  56  79 107 138 174 220 273 322
#     4  10  19  34  57  82 109 141 175 216 269 324
#     4   9  19  36  56  78 105 139 180 221 261 313
#     4   9  18  35  57  80 107 138 176 223 270 317
#     4   9  18  35  54  71 101 141 177 217 261 303
#     4   9  18  33  55  82 109 139 176 218 268 323
#     4  10  19  33  54  81 109 140 177 219 265 318
#
# _framework density 19.308582000000001
#
# number of rings (size 3 to 8) (size 9 to 14) (size 15 to 20)
#    0.000    2.571    0.000    1.714    0.000    2.286 
#    0.000   21.429    0.000   17.143    0.000    0.000 
#    0.000    0.000    0.000    0.000    0.000    0.000 
#
# Total GULP energy -312123.265865 kJ/mol
# GULP energy per Si atom -5573.629748 kJ/mol
# Density = 1.926463 g / cm^3
# Si number density = 19.308582 Si / 1000 Ang^3
#
#
#
# Elastic Constant Matrix: (Units=GPa)
#
#
# Indices 1 2 3 4 5 6 
#
# 1 77.3229 42.6334 32.0464 0.0000 0.0000 0.0000
# 2 42.6334 85.4807 14.3204 0.0000 0.0000 0.0000
# 3 32.0464 14.3204 73.4997 0.0000 0.0000 0.0000
# 4 0.0000 0.0000 0.0000 7.5153 0.0000 0.0000
# 5 0.0000 0.0000 0.0000 0.0000 41.0606 0.0000
# 6 0.0000 0.0000 0.0000 0.0000 0.0000 29.5171
#
#
#
# Elastic Compliance Matrix: (Units=1/GPa)
#
#
# Indices 1 2 3 4 5 6 
#
# 1 0.021125 -0.009297 -0.007399 0.000000 0.000000 0.000000
# 2 -0.009297 0.016184 0.000900 0.000000 0.000000 0.000000
# 3 -0.007399 0.000900 0.016656 0.000000 0.000000 0.000000
# 4 0.000000 0.000000 0.000000 0.133062 0.000000 0.000000
# 5 0.000000 0.000000 0.000000 0.000000 0.024354 0.000000
# 6 0.000000 0.000000 0.000000 0.000000 0.000000 0.033879
#
#
# Mechanical properties :
#
#
# Convention : Reuss Voigt Hill
#
# Bulk Modulus (GPa) = 44.69457 46.03376 45.36416
# Shear Modulus (GPa) = 17.58635 25.43880 21.51257
#
# Velocity S-wave (km/s) = 3.02123 3.63366 3.34150
# Velocity P-wave (km/s) = 5.94712 6.44185 6.19942
#
# Compressibility (1/GPa) = 0.02237408
#
# Stress axis : x y z
#
# Youngs Moduli (GPa) = 47.33652 61.78781 60.03707
#
# Poissons Ratio (x) = 0.57442 0.44424
# Poissons Ratio (y) = 0.44007 -0.05404
# Poissons Ratio (z) = 0.35027 -0.05561
#
# Static dielectric constant tensor:
#      x y z
#    x 1.730850 0.000000 0.000000 
#    y 0.000000 1.648950 0.000000 
#    z 0.000000 0.000000 1.665080 
# 
# From -- ./inp_files/62953.got.cif
#   From: 2010.05.17/outbox.cif.g08.bks.cpg/sg63_32_cif.got.tgz:62953.got - 2010.06.03 15:47:04.
