data_PCOD9470000
_publ_section_title
;
Structure prediction by ZEFSAII (Michael W. Deem and Ramdas Pophale) SiO2 
 PCOD9470000
Probable space group: C M C M
;
_chemical_formula_sum "Si O2"
_cell_formula_units_Z 80
_cell_length_a 26.179959
_cell_length_b 20.993179
_cell_length_c 7.420480
_cell_angle_alpha 90.000000
_cell_angle_beta 90.000000
_cell_angle_gamma 90.000000
_cell_volume 4078.300004
_symmetry_space_group_name_H-M "C M C M"
_symmetry_group_IT_number 63
_symmetry_cell_setting 'orthorhombic'
loop_
_space_group_symop_operation_xyz
x,y,z
-x,-y,1/2+z
x,-y,-z
-x,y,1/2-z
-x,-y,-z
x,y,1/2-z
-x,y,z
x,-y,1/2+z
1/2+x,1/2+y,z
1/2-x,1/2-y,1/2+z
1/2+x,1/2-y,-z
1/2-x,1/2+y,1/2-z
1/2-x,1/2-y,-z
1/2+x,1/2+y,1/2-z
1/2-x,1/2+y,z
1/2+x,1/2-y,1/2+z
loop_
_atom_site_type_symbol
_atom_site_label
_atom_site_fract_x
_atom_site_fract_y
_atom_site_fract_z
Si Si1 0.610709 0.399988 0.962929
Si Si2 0.889552 0.251221 0.967480
Si Si3 0.500000 0.407824 0.542210
Si Si4 0.221863 0.069959 0.465363
Si Si5 0.000000 0.758021 0.468742
Si Si6 0.285934 0.189479 0.034447
O O1 0.608546 0.413968 0.750000
O O2 0.555825 0.423187 0.038820
O O3 0.663735 0.426711 0.038264
O O4 0.615356 0.323304 0.982252
O O5 0.888051 0.252979 0.750000
O O6 0.946313 0.272194 0.024792
O O7 0.842052 0.292250 0.035673
O O8 0.500000 0.429589 0.750000
O O9 0.500000 0.330547 0.539086
O O10 0.217651 0.079268 0.250000
O O11 0.257464 0.126689 0.535677
O O12 0.243088 0.000000 0.500000
O O13 0.000000 0.762267 0.250000
O O14 0.290684 0.181730 0.250000
O O15 0.250000 0.250000 0.000000
#
# Coordination Sequence:
#
# PCOD9470000 Si02
#       6
#    16  16   8  16   8  16
#     4   9  16  28  44  63  88 117 150 186 221 261
#     4   9  16  26  44  68  92 117 144 180 224 268
#     4   8  14  24  41  61  83 115 149 181 219 257
#     4  10  21  34  46  63  90 121 154 190 227 269
#     4   8  14  24  38  63  94 115 138 175 220 267
#     4  10  19  31  48  70  93 118 151 189 227 270
#
# _framework density 19.616018
#
# number of rings (size 3 to 8) (size 9 to 14) (size 15 to 20)
#    0.000    2.800    2.000    0.000    0.000    1.600 
#    0.000    0.500    0.000    0.000    0.000    0.700 
#    0.000    0.000    0.000    0.000    0.000    0.000 
#
# Total GULP energy -223031.210412 kJ/mol
# GULP energy per Si atom -5575.780260 kJ/mol
# Density = 1.957137 g / cm^3
# Si number density = 19.616018 Si / 1000 Ang^3
#
#
#
# Elastic Constant Matrix: (Units=GPa)
#
#
# Indices 1 2 3 4 5 6 
#
# 1 174.4421 76.4393 4.3637 0.0000 0.0000 0.0000
# 2 76.4393 108.2469 -6.0814 0.0000 0.0000 0.0000
# 3 4.3637 -6.0814 67.7460 0.0000 0.0000 0.0000
# 4 0.0000 0.0000 0.0000 18.5262 0.0000 0.0000
# 5 0.0000 0.0000 0.0000 0.0000 1.7335 0.0000
# 6 0.0000 0.0000 0.0000 0.0000 0.0000 9.8359
#
#
#
# Elastic Compliance Matrix: (Units=1/GPa)
#
#
# Indices 1 2 3 4 5 6 
#
# 1 0.008379 -0.005977 -0.001076 0.000000 0.000000 0.000000
# 2 -0.005977 0.013549 0.001601 0.000000 0.000000 0.000000
# 3 -0.001076 0.001601 0.014974 0.000000 0.000000 0.000000
# 4 0.000000 0.000000 0.000000 0.053978 0.000000 0.000000
# 5 0.000000 0.000000 0.000000 0.000000 0.576877 0.000000
# 6 0.000000 0.000000 0.000000 0.000000 0.000000 0.101668
#
#
# Mechanical properties :
#
#
# Convention : Reuss Voigt Hill
#
# Bulk Modulus (GPa) = 38.46532 55.54199 47.00366
# Shear Modulus (GPa) = 6.33718 24.40002 15.36860
#
# Velocity S-wave (km/s) = 1.79934 3.53070 2.80209
# Velocity P-wave (km/s) = 4.89577 6.70799 5.87221
#
# Compressibility (1/GPa) = 0.02599744
#
# Stress axis : x y z
#
# Youngs Moduli (GPa) = 119.35186 73.80704 66.78200
#
# Poissons Ratio (x) = 0.44115 0.07187
# Poissons Ratio (y) = 0.71337 -0.10693
# Poissons Ratio (z) = 0.12845 -0.11818
#
# Static dielectric constant tensor:
#      x y z
#    x 1.759350 0.000000 0.000000 
#    y 0.000000 1.651770 0.000000 
#    z 0.000000 0.000000 1.733220 
# 
# From -- ./inp_files/10375.got.cif
#   From: 2010.05.17/outbox.cif.g08.bks.cpg/sg63_6_cif.got.tgz:10375.got - 2010.06.03 15:47:04.
