data_PCOD9470700
_publ_section_title
;
Structure prediction by ZEFSAII (Michael W. Deem and Ramdas Pophale) SiO2 
 PCOD9470700
Probable space group: C M C M
;
_chemical_formula_sum "Si O2"
_cell_formula_units_Z 96
_cell_length_a 20.554422
_cell_length_b 8.387501
_cell_length_c 30.622239
_cell_angle_alpha 90.000000
_cell_angle_beta 90.000000
_cell_angle_gamma 90.000000
_cell_volume 5279.281202
_symmetry_space_group_name_H-M "C M C M"
_symmetry_group_IT_number 63
_symmetry_cell_setting 'orthorhombic'
loop_
_space_group_symop_operation_xyz
x,y,z
-x,-y,1/2+z
x,-y,-z
-x,y,1/2-z
-x,-y,-z
x,y,1/2-z
-x,y,z
x,-y,1/2+z
1/2+x,1/2+y,z
1/2-x,1/2-y,1/2+z
1/2+x,1/2-y,-z
1/2-x,1/2+y,1/2-z
1/2-x,1/2-y,-z
1/2+x,1/2+y,1/2-z
1/2-x,1/2+y,z
1/2+x,1/2-y,1/2+z
loop_
_atom_site_type_symbol
_atom_site_label
_atom_site_fract_x
_atom_site_fract_y
_atom_site_fract_z
Si Si1 0.771663 0.602983 0.643662
Si Si2 0.921095 0.736839 0.964820
Si Si3 0.423012 0.332126 0.356504
Si Si4 0.674652 0.182799 0.301053
Si Si5 0.660692 0.406682 0.896051
Si Si6 0.421747 0.125781 0.439571
O O1 0.724417 0.688676 0.678565
O O2 0.812152 0.474595 0.670744
O O3 0.725464 0.516827 0.607536
O O4 0.815901 0.738465 0.622864
O O5 0.877824 0.868818 0.940641
O O6 0.906398 0.561780 0.943888
O O7 0.000000 0.765308 0.961124
O O8 0.903492 0.715533 0.015719
O O9 0.500000 0.341707 0.357498
O O10 0.395772 0.252783 0.312880
O O11 0.390845 0.502952 0.365251
O O12 0.398949 0.219293 0.396844
O O13 0.684414 0.158335 0.250000
O O14 0.500000 0.130442 0.438574
#
# Coordination Sequence:
#
# PCOD9470700 Si02
#       6
#    16  16  16  16  16  16
#     4   9  20  35  52  77 101 132 175 208 245 292
#     4   9  16  29  53  80 103 131 168 209 255 302
#     4  10  20  33  52  78 105 132 163 206 261 305
#     4  10  19  34  57  77  99 129 164 207 247 299
#     4  10  19  33  53  73 103 136 170 214 250 294
#     4   8  16  30  49  76 105 133 167 206 248 305
#
# _framework density 18.184293
#
# number of rings (size 3 to 8) (size 9 to 14) (size 15 to 20)
#    0.000    2.667    0.000    3.000    0.000    1.000 
#    0.000    4.167    0.000   34.000    0.000    0.000 
#    0.000    0.000    0.000    0.000    0.000    0.000 
#
# Total GULP energy -267469.141504 kJ/mol
# GULP energy per Si atom -5572.273781 kJ/mol
# Density = 1.814290 g / cm^3
# Si number density = 18.184293 Si / 1000 Ang^3
#
#
#
# Elastic Constant Matrix: (Units=GPa)
#
#
# Indices 1 2 3 4 5 6 
#
# 1 60.5818 32.1632 30.5717 0.0000 0.0000 0.0000
# 2 32.1632 75.2342 19.0568 0.0000 0.0000 0.0000
# 3 30.5717 19.0568 51.3095 0.0000 0.0000 0.0000
# 4 0.0000 0.0000 0.0000 12.6719 0.0000 0.0000
# 5 0.0000 0.0000 0.0000 0.0000 23.6679 0.0000
# 6 0.0000 0.0000 0.0000 0.0000 0.0000 20.0682
#
#
#
# Elastic Compliance Matrix: (Units=1/GPa)
#
#
# Indices 1 2 3 4 5 6 
#
# 1 0.027768 -0.008478 -0.013396 0.000000 0.000000 0.000000
# 2 -0.008478 0.017260 -0.001359 0.000000 0.000000 0.000000
# 3 -0.013396 -0.001359 0.027976 0.000000 0.000000 0.000000
# 4 0.000000 0.000000 0.000000 0.078915 0.000000 0.000000
# 5 0.000000 0.000000 0.000000 0.000000 0.042251 0.000000
# 6 0.000000 0.000000 0.000000 0.000000 0.000000 0.049830
#
#
# Mechanical properties :
#
#
# Convention : Reuss Voigt Hill
#
# Bulk Modulus (GPa) = 37.68189 38.96765 38.32477
# Shear Modulus (GPa) = 16.70496 18.30387 17.50441
#
# Velocity S-wave (km/s) = 3.03421 3.17610 3.10596
# Velocity P-wave (km/s) = 5.74825 5.90982 5.82960
#
# Compressibility (1/GPa) = 0.02653794
#
# Stress axis : x y z
#
# Youngs Moduli (GPa) = 36.01329 57.93603 35.74469
#
# Poissons Ratio (x) = 0.49116 0.47884
# Poissons Ratio (y) = 0.30531 0.04859
# Poissons Ratio (z) = 0.48243 0.07876
#
# Static dielectric constant tensor:
#      x y z
#    x 1.630800 0.000000 0.000000 
#    y 0.000000 1.644960 0.000000 
#    z 0.000000 0.000000 1.607380 
# 
# From -- ./inp_files/70324.got.cif
#   From: 2010.05.17/outbox.cif.g08.bks.cpg/sg63_36_cif.got.tgz:70324.got - 2010.06.03 15:47:04.
