data_PCOD9470772
_publ_section_title
;
Structure prediction by ZEFSAII (Michael W. Deem and Ramdas Pophale) SiO2 
 PCOD9470772
Probable space group: C M C M
;
_chemical_formula_sum "Si O2"
_cell_formula_units_Z 64
_cell_length_a 8.362631
_cell_length_b 23.558734
_cell_length_c 16.819805
_cell_angle_alpha 90.000000
_cell_angle_beta 90.000000
_cell_angle_gamma 90.000000
_cell_volume 3313.720230
_symmetry_space_group_name_H-M "C M C M"
_symmetry_group_IT_number 63
_symmetry_cell_setting 'orthorhombic'
loop_
_space_group_symop_operation_xyz
x,y,z
-x,-y,1/2+z
x,-y,-z
-x,y,1/2-z
-x,-y,-z
x,y,1/2-z
-x,y,z
x,-y,1/2+z
1/2+x,1/2+y,z
1/2-x,1/2-y,1/2+z
1/2+x,1/2-y,-z
1/2-x,1/2+y,1/2-z
1/2-x,1/2-y,-z
1/2+x,1/2+y,1/2-z
1/2-x,1/2+y,z
1/2+x,1/2-y,1/2+z
loop_
_atom_site_type_symbol
_atom_site_label
_atom_site_fract_x
_atom_site_fract_y
_atom_site_fract_z
Si Si1 0.304787 0.391251 0.250000
Si Si2 0.695176 0.738711 0.750000
Si Si3 0.190901 0.582953 0.442393
Si Si4 0.691305 0.469983 0.107544
Si Si5 0.806046 0.286901 0.923367
O O1 0.500000 0.390011 0.250000
O O2 0.251908 0.326642 0.250000
O O3 0.252252 0.426947 0.325512
O O4 0.500000 0.741089 0.750000
O O5 0.745087 0.765150 0.664679
O O6 0.252120 0.557854 0.525498
O O7 0.246857 0.534099 0.381732
O O8 0.247310 0.647400 0.431064
O O9 0.000000 0.583901 0.442438
O O10 0.500000 0.472384 0.107172
O O11 0.000000 0.285252 0.924644
O O12 0.750000 0.250000 0.000000
#
# Coordination Sequence:
#
# PCOD9470772 Si02
#       5
#     8   8  16  16  16
#     4   9  18  31  51  77 101 127 172 221 258 301
#     4   9  18  35  55  77 105 141 180 217 260 323
#     4  10  20  34  51  77 107 135 170 214 261 312
#     4  10  19  33  54  77 100 135 175 214 259 311
#     4  10  21  36  57  80 107 143 181 218 264 316
#
# _framework density 19.313638999999998
#
# number of rings (size 3 to 8) (size 9 to 14) (size 15 to 20)
#    0.000    2.250    0.000    4.500    0.000    5.000 
#    0.000    4.375    0.000    6.000    0.000    0.000 
#    0.000    0.000    0.000    0.000    0.000    0.000 
#
# Total GULP energy -178391.867312 kJ/mol
# GULP energy per Si atom -5574.745854 kJ/mol
# Density = 1.926968 g / cm^3
# Si number density = 19.313639 Si / 1000 Ang^3
#
#
#
# Elastic Constant Matrix: (Units=GPa)
#
#
# Indices 1 2 3 4 5 6 
#
# 1 26.6555 26.4688 12.1538 0.0000 0.0000 0.0000
# 2 26.4688 235.2563 101.4107 0.0000 0.0000 0.0000
# 3 12.1538 101.4107 127.0502 0.0000 0.0000 0.0000
# 4 0.0000 0.0000 0.0000 36.2901 0.0000 0.0000
# 5 0.0000 0.0000 0.0000 0.0000 17.2951 0.0000
# 6 0.0000 0.0000 0.0000 0.0000 0.0000 24.1245
#
#
#
# Elastic Compliance Matrix: (Units=1/GPa)
#
#
# Indices 1 2 3 4 5 6 
#
# 1 0.042246 -0.004591 -0.000377 0.000000 0.000000 0.000000
# 2 -0.004591 0.006979 -0.005132 0.000000 0.000000 0.000000
# 3 -0.000377 -0.005132 0.012003 0.000000 0.000000 0.000000
# 4 0.000000 0.000000 0.000000 0.027556 0.000000 0.000000
# 5 0.000000 0.000000 0.000000 0.000000 0.057820 0.000000
# 6 0.000000 0.000000 0.000000 0.000000 0.000000 0.041452
#
#
# Mechanical properties :
#
#
# Convention : Reuss Voigt Hill
#
# Bulk Modulus (GPa) = 24.37269 74.33652 49.35460
# Shear Modulus (GPa) = 22.52954 32.13718 27.33336
#
# Velocity S-wave (km/s) = 3.41913 4.08360 3.76604
# Velocity P-wave (km/s) = 5.31357 7.79789 6.67237
#
# Compressibility (1/GPa) = 0.04102953
#
# Stress axis : x y z
#
# Youngs Moduli (GPa) = 23.67089 143.28222 83.31224
#
# Poissons Ratio (x) = 0.65774 0.03143
# Poissons Ratio (y) = 0.10866 0.42753
# Poissons Ratio (z) = 0.00893 0.73527
#
# Static dielectric constant tensor:
#      x y z
#    x 1.671560 0.000000 0.000000 
#    y 0.000000 1.678170 0.000000 
#    z 0.000000 0.000000 1.697990 
# 
# From -- ./inp_files/27566.got.cif
#   From: 2010.05.17/outbox.cif.g08.bks.cpg/sg63_14_cif.got.tgz:27566.got - 2010.06.03 15:47:04.
