data_PCOD9470891
_publ_section_title
;
Structure prediction by ZEFSAII (Michael W. Deem and Ramdas Pophale) SiO2 
 PCOD9470891
Probable space group: C M C M
;
_chemical_formula_sum "Si O2"
_cell_formula_units_Z 80
_cell_length_a 17.629257
_cell_length_b 25.237193
_cell_length_c 10.214129
_cell_angle_alpha 90.000000
_cell_angle_beta 90.000000
_cell_angle_gamma 90.000000
_cell_volume 4544.398381
_symmetry_space_group_name_H-M "C M C M"
_symmetry_group_IT_number 63
_symmetry_cell_setting 'orthorhombic'
loop_
_space_group_symop_operation_xyz
x,y,z
-x,-y,1/2+z
x,-y,-z
-x,y,1/2-z
-x,-y,-z
x,y,1/2-z
-x,y,z
x,-y,1/2+z
1/2+x,1/2+y,z
1/2-x,1/2-y,1/2+z
1/2+x,1/2-y,-z
1/2-x,1/2+y,1/2-z
1/2-x,1/2-y,-z
1/2+x,1/2+y,1/2-z
1/2-x,1/2+y,z
1/2+x,1/2-y,1/2+z
loop_
_atom_site_type_symbol
_atom_site_label
_atom_site_fract_x
_atom_site_fract_y
_atom_site_fract_z
Si Si1 0.591658 0.545781 0.250000
Si Si2 0.907994 0.075638 0.750000
Si Si3 0.415603 0.840590 0.407602
Si Si4 0.180390 0.236449 0.094481
Si Si5 0.907916 0.871332 0.976216
Si Si6 0.407010 0.045444 0.900882
O O1 0.500000 0.541823 0.250000
O O2 0.620327 0.485292 0.250000
O O3 0.611273 0.581201 0.375852
O O4 0.887222 0.107799 0.620161
O O5 0.000000 0.072674 0.750000
O O6 0.420914 0.845843 0.250000
O O7 0.500000 0.837621 0.463398
O O8 0.374439 0.786126 0.431227
O O9 0.379674 0.896610 0.447841
O O10 0.199952 0.235781 0.250000
O O11 0.137152 0.181832 0.060615
O O12 0.250000 0.250000 0.000000
O O13 0.000000 0.862397 0.968705
O O14 0.384522 0.035657 0.750000
O O15 0.500000 0.047566 0.901505
O O16 0.383057 0.000000 0.000000
#
# Coordination Sequence:
#
# PCOD9470891 Si02
#       6
#     8   8  16  16  16  16
#     4   9  16  30  53  84 112 138 177 220 266 321
#     4   9  18  30  51  84 118 142 167 218 278 323
#     4   8  15  30  53  77  98 127 169 211 249 302
#     4  11  23  37  54  75 102 142 183 224 266 315
#     4  10  19  33  56  83 111 143 180 223 269 321
#     4   8  13  23  43  71  98 121 150 193 246 296
#
# _framework density 17.604089999999999
#
# number of rings (size 3 to 8) (size 9 to 14) (size 15 to 20)
#    0.000    2.800    1.000    2.400    1.400    3.200 
#    0.000    1.000    0.000    3.600    0.000    0.000 
#    0.000    0.000    0.000    0.000    0.000    0.000 
#
# Total GULP energy -222690.845095 kJ/mol
# GULP energy per Si atom -5567.271127 kJ/mol
# Density = 1.756402 g / cm^3
# Si number density = 17.604090 Si / 1000 Ang^3
#
#
#
# Elastic Constant Matrix: (Units=GPa)
#
#
# Indices 1 2 3 4 5 6 
#
# 1 29.0591 41.1309 31.9676 0.0000 0.0000 0.0000
# 2 41.1309 175.8908 76.9511 0.0000 0.0000 0.0000
# 3 31.9676 76.9511 124.2050 0.0000 0.0000 0.0000
# 4 0.0000 0.0000 0.0000 25.6147 0.0000 0.0000
# 5 0.0000 0.0000 0.0000 0.0000 12.9977 0.0000
# 6 0.0000 0.0000 0.0000 0.0000 0.0000 -3.7959
#
#
#
# Elastic Compliance Matrix: (Units=1/GPa)
#
#
# Indices 1 2 3 4 5 6 
#
# 1 0.057855 -0.009623 -0.008929 0.000000 0.000000 0.000000
# 2 -0.009623 0.009400 -0.003347 0.000000 0.000000 0.000000
# 3 -0.008929 -0.003347 0.012423 0.000000 0.000000 0.000000
# 4 0.000000 0.000000 0.000000 0.039040 0.000000 0.000000
# 5 0.000000 0.000000 0.000000 0.000000 0.076937 0.000000
# 6 0.000000 0.000000 0.000000 0.000000 0.000000 -0.263439
#
#
# Mechanical properties :
#
#
# Convention : Reuss Voigt Hill
#
# Bulk Modulus (GPa) = 27.87001 69.91711 48.89356
# Shear Modulus (GPa) = -415.75378 18.90365 -198.42506
#
# Velocity S-wave (km/s) = -15.38446 3.28048 -10.62826
# Velocity P-wave (km/s) = 17.31212 7.35876 11.08057
#
# Compressibility (1/GPa) = 0.03588086
#
# Stress axis : x y z
#
# Youngs Moduli (GPa) = 17.28449 106.38476 80.49631
#
# Poissons Ratio (x) = 1.02371 0.71874
# Poissons Ratio (y) = 0.16632 0.26942
# Poissons Ratio (z) = 0.15433 0.35607
#
# Static dielectric constant tensor:
#      x y z
#    x 1.620890 0.000000 0.000000 
#    y 0.000000 1.620240 0.000000 
#    z 0.000000 0.000000 1.579030 
# 
# From -- ./inp_files/8104.got.cif
#   From: 2010.05.17/outbox.cif.g08.bks.cpg/sg63_5_cif.got.tgz:8104.got - 2010.06.03 15:47:04.
