data_PCOD9470396
_publ_section_title
;
Structure prediction by ZEFSAII (Michael W. Deem and Ramdas Pophale) SiO2 
 PCOD9470396
Probable space group: C M C M
;
_chemical_formula_sum "Si O2"
_cell_formula_units_Z 112
_cell_length_a 14.518583
_cell_length_b 33.434379
_cell_length_c 14.357895
_cell_angle_alpha 90.000000
_cell_angle_beta 90.000000
_cell_angle_gamma 90.000000
_cell_volume 6969.606614
_symmetry_space_group_name_H-M "C M C M"
_symmetry_group_IT_number 63
_symmetry_cell_setting 'orthorhombic'
loop_
_space_group_symop_operation_xyz
x,y,z
-x,-y,1/2+z
x,-y,-z
-x,y,1/2-z
-x,-y,-z
x,y,1/2-z
-x,y,z
x,-y,1/2+z
1/2+x,1/2+y,z
1/2-x,1/2-y,1/2+z
1/2+x,1/2-y,-z
1/2-x,1/2+y,1/2-z
1/2-x,1/2-y,-z
1/2+x,1/2+y,1/2-z
1/2-x,1/2+y,z
1/2+x,1/2-y,1/2+z
loop_
_atom_site_type_symbol
_atom_site_label
_atom_site_fract_x
_atom_site_fract_y
_atom_site_fract_z
Si Si1 0.721381 0.040729 0.034610
Si Si2 0.891189 0.321482 0.508596
Si Si3 0.104173 0.996736 0.859448
Si Si4 0.109464 0.246940 0.857746
Si Si5 0.891997 0.603343 0.355650
Si Si6 0.268143 0.330527 0.141315
Si Si7 0.699690 0.420732 0.356852
O O1 0.666235 0.066079 0.108873
O O2 0.818100 0.026141 0.081152
O O3 0.734548 0.066899 0.941628
O O4 0.674236 0.000000 0.000000
O O5 0.869341 0.281894 0.569056
O O6 0.878205 0.359069 0.577094
O O7 0.821404 0.326918 0.423384
O O8 0.000000 0.319945 0.482119
O O9 0.114531 0.986388 0.750000
O O10 0.121725 0.044805 0.865141
O O11 0.000000 0.987308 0.888619
O O12 0.129847 0.258992 0.750000
O O13 0.164529 0.206489 0.878499
O O14 0.000000 0.239549 0.862357
O O15 0.867693 0.614137 0.250000
O O16 0.000000 0.593250 0.358528
O O17 0.241517 0.328083 0.250000
O O18 0.318584 0.373636 0.129880
O O19 0.735485 0.425128 0.250000
#
# Coordination Sequence:
#
# PCOD9470396 Si02
#       7
#    16  16  16  16  16  16  16
#     4  10  19  32  52  72  99 130 164 208 252 293
#     4  10  19  33  53  74 100 132 166 205 247 292
#     4   9  18  32  51  75 101 131 167 204 247 297
#     4   9  18  32  51  77 104 130 163 203 246 292
#     4  10  20  34  53  75  97 126 166 209 253 297
#     4  10  19  32  51  75 104 133 165 203 245 294
#     4   9  18  31  46  68 101 134 164 200 239 289
#
# _framework density 16.069773999999999
#
# number of rings (size 3 to 8) (size 9 to 14) (size 15 to 20)
#    0.000    2.429    1.429    1.286    0.000    6.000 
#    0.000    2.857    0.000    0.429    0.000    0.000 
#    0.000    0.000    0.000    0.000    0.000    0.000 
#
# Total GULP energy -311755.293637 kJ/mol
# GULP energy per Si atom -5567.058815 kJ/mol
# Density = 1.603320 g / cm^3
# Si number density = 16.069774 Si / 1000 Ang^3
#
#
#
# Elastic Constant Matrix: (Units=GPa)
#
#
# Indices 1 2 3 4 5 6 
#
# 1 48.4320 49.2577 42.1481 0.0000 0.0000 0.0000
# 2 49.2577 109.2139 43.0276 0.0000 0.0000 0.0000
# 3 42.1481 43.0276 78.3675 0.0000 0.0000 0.0000
# 4 0.0000 0.0000 0.0000 27.5125 0.0000 0.0000
# 5 0.0000 0.0000 0.0000 0.0000 20.9282 0.0000
# 6 0.0000 0.0000 0.0000 0.0000 0.0000 19.8438
#
#
#
# Elastic Compliance Matrix: (Units=1/GPa)
#
#
# Indices 1 2 3 4 5 6 
#
# 1 0.056196 -0.017147 -0.020809 0.000000 0.000000 0.000000
# 2 -0.017147 0.016916 -0.000065 0.000000 0.000000 0.000000
# 3 -0.020809 -0.000065 0.023988 0.000000 0.000000 0.000000
# 4 0.000000 0.000000 0.000000 0.036347 0.000000 0.000000
# 5 0.000000 0.000000 0.000000 0.000000 0.047782 0.000000
# 6 0.000000 0.000000 0.000000 0.000000 0.000000 0.050394
#
#
# Mechanical properties :
#
#
# Convention : Reuss Voigt Hill
#
# Bulk Modulus (GPa) = 47.49124 56.09781 51.79452
# Shear Modulus (GPa) = 15.88884 20.42889 18.15887
#
# Velocity S-wave (km/s) = 3.14784 3.56934 3.36520
# Velocity P-wave (km/s) = 6.54440 7.20914 6.88479
#
# Compressibility (1/GPa) = 0.02105651
#
# Stress axis : x y z
#
# Youngs Moduli (GPa) = 17.79472 59.11588 41.68757
#
# Poissons Ratio (x) = 1.01369 0.86748
# Poissons Ratio (y) = 0.30513 0.00272
# Poissons Ratio (z) = 0.37029 0.00386
#
# Static dielectric constant tensor:
#      x y z
#    x 1.520160 0.000000 0.000000 
#    y 0.000000 1.537790 0.000000 
#    z 0.000000 0.000000 1.550120 
# 
# From -- ./inp_files/32547.got.cif
#   From: 2010.05.17/outbox.cif.g08.bks.cpg/sg63_17_cif.got.tgz:32547.got - 2010.06.03 15:47:04.
