data_PCOD9470271
_publ_section_title
;
Structure prediction by ZEFSAII (Michael W. Deem and Ramdas Pophale) SiO2 
 PCOD9470271
Probable space group: C M C M
;
_chemical_formula_sum "Si O2"
_cell_formula_units_Z 88
_cell_length_a 22.217321
_cell_length_b 14.486170
_cell_length_c 13.576028
_cell_angle_alpha 90.000000
_cell_angle_beta 90.000000
_cell_angle_gamma 90.000000
_cell_volume 4369.361648
_symmetry_space_group_name_H-M "C M C M"
_symmetry_group_IT_number 63
_symmetry_cell_setting 'orthorhombic'
loop_
_space_group_symop_operation_xyz
x,y,z
-x,-y,1/2+z
x,-y,-z
-x,y,1/2-z
-x,-y,-z
x,y,1/2-z
-x,y,z
x,-y,1/2+z
1/2+x,1/2+y,z
1/2-x,1/2-y,1/2+z
1/2+x,1/2-y,-z
1/2-x,1/2+y,1/2-z
1/2-x,1/2-y,-z
1/2+x,1/2+y,1/2-z
1/2-x,1/2+y,z
1/2+x,1/2-y,1/2+z
loop_
_atom_site_type_symbol
_atom_site_label
_atom_site_fract_x
_atom_site_fract_y
_atom_site_fract_z
Si Si1 0.877435 0.500000 0.500000
Si Si2 0.568264 0.359390 0.629851
Si Si3 0.262226 0.330626 0.130809
Si Si4 0.794325 0.372273 0.864556
Si Si5 0.326838 0.512501 0.134378
Si Si6 0.881381 0.658339 0.867567
O O1 0.836898 0.438757 0.573870
O O2 0.909466 0.575422 0.568938
O O3 0.568923 0.361258 0.750000
O O4 0.500000 0.372365 0.596550
O O5 0.613759 0.438421 0.595045
O O6 0.592585 0.257829 0.603727
O O7 0.266509 0.330009 0.250000
O O8 0.288807 0.232640 0.098412
O O9 0.299803 0.417808 0.091539
O O10 0.190914 0.342081 0.113418
O O11 0.813526 0.372331 0.750000
O O12 0.727371 0.414125 0.867050
O O13 0.338967 0.492664 0.250000
O O14 0.889939 0.645407 0.750000
#
# Coordination Sequence:
#
# PCOD9470271 Si02
#       6
#     8  16  16  16  16  16
#     4  12  22  30  49  78 105 144 178 210 270 332
#     4   9  17  31  53  77 102 139 185 227 263 305
#     4   9  16  29  49  71 106 143 164 209 275 319
#     4  10  19  32  48  74 111 141 170 215 269 325
#     4   9  15  28  49  73 104 138 169 212 269 317
#     4  10  19  33  50  74 110 140 174 221 265 316
#
# _framework density 20.140241
#
# number of rings (size 3 to 8) (size 9 to 14) (size 15 to 20)
#    0.000    2.364    3.636    0.545    0.000    0.727 
#    0.000    0.455    0.000    0.000    0.000    7.000 
#    0.000    8.727    0.000    0.364    0.000    0.000 
#
# Total GULP energy -245703.490216 kJ/mol
# GULP energy per Si atom -5584.170232 kJ/mol
# Density = 2.009440 g / cm^3
# Si number density = 20.140241 Si / 1000 Ang^3
#
#
#
# Elastic Constant Matrix: (Units=GPa)
#
#
# Indices 1 2 3 4 5 6 
#
# 1 46.8343 28.7010 -0.4942 0.0000 0.0000 0.0000
# 2 28.7010 141.9176 14.3481 0.0000 0.0000 0.0000
# 3 -0.4942 14.3481 76.4331 0.0000 0.0000 0.0000
# 4 0.0000 0.0000 0.0000 29.3045 0.0000 0.0000
# 5 0.0000 0.0000 0.0000 0.0000 6.6379 0.0000
# 6 0.0000 0.0000 0.0000 0.0000 0.0000 10.7733
#
#
#
# Elastic Compliance Matrix: (Units=1/GPa)
#
#
# Indices 1 2 3 4 5 6 
#
# 1 0.024464 -0.005060 0.001108 0.000000 0.000000 0.000000
# 2 -0.005060 0.008229 -0.001577 0.000000 0.000000 0.000000
# 3 0.001108 -0.001577 0.013387 0.000000 0.000000 0.000000
# 4 0.000000 0.000000 0.000000 0.034125 0.000000 0.000000
# 5 0.000000 0.000000 0.000000 0.000000 0.150651 0.000000
# 6 0.000000 0.000000 0.000000 0.000000 0.000000 0.092822
#
#
# Mechanical properties :
#
#
# Convention : Reuss Voigt Hill
#
# Bulk Modulus (GPa) = 28.55373 38.92164 33.73769
# Shear Modulus (GPa) = 14.43379 24.18514 19.30947
#
# Velocity S-wave (km/s) = 2.67996 3.46907 3.09973
# Velocity P-wave (km/s) = 4.87694 5.95090 5.44048
#
# Compressibility (1/GPa) = 0.03502169
#
# Stress axis : x y z
#
# Youngs Moduli (GPa) = 40.87607 121.52053 74.70142
#
# Poissons Ratio (x) = 0.61484 -0.08277
# Poissons Ratio (y) = 0.20682 0.11784
# Poissons Ratio (z) = -0.04529 0.19170
#
# Static dielectric constant tensor:
#      x y z
#    x 1.670400 0.000000 0.000000 
#    y 0.000000 1.731170 0.000000 
#    z 0.000000 0.000000 1.772160 
# 
# From -- ./inp_files/35234.got.cif
#   From: 2010.05.17/outbox.cif.g08.bks.cpg/sg63_18_cif.got.tgz:35234.got - 2010.06.03 15:47:04.
