data_PCOD9470713
_publ_section_title
;
Structure prediction by ZEFSAII (Michael W. Deem and Ramdas Pophale) SiO2 
 PCOD9470713
Probable space group: C M C M
;
_chemical_formula_sum "Si O2"
_cell_formula_units_Z 116
_cell_length_a 13.400751
_cell_length_b 17.239124
_cell_length_c 24.647843
_cell_angle_alpha 90.000000
_cell_angle_beta 90.000000
_cell_angle_gamma 90.000000
_cell_volume 5694.075878
_symmetry_space_group_name_H-M "C M C M"
_symmetry_group_IT_number 63
_symmetry_cell_setting 'orthorhombic'
loop_
_space_group_symop_operation_xyz
x,y,z
-x,-y,1/2+z
x,-y,-z
-x,y,1/2-z
-x,-y,-z
x,y,1/2-z
-x,y,z
x,-y,1/2+z
1/2+x,1/2+y,z
1/2-x,1/2-y,1/2+z
1/2+x,1/2-y,-z
1/2-x,1/2+y,1/2-z
1/2-x,1/2-y,-z
1/2+x,1/2+y,1/2-z
1/2-x,1/2+y,z
1/2+x,1/2-y,1/2+z
loop_
_atom_site_type_symbol
_atom_site_label
_atom_site_fract_x
_atom_site_fract_y
_atom_site_fract_z
Si Si1 0.317553 0.964972 0.914280
Si Si2 0.889793 0.907879 0.951478
Si Si3 0.612676 0.330922 0.429103
Si Si4 0.690235 0.137422 0.307670
Si Si5 0.111122 0.211586 0.148465
Si Si6 0.816360 0.639324 0.902539
Si Si7 0.387960 0.172010 0.483857
Si Si8 0.500000 0.195483 0.250000
O O1 0.203422 0.962165 0.936892
O O2 0.322092 0.920920 0.857203
O O3 0.376651 0.911113 0.956135
O O4 0.354154 0.052088 0.907436
O O5 0.883970 0.837429 0.908054
O O6 0.000000 0.944366 0.945252
O O7 0.883177 0.873398 0.011989
O O8 0.500000 0.339854 0.408761
O O9 0.698649 0.361463 0.389905
O O10 0.632501 0.239693 0.440944
O O11 0.701827 0.093902 0.250000
O O12 0.792005 0.184648 0.318311
O O13 0.590250 0.187672 0.296750
O O14 0.124645 0.302041 0.135036
O O15 0.000000 0.196953 0.171408
O O16 0.820718 0.674329 0.963324
O O17 0.500000 0.185423 0.503560
#
# Coordination Sequence:
#
# PCOD9470713 Si02
#       8
#    16  16  16  16  16  16  16   4
#     4  11  23  35  55  86 120 159 194 235 296 361
#     4   9  17  33  55  73 108 157 208 247 282 327
#     4  10  19  33  53  75 109 166 215 254 281 322
#     4   9  21  43  67  89 109 144 197 246 299 359
#     4  10  20  37  61  88 116 153 196 246 293 344
#     4  12  22  35  51  86 130 160 194 238 291 352
#     4  11  22  34  51  78 117 164 209 237 279 342
#     4   8  20  44  74  88 114 136 194 252 300 352
#
# _framework density 20.372050000000002
#
# number of rings (size 3 to 8) (size 9 to 14) (size 15 to 20)
#    0.414    1.379    2.759    2.897    0.966    2.483 
#    1.241    2.069    0.000    0.000    0.000    0.000 
#    0.000    0.000    0.000    0.000    0.000    0.000 
#
# Total GULP energy -323152.493731 kJ/mol
# GULP energy per Si atom -5571.594720 kJ/mol
# Density = 2.032568 g / cm^3
# Si number density = 20.372050 Si / 1000 Ang^3
#
#
#
# Elastic Constant Matrix: (Units=GPa)
#
#
# Indices 1 2 3 4 5 6 
#
# 1 121.2856 4.2552 16.7156 0.0000 0.0000 0.0000
# 2 4.2552 54.7238 -6.6249 0.0000 0.0000 0.0000
# 3 16.7156 -6.6249 34.1920 0.0000 0.0000 0.0000
# 4 0.0000 0.0000 0.0000 3.5510 0.0000 0.0000
# 5 0.0000 0.0000 0.0000 0.0000 29.5699 0.0000
# 6 0.0000 0.0000 0.0000 0.0000 0.0000 8.3709
#
#
#
# Elastic Compliance Matrix: (Units=1/GPa)
#
#
# Indices 1 2 3 4 5 6 
#
# 1 0.008924 -0.001251 -0.004605 0.000000 0.000000 0.000000
# 2 -0.001251 0.018888 0.004271 0.000000 0.000000 0.000000
# 3 -0.004605 0.004271 0.032326 0.000000 0.000000 0.000000
# 4 0.000000 0.000000 0.000000 0.281613 0.000000 0.000000
# 5 0.000000 0.000000 0.000000 0.000000 0.033818 0.000000
# 6 0.000000 0.000000 0.000000 0.000000 0.000000 0.119462
#
#
# Mechanical properties :
#
#
# Convention : Reuss Voigt Hill
#
# Bulk Modulus (GPa) = 17.55396 26.54370 22.04883
# Shear Modulus (GPa) = 9.66764 21.35536 15.51150
#
# Velocity S-wave (km/s) = 2.18079 3.24121 2.76236
# Velocity P-wave (km/s) = 3.86995 5.20240 4.58484
#
# Compressibility (1/GPa) = 0.05696719
#
# Stress axis : x y z
#
# Youngs Moduli (GPa) = 112.06286 52.94369 30.93533
#
# Poissons Ratio (x) = 0.06625 0.14246
# Poissons Ratio (y) = 0.14023 -0.13214
# Poissons Ratio (z) = 0.51605 -0.22614
#
# Static dielectric constant tensor:
#      x y z
#    x 1.786070 0.000000 0.000000 
#    y 0.000000 1.743070 0.000000 
#    z 0.000000 0.000000 1.723490 
# 
# From -- ./inp_files/69542.got.cif
#   From: 2010.05.17/outbox.cif.g08.bks.cpg/sg63_35_cif.got.tgz:69542.got - 2010.06.03 15:47:04.
