data_PCOD9470649
_publ_section_title
;
Structure prediction by ZEFSAII (Michael W. Deem and Ramdas Pophale) SiO2 
 PCOD9470649
Probable space group: C M C M
;
_chemical_formula_sum "Si O2"
_cell_formula_units_Z 72
_cell_length_a 33.944963
_cell_length_b 14.900952
_cell_length_c 8.581352
_cell_angle_alpha 90.000000
_cell_angle_beta 90.000000
_cell_angle_gamma 90.000000
_cell_volume 4340.553086
_symmetry_space_group_name_H-M "C M C M"
_symmetry_group_IT_number 63
_symmetry_cell_setting 'orthorhombic'
loop_
_space_group_symop_operation_xyz
x,y,z
-x,-y,1/2+z
x,-y,-z
-x,y,1/2-z
-x,-y,-z
x,y,1/2-z
-x,y,z
x,-y,1/2+z
1/2+x,1/2+y,z
1/2-x,1/2-y,1/2+z
1/2+x,1/2-y,-z
1/2-x,1/2+y,1/2-z
1/2-x,1/2-y,-z
1/2+x,1/2+y,1/2-z
1/2-x,1/2+y,z
1/2+x,1/2-y,1/2+z
loop_
_atom_site_type_symbol
_atom_site_label
_atom_site_fract_x
_atom_site_fract_y
_atom_site_fract_z
Si Si1 0.913299 0.102222 0.061964
Si Si2 0.500000 0.601160 0.062877
Si Si3 0.815230 0.597215 0.563865
Si Si4 0.157873 0.221297 0.564116
Si Si5 0.726860 0.597981 0.063271
O O1 0.910141 0.100559 0.250000
O O2 0.957120 0.137893 0.016481
O O3 0.879387 0.163908 0.992190
O O4 0.909435 0.000000 0.000000
O O5 0.500000 0.598873 0.250000
O O6 0.500000 0.500000 0.000000
O O7 0.827664 0.500000 0.500000
O O8 0.813650 0.595305 0.750000
O O9 0.841788 0.678579 0.504225
O O10 0.771005 0.613384 0.498752
O O11 0.159545 0.224043 0.750000
O O12 0.196673 0.171307 0.499385
O O13 0.727074 0.597370 0.250000
O O14 0.714421 0.500000 0.000000
#
# Coordination Sequence:
#
# PCOD9470649 Si02
#       5
#    16   8  16  16  16
#     4  10  19  33  51  76 105 136 167 202 244 294
#     4   8  16  30  50  72 101 134 165 196 238 292
#     4  11  22  38  55  73  96 128 167 210 253 298
#     4  12  23  35  50  73 101 133 169 209 249 292
#     4  11  21  35  52  73 100 133 168 207 250 298
#
# _framework density 16.587748000000001
#
# number of rings (size 3 to 8) (size 9 to 14) (size 15 to 20)
#    0.000    1.333    0.000    9.333    0.000    0.889 
#    0.000    0.000    0.000    0.000    0.000    0.778 
#    0.000    0.000    0.000    0.000    0.000    0.000 
#
# Total GULP energy -201109.089538 kJ/mol
# GULP energy per Si atom -5586.363598 kJ/mol
# Density = 1.654999 g / cm^3
# Si number density = 16.587748 Si / 1000 Ang^3
#
#
#
# Elastic Constant Matrix: (Units=GPa)
#
#
# Indices 1 2 3 4 5 6 
#
# 1 65.3538 65.6005 38.0430 0.0000 0.0000 0.0000
# 2 65.6005 115.9314 51.9968 0.0000 0.0000 0.0000
# 3 38.0430 51.9968 152.9191 0.0000 0.0000 0.0000
# 4 0.0000 0.0000 0.0000 27.9078 0.0000 0.0000
# 5 0.0000 0.0000 0.0000 0.0000 18.3066 0.0000
# 6 0.0000 0.0000 0.0000 0.0000 0.0000 14.3011
#
#
#
# Elastic Compliance Matrix: (Units=1/GPa)
#
#
# Indices 1 2 3 4 5 6 
#
# 1 0.036153 -0.019379 -0.002405 0.000000 0.000000 0.000000
# 2 -0.019379 0.020566 -0.002172 0.000000 0.000000 0.000000
# 3 -0.002405 -0.002172 0.007876 0.000000 0.000000 0.000000
# 4 0.000000 0.000000 0.000000 0.035832 0.000000 0.000000
# 5 0.000000 0.000000 0.000000 0.000000 0.054625 0.000000
# 6 0.000000 0.000000 0.000000 0.000000 0.000000 0.069925
#
#
# Mechanical properties :
#
#
# Convention : Reuss Voigt Hill
#
# Bulk Modulus (GPa) = 59.93796 71.72056 65.82926
# Shear Modulus (GPa) = 17.95654 24.00734 20.98194
#
# Velocity S-wave (km/s) = 3.29373 3.80846 3.56041
# Velocity P-wave (km/s) = 7.11879 7.91644 7.52819
#
# Compressibility (1/GPa) = 0.01668392
#
# Stress axis : x y z
#
# Youngs Moduli (GPa) = 27.65987 48.62473 126.96583
#
# Poissons Ratio (x) = 0.94230 0.30532
# Poissons Ratio (y) = 0.53602 0.27574
# Poissons Ratio (z) = 0.06652 0.10560
#
# Static dielectric constant tensor:
#      x y z
#    x 1.570070 0.000000 0.000000 
#    y 0.000000 1.551780 0.000000 
#    z 0.000000 0.000000 1.551010 
# 
# From -- ./inp_files/13925.got.cif
#   From: 2010.05.17/outbox.cif.g08.bks.cpg/sg63_7_cif.got.tgz:13925.got - 2010.06.03 15:47:04.
