data_PCOD9470128
_publ_section_title
;
Structure prediction by ZEFSAII (Michael W. Deem and Ramdas Pophale) SiO2 
 PCOD9470128
Probable space group: C M C M
;
_chemical_formula_sum "Si O2"
_cell_formula_units_Z 112
_cell_length_a 16.751816
_cell_length_b 22.178029
_cell_length_c 17.671151
_cell_angle_alpha 90.000000
_cell_angle_beta 90.000000
_cell_angle_gamma 90.000000
_cell_volume 6565.225975
_symmetry_space_group_name_H-M "C M C M"
_symmetry_group_IT_number 63
_symmetry_cell_setting 'orthorhombic'
loop_
_space_group_symop_operation_xyz
x,y,z
-x,-y,1/2+z
x,-y,-z
-x,y,1/2-z
-x,-y,-z
x,y,1/2-z
-x,y,z
x,-y,1/2+z
1/2+x,1/2+y,z
1/2-x,1/2-y,1/2+z
1/2+x,1/2-y,-z
1/2-x,1/2+y,1/2-z
1/2-x,1/2-y,-z
1/2+x,1/2+y,1/2-z
1/2-x,1/2+y,z
1/2+x,1/2-y,1/2+z
loop_
_atom_site_type_symbol
_atom_site_label
_atom_site_fract_x
_atom_site_fract_y
_atom_site_fract_z
Si Si1 0.410650 0.463354 0.577820
Si Si2 0.820714 0.419303 0.661170
Si Si3 0.096527 0.735598 0.658142
Si Si4 0.285415 0.537872 0.661647
Si Si5 0.690756 0.657097 0.077137
Si Si6 0.085964 0.570076 0.478714
Si Si7 0.784966 0.354240 0.431511
O O1 0.411931 0.500000 0.500000
O O2 0.500000 0.447845 0.601431
O O3 0.367677 0.506582 0.637682
O O4 0.360115 0.403388 0.564163
O O5 0.833880 0.414036 0.750000
O O6 0.778292 0.484132 0.645342
O O7 0.762260 0.366061 0.631978
O O8 0.899045 0.420334 0.610004
O O9 0.104741 0.736719 0.750000
O O10 0.133284 0.795585 0.619042
O O11 0.156225 0.685565 0.621121
O O12 0.000000 0.728556 0.642674
O O13 0.282591 0.550323 0.750000
O O14 0.267147 0.598979 0.617206
O O15 0.729263 0.676888 0.996212
O O16 0.088972 0.500000 0.500000
O O17 0.156422 0.603770 0.520105
O O18 0.000000 0.594267 0.502243
#
# Coordination Sequence:
#
# PCOD9470128 Si02
#       7
#    16  16  16  16  16  16  16
#     4  10  19  33  55  84 112 142 175 217 273 328
#     4   9  18  31  51  77 104 138 178 220 268 322
#     4  11  24  40  56  79 112 147 185 232 279 324
#     4  10  19  32  51  77 109 144 179 220 267 319
#     4  10  20  35  60  80 107 141 187 227 271 327
#     4  10  19  31  50  74 105 141 178 223 271 320
#     4  11  20  36  57  79 106 142 188 226 269 329
#
# _framework density 17.05958
#
# number of rings (size 3 to 8) (size 9 to 14) (size 15 to 20)
#    0.000    1.857    2.857    2.143    0.000    1.143 
#    0.000    0.000    0.000    0.000    0.000    0.000 
#    0.000    8.000    0.000    0.000    0.000    0.000 
#
# Total GULP energy -311901.347830 kJ/mol
# GULP energy per Si atom -5569.666926 kJ/mol
# Density = 1.702075 g / cm^3
# Si number density = 17.059580 Si / 1000 Ang^3
#
#
#
# Elastic Constant Matrix: (Units=GPa)
#
#
# Indices 1 2 3 4 5 6 
#
# 1 89.1836 25.9413 34.4014 0.0000 0.0000 0.0000
# 2 25.9413 65.0612 31.9580 0.0000 0.0000 0.0000
# 3 34.4014 31.9580 86.4106 0.0000 0.0000 0.0000
# 4 0.0000 0.0000 0.0000 23.2328 0.0000 0.0000
# 5 0.0000 0.0000 0.0000 0.0000 2.3110 0.0000
# 6 0.0000 0.0000 0.0000 0.0000 0.0000 20.6524
#
#
#
# Elastic Compliance Matrix: (Units=1/GPa)
#
#
# Indices 1 2 3 4 5 6 
#
# 1 0.013849 -0.003438 -0.004242 0.000000 0.000000 0.000000
# 2 -0.003438 0.019636 -0.005893 0.000000 0.000000 0.000000
# 3 -0.004242 -0.005893 0.015441 0.000000 0.000000 0.000000
# 4 0.000000 0.000000 0.000000 0.043043 0.000000 0.000000
# 5 0.000000 0.000000 0.000000 0.000000 0.432715 0.000000
# 6 0.000000 0.000000 0.000000 0.000000 0.000000 0.048421
#
#
# Mechanical properties :
#
#
# Convention : Reuss Voigt Hill
#
# Bulk Modulus (GPa) = 45.91585 47.25077 46.58331
# Shear Modulus (GPa) = 8.23030 19.12954 13.67992
#
# Velocity S-wave (km/s) = 2.19884 3.35227 2.83484
# Velocity P-wave (km/s) = 5.78100 6.53768 6.17095
#
# Compressibility (1/GPa) = 0.02177897
#
# Stress axis : x y z
#
# Youngs Moduli (GPa) = 72.20622 50.92726 64.76263
#
# Poissons Ratio (x) = 0.17511 0.27472
# Poissons Ratio (y) = 0.24827 0.38166
# Poissons Ratio (z) = 0.30630 0.30013
#
# Static dielectric constant tensor:
#      x y z
#    x 1.582580 0.000000 0.000000 
#    y 0.000000 1.559470 0.000000 
#    z 0.000000 0.000000 1.583280 
# 
# From -- ./inp_files/46061.got.cif
#   From: 2010.05.17/outbox.cif.g08.bks.cpg/sg63_24_cif.got.tgz:46061.got - 2010.06.03 15:47:04.
