data_PCOD9470237
_publ_section_title
;
Structure prediction by ZEFSAII (Michael W. Deem and Ramdas Pophale) SiO2 
 PCOD9470237
Probable space group: C M C M
;
_chemical_formula_sum "Si O2"
_cell_formula_units_Z 96
_cell_length_a 20.873320
_cell_length_b 29.902970
_cell_length_c 8.167000
_cell_angle_alpha 90.000000
_cell_angle_beta 90.000000
_cell_angle_gamma 90.000000
_cell_volume 5097.631196
_symmetry_space_group_name_H-M "C M C M"
_symmetry_group_IT_number 63
_symmetry_cell_setting 'orthorhombic'
loop_
_space_group_symop_operation_xyz
x,y,z
-x,-y,1/2+z
x,-y,-z
-x,y,1/2-z
-x,-y,-z
x,y,1/2-z
-x,y,z
x,-y,1/2+z
1/2+x,1/2+y,z
1/2-x,1/2-y,1/2+z
1/2+x,1/2-y,-z
1/2-x,1/2+y,1/2-z
1/2-x,1/2-y,-z
1/2+x,1/2+y,1/2-z
1/2-x,1/2+y,z
1/2+x,1/2-y,1/2+z
loop_
_atom_site_type_symbol
_atom_site_label
_atom_site_fract_x
_atom_site_fract_y
_atom_site_fract_z
Si Si1 0.574274 0.369408 0.051448
Si Si2 0.698297 0.095666 0.946663
Si Si3 0.068189 0.448829 0.052749
Si Si4 0.649469 0.717851 0.559036
Si Si5 0.709489 0.804246 0.555278
Si Si6 0.331188 0.551139 0.055392
O O1 0.576104 0.368410 0.250000
O O2 0.500000 0.372367 0.000379
O O3 0.606807 0.322817 0.989756
O O4 0.615679 0.412490 0.999250
O O5 0.697239 0.100006 0.750000
O O6 0.634105 0.071710 0.006881
O O7 0.695889 0.144477 0.024106
O O8 0.762603 0.068799 0.990893
O O9 0.069303 0.446461 0.250000
O O10 0.000000 0.428475 0.997092
O O11 0.067774 0.500000 0.000000
O O12 0.631764 0.720511 0.750000
O O13 0.654688 0.769173 0.497085
O O14 0.723659 0.704043 0.537565
O O15 0.719558 0.796645 0.750000
O O16 0.328863 0.551361 0.250000
O O17 0.343498 0.500000 0.000000
#
# Coordination Sequence:
#
# PCOD9470237 Si02
#       6
#    16  16  16  16  16  16
#     4  10  21  39  62  85 113 151 193 239 292 346
#     4  11  21  35  56  83 115 150 186 233 284 333
#     4   9  19  35  54  76 104 141 183 224 272 330
#     4   9  18  34  55  80 111 145 182 224 274 330
#     4  10  19  31  53  84 113 144 182 226 272 326
#     4  12  25  40  59  84 114 148 191 242 291 345
#
# _framework density 18.832277999999999
#
# number of rings (size 3 to 8) (size 9 to 14) (size 15 to 20)
#    0.000    1.833    1.667    3.000    0.000    4.000 
#    0.000    0.833    0.000    1.000    0.000    0.000 
#    0.000    0.000    0.000    0.000    0.000    0.000 
#
# Total GULP energy -267524.513346 kJ/mol
# GULP energy per Si atom -5573.427361 kJ/mol
# Density = 1.878941 g / cm^3
# Si number density = 18.832278 Si / 1000 Ang^3
#
#
#
# Elastic Constant Matrix: (Units=GPa)
#
#
# Indices 1 2 3 4 5 6 
#
# 1 120.8817 53.8710 2.1739 0.0000 0.0000 0.0000
# 2 53.8710 107.4634 -0.9375 0.0000 0.0000 0.0000
# 3 2.1739 -0.9375 32.2075 0.0000 0.0000 0.0000
# 4 0.0000 0.0000 0.0000 18.5345 0.0000 0.0000
# 5 0.0000 0.0000 0.0000 0.0000 -2.5380 0.0000
# 6 0.0000 0.0000 0.0000 0.0000 0.0000 14.9538
#
#
#
# Elastic Compliance Matrix: (Units=1/GPa)
#
#
# Indices 1 2 3 4 5 6 
#
# 1 0.010677 -0.005360 -0.000877 0.000000 0.000000 0.000000
# 2 -0.005360 0.011999 0.000711 0.000000 0.000000 0.000000
# 3 -0.000877 0.000711 0.031129 0.000000 0.000000 0.000000
# 4 0.000000 0.000000 0.000000 0.053953 0.000000 0.000000
# 5 0.000000 0.000000 0.000000 0.000000 -0.394008 0.000000
# 6 0.000000 0.000000 0.000000 0.000000 0.000000 0.066873
#
#
# Mechanical properties :
#
#
# Convention : Reuss Voigt Hill
#
# Bulk Modulus (GPa) = 23.39020 41.19636 32.29328
# Shear Modulus (GPa) = -25.76323 19.88640 -2.93841
#
# Velocity S-wave (km/s) = -3.70271 3.25310 -1.25048
# Velocity P-wave (km/s) = 2.41513 6.00276 3.88589
#
# Compressibility (1/GPa) = 0.04275294
#
# Stress axis : x y z
#
# Youngs Moduli (GPa) = 93.65933 83.34285 32.12485
#
# Poissons Ratio (x) = 0.44672 0.02816
# Poissons Ratio (y) = 0.50201 -0.02284
# Poissons Ratio (z) = 0.08211 -0.05926
#
# Static dielectric constant tensor:
#      x y z
#    x 1.655000 0.000000 0.000000 
#    y 0.000000 1.724720 0.000000 
#    z 0.000000 0.000000 1.629980 
# 
# From -- ./inp_files/8589.got.cif
#   From: 2010.05.17/outbox.cif.g08.bks.cpg/sg63_5_cif.got.tgz:8589.got - 2010.06.03 15:47:04.
