data_PCOD9470451
_publ_section_title
;
Structure prediction by ZEFSAII (Michael W. Deem and Ramdas Pophale) SiO2 
 PCOD9470451
Probable space group: C M C M
;
_chemical_formula_sum "Si O2"
_cell_formula_units_Z 96
_cell_length_a 7.313358
_cell_length_b 24.995899
_cell_length_c 21.557146
_cell_angle_alpha 90.000000
_cell_angle_beta 90.000000
_cell_angle_gamma 90.000000
_cell_volume 3940.731610
_symmetry_space_group_name_H-M "C M C M"
_symmetry_group_IT_number 63
_symmetry_cell_setting 'orthorhombic'
loop_
_space_group_symop_operation_xyz
x,y,z
-x,-y,1/2+z
x,-y,-z
-x,y,1/2-z
-x,-y,-z
x,y,1/2-z
-x,y,z
x,-y,1/2+z
1/2+x,1/2+y,z
1/2-x,1/2-y,1/2+z
1/2+x,1/2-y,-z
1/2-x,1/2+y,1/2-z
1/2-x,1/2-y,-z
1/2+x,1/2+y,1/2-z
1/2-x,1/2+y,z
1/2+x,1/2-y,1/2+z
loop_
_atom_site_type_symbol
_atom_site_label
_atom_site_fract_x
_atom_site_fract_y
_atom_site_fract_z
Si Si1 0.210966 0.514048 0.121994
Si Si2 0.277271 0.174418 0.576145
Si Si3 0.722994 0.094552 0.678830
Si Si4 0.280066 0.573771 0.250000
Si Si5 0.288601 0.892105 0.960507
Si Si6 0.778675 0.786647 0.613710
Si Si7 0.778203 0.802236 0.750000
O O1 0.288621 0.456081 0.138397
O O2 0.214846 0.545016 0.187736
O O3 0.290744 0.554363 0.070594
O O4 0.000000 0.505032 0.104144
O O5 0.500000 0.175337 0.572006
O O6 0.229707 0.147969 0.641845
O O7 0.209642 0.135686 0.521680
O O8 0.216522 0.235842 0.573737
O O9 0.784562 0.091986 0.750000
O O10 0.500000 0.091576 0.680561
O O11 0.500000 0.571558 0.250000
O O12 0.224935 0.635490 0.250000
O O13 0.500000 0.904413 0.974840
O O14 0.284318 0.844016 0.910551
O O15 0.720327 0.777984 0.684757
O O16 0.000000 0.788424 0.612106
O O17 0.000000 0.800220 0.750000
#
# Coordination Sequence:
#
# PCOD9470451 Si02
#       7
#    16  16  16   8  16  16   8
#     4  10  19  32  52  76 104 133 165 205 252 303
#     4   9  19  32  49  74 102 134 170 208 247 295
#     4   9  17  30  50  76 102 130 167 209 252 293
#     4  11  19  31  50  75 105 131 165 209 254 297
#     4  10  20  33  50  76 105 133 166 205 254 302
#     4  10  19  33  52  74 102 132 168 210 252 298
#     4   9  18  29  46  75  99 123 163 209 250 287
#
# _framework density 24.360958
#
# number of rings (size 3 to 8) (size 9 to 14) (size 15 to 20)
#    0.000    2.333    2.500    0.750    1.167    0.667 
#    0.000    3.750    0.000    2.000    0.000    2.333 
#    0.000    0.000    0.000    0.000    0.000    0.000 
#
# Total GULP energy -268263.914242 kJ/mol
# GULP energy per Si atom -5588.831547 kJ/mol
# Density = 2.430551 g / cm^3
# Si number density = 24.360958 Si / 1000 Ang^3
#
#
#
# Elastic Constant Matrix: (Units=GPa)
#
#
# Indices 1 2 3 4 5 6 
#
# 1 102.5286 -7.5382 -8.8328 0.0000 0.0000 0.0000
# 2 -7.5382 78.7185 13.6656 0.0000 0.0000 0.0000
# 3 -8.8328 13.6656 71.8498 0.0000 0.0000 0.0000
# 4 0.0000 0.0000 0.0000 6.8667 0.0000 0.0000
# 5 0.0000 0.0000 0.0000 0.0000 596.5899 0.0000
# 6 0.0000 0.0000 0.0000 0.0000 0.0000 -2.7028
#
#
#
# Elastic Compliance Matrix: (Units=1/GPa)
#
#
# Indices 1 2 3 4 5 6 
#
# 1 0.009902 0.000762 0.001072 0.000000 0.000000 0.000000
# 2 0.000762 0.013196 -0.002416 0.000000 0.000000 0.000000
# 3 0.001072 -0.002416 0.014509 0.000000 0.000000 0.000000
# 4 0.000000 0.000000 0.000000 0.145631 0.000000 0.000000
# 5 0.000000 0.000000 0.000000 0.000000 0.001676 0.000000
# 6 0.000000 0.000000 0.000000 0.000000 0.000000 -0.369992
#
#
# Mechanical properties :
#
#
# Convention : Reuss Voigt Hill
#
# Bulk Modulus (GPa) = 27.43973 27.52065 27.48019
# Shear Modulus (GPa) = -29.10928 137.20426 54.04749
#
# Velocity S-wave (km/s) = -3.46050 7.51290 4.71532
# Velocity P-wave (km/s) = 2.16299 9.30482 6.39927
#
# Compressibility (1/GPa) = 0.03644351
#
# Stress axis : x y z
#
# Youngs Moduli (GPa) = 100.99189 75.78107 68.92134
#
# Poissons Ratio (x) = -0.05775 -0.07391
# Poissons Ratio (y) = -0.07696 0.16652
# Poissons Ratio (z) = -0.10830 0.18310
#
# Static dielectric constant tensor:
#      x y z
#    x 1.974230 0.000000 0.000000 
#    y 0.000000 1.882260 0.000000 
#    z 0.000000 0.000000 1.917010 
# 
# From -- ./inp_files/60092.got.cif
#   From: 2010.05.17/outbox.cif.g08.bks.cpg/sg63_31_cif.got.tgz:60092.got - 2010.06.03 15:47:04.
