data_PCOD9470920
_publ_section_title
;
Structure prediction by ZEFSAII (Michael W. Deem and Ramdas Pophale) SiO2 
 PCOD9470920
Probable space group: C M C M
;
_chemical_formula_sum "Si O2"
_cell_formula_units_Z 72
_cell_length_a 13.514653
_cell_length_b 18.262874
_cell_length_c 15.914709
_cell_angle_alpha 90.000000
_cell_angle_beta 90.000000
_cell_angle_gamma 90.000000
_cell_volume 3928.011260
_symmetry_space_group_name_H-M "C M C M"
_symmetry_group_IT_number 63
_symmetry_cell_setting 'orthorhombic'
loop_
_space_group_symop_operation_xyz
x,y,z
-x,-y,1/2+z
x,-y,-z
-x,y,1/2-z
-x,-y,-z
x,y,1/2-z
-x,y,z
x,-y,1/2+z
1/2+x,1/2+y,z
1/2-x,1/2-y,1/2+z
1/2+x,1/2-y,-z
1/2-x,1/2+y,1/2-z
1/2-x,1/2-y,-z
1/2+x,1/2+y,1/2-z
1/2-x,1/2+y,z
1/2+x,1/2-y,1/2+z
loop_
_atom_site_type_symbol
_atom_site_label
_atom_site_fract_x
_atom_site_fract_y
_atom_site_fract_z
Si Si1 0.785677 0.508049 0.750000
Si Si2 0.111830 0.642363 0.250000
Si Si3 0.886935 0.274982 0.061630
Si Si4 0.883978 0.447996 0.425269
Si Si5 0.676136 0.263007 0.121959
Si Si6 0.883577 0.113121 0.750000
O O1 0.809489 0.422393 0.750000
O O2 0.833931 0.539246 0.664559
O O3 0.674245 0.537061 0.750000
O O4 0.127201 0.695389 0.170731
O O5 0.000000 0.612244 0.250000
O O6 0.876758 0.362835 0.050022
O O7 0.795158 0.253773 0.120958
O O8 0.000000 0.260407 0.089154
O O9 0.864403 0.237167 0.972514
O O10 0.844589 0.500000 0.500000
O O11 0.000000 0.466007 0.415014
O O12 0.648442 0.336837 0.170774
O O13 0.000000 0.104066 0.750000
#
# Coordination Sequence:
#
# PCOD9470920 Si02
#       6
#     8   8  16  16  16   8
#     4  12  22  38  57  88 117 157 198 250 302 359
#     4  11  22  37  59  83 110 148 196 245 296 351
#     4  10  19  33  56  87 119 151 192 245 301 352
#     4  10  20  34  56  88 124 156 191 242 306 360
#     4  10  20  37  58  85 117 153 198 243 291 357
#     4  11  22  39  60  83 115 161 206 243 294 362
#
# _framework density 18.329886999999999
#
# number of rings (size 3 to 8) (size 9 to 14) (size 15 to 20)
#    0.000    1.556    2.222    5.000    0.000    1.778 
#    0.000    3.333    0.000    0.667    0.000    0.000 
#    0.000    0.000    0.000    0.000    0.000    0.000 
#
# Total GULP energy -200927.795552 kJ/mol
# GULP energy per Si atom -5581.327654 kJ/mol
# Density = 1.828817 g / cm^3
# Si number density = 18.329887 Si / 1000 Ang^3
#
#
#
# Elastic Constant Matrix: (Units=GPa)
#
#
# Indices 1 2 3 4 5 6 
#
# 1 130.9215 23.6653 33.0353 0.0000 0.0000 0.0000
# 2 23.6653 57.5504 6.1171 0.0000 0.0000 0.0000
# 3 33.0353 6.1171 75.7743 0.0000 0.0000 0.0000
# 4 0.0000 0.0000 0.0000 6.3269 0.0000 0.0000
# 5 0.0000 0.0000 0.0000 0.0000 4.9739 0.0000
# 6 0.0000 0.0000 0.0000 0.0000 0.0000 26.3245
#
#
#
# Elastic Compliance Matrix: (Units=1/GPa)
#
#
# Indices 1 2 3 4 5 6 
#
# 1 0.009192 -0.003383 -0.003734 0.000000 0.000000 0.000000
# 2 -0.003383 0.018771 -0.000041 0.000000 0.000000 0.000000
# 3 -0.003734 -0.000041 0.014828 0.000000 0.000000 0.000000
# 4 0.000000 0.000000 0.000000 0.158056 0.000000 0.000000
# 5 0.000000 0.000000 0.000000 0.000000 0.201049 0.000000
# 6 0.000000 0.000000 0.000000 0.000000 0.000000 0.037987
#
#
# Mechanical properties :
#
#
# Convention : Reuss Voigt Hill
#
# Bulk Modulus (GPa) = 35.11689 43.32016 39.21852
# Shear Modulus (GPa) = 10.78303 20.95363 15.86833
#
# Velocity S-wave (km/s) = 2.42807 3.38470 2.94548
# Velocity P-wave (km/s) = 5.20198 6.24179 5.74545
#
# Compressibility (1/GPa) = 0.02847633
#
# Stress axis : x y z
#
# Youngs Moduli (GPa) = 108.79109 53.27237 67.43811
#
# Poissons Ratio (x) = 0.18021 0.25183
# Poissons Ratio (y) = 0.36803 0.00273
# Poissons Ratio (z) = 0.40626 0.00216
#
# Static dielectric constant tensor:
#      x y z
#    x 1.638410 0.000000 0.000000 
#    y 0.000000 1.617540 0.000000 
#    z 0.000000 0.000000 1.639730 
# 
# From -- ./inp_files/42101.got.cif
#   From: 2010.05.17/outbox.cif.g08.bks.cpg/sg63_22_cif.got.tgz:42101.got - 2010.06.03 15:47:04.
