data_PCOD9470698
_publ_section_title
;
Structure prediction by ZEFSAII (Michael W. Deem and Ramdas Pophale) SiO2 
 PCOD9470698
Probable space group: C M C M
;
_chemical_formula_sum "Si O2"
_cell_formula_units_Z 96
_cell_length_a 13.540961
_cell_length_b 14.950422
_cell_length_c 25.436532
_cell_angle_alpha 90.000000
_cell_angle_beta 90.000000
_cell_angle_gamma 90.000000
_cell_volume 5149.449914
_symmetry_space_group_name_H-M "C M C M"
_symmetry_group_IT_number 63
_symmetry_cell_setting 'orthorhombic'
loop_
_space_group_symop_operation_xyz
x,y,z
-x,-y,1/2+z
x,-y,-z
-x,y,1/2-z
-x,-y,-z
x,y,1/2-z
-x,y,z
x,-y,1/2+z
1/2+x,1/2+y,z
1/2-x,1/2-y,1/2+z
1/2+x,1/2-y,-z
1/2-x,1/2+y,1/2-z
1/2-x,1/2-y,-z
1/2+x,1/2+y,1/2-z
1/2-x,1/2+y,z
1/2+x,1/2-y,1/2+z
loop_
_atom_site_type_symbol
_atom_site_label
_atom_site_fract_x
_atom_site_fract_y
_atom_site_fract_z
Si Si1 0.119151 0.771817 0.512957
Si Si2 0.618866 0.302544 0.634417
Si Si3 0.885439 0.061319 0.947858
Si Si4 0.881536 0.584606 0.035915
Si Si5 0.253169 0.962561 0.633766
Si Si6 0.885718 0.389737 0.312514
O O1 0.145699 0.797793 0.572315
O O2 0.147396 0.842260 0.468341
O O3 0.148410 0.673669 0.494908
O O4 0.000000 0.773502 0.513933
O O5 0.500000 0.320532 0.639138
O O6 0.686885 0.382017 0.657314
O O7 0.637384 0.204950 0.659352
O O8 0.000000 0.064079 0.931477
O O9 0.820734 0.021137 0.901927
O O10 0.880808 0.000000 0.000000
O O11 0.831354 0.577910 0.092304
O O12 0.000000 0.584033 0.041544
O O13 0.853624 0.500000 0.000000
O O14 0.313071 0.030427 0.670720
O O15 0.881646 0.376758 0.250000
O O16 0.000000 0.411900 0.327176
#
# Coordination Sequence:
#
# PCOD9470698 Si02
#       6
#    16  16  16  16  16  16
#     4   9  18  33  52  76 119 162 188 218 268 338
#     4  10  21  38  61  89 119 155 196 238 285 349
#     4  10  19  33  52  84 127 162 185 215 273 345
#     4  10  21  34  48  77 119 157 194 235 277 332
#     4  12  22  33  61  89 114 148 199 246 285 346
#     4  10  24  46  65  81 109 150 197 255 315 358
#
# _framework density 18.642769000000001
#
# number of rings (size 3 to 8) (size 9 to 14) (size 15 to 20)
#    0.000    1.833    1.667    2.500    2.333    4.000 
#    0.000    0.000    0.000    1.500    0.000    0.000 
#    0.000    0.000    0.000    0.000    0.000    0.000 
#
# Total GULP energy -268144.385475 kJ/mol
# GULP energy per Si atom -5586.341364 kJ/mol
# Density = 1.860034 g / cm^3
# Si number density = 18.642769 Si / 1000 Ang^3
#
#
#
# Elastic Constant Matrix: (Units=GPa)
#
#
# Indices 1 2 3 4 5 6 
#
# 1 99.5504 37.3017 18.3384 0.0000 0.0000 0.0000
# 2 37.3017 131.2390 16.8594 0.0000 0.0000 0.0000
# 3 18.3384 16.8594 34.7821 0.0000 0.0000 0.0000
# 4 0.0000 0.0000 0.0000 13.5146 0.0000 0.0000
# 5 0.0000 0.0000 0.0000 0.0000 12.9697 0.0000
# 6 0.0000 0.0000 0.0000 0.0000 0.0000 11.0017
#
#
#
# Elastic Compliance Matrix: (Units=1/GPa)
#
#
# Indices 1 2 3 4 5 6 
#
# 1 0.012002 -0.002771 -0.004985 0.000000 0.000000 0.000000
# 2 -0.002771 0.008765 -0.002788 0.000000 0.000000 0.000000
# 3 -0.004985 -0.002788 0.032730 0.000000 0.000000 0.000000
# 4 0.000000 0.000000 0.000000 0.073994 0.000000 0.000000
# 5 0.000000 0.000000 0.000000 0.000000 0.077103 0.000000
# 6 0.000000 0.000000 0.000000 0.000000 0.000000 0.090895
#
#
# Mechanical properties :
#
#
# Convention : Reuss Voigt Hill
#
# Bulk Modulus (GPa) = 30.85445 45.61894 38.23669
# Shear Modulus (GPa) = 15.27284 20.36867 17.82075
#
# Velocity S-wave (km/s) = 2.86534 3.30900 3.09513
# Velocity P-wave (km/s) = 5.24720 6.25480 5.77303
#
# Compressibility (1/GPa) = 0.03241024
#
# Stress axis : x y z
#
# Youngs Moduli (GPa) = 83.32198 114.08537 30.55314
#
# Poissons Ratio (x) = 0.31611 0.15230
# Poissons Ratio (y) = 0.23087 0.08518
# Poissons Ratio (z) = 0.41533 0.31805
#
# Static dielectric constant tensor:
#      x y z
#    x 1.697700 0.000000 0.000000 
#    y 0.000000 1.687690 0.000000 
#    z 0.000000 0.000000 1.593160 
# 
# From -- ./inp_files/54189.got.cif
#   From: 2010.05.17/outbox.cif.g08.bks.cpg/sg63_28_cif.got.tgz:54189.got - 2010.06.03 15:47:04.
