data_PCOD9470642
_publ_section_title
;
Structure prediction by ZEFSAII (Michael W. Deem and Ramdas Pophale) SiO2 
 PCOD9470642
Probable space group: C M C M
;
_chemical_formula_sum "Si O2"
_cell_formula_units_Z 88
_cell_length_a 22.840164
_cell_length_b 25.209072
_cell_length_c 8.918835
_cell_angle_alpha 90.000000
_cell_angle_beta 90.000000
_cell_angle_gamma 90.000000
_cell_volume 5135.280919
_symmetry_space_group_name_H-M "C M C M"
_symmetry_group_IT_number 63
_symmetry_cell_setting 'orthorhombic'
loop_
_space_group_symop_operation_xyz
x,y,z
-x,-y,1/2+z
x,-y,-z
-x,y,1/2-z
-x,-y,-z
x,y,1/2-z
-x,y,z
x,-y,1/2+z
1/2+x,1/2+y,z
1/2-x,1/2-y,1/2+z
1/2+x,1/2-y,-z
1/2-x,1/2+y,1/2-z
1/2-x,1/2-y,-z
1/2+x,1/2+y,1/2-z
1/2-x,1/2+y,z
1/2+x,1/2-y,1/2+z
loop_
_atom_site_type_symbol
_atom_site_label
_atom_site_fract_x
_atom_site_fract_y
_atom_site_fract_z
Si Si1 0.646715 0.942870 0.570085
Si Si2 0.430503 0.262088 0.071763
Si Si3 0.388334 0.369413 0.930957
Si Si4 0.282584 0.443466 0.570127
Si Si5 0.000000 0.058351 0.430291
Si Si6 0.569286 0.149441 0.571184
O O1 0.641737 0.945165 0.750000
O O2 0.715007 0.932248 0.530718
O O3 0.606174 0.897053 0.504446
O O4 0.631431 0.000000 0.500000
O O5 0.422427 0.258224 0.250000
O O6 0.500000 0.270128 0.041840
O O7 0.397309 0.312548 0.005507
O O8 0.413520 0.206777 0.994552
O O9 0.389495 0.363452 0.750000
O O10 0.328240 0.398317 0.975507
O O11 0.442513 0.407879 0.972884
O O12 0.299091 0.500000 0.500000
O O13 0.285873 0.448309 0.750000
O O14 0.000000 0.053172 0.250000
O O15 0.000000 0.000000 0.500000
O O16 0.577232 0.148842 0.750000
O O17 0.500000 0.142229 0.539403
#
# Coordination Sequence:
#
# PCOD9470642 Si02
#       6
#    16  16  16  16   8  16
#     4  10  20  36  57  81 109 140 174 213 259 312
#     4  10  20  34  53  78 106 138 176 219 265 314
#     4  10  19  33  51  74 104 141 181 219 264 312
#     4   9  19  34  53  76 105 141 179 219 262 311
#     4  10  20  30  46  72 104 138 175 222 267 306
#     4  10  21  37  58  82 107 136 170 212 263 317
#
# _framework density 17.136355999999999
#
# number of rings (size 3 to 8) (size 9 to 14) (size 15 to 20)
#    0.000    2.182    0.909    2.182    0.000    4.364 
#    0.000    0.909    0.000    0.000    0.000    0.000 
#    0.000    0.000    0.000    0.000    0.000    0.000 
#
# Total GULP energy -245616.913927 kJ/mol
# GULP energy per Si atom -5582.202589 kJ/mol
# Density = 1.709735 g / cm^3
# Si number density = 17.136356 Si / 1000 Ang^3
#
#
#
# Elastic Constant Matrix: (Units=GPa)
#
#
# Indices 1 2 3 4 5 6 
#
# 1 78.3607 100.5733 47.8321 0.0000 0.0000 0.0000
# 2 100.5733 197.4512 70.6428 0.0000 0.0000 0.0000
# 3 47.8321 70.6428 44.8404 0.0000 0.0000 0.0000
# 4 0.0000 0.0000 0.0000 39.9862 0.0000 0.0000
# 5 0.0000 0.0000 0.0000 0.0000 19.7340 0.0000
# 6 0.0000 0.0000 0.0000 0.0000 0.0000 29.5939
#
#
#
# Elastic Compliance Matrix: (Units=1/GPa)
#
#
# Indices 1 2 3 4 5 6 
#
# 1 0.050109 -0.014666 -0.030347 0.000000 0.000000 0.000000
# 2 -0.014666 0.015899 -0.009403 0.000000 0.000000 0.000000
# 3 -0.030347 -0.009403 0.069486 0.000000 0.000000 0.000000
# 4 0.000000 0.000000 0.000000 0.025009 0.000000 0.000000
# 5 0.000000 0.000000 0.000000 0.000000 0.050674 0.000000
# 6 0.000000 0.000000 0.000000 0.000000 0.000000 0.033791
#
#
# Mechanical properties :
#
#
# Convention : Reuss Voigt Hill
#
# Bulk Modulus (GPa) = 37.50567 84.30542 60.90554
# Shear Modulus (GPa) = 13.78600 24.63644 19.21122
#
# Velocity S-wave (km/s) = 2.83943 3.79578 3.35188
# Velocity P-wave (km/s) = 5.71699 8.27733 7.11330
#
# Compressibility (1/GPa) = 0.02666263
#
# Stress axis : x y z
#
# Youngs Moduli (GPa) = 19.95656 62.89690 14.39130
#
# Poissons Ratio (x) = 0.92245 0.43673
# Poissons Ratio (y) = 0.29269 0.13532
# Poissons Ratio (z) = 0.60561 0.59143
#
# Static dielectric constant tensor:
#      x y z
#    x 1.578340 0.000000 0.000000 
#    y 0.000000 1.540660 0.000000 
#    z 0.000000 0.000000 1.568210 
# 
# From -- ./inp_files/10210.got.cif
#   From: 2010.05.17/outbox.cif.g08.bks.cpg/sg63_6_cif.got.tgz:10210.got - 2010.06.03 15:47:04.
