data_PCOD9470439
_publ_section_title
;
Structure prediction by ZEFSAII (Michael W. Deem and Ramdas Pophale) SiO2 
 PCOD9470439
Probable space group: C M C M
;
_chemical_formula_sum "Si O2"
_cell_formula_units_Z 80
_cell_length_a 14.099996
_cell_length_b 18.809299
_cell_length_c 15.779306
_cell_angle_alpha 90.000000
_cell_angle_beta 90.000000
_cell_angle_gamma 90.000000
_cell_volume 4184.846165
_symmetry_space_group_name_H-M "C M C M"
_symmetry_group_IT_number 63
_symmetry_cell_setting 'orthorhombic'
loop_
_space_group_symop_operation_xyz
x,y,z
-x,-y,1/2+z
x,-y,-z
-x,y,1/2-z
-x,-y,-z
x,y,1/2-z
-x,y,z
x,-y,1/2+z
1/2+x,1/2+y,z
1/2-x,1/2-y,1/2+z
1/2+x,1/2-y,-z
1/2-x,1/2+y,1/2-z
1/2-x,1/2-y,-z
1/2+x,1/2+y,1/2-z
1/2-x,1/2+y,z
1/2+x,1/2-y,1/2+z
loop_
_atom_site_type_symbol
_atom_site_label
_atom_site_fract_x
_atom_site_fract_y
_atom_site_fract_z
Si Si1 0.395209 0.610797 0.848696
Si Si2 0.893574 0.472319 0.352480
Si Si3 0.702641 0.824882 0.353541
Si Si4 0.888573 0.176439 0.147405
Si Si5 0.698335 0.471070 0.906004
O O1 0.402435 0.630756 0.750000
O O2 0.500000 0.617562 0.887540
O O3 0.308806 0.657357 0.885018
O O4 0.359109 0.529385 0.851337
O O5 0.892758 0.474721 0.250000
O O6 0.862888 0.392091 0.377587
O O7 0.809545 0.522739 0.384223
O O8 0.000000 0.488869 0.381470
O O9 0.704368 0.824977 0.250000
O O10 0.661629 0.749458 0.380233
O O11 0.879600 0.171360 0.250000
O O12 0.000000 0.179095 0.127610
O O13 0.841285 0.106867 0.108220
O O14 0.684269 0.500000 0.000000
#
# Coordination Sequence:
#
# PCOD9470439 Si02
#       5
#    16  16  16  16  16
#     4   9  17  32  53  73  97 132 169 204 245 295
#     4   9  17  33  56  75  93 124 165 204 243 293
#     4   8  15  29  51  77  97 116 156 210 254 291
#     4  10  19  32  52  76 100 126 161 208 253 289
#     4  11  22  33  47  71 104 136 166 202 242 289
#
# _framework density 19.116593000000002
#
# number of rings (size 3 to 8) (size 9 to 14) (size 15 to 20)
#    0.000    2.600    0.000    4.200    0.000    6.000 
#    0.000    5.000    0.000    6.000    0.000    0.000 
#    0.000    0.000    0.000    0.000    0.000    0.000 
#
# Total GULP energy -223107.089551 kJ/mol
# GULP energy per Si atom -5577.677239 kJ/mol
# Density = 1.907308 g / cm^3
# Si number density = 19.116593 Si / 1000 Ang^3
#
#
#
# Elastic Constant Matrix: (Units=GPa)
#
#
# Indices 1 2 3 4 5 6 
#
# 1 153.0313 53.7019 7.9164 0.0000 0.0000 0.0000
# 2 53.7019 91.5664 -0.7241 0.0000 0.0000 0.0000
# 3 7.9164 -0.7241 18.7942 0.0000 0.0000 0.0000
# 4 0.0000 0.0000 0.0000 -30.3405 0.0000 0.0000
# 5 0.0000 0.0000 0.0000 0.0000 0.5665 0.0000
# 6 0.0000 0.0000 0.0000 0.0000 0.0000 12.9313
#
#
#
# Elastic Compliance Matrix: (Units=1/GPa)
#
#
# Indices 1 2 3 4 5 6 
#
# 1 0.008487 -0.005007 -0.003768 0.000000 0.000000 0.000000
# 2 -0.005007 0.013878 0.002644 0.000000 0.000000 0.000000
# 3 -0.003768 0.002644 0.054897 0.000000 0.000000 0.000000
# 4 0.000000 0.000000 0.000000 -0.032959 0.000000 0.000000
# 5 0.000000 0.000000 0.000000 0.000000 1.765305 0.000000
# 6 0.000000 0.000000 0.000000 0.000000 0.000000 0.077332
#
#
# Mechanical properties :
#
#
# Convention : Reuss Voigt Hill
#
# Bulk Modulus (GPa) = 15.38457 42.79779 29.09118
# Shear Modulus (GPa) = 2.60299 10.13130 6.36715
#
# Velocity S-wave (km/s) = 1.16816 2.30461 1.82700
# Velocity P-wave (km/s) = 3.14399 5.43305 4.43862
#
# Compressibility (1/GPa) = 0.06500018
#
# Stress axis : x y z
#
# Youngs Moduli (GPa) = 117.83328 72.05413 18.21599
#
# Poissons Ratio (x) = 0.36077 0.06863
# Poissons Ratio (y) = 0.58999 -0.04816
# Poissons Ratio (z) = 0.44395 -0.19049
#
# Static dielectric constant tensor:
#      x y z
#    x 1.685540 0.000000 0.000000 
#    y 0.000000 1.628050 0.000000 
#    z 0.000000 0.000000 2.060220 
# 
# From -- ./inp_files/43930.got.cif
#   From: 2010.05.17/outbox.cif.g08.bks.cpg/sg63_22_cif.got.tgz:43930.got - 2010.06.03 15:47:04.
