data_PCOD9470731
_publ_section_title
;
Structure prediction by ZEFSAII (Michael W. Deem and Ramdas Pophale) SiO2 
 PCOD9470731
Probable space group: C M C M
;
_chemical_formula_sum "Si O2"
_cell_formula_units_Z 80
_cell_length_a 14.172530
_cell_length_b 18.913773
_cell_length_c 16.296773
_cell_angle_alpha 90.000000
_cell_angle_beta 90.000000
_cell_angle_gamma 90.000000
_cell_volume 4368.448032
_symmetry_space_group_name_H-M "C M C M"
_symmetry_group_IT_number 63
_symmetry_cell_setting 'orthorhombic'
loop_
_space_group_symop_operation_xyz
x,y,z
-x,-y,1/2+z
x,-y,-z
-x,y,1/2-z
-x,-y,-z
x,y,1/2-z
-x,y,z
x,-y,1/2+z
1/2+x,1/2+y,z
1/2-x,1/2-y,1/2+z
1/2+x,1/2-y,-z
1/2-x,1/2+y,1/2-z
1/2-x,1/2-y,-z
1/2+x,1/2+y,1/2-z
1/2-x,1/2+y,z
1/2+x,1/2-y,1/2+z
loop_
_atom_site_type_symbol
_atom_site_label
_atom_site_fract_x
_atom_site_fract_y
_atom_site_fract_z
Si Si1 0.108225 0.894683 0.444978
Si Si2 0.763102 0.003170 0.655842
Si Si3 0.764329 0.642761 0.066850
Si Si4 0.606651 0.746802 0.652530
Si Si5 0.106447 0.431127 0.440090
O O1 0.162641 0.962565 0.408247
O O2 0.163486 0.860043 0.521690
O O3 0.111323 0.834423 0.375123
O O4 0.000000 0.910745 0.464537
O O5 0.793434 0.008103 0.750000
O O6 0.667800 0.047313 0.638276
O O7 0.740249 0.922963 0.629884
O O8 0.808181 0.710314 0.111025
O O9 0.837263 0.625691 0.993247
O O10 0.613579 0.753226 0.750000
O O11 0.500000 0.772802 0.628419
O O12 0.105300 0.500000 0.500000
O O13 0.000000 0.411012 0.421347
#
# Coordination Sequence:
#
# PCOD9470731 Si02
#       5
#    16  16  16  16  16
#     4  10  21  37  55  75 103 142 182 215 254 309
#     4  10  20  32  49  75 105 137 174 219 265 307
#     4  10  19  33  53  77 104 134 175 220 261 306
#     4  10  20  34  55  82 108 134 167 213 267 316
#     4   8  15  28  45  67  98 133 165 201 251 310
#
# _framework density 18.313140000000001
#
# number of rings (size 3 to 8) (size 9 to 14) (size 15 to 20)
#    0.000    2.400    0.000    4.200    0.000    4.000 
#    0.000    0.000    0.000    1.800    0.000    0.000 
#    0.000    0.000    0.000    0.000    0.000    0.000 
#
# Total GULP energy -222960.557351 kJ/mol
# GULP energy per Si atom -5574.013934 kJ/mol
# Density = 1.827146 g / cm^3
# Si number density = 18.313140 Si / 1000 Ang^3
#
#
#
# Elastic Constant Matrix: (Units=GPa)
#
#
# Indices 1 2 3 4 5 6 
#
# 1 105.0772 1.6079 9.3629 0.0000 0.0000 0.0000
# 2 1.6079 40.7505 -2.6283 0.0000 0.0000 0.0000
# 3 9.3629 -2.6283 56.6948 0.0000 0.0000 0.0000
# 4 0.0000 0.0000 0.0000 20.1475 0.0000 0.0000
# 5 0.0000 0.0000 0.0000 0.0000 17.4134 0.0000
# 6 0.0000 0.0000 0.0000 0.0000 0.0000 19.5143
#
#
#
# Elastic Compliance Matrix: (Units=1/GPa)
#
#
# Indices 1 2 3 4 5 6 
#
# 1 0.009669 -0.000486 -0.001619 0.000000 0.000000 0.000000
# 2 -0.000486 0.024638 0.001222 0.000000 0.000000 0.000000
# 3 -0.001619 0.001222 0.017962 0.000000 0.000000 0.000000
# 4 0.000000 0.000000 0.000000 0.049634 0.000000 0.000000
# 5 0.000000 0.000000 0.000000 0.000000 0.057427 0.000000
# 6 0.000000 0.000000 0.000000 0.000000 0.000000 0.051245
#
#
# Mechanical properties :
#
#
# Convention : Reuss Voigt Hill
#
# Bulk Modulus (GPa) = 19.80080 24.35637 22.07858
# Shear Modulus (GPa) = 21.81752 24.36039 23.08895
#
# Velocity S-wave (km/s) = 3.45535 3.65117 3.55461
# Velocity P-wave (km/s) = 5.17253 5.57705 5.37860
#
# Compressibility (1/GPa) = 0.05050302
#
# Stress axis : x y z
#
# Youngs Moduli (GPa) = 103.42833 40.58836 55.67193
#
# Poissons Ratio (x) = 0.01972 0.09015
# Poissons Ratio (y) = 0.05026 -0.06805
# Poissons Ratio (z) = 0.16747 -0.04962
#
# Static dielectric constant tensor:
#      x y z
#    x 1.652250 0.000000 0.000000 
#    y 0.000000 1.636020 0.000000 
#    z 0.000000 0.000000 1.611270 
# 
# From -- ./inp_files/31659.got.cif
#   From: 2010.05.17/outbox.cif.g08.bks.cpg/sg63_16_cif.got.tgz:31659.got - 2010.06.03 15:47:04.
