data_PCOD9470052
_publ_section_title
;
Structure prediction by ZEFSAII (Michael W. Deem and Ramdas Pophale) SiO2 
 PCOD9470052
Probable space group: C M C M
;
_chemical_formula_sum "Si O2"
_cell_formula_units_Z 96
_cell_length_a 7.376378
_cell_length_b 21.206954
_cell_length_c 27.828394
_cell_angle_alpha 90.000000
_cell_angle_beta 90.000000
_cell_angle_gamma 90.000000
_cell_volume 4353.209836
_symmetry_space_group_name_H-M "C M C M"
_symmetry_group_IT_number 63
_symmetry_cell_setting 'orthorhombic'
loop_
_space_group_symop_operation_xyz
x,y,z
-x,-y,1/2+z
x,-y,-z
-x,y,1/2-z
-x,-y,-z
x,y,1/2-z
-x,y,z
x,-y,1/2+z
1/2+x,1/2+y,z
1/2-x,1/2-y,1/2+z
1/2+x,1/2-y,-z
1/2-x,1/2+y,1/2-z
1/2-x,1/2-y,-z
1/2+x,1/2+y,1/2-z
1/2-x,1/2+y,z
1/2+x,1/2-y,1/2+z
loop_
_atom_site_type_symbol
_atom_site_label
_atom_site_fract_x
_atom_site_fract_y
_atom_site_fract_z
Si Si1 0.282084 0.320861 0.195174
Si Si2 0.778376 0.696420 0.139140
Si Si3 0.221541 0.430029 0.694640
Si Si4 0.285428 0.948033 0.363297
Si Si5 0.216312 0.686480 0.029528
Si Si6 0.278344 0.063548 0.972338
O O1 0.215160 0.320889 0.250000
O O2 0.500000 0.316235 0.197223
O O3 0.217791 0.260361 0.165177
O O4 0.239092 0.385533 0.168121
O O5 0.724149 0.634718 0.168938
O O6 0.716120 0.692104 0.084064
O O7 0.000000 0.697407 0.138739
O O8 0.279501 0.432803 0.750000
O O9 0.284921 0.490641 0.664591
O O10 0.000000 0.430863 0.694985
O O11 0.500000 0.958820 0.368652
O O12 0.215040 0.938402 0.417237
O O13 0.000000 0.678541 0.033296
O O14 0.250000 0.750000 0.000000
O O15 0.284443 0.625586 0.000645
O O16 0.500000 0.065436 0.971843
O O17 0.226305 0.000000 0.000000
#
# Coordination Sequence:
#
# PCOD9470052 Si02
#       6
#    16  16  16  16  16  16
#     4  10  20  33  49  69  95 127 159 194 239 288
#     4   9  17  30  48  69  92 121 160 199 231 270
#     4   9  16  27  46  71  94 117 153 200 238 267
#     4  10  19  31  50  75 100 125 156 197 241 284
#     4  10  19  31  49  71  95 124 156 192 233 277
#     4   9  17  30  49  73  99 127 160 196 236 283
#
# _framework density 22.052695
#
# number of rings (size 3 to 8) (size 9 to 14) (size 15 to 20)
#    0.000    2.500    0.000    3.000    0.000    7.000 
#    0.000    0.000    0.000    6.000    0.000    0.000 
#    0.000    0.000    0.000    0.000    0.000    0.000 
#
# Total GULP energy -268376.461964 kJ/mol
# GULP energy per Si atom -5591.176291 kJ/mol
# Density = 2.200250 g / cm^3
# Si number density = 22.052695 Si / 1000 Ang^3
#
#
#
# Elastic Constant Matrix: (Units=GPa)
#
#
# Indices 1 2 3 4 5 6 
#
# 1 75.4013 -13.5969 -3.3866 0.0000 0.0000 0.0000
# 2 -13.5969 197.7871 105.2418 0.0000 0.0000 0.0000
# 3 -3.3866 105.2418 221.0771 0.0000 0.0000 0.0000
# 4 0.0000 0.0000 0.0000 31.4313 0.0000 0.0000
# 5 0.0000 0.0000 0.0000 0.0000 0.2628 0.0000
# 6 0.0000 0.0000 0.0000 0.0000 0.0000 21.9480
#
#
#
# Elastic Compliance Matrix: (Units=1/GPa)
#
#
# Indices 1 2 3 4 5 6 
#
# 1 0.013445 0.001091 -0.000313 0.000000 0.000000 0.000000
# 2 0.001091 0.006860 -0.003249 0.000000 0.000000 0.000000
# 3 -0.000313 -0.003249 0.006065 0.000000 0.000000 0.000000
# 4 0.000000 0.000000 0.000000 0.031815 0.000000 0.000000
# 5 0.000000 0.000000 0.000000 0.000000 3.805481 0.000000
# 6 0.000000 0.000000 0.000000 0.000000 0.000000 0.045562
#
#
# Mechanical properties :
#
#
# Convention : Reuss Voigt Hill
#
# Bulk Modulus (GPa) = 46.66910 74.53136 60.60023
# Shear Modulus (GPa) = 1.27508 37.79556 19.53532
#
# Velocity S-wave (km/s) = 0.76122 4.14439 2.97955
# Velocity P-wave (km/s) = 4.68840 7.53469 6.27506
#
# Compressibility (1/GPa) = 0.02142746
#
# Stress axis : x y z
#
# Youngs Moduli (GPa) = 74.37686 145.78137 164.87941
#
# Poissons Ratio (x) = -0.15906 0.05168
# Poissons Ratio (y) = -0.08115 0.53565
# Poissons Ratio (z) = 0.02331 0.47360
#
# Static dielectric constant tensor:
#      x y z
#    x 1.881890 0.000000 0.000000 
#    y 0.000000 1.732150 0.000000 
#    z 0.000000 0.000000 1.763900 
# 
# From -- ./inp_files/61461.got.cif
#   From: 2010.05.17/outbox.cif.g08.bks.cpg/sg63_31_cif.got.tgz:61461.got - 2010.06.03 15:47:04.
