data_PCOD9470966
_publ_section_title
;
Structure prediction by ZEFSAII (Michael W. Deem and Ramdas Pophale) SiO2 
 PCOD9470966
Probable space group: C M C M
;
_chemical_formula_sum "Si O2"
_cell_formula_units_Z 56
_cell_length_a 12.435815
_cell_length_b 13.818750
_cell_length_c 14.243433
_cell_angle_alpha 90.000000
_cell_angle_beta 90.000000
_cell_angle_gamma 90.000000
_cell_volume 2447.697192
_symmetry_space_group_name_H-M "C M C M"
_symmetry_group_IT_number 63
_symmetry_cell_setting 'orthorhombic'
loop_
_space_group_symop_operation_xyz
x,y,z
-x,-y,1/2+z
x,-y,-z
-x,y,1/2-z
-x,-y,-z
x,y,1/2-z
-x,y,z
x,-y,1/2+z
1/2+x,1/2+y,z
1/2-x,1/2-y,1/2+z
1/2+x,1/2-y,-z
1/2-x,1/2+y,1/2-z
1/2-x,1/2-y,-z
1/2+x,1/2+y,1/2-z
1/2-x,1/2+y,z
1/2+x,1/2-y,1/2+z
loop_
_atom_site_type_symbol
_atom_site_label
_atom_site_fract_x
_atom_site_fract_y
_atom_site_fract_z
Si Si1 0.383263 0.855294 0.451078
Si Si2 0.621047 0.515039 0.250000
Si Si3 0.376162 0.175207 0.250000
Si Si4 0.842276 0.557349 0.750000
Si Si5 0.711558 0.344728 0.593865
O O1 0.500000 0.877151 0.494578
O O2 0.381880 0.895800 0.345812
O O3 0.363868 0.740109 0.443525
O O4 0.282553 0.891470 0.511701
O O5 0.500000 0.480472 0.250000
O O6 0.713012 0.435195 0.250000
O O7 0.646249 0.581907 0.340805
O O8 0.500000 0.206009 0.250000
O O9 0.304413 0.202685 0.339859
O O10 0.371804 0.056671 0.250000
#
# Coordination Sequence:
#
# PCOD9470966 Si02
#       5
#    16   8   8   8  16
#     4  11  20  36  57  82 111 142 179 231 272 311
#     4  10  21  41  58  77 111 148 177 221 272 324
#     4  10  19  34  51  76 111 145 177 229 277 316
#     4  10  22  35  55  85 110 141 190 220 265 330
#     4   9  21  35  56  83 106 140 189 219 266 335
#
# _framework density 22.878646
#
# number of rings (size 3 to 8) (size 9 to 14) (size 15 to 20)
#    0.000    2.286    0.000    4.714    0.000    4.571 
#    0.000   18.571    0.000    0.000    0.000    0.000 
#    0.000    0.000    0.000    0.000    0.000    0.000 
#
# Total GULP energy -156514.492254 kJ/mol
# GULP energy per Si atom -5589.803295 kJ/mol
# Density = 2.282657 g / cm^3
# Si number density = 22.878646 Si / 1000 Ang^3
#
#
#
# Elastic Constant Matrix: (Units=GPa)
#
#
# Indices 1 2 3 4 5 6 
#
# 1 158.1631 6.7390 4.4979 0.0000 0.0000 0.0000
# 2 6.7390 60.0027 11.3222 0.0000 0.0000 0.0000
# 3 4.4979 11.3222 94.8923 0.0000 0.0000 0.0000
# 4 0.0000 0.0000 0.0000 -193.2310 0.0000 0.0000
# 5 0.0000 0.0000 0.0000 0.0000 14.5945 0.0000
# 6 0.0000 0.0000 0.0000 0.0000 0.0000 14.8581
#
#
#
# Elastic Compliance Matrix: (Units=1/GPa)
#
#
# Indices 1 2 3 4 5 6 
#
# 1 0.006358 -0.000672 -0.000221 0.000000 0.000000 0.000000
# 2 -0.000672 0.017121 -0.002011 0.000000 0.000000 0.000000
# 3 -0.000221 -0.002011 0.010789 0.000000 0.000000 0.000000
# 4 0.000000 0.000000 0.000000 -0.005175 0.000000 0.000000
# 5 0.000000 0.000000 0.000000 0.000000 0.068519 0.000000
# 6 0.000000 0.000000 0.000000 0.000000 0.000000 0.067303
#
#
# Mechanical properties :
#
#
# Convention : Reuss Voigt Hill
#
# Bulk Modulus (GPa) = 35.13905 39.79734 37.46820
# Shear Modulus (GPa) = 27.74560 -13.38905 7.17828
#
# Velocity S-wave (km/s) = 3.48620 -2.42176 1.77323
# Velocity P-wave (km/s) = 5.62113 3.10046 4.53927
#
# Compressibility (1/GPa) = 0.02845837
#
# Stress axis : x y z
#
# Youngs Moduli (GPa) = 157.29401 58.40823 92.68972
#
# Poissons Ratio (x) = 0.03927 0.02050
# Poissons Ratio (y) = 0.10575 0.18639
# Poissons Ratio (z) = 0.03478 0.11745
#
# Static dielectric constant tensor:
#      x y z
#    x 1.855780 0.000000 0.000000 
#    y 0.000000 1.820190 0.000000 
#    z 0.000000 0.000000 1.889790 
# 
# From -- ./inp_files/31283.got.cif
#   From: 2010.05.17/outbox.cif.g08.bks.cpg/sg63_16_cif.got.tgz:31283.got - 2010.06.03 15:47:04.
