data_PCOD9470155
_publ_section_title
;
Structure prediction by ZEFSAII (Michael W. Deem and Ramdas Pophale) SiO2 
 PCOD9470155
Probable space group: C M C M
;
_chemical_formula_sum "Si O2"
_cell_formula_units_Z 80
_cell_length_a 7.510188
_cell_length_b 23.900138
_cell_length_c 21.128877
_cell_angle_alpha 90.000000
_cell_angle_beta 90.000000
_cell_angle_gamma 90.000000
_cell_volume 3792.517838
_symmetry_space_group_name_H-M "C M C M"
_symmetry_group_IT_number 63
_symmetry_cell_setting 'orthorhombic'
loop_
_space_group_symop_operation_xyz
x,y,z
-x,-y,1/2+z
x,-y,-z
-x,y,1/2-z
-x,-y,-z
x,y,1/2-z
-x,y,z
x,-y,1/2+z
1/2+x,1/2+y,z
1/2-x,1/2-y,1/2+z
1/2+x,1/2-y,-z
1/2-x,1/2+y,1/2-z
1/2-x,1/2-y,-z
1/2+x,1/2+y,1/2-z
1/2-x,1/2+y,z
1/2+x,1/2-y,1/2+z
loop_
_atom_site_type_symbol
_atom_site_label
_atom_site_fract_x
_atom_site_fract_y
_atom_site_fract_z
Si Si1 0.786827 0.381122 0.622144
Si Si2 0.282342 0.120423 0.623844
Si Si3 0.218304 0.685600 0.750000
Si Si4 0.282527 0.000478 0.574372
Si Si5 0.212947 0.684855 0.000530
Si Si6 0.290509 0.685827 0.250000
O O1 0.722988 0.444442 0.610509
O O2 0.717123 0.343979 0.563965
O O3 0.753054 0.350257 0.687955
O O4 0.000000 0.384146 0.616483
O O5 0.500000 0.120410 0.624986
O O6 0.225388 0.151392 0.687708
O O7 0.226650 0.056635 0.610750
O O8 0.221508 0.155540 0.563000
O O9 0.282309 0.750337 0.750000
O O10 0.000000 0.686409 0.750000
O O11 0.500000 0.000976 0.573271
O O12 0.228425 0.000000 0.500000
O O13 0.000000 0.677079 0.000561
O O14 0.250000 0.750000 0.000000
O O15 0.500000 0.693452 0.250000
#
# Coordination Sequence:
#
# PCOD9470155 Si02
#       6
#    16  16   8  16  16   8
#     4  10  20  34  55  81 106 137 179 225 271 316
#     4   9  16  28  48  74 104 135 170 215 264 308
#     4   9  18  30  45  69 101 139 178 213 252 308
#     4   9  15  28  51  79 108 133 165 219 276 310
#     4  10  19  31  50  76 106 140 179 221 262 310
#     4  11  23  38  53  73 109 147 176 215 268 324
#
# _framework density 21.094166000000001
#
# number of rings (size 3 to 8) (size 9 to 14) (size 15 to 20)
#    0.000    2.400    2.000    1.500    0.000    3.200 
#    0.000    3.000    0.000    1.800    0.000    5.600 
#    0.000    0.000    0.000    0.000    0.000    0.000 
#
# Total GULP energy -223352.119616 kJ/mol
# GULP energy per Si atom -5583.802990 kJ/mol
# Density = 2.104615 g / cm^3
# Si number density = 21.094166 Si / 1000 Ang^3
#
#
#
# Elastic Constant Matrix: (Units=GPa)
#
#
# Indices 1 2 3 4 5 6 
#
# 1 53.9070 4.6594 5.2805 0.0000 0.0000 0.0000
# 2 4.6594 268.8420 156.2792 0.0000 0.0000 0.0000
# 3 5.2805 156.2792 233.7279 0.0000 0.0000 0.0000
# 4 0.0000 0.0000 0.0000 52.1386 0.0000 0.0000
# 5 0.0000 0.0000 0.0000 0.0000 -31.1104 0.0000
# 6 0.0000 0.0000 0.0000 0.0000 0.0000 12.8278
#
#
#
# Elastic Compliance Matrix: (Units=1/GPa)
#
#
# Indices 1 2 3 4 5 6 
#
# 1 0.018594 -0.000128 -0.000335 0.000000 0.000000 0.000000
# 2 -0.000128 0.006086 -0.004066 0.000000 0.000000 0.000000
# 3 -0.000335 -0.004066 0.007005 0.000000 0.000000 0.000000
# 4 0.000000 0.000000 0.000000 0.019180 0.000000 0.000000
# 5 0.000000 0.000000 0.000000 0.000000 -0.032144 0.000000
# 6 0.000000 0.000000 0.000000 0.000000 0.000000 0.077956
#
#
# Mechanical properties :
#
#
# Convention : Reuss Voigt Hill
#
# Bulk Modulus (GPa) = 44.19387 98.76833 71.48110
# Shear Modulus (GPa) = 44.13996 32.78839 38.46417
#
# Velocity S-wave (km/s) = 4.57937 3.94684 4.27482
# Velocity P-wave (km/s) = 6.99693 8.22766 7.63713
#
# Compressibility (1/GPa) = 0.02262757
#
# Stress axis : x y z
#
# Youngs Moduli (GPa) = 53.77993 164.32416 142.75913
#
# Poissons Ratio (x) = 0.02098 0.04778
# Poissons Ratio (y) = 0.00687 0.58048
# Poissons Ratio (z) = 0.01800 0.66816
#
# Static dielectric constant tensor:
#      x y z
#    x 1.824680 0.000000 0.000000 
#    y 0.000000 -4.322210 0.000000 
#    z 0.000000 0.000000 1.719640 
# 
# From -- ./inp_files/50960.got.cif
#   From: 2010.05.17/outbox.cif.g08.bks.cpg/sg63_26_cif.got.tgz:50960.got - 2010.06.03 15:47:04.
