data_PCOD9470622
_publ_section_title
;
Structure prediction by ZEFSAII (Michael W. Deem and Ramdas Pophale) SiO2 
 PCOD9470622
Probable space group: C M C M
;
_chemical_formula_sum "Si O2"
_cell_formula_units_Z 96
_cell_length_a 7.327170
_cell_length_b 35.119895
_cell_length_c 16.804513
_cell_angle_alpha 90.000000
_cell_angle_beta 90.000000
_cell_angle_gamma 90.000000
_cell_volume 4324.295937
_symmetry_space_group_name_H-M "C M C M"
_symmetry_group_IT_number 63
_symmetry_cell_setting 'orthorhombic'
loop_
_space_group_symop_operation_xyz
x,y,z
-x,-y,1/2+z
x,-y,-z
-x,y,1/2-z
-x,-y,-z
x,y,1/2-z
-x,y,z
x,-y,1/2+z
1/2+x,1/2+y,z
1/2-x,1/2-y,1/2+z
1/2+x,1/2-y,-z
1/2-x,1/2+y,1/2-z
1/2-x,1/2-y,-z
1/2+x,1/2+y,1/2-z
1/2-x,1/2+y,z
1/2+x,1/2-y,1/2+z
loop_
_atom_site_type_symbol
_atom_site_label
_atom_site_fract_x
_atom_site_fract_y
_atom_site_fract_z
Si Si1 0.777451 0.906901 0.159435
Si Si2 0.785246 0.833768 0.432673
Si Si3 0.722603 0.470662 0.750000
Si Si4 0.776595 0.173155 0.110240
Si Si5 0.222186 0.014131 0.912567
Si Si6 0.219254 0.742562 0.660822
Si Si7 0.277758 0.382897 0.750000
O O1 0.717332 0.912939 0.250000
O O2 0.713533 0.866520 0.125284
O O3 0.724689 0.942218 0.104132
O O4 0.000000 0.906820 0.161638
O O5 0.711994 0.835537 0.521679
O O6 0.766608 0.791637 0.397558
O O7 0.000000 0.841496 0.439498
O O8 0.500000 0.472177 0.750000
O O9 0.779096 0.490745 0.833104
O O10 0.779959 0.426605 0.750000
O O11 0.717825 0.215599 0.134997
O O12 0.720669 0.141357 0.173259
O O13 0.000000 0.173687 0.110727
O O14 0.000000 0.012291 0.913518
O O15 0.282432 0.000000 0.000000
O O16 0.284284 0.733899 0.750000
O O17 0.000000 0.744278 0.662929
O O18 0.500000 0.383401 0.750000
#
# Coordination Sequence:
#
# PCOD9470622 Si02
#       7
#    16  16   8  16  16  16   8
#     4   9  16  27  39  55  86 121 147 178 226 274
#     4  10  20  30  47  72  94 120 157 194 228 272
#     4   9  16  24  36  55  80 115 157 193 223 267
#     4   9  17  30  45  64  89 119 154 193 235 276
#     4   9  16  24  35  53  81 119 154 182 221 275
#     4  10  19  33  50  66  90 125 156 187 234 281
#     4   9  16  26  42  61  85 119 159 195 229 275
#
# _framework density 22.200146
#
# number of rings (size 3 to 8) (size 9 to 14) (size 15 to 20)
#    0.000    2.667    1.667    1.000    2.333    1.000 
#    0.000    0.000    0.000    0.000    0.000    0.000 
#    0.000    0.667    0.000    1.333    0.000    0.000 
#
# Total GULP energy -268149.399241 kJ/mol
# GULP energy per Si atom -5586.445818 kJ/mol
# Density = 2.214962 g / cm^3
# Si number density = 22.200146 Si / 1000 Ang^3
#
#
#
# Elastic Constant Matrix: (Units=GPa)
#
#
# Indices 1 2 3 4 5 6 
#
# 1 83.6990 -2.5672 7.1720 0.0000 0.0000 0.0000
# 2 -2.5672 127.5131 44.0595 0.0000 0.0000 0.0000
# 3 7.1720 44.0595 141.2467 0.0000 0.0000 0.0000
# 4 0.0000 0.0000 0.0000 -141.9518 0.0000 0.0000
# 5 0.0000 0.0000 0.0000 0.0000 -8.9851 0.0000
# 6 0.0000 0.0000 0.0000 0.0000 0.0000 1.7625
#
#
#
# Elastic Compliance Matrix: (Units=1/GPa)
#
#
# Indices 1 2 3 4 5 6 
#
# 1 0.012029 0.000508 -0.000769 0.000000 0.000000 0.000000
# 2 0.000508 0.008811 -0.002774 0.000000 0.000000 0.000000
# 3 -0.000769 -0.002774 0.007984 0.000000 0.000000 0.000000
# 4 0.000000 0.000000 0.000000 -0.007045 0.000000 0.000000
# 5 0.000000 0.000000 0.000000 0.000000 -0.111295 0.000000
# 6 0.000000 0.000000 0.000000 0.000000 0.000000 0.567363
#
#
# Mechanical properties :
#
#
# Convention : Reuss Voigt Hill
#
# Bulk Modulus (GPa) = 43.94951 49.97636 46.96294
# Shear Modulus (GPa) = 10.17288 -9.58190 0.29549
#
# Velocity S-wave (km/s) = 2.14296 -2.07979 0.36523
# Velocity P-wave (km/s) = 5.09539 4.09796 4.62365
#
# Compressibility (1/GPa) = 0.02275338
#
# Stress axis : x y z
#
# Youngs Moduli (GPa) = 83.13199 113.49251 125.24642
#
# Poissons Ratio (x) = -0.05765 0.09635
# Poissons Ratio (y) = -0.04223 0.34747
# Poissons Ratio (z) = 0.06395 0.31486
#
# Static dielectric constant tensor:
#      x y z
#    x 2.002170 0.000000 0.000000 
#    y 0.000000 1.762200 0.000000 
#    z 0.000000 0.000000 1.779440 
# 
# From -- ./inp_files/30356.got.cif
#   From: 2010.05.17/outbox.cif.g08.bks.cpg/sg63_16_cif.got.tgz:30356.got - 2010.06.03 15:47:04.
