data_PCOD9470213
_publ_section_title
;
Structure prediction by ZEFSAII (Michael W. Deem and Ramdas Pophale) SiO2 
 PCOD9470213
Probable space group: C M C M
;
_chemical_formula_sum "Si O2"
_cell_formula_units_Z 36
_cell_length_a 10.318427
_cell_length_b 28.784003
_cell_length_c 5.548711
_cell_angle_alpha 90.000000
_cell_angle_beta 90.000000
_cell_angle_gamma 90.000000
_cell_volume 1647.998427
_symmetry_space_group_name_H-M "C M C M"
_symmetry_group_IT_number 63
_symmetry_cell_setting 'orthorhombic'
loop_
_space_group_symop_operation_xyz
x,y,z
-x,-y,1/2+z
x,-y,-z
-x,y,1/2-z
-x,-y,-z
x,y,1/2-z
-x,y,z
x,-y,1/2+z
1/2+x,1/2+y,z
1/2-x,1/2-y,1/2+z
1/2+x,1/2-y,-z
1/2-x,1/2+y,1/2-z
1/2-x,1/2-y,-z
1/2+x,1/2+y,1/2-z
1/2-x,1/2+y,z
1/2+x,1/2-y,1/2+z
loop_
_atom_site_type_symbol
_atom_site_label
_atom_site_fract_x
_atom_site_fract_y
_atom_site_fract_z
Si Si1 0.500000 0.974704 0.250000
Si Si2 0.500000 0.294060 0.250000
Si Si3 0.775437 0.003128 0.250000
Si Si4 0.500000 0.764399 0.250000
Si Si5 0.844134 0.394033 0.750000
Si Si6 0.222955 0.658732 0.750000
O O1 0.500000 0.000000 0.500000
O O2 0.657358 0.964165 0.250000
O O3 0.500000 0.264466 0.499626
O O4 0.629455 0.324649 0.250000
O O5 0.713575 0.054520 0.250000
O O6 0.848118 0.000000 0.500000
O O7 0.373911 0.797284 0.250000
O O8 0.805429 0.367973 0.502061
O O9 0.000000 0.397889 0.750000
#
# Coordination Sequence:
#
# PCOD9470213 Si02
#       6
#     4   4   8   4   8   8
#     4   8  14  22  36  60  98 138 170 222 280 338
#     4  12  26  44  67  94 124 166 214 250 306 386
#     4  10  19  31  51  83 121 161 205 252 311 367
#     4  12  22  44  69  96 124 156 208 268 312 362
#     4  12  22  38  60  90 133 170 201 262 319 369
#     4  12  25  42  64  95 128 167 205 255 318 373
#
# _framework density 21.844683
#
# number of rings (size 3 to 8) (size 9 to 14) (size 15 to 20)
#    0.000    0.889    3.333    5.333    0.000    0.000 
#    0.000    0.000    0.000    0.000    0.000   15.556 
#    0.000    0.000    0.000    0.000    0.000    0.000 
#
# Total GULP energy -100259.831391 kJ/mol
# GULP energy per Si atom -5569.990633 kJ/mol
# Density = 2.179496 g / cm^3
# Si number density = 21.844683 Si / 1000 Ang^3
#
#
#
# Elastic Constant Matrix: (Units=GPa)
#
#
# Indices 1 2 3 4 5 6 
#
# 1 153.3447 62.4650 50.2712 0.0000 0.0000 0.0000
# 2 62.4650 115.0813 88.0243 0.0000 0.0000 0.0000
# 3 50.2712 88.0243 292.5555 0.0000 0.0000 0.0000
# 4 0.0000 0.0000 0.0000 21.8036 0.0000 0.0000
# 5 0.0000 0.0000 0.0000 0.0000 3.3306 0.0000
# 6 0.0000 0.0000 0.0000 0.0000 0.0000 -46.8112
#
#
#
# Elastic Compliance Matrix: (Units=1/GPa)
#
#
# Indices 1 2 3 4 5 6 
#
# 1 0.008374 -0.004475 -0.000093 0.000000 0.000000 0.000000
# 2 -0.004475 0.013678 -0.003347 0.000000 0.000000 0.000000
# 3 -0.000093 -0.003347 0.004441 0.000000 0.000000 0.000000
# 4 0.000000 0.000000 0.000000 0.045864 0.000000 0.000000
# 5 0.000000 0.000000 0.000000 0.000000 0.300242 0.000000
# 6 0.000000 0.000000 0.000000 0.000000 0.000000 -0.021362
#
#
# Mechanical properties :
#
#
# Convention : Reuss Voigt Hill
#
# Bulk Modulus (GPa) = 93.75885 106.94474 100.35180
# Shear Modulus (GPa) = 13.49089 19.67935 16.58512
#
# Velocity S-wave (km/s) = 2.48782 3.00472 2.75840
# Velocity P-wave (km/s) = 7.16004 7.81671 7.49557
#
# Compressibility (1/GPa) = 0.01066566
#
# Stress axis : x y z
#
# Youngs Moduli (GPa) = 119.41178 73.10986 225.17474
#
# Poissons Ratio (x) = 0.32714 0.02087
# Poissons Ratio (y) = 0.53433 0.75356
# Poissons Ratio (z) = 0.01107 0.24467
#
# Static dielectric constant tensor:
#      x y z
#    x 1.800720 0.000000 0.000000 
#    y 0.000000 1.851390 0.000000 
#    z 0.000000 0.000000 2.046190 
# 
# From -- ./inp_files/317.got.cif
#   From: 2010.05.17/outbox.cif.g08.bks.cpg/sg63_1_cif.got.tgz:317.got - 2010.06.03 15:47:04.
