data_PCOD9470175
_publ_section_title
;
Structure prediction by ZEFSAII (Michael W. Deem and Ramdas Pophale) SiO2 
 PCOD9470175
Probable space group: C M C M
;
_chemical_formula_sum "Si O2"
_cell_formula_units_Z 96
_cell_length_a 19.626924
_cell_length_b 12.753431
_cell_length_c 19.652167
_cell_angle_alpha 90.000000
_cell_angle_beta 90.000000
_cell_angle_gamma 90.000000
_cell_volume 4919.146125
_symmetry_space_group_name_H-M "C M C M"
_symmetry_group_IT_number 63
_symmetry_cell_setting 'orthorhombic'
loop_
_space_group_symop_operation_xyz
x,y,z
-x,-y,1/2+z
x,-y,-z
-x,y,1/2-z
-x,-y,-z
x,y,1/2-z
-x,y,z
x,-y,1/2+z
1/2+x,1/2+y,z
1/2-x,1/2-y,1/2+z
1/2+x,1/2-y,-z
1/2-x,1/2+y,1/2-z
1/2-x,1/2-y,-z
1/2+x,1/2+y,1/2-z
1/2-x,1/2+y,z
1/2+x,1/2-y,1/2+z
loop_
_atom_site_type_symbol
_atom_site_label
_atom_site_fract_x
_atom_site_fract_y
_atom_site_fract_z
Si Si1 0.824433 0.660941 0.328634
Si Si2 0.753685 0.897589 0.460713
Si Si3 0.840119 0.134957 0.171621
Si Si4 0.686999 0.596684 0.674681
Si Si5 0.076208 0.596388 0.052807
Si Si6 0.636257 0.727753 0.029745
O O1 0.837843 0.629396 0.250000
O O2 0.742277 0.650011 0.339190
O O3 0.841991 0.786080 0.334384
O O4 0.868362 0.603950 0.386579
O O5 0.755910 0.915655 0.381194
O O6 0.698600 0.809552 0.471654
O O7 0.829453 0.866444 0.486817
O O8 0.734267 0.000000 0.500000
O O9 0.854241 0.168977 0.250000
O O10 0.875037 0.192193 0.107561
O O11 0.856279 0.009994 0.167837
O O12 0.716543 0.594059 0.750000
O O13 0.000000 0.585441 0.081756
O O14 0.085827 0.500000 0.000000
O O15 0.080407 0.705365 0.009901
#
# Coordination Sequence:
#
# PCOD9470175 Si02
#       6
#    16  16  16  16  16  16
#     4  10  20  37  59  83 112 146 180 223 279 335
#     4  11  19  29  51  82 107 140 177 215 272 339
#     4  10  20  32  53  89 120 143 173 218 281 345
#     4  10  19  31  50  82 119 141 167 214 270 334
#     4  11  25  41  56  78 107 144 193 239 269 308
#     4  11  20  32  53  76 110 148 178 219 273 327
#
# _framework density 19.515581999999998
#
# number of rings (size 3 to 8) (size 9 to 14) (size 15 to 20)
#    0.000    1.500    5.000    1.500    2.333    0.333 
#    0.000    0.833    0.000    6.000    0.000    2.333 
#    0.000    0.000    0.000    0.000    0.000    0.000 
#
# Total GULP energy -267389.856494 kJ/mol
# GULP energy per Si atom -5570.622010 kJ/mol
# Density = 1.947116 g / cm^3
# Si number density = 19.515582 Si / 1000 Ang^3
#
#
#
# Elastic Constant Matrix: (Units=GPa)
#
#
# Indices 1 2 3 4 5 6 
#
# 1 19.9547 -4.9548 25.7130 0.0000 0.0000 0.0000
# 2 -4.9548 77.4475 25.0097 0.0000 0.0000 0.0000
# 3 25.7130 25.0097 116.2485 0.0000 0.0000 0.0000
# 4 0.0000 0.0000 0.0000 38.1182 0.0000 0.0000
# 5 0.0000 0.0000 0.0000 0.0000 16.8575 0.0000
# 6 0.0000 0.0000 0.0000 0.0000 0.0000 15.3555
#
#
#
# Elastic Compliance Matrix: (Units=1/GPa)
#
#
# Indices 1 2 3 4 5 6 
#
# 1 0.078485 0.011421 -0.019817 0.000000 0.000000 0.000000
# 2 0.011421 0.015538 -0.005869 0.000000 0.000000 0.000000
# 3 -0.019817 -0.005869 0.014248 0.000000 0.000000 0.000000
# 4 0.000000 0.000000 0.000000 0.026234 0.000000 0.000000
# 5 0.000000 0.000000 0.000000 0.000000 0.059321 0.000000
# 6 0.000000 0.000000 0.000000 0.000000 0.000000 0.065123
#
#
# Mechanical properties :
#
#
# Convention : Reuss Voigt Hill
#
# Bulk Modulus (GPa) = 12.54072 33.90960 23.22516
# Shear Modulus (GPa) = 15.92053 25.25844 20.58948
#
# Velocity S-wave (km/s) = 2.85929 3.60150 3.25164
# Velocity P-wave (km/s) = 4.16422 5.89133 5.10140
#
# Compressibility (1/GPa) = 0.07974023
#
# Stress axis : x y z
#
# Youngs Moduli (GPa) = 12.74130 64.35901 70.18414
#
# Poissons Ratio (x) = -0.73502 1.39085
# Poissons Ratio (y) = -0.14551 0.41191
# Poissons Ratio (z) = 0.25250 0.37772
#
# Static dielectric constant tensor:
#      x y z
#    x 1.680930 0.000000 0.000000 
#    y 0.000000 1.808250 0.000000 
#    z 0.000000 0.000000 1.729150 
# 
# From -- ./inp_files/56571.got.cif
#   From: 2010.05.17/outbox.cif.g08.bks.cpg/sg63_29_cif.got.tgz:56571.got - 2010.06.03 15:47:04.
