data_PCOD9470312
_publ_section_title
;
Structure prediction by ZEFSAII (Michael W. Deem and Ramdas Pophale) SiO2 
 PCOD9470312
Probable space group: C M C M
;
_chemical_formula_sum "Si O2"
_cell_formula_units_Z 112
_cell_length_a 14.086706
_cell_length_b 28.489324
_cell_length_c 14.680581
_cell_angle_alpha 90.000000
_cell_angle_beta 90.000000
_cell_angle_gamma 90.000000
_cell_volume 5891.621503
_symmetry_space_group_name_H-M "C M C M"
_symmetry_group_IT_number 63
_symmetry_cell_setting 'orthorhombic'
loop_
_space_group_symop_operation_xyz
x,y,z
-x,-y,1/2+z
x,-y,-z
-x,y,1/2-z
-x,-y,-z
x,y,1/2-z
-x,y,z
x,-y,1/2+z
1/2+x,1/2+y,z
1/2-x,1/2-y,1/2+z
1/2+x,1/2-y,-z
1/2-x,1/2+y,1/2-z
1/2-x,1/2-y,-z
1/2+x,1/2+y,1/2-z
1/2-x,1/2+y,z
1/2+x,1/2-y,1/2+z
loop_
_atom_site_type_symbol
_atom_site_label
_atom_site_fract_x
_atom_site_fract_y
_atom_site_fract_z
Si Si1 0.612029 0.634388 0.357690
Si Si2 0.698789 0.906257 0.356997
Si Si3 0.261736 0.075935 0.052305
Si Si4 0.393899 0.996528 0.643721
Si Si5 0.726803 0.276786 0.592386
Si Si6 0.610828 0.844371 0.856505
Si Si7 0.395348 0.190484 0.854827
O O1 0.630512 0.642601 0.250000
O O2 0.500000 0.631681 0.371258
O O3 0.668116 0.588657 0.390752
O O4 0.658239 0.678016 0.411636
O O5 0.733232 0.904527 0.250000
O O6 0.761428 0.920973 0.444689
O O7 0.619823 0.947312 0.358407
O O8 0.659324 0.855583 0.387162
O O9 0.338574 0.115699 0.083545
O O10 0.313529 0.028952 0.085508
O O11 0.384176 0.982383 0.750000
O O12 0.500000 0.983731 0.612915
O O13 0.750000 0.250000 0.500000
O O14 0.825102 0.297632 0.631342
O O15 0.667401 0.237032 0.643712
O O16 0.616566 0.858168 0.750000
O O17 0.500000 0.838105 0.879277
O O18 0.409274 0.178762 0.750000
O O19 0.500000 0.197359 0.897347
#
# Coordination Sequence:
#
# PCOD9470312 Si02
#       7
#    16  16  16  16  16  16  16
#     4  10  21  38  60  86 114 142 180 234 285 326
#     4  10  22  36  50  75 112 149 183 222 268 322
#     4  11  20  34  58  83 108 142 182 222 271 331
#     4  10  20  34  54  82 115 148 182 223 275 336
#     4  11  21  32  50  77 106 139 178 217 263 319
#     4  10  21  36  53  77 109 140 174 220 271 324
#     4  10  19  32  50  69  95 135 178 217 257 304
#
# _framework density 19.010048000000001
#
# number of rings (size 3 to 8) (size 9 to 14) (size 15 to 20)
#    0.000    1.714    0.000    6.857    0.000    9.143 
#    0.000    0.000    0.000    2.143    0.000    2.000 
#    0.000    0.000    0.000    0.000    0.000    0.000 
#
# Total GULP energy -312024.392367 kJ/mol
# GULP energy per Si atom -5571.864149 kJ/mol
# Density = 1.896678 g / cm^3
# Si number density = 19.010048 Si / 1000 Ang^3
#
#
#
# Elastic Constant Matrix: (Units=GPa)
#
#
# Indices 1 2 3 4 5 6 
#
# 1 86.1871 14.7481 6.5447 0.0000 0.0000 0.0000
# 2 14.7481 76.6873 -11.9520 0.0000 0.0000 0.0000
# 3 6.5447 -11.9520 65.8306 0.0000 0.0000 0.0000
# 4 0.0000 0.0000 0.0000 28.8229 0.0000 0.0000
# 5 0.0000 0.0000 0.0000 0.0000 -8.2732 0.0000
# 6 0.0000 0.0000 0.0000 0.0000 0.0000 15.1296
#
#
#
# Elastic Compliance Matrix: (Units=1/GPa)
#
#
# Indices 1 2 3 4 5 6 
#
# 1 0.012176 -0.002604 -0.001683 0.000000 0.000000 0.000000
# 2 -0.002604 0.013977 0.002796 0.000000 0.000000 0.000000
# 3 -0.001683 0.002796 0.015866 0.000000 0.000000 0.000000
# 4 0.000000 0.000000 0.000000 0.034695 0.000000 0.000000
# 5 0.000000 0.000000 0.000000 0.000000 -0.120872 0.000000
# 6 0.000000 0.000000 0.000000 0.000000 0.000000 0.066096
#
#
# Mechanical properties :
#
#
# Convention : Reuss Voigt Hill
#
# Bulk Modulus (GPa) = 25.61702 27.48740 26.55221
# Shear Modulus (GPa) = 131.82015 21.76013 76.79014
#
# Velocity S-wave (km/s) = 8.33624 3.38696 6.36256
# Velocity P-wave (km/s) = 10.30349 5.45767 8.24464
#
# Compressibility (1/GPa) = 0.03903654
#
# Stress axis : x y z
#
# Youngs Moduli (GPa) = 82.12832 71.54825 63.02959
#
# Poissons Ratio (x) = 0.18631 0.10610
# Poissons Ratio (y) = 0.21386 -0.17626
# Poissons Ratio (z) = 0.13825 -0.20008
#
# Static dielectric constant tensor:
#      x y z
#    x 1.657700 0.000000 0.000000 
#    y 0.000000 1.703570 0.000000 
#    z 0.000000 0.000000 1.621860 
# 
# From -- ./inp_files/32512.got.cif
#   From: 2010.05.17/outbox.cif.g08.bks.cpg/sg63_17_cif.got.tgz:32512.got - 2010.06.03 15:47:04.
