data_PCOD9470117
_publ_section_title
;
Structure prediction by ZEFSAII (Michael W. Deem and Ramdas Pophale) SiO2 
 PCOD9470117
Probable space group: C M C M
;
_chemical_formula_sum "Si O2"
_cell_formula_units_Z 104
_cell_length_a 13.635011
_cell_length_b 19.300962
_cell_length_c 22.937542
_cell_angle_alpha 90.000000
_cell_angle_beta 90.000000
_cell_angle_gamma 90.000000
_cell_volume 6036.446072
_symmetry_space_group_name_H-M "C M C M"
_symmetry_group_IT_number 63
_symmetry_cell_setting 'orthorhombic'
loop_
_space_group_symop_operation_xyz
x,y,z
-x,-y,1/2+z
x,-y,-z
-x,y,1/2-z
-x,-y,-z
x,y,1/2-z
-x,y,z
x,-y,1/2+z
1/2+x,1/2+y,z
1/2-x,1/2-y,1/2+z
1/2+x,1/2-y,-z
1/2-x,1/2+y,1/2-z
1/2-x,1/2-y,-z
1/2+x,1/2+y,1/2-z
1/2-x,1/2+y,z
1/2+x,1/2-y,1/2+z
loop_
_atom_site_type_symbol
_atom_site_label
_atom_site_fract_x
_atom_site_fract_y
_atom_site_fract_z
Si Si1 0.708534 0.735062 0.682027
Si Si2 0.115072 0.292631 0.487272
Si Si3 0.500000 0.193220 0.316275
Si Si4 0.000000 0.424440 0.318846
Si Si5 0.500000 0.060518 0.398296
Si Si6 0.693269 0.114994 0.618243
Si Si7 0.221166 0.179540 0.080038
Si Si8 0.215298 0.471338 0.936544
O O1 0.735524 0.731185 0.750000
O O2 0.596997 0.760818 0.678033
O O3 0.727051 0.662795 0.649316
O O4 0.772000 0.790235 0.644935
O O5 0.159831 0.349946 0.442856
O O6 0.136449 0.219155 0.455591
O O7 0.179726 0.296521 0.545603
O O8 0.000000 0.303863 0.496559
O O9 0.500000 0.163640 0.250000
O O10 0.500000 0.132114 0.363274
O O11 0.000000 0.498646 0.350979
O O12 0.096760 0.385972 0.341588
O O13 0.000000 0.431670 0.250000
O O14 0.399924 0.050886 0.434351
O O15 0.725683 0.036416 0.606672
O O16 0.222969 0.096834 0.078562
O O17 0.239759 0.500000 0.000000
#
# Coordination Sequence:
#
# PCOD9470117 Si02
#       8
#    16  16   8   8   8  16  16  16
#     4  10  21  37  53  76 107 140 184 225 263 316
#     4  10  20  35  55  81 112 137 179 223 264 315
#     4  10  19  33  53  74 101 136 181 228 260 303
#     4  10  19  31  49  76 110 143 173 213 269 330
#     4  10  20  30  46  78 106 143 168 215 269 329
#     4  10  20  34  53  78 108 144 174 220 269 325
#     4  10  21  34  55  82 105 149 176 218 271 318
#     4  11  20  32  51  77 112 138 175 214 270 327
#
# _framework density 17.228680000000001
#
# number of rings (size 3 to 8) (size 9 to 14) (size 15 to 20)
#    0.000    1.846    3.846    0.923    2.154    0.000 
#    0.000    0.769    1.692    0.462    0.000    0.000 
#    0.000    0.000    0.000    0.000    0.000    0.000 
#
# Total GULP energy -290210.188812 kJ/mol
# GULP energy per Si atom -5580.965169 kJ/mol
# Density = 1.718947 g / cm^3
# Si number density = 17.228680 Si / 1000 Ang^3
#
#
#
# Elastic Constant Matrix: (Units=GPa)
#
#
# Indices 1 2 3 4 5 6 
#
# 1 25.1642 11.1754 4.7419 0.0000 0.0000 0.0000
# 2 11.1754 112.2426 11.0574 0.0000 0.0000 0.0000
# 3 4.7419 11.0574 68.7482 0.0000 0.0000 0.0000
# 4 0.0000 0.0000 0.0000 18.5368 0.0000 0.0000
# 5 0.0000 0.0000 0.0000 0.0000 18.2527 0.0000
# 6 0.0000 0.0000 0.0000 0.0000 0.0000 23.5279
#
#
#
# Elastic Compliance Matrix: (Units=1/GPa)
#
#
# Indices 1 2 3 4 5 6 
#
# 1 0.041919 -0.003951 -0.002256 0.000000 0.000000 0.000000
# 2 -0.003951 0.009425 -0.001243 0.000000 0.000000 0.000000
# 3 -0.002256 -0.001243 0.014901 0.000000 0.000000 0.000000
# 4 0.000000 0.000000 0.000000 0.053947 0.000000 0.000000
# 5 0.000000 0.000000 0.000000 0.000000 0.054787 0.000000
# 6 0.000000 0.000000 0.000000 0.000000 0.000000 0.042503
#
#
# Mechanical properties :
#
#
# Convention : Reuss Voigt Hill
#
# Bulk Modulus (GPa) = 19.47638 28.90050 24.18844
# Shear Modulus (GPa) = 20.04029 24.00883 22.02456
#
# Velocity S-wave (km/s) = 3.41426 3.73706 3.57930
# Velocity P-wave (km/s) = 5.18383 5.95247 5.58140
#
# Compressibility (1/GPa) = 0.05134424
#
# Stress axis : x y z
#
# Youngs Moduli (GPa) = 23.85557 106.09869 67.10765
#
# Poissons Ratio (x) = 0.41924 0.15138
# Poissons Ratio (y) = 0.09426 0.08344
# Poissons Ratio (z) = 0.05381 0.13192
#
# Static dielectric constant tensor:
#      x y z
#    x 1.570100 0.000000 0.000000 
#    y 0.000000 1.603900 0.000000 
#    z 0.000000 0.000000 1.597160 
# 
# From -- ./inp_files/63179.got.cif
#   From: 2010.05.17/outbox.cif.g08.bks.cpg/sg63_32_cif.got.tgz:63179.got - 2010.06.03 15:47:04.
