data_PCOD9470954
_publ_section_title
;
Structure prediction by ZEFSAII (Michael W. Deem and Ramdas Pophale) SiO2 
 PCOD9470954
Probable space group: C M C M
;
_chemical_formula_sum "Si O2"
_cell_formula_units_Z 96
_cell_length_a 11.279661
_cell_length_b 25.012186
_cell_length_c 20.400706
_cell_angle_alpha 90.000000
_cell_angle_beta 90.000000
_cell_angle_gamma 90.000000
_cell_volume 5755.630354
_symmetry_space_group_name_H-M "C M C M"
_symmetry_group_IT_number 63
_symmetry_cell_setting 'orthorhombic'
loop_
_space_group_symop_operation_xyz
x,y,z
-x,-y,1/2+z
x,-y,-z
-x,y,1/2-z
-x,-y,-z
x,y,1/2-z
-x,y,z
x,-y,1/2+z
1/2+x,1/2+y,z
1/2-x,1/2-y,1/2+z
1/2+x,1/2-y,-z
1/2-x,1/2+y,1/2-z
1/2-x,1/2-y,-z
1/2+x,1/2+y,1/2-z
1/2-x,1/2+y,z
1/2+x,1/2-y,1/2+z
loop_
_atom_site_type_symbol
_atom_site_label
_atom_site_fract_x
_atom_site_fract_y
_atom_site_fract_z
Si Si1 0.500000 0.392514 0.672880
Si Si2 0.357709 0.632862 0.823917
Si Si3 0.638122 0.541934 0.574875
Si Si4 0.731697 0.224633 0.599565
Si Si5 0.142460 0.674319 0.464054
Si Si6 0.000000 0.235764 0.174734
Si Si7 0.199321 0.925948 0.931232
O O1 0.500000 0.411232 0.750000
O O2 0.500000 0.328414 0.674946
O O3 0.387199 0.409817 0.628563
O O4 0.316930 0.624509 0.750000
O O5 0.500000 0.635934 0.824679
O O6 0.325470 0.583509 0.870106
O O7 0.305883 0.686566 0.853577
O O8 0.500000 0.525003 0.585022
O O9 0.720592 0.489507 0.577990
O O10 0.641660 0.571096 0.504246
O O11 0.808362 0.276186 0.578854
O O12 0.692460 0.190114 0.535999
O O13 0.614822 0.244318 0.636344
O O14 0.198183 0.618400 0.438567
O O15 0.000000 0.672653 0.464704
O O16 0.000000 0.254502 0.250000
#
# Coordination Sequence:
#
# PCOD9470954 Si02
#       7
#     8  16  16  16  16   8  16
#     4  11  22  35  57  89 114 144 186 233 292 341
#     4  10  21  36  56  86 120 151 186 230 284 345
#     4  10  19  33  59  86 112 147 191 232 296 334
#     4  11  21  37  58  82 118 148 186 234 282 334
#     4  11  23  36  58  86 111 149 196 232 279 337
#     4  11  22  36  57  85 114 149 186 227 284 342
#     4  11  19  37  58  81 118 145 183 244 284 334
#
# _framework density 16.679320000000001
#
# number of rings (size 3 to 8) (size 9 to 14) (size 15 to 20)
#    0.000    1.333    5.833    1.500    0.000    0.667 
#    0.000    1.667    1.833    1.500    0.000    0.000 
#    0.000    0.000    0.000    0.000    0.000    0.000 
#
# Total GULP energy -267510.161756 kJ/mol
# GULP energy per Si atom -5573.128370 kJ/mol
# Density = 1.664136 g / cm^3
# Si number density = 16.679320 Si / 1000 Ang^3
#
#
#
# Elastic Constant Matrix: (Units=GPa)
#
#
# Indices 1 2 3 4 5 6 
#
# 1 52.4069 39.4589 21.9514 0.0000 0.0000 0.0000
# 2 39.4589 102.8210 57.1453 0.0000 0.0000 0.0000
# 3 21.9514 57.1453 131.3381 0.0000 0.0000 0.0000
# 4 0.0000 0.0000 0.0000 -5.1527 0.0000 0.0000
# 5 0.0000 0.0000 0.0000 0.0000 17.7045 0.0000
# 6 0.0000 0.0000 0.0000 0.0000 0.0000 45.8567
#
#
#
# Elastic Compliance Matrix: (Units=1/GPa)
#
#
# Indices 1 2 3 4 5 6 
#
# 1 0.026835 -0.010295 -0.000006 0.000000 0.000000 0.000000
# 2 -0.010295 0.016777 -0.005579 0.000000 0.000000 0.000000
# 3 -0.000006 -0.005579 0.010042 0.000000 0.000000 0.000000
# 4 0.000000 0.000000 0.000000 -0.194074 0.000000 0.000000
# 5 0.000000 0.000000 0.000000 0.000000 0.056483 0.000000
# 6 0.000000 0.000000 0.000000 0.000000 0.000000 0.021807
#
#
# Mechanical properties :
#
#
# Convention : Reuss Voigt Hill
#
# Bulk Modulus (GPa) = 45.67260 58.18636 51.92948
# Shear Modulus (GPa) = -216.72514 22.88242 -96.92136
#
# Velocity S-wave (km/s) = -11.41133 3.70794 -7.63118
# Velocity P-wave (km/s) = 12.09059 7.30019 6.81504
#
# Compressibility (1/GPa) = 0.02189496
#
# Stress axis : x y z
#
# Youngs Moduli (GPa) = 37.26410 59.60438 99.57827
#
# Poissons Ratio (x) = 0.61364 0.00057
# Poissons Ratio (y) = 0.38364 0.55556
# Poissons Ratio (z) = 0.00021 0.33254
#
# Static dielectric constant tensor:
#      x y z
#    x 1.549030 0.000000 0.000000 
#    y 0.000000 1.559310 0.000000 
#    z 0.000000 0.000000 1.578410 
# 
# From -- ./inp_files/53087.got.cif
#   From: 2010.05.17/outbox.cif.g08.bks.cpg/sg63_27_cif.got.tgz:53087.got - 2010.06.03 15:47:04.
