data_PCOD9470031
_publ_section_title
;
Structure prediction by ZEFSAII (Michael W. Deem and Ramdas Pophale) SiO2 
 PCOD9470031
Probable space group: C M C M
;
_chemical_formula_sum "Si O2"
_cell_formula_units_Z 104
_cell_length_a 23.841078
_cell_length_b 25.053513
_cell_length_c 8.692966
_cell_angle_alpha 90.000000
_cell_angle_beta 90.000000
_cell_angle_gamma 90.000000
_cell_volume 5192.332564
_symmetry_space_group_name_H-M "C M C M"
_symmetry_group_IT_number 63
_symmetry_cell_setting 'orthorhombic'
loop_
_space_group_symop_operation_xyz
x,y,z
-x,-y,1/2+z
x,-y,-z
-x,y,1/2-z
-x,-y,-z
x,y,1/2-z
-x,y,z
x,-y,1/2+z
1/2+x,1/2+y,z
1/2-x,1/2-y,1/2+z
1/2+x,1/2-y,-z
1/2-x,1/2+y,1/2-z
1/2-x,1/2-y,-z
1/2+x,1/2+y,1/2-z
1/2-x,1/2+y,z
1/2+x,1/2-y,1/2+z
loop_
_atom_site_type_symbol
_atom_site_label
_atom_site_fract_x
_atom_site_fract_y
_atom_site_fract_z
Si Si1 0.615227 0.381858 0.564288
Si Si2 0.500000 0.559400 0.064414
Si Si3 0.437533 0.725526 0.065516
Si Si4 0.895292 0.667279 0.429215
Si Si5 0.782730 0.702300 0.924962
Si Si6 0.730225 0.412474 0.423579
Si Si7 0.650564 0.056240 0.065463
O O1 0.619380 0.381547 0.750000
O O2 0.557370 0.410808 0.518506
O O3 0.607323 0.319504 0.513516
O O4 0.669299 0.413069 0.500805
O O5 0.500000 0.558544 0.250000
O O6 0.500000 0.500000 0.000000
O O7 0.434774 0.726264 0.250000
O O8 0.500000 0.706855 0.021441
O O9 0.430576 0.786101 0.008686
O O10 0.909815 0.665673 0.250000
O O11 0.832834 0.688475 0.460671
O O12 0.888551 0.606158 0.487234
O O13 0.802970 0.713978 0.750000
O O14 0.744354 0.650317 0.915701
O O15 0.750000 0.750000 0.000000
O O16 0.728442 0.434544 0.250000
O O17 0.784922 0.435900 0.509060
O O18 0.650590 0.056414 0.250000
O O19 0.630493 0.000000 0.000000
#
# Coordination Sequence:
#
# PCOD9470031 Si02
#       7
#    16   8  16  16  16  16  16
#     4  10  20  37  57  78 109 147 188 234 284 330
#     4  10  22  40  58  76 102 140 187 234 277 324
#     4  10  20  36  59  84 111 148 192 236 286 342
#     4  10  21  35  53  81 113 144 180 226 283 341
#     4  10  19  31  48  73 107 143 177 218 267 326
#     4  10  21  34  51  78 109 140 180 223 268 325
#     4  10  21  38  59  82 111 147 185 226 278 337
#
# _framework density 20.029533000000001
#
# number of rings (size 3 to 8) (size 9 to 14) (size 15 to 20)
#    0.000    2.000    0.769    2.769    0.000    8.308 
#    0.000    1.538    0.000    0.462    0.000    0.000 
#    0.000    0.000    0.000    0.000    0.000    0.000 
#
# Total GULP energy -289917.725074 kJ/mol
# GULP energy per Si atom -5575.340867 kJ/mol
# Density = 1.998395 g / cm^3
# Si number density = 20.029533 Si / 1000 Ang^3
#
#
#
# Elastic Constant Matrix: (Units=GPa)
#
#
# Indices 1 2 3 4 5 6 
#
# 1 36.5998 -5.4199 0.8305 0.0000 0.0000 0.0000
# 2 -5.4199 103.7948 11.6328 0.0000 0.0000 0.0000
# 3 0.8305 11.6328 30.1678 0.0000 0.0000 0.0000
# 4 0.0000 0.0000 0.0000 29.5041 0.0000 0.0000
# 5 0.0000 0.0000 0.0000 0.0000 20.9840 0.0000
# 6 0.0000 0.0000 0.0000 0.0000 0.0000 21.7512
#
#
#
# Elastic Compliance Matrix: (Units=1/GPa)
#
#
# Indices 1 2 3 4 5 6 
#
# 1 0.027590 0.001595 -0.001374 0.000000 0.000000 0.000000
# 2 0.001595 0.010162 -0.003962 0.000000 0.000000 0.000000
# 3 -0.001374 -0.003962 0.034714 0.000000 0.000000 0.000000
# 4 0.000000 0.000000 0.000000 0.033894 0.000000 0.000000
# 5 0.000000 0.000000 0.000000 0.000000 0.047655 0.000000
# 6 0.000000 0.000000 0.000000 0.000000 0.000000 0.045974
#
#
# Mechanical properties :
#
#
# Convention : Reuss Voigt Hill
#
# Bulk Modulus (GPa) = 15.38905 20.51656 17.95280
# Shear Modulus (GPa) = 21.82138 25.34913 23.58525
#
# Velocity S-wave (km/s) = 3.30428 3.56137 3.43523
# Velocity P-wave (km/s) = 4.71779 5.21311 4.97162
#
# Compressibility (1/GPa) = 0.06498128
#
# Stress axis : x y z
#
# Youngs Moduli (GPa) = 36.24511 98.40831 28.80716
#
# Poissons Ratio (x) = -0.15693 0.03959
# Poissons Ratio (y) = -0.05780 0.11414
# Poissons Ratio (z) = 0.04982 0.38992
#
# Static dielectric constant tensor:
#      x y z
#    x 1.689790 0.000000 0.000000 
#    y 0.000000 1.739170 0.000000 
#    z 0.000000 0.000000 1.713860 
# 
# From -- ./inp_files/10846.got.cif
#   From: 2010.05.17/outbox.cif.g08.bks.cpg/sg63_6_cif.got.tgz:10846.got - 2010.06.03 15:47:04.
