data_PCOD9470924
_publ_section_title
;
Structure prediction by ZEFSAII (Michael W. Deem and Ramdas Pophale) SiO2 
 PCOD9470924
Probable space group: C M C M
;
_chemical_formula_sum "Si O2"
_cell_formula_units_Z 80
_cell_length_a 10.737110
_cell_length_b 23.483704
_cell_length_c 15.704054
_cell_angle_alpha 90.000000
_cell_angle_beta 90.000000
_cell_angle_gamma 90.000000
_cell_volume 3959.731879
_symmetry_space_group_name_H-M "C M C M"
_symmetry_group_IT_number 63
_symmetry_cell_setting 'orthorhombic'
loop_
_space_group_symop_operation_xyz
x,y,z
-x,-y,1/2+z
x,-y,-z
-x,y,1/2-z
-x,-y,-z
x,y,1/2-z
-x,y,z
x,-y,1/2+z
1/2+x,1/2+y,z
1/2-x,1/2-y,1/2+z
1/2+x,1/2-y,-z
1/2-x,1/2+y,1/2-z
1/2-x,1/2-y,-z
1/2+x,1/2+y,1/2-z
1/2-x,1/2+y,z
1/2+x,1/2-y,1/2+z
loop_
_atom_site_type_symbol
_atom_site_label
_atom_site_fract_x
_atom_site_fract_y
_atom_site_fract_z
Si Si1 0.500000 0.787696 0.030486
Si Si2 0.500000 0.672485 0.951426
Si Si3 0.727761 0.922610 0.593900
Si Si4 0.859142 0.462233 0.154390
Si Si5 0.237551 0.645986 0.584376
Si Si6 0.500000 0.151645 0.344765
Si Si7 0.500000 0.558002 0.058194
O O1 0.500000 0.719850 0.024787
O O2 0.500000 0.809529 0.930908
O O3 0.378082 0.811375 0.077666
O O4 0.631579 0.677450 0.904309
O O5 0.500000 0.609324 0.990214
O O6 0.731157 0.888586 0.505147
O O7 0.625492 0.887121 0.647531
O O8 0.874339 0.933106 0.613375
O O9 0.676862 0.986751 0.592962
O O10 0.853692 0.485860 0.250000
O O11 0.778568 0.405540 0.149368
O O12 0.000000 0.443886 0.135041
O O13 0.500000 0.178510 0.250000
O O14 0.500000 0.500000 0.000000
#
# Coordination Sequence:
#
# PCOD9470924 Si02
#       7
#     8   8  16  16  16   8   8
#     4  10  20  35  59  81 101 145 186 223 271 320
#     4  10  20  36  58  82 112 135 177 232 275 314
#     4  10  19  33  57  79 110 146 180 226 275 314
#     4  11  21  33  52  80 113 146 177 218 270 325
#     4  10  20  35  55  82 108 140 183 226 267 320
#     4  10  20  35  53  81 111 141 189 234 266 315
#     4  10  20  36  54  86 114 137 171 227 278 331
#
# _framework density 20.203386999999999
#
# number of rings (size 3 to 8) (size 9 to 14) (size 15 to 20)
#    0.000    1.800    2.000    4.200    0.000    0.800 
#    0.000    4.500    0.000    0.000    0.000    5.600 
#    0.000    0.000    0.000    0.000    0.000    0.000 
#
# Total GULP energy -222741.733146 kJ/mol
# GULP energy per Si atom -5568.543329 kJ/mol
# Density = 2.015740 g / cm^3
# Si number density = 20.203387 Si / 1000 Ang^3
#
#
#
# Elastic Constant Matrix: (Units=GPa)
#
#
# Indices 1 2 3 4 5 6 
#
# 1 139.3650 10.5900 6.8448 0.0000 0.0000 0.0000
# 2 10.5900 64.8987 -17.7931 0.0000 0.0000 0.0000
# 3 6.8448 -17.7931 38.2968 0.0000 0.0000 0.0000
# 4 0.0000 0.0000 0.0000 20.4348 0.0000 0.0000
# 5 0.0000 0.0000 0.0000 0.0000 -8.0356 0.0000
# 6 0.0000 0.0000 0.0000 0.0000 0.0000 10.3647
#
#
#
# Elastic Compliance Matrix: (Units=1/GPa)
#
#
# Indices 1 2 3 4 5 6 
#
# 1 0.007419 -0.001804 -0.002164 0.000000 0.000000 0.000000
# 2 -0.001804 0.018097 0.008730 0.000000 0.000000 0.000000
# 3 -0.002164 0.008730 0.030555 0.000000 0.000000 0.000000
# 4 0.000000 0.000000 0.000000 0.048936 0.000000 0.000000
# 5 0.000000 0.000000 0.000000 0.000000 -0.124446 0.000000
# 6 0.000000 0.000000 0.000000 0.000000 0.000000 0.096482
#
#
# Mechanical properties :
#
#
# Convention : Reuss Voigt Hill
#
# Bulk Modulus (GPa) = 15.24513 26.87153 21.05833
# Shear Modulus (GPa) = 55.93983 20.74737 38.34360
#
# Velocity S-wave (km/s) = 5.26768 3.20804 4.36119
# Velocity P-wave (km/s) = 6.67534 5.20110 5.98379
#
# Compressibility (1/GPa) = 0.06559472
#
# Stress axis : x y z
#
# Youngs Moduli (GPa) = 134.79343 55.25918 32.72810
#
# Poissons Ratio (x) = 0.09968 0.07083
# Poissons Ratio (y) = 0.24315 -0.28572
# Poissons Ratio (z) = 0.29170 -0.48243
#
# Static dielectric constant tensor:
#      x y z
#    x 1.796990 0.000000 0.000000 
#    y 0.000000 1.706120 0.000000 
#    z 0.000000 0.000000 1.753650 
# 
# From -- ./inp_files/42219.got.cif
#   From: 2010.05.17/outbox.cif.g08.bks.cpg/sg63_22_cif.got.tgz:42219.got - 2010.06.03 15:47:04.
