data_PCOD9470257
_publ_section_title
;
Structure prediction by ZEFSAII (Michael W. Deem and Ramdas Pophale) SiO2 
 PCOD9470257
Probable space group: C M C M
;
_chemical_formula_sum "Si O2"
_cell_formula_units_Z 80
_cell_length_a 20.157556
_cell_length_b 25.998423
_cell_length_c 9.236024
_cell_angle_alpha 90.000000
_cell_angle_beta 90.000000
_cell_angle_gamma 90.000000
_cell_volume 4840.273847
_symmetry_space_group_name_H-M "C M C M"
_symmetry_group_IT_number 63
_symmetry_cell_setting 'orthorhombic'
loop_
_space_group_symop_operation_xyz
x,y,z
-x,-y,1/2+z
x,-y,-z
-x,y,1/2-z
-x,-y,-z
x,y,1/2-z
-x,y,z
x,-y,1/2+z
1/2+x,1/2+y,z
1/2-x,1/2-y,1/2+z
1/2+x,1/2-y,-z
1/2-x,1/2+y,1/2-z
1/2-x,1/2-y,-z
1/2+x,1/2+y,1/2-z
1/2-x,1/2+y,z
1/2+x,1/2-y,1/2+z
loop_
_atom_site_type_symbol
_atom_site_label
_atom_site_fract_x
_atom_site_fract_y
_atom_site_fract_z
Si Si1 0.500000 0.273769 0.081239
Si Si2 0.650884 0.249542 0.079302
Si Si3 0.755285 0.448061 0.417418
Si Si4 0.500000 0.376909 0.579980
Si Si5 0.743095 0.832341 0.424447
Si Si6 0.904195 0.948751 0.082927
O O1 0.500000 0.293172 0.250000
O O2 0.571489 0.246931 0.062456
O O3 0.500000 0.318105 0.963141
O O4 0.665230 0.241581 0.250000
O O5 0.685669 0.304808 0.041338
O O6 0.688765 0.206612 0.987275
O O7 0.777059 0.500000 0.500000
O O8 0.777293 0.451432 0.250000
O O9 0.770137 0.390710 0.477254
O O10 0.675136 0.447777 0.418433
O O11 0.500000 0.386335 0.750000
O O12 0.563348 0.402425 0.503335
O O13 0.740041 0.834969 0.250000
O O14 0.924917 0.948472 0.250000
O O15 0.925343 0.000000 0.000000
#
# Coordination Sequence:
#
# PCOD9470257 Si02
#       6
#     8  16  16   8  16  16
#     4  10  20  35  51  68  93 123 157 196 238 282
#     4   9  18  32  51  72  94 125 161 195 235 284
#     4   9  18  31  48  69  93 122 155 193 236 281
#     4  12  23  31  42  62  87 119 159 196 233 276
#     4   9  17  31  49  71  99 127 156 192 237 284
#     4  10  19  32  46  61  86 120 158 196 233 272
#
# _framework density 16.527989999999999
#
# number of rings (size 3 to 8) (size 9 to 14) (size 15 to 20)
#    0.000    2.400    0.000    3.000    0.000    5.600 
#    0.000    4.000    0.000    0.000    0.000    0.700 
#    0.000    0.000    0.000    0.000    0.000    0.000 
#
# Total GULP energy -222748.796231 kJ/mol
# GULP energy per Si atom -5568.719906 kJ/mol
# Density = 1.649037 g / cm^3
# Si number density = 16.527990 Si / 1000 Ang^3
#
#
#
# Elastic Constant Matrix: (Units=GPa)
#
#
# Indices 1 2 3 4 5 6 
#
# 1 56.8972 21.3311 18.1948 0.0000 0.0000 0.0000
# 2 21.3311 115.3210 35.0974 0.0000 0.0000 0.0000
# 3 18.1948 35.0974 64.3217 0.0000 0.0000 0.0000
# 4 0.0000 0.0000 0.0000 28.1199 0.0000 0.0000
# 5 0.0000 0.0000 0.0000 0.0000 22.0385 0.0000
# 6 0.0000 0.0000 0.0000 0.0000 0.0000 20.0349
#
#
#
# Elastic Compliance Matrix: (Units=1/GPa)
#
#
# Indices 1 2 3 4 5 6 
#
# 1 0.019842 -0.002353 -0.004329 0.000000 0.000000 0.000000
# 2 -0.002353 0.010677 -0.005161 0.000000 0.000000 0.000000
# 3 -0.004329 -0.005161 0.019587 0.000000 0.000000 0.000000
# 4 0.000000 0.000000 0.000000 0.035562 0.000000 0.000000
# 5 0.000000 0.000000 0.000000 0.000000 0.045375 0.000000
# 6 0.000000 0.000000 0.000000 0.000000 0.000000 0.049913
#
#
# Mechanical properties :
#
#
# Convention : Reuss Voigt Hill
#
# Bulk Modulus (GPa) = 37.84725 42.86516 40.35620
# Shear Modulus (GPa) = 23.42487 24.83309 24.12898
#
# Velocity S-wave (km/s) = 3.76877 3.88040 3.82499
# Velocity P-wave (km/s) = 6.47200 6.78733 6.63154
#
# Compressibility (1/GPa) = 0.02642200
#
# Stress axis : x y z
#
# Youngs Moduli (GPa) = 50.39831 93.65733 51.05354
#
# Poissons Ratio (x) = 0.22035 0.22101
# Poissons Ratio (y) = 0.11857 0.26347
# Poissons Ratio (z) = 0.21817 0.48332
#
# Static dielectric constant tensor:
#      x y z
#    x 1.556270 0.000000 0.000000 
#    y 0.000000 1.588750 0.000000 
#    z 0.000000 0.000000 1.551260 
# 
# From -- ./inp_files/6473.got.cif
#   From: 2010.05.17/outbox.cif.g08.bks.cpg/sg63_4_cif.got.tgz:6473.got - 2010.06.03 15:47:04.
