data_PCOD9470058
_publ_section_title
;
Structure prediction by ZEFSAII (Michael W. Deem and Ramdas Pophale) SiO2 
 PCOD9470058
Probable space group: C M C M
;
_chemical_formula_sum "Si O2"
_cell_formula_units_Z 96
_cell_length_a 17.644700
_cell_length_b 19.115151
_cell_length_c 17.796051
_cell_angle_alpha 90.000000
_cell_angle_beta 90.000000
_cell_angle_gamma 90.000000
_cell_volume 6002.271743
_symmetry_space_group_name_H-M "C M C M"
_symmetry_group_IT_number 63
_symmetry_cell_setting 'orthorhombic'
loop_
_space_group_symop_operation_xyz
x,y,z
-x,-y,1/2+z
x,-y,-z
-x,y,1/2-z
-x,-y,-z
x,y,1/2-z
-x,y,z
x,-y,1/2+z
1/2+x,1/2+y,z
1/2-x,1/2-y,1/2+z
1/2+x,1/2-y,-z
1/2-x,1/2+y,1/2-z
1/2-x,1/2-y,-z
1/2+x,1/2+y,1/2-z
1/2-x,1/2+y,z
1/2+x,1/2-y,1/2+z
loop_
_atom_site_type_symbol
_atom_site_label
_atom_site_fract_x
_atom_site_fract_y
_atom_site_fract_z
Si Si1 0.788882 0.471634 0.338285
Si Si2 0.412092 0.086205 0.159192
Si Si3 0.771028 0.847235 0.062593
Si Si4 0.084749 0.916938 0.513027
Si Si5 0.293075 0.809110 0.599864
Si Si6 0.666455 0.405840 0.664880
O O1 0.797359 0.454447 0.250000
O O2 0.861129 0.518634 0.362320
O O3 0.773313 0.403496 0.387381
O O4 0.716685 0.523721 0.345302
O O5 0.407577 0.090844 0.250000
O O6 0.500000 0.080273 0.137794
O O7 0.370556 0.154104 0.125403
O O8 0.788248 0.774274 0.103812
O O9 0.850267 0.880379 0.035409
O O10 0.724644 0.830334 0.986445
O O11 0.104125 0.903242 0.600267
O O12 0.000000 0.893024 0.494382
O O13 0.089014 0.000000 0.500000
O O14 0.226698 0.844078 0.649505
O O15 0.638113 0.403481 0.750000
#
# Coordination Sequence:
#
# PCOD9470058 Si02
#       6
#    16  16  16  16  16  16
#     4   9  17  30  50  71  94 127 166 206 248 296
#     4   9  18  33  52  75 102 131 162 202 255 305
#     4  10  19  33  49  73 100 131 166 209 247 293
#     4  10  19  31  49  71  98 132 163 202 253 294
#     4   9  19  31  50  73  99 130 166 203 247 299
#     4   9  17  31  50  72  95 126 168 206 240 294
#
# _framework density 15.993944000000001
#
# number of rings (size 3 to 8) (size 9 to 14) (size 15 to 20)
#    0.000    2.667    1.667    1.500    0.000    2.333 
#    0.000    1.667    0.000    4.500    0.000    7.000 
#    0.000    0.000    0.000    0.000    0.000    0.000 
#
# Total GULP energy -267481.088934 kJ/mol
# GULP energy per Si atom -5572.522686 kJ/mol
# Density = 1.595754 g / cm^3
# Si number density = 15.993944 Si / 1000 Ang^3
#
#
#
# Elastic Constant Matrix: (Units=GPa)
#
#
# Indices 1 2 3 4 5 6 
#
# 1 84.7070 40.5488 20.7825 0.0000 0.0000 0.0000
# 2 40.5488 114.4287 35.2583 0.0000 0.0000 0.0000
# 3 20.7825 35.2583 40.9074 0.0000 0.0000 0.0000
# 4 0.0000 0.0000 0.0000 18.8126 0.0000 0.0000
# 5 0.0000 0.0000 0.0000 0.0000 16.0601 0.0000
# 6 0.0000 0.0000 0.0000 0.0000 0.0000 11.6100
#
#
#
# Elastic Compliance Matrix: (Units=1/GPa)
#
#
# Indices 1 2 3 4 5 6 
#
# 1 0.014695 -0.003958 -0.004054 0.000000 0.000000 0.000000
# 2 -0.003958 0.012965 -0.009164 0.000000 0.000000 0.000000
# 3 -0.004054 -0.009164 0.034404 0.000000 0.000000 0.000000
# 4 0.000000 0.000000 0.000000 0.053156 0.000000 0.000000
# 5 0.000000 0.000000 0.000000 0.000000 0.062266 0.000000
# 6 0.000000 0.000000 0.000000 0.000000 0.000000 0.086132
#
#
# Mechanical properties :
#
#
# Convention : Reuss Voigt Hill
#
# Bulk Modulus (GPa) = 36.08617 48.13579 42.11098
# Shear Modulus (GPa) = 16.27565 18.86011 17.56788
#
# Velocity S-wave (km/s) = 3.19347 3.43768 3.31782
# Velocity P-wave (km/s) = 6.01739 6.77631 6.40810
#
# Compressibility (1/GPa) = 0.02771145
#
# Stress axis : x y z
#
# Youngs Moduli (GPa) = 68.05155 77.12891 29.06676
#
# Poissons Ratio (x) = 0.30528 0.11784
# Poissons Ratio (y) = 0.26935 0.26637
# Poissons Ratio (z) = 0.27588 0.70681
#
# Static dielectric constant tensor:
#      x y z
#    x 1.522600 0.000000 0.000000 
#    y 0.000000 1.522530 0.000000 
#    z 0.000000 0.000000 1.537190 
# 
# From -- ./inp_files/45722.got.cif
#   From: 2010.05.17/outbox.cif.g08.bks.cpg/sg63_23_cif.got.tgz:45722.got - 2010.06.03 15:47:04.
