data_PCOD9470342
_publ_section_title
;
Structure prediction by ZEFSAII (Michael W. Deem and Ramdas Pophale) SiO2 
 PCOD9470342
Probable space group: C M C M
;
_chemical_formula_sum "Si O2"
_cell_formula_units_Z 104
_cell_length_a 20.821295
_cell_length_b 26.851473
_cell_length_c 8.479763
_cell_angle_alpha 90.000000
_cell_angle_beta 90.000000
_cell_angle_gamma 90.000000
_cell_volume 4740.886593
_symmetry_space_group_name_H-M "C M C M"
_symmetry_group_IT_number 63
_symmetry_cell_setting 'orthorhombic'
loop_
_space_group_symop_operation_xyz
x,y,z
-x,-y,1/2+z
x,-y,-z
-x,y,1/2-z
-x,-y,-z
x,y,1/2-z
-x,y,z
x,-y,1/2+z
1/2+x,1/2+y,z
1/2-x,1/2-y,1/2+z
1/2+x,1/2-y,-z
1/2-x,1/2+y,1/2-z
1/2-x,1/2-y,-z
1/2+x,1/2+y,1/2-z
1/2-x,1/2+y,z
1/2+x,1/2-y,1/2+z
loop_
_atom_site_type_symbol
_atom_site_label
_atom_site_fract_x
_atom_site_fract_y
_atom_site_fract_z
Si Si1 0.077005 0.069646 0.584042
Si Si2 0.922947 0.283695 0.250000
Si Si3 0.752991 0.053807 0.065290
Si Si4 0.574140 0.836145 0.566616
Si Si5 0.098420 0.552610 0.431233
Si Si6 0.678114 0.648604 0.925363
Si Si7 0.143177 0.819462 0.750000
Si Si8 0.577588 0.571830 0.250000
O O1 0.099749 0.048059 0.750000
O O2 0.105781 0.125632 0.582031
O O3 0.096415 0.048019 0.415718
O O4 0.000000 0.069132 0.586700
O O5 0.897216 0.306442 0.416630
O O6 0.905839 0.225790 0.250000
O O7 0.000000 0.291801 0.250000
O O8 0.770391 0.060280 0.250000
O O9 0.675685 0.054913 0.055816
O O10 0.780477 0.098996 0.962360
O O11 0.772345 0.000000 0.000000
O O12 0.600849 0.832917 0.750000
O O13 0.500000 0.820123 0.580708
O O14 0.574884 0.893872 0.511676
O O15 0.076980 0.500000 0.500000
O O16 0.079773 0.551324 0.250000
O O17 0.693185 0.668713 0.750000
O O18 0.682134 0.681197 0.084170
O O19 0.106894 0.872743 0.750000
O O20 0.500000 0.574182 0.250000
#
# Coordination Sequence:
#
# PCOD9470342 Si02
#       8
#    16   8  16  16  16  16   8   8
#     4   8  14  24  39  61  89 120 157 202 257 316
#     4  10  21  36  58  85 114 153 195 231 283 342
#     4  10  19  34  54  81 114 145 187 237 285 341
#     4   9  19  37  57  83 120 156 187 225 278 337
#     4   9  19  33  55  87 117 150 191 232 276 333
#     4  10  19  32  51  77 107 144 182 235 287 336
#     4  10  19  32  50  75 107 137 183 239 276 320
#     4   8  13  22  38  60  87 116 149 196 255 302
#
# _framework density 21.936824999999999
#
# number of rings (size 3 to 8) (size 9 to 14) (size 15 to 20)
#    0.000    2.769    0.769    0.692    1.077    2.154 
#    0.000    0.000    0.000    5.077    0.000    0.000 
#    0.000    0.000    0.000    0.000    0.000    0.000 
#
# Total GULP energy -289625.649256 kJ/mol
# GULP energy per Si atom -5569.724024 kJ/mol
# Density = 2.188690 g / cm^3
# Si number density = 21.936825 Si / 1000 Ang^3
#
#
#
# Elastic Constant Matrix: (Units=GPa)
#
#
# Indices 1 2 3 4 5 6 
#
# 1 42.3690 3.0325 11.5210 0.0000 0.0000 0.0000
# 2 3.0325 67.6054 45.5510 0.0000 0.0000 0.0000
# 3 11.5210 45.5510 212.2858 0.0000 0.0000 0.0000
# 4 0.0000 0.0000 0.0000 24.5094 0.0000 0.0000
# 5 0.0000 0.0000 0.0000 0.0000 4.6599 0.0000
# 6 0.0000 0.0000 0.0000 0.0000 0.0000 19.3739
#
#
#
# Elastic Compliance Matrix: (Units=1/GPa)
#
#
# Indices 1 2 3 4 5 6 
#
# 1 0.023959 -0.000232 -0.001250 0.000000 0.000000 0.000000
# 2 -0.000232 0.017294 -0.003698 0.000000 0.000000 0.000000
# 3 -0.001250 -0.003698 0.005572 0.000000 0.000000 0.000000
# 4 0.000000 0.000000 0.000000 0.040801 0.000000 0.000000
# 5 0.000000 0.000000 0.000000 0.000000 0.214598 0.000000
# 6 0.000000 0.000000 0.000000 0.000000 0.000000 0.051616
#
#
# Mechanical properties :
#
#
# Convention : Reuss Voigt Hill
#
# Bulk Modulus (GPa) = 27.42503 49.16325 38.29414
# Shear Modulus (GPa) = 13.28533 27.18569 20.23551
#
# Velocity S-wave (km/s) = 2.46360 3.52415 3.04047
# Velocity P-wave (km/s) = 4.54108 6.24655 5.46081
#
# Compressibility (1/GPa) = 0.03646304
#
# Stress axis : x y z
#
# Youngs Moduli (GPa) = 41.73834 57.82383 179.46762
#
# Poissons Ratio (x) = 0.01342 0.22442
# Poissons Ratio (y) = 0.00969 0.66371
# Poissons Ratio (z) = 0.05219 0.21385
#
# Static dielectric constant tensor:
#      x y z
#    x 1.830120 0.000000 0.000000 
#    y 0.000000 1.818230 0.000000 
#    z 0.000000 0.000000 1.895920 
# 
# From -- ./inp_files/10891.got.cif
#   From: 2010.05.17/outbox.cif.g08.bks.cpg/sg63_6_cif.got.tgz:10891.got - 2010.06.03 15:47:04.
