data_PCOD9470062
_publ_section_title
;
Structure prediction by ZEFSAII (Michael W. Deem and Ramdas Pophale) SiO2 
 PCOD9470062
Probable space group: C M C M
;
_chemical_formula_sum "Si O2"
_cell_formula_units_Z 96
_cell_length_a 7.364522
_cell_length_b 21.184581
_cell_length_c 29.328152
_cell_angle_alpha 90.000000
_cell_angle_beta 90.000000
_cell_angle_gamma 90.000000
_cell_volume 4575.611481
_symmetry_space_group_name_H-M "C M C M"
_symmetry_group_IT_number 63
_symmetry_cell_setting 'orthorhombic'
loop_
_space_group_symop_operation_xyz
x,y,z
-x,-y,1/2+z
x,-y,-z
-x,y,1/2-z
-x,-y,-z
x,y,1/2-z
-x,y,z
x,-y,1/2+z
1/2+x,1/2+y,z
1/2-x,1/2-y,1/2+z
1/2+x,1/2-y,-z
1/2-x,1/2+y,1/2-z
1/2-x,1/2-y,-z
1/2+x,1/2+y,1/2-z
1/2-x,1/2+y,z
1/2+x,1/2-y,1/2+z
loop_
_atom_site_type_symbol
_atom_site_label
_atom_site_fract_x
_atom_site_fract_y
_atom_site_fract_z
Si Si1 0.720805 0.330345 0.198831
Si Si2 0.777561 0.632133 0.394580
Si Si3 0.780160 0.116471 0.896238
Si Si4 0.279180 0.183754 0.300756
Si Si5 0.788211 0.488606 0.550474
Si Si6 0.216167 0.757490 0.053388
O O1 0.779644 0.348581 0.250000
O O2 0.500000 0.331193 0.199011
O O3 0.779500 0.372190 0.155990
O O4 0.772984 0.257003 0.191005
O O5 0.720158 0.639782 0.342147
O O6 0.712863 0.570521 0.421316
O O7 0.717795 0.695550 0.420418
O O8 0.000000 0.631132 0.394416
O O9 0.722838 0.051800 0.919736
O O10 0.716251 0.176754 0.925756
O O11 0.000000 0.116370 0.896366
O O12 0.219241 0.165726 0.250000
O O13 0.500000 0.183643 0.300560
O O14 0.709418 0.500000 0.500000
O O15 0.000000 0.472898 0.543158
O O16 0.000000 0.758577 0.060566
O O17 0.250000 0.750000 0.000000
#
# Coordination Sequence:
#
# PCOD9470062 Si02
#       6
#    16  16  16  16  16  16
#     4   8  13  24  45  73 100 122 149 192 247 295
#     4   9  16  29  46  65  92 124 159 196 234 280
#     4  10  19  32  51  75  99 124 160 205 245 284
#     4   8  12  21  42  70  94 116 149 197 245 281
#     4  10  21  35  49  66  96 139 171 194 239 298
#     4  10  19  31  49  72  95 120 156 202 243 277
#
# _framework density 20.980803000000002
#
# number of rings (size 3 to 8) (size 9 to 14) (size 15 to 20)
#    0.000    2.833    1.667    2.000    0.000    2.333 
#    0.000    1.667    0.000    1.500    0.000    0.000 
#    0.000    2.000    0.000    0.000    0.000    0.000 
#
# Total GULP energy -267935.074681 kJ/mol
# GULP energy per Si atom -5581.980723 kJ/mol
# Density = 2.093305 g / cm^3
# Si number density = 20.980803 Si / 1000 Ang^3
#
#
#
# Elastic Constant Matrix: (Units=GPa)
#
#
# Indices 1 2 3 4 5 6 
#
# 1 71.9046 -7.4367 -7.2283 0.0000 0.0000 0.0000
# 2 -7.4367 111.3794 64.9443 0.0000 0.0000 0.0000
# 3 -7.2283 64.9443 181.7743 0.0000 0.0000 0.0000
# 4 0.0000 0.0000 0.0000 32.8573 0.0000 0.0000
# 5 0.0000 0.0000 0.0000 0.0000 -2.4273 0.0000
# 6 0.0000 0.0000 0.0000 0.0000 0.0000 1.1704
#
#
#
# Elastic Compliance Matrix: (Units=1/GPa)
#
#
# Indices 1 2 3 4 5 6 
#
# 1 0.014015 0.000772 0.000282 0.000000 0.000000 0.000000
# 2 0.000772 0.011383 -0.004036 0.000000 0.000000 0.000000
# 3 0.000282 -0.004036 0.006955 0.000000 0.000000 0.000000
# 4 0.000000 0.000000 0.000000 0.030435 0.000000 0.000000
# 5 0.000000 0.000000 0.000000 0.000000 -0.411972 0.000000
# 6 0.000000 0.000000 0.000000 0.000000 0.000000 0.854377
#
#
# Mechanical properties :
#
#
# Convention : Reuss Voigt Hill
#
# Bulk Modulus (GPa) = 37.89722 51.73522 44.81622
# Shear Modulus (GPa) = 9.61621 27.30534 18.46077
#
# Velocity S-wave (km/s) = 2.14320 3.61147 2.96951
# Velocity P-wave (km/s) = 4.92203 6.48862 5.75884
#
# Compressibility (1/GPa) = 0.02638716
#
# Stress axis : x y z
#
# Youngs Moduli (GPa) = 71.34997 87.84706 143.78869
#
# Poissons Ratio (x) = -0.06778 -0.04050
# Poissons Ratio (y) = -0.05505 0.58039
# Poissons Ratio (z) = -0.02010 0.35458
#
# Static dielectric constant tensor:
#      x y z
#    x 1.816770 0.000000 0.000000 
#    y 0.000000 1.707690 0.000000 
#    z 0.000000 0.000000 1.531020 
# 
# From -- ./inp_files/67240.got.cif
#   From: 2010.05.17/outbox.cif.g08.bks.cpg/sg63_34_cif.got.tgz:67240.got - 2010.06.03 15:47:04.
