data_PCOD9470071
_publ_section_title
;
Structure prediction by ZEFSAII (Michael W. Deem and Ramdas Pophale) SiO2 
 PCOD9470071
Probable space group: C M C M
;
_chemical_formula_sum "Si O2"
_cell_formula_units_Z 96
_cell_length_a 19.186801
_cell_length_b 33.173805
_cell_length_c 9.004886
_cell_angle_alpha 90.000000
_cell_angle_beta 90.000000
_cell_angle_gamma 90.000000
_cell_volume 5731.602690
_symmetry_space_group_name_H-M "C M C M"
_symmetry_group_IT_number 63
_symmetry_cell_setting 'orthorhombic'
loop_
_space_group_symop_operation_xyz
x,y,z
-x,-y,1/2+z
x,-y,-z
-x,y,1/2-z
-x,-y,-z
x,y,1/2-z
-x,y,z
x,-y,1/2+z
1/2+x,1/2+y,z
1/2-x,1/2-y,1/2+z
1/2+x,1/2-y,-z
1/2-x,1/2+y,1/2-z
1/2-x,1/2-y,-z
1/2+x,1/2+y,1/2-z
1/2-x,1/2+y,z
1/2+x,1/2-y,1/2+z
loop_
_atom_site_type_symbol
_atom_site_label
_atom_site_fract_x
_atom_site_fract_y
_atom_site_fract_z
Si Si1 0.655708 0.667667 0.926645
Si Si2 0.920458 0.670636 0.428611
Si Si3 0.917710 0.243269 0.073598
Si Si4 0.784615 0.624393 0.428438
Si Si5 0.210586 0.042165 0.072651
Si Si6 0.580239 0.416204 0.427534
O O1 0.660776 0.672817 0.750000
O O2 0.603481 0.630030 0.956080
O O3 0.626874 0.707893 0.000962
O O4 0.729355 0.653826 0.993641
O O5 0.919074 0.675685 0.250000
O O6 0.901996 0.713252 0.503078
O O7 0.862629 0.637596 0.468121
O O8 0.000000 0.660253 0.471375
O O9 0.906745 0.244391 0.250000
O O10 0.000000 0.235417 0.045528
O O11 0.776557 0.628199 0.250000
O O12 0.762461 0.578891 0.467892
O O13 0.208524 0.038513 0.250000
O O14 0.134858 0.055738 0.012407
O O15 0.230587 0.000000 0.000000
O O16 0.586956 0.422895 0.250000
O O17 0.500000 0.422549 0.470009
#
# Coordination Sequence:
#
# PCOD9470071 Si02
#       6
#    16  16  16  16  16  16
#     4  10  19  31  49  72  99 134 172 206 240 280
#     4   9  18  34  55  75  95 123 160 201 245 292
#     4  10  20  32  47  70 101 135 169 205 243 282
#     4   9  19  35  53  74  98 124 158 200 245 292
#     4  10  20  34  52  73  97 125 157 194 238 289
#     4   9  18  32  49  70  97 129 166 205 240 275
#
# _framework density 16.749241999999999
#
# number of rings (size 3 to 8) (size 9 to 14) (size 15 to 20)
#    0.000    2.500    0.000    2.000    0.000    5.000 
#    0.000    0.000    0.000    0.500    0.000    0.000 
#    0.000    0.000    0.000    0.000    0.000    0.500 
#
# Total GULP energy -267797.253947 kJ/mol
# GULP energy per Si atom -5579.109457 kJ/mol
# Density = 1.671112 g / cm^3
# Si number density = 16.749242 Si / 1000 Ang^3
#
#
#
# Elastic Constant Matrix: (Units=GPa)
#
#
# Indices 1 2 3 4 5 6 
#
# 1 101.8439 92.8658 46.6430 0.0000 0.0000 0.0000
# 2 92.8658 119.2702 48.6896 0.0000 0.0000 0.0000
# 3 46.6430 48.6896 33.3315 0.0000 0.0000 0.0000
# 4 0.0000 0.0000 0.0000 22.6060 0.0000 0.0000
# 5 0.0000 0.0000 0.0000 0.0000 20.2841 0.0000
# 6 0.0000 0.0000 0.0000 0.0000 0.0000 7.9988
#
#
#
# Elastic Compliance Matrix: (Units=1/GPa)
#
#
# Indices 1 2 3 4 5 6 
#
# 1 0.041894 -0.021520 -0.027190 0.000000 0.000000 0.000000
# 2 -0.021520 0.031824 -0.016374 0.000000 0.000000 0.000000
# 3 -0.027190 -0.016374 0.091969 0.000000 0.000000 0.000000
# 4 0.000000 0.000000 0.000000 0.044236 0.000000 0.000000
# 5 0.000000 0.000000 0.000000 0.000000 0.049300 0.000000
# 6 0.000000 0.000000 0.000000 0.000000 0.000000 0.125018
#
#
# Mechanical properties :
#
#
# Convention : Reuss Voigt Hill
#
# Bulk Modulus (GPa) = 28.15304 70.09361 49.12332
# Shear Modulus (GPa) = 9.50120 14.59427 12.04774
#
# Velocity S-wave (km/s) = 2.38431 2.95505 2.68489
# Velocity P-wave (km/s) = 4.94216 7.32002 6.24531
#
# Compressibility (1/GPa) = 0.03552015
#
# Stress axis : x y z
#
# Youngs Moduli (GPa) = 23.86952 31.42257 10.87324
#
# Poissons Ratio (x) = 0.67621 0.29565
# Poissons Ratio (y) = 0.51367 0.17803
# Poissons Ratio (z) = 0.64902 0.51450
#
# Static dielectric constant tensor:
#      x y z
#    x 1.557880 0.000000 0.000000 
#    y 0.000000 1.543980 0.000000 
#    z 0.000000 0.000000 1.553600 
# 
# From -- ./inp_files/8572.got.cif
#   From: 2010.05.17/outbox.cif.g08.bks.cpg/sg63_5_cif.got.tgz:8572.got - 2010.06.03 15:47:04.
