data_PCOD9470301
_publ_section_title
;
Structure prediction by ZEFSAII (Michael W. Deem and Ramdas Pophale) SiO2 
 PCOD9470301
Probable space group: C M C M
;
_chemical_formula_sum "Si O2"
_cell_formula_units_Z 96
_cell_length_a 23.155432
_cell_length_b 27.970303
_cell_length_c 8.759758
_cell_angle_alpha 90.000000
_cell_angle_beta 90.000000
_cell_angle_gamma 90.000000
_cell_volume 5673.383840
_symmetry_space_group_name_H-M "C M C M"
_symmetry_group_IT_number 63
_symmetry_cell_setting 'orthorhombic'
loop_
_space_group_symop_operation_xyz
x,y,z
-x,-y,1/2+z
x,-y,-z
-x,y,1/2-z
-x,-y,-z
x,y,1/2-z
-x,y,z
x,-y,1/2+z
1/2+x,1/2+y,z
1/2-x,1/2-y,1/2+z
1/2+x,1/2-y,-z
1/2-x,1/2+y,1/2-z
1/2-x,1/2-y,-z
1/2+x,1/2+y,1/2-z
1/2-x,1/2+y,z
1/2+x,1/2-y,1/2+z
loop_
_atom_site_type_symbol
_atom_site_label
_atom_site_fract_x
_atom_site_fract_y
_atom_site_fract_z
Si Si1 0.379254 0.785258 0.932885
Si Si2 0.736173 0.552040 0.065766
Si Si3 0.500000 0.738412 0.935763
Si Si4 0.618423 0.601812 0.072468
Si Si5 0.797968 0.642611 0.931968
Si Si6 0.500000 0.627557 0.568468
Si Si7 0.809349 0.801479 0.571159
O O1 0.377816 0.789311 0.750000
O O2 0.442421 0.766713 0.981713
O O3 0.357058 0.834286 0.006967
O O4 0.335676 0.743832 0.987356
O O5 0.737689 0.552907 0.250000
O O6 0.671196 0.568461 0.017690
O O7 0.748358 0.500000 0.000000
O O8 0.780373 0.591612 0.002395
O O9 0.500000 0.736588 0.750000
O O10 0.500000 0.683059 0.989289
O O11 0.607957 0.590846 0.250000
O O12 0.644354 0.655418 0.062910
O O13 0.558127 0.601655 0.985978
O O14 0.797617 0.640379 0.750000
O O15 0.747469 0.678055 0.991123
O O16 0.500000 0.629692 0.750000
O O17 0.797946 0.791455 0.750000
#
# Coordination Sequence:
#
# PCOD9470301 Si02
#       7
#    16  16   8  16  16   8  16
#     4  11  20  34  51  73 106 141 178 217 258 309
#     4  10  21  39  60  82 104 131 168 216 272 322
#     4   9  20  33  49  74 105 144 183 220 257 299
#     4   9  19  33  50  73 103 137 175 217 262 309
#     4  11  22  35  52  77 105 137 173 214 262 313
#     4  11  19  31  50  74 101 138 187 222 257 304
#     4  10  19  32  49  73 103 139 177 216 261 310
#
# _framework density 16.921119000000001
#
# number of rings (size 3 to 8) (size 9 to 14) (size 15 to 20)
#    0.000    1.833    1.667    4.750    0.000    3.333 
#    0.000    2.083    0.000    0.000    0.000    0.583 
#    0.000    0.000    0.000    0.000    0.000    0.000 
#
# Total GULP energy -267962.770568 kJ/mol
# GULP energy per Si atom -5582.557720 kJ/mol
# Density = 1.688261 g / cm^3
# Si number density = 16.921119 Si / 1000 Ang^3
#
#
#
# Elastic Constant Matrix: (Units=GPa)
#
#
# Indices 1 2 3 4 5 6 
#
# 1 33.4021 46.2695 15.8251 0.0000 0.0000 0.0000
# 2 46.2695 101.8163 28.1999 0.0000 0.0000 0.0000
# 3 15.8251 28.1999 70.8182 0.0000 0.0000 0.0000
# 4 0.0000 0.0000 0.0000 25.5435 0.0000 0.0000
# 5 0.0000 0.0000 0.0000 0.0000 21.3726 0.0000
# 6 0.0000 0.0000 0.0000 0.0000 0.0000 5.6404
#
#
#
# Elastic Compliance Matrix: (Units=1/GPa)
#
#
# Indices 1 2 3 4 5 6 
#
# 1 0.081756 -0.036072 -0.003905 0.000000 0.000000 0.000000
# 2 -0.036072 0.026954 -0.002673 0.000000 0.000000 0.000000
# 3 -0.003905 -0.002673 0.016058 0.000000 0.000000 0.000000
# 4 0.000000 0.000000 0.000000 0.039149 0.000000 0.000000
# 5 0.000000 0.000000 0.000000 0.000000 0.046789 0.000000
# 6 0.000000 0.000000 0.000000 0.000000 0.000000 0.177293
#
#
# Mechanical properties :
#
#
# Convention : Reuss Voigt Hill
#
# Bulk Modulus (GPa) = 25.33675 42.95841 34.14758
# Shear Modulus (GPa) = 10.27847 18.22745 14.25296
#
# Velocity S-wave (km/s) = 2.46729 3.28564 2.90542
# Velocity P-wave (km/s) = 4.80860 6.31161 5.61066
#
# Compressibility (1/GPa) = 0.03946835
#
# Stress axis : x y z
#
# Youngs Moduli (GPa) = 12.23155 37.09991 62.27571
#
# Poissons Ratio (x) = 1.33825 0.24322
# Poissons Ratio (y) = 0.44121 0.16644
# Poissons Ratio (z) = 0.04777 0.09915
#
# Static dielectric constant tensor:
#      x y z
#    x 1.578440 0.000000 0.000000 
#    y 0.000000 1.573040 0.000000 
#    z 0.000000 0.000000 1.566400 
# 
# From -- ./inp_files/10777.got.cif
#   From: 2010.05.17/outbox.cif.g08.bks.cpg/sg63_6_cif.got.tgz:10777.got - 2010.06.03 15:47:04.
