data_PCOD9470214
_publ_section_title
;
Structure prediction by ZEFSAII (Michael W. Deem and Ramdas Pophale) SiO2 
 PCOD9470214
Probable space group: C M C M
;
_chemical_formula_sum "Si O2"
_cell_formula_units_Z 96
_cell_length_a 28.629633
_cell_length_b 23.890998
_cell_length_c 9.220716
_cell_angle_alpha 90.000000
_cell_angle_beta 90.000000
_cell_angle_gamma 90.000000
_cell_volume 6306.882191
_symmetry_space_group_name_H-M "C M C M"
_symmetry_group_IT_number 63
_symmetry_cell_setting 'orthorhombic'
loop_
_space_group_symop_operation_xyz
x,y,z
-x,-y,1/2+z
x,-y,-z
-x,y,1/2-z
-x,-y,-z
x,y,1/2-z
-x,y,z
x,-y,1/2+z
1/2+x,1/2+y,z
1/2-x,1/2-y,1/2+z
1/2+x,1/2-y,-z
1/2-x,1/2+y,1/2-z
1/2-x,1/2-y,-z
1/2+x,1/2+y,1/2-z
1/2-x,1/2+y,z
1/2+x,1/2-y,1/2+z
loop_
_atom_site_type_symbol
_atom_site_label
_atom_site_fract_x
_atom_site_fract_y
_atom_site_fract_z
Si Si1 0.500000 0.190029 0.584863
Si Si2 0.235659 0.336435 0.922565
Si Si3 0.000000 0.566966 0.475868
Si Si4 0.807636 0.556758 0.922262
Si Si5 0.321415 0.263014 0.921932
Si Si6 0.093045 0.278871 0.582571
Si Si7 0.393144 0.090273 0.093325
O O1 0.500000 0.208203 0.750000
O O2 0.500000 0.121492 0.582412
O O3 0.544699 0.213186 0.500745
O O4 0.225537 0.339011 0.750000
O O5 0.289926 0.318492 0.938947
O O6 0.220166 0.392300 0.003682
O O7 0.206942 0.286249 0.997438
O O8 0.000000 0.500000 0.500000
O O9 0.948354 0.576769 0.408319
O O10 0.801985 0.556169 0.750000
O O11 0.792275 0.500000 0.000000
O O12 0.862445 0.564970 0.965185
O O13 0.325136 0.250964 0.750000
O O14 0.371631 0.261150 0.997579
O O15 0.086919 0.262300 0.750000
O O16 0.112545 0.342763 0.584196
O O17 0.374224 0.070901 0.250000
#
# Coordination Sequence:
#
# PCOD9470214 Si02
#       7
#     8  16   8  16  16  16  16
#     4  10  21  33  47  67  93 121 158 196 237 290
#     4  10  20  34  50  72  97 121 153 194 239 286
#     4  10  21  33  47  63  83 111 152 202 249 288
#     4  12  24  36  51  68  92 124 159 197 241 290
#     4  10  19  31  52  75  96 121 153 194 238 285
#     4  10  19  32  50  69  94 123 154 195 241 285
#     4  10  20  34  49  65  86 114 153 199 245 290
#
# _framework density 15.221467000000001
#
# number of rings (size 3 to 8) (size 9 to 14) (size 15 to 20)
#    0.000    1.667    1.667    4.000    0.000    7.333 
#    0.000    0.000    0.000    0.000    0.000    0.000 
#    0.000    0.000    0.000    0.750    0.000   10.000 
#
# Total GULP energy -267464.943857 kJ/mol
# GULP energy per Si atom -5572.186330 kJ/mol
# Density = 1.518682 g / cm^3
# Si number density = 15.221467 Si / 1000 Ang^3
#
#
#
# Elastic Constant Matrix: (Units=GPa)
#
#
# Indices 1 2 3 4 5 6 
#
# 1 90.1832 41.0090 59.4810 0.0000 0.0000 0.0000
# 2 41.0090 63.7529 45.5662 0.0000 0.0000 0.0000
# 3 59.4810 45.5662 153.8033 0.0000 0.0000 0.0000
# 4 0.0000 0.0000 0.0000 16.1269 0.0000 0.0000
# 5 0.0000 0.0000 0.0000 0.0000 17.4253 0.0000
# 6 0.0000 0.0000 0.0000 0.0000 0.0000 21.2229
#
#
#
# Elastic Compliance Matrix: (Units=1/GPa)
#
#
# Indices 1 2 3 4 5 6 
#
# 1 0.017763 -0.008267 -0.004421 0.000000 0.000000 0.000000
# 2 -0.008267 0.023746 -0.003838 0.000000 0.000000 0.000000
# 3 -0.004421 -0.003838 0.009348 0.000000 0.000000 0.000000
# 4 0.000000 0.000000 0.000000 0.062008 0.000000 0.000000
# 5 0.000000 0.000000 0.000000 0.000000 0.057388 0.000000
# 6 0.000000 0.000000 0.000000 0.000000 0.000000 0.047119
#
#
# Mechanical properties :
#
#
# Convention : Reuss Voigt Hill
#
# Bulk Modulus (GPa) = 56.15669 66.65020 61.40344
# Shear Modulus (GPa) = 19.50387 21.73391 20.61889
#
# Velocity S-wave (km/s) = 3.58346 3.78278 3.68447
# Velocity P-wave (km/s) = 7.35492 7.93482 7.65036
#
# Compressibility (1/GPa) = 0.01780732
#
# Stress axis : x y z
#
# Youngs Moduli (GPa) = 56.29601 42.11182 106.96919
#
# Poissons Ratio (x) = 0.34812 0.47286
# Poissons Ratio (y) = 0.46538 0.41056
# Poissons Ratio (z) = 0.24886 0.16163
#
# Static dielectric constant tensor:
#      x y z
#    x 1.531600 0.000000 0.000000 
#    y 0.000000 1.495090 0.000000 
#    z 0.000000 0.000000 1.521880 
# 
# From -- ./inp_files/12822.got.cif
#   From: 2010.05.17/outbox.cif.g08.bks.cpg/sg63_7_cif.got.tgz:12822.got - 2010.06.03 15:47:04.
