data_PCOD9470740
_publ_section_title
;
Structure prediction by ZEFSAII (Michael W. Deem and Ramdas Pophale) SiO2 
 PCOD9470740
Probable space group: C M C M
;
_chemical_formula_sum "Si O2"
_cell_formula_units_Z 120
_cell_length_a 20.619981
_cell_length_b 12.457724
_cell_length_c 25.251483
_cell_angle_alpha 90.000000
_cell_angle_beta 90.000000
_cell_angle_gamma 90.000000
_cell_volume 6486.551263
_symmetry_space_group_name_H-M "C M C M"
_symmetry_group_IT_number 63
_symmetry_cell_setting 'orthorhombic'
loop_
_space_group_symop_operation_xyz
x,y,z
-x,-y,1/2+z
x,-y,-z
-x,y,1/2-z
-x,-y,-z
x,y,1/2-z
-x,y,z
x,-y,1/2+z
1/2+x,1/2+y,z
1/2-x,1/2-y,1/2+z
1/2+x,1/2-y,-z
1/2-x,1/2+y,1/2-z
1/2-x,1/2-y,-z
1/2+x,1/2+y,1/2-z
1/2-x,1/2+y,z
1/2+x,1/2-y,1/2+z
loop_
_atom_site_type_symbol
_atom_site_label
_atom_site_fract_x
_atom_site_fract_y
_atom_site_fract_z
Si Si1 0.165793 0.912809 0.606975
Si Si2 0.734806 0.541597 0.811093
Si Si3 0.073941 0.510142 0.405140
Si Si4 0.639355 0.886502 0.809600
Si Si5 0.335980 0.162597 0.023451
Si Si6 0.279767 0.739746 0.621487
Si Si7 0.724234 0.500000 0.500000
Si Si8 0.924220 0.265716 0.428429
O O1 0.224040 0.827385 0.613230
O O2 0.102608 0.839207 0.601170
O O3 0.174240 0.983573 0.659853
O O4 0.182344 0.979995 0.553387
O O5 0.722464 0.573661 0.750000
O O6 0.797653 0.464794 0.809889
O O7 0.750609 0.635206 0.852818
O O8 0.086791 0.563298 0.348535
O O9 0.123655 0.570221 0.444802
O O10 0.084394 0.382269 0.400768
O O11 0.000000 0.527118 0.423632
O O12 0.616947 0.872567 0.750000
O O13 0.667512 0.778986 0.835593
O O14 0.315655 0.253141 0.065568
O O15 0.273816 0.101980 0.998602
O O16 0.380471 0.218044 0.980219
O O17 0.000000 0.254113 0.440512
#
# Coordination Sequence:
#
# PCOD9470740 Si02
#       8
#    16  16  16  16  16  16   8  16
#     4  10  23  34  54  84 115 144 186 226 281 333
#     4  10  20  36  57  78 107 144 181 230 286 331
#     4  10  19  33  53  77 111 148 182 221 271 336
#     4   9  18  32  50  78 109 136 176 228 278 327
#     4  10  19  33  55  85 110 141 184 224 280 333
#     4   9  19  32  55  82 107 137 176 234 282 333
#     4  10  20  34  56  82 118 144 174 230 284 326
#     4  11  22  36  54  77 113 153 186 223 268 333
#
# _framework density 18.499815000000002
#
# number of rings (size 3 to 8) (size 9 to 14) (size 15 to 20)
#    0.000    2.133    1.333    2.400    3.733    2.933 
#    0.000    1.000    0.000    2.000    0.000    0.000 
#    0.000    0.000    0.000    0.000    0.000    0.000 
#
# Total GULP energy -334515.292753 kJ/mol
# GULP energy per Si atom -5575.254879 kJ/mol
# Density = 1.845771 g / cm^3
# Si number density = 18.499815 Si / 1000 Ang^3
#
#
#
# Elastic Constant Matrix: (Units=GPa)
#
#
# Indices 1 2 3 4 5 6 
#
# 1 43.7225 6.9337 12.6896 0.0000 0.0000 0.0000
# 2 6.9337 35.3359 4.8732 0.0000 0.0000 0.0000
# 3 12.6896 4.8732 44.5810 0.0000 0.0000 0.0000
# 4 0.0000 0.0000 0.0000 23.9789 0.0000 0.0000
# 5 0.0000 0.0000 0.0000 0.0000 9.1837 0.0000
# 6 0.0000 0.0000 0.0000 0.0000 0.0000 25.6672
#
#
#
# Elastic Compliance Matrix: (Units=1/GPa)
#
#
# Indices 1 2 3 4 5 6 
#
# 1 0.025493 -0.004063 -0.006812 0.000000 0.000000 0.000000
# 2 -0.004063 0.029381 -0.002055 0.000000 0.000000 0.000000
# 3 -0.006812 -0.002055 0.024595 0.000000 0.000000 0.000000
# 4 0.000000 0.000000 0.000000 0.041703 0.000000 0.000000
# 5 0.000000 0.000000 0.000000 0.000000 0.108888 0.000000
# 6 0.000000 0.000000 0.000000 0.000000 0.000000 0.038960
#
#
# Mechanical properties :
#
#
# Convention : Reuss Voigt Hill
#
# Bulk Modulus (GPa) = 18.65399 19.18136 18.91768
# Shear Modulus (GPa) = 15.98724 18.37550 17.18137
#
# Velocity S-wave (km/s) = 2.94289 3.15505 3.05082
# Velocity P-wave (km/s) = 4.65325 4.86450 4.76005
#
# Compressibility (1/GPa) = 0.05360782
#
# Stress axis : x y z
#
# Youngs Moduli (GPa) = 39.22653 34.03617 40.65903
#
# Poissons Ratio (x) = 0.13828 0.27698
# Poissons Ratio (y) = 0.15937 0.08356
# Poissons Ratio (z) = 0.26722 0.06995
#
# Static dielectric constant tensor:
#      x y z
#    x 1.637430 0.000000 0.000000 
#    y 0.000000 1.700070 0.000000 
#    z 0.000000 0.000000 1.654350 
# 
# From -- ./inp_files/64684.got.cif
#   From: 2010.05.17/outbox.cif.g08.bks.cpg/sg63_33_cif.got.tgz:64684.got - 2010.06.03 15:47:04.
