data_PCOD9470756
_publ_section_title
;
Structure prediction by ZEFSAII (Michael W. Deem and Ramdas Pophale) SiO2 
 PCOD9470756
Probable space group: C M C M
;
_chemical_formula_sum "Si O2"
_cell_formula_units_Z 96
_cell_length_a 24.742095
_cell_length_b 22.716749
_cell_length_c 8.776214
_cell_angle_alpha 90.000000
_cell_angle_beta 90.000000
_cell_angle_gamma 90.000000
_cell_volume 4932.758506
_symmetry_space_group_name_H-M "C M C M"
_symmetry_group_IT_number 63
_symmetry_cell_setting 'orthorhombic'
loop_
_space_group_symop_operation_xyz
x,y,z
-x,-y,1/2+z
x,-y,-z
-x,y,1/2-z
-x,-y,-z
x,y,1/2-z
-x,y,z
x,-y,1/2+z
1/2+x,1/2+y,z
1/2-x,1/2-y,1/2+z
1/2+x,1/2-y,-z
1/2-x,1/2+y,1/2-z
1/2-x,1/2-y,-z
1/2+x,1/2+y,1/2-z
1/2-x,1/2+y,z
1/2+x,1/2-y,1/2+z
loop_
_atom_site_type_symbol
_atom_site_label
_atom_site_fract_x
_atom_site_fract_y
_atom_site_fract_z
Si Si1 0.329729 0.561432 0.571534
Si Si2 0.438745 0.279179 0.427313
Si Si3 0.438569 0.405999 0.928551
Si Si4 0.239687 0.369722 0.929929
Si Si5 0.857389 0.311282 0.071866
Si Si6 0.350608 0.941815 0.428880
O O1 0.310792 0.500000 0.500000
O O2 0.319679 0.561955 0.750000
O O3 0.392898 0.566013 0.532823
O O4 0.298368 0.616305 0.495807
O O5 0.431079 0.296312 0.250000
O O6 0.500000 0.254892 0.441365
O O7 0.436208 0.336637 0.532772
O O8 0.393840 0.233033 0.478245
O O9 0.426787 0.416283 0.750000
O O10 0.500000 0.425423 0.960580
O O11 0.241045 0.361949 0.750000
O O12 0.203876 0.318690 0.008890
O O13 0.203956 0.427080 0.977477
O O14 0.856307 0.295812 0.250000
O O15 0.880191 0.378562 0.057575
O O16 0.339041 0.950194 0.250000
O O17 0.376259 0.000000 0.500000
#
# Coordination Sequence:
#
# PCOD9470756 Si02
#       6
#    16  16  16  16  16  16
#     4  12  24  39  59  85 117 151 190 232 278 336
#     4  10  20  36  60  87 113 146 190 236 283 337
#     4  10  22  41  63  86 113 147 187 233 285 337
#     4  10  19  33  53  79 112 147 185 228 276 330
#     4   9  19  33  52  81 113 148 190 233 281 335
#     4   9  17  28  46  73 105 142 182 223 269 325
#
# _framework density 19.461728000000001
#
# number of rings (size 3 to 8) (size 9 to 14) (size 15 to 20)
#    1.000    1.000    0.000    5.000    0.000    2.333 
#    0.000    0.833    0.000    0.500    0.000    0.000 
#    0.000    0.000    0.000    0.000    0.000    0.000 
#
# Total GULP energy -267530.661593 kJ/mol
# GULP energy per Si atom -5573.555450 kJ/mol
# Density = 1.941743 g / cm^3
# Si number density = 19.461728 Si / 1000 Ang^3
#
#
#
# Elastic Constant Matrix: (Units=GPa)
#
#
# Indices 1 2 3 4 5 6 
#
# 1 53.6439 9.6461 12.0009 0.0000 0.0000 0.0000
# 2 9.6461 15.1721 -4.9468 0.0000 0.0000 0.0000
# 3 12.0009 -4.9468 87.6765 0.0000 0.0000 0.0000
# 4 0.0000 0.0000 0.0000 26.4029 0.0000 0.0000
# 5 0.0000 0.0000 0.0000 0.0000 -102.0345 0.0000
# 6 0.0000 0.0000 0.0000 0.0000 0.0000 28.4476
#
#
#
# Elastic Compliance Matrix: (Units=1/GPa)
#
#
# Indices 1 2 3 4 5 6 
#
# 1 0.022299 -0.015457 -0.003924 0.000000 0.000000 0.000000
# 2 -0.015457 0.077860 0.006509 0.000000 0.000000 0.000000
# 3 -0.003924 0.006509 0.012310 0.000000 0.000000 0.000000
# 4 0.000000 0.000000 0.000000 0.037875 0.000000 0.000000
# 5 0.000000 0.000000 0.000000 0.000000 -0.009801 0.000000
# 6 0.000000 0.000000 0.000000 0.000000 0.000000 0.035152
#
#
# Mechanical properties :
#
#
# Convention : Reuss Voigt Hill
#
# Bulk Modulus (GPa) = 11.53084 21.09919 16.31501
# Shear Modulus (GPa) = 21.70634 -0.11731 10.79451
#
# Velocity S-wave (km/s) = 3.34329 -0.24578 2.35766
# Velocity P-wave (km/s) = 4.56521 3.28396 3.97653
#
# Compressibility (1/GPa) = 0.08672395
#
# Stress axis : x y z
#
# Youngs Moduli (GPa) = 44.84556 12.84359 81.23519
#
# Poissons Ratio (x) = 0.19852 0.31879
# Poissons Ratio (y) = 0.69316 -0.52873
# Poissons Ratio (z) = 0.17599 -0.08359
#
# Static dielectric constant tensor:
#      x y z
#    x 1.702500 0.000000 0.000000 
#    y 0.000000 1.717400 0.000000 
#    z 0.000000 0.000000 1.641880 
# 
# From -- ./inp_files/10491.got.cif
#   From: 2010.05.17/outbox.cif.g08.bks.cpg/sg63_6_cif.got.tgz:10491.got - 2010.06.03 15:47:04.
