data_PCOD9470299
_publ_section_title
;
Structure prediction by ZEFSAII (Michael W. Deem and Ramdas Pophale) SiO2 
 PCOD9470299
Probable space group: C M C M
;
_chemical_formula_sum "Si O2"
_cell_formula_units_Z 120
_cell_length_a 28.863274
_cell_length_b 29.103833
_cell_length_c 8.529506
_cell_angle_alpha 90.000000
_cell_angle_beta 90.000000
_cell_angle_gamma 90.000000
_cell_volume 7165.057185
_symmetry_space_group_name_H-M "C M C M"
_symmetry_group_IT_number 63
_symmetry_cell_setting 'orthorhombic'
loop_
_space_group_symop_operation_xyz
x,y,z
-x,-y,1/2+z
x,-y,-z
-x,y,1/2-z
-x,-y,-z
x,y,1/2-z
-x,y,z
x,-y,1/2+z
1/2+x,1/2+y,z
1/2-x,1/2-y,1/2+z
1/2+x,1/2-y,-z
1/2-x,1/2+y,1/2-z
1/2-x,1/2-y,-z
1/2+x,1/2+y,1/2-z
1/2-x,1/2+y,z
1/2+x,1/2-y,1/2+z
loop_
_atom_site_type_symbol
_atom_site_label
_atom_site_fract_x
_atom_site_fract_y
_atom_site_fract_z
Si Si1 0.500000 0.052023 0.437814
Si Si2 0.274108 0.551557 0.561041
Si Si3 0.862531 0.110682 0.562027
Si Si4 0.703416 0.795802 0.935308
Si Si5 0.946139 0.948881 0.938031
Si Si6 0.315672 0.890583 0.435977
Si Si7 0.189290 0.199289 0.063338
Si Si8 0.899996 0.447851 0.560867
O O1 0.500000 0.049415 0.250000
O O2 0.450541 0.072689 0.482879
O O3 0.500000 0.000000 0.500000
O O4 0.270072 0.500000 0.500000
O O5 0.273714 0.550290 0.750000
O O6 0.321686 0.575726 0.509987
O O7 0.230778 0.582823 0.510533
O O8 0.864712 0.110539 0.750000
O O9 0.910574 0.089903 0.497839
O O10 0.844574 0.160999 0.508709
O O11 0.705311 0.786825 0.750000
O O12 0.756732 0.804708 0.991389
O O13 0.678461 0.842873 0.974885
O O14 0.680047 0.752091 0.017311
O O15 0.944309 0.949975 0.750000
O O16 0.000000 0.940575 0.985648
O O17 0.933208 0.000000 0.000000
O O18 0.311764 0.882329 0.250000
O O19 0.358923 0.921973 0.476466
O O20 0.188335 0.193532 0.250000
O O21 0.899409 0.500000 0.500000
O O22 0.894500 0.446927 0.750000
#
# Coordination Sequence:
#
# PCOD9470299 Si02
#       8
#     8  16  16  16  16  16  16  16
#     4   8  16  30  48  68  94 124 162 210 250 290
#     4  10  22  34  46  67 101 140 174 208 247 296
#     4  11  21  35  54  78 106 140 179 219 261 314
#     4  10  20  34  53  76 103 137 173 214 256 304
#     4  10  21  37  56  80 110 143 181 225 272 322
#     4  11  21  34  49  71 103 138 173 210 254 305
#     4  10  20  34  54  78 104 135 171 214 259 304
#     4  10  19  32  49  72  99 132 171 210 254 301
#
# _framework density 16.747947
#
# number of rings (size 3 to 8) (size 9 to 14) (size 15 to 20)
#    0.000    1.867    1.333    3.200    0.000    6.667 
#    0.000    0.000    0.000    0.000    1.733    0.000 
#    0.000    0.000    0.000    0.000    0.000    0.000 
#
# Total GULP energy -334644.952891 kJ/mol
# GULP energy per Si atom -5577.415882 kJ/mol
# Density = 1.670983 g / cm^3
# Si number density = 16.747947 Si / 1000 Ang^3
#
#
#
# Elastic Constant Matrix: (Units=GPa)
#
#
# Indices 1 2 3 4 5 6 
#
# 1 90.3794 43.7138 17.2886 0.0000 0.0000 0.0000
# 2 43.7138 107.2446 14.4363 0.0000 0.0000 0.0000
# 3 17.2886 14.4363 32.0727 0.0000 0.0000 0.0000
# 4 0.0000 0.0000 0.0000 30.2374 0.0000 0.0000
# 5 0.0000 0.0000 0.0000 0.0000 21.2949 0.0000
# 6 0.0000 0.0000 0.0000 0.0000 0.0000 15.0407
#
#
#
# Elastic Compliance Matrix: (Units=1/GPa)
#
#
# Indices 1 2 3 4 5 6 
#
# 1 0.014653 -0.005226 -0.005546 0.000000 0.000000 0.000000
# 2 -0.005226 0.011790 -0.002490 0.000000 0.000000 0.000000
# 3 -0.005546 -0.002490 0.035289 0.000000 0.000000 0.000000
# 4 0.000000 0.000000 0.000000 0.033072 0.000000 0.000000
# 5 0.000000 0.000000 0.000000 0.000000 0.046960 0.000000
# 6 0.000000 0.000000 0.000000 0.000000 0.000000 0.066486
#
#
# Mechanical properties :
#
#
# Convention : Reuss Voigt Hill
#
# Bulk Modulus (GPa) = 28.40241 42.28600 35.34420
# Shear Modulus (GPa) = 20.28313 23.59846 21.94079
#
# Velocity S-wave (km/s) = 3.48383 3.75779 3.62340
# Velocity P-wave (km/s) = 5.76007 6.64313 6.21730
#
# Compressibility (1/GPa) = 0.03520827
#
# Stress axis : x y z
#
# Youngs Moduli (GPa) = 68.24470 84.81887 28.33704
#
# Poissons Ratio (x) = 0.44328 0.15717
# Poissons Ratio (y) = 0.35666 0.07055
# Poissons Ratio (z) = 0.37851 0.21117
#
# Static dielectric constant tensor:
#      x y z
#    x 1.585720 0.000000 0.000000 
#    y 0.000000 1.566350 0.000000 
#    z 0.000000 0.000000 1.571300 
# 
# From -- ./inp_files/13148.got.cif
#   From: 2010.05.17/outbox.cif.g08.bks.cpg/sg63_7_cif.got.tgz:13148.got - 2010.06.03 15:47:04.
