data_PCOD9470893
_publ_section_title
;
Structure prediction by ZEFSAII (Michael W. Deem and Ramdas Pophale) SiO2 
 PCOD9470893
Probable space group: C M C M
;
_chemical_formula_sum "Si O2"
_cell_formula_units_Z 96
_cell_length_a 13.143451
_cell_length_b 11.646316
_cell_length_c 29.508642
_cell_angle_alpha 90.000000
_cell_angle_beta 90.000000
_cell_angle_gamma 90.000000
_cell_volume 4516.969973
_symmetry_space_group_name_H-M "C M C M"
_symmetry_group_IT_number 63
_symmetry_cell_setting 'orthorhombic'
loop_
_space_group_symop_operation_xyz
x,y,z
-x,-y,1/2+z
x,-y,-z
-x,y,1/2-z
-x,-y,-z
x,y,1/2-z
-x,y,z
x,-y,1/2+z
1/2+x,1/2+y,z
1/2-x,1/2-y,1/2+z
1/2+x,1/2-y,-z
1/2-x,1/2+y,1/2-z
1/2-x,1/2-y,-z
1/2+x,1/2+y,1/2-z
1/2-x,1/2+y,z
1/2+x,1/2-y,1/2+z
loop_
_atom_site_type_symbol
_atom_site_label
_atom_site_fract_x
_atom_site_fract_y
_atom_site_fract_z
Si Si1 0.386841 0.898487 0.842975
Si Si2 0.389597 0.730743 0.102707
Si Si3 0.312239 0.191940 0.250000
Si Si4 0.819517 0.953508 0.250000
Si Si5 0.839057 0.994071 0.847440
Si Si6 0.827701 0.801390 0.092373
Si Si7 0.880798 0.127777 0.002124
O O1 0.500000 0.951889 0.843205
O O2 0.374526 0.826550 0.796286
O O3 0.284687 0.976133 0.845410
O O4 0.376788 0.809292 0.884467
O O5 0.500000 0.787128 0.104867
O O6 0.382144 0.629662 0.139423
O O7 0.289535 0.804645 0.107890
O O8 0.376960 0.674967 0.052772
O O9 0.269440 0.323720 0.250000
O O10 0.240035 0.077644 0.250000
O O11 0.873368 0.960570 0.201409
O O12 0.871607 0.082183 0.886568
O O13 0.833900 0.798647 0.038364
O O14 0.000000 0.119922 0.989954
O O15 0.835398 0.000000 0.000000
#
# Coordination Sequence:
#
# PCOD9470893 Si02
#       7
#    16  16   8   8  16  16  16
#     4  10  21  35  55  84 112 145 194 240 286 345
#     4  10  22  38  56  82 112 147 189 234 286 344
#     4  10  19  36  60  84 116 157 198 245 297 355
#     4  10  20  38  58  88 119 155 195 245 297 351
#     4  10  21  37  58  80 113 152 185 234 291 343
#     4  11  20  35  59  81 109 150 188 233 289 348
#     4  10  19  33  56  83 111 143 184 236 287 342
#
# _framework density 21.253184999999998
#
# number of rings (size 3 to 8) (size 9 to 14) (size 15 to 20)
#    0.000    1.833    3.333    1.250    0.000    1.333 
#    0.000    0.417    0.000    0.500    0.000    0.000 
#    0.000    0.000    0.000    0.000    0.000    0.000 
#
# Total GULP energy -267481.491401 kJ/mol
# GULP energy per Si atom -5572.531071 kJ/mol
# Density = 2.120481 g / cm^3
# Si number density = 21.253185 Si / 1000 Ang^3
#
#
#
# Elastic Constant Matrix: (Units=GPa)
#
#
# Indices 1 2 3 4 5 6 
#
# 1 95.3058 4.5809 -2.1083 0.0000 0.0000 0.0000
# 2 4.5809 68.5562 32.2299 0.0000 0.0000 0.0000
# 3 -2.1083 32.2299 88.9772 0.0000 0.0000 0.0000
# 4 0.0000 0.0000 0.0000 28.6760 0.0000 0.0000
# 5 0.0000 0.0000 0.0000 0.0000 0.7714 0.0000
# 6 0.0000 0.0000 0.0000 0.0000 0.0000 -7.8711
#
#
#
# Elastic Compliance Matrix: (Units=1/GPa)
#
#
# Indices 1 2 3 4 5 6 
#
# 1 0.010554 -0.000992 0.000609 0.000000 0.000000 0.000000
# 2 -0.000992 0.017674 -0.006425 0.000000 0.000000 0.000000
# 3 0.000609 -0.006425 0.013581 0.000000 0.000000 0.000000
# 4 0.000000 0.000000 0.000000 0.034872 0.000000 0.000000
# 5 0.000000 0.000000 0.000000 0.000000 1.296261 0.000000
# 6 0.000000 0.000000 0.000000 0.000000 0.000000 -0.127047
#
#
# Mechanical properties :
#
#
# Convention : Reuss Voigt Hill
#
# Bulk Modulus (GPa) = 35.47036 35.80490 35.63763
# Shear Modulus (GPa) = 3.94040 18.85771 11.39905
#
# Velocity S-wave (km/s) = 1.36310 2.98197 2.31843
# Velocity P-wave (km/s) = 4.38213 5.36093 4.89605
#
# Compressibility (1/GPa) = 0.02819255
#
# Stress axis : x y z
#
# Youngs Moduli (GPa) = 94.75365 56.58178 73.63397
#
# Poissons Ratio (x) = 0.05611 -0.04486
# Poissons Ratio (y) = 0.09396 0.47312
# Poissons Ratio (z) = -0.05773 0.36356
#
# Static dielectric constant tensor:
#      x y z
#    x 1.814000 0.000000 0.000000 
#    y 0.000000 1.762040 0.000000 
#    z 0.000000 0.000000 1.760820 
# 
# From -- ./inp_files/73334.got.cif
#   From: 2010.05.17/outbox.cif.g08.bks.cpg/sg63_37_cif.got.tgz:73334.got - 2010.06.03 15:47:04.
