data_PCOD9470063
_publ_section_title
;
Structure prediction by ZEFSAII (Michael W. Deem and Ramdas Pophale) SiO2 
 PCOD9470063
Probable space group: C M C M
;
_chemical_formula_sum "Si O2"
_cell_formula_units_Z 80
_cell_length_a 7.447257
_cell_length_b 14.840967
_cell_length_c 34.774433
_cell_angle_alpha 90.000000
_cell_angle_beta 90.000000
_cell_angle_gamma 90.000000
_cell_volume 3843.426659
_symmetry_space_group_name_H-M "C M C M"
_symmetry_group_IT_number 63
_symmetry_cell_setting 'orthorhombic'
loop_
_space_group_symop_operation_xyz
x,y,z
-x,-y,1/2+z
x,-y,-z
-x,y,1/2-z
-x,-y,-z
x,y,1/2-z
-x,y,z
x,-y,1/2+z
1/2+x,1/2+y,z
1/2-x,1/2-y,1/2+z
1/2+x,1/2-y,-z
1/2-x,1/2+y,1/2-z
1/2-x,1/2-y,-z
1/2+x,1/2+y,1/2-z
1/2-x,1/2+y,z
1/2+x,1/2-y,1/2+z
loop_
_atom_site_type_symbol
_atom_site_label
_atom_site_fract_x
_atom_site_fract_y
_atom_site_fract_z
Si Si1 0.292243 0.715422 0.646405
Si Si2 0.216178 0.397252 0.997881
Si Si3 0.216901 0.134687 0.207112
Si Si4 0.213947 0.749811 0.061807
Si Si5 0.780835 0.926093 0.292814
O O1 0.500000 0.690003 0.639580
O O2 0.286590 0.802835 0.673419
O O3 0.212720 0.735357 0.604587
O O4 0.213266 0.636357 0.672894
O O5 0.257279 0.337941 0.035576
O O6 0.000000 0.401516 0.994763
O O7 0.282490 0.500000 0.000000
O O8 0.283882 0.336544 0.962094
O O9 0.275211 0.164005 0.250000
O O10 0.000000 0.138553 0.206330
O O11 0.268787 0.030402 0.202272
O O12 0.000000 0.735524 0.065170
O O13 0.722919 0.896494 0.250000
O O14 0.000000 0.922187 0.292709
#
# Coordination Sequence:
#
# PCOD9470063 Si02
#       5
#    16  16  16  16  16
#     4  10  19  31  49  72  97 123 154 197 242 279
#     4   9  18  34  53  69  92 128 160 189 236 291
#     4   9  18  32  48  67  93 125 160 193 225 271
#     4   9  19  33  48  72  99 120 154 199 235 279
#     4   8  15  29  47  65  89 124 158 184 223 281
#
# _framework density 20.814758999999999
#
# number of rings (size 3 to 8) (size 9 to 14) (size 15 to 20)
#    0.000    3.000    0.000    1.800    0.000    4.000 
#    0.000    1.000    0.000    1.200    0.000    0.000 
#    0.000    0.000    0.000    0.000    0.000    0.000 
#
# Total GULP energy -223171.941041 kJ/mol
# GULP energy per Si atom -5579.298526 kJ/mol
# Density = 2.076738 g / cm^3
# Si number density = 20.814759 Si / 1000 Ang^3
#
#
#
# Elastic Constant Matrix: (Units=GPa)
#
#
# Indices 1 2 3 4 5 6 
#
# 1 59.9422 -17.5921 -10.0308 0.0000 0.0000 0.0000
# 2 -17.5921 100.4859 68.4557 0.0000 0.0000 0.0000
# 3 -10.0308 68.4557 170.2888 0.0000 0.0000 0.0000
# 4 0.0000 0.0000 0.0000 54.1171 0.0000 0.0000
# 5 0.0000 0.0000 0.0000 0.0000 -23.6534 0.0000
# 6 0.0000 0.0000 0.0000 0.0000 0.0000 6.6173
#
#
#
# Elastic Compliance Matrix: (Units=1/GPa)
#
#
# Indices 1 2 3 4 5 6 
#
# 1 0.017596 0.003270 -0.000278 0.000000 0.000000 0.000000
# 2 0.003270 0.014313 -0.005561 0.000000 0.000000 0.000000
# 3 -0.000278 -0.005561 0.008092 0.000000 0.000000 0.000000
# 4 0.000000 0.000000 0.000000 0.018478 0.000000 0.000000
# 5 0.000000 0.000000 0.000000 0.000000 -0.042277 0.000000
# 6 0.000000 0.000000 0.000000 0.000000 0.000000 0.151119
#
#
# Mechanical properties :
#
#
# Convention : Reuss Voigt Hill
#
# Bulk Modulus (GPa) = 28.68473 45.82026 37.25250
# Shear Modulus (GPa) = 27.16221 26.74180 26.95200
#
# Velocity S-wave (km/s) = 3.61633 3.58823 3.60231
# Velocity P-wave (km/s) = 5.58999 6.26325 5.93617
#
# Compressibility (1/GPa) = 0.03486175
#
# Stress axis : x y z
#
# Youngs Moduli (GPa) = 56.83145 69.86894 123.58645
#
# Poissons Ratio (x) = -0.22847 0.03436
# Poissons Ratio (y) = -0.18583 0.68726
# Poissons Ratio (z) = 0.01580 0.38854
#
# Static dielectric constant tensor:
#      x y z
#    x 1.772950 0.000000 0.000000 
#    y 0.000000 1.721360 0.000000 
#    z 0.000000 0.000000 1.736170 
# 
# From -- ./inp_files/72677.got.cif
#   From: 2010.05.17/outbox.cif.g08.bks.cpg/sg63_37_cif.got.tgz:72677.got - 2010.06.03 15:47:04.
