data_PCOD9470406
_publ_section_title
;
Structure prediction by ZEFSAII (Michael W. Deem and Ramdas Pophale) SiO2 
 PCOD9470406
Probable space group: C M C M
;
_chemical_formula_sum "Si O2"
_cell_formula_units_Z 72
_cell_length_a 25.247166
_cell_length_b 16.722603
_cell_length_c 9.723474
_cell_angle_alpha 90.000000
_cell_angle_beta 90.000000
_cell_angle_gamma 90.000000
_cell_volume 4105.234522
_symmetry_space_group_name_H-M "C M C M"
_symmetry_group_IT_number 63
_symmetry_cell_setting 'orthorhombic'
loop_
_space_group_symop_operation_xyz
x,y,z
-x,-y,1/2+z
x,-y,-z
-x,y,1/2-z
-x,-y,-z
x,y,1/2-z
-x,y,z
x,-y,1/2+z
1/2+x,1/2+y,z
1/2-x,1/2-y,1/2+z
1/2+x,1/2-y,-z
1/2-x,1/2+y,1/2-z
1/2-x,1/2-y,-z
1/2+x,1/2+y,1/2-z
1/2-x,1/2+y,z
1/2+x,1/2-y,1/2+z
loop_
_atom_site_type_symbol
_atom_site_label
_atom_site_fract_x
_atom_site_fract_y
_atom_site_fract_z
Si Si1 0.633300 0.753211 0.588986
Si Si2 0.681544 0.077124 0.085769
Si Si3 0.633320 0.500000 0.500000
Si Si4 0.718291 0.621990 0.594795
Si Si5 0.939184 0.856337 0.908969
O O1 0.621513 0.740595 0.750000
O O2 0.643818 0.846391 0.565717
O O3 0.687815 0.704330 0.562081
O O4 0.588373 0.712034 0.498985
O O5 0.686830 0.062177 0.250000
O O6 0.737886 0.100696 0.017563
O O7 0.663262 0.000000 0.000000
O O8 0.672726 0.554144 0.590641
O O9 0.595576 0.563408 0.425081
O O10 0.740619 0.625972 0.750000
O O11 0.938313 0.832473 0.750000
O O12 0.000000 0.870635 0.950760
#
# Coordination Sequence:
#
# PCOD9470406 Si02
#       5
#    16  16   8  16  16
#     4   9  21  38  54  76 105 141 181 224 274 321
#     4  11  22  35  53  77 108 141 179 224 270 322
#     4  10  19  32  52  80 116 150 179 210 256 318
#     4  10  19  32  51  76 108 144 182 216 257 314
#     4  10  21  36  56  82 110 143 184 228 271 317
#
# _framework density 17.538584
#
# number of rings (size 3 to 8) (size 9 to 14) (size 15 to 20)
#    0.000    2.000    1.111    2.333    0.000    6.667 
#    0.000    0.000    0.000    0.667    0.000    0.000 
#    0.000    0.000    0.000    0.000    0.000    0.000 
#
# Total GULP energy -200832.436747 kJ/mol
# GULP energy per Si atom -5578.678799 kJ/mol
# Density = 1.749867 g / cm^3
# Si number density = 17.538584 Si / 1000 Ang^3
#
#
#
# Elastic Constant Matrix: (Units=GPa)
#
#
# Indices 1 2 3 4 5 6 
#
# 1 57.5871 19.5031 28.5644 0.0000 0.0000 0.0000
# 2 19.5031 105.6959 41.2268 0.0000 0.0000 0.0000
# 3 28.5644 41.2268 75.6470 0.0000 0.0000 0.0000
# 4 0.0000 0.0000 0.0000 22.4327 0.0000 0.0000
# 5 0.0000 0.0000 0.0000 0.0000 16.1595 0.0000
# 6 0.0000 0.0000 0.0000 0.0000 0.0000 13.7643
#
#
#
# Elastic Compliance Matrix: (Units=1/GPa)
#
#
# Indices 1 2 3 4 5 6 
#
# 1 0.021452 -0.001014 -0.007548 0.000000 0.000000 0.000000
# 2 -0.001014 0.012063 -0.006191 0.000000 0.000000 0.000000
# 3 -0.007548 -0.006191 0.019443 0.000000 0.000000 0.000000
# 4 0.000000 0.000000 0.000000 0.044578 0.000000 0.000000
# 5 0.000000 0.000000 0.000000 0.000000 0.061883 0.000000
# 6 0.000000 0.000000 0.000000 0.000000 0.000000 0.072652
#
#
# Mechanical properties :
#
#
# Convention : Reuss Voigt Hill
#
# Bulk Modulus (GPa) = 42.63954 46.39094 44.51524
# Shear Modulus (GPa) = 18.56009 20.44702 19.50356
#
# Velocity S-wave (km/s) = 3.25659 3.41813 3.33834
# Velocity P-wave (km/s) = 6.20525 6.48740 6.34789
#
# Compressibility (1/GPa) = 0.02345241
#
# Stress axis : x y z
#
# Youngs Moduli (GPa) = 46.61506 82.89679 51.43135
#
# Poissons Ratio (x) = 0.08410 0.38818
# Poissons Ratio (y) = 0.04729 0.31842
# Poissons Ratio (z) = 0.35183 0.51323
#
# Static dielectric constant tensor:
#      x y z
#    x 1.578210 0.000000 0.000000 
#    y 0.000000 1.614610 0.000000 
#    z 0.000000 0.000000 1.598540 
# 
# From -- ./inp_files/9874.got.cif
#   From: 2010.05.17/outbox.cif.g08.bks.cpg/sg63_5_cif.got.tgz:9874.got - 2010.06.03 15:47:04.
