data_PCOD9470386
_publ_section_title
;
Structure prediction by ZEFSAII (Michael W. Deem and Ramdas Pophale) SiO2 
 PCOD9470386
Probable space group: C M C M
;
_chemical_formula_sum "Si O2"
_cell_formula_units_Z 96
_cell_length_a 7.472277
_cell_length_b 21.136733
_cell_length_c 29.378620
_cell_angle_alpha 90.000000
_cell_angle_beta 90.000000
_cell_angle_gamma 90.000000
_cell_volume 4640.045254
_symmetry_space_group_name_H-M "C M C M"
_symmetry_group_IT_number 63
_symmetry_cell_setting 'orthorhombic'
loop_
_space_group_symop_operation_xyz
x,y,z
-x,-y,1/2+z
x,-y,-z
-x,y,1/2-z
-x,-y,-z
x,y,1/2-z
-x,y,z
x,-y,1/2+z
1/2+x,1/2+y,z
1/2-x,1/2-y,1/2+z
1/2+x,1/2-y,-z
1/2-x,1/2+y,1/2-z
1/2-x,1/2-y,-z
1/2+x,1/2+y,1/2-z
1/2-x,1/2+y,z
1/2+x,1/2-y,1/2+z
loop_
_atom_site_type_symbol
_atom_site_label
_atom_site_fract_x
_atom_site_fract_y
_atom_site_fract_z
Si Si1 0.787450 0.744462 0.446598
Si Si2 0.719066 0.628208 0.896171
Si Si3 0.219283 0.001176 0.947515
Si Si4 0.207138 0.880520 0.608032
Si Si5 0.787623 0.169462 0.800184
Si Si6 0.216303 0.181840 0.301019
O O1 0.750000 0.750000 0.500000
O O2 0.722553 0.807842 0.421540
O O3 0.711617 0.681169 0.424088
O O4 0.000000 0.740972 0.439898
O O5 0.500000 0.628618 0.896201
O O6 0.774363 0.565676 0.922780
O O7 0.780975 0.632205 0.843951
O O8 0.000000 0.999822 0.948236
O O9 0.282745 0.940206 0.919173
O O10 0.276900 0.000000 0.000000
O O11 0.284702 0.859804 0.656901
O O12 0.000000 0.896725 0.616949
O O13 0.712629 0.155289 0.750000
O O14 0.763721 0.244540 0.808555
O O15 0.000000 0.157835 0.798219
O O16 0.277438 0.164315 0.250000
O O17 0.000000 0.178807 0.301201
#
# Coordination Sequence:
#
# PCOD9470386 Si02
#       6
#    16  16  16  16  16  16
#     4  11  21  33  51  74  99 127 163 211 253 293
#     4   9  17  30  48  72  97 125 164 203 243 291
#     4   9  17  30  48  68  95 132 169 203 245 298
#     4  10  19  32  51  74  98 129 168 205 245 296
#     4   9  16  28  48  73  98 124 159 204 250 291
#     4   9  17  29  46  71 102 130 157 195 246 298
#
# _framework density 20.689454999999999
#
# number of rings (size 3 to 8) (size 9 to 14) (size 15 to 20)
#    0.000    2.500    1.667    1.500    0.000    2.667 
#    0.000    0.833    0.000   11.500    0.000    0.000 
#    0.000    5.333    0.000    0.000    0.000    0.000 
#
# Total GULP energy -267963.731514 kJ/mol
# GULP energy per Si atom -5582.577740 kJ/mol
# Density = 2.064236 g / cm^3
# Si number density = 20.689455 Si / 1000 Ang^3
#
#
#
# Elastic Constant Matrix: (Units=GPa)
#
#
# Indices 1 2 3 4 5 6 
#
# 1 61.3140 -4.6871 -0.6512 0.0000 0.0000 0.0000
# 2 -4.6871 123.8907 81.6990 0.0000 0.0000 0.0000
# 3 -0.6512 81.6990 204.7485 0.0000 0.0000 0.0000
# 4 0.0000 0.0000 0.0000 35.3843 0.0000 0.0000
# 5 0.0000 0.0000 0.0000 0.0000 6.4510 0.0000
# 6 0.0000 0.0000 0.0000 0.0000 0.0000 14.3032
#
#
#
# Elastic Compliance Matrix: (Units=1/GPa)
#
#
# Indices 1 2 3 4 5 6 
#
# 1 0.016367 0.000794 -0.000265 0.000000 0.000000 0.000000
# 2 0.000794 0.010992 -0.004384 0.000000 0.000000 0.000000
# 3 -0.000265 -0.004384 0.006632 0.000000 0.000000 0.000000
# 4 0.000000 0.000000 0.000000 0.028261 0.000000 0.000000
# 5 0.000000 0.000000 0.000000 0.000000 0.155015 0.000000
# 6 0.000000 0.000000 0.000000 0.000000 0.000000 0.069914
#
#
# Mechanical properties :
#
#
# Convention : Reuss Voigt Hill
#
# Bulk Modulus (GPa) = 38.04745 60.29719 49.17232
# Shear Modulus (GPa) = 16.46616 32.13387 24.30002
#
# Velocity S-wave (km/s) = 2.82418 3.94528 3.43083
# Velocity P-wave (km/s) = 5.39114 7.06830 6.28591
#
# Compressibility (1/GPa) = 0.02628297
#
# Stress axis : x y z
#
# Youngs Moduli (GPa) = 61.09725 90.97138 150.77518
#
# Poissons Ratio (x) = -0.07221 0.03991
# Poissons Ratio (y) = -0.04850 0.66095
# Poissons Ratio (z) = 0.01617 0.39879
#
# Static dielectric constant tensor:
#      x y z
#    x 1.853110 0.000000 0.000000 
#    y 0.000000 1.660130 0.000000 
#    z 0.000000 0.000000 1.761390 
# 
# From -- ./inp_files/66963.got.cif
#   From: 2010.05.17/outbox.cif.g08.bks.cpg/sg63_34_cif.got.tgz:66963.got - 2010.06.03 15:47:04.
