data_PCOD9470729
_publ_section_title
;
Structure prediction by ZEFSAII (Michael W. Deem and Ramdas Pophale) SiO2 
 PCOD9470729
Probable space group: C M C M
;
_chemical_formula_sum "Si O2"
_cell_formula_units_Z 112
_cell_length_a 13.370196
_cell_length_b 16.920942
_cell_length_c 24.564956
_cell_angle_alpha 90.000000
_cell_angle_beta 90.000000
_cell_angle_gamma 90.000000
_cell_volume 5557.485026
_symmetry_space_group_name_H-M "C M C M"
_symmetry_group_IT_number 63
_symmetry_cell_setting 'orthorhombic'
loop_
_space_group_symop_operation_xyz
x,y,z
-x,-y,1/2+z
x,-y,-z
-x,y,1/2-z
-x,-y,-z
x,y,1/2-z
-x,y,z
x,-y,1/2+z
1/2+x,1/2+y,z
1/2-x,1/2-y,1/2+z
1/2+x,1/2-y,-z
1/2-x,1/2+y,1/2-z
1/2-x,1/2-y,-z
1/2+x,1/2+y,1/2-z
1/2-x,1/2+y,z
1/2+x,1/2-y,1/2+z
loop_
_atom_site_type_symbol
_atom_site_label
_atom_site_fract_x
_atom_site_fract_y
_atom_site_fract_z
Si Si1 0.764211 0.993525 0.114133
Si Si2 0.109168 0.735806 0.978503
Si Si3 0.696215 0.315817 0.420550
Si Si4 0.385493 0.602660 0.186665
Si Si5 0.611891 0.904894 0.186934
Si Si6 0.255522 0.746324 0.687622
Si Si7 0.108320 0.428739 0.957236
O O1 0.791570 0.910062 0.086040
O O2 0.676979 0.968538 0.155746
O O3 0.855091 0.032581 0.146266
O O4 0.708963 0.056806 0.076084
O O5 0.198945 0.727461 0.936198
O O6 0.000000 0.747930 0.953577
O O7 0.128788 0.797581 0.027073
O O8 0.111452 0.652150 0.009859
O O9 0.670098 0.276379 0.362014
O O10 0.379273 0.576899 0.250000
O O11 0.500000 0.629548 0.177501
O O12 0.304118 0.672110 0.179795
O O13 0.605866 0.926723 0.250000
O O14 0.500000 0.896777 0.164389
O O15 0.672091 0.822916 0.184375
O O16 0.296052 0.745041 0.750000
O O17 0.000000 0.430732 0.927176
O O18 0.105959 0.500000 0.000000
#
# Coordination Sequence:
#
# PCOD9470729 Si02
#       7
#    16  16  16  16  16  16  16
#     4  11  20  32  53  76 105 137 174 216 257 311
#     4  10  21  37  55  76 107 143 178 215 260 315
#     4  10  21  35  55  81 106 137 176 221 265 312
#     4  10  21  36  53  75 105 143 180 212 254 310
#     4   9  17  29  48  77 106 129 162 214 271 316
#     4   9  18  34  56  78 103 135 174 222 270 315
#     4  10  19  33  53  77 103 135 172 212 262 317
#
# _framework density 20.153001
#
# number of rings (size 3 to 8) (size 9 to 14) (size 15 to 20)
#    0.000    2.143    1.429    2.143    0.000    5.714 
#    0.000    0.000    0.000    0.857    0.000    4.000 
#    0.000    0.000    0.000    0.000    0.000    0.000 
#
# Total GULP energy -312292.589858 kJ/mol
# GULP energy per Si atom -5576.653390 kJ/mol
# Density = 2.010713 g / cm^3
# Si number density = 20.153001 Si / 1000 Ang^3
#
#
#
# Elastic Constant Matrix: (Units=GPa)
#
#
# Indices 1 2 3 4 5 6 
#
# 1 16.9963 -8.4672 -2.0182 0.0000 0.0000 0.0000
# 2 -8.4672 23.5238 13.4120 0.0000 0.0000 0.0000
# 3 -2.0182 13.4120 56.1058 0.0000 0.0000 0.0000
# 4 0.0000 0.0000 0.0000 27.3250 0.0000 0.0000
# 5 0.0000 0.0000 0.0000 0.0000 15.7454 0.0000
# 6 0.0000 0.0000 0.0000 0.0000 0.0000 21.5215
#
#
#
# Elastic Compliance Matrix: (Units=1/GPa)
#
#
# Indices 1 2 3 4 5 6 
#
# 1 0.072539 0.028508 -0.004205 0.000000 0.000000 0.000000
# 2 0.028508 0.060422 -0.013418 0.000000 0.000000 0.000000
# 3 -0.004205 -0.013418 0.020880 0.000000 0.000000 0.000000
# 4 0.000000 0.000000 0.000000 0.036596 0.000000 0.000000
# 5 0.000000 0.000000 0.000000 0.000000 0.063511 0.000000
# 6 0.000000 0.000000 0.000000 0.000000 0.000000 0.046465
#
#
# Mechanical properties :
#
#
# Convention : Reuss Voigt Hill
#
# Bulk Modulus (GPa) = 5.69450 11.38658 8.54054
# Shear Modulus (GPa) = 14.82883 19.16499 16.99691
#
# Velocity S-wave (km/s) = 2.71553 3.08713 2.90727
# Velocity P-wave (km/s) = 3.55864 4.28597 3.93913
#
# Compressibility (1/GPa) = 0.17560799
#
# Stress axis : x y z
#
# Youngs Moduli (GPa) = 13.78571 16.55037 47.89313
#
# Poissons Ratio (x) = -0.47181 0.20141
# Poissons Ratio (y) = -0.39300 0.64264
# Poissons Ratio (z) = 0.05797 0.22208
#
# Static dielectric constant tensor:
#      x y z
#    x 1.733360 0.000000 0.000000 
#    y 0.000000 1.703380 0.000000 
#    z 0.000000 0.000000 1.789450 
# 
# From -- ./inp_files/69359.got.cif
#   From: 2010.05.17/outbox.cif.g08.bks.cpg/sg63_35_cif.got.tgz:69359.got - 2010.06.03 15:47:04.
