data_PCOD9470496
_publ_section_title
;
Structure prediction by ZEFSAII (Michael W. Deem and Ramdas Pophale) SiO2 
 PCOD9470496
Probable space group: C M C M
;
_chemical_formula_sum "Si O2"
_cell_formula_units_Z 80
_cell_length_a 7.969308
_cell_length_b 28.863661
_cell_length_c 16.555536
_cell_angle_alpha 90.000000
_cell_angle_beta 90.000000
_cell_angle_gamma 90.000000
_cell_volume 3808.160754
_symmetry_space_group_name_H-M "C M C M"
_symmetry_group_IT_number 63
_symmetry_cell_setting 'orthorhombic'
loop_
_space_group_symop_operation_xyz
x,y,z
-x,-y,1/2+z
x,-y,-z
-x,y,1/2-z
-x,-y,-z
x,y,1/2-z
-x,y,z
x,-y,1/2+z
1/2+x,1/2+y,z
1/2-x,1/2-y,1/2+z
1/2+x,1/2-y,-z
1/2-x,1/2+y,1/2-z
1/2-x,1/2-y,-z
1/2+x,1/2+y,1/2-z
1/2-x,1/2+y,z
1/2+x,1/2-y,1/2+z
loop_
_atom_site_type_symbol
_atom_site_label
_atom_site_fract_x
_atom_site_fract_y
_atom_site_fract_z
Si Si1 0.686393 0.497299 0.750000
Si Si2 0.201897 0.736760 0.407856
Si Si3 0.295180 0.860624 0.552309
Si Si4 0.197193 0.834288 0.127520
Si Si5 0.817903 0.406689 0.250000
Si Si6 0.200282 0.533720 0.426829
O O1 0.500000 0.477515 0.750000
O O2 0.685358 0.552803 0.750000
O O3 0.767084 0.483857 0.835937
O O4 0.250000 0.750000 0.500000
O O5 0.254728 0.683690 0.391968
O O6 0.259696 0.781647 0.357883
O O7 0.000000 0.737633 0.402836
O O8 0.500000 0.860647 0.549204
O O9 0.222741 0.846734 0.465660
O O10 0.238494 0.912901 0.569964
O O11 0.296299 0.872964 0.175141
O O12 0.000000 0.836968 0.148610
O O13 0.000000 0.429607 0.250000
O O14 0.264873 0.500000 0.500000
O O15 0.000000 0.535604 0.438402
#
# Coordination Sequence:
#
# PCOD9470496 Si02
#       6
#     8  16  16  16   8  16
#     4  12  26  42  61  86 117 149 186 239 295 344
#     4   8  15  28  48  75 106 139 176 220 269 325
#     4   9  17  32  55  81 110 148 189 225 270 330
#     4  10  19  32  52  80 111 141 179 228 280 331
#     4  12  24  38  55  74 103 141 180 225 279 340
#     4  10  21  38  61  87 116 154 198 240 283 337
#
# _framework density 21.007517
#
# number of rings (size 3 to 8) (size 9 to 14) (size 15 to 20)
#    0.000    2.200    0.000    3.600    0.000    3.600 
#    0.000    1.000    0.000    6.000    0.000    0.000 
#    0.000    0.000    0.000    0.000    0.000    0.000 
#
# Total GULP energy -222814.910105 kJ/mol
# GULP energy per Si atom -5570.372753 kJ/mol
# Density = 2.095970 g / cm^3
# Si number density = 21.007517 Si / 1000 Ang^3
#
#
#
# Elastic Constant Matrix: (Units=GPa)
#
#
# Indices 1 2 3 4 5 6 
#
# 1 24.5107 11.2528 -5.4069 0.0000 0.0000 0.0000
# 2 11.2528 197.9002 56.1974 0.0000 0.0000 0.0000
# 3 -5.4069 56.1974 69.5250 0.0000 0.0000 0.0000
# 4 0.0000 0.0000 0.0000 278.3268 0.0000 0.0000
# 5 0.0000 0.0000 0.0000 0.0000 15.2315 0.0000
# 6 0.0000 0.0000 0.0000 0.0000 0.0000 13.0107
#
#
#
# Elastic Compliance Matrix: (Units=1/GPa)
#
#
# Indices 1 2 3 4 5 6 
#
# 1 0.044465 -0.004556 0.007141 0.000000 0.000000 0.000000
# 2 -0.004556 0.007025 -0.006033 0.000000 0.000000 0.000000
# 3 0.007141 -0.006033 0.019815 0.000000 0.000000 0.000000
# 4 0.000000 0.000000 0.000000 0.003593 0.000000 0.000000
# 5 0.000000 0.000000 0.000000 0.000000 0.065654 0.000000
# 6 0.000000 0.000000 0.000000 0.000000 0.000000 0.076860
#
#
# Mechanical properties :
#
#
# Convention : Reuss Voigt Hill
#
# Bulk Modulus (GPa) = 15.52573 46.22474 30.87524
# Shear Modulus (GPa) = 20.34355 76.63997 48.49176
#
# Velocity S-wave (km/s) = 3.11528 6.04660 4.80969
# Velocity P-wave (km/s) = 4.51072 8.41428 6.75080
#
# Compressibility (1/GPa) = 0.06440921
#
# Stress axis : x y z
#
# Youngs Moduli (GPa) = 22.48941 142.34339 50.46669
#
# Poissons Ratio (x) = 0.64853 -0.36037
# Poissons Ratio (y) = 0.10246 0.30446
# Poissons Ratio (z) = -0.16059 0.85874
#
# Static dielectric constant tensor:
#      x y z
#    x 1.750850 0.000000 0.000000 
#    y 0.000000 1.805300 0.000000 
#    z 0.000000 0.000000 1.796720 
# 
# From -- ./inp_files/40628.got.cif
#   From: 2010.05.17/outbox.cif.g08.bks.cpg/sg63_21_cif.got.tgz:40628.got - 2010.06.03 15:47:04.
