data_PCOD9470333
_publ_section_title
;
Structure prediction by ZEFSAII (Michael W. Deem and Ramdas Pophale) SiO2 
 PCOD9470333
Probable space group: C M C M
;
_chemical_formula_sum "Si O2"
_cell_formula_units_Z 80
_cell_length_a 28.588981
_cell_length_b 9.279605
_cell_length_c 16.962283
_cell_angle_alpha 90.000000
_cell_angle_beta 90.000000
_cell_angle_gamma 90.000000
_cell_volume 4499.999557
_symmetry_space_group_name_H-M "C M C M"
_symmetry_group_IT_number 63
_symmetry_cell_setting 'orthorhombic'
loop_
_space_group_symop_operation_xyz
x,y,z
-x,-y,1/2+z
x,-y,-z
-x,y,1/2-z
-x,-y,-z
x,y,1/2-z
-x,y,z
x,-y,1/2+z
1/2+x,1/2+y,z
1/2-x,1/2-y,1/2+z
1/2+x,1/2-y,-z
1/2-x,1/2+y,1/2-z
1/2-x,1/2-y,-z
1/2+x,1/2+y,1/2-z
1/2-x,1/2+y,z
1/2+x,1/2-y,1/2+z
loop_
_atom_site_type_symbol
_atom_site_label
_atom_site_fract_x
_atom_site_fract_y
_atom_site_fract_z
Si Si1 0.596519 0.317228 0.340696
Si Si2 0.555228 0.831097 0.993417
Si Si3 0.793475 0.224744 0.660520
Si Si4 0.721409 0.571596 0.085827
Si Si5 0.383748 0.398698 0.922047
O O1 0.583471 0.288137 0.250000
O O2 0.567165 0.233739 0.406928
O O3 0.650842 0.271293 0.353025
O O4 0.596516 0.489749 0.357370
O O5 0.500000 0.814890 0.007756
O O6 0.584397 0.736001 0.055765
O O7 0.567228 0.000000 0.000000
O O8 0.783902 0.269402 0.750000
O O9 0.763650 0.321940 0.602063
O O10 0.778520 0.060138 0.646981
O O11 0.670048 0.643209 0.094029
O O12 0.724668 0.500000 0.000000
O O13 0.382200 0.500000 0.000000
#
# Coordination Sequence:
#
# PCOD9470333 Si02
#       5
#    16  16  16  16  16
#     4   9  19  35  54  77 105 137 175 216 253 299
#     4  10  21  37  56  78 104 133 167 213 268 318
#     4  10  20  33  49  74 108 138 167 207 254 298
#     4  10  19  32  50  74 102 136 175 211 245 293
#     4   8  17  34  54  76 101 133 172 211 253 304
#
# _framework density 17.777778999999999
#
# number of rings (size 3 to 8) (size 9 to 14) (size 15 to 20)
#    0.000    2.600    0.000    2.400    0.000    7.200 
#    0.000    1.000    0.000    1.200    0.000    0.000 
#    0.000    0.000    0.000    0.000    0.000    0.000 
#
# Total GULP energy -223015.544130 kJ/mol
# GULP energy per Si atom -5575.388603 kJ/mol
# Density = 1.773732 g / cm^3
# Si number density = 17.777779 Si / 1000 Ang^3
#
#
#
# Elastic Constant Matrix: (Units=GPa)
#
#
# Indices 1 2 3 4 5 6 
#
# 1 67.8270 65.8602 29.9798 0.0000 0.0000 0.0000
# 2 65.8602 90.8243 33.1118 0.0000 0.0000 0.0000
# 3 29.9798 33.1118 65.9279 0.0000 0.0000 0.0000
# 4 0.0000 0.0000 0.0000 21.2633 0.0000 0.0000
# 5 0.0000 0.0000 0.0000 0.0000 5.5274 0.0000
# 6 0.0000 0.0000 0.0000 0.0000 0.0000 27.4827
#
#
#
# Elastic Compliance Matrix: (Units=1/GPa)
#
#
# Indices 1 2 3 4 5 6 
#
# 1 0.051526 -0.035281 -0.005711 0.000000 0.000000 0.000000
# 2 -0.035281 0.037636 -0.002859 0.000000 0.000000 0.000000
# 3 -0.005711 -0.002859 0.019201 0.000000 0.000000 0.000000
# 4 0.000000 0.000000 0.000000 0.047029 0.000000 0.000000
# 5 0.000000 0.000000 0.000000 0.000000 0.180915 0.000000
# 6 0.000000 0.000000 0.000000 0.000000 0.000000 0.036387
#
#
# Mechanical properties :
#
#
# Convention : Reuss Voigt Hill
#
# Bulk Modulus (GPa) = 48.40058 53.60919 51.00489
# Shear Modulus (GPa) = 10.70014 17.22986 13.96500
#
# Velocity S-wave (km/s) = 2.45599 3.11654 2.80577
# Velocity P-wave (km/s) = 5.94365 6.57047 6.26490
#
# Compressibility (1/GPa) = 0.02066091
#
# Stress axis : x y z
#
# Youngs Moduli (GPa) = 19.40772 26.57001 52.08089
#
# Poissons Ratio (x) = 0.93743 0.29743
# Poissons Ratio (y) = 0.68473 0.14890
# Poissons Ratio (z) = 0.11083 0.07596
#
# Static dielectric constant tensor:
#      x y z
#    x 1.597340 0.000000 0.000000 
#    y 0.000000 1.601560 0.000000 
#    z 0.000000 0.000000 1.636790 
# 
# From -- ./inp_files/48737.got.cif
#   From: 2010.05.17/outbox.cif.g08.bks.cpg/sg63_25_cif.got.tgz:48737.got - 2010.06.03 15:47:04.
