data_PCOD9470434
_publ_section_title
;
Structure prediction by ZEFSAII (Michael W. Deem and Ramdas Pophale) SiO2 
 PCOD9470434
Probable space group: C M C M
;
_chemical_formula_sum "Si O2"
_cell_formula_units_Z 80
_cell_length_a 9.398358
_cell_length_b 26.120567
_cell_length_c 16.872019
_cell_angle_alpha 90.000000
_cell_angle_beta 90.000000
_cell_angle_gamma 90.000000
_cell_volume 4141.919365
_symmetry_space_group_name_H-M "C M C M"
_symmetry_group_IT_number 63
_symmetry_cell_setting 'orthorhombic'
loop_
_space_group_symop_operation_xyz
x,y,z
-x,-y,1/2+z
x,-y,-z
-x,y,1/2-z
-x,-y,-z
x,y,1/2-z
-x,y,z
x,-y,1/2+z
1/2+x,1/2+y,z
1/2-x,1/2-y,1/2+z
1/2+x,1/2-y,-z
1/2-x,1/2+y,1/2-z
1/2-x,1/2-y,-z
1/2+x,1/2+y,1/2-z
1/2-x,1/2+y,z
1/2+x,1/2-y,1/2+z
loop_
_atom_site_type_symbol
_atom_site_label
_atom_site_fract_x
_atom_site_fract_y
_atom_site_fract_z
Si Si1 0.336540 0.204802 0.603710
Si Si2 0.661996 0.493755 0.840770
Si Si3 0.669155 0.914481 0.560069
Si Si4 0.832677 0.894161 0.396792
Si Si5 0.337807 0.802209 0.910090
O O1 0.500000 0.201475 0.628435
O O2 0.245471 0.156700 0.633658
O O3 0.333224 0.200944 0.506821
O O4 0.266690 0.259328 0.623050
O O5 0.672775 0.477056 0.750000
O O6 0.500000 0.483429 0.869590
O O7 0.773860 0.463264 0.893265
O O8 0.681615 0.554827 0.844984
O O9 0.500000 0.917050 0.544118
O O10 0.757412 0.909048 0.479384
O O11 0.695229 0.861395 0.607790
O O12 0.000000 0.883360 0.408504
O O13 0.500000 0.790842 0.886438
#
# Coordination Sequence:
#
# PCOD9470434 Si02
#       5
#    16  16  16  16  16
#     4   9  16  26  44  72 102 129 160 201 246 291
#     4  10  22  38  53  71  98 133 171 208 249 299
#     4  10  20  33  52  78 104 130 165 208 250 294
#     4  10  19  32  52  75 101 134 168 204 249 298
#     4   8  15  27  43  68 101 131 158 193 242 297
#
# _framework density 19.314717000000002
#
# number of rings (size 3 to 8) (size 9 to 14) (size 15 to 20)
#    0.000    2.600    0.000    3.600    0.000   10.000 
#    0.000    0.000    0.000    1.200    0.000    2.800 
#    0.000    0.000    0.000    0.000    0.000    0.000 
#
# Total GULP energy -223101.360639 kJ/mol
# GULP energy per Si atom -5577.534016 kJ/mol
# Density = 1.927076 g / cm^3
# Si number density = 19.314717 Si / 1000 Ang^3
#
#
#
# Elastic Constant Matrix: (Units=GPa)
#
#
# Indices 1 2 3 4 5 6 
#
# 1 120.8923 66.7818 20.0505 0.0000 0.0000 0.0000
# 2 66.7818 88.7691 9.2925 0.0000 0.0000 0.0000
# 3 20.0505 9.2925 12.6661 0.0000 0.0000 0.0000
# 4 0.0000 0.0000 0.0000 -5.8331 0.0000 0.0000
# 5 0.0000 0.0000 0.0000 0.0000 0.2948 0.0000
# 6 0.0000 0.0000 0.0000 0.0000 0.0000 40.6152
#
#
#
# Elastic Compliance Matrix: (Units=1/GPa)
#
#
# Indices 1 2 3 4 5 6 
#
# 1 0.017836 -0.011333 -0.019920 0.000000 0.000000 0.000000
# 2 -0.011333 0.019403 0.003705 0.000000 0.000000 0.000000
# 3 -0.019920 0.003705 0.107767 0.000000 0.000000 0.000000
# 4 0.000000 0.000000 0.000000 -0.171436 0.000000 0.000000
# 5 0.000000 0.000000 0.000000 0.000000 3.392005 0.000000
# 6 0.000000 0.000000 0.000000 0.000000 0.000000 0.024621
#
#
# Mechanical properties :
#
#
# Convention : Reuss Voigt Hill
#
# Bulk Modulus (GPa) = 11.12229 46.06412 28.59321
# Shear Modulus (GPa) = 1.43874 15.42889 8.43382
#
# Velocity S-wave (km/s) = 0.86401 2.82940 2.09189
# Velocity P-wave (km/s) = 2.60121 5.88005 4.54650
#
# Compressibility (1/GPa) = 0.08990954
#
# Stress axis : x y z
#
# Youngs Moduli (GPa) = 56.06585 51.53766 9.27932
#
# Poissons Ratio (x) = 0.58408 0.18485
# Poissons Ratio (y) = 0.63540 -0.03438
# Poissons Ratio (z) = 1.11685 -0.19095
#
# Static dielectric constant tensor:
#      x y z
#    x 1.657170 0.000000 0.000000 
#    y 0.000000 1.690510 0.000000 
#    z 0.000000 0.000000 1.668310 
# 
# From -- ./inp_files/40473.got.cif
#   From: 2010.05.17/outbox.cif.g08.bks.cpg/sg63_21_cif.got.tgz:40473.got - 2010.06.03 15:47:04.
