data_PCOD9470360
_publ_section_title
;
Structure prediction by ZEFSAII (Michael W. Deem and Ramdas Pophale) SiO2 
 PCOD9470360
Probable space group: C M C M
;
_chemical_formula_sum "Si O2"
_cell_formula_units_Z 128
_cell_length_a 19.848832
_cell_length_b 20.748517
_cell_length_c 18.216842
_cell_angle_alpha 90.000000
_cell_angle_beta 90.000000
_cell_angle_gamma 90.000000
_cell_volume 7502.311778
_symmetry_space_group_name_H-M "C M C M"
_symmetry_group_IT_number 63
_symmetry_cell_setting 'orthorhombic'
loop_
_space_group_symop_operation_xyz
x,y,z
-x,-y,1/2+z
x,-y,-z
-x,y,1/2-z
-x,-y,-z
x,y,1/2-z
-x,y,z
x,-y,1/2+z
1/2+x,1/2+y,z
1/2-x,1/2-y,1/2+z
1/2+x,1/2-y,-z
1/2-x,1/2+y,1/2-z
1/2-x,1/2-y,-z
1/2+x,1/2+y,1/2-z
1/2-x,1/2+y,z
1/2+x,1/2-y,1/2+z
loop_
_atom_site_type_symbol
_atom_site_label
_atom_site_fract_x
_atom_site_fract_y
_atom_site_fract_z
Si Si1 0.596519 0.605600 0.667160
Si Si2 0.688448 0.073734 0.515929
Si Si3 0.182949 0.125210 0.074842
Si Si4 0.668027 0.754409 0.164256
Si Si5 0.256299 0.885335 0.169297
Si Si6 0.426112 0.314547 0.030810
Si Si7 0.575492 0.459176 0.838366
Si Si8 0.078431 0.318301 0.040180
O O1 0.572948 0.614176 0.750000
O O2 0.677025 0.606066 0.668559
O O3 0.573632 0.661067 0.613270
O O4 0.575470 0.534597 0.641010
O O5 0.748642 0.097503 0.461170
O O6 0.714632 0.078018 0.599696
O O7 0.625613 0.122857 0.515781
O O8 0.670761 0.000000 0.500000
O O9 0.192168 0.188464 0.126039
O O10 0.137094 0.075367 0.120935
O O11 0.134085 0.148647 0.009398
O O12 0.650002 0.744069 0.250000
O O13 0.724595 0.810025 0.161081
O O14 0.607973 0.785061 0.114747
O O15 0.282451 0.905845 0.250000
O O16 0.500000 0.329467 0.997668
O O17 0.415952 0.238828 0.019431
O O18 0.585142 0.455423 0.750000
O O19 0.500000 0.432893 0.854367
O O20 0.000000 0.335598 0.049281
#
# Coordination Sequence:
#
# PCOD9470360 Si02
#       8
#    16  16  16  16  16  16  16  16
#     4  10  19  32  51  71  99 140 184 218 254 309
#     4  11  22  36  57  82 109 145 187 229 279 337
#     4  11  21  32  53  78 111 143 179 220 272 324
#     4   9  19  34  56  85 111 138 176 221 280 335
#     4   9  18  34  55  78 107 138 176 228 274 320
#     4  10  20  33  51  75 103 136 174 217 269 320
#     4  10  21  35  49  71 107 147 183 220 263 316
#     4   9  21  38  57  82 110 140 180 232 285 332
#
# _framework density 17.061408
#
# number of rings (size 3 to 8) (size 9 to 14) (size 15 to 20)
#    0.000    2.125    1.250    1.875    1.750    3.250 
#    0.000    1.875    0.000    0.750    0.000    0.000 
#    0.000    0.000    0.000    0.000    0.000    0.000 
#
# Total GULP energy -356720.133634 kJ/mol
# GULP energy per Si atom -5573.752088 kJ/mol
# Density = 1.702258 g / cm^3
# Si number density = 17.061408 Si / 1000 Ang^3
#
#
#
# Elastic Constant Matrix: (Units=GPa)
#
#
# Indices 1 2 3 4 5 6 
#
# 1 95.1440 48.4822 26.1394 0.0000 0.0000 0.0000
# 2 48.4822 98.3573 64.8937 0.0000 0.0000 0.0000
# 3 26.1394 64.8937 90.1401 0.0000 0.0000 0.0000
# 4 0.0000 0.0000 0.0000 26.5155 0.0000 0.0000
# 5 0.0000 0.0000 0.0000 0.0000 13.0736 0.0000
# 6 0.0000 0.0000 0.0000 0.0000 0.0000 23.3819
#
#
#
# Elastic Compliance Matrix: (Units=1/GPa)
#
#
# Indices 1 2 3 4 5 6 
#
# 1 0.014180 -0.008145 0.001752 0.000000 0.000000 0.000000
# 2 -0.008145 0.024044 -0.014948 0.000000 0.000000 0.000000
# 3 0.001752 -0.014948 0.021347 0.000000 0.000000 0.000000
# 4 0.000000 0.000000 0.000000 0.037714 0.000000 0.000000
# 5 0.000000 0.000000 0.000000 0.000000 0.076490 0.000000
# 6 0.000000 0.000000 0.000000 0.000000 0.000000 0.042768
#
#
# Mechanical properties :
#
#
# Convention : Reuss Voigt Hill
#
# Bulk Modulus (GPa) = 59.21152 62.51910 60.86531
# Shear Modulus (GPa) = 18.87827 22.20262 20.54044
#
# Velocity S-wave (km/s) = 3.33000 3.61132 3.47351
# Velocity P-wave (km/s) = 7.04028 7.35608 7.19991
#
# Compressibility (1/GPa) = 0.01688861
#
# Stress axis : x y z
#
# Youngs Moduli (GPa) = 70.52358 41.58980 46.84485
#
# Poissons Ratio (x) = 0.33877 -0.08208
# Poissons Ratio (y) = 0.57445 0.70023
# Poissons Ratio (z) = -0.12357 0.62168
#
# Static dielectric constant tensor:
#      x y z
#    x 1.585930 0.000000 0.000000 
#    y 0.000000 1.567290 0.000000 
#    z 0.000000 0.000000 1.599500 
# 
# From -- ./inp_files/47509.got.cif
#   From: 2010.05.17/outbox.cif.g08.bks.cpg/sg63_24_cif.got.tgz:47509.got - 2010.06.03 15:47:04.
