data_PCOD9470461
_publ_section_title
;
Structure prediction by ZEFSAII (Michael W. Deem and Ramdas Pophale) SiO2 
 PCOD9470461
Probable space group: C M C M
;
_chemical_formula_sum "Si O2"
_cell_formula_units_Z 96
_cell_length_a 7.565816
_cell_length_b 31.424846
_cell_length_c 19.673789
_cell_angle_alpha 90.000000
_cell_angle_beta 90.000000
_cell_angle_gamma 90.000000
_cell_volume 4677.533887
_symmetry_space_group_name_H-M "C M C M"
_symmetry_group_IT_number 63
_symmetry_cell_setting 'orthorhombic'
loop_
_space_group_symop_operation_xyz
x,y,z
-x,-y,1/2+z
x,-y,-z
-x,y,1/2-z
-x,-y,-z
x,y,1/2-z
-x,y,z
x,-y,1/2+z
1/2+x,1/2+y,z
1/2-x,1/2-y,1/2+z
1/2+x,1/2-y,-z
1/2-x,1/2+y,1/2-z
1/2-x,1/2-y,-z
1/2+x,1/2+y,1/2-z
1/2-x,1/2+y,z
1/2+x,1/2-y,1/2+z
loop_
_atom_site_type_symbol
_atom_site_label
_atom_site_fract_x
_atom_site_fract_y
_atom_site_fract_z
Si Si1 0.212201 0.770555 0.573216
Si Si2 0.710799 0.366659 0.567742
Si Si3 0.216350 0.696468 0.828217
Si Si4 0.212126 0.466958 0.327631
Si Si5 0.213295 0.386495 0.087843
Si Si6 0.287911 0.436827 0.672615
O O1 0.250000 0.750000 0.500000
O O2 0.281737 0.818709 0.576469
O O3 0.275940 0.738423 0.631435
O O4 0.000000 0.772613 0.579711
O O5 0.500000 0.364237 0.578485
O O6 0.738408 0.381582 0.490625
O O7 0.781116 0.401124 0.621312
O O8 0.272450 0.695469 0.750000
O O9 0.273656 0.654653 0.869515
O O10 0.000000 0.696386 0.828481
O O11 0.278904 0.462023 0.250000
O O12 0.277980 0.429795 0.376806
O O13 0.251172 0.514949 0.350500
O O14 0.000000 0.462913 0.324675
O O15 0.000000 0.386611 0.091010
O O16 0.220127 0.432332 0.750000
O O17 0.500000 0.432634 0.675527
#
# Coordination Sequence:
#
# PCOD9470461 Si02
#       6
#    16  16  16  16  16  16
#     4  10  19  33  53  75 101 134 168 206 252 301
#     4  10  21  34  51  76 104 134 168 210 255 300
#     4   9  17  30  51  78 102 128 167 210 250 296
#     4   9  18  33  53  76 102 132 169 214 257 296
#     4  10  19  32  52  77 104 134 167 207 254 305
#     4   9  19  36  54  72  99 135 173 211 252 300
#
# _framework density 20.523636
#
# number of rings (size 3 to 8) (size 9 to 14) (size 15 to 20)
#    0.000    2.500    1.667    0.500    0.000    4.667 
#    0.000    6.667    0.000    3.000    0.000    2.333 
#    0.000    0.000    0.000    0.000    0.000    0.000 
#
# Total GULP energy -268000.773255 kJ/mol
# GULP energy per Si atom -5583.349443 kJ/mol
# Density = 2.047692 g / cm^3
# Si number density = 20.523636 Si / 1000 Ang^3
#
#
#
# Elastic Constant Matrix: (Units=GPa)
#
#
# Indices 1 2 3 4 5 6 
#
# 1 48.3611 6.4056 -0.9631 0.0000 0.0000 0.0000
# 2 6.4056 238.4551 130.2390 0.0000 0.0000 0.0000
# 3 -0.9631 130.2390 149.1962 0.0000 0.0000 0.0000
# 4 0.0000 0.0000 0.0000 43.6396 0.0000 0.0000
# 5 0.0000 0.0000 0.0000 0.0000 21.5384 0.0000
# 6 0.0000 0.0000 0.0000 0.0000 0.0000 12.1746
#
#
#
# Elastic Compliance Matrix: (Units=1/GPa)
#
#
# Indices 1 2 3 4 5 6 
#
# 1 0.020862 -0.001212 0.001192 0.000000 0.000000 0.000000
# 2 -0.001212 0.008085 -0.007066 0.000000 0.000000 0.000000
# 3 0.001192 -0.007066 0.012878 0.000000 0.000000 0.000000
# 4 0.000000 0.000000 0.000000 0.022915 0.000000 0.000000
# 5 0.000000 0.000000 0.000000 0.000000 0.046429 0.000000
# 6 0.000000 0.000000 0.000000 0.000000 0.000000 0.082138
#
#
# Mechanical properties :
#
#
# Convention : Reuss Voigt Hill
#
# Bulk Modulus (GPa) = 36.15924 78.59727 57.37825
# Shear Modulus (GPa) = 23.07371 35.49257 29.28314
#
# Velocity S-wave (km/s) = 3.35662 4.16306 3.78140
# Velocity P-wave (km/s) = 5.71657 7.84138 6.86172
#
# Compressibility (1/GPa) = 0.02765545
#
# Stress axis : x y z
#
# Youngs Moduli (GPa) = 47.93399 123.67859 77.64935
#
# Poissons Ratio (x) = 0.14986 -0.09259
# Poissons Ratio (y) = 0.05808 0.54867
# Poissons Ratio (z) = -0.05716 0.87391
#
# Static dielectric constant tensor:
#      x y z
#    x 1.788460 0.000000 0.000000 
#    y 0.000000 1.720990 0.000000 
#    z 0.000000 0.000000 1.688460 
# 
# From -- ./inp_files/51306.got.cif
#   From: 2010.05.17/outbox.cif.g08.bks.cpg/sg63_26_cif.got.tgz:51306.got - 2010.06.03 15:47:04.
