data_PCOD9470765
_publ_section_title
;
Structure prediction by ZEFSAII (Michael W. Deem and Ramdas Pophale) SiO2 
 PCOD9470765
Probable space group: C M C M
;
_chemical_formula_sum "Si O2"
_cell_formula_units_Z 96
_cell_length_a 15.415583
_cell_length_b 18.216162
_cell_length_c 13.567060
_cell_angle_alpha 90.000000
_cell_angle_beta 90.000000
_cell_angle_gamma 90.000000
_cell_volume 3809.803526
_symmetry_space_group_name_H-M "C M C M"
_symmetry_group_IT_number 63
_symmetry_cell_setting 'orthorhombic'
loop_
_space_group_symop_operation_xyz
x,y,z
-x,-y,1/2+z
x,-y,-z
-x,y,1/2-z
-x,-y,-z
x,y,1/2-z
-x,y,z
x,-y,1/2+z
1/2+x,1/2+y,z
1/2-x,1/2-y,1/2+z
1/2+x,1/2-y,-z
1/2-x,1/2+y,1/2-z
1/2-x,1/2-y,-z
1/2+x,1/2+y,1/2-z
1/2-x,1/2+y,z
1/2+x,1/2-y,1/2+z
loop_
_atom_site_type_symbol
_atom_site_label
_atom_site_fract_x
_atom_site_fract_y
_atom_site_fract_z
Si Si1 0.782163 0.252823 0.369218
Si Si2 0.093414 0.874821 0.869568
Si Si3 0.840597 0.522029 0.363543
Si Si4 0.599030 0.119176 0.957698
Si Si5 0.403522 0.304428 0.130590
Si Si6 0.355481 0.532096 0.631894
O O1 0.785653 0.258220 0.250000
O O2 0.900408 0.452210 0.386292
O O3 0.838179 0.320113 0.411210
O O4 0.681462 0.258855 0.398443
O O5 0.097644 0.877922 0.750000
O O6 0.172390 0.823117 0.898721
O O7 0.098204 0.958581 0.903559
O O8 0.000000 0.842050 0.895046
O O9 0.843712 0.546181 0.250000
O O10 0.865780 0.586145 0.438878
O O11 0.745236 0.487800 0.383607
O O12 0.500000 0.144611 0.967368
O O13 0.403337 0.304413 0.250000
O O14 0.500000 0.280652 0.101162
O O15 0.386232 0.388453 0.097063
O O16 0.368662 0.535809 0.750000
#
# Coordination Sequence:
#
# PCOD9470765 Si02
#       6
#    16  16  16  16  16  16
#     4  10  19  33  53  83 119 154 192 240 297 348
#     4   9  17  29  50  82 117 153 194 240 291 346
#     4  10  20  35  54  79 114 151 193 240 289 343
#     4  11  22  34  54  83 116 154 194 237 288 350
#     4   9  16  28  51  80 108 146 194 240 290 345
#     4   9  16  30  52  78 109 146 190 240 290 340
#
# _framework density 25.198149999999998
#
# number of rings (size 3 to 8) (size 9 to 14) (size 15 to 20)
#    0.000    2.333    1.667    2.500    0.000    5.000 
#    0.000    0.833    0.000    5.000    0.000    9.333 
#    0.000    0.000    0.000    0.000    0.000    0.000 
#
# Total GULP energy -268883.176880 kJ/mol
# GULP energy per Si atom -5601.732852 kJ/mol
# Density = 2.514080 g / cm^3
# Si number density = 25.198150 Si / 1000 Ang^3
#
#
#
# Elastic Constant Matrix: (Units=GPa)
#
#
# Indices 1 2 3 4 5 6 
#
# 1 236.6971 91.7213 16.8815 0.0000 0.0000 0.0000
# 2 91.7213 132.8168 19.8686 0.0000 0.0000 0.0000
# 3 16.8815 19.8686 119.5222 0.0000 0.0000 0.0000
# 4 0.0000 0.0000 0.0000 37.9065 0.0000 0.0000
# 5 0.0000 0.0000 0.0000 0.0000 -0.7903 0.0000
# 6 0.0000 0.0000 0.0000 0.0000 0.0000 9.6457
#
#
#
# Elastic Compliance Matrix: (Units=1/GPa)
#
#
# Indices 1 2 3 4 5 6 
#
# 1 0.005771 -0.003962 -0.000157 0.000000 0.000000 0.000000
# 2 -0.003962 0.010441 -0.001176 0.000000 0.000000 0.000000
# 3 -0.000157 -0.001176 0.008584 0.000000 0.000000 0.000000
# 4 0.000000 0.000000 0.000000 0.026381 0.000000 0.000000
# 5 0.000000 0.000000 0.000000 0.000000 -1.265386 0.000000
# 6 0.000000 0.000000 0.000000 0.000000 0.000000 0.103674
#
#
# Mechanical properties :
#
#
# Convention : Reuss Voigt Hill
#
# Bulk Modulus (GPa) = 70.38590 82.88654 76.63622
# Shear Modulus (GPa) = -4.56534 33.39002 14.41234
#
# Velocity S-wave (km/s) = -1.34748 3.64414 2.39416
# Velocity P-wave (km/s) = 5.05694 7.11840 6.17431
#
# Compressibility (1/GPa) = 0.01420739
#
# Stress axis : x y z
#
# Youngs Moduli (GPa) = 173.27007 95.77326 116.49235
#
# Poissons Ratio (x) = 0.37947 0.01823
# Poissons Ratio (y) = 0.68653 0.13700
# Poissons Ratio (z) = 0.02712 0.11264
#
# Static dielectric constant tensor:
#      x y z
#    x 1.989560 0.000000 0.000000 
#    y 0.000000 1.926790 0.000000 
#    z 0.000000 0.000000 2.014920 
# 
# From -- ./inp_files/31914.got.cif
#   From: 2010.05.17/outbox.cif.g08.bks.cpg/sg63_16_cif.got.tgz:31914.got - 2010.06.03 15:47:04.
