data_PCOD9470426
_publ_section_title
;
Structure prediction by ZEFSAII (Michael W. Deem and Ramdas Pophale) SiO2 
 PCOD9470426
Probable space group: C M C M
;
_chemical_formula_sum "Si O2"
_cell_formula_units_Z 116
_cell_length_a 7.529983
_cell_length_b 29.156114
_cell_length_c 24.137804
_cell_angle_alpha 90.000000
_cell_angle_beta 90.000000
_cell_angle_gamma 90.000000
_cell_volume 5299.335211
_symmetry_space_group_name_H-M "C M C M"
_symmetry_group_IT_number 63
_symmetry_cell_setting 'orthorhombic'
loop_
_space_group_symop_operation_xyz
x,y,z
-x,-y,1/2+z
x,-y,-z
-x,y,1/2-z
-x,-y,-z
x,y,1/2-z
-x,y,z
x,-y,1/2+z
1/2+x,1/2+y,z
1/2-x,1/2-y,1/2+z
1/2+x,1/2-y,-z
1/2-x,1/2+y,1/2-z
1/2-x,1/2-y,-z
1/2+x,1/2+y,1/2-z
1/2-x,1/2+y,z
1/2+x,1/2-y,1/2+z
loop_
_atom_site_type_symbol
_atom_site_label
_atom_site_fract_x
_atom_site_fract_y
_atom_site_fract_z
Si Si1 0.000000 0.705660 0.750000
Si Si2 0.710716 0.827443 0.811342
Si Si3 0.212388 0.602172 0.595918
Si Si4 0.286951 0.404749 0.610653
Si Si5 0.295911 0.687345 0.657048
Si Si6 0.211724 0.000081 0.936554
Si Si7 0.784917 0.733043 0.415750
Si Si8 0.794946 0.341090 0.507387
O O1 0.156076 0.702481 0.702171
O O2 0.785731 0.818660 0.750000
O O3 0.500000 0.819626 0.808624
O O4 0.739334 0.879418 0.832248
O O5 0.777694 0.794869 0.860791
O O6 0.282853 0.633124 0.645894
O O7 0.255438 0.548825 0.591829
O O8 0.284852 0.627653 0.540788
O O9 0.000000 0.605476 0.597217
O O10 0.500000 0.403179 0.606069
O O11 0.224457 0.456413 0.598740
O O12 0.209142 0.373306 0.561832
O O13 0.500000 0.699523 0.670891
O O14 0.248266 0.714500 0.599767
O O15 0.000000 0.994608 0.941062
O O16 0.282567 0.000000 0.000000
O O17 0.713081 0.706375 0.469510
O O18 0.000000 0.728638 0.418719
O O19 0.000000 0.332553 0.492580
#
# Coordination Sequence:
#
# PCOD9470426 Si02
#       8
#     4  16  16  16  16  16  16  16
#     4  12  26  48  68  94 122 152 226 278 302 374
#     4   9  18  34  56  79 112 151 194 241 302 374
#     4  11  22  37  60  93 124 158 211 259 304 379
#     4  10  19  32  51  82 116 151 195 249 302 366
#     4  11  24  44  69  91 125 166 206 266 324 360
#     4  10  20  35  57  83 118 158 204 248 305 378
#     4   8  17  35  57  86 118 161 202 235 304 375
#     4   9  18  34  56  83 127 164 194 241 299 371
#
# _framework density 21.889537000000001
#
# number of rings (size 3 to 8) (size 9 to 14) (size 15 to 20)
#    0.000    2.207    2.069    1.862    0.966    2.759 
#    4.966    0.000    1.517    0.000    0.000    0.000 
#    0.000    0.000    0.000    0.000    0.000    0.000 
#
# Total GULP energy -323308.468456 kJ/mol
# GULP energy per Si atom -5574.283939 kJ/mol
# Density = 2.183972 g / cm^3
# Si number density = 21.889537 Si / 1000 Ang^3
#
#
#
# Elastic Constant Matrix: (Units=GPa)
#
#
# Indices 1 2 3 4 5 6 
#
# 1 81.1239 -8.7312 2.8778 0.0000 0.0000 0.0000
# 2 -8.7312 139.6491 7.2654 0.0000 0.0000 0.0000
# 3 2.8778 7.2654 33.8041 0.0000 0.0000 0.0000
# 4 0.0000 0.0000 0.0000 5.0843 0.0000 0.0000
# 5 0.0000 0.0000 0.0000 0.0000 20.9213 0.0000
# 6 0.0000 0.0000 0.0000 0.0000 0.0000 11.0080
#
#
#
# Elastic Compliance Matrix: (Units=1/GPa)
#
#
# Indices 1 2 3 4 5 6 
#
# 1 0.012462 0.000844 -0.001242 0.000000 0.000000 0.000000
# 2 0.000844 0.007299 -0.001641 0.000000 0.000000 0.000000
# 3 -0.001242 -0.001641 0.030041 0.000000 0.000000 0.000000
# 4 0.000000 0.000000 0.000000 0.196686 0.000000 0.000000
# 5 0.000000 0.000000 0.000000 0.000000 0.047798 0.000000
# 6 0.000000 0.000000 0.000000 0.000000 0.000000 0.090843
#
#
# Mechanical properties :
#
#
# Convention : Reuss Voigt Hill
#
# Bulk Modulus (GPa) = 21.87078 28.60012 25.23545
# Shear Modulus (GPa) = 12.36256 24.28040 18.32148
#
# Velocity S-wave (km/s) = 2.37907 3.33411 2.89623
# Velocity P-wave (km/s) = 4.19043 5.28354 4.76841
#
# Compressibility (1/GPa) = 0.04572311
#
# Stress axis : x y z
#
# Youngs Moduli (GPa) = 80.24587 137.00675 33.28835
#
# Poissons Ratio (x) = -0.11560 0.04135
# Poissons Ratio (y) = -0.06771 0.05461
# Poissons Ratio (z) = 0.09968 0.22477
#
# Static dielectric constant tensor:
#      x y z
#    x 1.814520 0.000000 0.000000 
#    y 0.000000 1.840950 0.000000 
#    z 0.000000 0.000000 1.859080 
# 
# From -- ./inp_files/67479.got.cif
#   From: 2010.05.17/outbox.cif.g08.bks.cpg/sg63_34_cif.got.tgz:67479.got - 2010.06.03 15:47:04.
