data_PCOD9470251
_publ_section_title
;
Structure prediction by ZEFSAII (Michael W. Deem and Ramdas Pophale) SiO2 
 PCOD9470251
Probable space group: C M C M
;
_chemical_formula_sum "Si O2"
_cell_formula_units_Z 100
_cell_length_a 7.371586
_cell_length_b 19.328094
_cell_length_c 28.534068
_cell_angle_alpha 90.000000
_cell_angle_beta 90.000000
_cell_angle_gamma 90.000000
_cell_volume 4065.497118
_symmetry_space_group_name_H-M "C M C M"
_symmetry_group_IT_number 63
_symmetry_cell_setting 'orthorhombic'
loop_
_space_group_symop_operation_xyz
x,y,z
-x,-y,1/2+z
x,-y,-z
-x,y,1/2-z
-x,-y,-z
x,y,1/2-z
-x,y,z
x,-y,1/2+z
1/2+x,1/2+y,z
1/2-x,1/2-y,1/2+z
1/2+x,1/2-y,-z
1/2-x,1/2+y,1/2-z
1/2-x,1/2-y,-z
1/2+x,1/2+y,1/2-z
1/2-x,1/2+y,z
1/2+x,1/2-y,1/2+z
loop_
_atom_site_type_symbol
_atom_site_label
_atom_site_fract_x
_atom_site_fract_y
_atom_site_fract_z
Si Si1 0.780383 0.785790 0.934015
Si Si2 0.208917 0.863526 0.477712
Si Si3 0.208981 0.699913 0.174407
Si Si4 0.500000 0.506607 0.750000
Si Si5 0.780952 0.054962 0.609128
Si Si6 0.276744 0.647952 0.802532
Si Si7 0.288795 0.952239 0.819647
O O1 0.714640 0.710176 0.950405
O O2 0.717840 0.799100 0.881716
O O3 0.000000 0.784451 0.935036
O O4 0.714920 0.842721 0.971638
O O5 0.286948 0.918958 0.441238
O O6 0.000000 0.883666 0.485953
O O7 0.284348 0.772394 0.191789
O O8 0.282050 0.625418 0.189069
O O9 0.000000 0.699506 0.189664
O O10 0.657309 0.500498 0.790387
O O11 0.717491 0.106696 0.651006
O O12 0.000000 0.059302 0.607476
O O13 0.727926 0.979029 0.627003
O O14 0.221310 0.626544 0.750000
O O15 0.500000 0.646145 0.802345
O O16 0.500000 0.956465 0.806691
#
# Coordination Sequence:
#
# PCOD9470251 Si02
#       7
#    16  16  16   4  16  16  16
#     4  10  19  31  56  89 122 159 208 257 309 373
#     4   9  18  34  56  87 122 164 205 251 315 377
#     4  10  21  40  59  85 122 163 202 257 310 371
#     4  12  26  48  68  90 122 176 210 266 300 382
#     4  10  19  37  62  87 122 164 204 257 316 371
#     4   9  18  32  57  85 114 154 202 246 310 372
#     4  11  26  43  67  93 124 164 214 257 313 372
#
# _framework density 24.597237
#
# number of rings (size 3 to 8) (size 9 to 14) (size 15 to 20)
#    0.000    2.080    2.400    0.720    3.360    1.280 
#    0.000    0.800    0.000    5.760    0.000    0.000 
#    0.000    0.000    0.000    0.000    0.000    0.000 
#
# Total GULP energy -278944.704818 kJ/mol
# GULP energy per Si atom -5578.894096 kJ/mol
# Density = 2.454125 g / cm^3
# Si number density = 24.597237 Si / 1000 Ang^3
#
#
#
# Elastic Constant Matrix: (Units=GPa)
#
#
# Indices 1 2 3 4 5 6 
#
# 1 111.5855 -4.3106 -7.3513 0.0000 0.0000 0.0000
# 2 -4.3106 78.9377 -4.6817 0.0000 0.0000 0.0000
# 3 -7.3513 -4.6817 79.5743 0.0000 0.0000 0.0000
# 4 0.0000 0.0000 0.0000 0.5880 0.0000 0.0000
# 5 0.0000 0.0000 0.0000 0.0000 -268.9923 0.0000
# 6 0.0000 0.0000 0.0000 0.0000 0.0000 4.7583
#
#
#
# Elastic Compliance Matrix: (Units=1/GPa)
#
#
# Indices 1 2 3 4 5 6 
#
# 1 0.009040 0.000545 0.000867 0.000000 0.000000 0.000000
# 2 0.000545 0.012745 0.000800 0.000000 0.000000 0.000000
# 3 0.000867 0.000800 0.012694 0.000000 0.000000 0.000000
# 4 0.000000 0.000000 0.000000 1.700722 0.000000 0.000000
# 5 0.000000 0.000000 0.000000 0.000000 -0.003718 0.000000
# 6 0.000000 0.000000 0.000000 0.000000 0.000000 0.210160
#
#
# Mechanical properties :
#
#
# Convention : Reuss Voigt Hill
#
# Bulk Modulus (GPa) = 25.70401 26.37894 26.04147
# Shear Modulus (GPa) = 2.56386 -33.63314 -15.53464
#
# Velocity S-wave (km/s) = 1.02206 -3.70179 -2.51581
# Velocity P-wave (km/s) = 3.44462 2.74287 1.47345
#
# Compressibility (1/GPa) = 0.03890444
#
# Stress axis : x y z
#
# Youngs Moduli (GPa) = 110.62037 78.45942 78.77695
#
# Poissons Ratio (x) = -0.04277 -0.06832
# Poissons Ratio (y) = -0.06030 -0.06304
# Poissons Ratio (z) = -0.09593 -0.06278
#
# Static dielectric constant tensor:
#      x y z
#    x 2.034240 0.000000 0.000000 
#    y 0.000000 2.016420 0.000000 
#    z 0.000000 0.000000 1.985200 
# 
# From -- ./inp_files/71919.got.cif
#   From: 2010.05.17/outbox.cif.g08.bks.cpg/sg63_36_cif.got.tgz:71919.got - 2010.06.03 15:47:04.
