data_PCOD9470703
_publ_section_title
;
Structure prediction by ZEFSAII (Michael W. Deem and Ramdas Pophale) SiO2 
 PCOD9470703
Probable space group: C M C M
;
_chemical_formula_sum "Si O2"
_cell_formula_units_Z 104
_cell_length_a 21.194910
_cell_length_b 33.141311
_cell_length_c 8.090391
_cell_angle_alpha 90.000000
_cell_angle_beta 90.000000
_cell_angle_gamma 90.000000
_cell_volume 5682.909920
_symmetry_space_group_name_H-M "C M C M"
_symmetry_group_IT_number 63
_symmetry_cell_setting 'orthorhombic'
loop_
_space_group_symop_operation_xyz
x,y,z
-x,-y,1/2+z
x,-y,-z
-x,y,1/2-z
-x,-y,-z
x,y,1/2-z
-x,y,z
x,-y,1/2+z
1/2+x,1/2+y,z
1/2-x,1/2-y,1/2+z
1/2+x,1/2-y,-z
1/2-x,1/2+y,1/2-z
1/2-x,1/2-y,-z
1/2+x,1/2+y,1/2-z
1/2-x,1/2+y,z
1/2+x,1/2-y,1/2+z
loop_
_atom_site_type_symbol
_atom_site_label
_atom_site_fract_x
_atom_site_fract_y
_atom_site_fract_z
Si Si1 0.070327 0.322286 0.550662
Si Si2 0.071398 0.771188 0.048045
Si Si3 0.760707 0.544212 0.053987
Si Si4 0.678412 0.331743 0.054516
Si Si5 0.193531 0.630998 0.553657
Si Si6 0.500000 0.545981 0.448786
Si Si7 0.131533 0.081865 0.451445
O O1 0.070544 0.322690 0.750000
O O2 0.079749 0.275578 0.499878
O O3 0.126638 0.350270 0.491460
O O4 0.000000 0.334735 0.495264
O O5 0.071447 0.772875 0.250000
O O6 0.130085 0.798085 0.987086
O O7 0.000000 0.784052 0.996779
O O8 0.759941 0.543846 0.250000
O O9 0.688707 0.552544 0.995724
O O10 0.783147 0.500000 0.000000
O O11 0.797848 0.584662 0.002306
O O12 0.685021 0.323231 0.250000
O O13 0.748984 0.340643 0.985914
O O14 0.645056 0.374559 0.026067
O O15 0.200645 0.630689 0.750000
O O16 0.500000 0.500000 0.500000
O O17 0.500000 0.548559 0.250000
O O18 0.564042 0.566417 0.507836
O O19 0.132651 0.084631 0.250000
#
# Coordination Sequence:
#
# PCOD9470703 Si02
#       7
#    16  16  16  16  16   8  16
#     4   9  18  34  55  76  99 131 169 206 247 300
#     4   8  15  29  49  72  99 133 174 215 251 290
#     4  10  19  33  53  74  98 130 167 205 248 298
#     4   9  18  31  48  72  99 130 172 213 248 292
#     4  10  20  33  50  76 107 133 163 206 252 300
#     4  10  20  32  44  62  90 124 166 212 258 302
#     4   9  19  32  45  65  96 131 164 207 258 300
#
# _framework density 18.300483
#
# number of rings (size 3 to 8) (size 9 to 14) (size 15 to 20)
#    0.000    2.769    0.000    2.308    1.077    2.769 
#    0.000    0.769    0.000    1.385    0.000    0.000 
#    0.000    0.000    0.000    0.000    0.000    0.000 
#
# Total GULP energy -289759.062906 kJ/mol
# GULP energy per Si atom -5572.289671 kJ/mol
# Density = 1.825883 g / cm^3
# Si number density = 18.300483 Si / 1000 Ang^3
#
#
#
# Elastic Constant Matrix: (Units=GPa)
#
#
# Indices 1 2 3 4 5 6 
#
# 1 155.1699 94.7154 11.6080 0.0000 0.0000 0.0000
# 2 94.7154 102.4508 11.1771 0.0000 0.0000 0.0000
# 3 11.6080 11.1771 12.3950 0.0000 0.0000 0.0000
# 4 0.0000 0.0000 0.0000 19.4371 0.0000 0.0000
# 5 0.0000 0.0000 0.0000 0.0000 13.9893 0.0000
# 6 0.0000 0.0000 0.0000 0.0000 0.0000 10.9649
#
#
#
# Elastic Compliance Matrix: (Units=1/GPa)
#
#
# Indices 1 2 3 4 5 6 
#
# 1 0.014823 -0.013520 -0.001691 0.000000 0.000000 0.000000
# 2 -0.013520 0.023157 -0.008220 0.000000 0.000000 0.000000
# 3 -0.001691 -0.008220 0.089673 0.000000 0.000000 0.000000
# 4 0.000000 0.000000 0.000000 0.051448 0.000000 0.000000
# 5 0.000000 0.000000 0.000000 0.000000 0.071483 0.000000
# 6 0.000000 0.000000 0.000000 0.000000 0.000000 0.091200
#
#
# Mechanical properties :
#
#
# Convention : Reuss Voigt Hill
#
# Bulk Modulus (GPa) = 12.37742 56.11295 34.24519
# Shear Modulus (GPa) = 12.03149 19.04596 15.53872
#
# Velocity S-wave (km/s) = 2.56684 3.22954 2.91707
# Velocity P-wave (km/s) = 3.94500 6.68096 5.48626
#
# Compressibility (1/GPa) = 0.08079226
#
# Stress axis : x y z
#
# Youngs Moduli (GPa) = 67.46053 43.18441 11.15159
#
# Poissons Ratio (x) = 0.58384 0.01886
# Poissons Ratio (y) = 0.91205 0.09166
# Poissons Ratio (z) = 0.11407 0.35497
#
# Static dielectric constant tensor:
#      x y z
#    x 1.647470 0.000000 0.000000 
#    y 0.000000 1.627420 0.000000 
#    z 0.000000 0.000000 1.597580 
# 
# From -- ./inp_files/9130.got.cif
#   From: 2010.05.17/outbox.cif.g08.bks.cpg/sg63_5_cif.got.tgz:9130.got - 2010.06.03 15:47:04.
