data_PCOD9470536
_publ_section_title
;
Structure prediction by ZEFSAII (Michael W. Deem and Ramdas Pophale) SiO2 
 PCOD9470536
Probable space group: C M C M
;
_chemical_formula_sum "Si O2"
_cell_formula_units_Z 80
_cell_length_a 7.840650
_cell_length_b 29.441418
_cell_length_c 20.004500
_cell_angle_alpha 90.000000
_cell_angle_beta 90.000000
_cell_angle_gamma 90.000000
_cell_volume 4617.835860
_symmetry_space_group_name_H-M "C M C M"
_symmetry_group_IT_number 63
_symmetry_cell_setting 'orthorhombic'
loop_
_space_group_symop_operation_xyz
x,y,z
-x,-y,1/2+z
x,-y,-z
-x,y,1/2-z
-x,-y,-z
x,y,1/2-z
-x,y,z
x,-y,1/2+z
1/2+x,1/2+y,z
1/2-x,1/2-y,1/2+z
1/2+x,1/2-y,-z
1/2-x,1/2+y,1/2-z
1/2-x,1/2-y,-z
1/2+x,1/2+y,1/2-z
1/2-x,1/2+y,z
1/2+x,1/2-y,1/2+z
loop_
_atom_site_type_symbol
_atom_site_label
_atom_site_fract_x
_atom_site_fract_y
_atom_site_fract_z
Si Si1 0.000000 0.971354 0.068641
Si Si2 0.698476 0.112890 0.115388
Si Si3 0.206537 0.711141 0.079889
Si Si4 0.500000 0.447590 0.672132
Si Si5 0.189339 0.405590 0.044447
Si Si6 0.303417 0.308815 0.428639
O O1 0.165130 0.939235 0.068496
O O2 0.000000 0.006959 0.128404
O O3 0.000000 0.000000 0.000000
O O4 0.500000 0.105583 0.134136
O O5 0.740875 0.166482 0.123337
O O6 0.833405 0.081742 0.152510
O O7 0.711598 0.102607 0.035516
O O8 0.256958 0.761435 0.104195
O O9 0.000000 0.711954 0.069263
O O10 0.291801 0.702354 0.008000
O O11 0.500000 0.457570 0.750000
O O12 0.206118 0.356060 0.078641
O O13 0.000000 0.424026 0.055246
O O14 0.500000 0.316643 0.410449
#
# Coordination Sequence:
#
# PCOD9470536 Si02
#       6
#     8  16  16   8  16  16
#     4  12  22  38  58  78 104 146 186 236 283 329
#     4   9  18  34  53  77 111 146 176 217 268 327
#     4   8  15  24  40  70 108 146 172 198 250 314
#     4  12  26  40  56  80 106 142 190 232 276 330
#     4  10  19  32  53  81 112 140 178 223 281 333
#     4   9  14  23  41  71 113 144 166 206 258 313
#
# _framework density 17.324131999999999
#
# number of rings (size 3 to 8) (size 9 to 14) (size 15 to 20)
#    0.000    2.400    3.000    1.800    4.200    2.400 
#    0.000    0.000    0.000    0.000    0.000    1.400 
#    0.000    0.000    0.000    0.000    0.000    0.000 
#
# Total GULP energy -222856.675810 kJ/mol
# GULP energy per Si atom -5571.416895 kJ/mol
# Density = 1.728470 g / cm^3
# Si number density = 17.324132 Si / 1000 Ang^3
#
#
#
# Elastic Constant Matrix: (Units=GPa)
#
#
# Indices 1 2 3 4 5 6 
#
# 1 98.7251 74.6255 35.4106 0.0000 0.0000 0.0000
# 2 74.6255 142.5772 45.2121 0.0000 0.0000 0.0000
# 3 35.4106 45.2121 44.2953 0.0000 0.0000 0.0000
# 4 0.0000 0.0000 0.0000 7.9802 0.0000 0.0000
# 5 0.0000 0.0000 0.0000 0.0000 5.1568 0.0000
# 6 0.0000 0.0000 0.0000 0.0000 0.0000 22.4817
#
#
#
# Elastic Compliance Matrix: (Units=1/GPa)
#
#
# Indices 1 2 3 4 5 6 
#
# 1 0.018162 -0.007248 -0.007121 0.000000 0.000000 0.000000
# 2 -0.007248 0.013263 -0.007743 0.000000 0.000000 0.000000
# 3 -0.007121 -0.007743 0.036172 0.000000 0.000000 0.000000
# 4 0.000000 0.000000 0.000000 0.125310 0.000000 0.000000
# 5 0.000000 0.000000 0.000000 0.000000 0.193918 0.000000
# 6 0.000000 0.000000 0.000000 0.000000 0.000000 0.044481
#
#
# Mechanical properties :
#
#
# Convention : Reuss Voigt Hill
#
# Bulk Modulus (GPa) = 42.78569 66.23266 54.50918
# Shear Modulus (GPa) = 10.34511 15.81371 13.07941
#
# Velocity S-wave (km/s) = 2.44632 3.02456 2.75067
# Velocity P-wave (km/s) = 5.72102 7.10716 6.45143
#
# Compressibility (1/GPa) = 0.02337230
#
# Stress axis : x y z
#
# Youngs Moduli (GPa) = 55.06002 75.39947 27.64575
#
# Poissons Ratio (x) = 0.54649 0.19687
# Poissons Ratio (y) = 0.39907 0.21406
# Poissons Ratio (z) = 0.39209 0.58382
#
# Static dielectric constant tensor:
#      x y z
#    x 1.291590 0.000000 0.000000 
#    y 0.000000 1.637060 0.000000 
#    z 0.000000 0.000000 1.538600 
# 
# From -- ./inp_files/40614.got.cif
#   From: 2010.05.17/outbox.cif.g08.bks.cpg/sg63_21_cif.got.tgz:40614.got - 2010.06.03 15:47:04.
