data_PCOD9470417
_publ_section_title
;
Structure prediction by ZEFSAII (Michael W. Deem and Ramdas Pophale) SiO2 
 PCOD9470417
Probable space group: C M C M
;
_chemical_formula_sum "Si O2"
_cell_formula_units_Z 96
_cell_length_a 15.004234
_cell_length_b 20.885440
_cell_length_c 14.349297
_cell_angle_alpha 90.000000
_cell_angle_beta 90.000000
_cell_angle_gamma 90.000000
_cell_volume 4496.639616
_symmetry_space_group_name_H-M "C M C M"
_symmetry_group_IT_number 63
_symmetry_cell_setting 'orthorhombic'
loop_
_space_group_symop_operation_xyz
x,y,z
-x,-y,1/2+z
x,-y,-z
-x,y,1/2-z
-x,-y,-z
x,y,1/2-z
-x,y,z
x,-y,1/2+z
1/2+x,1/2+y,z
1/2-x,1/2-y,1/2+z
1/2+x,1/2-y,-z
1/2-x,1/2+y,1/2-z
1/2-x,1/2-y,-z
1/2+x,1/2+y,1/2-z
1/2-x,1/2+y,z
1/2+x,1/2-y,1/2+z
loop_
_atom_site_type_symbol
_atom_site_label
_atom_site_fract_x
_atom_site_fract_y
_atom_site_fract_z
Si Si1 0.768924 0.300314 0.358509
Si Si2 0.095953 0.840410 0.047450
Si Si3 0.713109 0.961048 0.646065
Si Si4 0.602860 0.082131 0.636203
Si Si5 0.096857 0.981586 0.391360
Si Si6 0.322326 0.653326 0.141305
O O1 0.745479 0.313763 0.250000
O O2 0.681285 0.301176 0.421501
O O3 0.838252 0.355631 0.388768
O O4 0.808041 0.229190 0.361145
O O5 0.099941 0.904827 0.108835
O O6 0.000000 0.809052 0.061247
O O7 0.106066 0.860002 0.938956
O O8 0.677204 0.951187 0.750000
O O9 0.736340 0.889700 0.610806
O O10 0.651303 0.016546 0.603636
O O11 0.812518 0.991238 0.649511
O O12 0.602618 0.081048 0.750000
O O13 0.500000 0.086053 0.605499
O O14 0.000000 0.002242 0.354491
O O15 0.099288 0.000000 0.500000
O O16 0.342758 0.637195 0.250000
#
# Coordination Sequence:
#
# PCOD9470417 Si02
#       6
#    16  16  16  16  16  16
#     4  10  21  39  60  85 116 153 196 244 297 351
#     4  11  22  36  59  87 117 154 192 237 291 351
#     4  10  19  34  56  82 112 150 193 239 290 346
#     4   9  18  34  57  83 111 149 197 246 293 343
#     4  10  19  32  51  78 112 148 182 223 281 339
#     4  10  22  38  58  83 116 158 198 239 293 350
#
# _framework density 21.349276
#
# number of rings (size 3 to 8) (size 9 to 14) (size 15 to 20)
#    0.000    2.000    3.333    0.500    0.000    1.667 
#    0.000    5.833    0.000    7.500    0.000    0.000 
#    0.000    0.000    0.000    0.000    0.000    0.000 
#
# Total GULP energy -267545.047830 kJ/mol
# GULP energy per Si atom -5573.855163 kJ/mol
# Density = 2.130068 g / cm^3
# Si number density = 21.349276 Si / 1000 Ang^3
#
#
#
# Elastic Constant Matrix: (Units=GPa)
#
#
# Indices 1 2 3 4 5 6 
#
# 1 100.5345 2.7008 23.7164 0.0000 0.0000 0.0000
# 2 2.7008 38.7148 5.6163 0.0000 0.0000 0.0000
# 3 23.7164 5.6163 70.7584 0.0000 0.0000 0.0000
# 4 0.0000 0.0000 0.0000 13.2460 0.0000 0.0000
# 5 0.0000 0.0000 0.0000 0.0000 13.9818 0.0000
# 6 0.0000 0.0000 0.0000 0.0000 0.0000 8.4156
#
#
#
# Elastic Compliance Matrix: (Units=1/GPa)
#
#
# Indices 1 2 3 4 5 6 
#
# 1 0.010803 -0.000231 -0.003603 0.000000 0.000000 0.000000
# 2 -0.000231 0.026136 -0.001997 0.000000 0.000000 0.000000
# 3 -0.003603 -0.001997 0.015499 0.000000 0.000000 0.000000
# 4 0.000000 0.000000 0.000000 0.075494 0.000000 0.000000
# 5 0.000000 0.000000 0.000000 0.000000 0.071521 0.000000
# 6 0.000000 0.000000 0.000000 0.000000 0.000000 0.118826
#
#
# Mechanical properties :
#
#
# Convention : Reuss Voigt Hill
#
# Bulk Modulus (GPa) = 24.52417 30.45274 27.48845
# Shear Modulus (GPa) = 14.55468 18.99366 16.77417
#
# Velocity S-wave (km/s) = 2.61385 2.98596 2.80608
# Velocity P-wave (km/s) = 4.54111 5.11693 4.83759
#
# Compressibility (1/GPa) = 0.04077610
#
# Stress axis : x y z
#
# Youngs Moduli (GPa) = 92.56790 38.26175 64.52206
#
# Poissons Ratio (x) = 0.00884 0.23244
# Poissons Ratio (y) = 0.02138 0.12885
# Poissons Ratio (z) = 0.33348 0.07641
#
# Static dielectric constant tensor:
#      x y z
#    x 1.759820 0.000000 0.000000 
#    y 0.000000 1.804190 0.000000 
#    z 0.000000 0.000000 1.809350 
# 
# From -- ./inp_files/31866.got.cif
#   From: 2010.05.17/outbox.cif.g08.bks.cpg/sg63_16_cif.got.tgz:31866.got - 2010.06.03 15:47:04.
