data_PCOD9470346
_publ_section_title
;
Structure prediction by ZEFSAII (Michael W. Deem and Ramdas Pophale) SiO2 
 PCOD9470346
Probable space group: C M C M
;
_chemical_formula_sum "Si O2"
_cell_formula_units_Z 80
_cell_length_a 28.059060
_cell_length_b 18.539946
_cell_length_c 8.569421
_cell_angle_alpha 90.000000
_cell_angle_beta 90.000000
_cell_angle_gamma 90.000000
_cell_volume 4457.928125
_symmetry_space_group_name_H-M "C M C M"
_symmetry_group_IT_number 63
_symmetry_cell_setting 'orthorhombic'
loop_
_space_group_symop_operation_xyz
x,y,z
-x,-y,1/2+z
x,-y,-z
-x,y,1/2-z
-x,-y,-z
x,y,1/2-z
-x,y,z
x,-y,1/2+z
1/2+x,1/2+y,z
1/2-x,1/2-y,1/2+z
1/2+x,1/2-y,-z
1/2-x,1/2+y,1/2-z
1/2-x,1/2-y,-z
1/2+x,1/2+y,1/2-z
1/2-x,1/2+y,z
1/2+x,1/2-y,1/2+z
loop_
_atom_site_type_symbol
_atom_site_label
_atom_site_fract_x
_atom_site_fract_y
_atom_site_fract_z
Si Si1 0.188979 0.865532 0.560758
Si Si2 0.913608 0.923036 0.937306
Si Si3 0.849890 0.288293 0.436819
Si Si4 0.946940 0.772011 0.063283
Si Si5 0.208504 0.421210 0.563114
O O1 0.190127 0.865294 0.750000
O O2 0.141920 0.910217 0.515611
O O3 0.179993 0.782808 0.511020
O O4 0.238558 0.898372 0.504744
O O5 0.916690 0.920963 0.750000
O O6 0.940884 0.854483 0.006511
O O7 0.930054 0.000000 0.000000
O O8 0.847449 0.291921 0.250000
O O9 0.904022 0.272645 0.487444
O O10 0.827830 0.359856 0.508630
O O11 0.941975 0.769938 0.250000
O O12 0.000000 0.746567 0.021003
O O13 0.196434 0.500000 0.500000
O O14 0.209558 0.423244 0.750000
#
# Coordination Sequence:
#
# PCOD9470346 Si02
#       5
#    16  16  16  16  16
#     4   8  17  32  51  76 106 141 178 213 250 299
#     4  10  19  32  50  75 108 143 179 217 258 303
#     4  10  20  36  56  79 106 136 173 215 260 309
#     4  10  21  37  56  77 100 131 173 218 265 315
#     4  11  21  34  52  77 109 142 176 213 256 303
#
# _framework density 17.945556
#
# number of rings (size 3 to 8) (size 9 to 14) (size 15 to 20)
#    0.000    2.200    0.000    4.800    0.000    2.000 
#    0.000   10.000    0.000    0.600    0.000    0.000 
#    0.000    0.000    0.000    0.000    0.000    0.000 
#
# Total GULP energy -223345.588585 kJ/mol
# GULP energy per Si atom -5583.639715 kJ/mol
# Density = 1.790471 g / cm^3
# Si number density = 17.945556 Si / 1000 Ang^3
#
#
#
# Elastic Constant Matrix: (Units=GPa)
#
#
# Indices 1 2 3 4 5 6 
#
# 1 56.0627 18.9300 9.1435 0.0000 0.0000 0.0000
# 2 18.9300 77.4261 15.2344 0.0000 0.0000 0.0000
# 3 9.1435 15.2344 44.4020 0.0000 0.0000 0.0000
# 4 0.0000 0.0000 0.0000 24.8049 0.0000 0.0000
# 5 0.0000 0.0000 0.0000 0.0000 22.5523 0.0000
# 6 0.0000 0.0000 0.0000 0.0000 0.0000 0.5110
#
#
#
# Elastic Compliance Matrix: (Units=1/GPa)
#
#
# Indices 1 2 3 4 5 6 
#
# 1 0.019714 -0.004312 -0.002580 0.000000 0.000000 0.000000
# 2 -0.004312 0.014794 -0.004188 0.000000 0.000000 0.000000
# 3 -0.002580 -0.004188 0.024490 0.000000 0.000000 0.000000
# 4 0.000000 0.000000 0.000000 0.040315 0.000000 0.000000
# 5 0.000000 0.000000 0.000000 0.000000 0.044341 0.000000
# 6 0.000000 0.000000 0.000000 0.000000 0.000000 1.957090
#
#
# Mechanical properties :
#
#
# Convention : Reuss Voigt Hill
#
# Bulk Modulus (GPa) = 27.14641 29.38962 28.26802
# Shear Modulus (GPa) = 2.34172 18.54583 10.44378
#
# Velocity S-wave (km/s) = 1.14356 3.21822 2.41502
# Velocity P-wave (km/s) = 4.11140 5.49744 4.85415
#
# Compressibility (1/GPa) = 0.03683729
#
# Stress axis : x y z
#
# Youngs Moduli (GPa) = 50.72534 67.59571 40.83359
#
# Poissons Ratio (x) = 0.29149 0.10535
# Poissons Ratio (y) = 0.21874 0.17100
# Poissons Ratio (z) = 0.13087 0.28308
#
# Static dielectric constant tensor:
#      x y z
#    x 1.623770 0.000000 0.000000 
#    y 0.000000 1.584470 0.000000 
#    z 0.000000 0.000000 1.598030 
# 
# From -- ./inp_files/11992.got.cif
#   From: 2010.05.17/outbox.cif.g08.bks.cpg/sg63_6_cif.got.tgz:11992.got - 2010.06.03 15:47:04.
