data_PCOD9470845
_publ_section_title
;
Structure prediction by ZEFSAII (Michael W. Deem and Ramdas Pophale) SiO2 
 PCOD9470845
Probable space group: C M C M
;
_chemical_formula_sum "Si O2"
_cell_formula_units_Z 80
_cell_length_a 8.835123
_cell_length_b 18.602882
_cell_length_c 26.750802
_cell_angle_alpha 90.000000
_cell_angle_beta 90.000000
_cell_angle_gamma 90.000000
_cell_volume 4396.728395
_symmetry_space_group_name_H-M "C M C M"
_symmetry_group_IT_number 63
_symmetry_cell_setting 'orthorhombic'
loop_
_space_group_symop_operation_xyz
x,y,z
-x,-y,1/2+z
x,-y,-z
-x,y,1/2-z
-x,-y,-z
x,y,1/2-z
-x,y,z
x,-y,1/2+z
1/2+x,1/2+y,z
1/2-x,1/2-y,1/2+z
1/2+x,1/2-y,-z
1/2-x,1/2+y,1/2-z
1/2-x,1/2-y,-z
1/2+x,1/2+y,1/2-z
1/2-x,1/2+y,z
1/2+x,1/2-y,1/2+z
loop_
_atom_site_type_symbol
_atom_site_label
_atom_site_fract_x
_atom_site_fract_y
_atom_site_fract_z
Si Si1 0.325997 0.460884 0.250000
Si Si2 0.184422 0.456626 0.548783
Si Si3 0.182298 0.710481 0.048279
Si Si4 0.681715 0.042317 0.853751
Si Si5 0.324251 0.286101 0.250000
Si Si6 0.181532 0.711640 0.644583
O O1 0.500000 0.482436 0.250000
O O2 0.247087 0.484045 0.198862
O O3 0.318139 0.373485 0.250000
O O4 0.236038 0.500000 0.500000
O O5 0.226941 0.373386 0.546845
O O6 0.235564 0.496012 0.599252
O O7 0.000000 0.459149 0.548879
O O8 0.244519 0.746127 0.098844
O O9 0.000000 0.715098 0.047182
O O10 0.250000 0.750000 0.000000
O O11 0.500000 0.038388 0.851271
O O12 0.720218 0.126632 0.860762
O O13 0.500000 0.264573 0.250000
O O14 0.243369 0.263529 0.301364
O O15 0.000000 0.718143 0.643170
#
# Coordination Sequence:
#
# PCOD9470845 Si02
#       6
#     8  16  16  16   8  16
#     4   9  17  29  48  77 110 137 165 209 260 303
#     4   9  18  34  55  77 100 131 173 215 254 304
#     4  11  22  36  55  78 105 137 174 217 264 313
#     4   9  17  32  55  78 101 135 177 213 247 299
#     4   9  17  31  52  79 110 141 175 213 254 305
#     4  10  19  33  55  81 108 138 174 216 260 307
#
# _framework density 18.195346000000001
#
# number of rings (size 3 to 8) (size 9 to 14) (size 15 to 20)
#    0.000    2.400    0.000    3.000    0.000    6.400 
#    0.000    3.000    0.000    6.600    0.000    0.000 
#    0.000    0.000    0.000    0.000    0.000    0.000 
#
# Total GULP energy -223208.726814 kJ/mol
# GULP energy per Si atom -5580.218170 kJ/mol
# Density = 1.815393 g / cm^3
# Si number density = 18.195346 Si / 1000 Ang^3
#
#
#
# Elastic Constant Matrix: (Units=GPa)
#
#
# Indices 1 2 3 4 5 6 
#
# 1 46.8876 44.6751 59.6441 0.0000 0.0000 0.0000
# 2 44.6751 103.0806 103.8576 0.0000 0.0000 0.0000
# 3 59.6441 103.8576 229.9126 0.0000 0.0000 0.0000
# 4 0.0000 0.0000 0.0000 33.2396 0.0000 0.0000
# 5 0.0000 0.0000 0.0000 0.0000 25.3804 0.0000
# 6 0.0000 0.0000 0.0000 0.0000 0.0000 19.4949
#
#
#
# Elastic Compliance Matrix: (Units=1/GPa)
#
#
# Indices 1 2 3 4 5 6 
#
# 1 0.038735 -0.012229 -0.004524 0.000000 0.000000 0.000000
# 2 -0.012229 0.021666 -0.006614 0.000000 0.000000 0.000000
# 3 -0.004524 -0.006614 0.008511 0.000000 0.000000 0.000000
# 4 0.000000 0.000000 0.000000 0.030085 0.000000 0.000000
# 5 0.000000 0.000000 0.000000 0.000000 0.039400 0.000000
# 6 0.000000 0.000000 0.000000 0.000000 0.000000 0.051295
#
#
# Mechanical properties :
#
#
# Convention : Reuss Voigt Hill
#
# Bulk Modulus (GPa) = 45.09451 88.47049 66.78250
# Shear Modulus (GPa) = 20.50691 27.06993 23.78842
#
# Velocity S-wave (km/s) = 3.36079 3.86131 3.61971
# Velocity P-wave (km/s) = 6.31642 8.28298 7.36563
#
# Compressibility (1/GPa) = 0.02217565
#
# Stress axis : x y z
#
# Youngs Moduli (GPa) = 25.81633 46.15618 117.49381
#
# Poissons Ratio (x) = 0.56446 0.53159
# Poissons Ratio (y) = 0.31572 0.77715
# Poissons Ratio (z) = 0.11680 0.30529
#
# Static dielectric constant tensor:
#      x y z
#    x 1.613530 0.000000 0.000000 
#    y 0.000000 1.613580 0.000000 
#    z 0.000000 0.000000 1.603640 
# 
# From -- ./inp_files/66668.got.cif
#   From: 2010.05.17/outbox.cif.g08.bks.cpg/sg63_34_cif.got.tgz:66668.got - 2010.06.03 15:47:04.
