data_PCOD9470470
_publ_section_title
;
Structure prediction by ZEFSAII (Michael W. Deem and Ramdas Pophale) SiO2 
 PCOD9470470
Probable space group: C M C M
;
_chemical_formula_sum "Si O2"
_cell_formula_units_Z 96
_cell_length_a 30.831962
_cell_length_b 20.170279
_cell_length_c 8.744646
_cell_angle_alpha 90.000000
_cell_angle_beta 90.000000
_cell_angle_gamma 90.000000
_cell_volume 5438.201567
_symmetry_space_group_name_H-M "C M C M"
_symmetry_group_IT_number 63
_symmetry_cell_setting 'orthorhombic'
loop_
_space_group_symop_operation_xyz
x,y,z
-x,-y,1/2+z
x,-y,-z
-x,y,1/2-z
-x,-y,-z
x,y,1/2-z
-x,y,z
x,-y,1/2+z
1/2+x,1/2+y,z
1/2-x,1/2-y,1/2+z
1/2+x,1/2-y,-z
1/2-x,1/2+y,1/2-z
1/2-x,1/2-y,-z
1/2+x,1/2+y,1/2-z
1/2-x,1/2+y,z
1/2+x,1/2-y,1/2+z
loop_
_atom_site_type_symbol
_atom_site_label
_atom_site_fract_x
_atom_site_fract_y
_atom_site_fract_z
Si Si1 0.450731 0.292257 0.566263
Si Si2 0.234261 0.070613 0.433100
Si Si3 0.552857 0.568470 0.574475
Si Si4 0.331255 0.931475 0.067023
Si Si5 0.369628 0.209317 0.933970
Si Si6 0.209480 0.208532 0.932434
O O1 0.452380 0.293906 0.750000
O O2 0.500000 0.281973 0.509425
O O3 0.434665 0.364173 0.510484
O O4 0.416838 0.235913 0.520917
O O5 0.232953 0.069384 0.250000
O O6 0.284101 0.078228 0.490218
O O7 0.209916 0.134748 0.497913
O O8 0.218807 0.000000 0.500000
O O9 0.568300 0.500000 0.500000
O O10 0.566310 0.571549 0.750000
O O11 0.500000 0.566719 0.569378
O O12 0.325220 0.936959 0.250000
O O13 0.360397 0.867591 0.034051
O O14 0.349165 0.000000 0.000000
O O15 0.364520 0.218385 0.750000
O O16 0.333514 0.252770 0.018072
O O17 0.213808 0.205119 0.750000
O O18 0.250000 0.250000 0.000000
#
# Coordination Sequence:
#
# PCOD9470470 Si02
#       6
#    16  16  16  16  16  16
#     4   9  18  34  55  78 105 139 180 226 274 322
#     4  11  21  35  55  79 110 147 184 223 267 320
#     4   9  16  27  46  72 100 131 169 214 262 313
#     4  10  19  32  52  77 107 139 179 224 267 318
#     4  10  21  36  55  80 109 142 181 225 272 325
#     4  12  23  36  55  80 110 144 180 221 269 323
#
# _framework density 17.652895999999998
#
# number of rings (size 3 to 8) (size 9 to 14) (size 15 to 20)
#    0.000    1.833    1.667    5.000    0.000    3.333 
#    0.000    0.833    0.000    4.500    0.000    0.000 
#    0.000    0.000    0.000    0.000    0.000    0.667 
#
# Total GULP energy -267963.096884 kJ/mol
# GULP energy per Si atom -5582.564518 kJ/mol
# Density = 1.761272 g / cm^3
# Si number density = 17.652896 Si / 1000 Ang^3
#
#
#
# Elastic Constant Matrix: (Units=GPa)
#
#
# Indices 1 2 3 4 5 6 
#
# 1 57.3673 57.3054 35.2558 0.0000 0.0000 0.0000
# 2 57.3054 171.5815 67.1564 0.0000 0.0000 0.0000
# 3 35.2558 67.1564 90.0438 0.0000 0.0000 0.0000
# 4 0.0000 0.0000 0.0000 30.4524 0.0000 0.0000
# 5 0.0000 0.0000 0.0000 0.0000 15.1152 0.0000
# 6 0.0000 0.0000 0.0000 0.0000 0.0000 24.3443
#
#
#
# Elastic Compliance Matrix: (Units=1/GPa)
#
#
# Indices 1 2 3 4 5 6 
#
# 1 0.028052 -0.007160 -0.005643 0.000000 0.000000 0.000000
# 2 -0.007160 0.010058 -0.004698 0.000000 0.000000 0.000000
# 3 -0.005643 -0.004698 0.016819 0.000000 0.000000 0.000000
# 4 0.000000 0.000000 0.000000 0.032838 0.000000 0.000000
# 5 0.000000 0.000000 0.000000 0.000000 0.066159 0.000000
# 6 0.000000 0.000000 0.000000 0.000000 0.000000 0.041077
#
#
# Mechanical properties :
#
#
# Convention : Reuss Voigt Hill
#
# Bulk Modulus (GPa) = 50.18481 70.93644 60.56063
# Shear Modulus (GPa) = 21.12828 24.60071 22.86450
#
# Velocity S-wave (km/s) = 3.46334 3.73712 3.60283
# Velocity P-wave (km/s) = 6.66958 7.67416 7.18944
#
# Compressibility (1/GPa) = 0.01992635
#
# Stress axis : x y z
#
# Youngs Moduli (GPa) = 35.64784 99.41950 59.45535
#
# Poissons Ratio (x) = 0.71186 0.33553
# Poissons Ratio (y) = 0.25524 0.27934
# Poissons Ratio (z) = 0.20117 0.46710
#
# Static dielectric constant tensor:
#      x y z
#    x 1.602140 0.000000 0.000000 
#    y 0.000000 1.604770 0.000000 
#    z 0.000000 0.000000 1.594530 
# 
# From -- ./inp_files/12381.got.cif
#   From: 2010.05.17/outbox.cif.g08.bks.cpg/sg63_7_cif.got.tgz:12381.got - 2010.06.03 15:47:04.
