data_PCOD9470238
_publ_section_title
;
Structure prediction by ZEFSAII (Michael W. Deem and Ramdas Pophale) SiO2 
 PCOD9470238
Probable space group: C M C M
;
_chemical_formula_sum "Si O2"
_cell_formula_units_Z 64
_cell_length_a 29.073198
_cell_length_b 5.088479
_cell_length_c 21.365104
_cell_angle_alpha 90.000000
_cell_angle_beta 90.000000
_cell_angle_gamma 90.000000
_cell_volume 3160.718393
_symmetry_space_group_name_H-M "C M C M"
_symmetry_group_IT_number 63
_symmetry_cell_setting 'orthorhombic'
loop_
_space_group_symop_operation_xyz
x,y,z
-x,-y,1/2+z
x,-y,-z
-x,y,1/2-z
-x,-y,-z
x,y,1/2-z
-x,y,z
x,-y,1/2+z
1/2+x,1/2+y,z
1/2-x,1/2-y,1/2+z
1/2+x,1/2-y,-z
1/2-x,1/2+y,1/2-z
1/2-x,1/2-y,-z
1/2+x,1/2+y,1/2-z
1/2-x,1/2+y,z
1/2+x,1/2-y,1/2+z
loop_
_atom_site_type_symbol
_atom_site_label
_atom_site_fract_x
_atom_site_fract_y
_atom_site_fract_z
Si Si1 0.719556 0.591983 0.176479
Si Si2 0.624823 0.414263 0.136509
Si Si3 0.420095 0.928772 0.318164
Si Si4 0.050290 0.313646 0.559473
O O1 0.705142 0.570212 0.250000
O O2 0.740184 0.879528 0.166545
O O3 0.676347 0.517569 0.133539
O O4 0.596924 0.633308 0.174857
O O5 0.594326 0.369545 0.073809
O O6 0.622136 0.134835 0.172216
O O7 0.440751 0.972038 0.250000
O O8 0.450043 0.007731 0.377786
O O9 0.056657 0.500000 0.500000
O O10 0.000000 0.817564 0.444523
#
# Coordination Sequence:
#
# PCOD9470238 Si02
#       4
#    16  16  16  16
#     4  10  19  31  53  84 117 151 188 233 289 349
#     4  10  21  36  60  85 121 153 192 240 295 343
#     4  10  20  35  58  87 119 152 190 239 294 342
#     4   9  22  42  62  86 118 159 204 242 287 353
#
# _framework density 20.248560999999999
#
# number of rings (size 3 to 8) (size 9 to 14) (size 15 to 20)
#    1.500    0.750    0.000    3.750    0.000    4.500 
#    0.000    2.500    0.000    1.500    0.000    0.000 
#    0.000    0.000    0.000    0.000    0.000    0.000 
#
# Total GULP energy -178157.221306 kJ/mol
# GULP energy per Si atom -5567.413166 kJ/mol
# Density = 2.020247 g / cm^3
# Si number density = 20.248561 Si / 1000 Ang^3
#
#
#
# Elastic Constant Matrix: (Units=GPa)
#
#
# Indices 1 2 3 4 5 6 
#
# 1 82.3229 -14.2803 24.2327 0.0000 0.0000 0.0000
# 2 -14.2803 48.1643 9.2589 0.0000 0.0000 0.0000
# 3 24.2327 9.2589 109.2855 0.0000 0.0000 0.0000
# 4 0.0000 0.0000 0.0000 19.6746 0.0000 0.0000
# 5 0.0000 0.0000 0.0000 0.0000 13.8817 0.0000
# 6 0.0000 0.0000 0.0000 0.0000 0.0000 -35.3939
#
#
#
# Elastic Compliance Matrix: (Units=1/GPa)
#
#
# Indices 1 2 3 4 5 6 
#
# 1 0.014022 0.004834 -0.003519 0.000000 0.000000 0.000000
# 2 0.004834 0.022772 -0.003001 0.000000 0.000000 0.000000
# 3 -0.003519 -0.003001 0.010185 0.000000 0.000000 0.000000
# 4 0.000000 0.000000 0.000000 0.050827 0.000000 0.000000
# 5 0.000000 0.000000 0.000000 0.000000 0.072037 0.000000
# 6 0.000000 0.000000 0.000000 0.000000 0.000000 -0.028253
#
#
# Mechanical properties :
#
#
# Convention : Reuss Voigt Hill
#
# Bulk Modulus (GPa) = 22.93237 30.91061 26.92149
# Shear Modulus (GPa) = 31.34850 14.33657 22.84253
#
# Velocity S-wave (km/s) = 3.93897 2.66377 3.36237
# Velocity P-wave (km/s) = 5.66015 4.97590 5.32902
#
# Compressibility (1/GPa) = 0.04360649
#
# Stress axis : x y z
#
# Youngs Moduli (GPa) = 71.31899 43.91295 98.18536
#
# Poissons Ratio (x) = -0.21226 0.34548
# Poissons Ratio (y) = -0.34473 0.29467
# Poissons Ratio (z) = 0.25094 0.13179
#
# Static dielectric constant tensor:
#      x y z
#    x 1.735920 0.000000 0.000000 
#    y 0.000000 1.724190 0.000000 
#    z 0.000000 0.000000 1.719160 
# 
# From -- ./inp_files/49318.got.cif
#   From: 2010.05.17/outbox.cif.g08.bks.cpg/sg63_25_cif.got.tgz:49318.got - 2010.06.03 15:47:04.
