data_PCOD9470517
_publ_section_title
;
Structure prediction by ZEFSAII (Michael W. Deem and Ramdas Pophale) SiO2 
 PCOD9470517
Probable space group: C M C M
;
_chemical_formula_sum "Si O2"
_cell_formula_units_Z 64
_cell_length_a 8.241355
_cell_length_b 14.308854
_cell_length_c 23.709344
_cell_angle_alpha 90.000000
_cell_angle_beta 90.000000
_cell_angle_gamma 90.000000
_cell_volume 2795.908872
_symmetry_space_group_name_H-M "C M C M"
_symmetry_group_IT_number 63
_symmetry_cell_setting 'orthorhombic'
loop_
_space_group_symop_operation_xyz
x,y,z
-x,-y,1/2+z
x,-y,-z
-x,y,1/2-z
-x,-y,-z
x,y,1/2-z
-x,y,z
x,-y,1/2+z
1/2+x,1/2+y,z
1/2-x,1/2-y,1/2+z
1/2+x,1/2-y,-z
1/2-x,1/2+y,1/2-z
1/2-x,1/2-y,-z
1/2+x,1/2+y,1/2-z
1/2-x,1/2+y,z
1/2+x,1/2-y,1/2+z
loop_
_atom_site_type_symbol
_atom_site_label
_atom_site_fract_x
_atom_site_fract_y
_atom_site_fract_z
Si Si1 0.825622 0.363899 0.626481
Si Si2 0.316696 0.388826 0.507556
Si Si3 0.816540 0.852755 0.120238
Si Si4 0.500000 0.863819 0.315756
Si Si5 0.500000 0.634603 0.315439
O O1 0.800714 0.369190 0.559224
O O2 0.830101 0.253910 0.640768
O O3 0.663060 0.401476 0.654922
O O4 0.000000 0.404534 0.642788
O O5 0.322338 0.500000 0.500000
O O6 0.500000 0.355529 0.521778
O O7 0.272450 0.350217 0.446198
O O8 0.665693 0.895630 0.153665
O O9 0.000000 0.893627 0.124411
O O10 0.500000 0.888369 0.250000
O O11 0.500000 0.748881 0.319767
O O12 0.500000 0.610144 0.250000
#
# Coordination Sequence:
#
# PCOD9470517 Si02
#       5
#    16  16  16   8   8
#     4  10  19  32  53  79 105 135 169 212 260 305
#     4  10  20  34  52  77 106 142 171 209 260 311
#     4   9  19  33  51  78 106 134 169 212 257 306
#     4   9  18  32  53  78 102 134 171 210 258 303
#     4   9  18  34  53  76 106 134 169 214 254 303
#
# _framework density 22.890588999999999
#
# number of rings (size 3 to 8) (size 9 to 14) (size 15 to 20)
#    0.000    2.500    1.250    0.750    1.750    1.500 
#    0.000    5.000    0.000    1.500    0.000    0.000 
#    0.000    0.000    0.000    0.000    0.000    0.000 
#
# Total GULP energy -178730.867381 kJ/mol
# GULP energy per Si atom -5585.339606 kJ/mol
# Density = 2.283849 g / cm^3
# Si number density = 22.890589 Si / 1000 Ang^3
#
#
#
# Elastic Constant Matrix: (Units=GPa)
#
#
# Indices 1 2 3 4 5 6 
#
# 1 229.2749 16.5380 115.1146 0.0000 0.0000 0.0000
# 2 16.5380 49.6319 -11.2666 0.0000 0.0000 0.0000
# 3 115.1146 -11.2666 109.8521 0.0000 0.0000 0.0000
# 4 0.0000 0.0000 0.0000 -135.8989 0.0000 0.0000
# 5 0.0000 0.0000 0.0000 0.0000 29.3422 0.0000
# 6 0.0000 0.0000 0.0000 0.0000 0.0000 17.7164
#
#
#
# Elastic Compliance Matrix: (Units=1/GPa)
#
#
# Indices 1 2 3 4 5 6 
#
# 1 0.010861 -0.006350 -0.012033 0.000000 0.000000 0.000000
# 2 -0.006350 0.024342 0.009151 0.000000 0.000000 0.000000
# 3 -0.012033 0.009151 0.022651 0.000000 0.000000 0.000000
# 4 0.000000 0.000000 0.000000 -0.007358 0.000000 0.000000
# 5 0.000000 0.000000 0.000000 0.000000 0.034081 0.000000
# 6 0.000000 0.000000 0.000000 0.000000 0.000000 0.056445
#
#
# Mechanical properties :
#
#
# Convention : Reuss Voigt Hill
#
# Bulk Modulus (GPa) = 25.38736 69.94788 47.66762
# Shear Modulus (GPa) = 28.96634 0.12346 14.54490
#
# Velocity S-wave (km/s) = 3.56114 0.23249 2.52347
# Velocity P-wave (km/s) = 5.29375 5.54039 5.41847
#
# Compressibility (1/GPa) = 0.03938969
#
# Stress axis : x y z
#
# Youngs Moduli (GPa) = 92.07274 41.08177 44.14874
#
# Poissons Ratio (x) = 0.26089 0.53122
# Poissons Ratio (y) = 0.58470 -0.40401
# Poissons Ratio (z) = 1.10787 -0.37595
#
# Static dielectric constant tensor:
#      x y z
#    x 1.877310 0.000000 0.000000 
#    y 0.000000 1.885360 0.000000 
#    z 0.000000 0.000000 1.786440 
# 
# From -- ./inp_files/50347.got.cif
#   From: 2010.05.17/outbox.cif.g08.bks.cpg/sg63_26_cif.got.tgz:50347.got - 2010.06.03 15:47:04.
