data_PCOD9470788
_publ_section_title
;
Structure prediction by ZEFSAII (Michael W. Deem and Ramdas Pophale) SiO2 
 PCOD9470788
Probable space group: C M C M
;
_chemical_formula_sum "Si O2"
_cell_formula_units_Z 96
_cell_length_a 7.366573
_cell_length_b 20.360697
_cell_length_c 29.037046
_cell_angle_alpha 90.000000
_cell_angle_beta 90.000000
_cell_angle_gamma 90.000000
_cell_volume 4355.224739
_symmetry_space_group_name_H-M "C M C M"
_symmetry_group_IT_number 63
_symmetry_cell_setting 'orthorhombic'
loop_
_space_group_symop_operation_xyz
x,y,z
-x,-y,1/2+z
x,-y,-z
-x,y,1/2-z
-x,-y,-z
x,y,1/2-z
-x,y,z
x,-y,1/2+z
1/2+x,1/2+y,z
1/2-x,1/2-y,1/2+z
1/2+x,1/2-y,-z
1/2-x,1/2+y,1/2-z
1/2-x,1/2-y,-z
1/2+x,1/2+y,1/2-z
1/2-x,1/2+y,z
1/2+x,1/2-y,1/2+z
loop_
_atom_site_type_symbol
_atom_site_label
_atom_site_fract_x
_atom_site_fract_y
_atom_site_fract_z
Si Si1 0.216706 0.702120 0.043041
Si Si2 0.721763 0.950409 0.959759
Si Si3 0.779185 0.643367 0.198175
Si Si4 0.718667 0.982187 0.642276
Si Si5 0.278980 0.733605 0.638320
Si Si6 0.713341 0.613635 0.802543
O O1 0.281289 0.626376 0.036959
O O2 0.285249 0.739147 0.089027
O O3 0.000000 0.695794 0.048668
O O4 0.250000 0.750000 0.000000
O O5 0.500000 0.949172 0.960929
O O6 0.778425 0.980746 0.910640
O O7 0.780343 0.000000 0.000000
O O8 0.715670 0.635667 0.250000
O O9 0.717773 0.584551 0.166009
O O10 0.729982 0.712102 0.176010
O O11 0.000000 0.641388 0.198797
O O12 0.500000 0.981213 0.641229
O O13 0.770691 0.042630 0.674387
O O14 0.500000 0.730305 0.634631
O O15 0.213362 0.665225 0.659791
O O16 0.786948 0.616195 0.750000
O O17 0.500000 0.629036 0.798223
#
# Coordination Sequence:
#
# PCOD9470788 Si02
#       6
#    16  16  16  16  16  16
#     4  10  20  35  55  78 104 134 171 214 258 307
#     4   9  18  33  53  77 105 137 172 211 261 314
#     4   9  15  26  49  76  96 121 165 216 254 288
#     4  10  19  33  54  79 104 132 172 220 259 300
#     4   9  17  32  51  72 100 133 171 210 248 300
#     4  10  21  35  51  74 106 141 171 205 258 315
#
# _framework density 22.042491999999999
#
# number of rings (size 3 to 8) (size 9 to 14) (size 15 to 20)
#    0.000    2.500    1.667    1.000    2.333    3.000 
#    0.000    0.833    0.000    2.000    0.000    0.000 
#    0.000    0.000    0.000    0.000    0.000    0.000 
#
# Total GULP energy -267981.491228 kJ/mol
# GULP energy per Si atom -5582.947734 kJ/mol
# Density = 2.199232 g / cm^3
# Si number density = 22.042492 Si / 1000 Ang^3
#
#
#
# Elastic Constant Matrix: (Units=GPa)
#
#
# Indices 1 2 3 4 5 6 
#
# 1 77.4829 -9.1966 -3.4461 0.0000 0.0000 0.0000
# 2 -9.1966 79.5761 7.8899 0.0000 0.0000 0.0000
# 3 -3.4461 7.8899 134.1199 0.0000 0.0000 0.0000
# 4 0.0000 0.0000 0.0000 35.0003 0.0000 0.0000
# 5 0.0000 0.0000 0.0000 0.0000 5.9933 0.0000
# 6 0.0000 0.0000 0.0000 0.0000 0.0000 -59.0118
#
#
#
# Elastic Compliance Matrix: (Units=1/GPa)
#
#
# Indices 1 2 3 4 5 6 
#
# 1 0.013094 0.001489 0.000249 0.000000 0.000000 0.000000
# 2 0.001489 0.012810 -0.000715 0.000000 0.000000 0.000000
# 3 0.000249 -0.000715 0.007504 0.000000 0.000000 0.000000
# 4 0.000000 0.000000 0.000000 0.028571 0.000000 0.000000
# 5 0.000000 0.000000 0.000000 0.000000 0.166853 0.000000
# 6 0.000000 0.000000 0.000000 0.000000 0.000000 -0.016946
#
#
# Mechanical properties :
#
#
# Convention : Reuss Voigt Hill
#
# Bulk Modulus (GPa) = 28.20704 31.29702 29.75203
# Shear Modulus (GPa) = 22.55712 16.12515 19.34113
#
# Velocity S-wave (km/s) = 3.20245 2.70765 2.96539
# Velocity P-wave (km/s) = 5.14769 4.89944 5.02510
#
# Compressibility (1/GPa) = 0.03545214
#
# Stress axis : x y z
#
# Youngs Moduli (GPa) = 76.37190 78.06682 133.25354
#
# Poissons Ratio (x) = -0.11621 -0.03316
# Poissons Ratio (y) = -0.11369 0.09532
# Poissons Ratio (z) = -0.01901 0.05584
#
# Static dielectric constant tensor:
#      x y z
#    x 1.885310 0.000000 0.000000 
#    y 0.000000 1.753590 0.000000 
#    z 0.000000 0.000000 1.778880 
# 
# From -- ./inp_files/61464.got.cif
#   From: 2010.05.17/outbox.cif.g08.bks.cpg/sg63_31_cif.got.tgz:61464.got - 2010.06.03 15:47:04.
