data_PCOD9470153
_publ_section_title
;
Structure prediction by ZEFSAII (Michael W. Deem and Ramdas Pophale) SiO2 
 PCOD9470153
Probable space group: C M C M
;
_chemical_formula_sum "Si O2"
_cell_formula_units_Z 72
_cell_length_a 16.732943
_cell_length_b 28.124328
_cell_length_c 8.519601
_cell_angle_alpha 90.000000
_cell_angle_beta 90.000000
_cell_angle_gamma 90.000000
_cell_volume 4009.347892
_symmetry_space_group_name_H-M "C M C M"
_symmetry_group_IT_number 63
_symmetry_cell_setting 'orthorhombic'
loop_
_space_group_symop_operation_xyz
x,y,z
-x,-y,1/2+z
x,-y,-z
-x,y,1/2-z
-x,-y,-z
x,y,1/2-z
-x,y,z
x,-y,1/2+z
1/2+x,1/2+y,z
1/2-x,1/2-y,1/2+z
1/2+x,1/2-y,-z
1/2-x,1/2+y,1/2-z
1/2-x,1/2-y,-z
1/2+x,1/2+y,1/2-z
1/2-x,1/2+y,z
1/2+x,1/2-y,1/2+z
loop_
_atom_site_type_symbol
_atom_site_label
_atom_site_fract_x
_atom_site_fract_y
_atom_site_fract_z
Si Si1 0.500000 0.445496 0.059876
Si Si2 0.662645 0.392284 0.438128
Si Si3 0.816753 0.552332 0.062135
Si Si4 0.253040 0.803407 0.561417
Si Si5 0.412117 0.857506 0.940657
O O1 0.500000 0.447541 0.250000
O O2 0.420798 0.416227 0.010305
O O3 0.500000 0.500000 0.000000
O O4 0.662125 0.389956 0.250000
O O5 0.734815 0.426083 0.494165
O O6 0.684719 0.339797 0.501993
O O7 0.809898 0.552078 0.250000
O O8 0.887158 0.588808 0.018247
O O9 0.830549 0.500000 0.000000
O O10 0.250900 0.803801 0.750000
O O11 0.250000 0.750000 0.500000
O O12 0.338230 0.825206 0.507577
O O13 0.413660 0.854780 0.750000
O O14 0.500000 0.844691 0.999166
#
# Coordination Sequence:
#
# PCOD9470153 Si02
#       5
#     8  16  16  16  16
#     4  10  22  36  54  80 110 146 184 226 275 326
#     4  10  20  36  55  77 106 139 181 225 268 320
#     4  10  19  31  50  76 105 139 176 212 258 311
#     4  10  20  36  58  80 105 138 175 218 269 320
#     4   8  16  32  52  74 100 132 171 212 254 303
#
# _framework density 17.958031999999999
#
# number of rings (size 3 to 8) (size 9 to 14) (size 15 to 20)
#    0.000    2.444    0.000    4.000    0.000    4.000 
#    2.000    0.000    0.000   22.667    0.000    0.000 
#    0.000    0.000    0.000    0.000    0.000    0.000 
#
# Total GULP energy -200748.029816 kJ/mol
# GULP energy per Si atom -5576.334162 kJ/mol
# Density = 1.791716 g / cm^3
# Si number density = 17.958032 Si / 1000 Ang^3
#
#
#
# Elastic Constant Matrix: (Units=GPa)
#
#
# Indices 1 2 3 4 5 6 
#
# 1 125.7470 67.6150 23.8627 0.0000 0.0000 0.0000
# 2 67.6150 170.1491 32.4417 0.0000 0.0000 0.0000
# 3 23.8627 32.4417 44.4554 0.0000 0.0000 0.0000
# 4 0.0000 0.0000 0.0000 34.4448 0.0000 0.0000
# 5 0.0000 0.0000 0.0000 0.0000 18.4731 0.0000
# 6 0.0000 0.0000 0.0000 0.0000 0.0000 14.3834
#
#
#
# Elastic Compliance Matrix: (Units=1/GPa)
#
#
# Indices 1 2 3 4 5 6 
#
# 1 0.010446 -0.003580 -0.002994 0.000000 0.000000 0.000000
# 2 -0.003580 0.008054 -0.003956 0.000000 0.000000 0.000000
# 3 -0.002994 -0.003956 0.026989 0.000000 0.000000 0.000000
# 4 0.000000 0.000000 0.000000 0.029032 0.000000 0.000000
# 5 0.000000 0.000000 0.000000 0.000000 0.054133 0.000000
# 6 0.000000 0.000000 0.000000 0.000000 0.000000 0.069525
#
#
# Mechanical properties :
#
#
# Convention : Reuss Voigt Hill
#
# Bulk Modulus (GPa) = 40.93709 65.35448 53.14578
# Shear Modulus (GPa) = 21.98951 27.88908 24.93929
#
# Velocity S-wave (km/s) = 3.50307 3.94511 3.73064
# Velocity P-wave (km/s) = 6.26159 7.56464 6.94375
#
# Compressibility (1/GPa) = 0.02442773
#
# Stress axis : x y z
#
# Youngs Moduli (GPa) = 95.73270 124.16022 37.05260
#
# Poissons Ratio (x) = 0.44450 0.11095
# Poissons Ratio (y) = 0.34273 0.14657
# Poissons Ratio (z) = 0.28667 0.49116
#
# Static dielectric constant tensor:
#      x y z
#    x 1.617760 0.000000 0.000000 
#    y 0.000000 1.593730 0.000000 
#    z 0.000000 0.000000 1.618820 
# 
# From -- ./inp_files/4596.got.cif
#   From: 2010.05.17/outbox.cif.g08.bks.cpg/sg63_3_cif.got.tgz:4596.got - 2010.06.03 15:47:04.
