data_PCOD9470084
_publ_section_title
;
Structure prediction by ZEFSAII (Michael W. Deem and Ramdas Pophale) SiO2 
 PCOD9470084
Probable space group: C M C M
;
_chemical_formula_sum "Si O2"
_cell_formula_units_Z 112
_cell_length_a 23.016932
_cell_length_b 19.135796
_cell_length_c 14.450321
_cell_angle_alpha 90.000000
_cell_angle_beta 90.000000
_cell_angle_gamma 90.000000
_cell_volume 6364.605090
_symmetry_space_group_name_H-M "C M C M"
_symmetry_group_IT_number 63
_symmetry_cell_setting 'orthorhombic'
loop_
_space_group_symop_operation_xyz
x,y,z
-x,-y,1/2+z
x,-y,-z
-x,y,1/2-z
-x,-y,-z
x,y,1/2-z
-x,y,z
x,-y,1/2+z
1/2+x,1/2+y,z
1/2-x,1/2-y,1/2+z
1/2+x,1/2-y,-z
1/2-x,1/2+y,1/2-z
1/2-x,1/2-y,-z
1/2+x,1/2+y,1/2-z
1/2-x,1/2+y,z
1/2+x,1/2-y,1/2+z
loop_
_atom_site_type_symbol
_atom_site_label
_atom_site_fract_x
_atom_site_fract_y
_atom_site_fract_z
Si Si1 0.652153 0.049125 0.140822
Si Si2 0.229757 0.076249 0.473330
Si Si3 0.325747 0.306651 0.859855
Si Si4 0.068128 0.318544 0.852933
Si Si5 0.606876 0.898715 0.145019
Si Si6 0.934163 0.734325 0.953752
Si Si7 0.264191 0.167986 0.854880
O O1 0.670010 0.040558 0.250000
O O2 0.707342 0.063278 0.075522
O O3 0.609097 0.114523 0.136121
O O4 0.617979 0.978196 0.114935
O O5 0.191765 0.119680 0.401567
O O6 0.233728 0.123964 0.565261
O O7 0.207220 0.000000 0.500000
O O8 0.330389 0.308662 0.750000
O O9 0.385742 0.278160 0.901152
O O10 0.275330 0.248952 0.880708
O O11 0.078101 0.289376 0.750000
O O12 0.000000 0.338791 0.859144
O O13 0.079249 0.266531 0.937145
O O14 0.582995 0.898631 0.250000
O O15 0.571368 0.846404 0.080441
O O16 0.671124 0.864957 0.149066
O O17 0.000000 0.757915 0.937426
O O18 0.239950 0.163411 0.750000
#
# Coordination Sequence:
#
# PCOD9470084 Si02
#       7
#    16  16  16  16  16  16  16
#     4  10  19  31  49  73 108 151 189 220 268 323
#     4  12  22  33  55  78 109 149 185 224 275 331
#     4  10  22  38  55  80 110 136 178 231 279 331
#     4   9  19  33  49  74 109 146 187 232 270 318
#     4   9  17  29  46  72 105 138 179 225 268 320
#     4  10  20  35  57  78 102 139 182 229 282 329
#     4   9  18  33  50  72 105 142 179 224 268 317
#
# _framework density 17.597321000000001
#
# number of rings (size 3 to 8) (size 9 to 14) (size 15 to 20)
#    0.000    2.143    1.429    3.857    0.000    2.286 
#    0.000    5.000    0.000    0.429    0.000    0.000 
#    0.000    0.000    0.000    0.000    0.000    0.000 
#
# Total GULP energy -312419.258188 kJ/mol
# GULP energy per Si atom -5578.915325 kJ/mol
# Density = 1.755727 g / cm^3
# Si number density = 17.597321 Si / 1000 Ang^3
#
#
#
# Elastic Constant Matrix: (Units=GPa)
#
#
# Indices 1 2 3 4 5 6 
#
# 1 34.5945 32.3510 36.4862 0.0000 0.0000 0.0000
# 2 32.3510 90.7554 54.4703 0.0000 0.0000 0.0000
# 3 36.4862 54.4703 107.2406 0.0000 0.0000 0.0000
# 4 0.0000 0.0000 0.0000 25.7543 0.0000 0.0000
# 5 0.0000 0.0000 0.0000 0.0000 22.1423 0.0000
# 6 0.0000 0.0000 0.0000 0.0000 0.0000 11.9552
#
#
#
# Elastic Compliance Matrix: (Units=1/GPa)
#
#
# Indices 1 2 3 4 5 6 
#
# 1 0.052208 -0.011435 -0.011954 0.000000 0.000000 0.000000
# 2 -0.011435 0.018356 -0.005433 0.000000 0.000000 0.000000
# 3 -0.011954 -0.005433 0.016151 0.000000 0.000000 0.000000
# 4 0.000000 0.000000 0.000000 0.038828 0.000000 0.000000
# 5 0.000000 0.000000 0.000000 0.000000 0.045162 0.000000
# 6 0.000000 0.000000 0.000000 0.000000 0.000000 0.083646
#
#
# Mechanical properties :
#
#
# Convention : Reuss Voigt Hill
#
# Bulk Modulus (GPa) = 34.39934 53.24507 43.82220
# Shear Modulus (GPa) = 15.54308 19.25589 17.39948
#
# Velocity S-wave (km/s) = 2.97520 3.31154 3.14786
# Velocity P-wave (km/s) = 5.60294 6.70409 6.17810
#
# Compressibility (1/GPa) = 0.02907033
#
# Stress axis : x y z
#
# Youngs Moduli (GPa) = 19.15411 54.47951 61.91427
#
# Poissons Ratio (x) = 0.62300 0.74014
# Poissons Ratio (y) = 0.21904 0.33635
# Poissons Ratio (z) = 0.22897 0.29596
#
# Static dielectric constant tensor:
#      x y z
#    x 1.580400 0.000000 0.000000 
#    y 0.000000 1.597690 0.000000 
#    z 0.000000 0.000000 1.660070 
# 
# From -- ./inp_files/36860.got.cif
#   From: 2010.05.17/outbox.cif.g08.bks.cpg/sg63_19_cif.got.tgz:36860.got - 2010.06.03 15:47:04.
