data_PCOD9470803
_publ_section_title
;
Structure prediction by ZEFSAII (Michael W. Deem and Ramdas Pophale) SiO2 
 PCOD9470803
Probable space group: C M C M
;
_chemical_formula_sum "Si O2"
_cell_formula_units_Z 80
_cell_length_a 27.011843
_cell_length_b 9.568322
_cell_length_c 14.462732
_cell_angle_alpha 90.000000
_cell_angle_beta 90.000000
_cell_angle_gamma 90.000000
_cell_volume 3738.008956
_symmetry_space_group_name_H-M "C M C M"
_symmetry_group_IT_number 63
_symmetry_cell_setting 'orthorhombic'
loop_
_space_group_symop_operation_xyz
x,y,z
-x,-y,1/2+z
x,-y,-z
-x,y,1/2-z
-x,-y,-z
x,y,1/2-z
-x,y,z
x,-y,1/2+z
1/2+x,1/2+y,z
1/2-x,1/2-y,1/2+z
1/2+x,1/2-y,-z
1/2-x,1/2+y,1/2-z
1/2-x,1/2-y,-z
1/2+x,1/2+y,1/2-z
1/2-x,1/2+y,z
1/2+x,1/2-y,1/2+z
loop_
_atom_site_type_symbol
_atom_site_label
_atom_site_fract_x
_atom_site_fract_y
_atom_site_fract_z
Si Si1 0.055417 0.420423 0.598714
Si Si2 0.223153 0.624359 0.144720
Si Si3 0.130178 0.189178 0.862604
Si Si4 0.354180 0.920680 0.401417
Si Si5 0.834589 0.114045 0.137059
O O1 0.050738 0.500000 0.500000
O O2 0.082730 0.270137 0.596369
O O3 0.097596 0.514093 0.647169
O O4 0.000000 0.411403 0.637068
O O5 0.230910 0.669264 0.250000
O O6 0.181142 0.730871 0.109187
O O7 0.196622 0.473159 0.144124
O O8 0.277461 0.613418 0.102929
O O9 0.126422 0.199803 0.750000
O O10 0.137403 0.028128 0.887898
O O11 0.357792 0.755777 0.401240
O O12 0.351562 0.000000 0.500000
O O13 0.834999 0.119946 0.250000
#
# Coordination Sequence:
#
# PCOD9470803 Si02
#       5
#    16  16  16  16  16
#     4   9  19  38  58  74 100 139 179 216 263 325
#     4   9  17  32  53  76 107 148 184 212 258 326
#     4   9  18  32  54  83 107 132 175 225 267 310
#     4  10  20  33  51  78 109 141 183 226 263 314
#     4  10  19  33  54  80 111 143 175 217 269 323
#
# _framework density 21.401769000000002
#
# number of rings (size 3 to 8) (size 9 to 14) (size 15 to 20)
#    0.000    2.600    0.000    1.800    0.000    5.200 
#    0.000   12.000    0.000   10.800    0.000    0.000 
#    0.000    0.000    0.000    0.000    0.000    0.000 
#
# Total GULP energy -222964.613326 kJ/mol
# GULP energy per Si atom -5574.115333 kJ/mol
# Density = 2.135306 g / cm^3
# Si number density = 21.401769 Si / 1000 Ang^3
#
#
#
# Elastic Constant Matrix: (Units=GPa)
#
#
# Indices 1 2 3 4 5 6 
#
# 1 158.5287 75.1840 17.6657 0.0000 0.0000 0.0000
# 2 75.1840 211.2087 25.2129 0.0000 0.0000 0.0000
# 3 17.6657 25.2129 76.4098 0.0000 0.0000 0.0000
# 4 0.0000 0.0000 0.0000 26.4174 0.0000 0.0000
# 5 0.0000 0.0000 0.0000 0.0000 179.6751 0.0000
# 6 0.0000 0.0000 0.0000 0.0000 0.0000 5.3679
#
#
#
# Elastic Compliance Matrix: (Units=1/GPa)
#
#
# Indices 1 2 3 4 5 6 
#
# 1 0.007649 -0.002615 -0.000906 0.000000 0.000000 0.000000
# 2 -0.002615 0.005823 -0.001317 0.000000 0.000000 0.000000
# 3 -0.000906 -0.001317 0.013731 0.000000 0.000000 0.000000
# 4 0.000000 0.000000 0.000000 0.037854 0.000000 0.000000
# 5 0.000000 0.000000 0.000000 0.000000 0.005566 0.000000
# 6 0.000000 0.000000 0.000000 0.000000 0.000000 0.186292
#
#
# Mechanical properties :
#
#
# Convention : Reuss Voigt Hill
#
# Bulk Modulus (GPa) = 57.04978 75.80804 66.42891
# Shear Modulus (GPa) = 18.35327 64.16441 41.25884
#
# Velocity S-wave (km/s) = 2.93159 5.48142 4.39546
# Velocity P-wave (km/s) = 6.17846 8.69250 7.54099
#
# Compressibility (1/GPa) = 0.01752855
#
# Stress axis : x y z
#
# Youngs Moduli (GPa) = 130.73650 171.74473 72.82684
#
# Poissons Ratio (x) = 0.44906 0.06596
# Poissons Ratio (y) = 0.34184 0.09590
# Poissons Ratio (z) = 0.11840 0.22615
#
# Static dielectric constant tensor:
#      x y z
#    x 1.808690 0.000000 0.000000 
#    y 0.000000 1.782610 0.000000 
#    z 0.000000 0.000000 1.921600 
# 
# From -- ./inp_files/49423.got.cif
#   From: 2010.05.17/outbox.cif.g08.bks.cpg/sg63_25_cif.got.tgz:49423.got - 2010.06.03 15:47:04.
