data_PCOD9470427
_publ_section_title
;
Structure prediction by ZEFSAII (Michael W. Deem and Ramdas Pophale) SiO2 
 PCOD9470427
Probable space group: C M C M
;
_chemical_formula_sum "Si O2"
_cell_formula_units_Z 64
_cell_length_a 17.500339
_cell_length_b 20.806246
_cell_length_c 8.869886
_cell_angle_alpha 90.000000
_cell_angle_beta 90.000000
_cell_angle_gamma 90.000000
_cell_volume 3229.670589
_symmetry_space_group_name_H-M "C M C M"
_symmetry_group_IT_number 63
_symmetry_cell_setting 'orthorhombic'
loop_
_space_group_symop_operation_xyz
x,y,z
-x,-y,1/2+z
x,-y,-z
-x,y,1/2-z
-x,-y,-z
x,y,1/2-z
-x,y,z
x,-y,1/2+z
1/2+x,1/2+y,z
1/2-x,1/2-y,1/2+z
1/2+x,1/2-y,-z
1/2-x,1/2+y,1/2-z
1/2-x,1/2-y,-z
1/2+x,1/2+y,1/2-z
1/2-x,1/2+y,z
1/2+x,1/2-y,1/2+z
loop_
_atom_site_type_symbol
_atom_site_label
_atom_site_fract_x
_atom_site_fract_y
_atom_site_fract_z
Si Si1 0.914231 0.166983 0.570042
Si Si2 0.375420 0.196777 0.571778
Si Si3 0.237778 0.134913 0.424734
Si Si4 0.887368 0.433854 0.575770
O O1 0.904694 0.166058 0.750000
O O2 0.905348 0.240096 0.510687
O O3 0.846087 0.128214 0.490856
O O4 0.000000 0.144622 0.533349
O O5 0.384393 0.202615 0.750000
O O6 0.286816 0.184958 0.525058
O O7 0.412582 0.130734 0.510191
O O8 0.234249 0.156318 0.250000
O O9 0.294388 0.073718 0.429045
O O10 0.910467 0.500000 0.500000
O O11 0.909784 0.431269 0.750000
#
# Coordination Sequence:
#
# PCOD9470427 Si02
#       4
#    16  16  16  16
#     4  11  22  34  49  72 103 135 167 205 249 298
#     4  10  19  32  52  74 101 132 165 205 247 295
#     4   9  19  33  51  74 101 130 165 206 247 294
#     4   9  18  31  51  77 101 127 163 208 248 289
#
# _framework density 19.816262999999999
#
# number of rings (size 3 to 8) (size 9 to 14) (size 15 to 20)
#    1.500    0.750    0.000    4.500    0.000    2.000 
#    0.000    0.000    0.000    1.500    0.000    0.000 
#    0.000    0.000    0.000    0.000    0.000    0.000 
#
# Total GULP energy -178304.536826 kJ/mol
# GULP energy per Si atom -5572.016776 kJ/mol
# Density = 1.977116 g / cm^3
# Si number density = 19.816263 Si / 1000 Ang^3
#
#
#
# Elastic Constant Matrix: (Units=GPa)
#
#
# Indices 1 2 3 4 5 6 
#
# 1 142.2142 6.4435 34.7309 0.0000 0.0000 0.0000
# 2 6.4435 39.1358 13.0522 0.0000 0.0000 0.0000
# 3 34.7309 13.0522 92.0206 0.0000 0.0000 0.0000
# 4 0.0000 0.0000 0.0000 28.2314 0.0000 0.0000
# 5 0.0000 0.0000 0.0000 0.0000 4.5400 0.0000
# 6 0.0000 0.0000 0.0000 0.0000 0.0000 -60.0971
#
#
#
# Elastic Compliance Matrix: (Units=1/GPa)
#
#
# Indices 1 2 3 4 5 6 
#
# 1 0.007749 -0.000315 -0.002880 0.000000 0.000000 0.000000
# 2 -0.000315 0.026834 -0.003687 0.000000 0.000000 0.000000
# 3 -0.002880 -0.003687 0.012477 0.000000 0.000000 0.000000
# 4 0.000000 0.000000 0.000000 0.035422 0.000000 0.000000
# 5 0.000000 0.000000 0.000000 0.000000 0.220262 0.000000
# 6 0.000000 0.000000 0.000000 0.000000 0.000000 -0.016640
#
#
# Mechanical properties :
#
#
# Convention : Reuss Voigt Hill
#
# Bulk Modulus (GPa) = 30.03443 42.42486 36.22965
# Shear Modulus (GPa) = 16.07887 9.14447 12.61167
#
# Velocity S-wave (km/s) = 2.85159 2.15050 2.52549
# Velocity P-wave (km/s) = 5.10211 5.25564 5.17944
#
# Compressibility (1/GPa) = 0.03329512
#
# Stress axis : x y z
#
# Youngs Moduli (GPa) = 129.04415 37.26665 80.14678
#
# Poissons Ratio (x) = 0.01175 0.23083
# Poissons Ratio (y) = 0.04069 0.29551
# Poissons Ratio (z) = 0.37165 0.13740
#
# Static dielectric constant tensor:
#      x y z
#    x 1.771030 0.000000 0.000000 
#    y 0.000000 1.664390 0.000000 
#    z 0.000000 0.000000 1.657300 
# 
# From -- ./inp_files/5739.got.cif
#   From: 2010.05.17/outbox.cif.g08.bks.cpg/sg63_3_cif.got.tgz:5739.got - 2010.06.03 15:47:04.
