data_PCOD9470317
_publ_section_title
;
Structure prediction by ZEFSAII (Michael W. Deem and Ramdas Pophale) SiO2 
 PCOD9470317
Probable space group: C M C M
;
_chemical_formula_sum "Si O2"
_cell_formula_units_Z 112
_cell_length_a 15.289856
_cell_length_b 28.477547
_cell_length_c 13.789683
_cell_angle_alpha 90.000000
_cell_angle_beta 90.000000
_cell_angle_gamma 90.000000
_cell_volume 6004.270578
_symmetry_space_group_name_H-M "C M C M"
_symmetry_group_IT_number 63
_symmetry_cell_setting 'orthorhombic'
loop_
_space_group_symop_operation_xyz
x,y,z
-x,-y,1/2+z
x,-y,-z
-x,y,1/2-z
-x,-y,-z
x,y,1/2-z
-x,y,z
x,-y,1/2+z
1/2+x,1/2+y,z
1/2-x,1/2-y,1/2+z
1/2+x,1/2-y,-z
1/2-x,1/2+y,1/2-z
1/2-x,1/2-y,-z
1/2+x,1/2+y,1/2-z
1/2-x,1/2+y,z
1/2+x,1/2-y,1/2+z
loop_
_atom_site_type_symbol
_atom_site_label
_atom_site_fract_x
_atom_site_fract_y
_atom_site_fract_z
Si Si1 0.097273 0.932108 0.024906
Si Si2 0.830406 0.010555 0.142953
Si Si3 0.897927 0.255838 0.638526
Si Si4 0.397597 0.670992 0.491005
Si Si5 0.131421 0.521131 0.641156
Si Si6 0.596294 0.078492 0.048974
Si Si7 0.772403 0.654443 0.364314
O O1 0.110550 0.878115 0.049442
O O2 0.000000 0.936747 0.983263
O O3 0.160436 0.950580 0.940116
O O4 0.106785 0.967982 0.112785
O O5 0.847242 0.029285 0.250000
O O6 0.735292 0.987327 0.139460
O O7 0.887500 0.238950 0.750000
O O8 0.880901 0.214846 0.561152
O O9 0.832935 0.299305 0.624919
O O10 0.000000 0.270207 0.627933
O O11 0.500000 0.673944 0.457430
O O12 0.322794 0.665616 0.409582
O O13 0.104557 0.533512 0.750000
O O14 0.107782 0.559503 0.560747
O O15 0.096990 0.469763 0.610863
O O16 0.500000 0.100660 0.060136
O O17 0.673211 0.112857 0.083188
O O18 0.765074 0.643154 0.250000
#
# Coordination Sequence:
#
# PCOD9470317 Si02
#       7
#    16  16  16  16  16  16  16
#     4  10  20  32  47  71 103 137 178 225 266 310
#     4  10  19  32  50  71 100 139 179 219 264 315
#     4   9  19  37  61  87 111 136 172 222 277 330
#     4  10  21  37  57  81 111 145 180 221 270 325
#     4  10  20  34  53  77 108 145 183 226 275 329
#     4  11  22  35  55  81 110 146 185 227 276 328
#     4  11  22  37  58  83 112 144 182 227 271 322
#
# _framework density 18.653388
#
# number of rings (size 3 to 8) (size 9 to 14) (size 15 to 20)
#    0.000    1.857    0.000    6.429    0.000    6.286 
#    0.000    3.571    0.000    0.857    0.000    2.000 
#    0.000    0.000    0.000    0.000    0.000    0.000 
#
# Total GULP energy -312393.516749 kJ/mol
# GULP energy per Si atom -5578.455656 kJ/mol
# Density = 1.861093 g / cm^3
# Si number density = 18.653388 Si / 1000 Ang^3
#
#
#
# Elastic Constant Matrix: (Units=GPa)
#
#
# Indices 1 2 3 4 5 6 
#
# 1 115.1170 46.6533 55.1843 0.0000 0.0000 0.0000
# 2 46.6533 88.4261 45.9566 0.0000 0.0000 0.0000
# 3 55.1843 45.9566 100.4486 0.0000 0.0000 0.0000
# 4 0.0000 0.0000 0.0000 13.1978 0.0000 0.0000
# 5 0.0000 0.0000 0.0000 0.0000 -153.6233 0.0000
# 6 0.0000 0.0000 0.0000 0.0000 0.0000 26.4268
#
#
#
# Elastic Compliance Matrix: (Units=1/GPa)
#
#
# Indices 1 2 3 4 5 6 
#
# 1 0.012820 -0.004072 -0.005180 0.000000 0.000000 0.000000
# 2 -0.004072 0.016130 -0.005143 0.000000 0.000000 0.000000
# 3 -0.005180 -0.005143 0.015154 0.000000 0.000000 0.000000
# 4 0.000000 0.000000 0.000000 0.075770 0.000000 0.000000
# 5 0.000000 0.000000 0.000000 0.000000 -0.006509 0.000000
# 6 0.000000 0.000000 0.000000 0.000000 0.000000 0.037840
#
#
# Mechanical properties :
#
#
# Convention : Reuss Voigt Hill
#
# Bulk Modulus (GPa) = 65.29616 66.61999 65.95807
# Shear Modulus (GPa) = 27.01248 -12.38657 7.31296
#
# Velocity S-wave (km/s) = 3.80956 -2.57969 1.98216
# Velocity P-wave (km/s) = 7.37775 5.18837 6.37771
#
# Compressibility (1/GPa) = 0.01531484
#
# Stress axis : x y z
#
# Youngs Moduli (GPa) = 78.00169 61.99701 65.98835
#
# Poissons Ratio (x) = 0.25243 0.34184
# Poissons Ratio (y) = 0.31759 0.33936
# Poissons Ratio (z) = 0.40408 0.31884
#
# Static dielectric constant tensor:
#      x y z
#    x 1.699570 0.000000 0.000000 
#    y 0.000000 1.625890 0.000000 
#    z 0.000000 0.000000 1.639620 
# 
# From -- ./inp_files/32568.got.cif
#   From: 2010.05.17/outbox.cif.g08.bks.cpg/sg63_17_cif.got.tgz:32568.got - 2010.06.03 15:47:04.
