data_PCOD9470835
_publ_section_title
;
Structure prediction by ZEFSAII (Michael W. Deem and Ramdas Pophale) SiO2 
 PCOD9470835
Probable space group: C M C M
;
_chemical_formula_sum "Si O2"
_cell_formula_units_Z 112
_cell_length_a 15.110466
_cell_length_b 18.281883
_cell_length_c 22.721143
_cell_angle_alpha 90.000000
_cell_angle_beta 90.000000
_cell_angle_gamma 90.000000
_cell_volume 6276.665119
_symmetry_space_group_name_H-M "C M C M"
_symmetry_group_IT_number 63
_symmetry_cell_setting 'orthorhombic'
loop_
_space_group_symop_operation_xyz
x,y,z
-x,-y,1/2+z
x,-y,-z
-x,y,1/2-z
-x,-y,-z
x,y,1/2-z
-x,y,z
x,-y,1/2+z
1/2+x,1/2+y,z
1/2-x,1/2-y,1/2+z
1/2+x,1/2-y,-z
1/2-x,1/2+y,1/2-z
1/2-x,1/2-y,-z
1/2+x,1/2+y,1/2-z
1/2-x,1/2+y,z
1/2+x,1/2-y,1/2+z
loop_
_atom_site_type_symbol
_atom_site_label
_atom_site_fract_x
_atom_site_fract_y
_atom_site_fract_z
Si Si1 0.788747 0.070895 0.181428
Si Si2 0.903834 0.607251 0.317845
Si Si3 0.822924 0.078767 0.974069
Si Si4 0.895175 0.833683 0.587502
Si Si5 0.599427 0.728908 0.645046
Si Si6 0.900378 0.066627 0.846217
Si Si7 0.767014 0.712312 0.561913
O O1 0.789261 0.094609 0.250000
O O2 0.687881 0.075834 0.157738
O O3 0.849085 0.121533 0.140181
O O4 0.828919 0.989792 0.177635
O O5 0.906666 0.583578 0.250000
O O6 0.897123 0.695715 0.319503
O O7 0.000000 0.588552 0.345098
O O8 0.885964 0.070022 0.917102
O O9 0.739744 0.125836 0.949977
O O10 0.868848 0.124985 0.026481
O O11 0.800217 0.000000 0.000000
O O12 0.852957 0.752366 0.586962
O O13 0.000000 0.832915 0.593424
O O14 0.500000 0.726522 0.617671
O O15 0.608630 0.650088 0.676098
O O16 0.681132 0.731360 0.600758
O O17 0.000000 0.041010 0.833198
O O18 0.750000 0.750000 0.500000
#
# Coordination Sequence:
#
# PCOD9470835 Si02
#       7
#    16  16  16  16  16  16  16
#     4  11  22  34  51  80 112 141 176 216 264 319
#     4   9  18  34  56  77  97 129 175 221 261 303
#     4  10  19  33  55  79 102 138 182 227 265 308
#     4  11  21  34  53  78 111 146 177 212 264 327
#     4   9  17  32  53  76 100 128 171 222 267 305
#     4  10  20  32  50  78 112 143 172 212 265 319
#     4   9  19  32  48  74 105 136 170 208 258 314
#
# _framework density 17.843869999999999
#
# number of rings (size 3 to 8) (size 9 to 14) (size 15 to 20)
#    0.000    2.143    2.857    0.857    0.000    5.714 
#    0.000    1.429    0.000    3.857    0.000    0.000 
#    0.000    0.000    0.000    0.000    0.000    0.000 
#
# Total GULP energy -311805.018181 kJ/mol
# GULP energy per Si atom -5567.946753 kJ/mol
# Density = 1.780326 g / cm^3
# Si number density = 17.843870 Si / 1000 Ang^3
#
#
#
# Elastic Constant Matrix: (Units=GPa)
#
#
# Indices 1 2 3 4 5 6 
#
# 1 158.0922 62.9779 28.9551 0.0000 0.0000 0.0000
# 2 62.9779 69.5083 -6.0683 0.0000 0.0000 0.0000
# 3 28.9551 -6.0683 53.4689 0.0000 0.0000 0.0000
# 4 0.0000 0.0000 0.0000 7.9476 0.0000 0.0000
# 5 0.0000 0.0000 0.0000 0.0000 10.6679 0.0000
# 6 0.0000 0.0000 0.0000 0.0000 0.0000 23.4372
#
#
#
# Elastic Compliance Matrix: (Units=1/GPa)
#
#
# Indices 1 2 3 4 5 6 
#
# 1 0.012721 -0.012249 -0.008279 0.000000 0.000000 0.000000
# 2 -0.012249 0.026325 0.009621 0.000000 0.000000 0.000000
# 3 -0.008279 0.009621 0.024278 0.000000 0.000000 0.000000
# 4 0.000000 0.000000 0.000000 0.125823 0.000000 0.000000
# 5 0.000000 0.000000 0.000000 0.000000 0.093739 0.000000
# 6 0.000000 0.000000 0.000000 0.000000 0.000000 0.042667
#
#
# Mechanical properties :
#
#
# Convention : Reuss Voigt Hill
#
# Bulk Modulus (GPa) = 24.09092 50.31098 37.20095
# Shear Modulus (GPa) = 13.84257 21.42420 17.63339
#
# Velocity S-wave (km/s) = 2.78827 3.46880 3.14698
# Velocity P-wave (km/s) = 4.88837 6.65580 5.83934
#
# Compressibility (1/GPa) = 0.04150942
#
# Stress axis : x y z
#
# Youngs Moduli (GPa) = 78.60867 37.98709 41.18994
#
# Poissons Ratio (x) = 0.46530 0.34102
# Poissons Ratio (y) = 0.96287 -0.39628
# Poissons Ratio (z) = 0.65081 -0.36547
#
# Static dielectric constant tensor:
#      x y z
#    x 1.621040 0.000000 0.000000 
#    y 0.000000 1.633170 0.000000 
#    z 0.000000 0.000000 1.626880 
# 
# From -- ./inp_files/61766.got.cif
#   From: 2010.05.17/outbox.cif.g08.bks.cpg/sg63_31_cif.got.tgz:61766.got - 2010.06.03 15:47:04.
