data_PCOD9470269
_publ_section_title
;
Structure prediction by ZEFSAII (Michael W. Deem and Ramdas Pophale) SiO2 
 PCOD9470269
Probable space group: C M C M
;
_chemical_formula_sum "Si O2"
_cell_formula_units_Z 112
_cell_length_a 13.785902
_cell_length_b 27.201843
_cell_length_c 18.650835
_cell_angle_alpha 90.000000
_cell_angle_beta 90.000000
_cell_angle_gamma 90.000000
_cell_volume 6994.099342
_symmetry_space_group_name_H-M "C M C M"
_symmetry_group_IT_number 63
_symmetry_cell_setting 'orthorhombic'
loop_
_space_group_symop_operation_xyz
x,y,z
-x,-y,1/2+z
x,-y,-z
-x,y,1/2-z
-x,-y,-z
x,y,1/2-z
-x,y,z
x,-y,1/2+z
1/2+x,1/2+y,z
1/2-x,1/2-y,1/2+z
1/2+x,1/2-y,-z
1/2-x,1/2+y,1/2-z
1/2-x,1/2-y,-z
1/2+x,1/2+y,1/2-z
1/2-x,1/2+y,z
1/2+x,1/2-y,1/2+z
loop_
_atom_site_type_symbol
_atom_site_label
_atom_site_fract_x
_atom_site_fract_y
_atom_site_fract_z
Si Si1 0.886148 0.105605 0.536033
Si Si2 0.113073 0.626351 0.832813
Si Si3 0.706596 0.558135 0.665045
Si Si4 0.384867 0.791895 0.044470
Si Si5 0.778391 0.812325 0.553448
Si Si6 0.393643 0.636521 0.166103
Si Si7 0.388401 0.467041 0.908391
O O1 0.858992 0.094961 0.617744
O O2 0.831607 0.152821 0.504871
O O3 0.861720 0.058241 0.484823
O O4 0.000000 0.112806 0.527312
O O5 0.127387 0.643447 0.750000
O O6 0.185527 0.580537 0.843503
O O7 0.131853 0.669318 0.890742
O O8 0.000000 0.612268 0.840257
O O9 0.684433 0.555896 0.750000
O O10 0.683267 0.506466 0.626548
O O11 0.500000 0.784754 0.037525
O O12 0.328461 0.740914 0.057490
O O13 0.332360 0.810629 0.972077
O O14 0.804539 0.837706 0.627789
O O15 0.390211 0.642985 0.250000
O O16 0.500000 0.655649 0.140050
O O17 0.391524 0.579616 0.144524
O O18 0.500000 0.486754 0.913068
#
# Coordination Sequence:
#
# PCOD9470269 Si02
#       7
#    16  16  16  16  16  16  16
#     4  10  19  32  48  72 103 131 161 200 244 293
#     4   9  19  35  52  71  97 128 167 214 252 283
#     4  11  20  30  47  71  97 132 168 198 239 293
#     4  10  19  33  53  73  95 128 167 203 245 295
#     4  10  19  32  51  76  98 126 160 203 248 294
#     4   9  17  30  49  75 102 125 157 204 251 291
#     4   9  18  31  48  70 100 133 162 195 241 295
#
# _framework density 16.013498999999999
#
# number of rings (size 3 to 8) (size 9 to 14) (size 15 to 20)
#    0.000    2.286    1.429    3.429    0.000    3.429 
#    0.000    1.429    0.000    5.571    0.000    0.000 
#    0.000    0.000    0.000    0.000    0.000    0.000 
#
# Total GULP energy -311795.422322 kJ/mol
# GULP energy per Si atom -5567.775399 kJ/mol
# Density = 1.597705 g / cm^3
# Si number density = 16.013499 Si / 1000 Ang^3
#
#
#
# Elastic Constant Matrix: (Units=GPa)
#
#
# Indices 1 2 3 4 5 6 
#
# 1 75.8044 33.6039 42.4803 0.0000 0.0000 0.0000
# 2 33.6039 60.6162 25.7913 0.0000 0.0000 0.0000
# 3 42.4803 25.7913 82.6685 0.0000 0.0000 0.0000
# 4 0.0000 0.0000 0.0000 7.6761 0.0000 0.0000
# 5 0.0000 0.0000 0.0000 0.0000 24.8436 0.0000
# 6 0.0000 0.0000 0.0000 0.0000 0.0000 25.8838
#
#
#
# Elastic Compliance Matrix: (Units=1/GPa)
#
#
# Indices 1 2 3 4 5 6 
#
# 1 0.021693 -0.008398 -0.008527 0.000000 0.000000 0.000000
# 2 -0.008398 0.022273 -0.002634 0.000000 0.000000 0.000000
# 3 -0.008527 -0.002634 0.017300 0.000000 0.000000 0.000000
# 4 0.000000 0.000000 0.000000 0.130274 0.000000 0.000000
# 5 0.000000 0.000000 0.000000 0.000000 0.040252 0.000000
# 6 0.000000 0.000000 0.000000 0.000000 0.000000 0.038634
#
#
# Mechanical properties :
#
#
# Convention : Reuss Voigt Hill
#
# Bulk Modulus (GPa) = 45.14874 46.98223 46.06548
# Shear Modulus (GPa) = 15.77649 19.49494 17.63571
#
# Velocity S-wave (km/s) = 3.14219 3.49292 3.32219
# Velocity P-wave (km/s) = 6.43583 6.75797 6.59887
#
# Compressibility (1/GPa) = 0.02214901
#
# Stress axis : x y z
#
# Youngs Moduli (GPa) = 46.09718 44.89678 57.80326
#
# Poissons Ratio (x) = 0.37704 0.49291
# Poissons Ratio (y) = 0.38712 0.15223
# Poissons Ratio (z) = 0.39309 0.11824
#
# Static dielectric constant tensor:
#      x y z
#    x 1.534550 0.000000 0.000000 
#    y 0.000000 1.558150 0.000000 
#    z 0.000000 0.000000 1.555420 
# 
# From -- ./inp_files/53368.got.cif
#   From: 2010.05.17/outbox.cif.g08.bks.cpg/sg63_27_cif.got.tgz:53368.got - 2010.06.03 15:47:04.
