data_PCOD9470005
_publ_section_title
;
Structure prediction by ZEFSAII (Michael W. Deem and Ramdas Pophale) SiO2 
 PCOD9470005
Probable space group: C M C M
;
_chemical_formula_sum "Si O2"
_cell_formula_units_Z 112
_cell_length_a 29.850374
_cell_length_b 15.955050
_cell_length_c 13.641712
_cell_angle_alpha 90.000000
_cell_angle_beta 90.000000
_cell_angle_gamma 90.000000
_cell_volume 6497.059184
_symmetry_space_group_name_H-M "C M C M"
_symmetry_group_IT_number 63
_symmetry_cell_setting 'orthorhombic'
loop_
_space_group_symop_operation_xyz
x,y,z
-x,-y,1/2+z
x,-y,-z
-x,y,1/2-z
-x,-y,-z
x,y,1/2-z
-x,y,z
x,-y,1/2+z
1/2+x,1/2+y,z
1/2-x,1/2-y,1/2+z
1/2+x,1/2-y,-z
1/2-x,1/2+y,1/2-z
1/2-x,1/2-y,-z
1/2+x,1/2+y,1/2-z
1/2-x,1/2+y,z
1/2+x,1/2-y,1/2+z
loop_
_atom_site_type_symbol
_atom_site_label
_atom_site_fract_x
_atom_site_fract_y
_atom_site_fract_z
Si Si1 0.949485 0.780033 0.864340
Si Si2 0.356044 0.095538 0.869327
Si Si3 0.273518 0.637517 0.367979
Si Si4 0.548171 0.076560 0.635349
Si Si5 0.204093 0.214544 0.867294
Si Si6 0.757718 0.455200 0.130964
Si Si7 0.359002 0.719607 0.038809
O O1 0.939585 0.800482 0.750000
O O2 0.950971 0.678272 0.869355
O O3 0.909329 0.808481 0.934707
O O4 0.000000 0.809578 0.887443
O O5 0.357329 0.104913 0.750000
O O6 0.402522 0.051326 0.900391
O O7 0.309810 0.051752 0.896008
O O8 0.354641 0.187269 0.916713
O O9 0.274789 0.637886 0.250000
O O10 0.236120 0.707125 0.394699
O O11 0.261207 0.544361 0.401937
O O12 0.321750 0.664730 0.406393
O O13 0.547086 0.053328 0.750000
O O14 0.500000 0.049654 0.593174
O O15 0.197687 0.215629 0.750000
O O16 0.230051 0.128521 0.894958
O O17 0.157865 0.219987 0.926975
O O18 0.756590 0.456238 0.250000
#
# Coordination Sequence:
#
# PCOD9470005 Si02
#       7
#    16  16  16  16  16  16  16
#     4   8  14  25  44  73 103 122 146 193 247 299
#     4   9  15  25  42  64  94 125 153 190 236 292
#     4  10  19  31  48  70  96 127 161 199 243 295
#     4   7  10  17  32  57  87 117 145 176 222 278
#     4  10  21  35  45  63  95 128 168 209 240 279
#     4   9  18  31  45  64  95 130 160 198 243 285
#     4  11  18  28  48  71  93 130 162 191 245 294
#
# _framework density 17.238568000000001
#
# number of rings (size 3 to 8) (size 9 to 14) (size 15 to 20)
#    0.000    2.857    1.429    3.429    0.000    0.571 
#    0.000    0.000    0.000    0.429    0.000    3.000 
#    0.000   11.429    0.000    0.714    0.000    0.857 
#
# Total GULP energy -311935.580394 kJ/mol
# GULP energy per Si atom -5570.278221 kJ/mol
# Density = 1.719933 g / cm^3
# Si number density = 17.238568 Si / 1000 Ang^3
#
#
#
# Elastic Constant Matrix: (Units=GPa)
#
#
# Indices 1 2 3 4 5 6 
#
# 1 147.4588 28.7535 59.3360 0.0000 0.0000 0.0000
# 2 28.7535 64.4208 34.3633 0.0000 0.0000 0.0000
# 3 59.3360 34.3633 73.6339 0.0000 0.0000 0.0000
# 4 0.0000 0.0000 0.0000 18.5574 0.0000 0.0000
# 5 0.0000 0.0000 0.0000 0.0000 21.5707 0.0000
# 6 0.0000 0.0000 0.0000 0.0000 0.0000 5.6765
#
#
#
# Elastic Compliance Matrix: (Units=1/GPa)
#
#
# Indices 1 2 3 4 5 6 
#
# 1 0.010038 -0.000220 -0.007986 0.000000 0.000000 0.000000
# 2 -0.000220 0.020673 -0.009470 0.000000 0.000000 0.000000
# 3 -0.007986 -0.009470 0.024435 0.000000 0.000000 0.000000
# 4 0.000000 0.000000 0.000000 0.053887 0.000000 0.000000
# 5 0.000000 0.000000 0.000000 0.000000 0.046359 0.000000
# 6 0.000000 0.000000 0.000000 0.000000 0.000000 0.176163
#
#
# Mechanical properties :
#
#
# Convention : Reuss Voigt Hill
#
# Bulk Modulus (GPa) = 50.52158 58.93544 54.72851
# Shear Modulus (GPa) = 13.38666 20.03165 16.70915
#
# Velocity S-wave (km/s) = 2.78969 3.41255 3.11672
# Velocity P-wave (km/s) = 6.30456 7.05618 6.69093
#
# Compressibility (1/GPa) = 0.01979352
#
# Stress axis : x y z
#
# Youngs Moduli (GPa) = 99.62099 48.37290 40.92424
#
# Poissons Ratio (x) = 0.01066 0.32682
# Poissons Ratio (y) = 0.02196 0.38755
# Poissons Ratio (z) = 0.79557 0.45808
#
# Static dielectric constant tensor:
#      x y z
#    x 1.616680 0.000000 0.000000 
#    y 0.000000 1.571380 0.000000 
#    z 0.000000 0.000000 1.624400 
# 
# From -- ./inp_files/38685.got.cif
#   From: 2010.05.17/outbox.cif.g08.bks.cpg/sg63_20_cif.got.tgz:38685.got - 2010.06.03 15:47:04.
