data_PCOD9470425
_publ_section_title
;
Structure prediction by ZEFSAII (Michael W. Deem and Ramdas Pophale) SiO2 
 PCOD9470425
Probable space group: C M C M
;
_chemical_formula_sum "Si O2"
_cell_formula_units_Z 84
_cell_length_a 11.247207
_cell_length_b 20.458781
_cell_length_c 17.155161
_cell_angle_alpha 90.000000
_cell_angle_beta 90.000000
_cell_angle_gamma 90.000000
_cell_volume 3947.473652
_symmetry_space_group_name_H-M "C M C M"
_symmetry_group_IT_number 63
_symmetry_cell_setting 'orthorhombic'
loop_
_space_group_symop_operation_xyz
x,y,z
-x,-y,1/2+z
x,-y,-z
-x,y,1/2-z
-x,-y,-z
x,y,1/2-z
-x,y,z
x,-y,1/2+z
1/2+x,1/2+y,z
1/2-x,1/2-y,1/2+z
1/2+x,1/2-y,-z
1/2-x,1/2+y,1/2-z
1/2-x,1/2-y,-z
1/2+x,1/2+y,1/2-z
1/2-x,1/2+y,z
1/2+x,1/2-y,1/2+z
loop_
_atom_site_type_symbol
_atom_site_label
_atom_site_fract_x
_atom_site_fract_y
_atom_site_fract_z
Si Si1 0.756144 0.923852 0.162909
Si Si2 0.359311 0.713530 0.845486
Si Si3 0.199058 0.167418 0.387280
Si Si4 0.500000 0.482622 0.377619
Si Si5 0.865308 0.547900 0.155153
Si Si6 0.500000 0.387820 0.526285
Si Si7 0.500000 0.679797 0.250000
O O1 0.709613 0.911920 0.250000
O O2 0.790306 0.852946 0.132417
O O3 0.880283 0.963724 0.166310
O O4 0.667895 0.975534 0.123982
O O5 0.352712 0.720114 0.750000
O O6 0.500000 0.708825 0.863703
O O7 0.293048 0.773992 0.884708
O O8 0.104779 0.179044 0.317896
O O9 0.116698 0.155789 0.462623
O O10 0.273213 0.101240 0.374156
O O11 0.500000 0.434602 0.452147
O O12 0.500000 0.557815 0.403476
O O13 0.856312 0.546467 0.250000
O O14 0.000000 0.565398 0.135239
#
# Coordination Sequence:
#
# PCOD9470425 Si02
#       7
#    16  16  16   8  16   8   4
#     4  10  20  34  59  85 108 142 186 233 284 338
#     4  10  19  33  53  84 113 145 180 226 284 332
#     4  11  19  34  51  82 110 146 186 222 272 333
#     4  11  19  40  59  81 112 139 191 250 269 333
#     4  10  19  32  51  82 114 142 172 225 285 335
#     4  10  24  34  58  83 108 152 190 229 291 317
#     4  10  20  30  50  80 112 144 178 222 274 310
#
# _framework density 21.279432
#
# number of rings (size 3 to 8) (size 9 to 14) (size 15 to 20)
#    0.000    1.714    4.762    0.857    0.000    1.524 
#    3.429    0.952    0.000    3.429    0.000    0.000 
#    0.000    0.000    0.000    0.000    0.000    0.000 
#
# Total GULP energy -233912.860038 kJ/mol
# GULP energy per Si atom -5569.353810 kJ/mol
# Density = 2.123100 g / cm^3
# Si number density = 21.279432 Si / 1000 Ang^3
#
#
#
# Elastic Constant Matrix: (Units=GPa)
#
#
# Indices 1 2 3 4 5 6 
#
# 1 115.6340 43.8898 -0.0177 0.0000 0.0000 0.0000
# 2 43.8898 136.4071 4.3416 0.0000 0.0000 0.0000
# 3 -0.0177 4.3416 29.2696 0.0000 0.0000 0.0000
# 4 0.0000 0.0000 0.0000 15.5088 0.0000 0.0000
# 5 0.0000 0.0000 0.0000 0.0000 7.1834 0.0000
# 6 0.0000 0.0000 0.0000 0.0000 0.0000 38.5620
#
#
#
# Elastic Compliance Matrix: (Units=1/GPa)
#
#
# Indices 1 2 3 4 5 6 
#
# 1 0.009858 -0.003187 0.000479 0.000000 0.000000 0.000000
# 2 -0.003187 0.008396 -0.001247 0.000000 0.000000 0.000000
# 3 0.000479 -0.001247 0.034351 0.000000 0.000000 0.000000
# 4 0.000000 0.000000 0.000000 0.064479 0.000000 0.000000
# 5 0.000000 0.000000 0.000000 0.000000 0.139209 0.000000
# 6 0.000000 0.000000 0.000000 0.000000 0.000000 0.025932
#
#
# Mechanical properties :
#
#
# Convention : Reuss Voigt Hill
#
# Bulk Modulus (GPa) = 22.37485 41.97088 32.17287
# Shear Modulus (GPa) = 16.39159 27.79064 22.09111
#
# Velocity S-wave (km/s) = 2.77844 3.61776 3.22552
# Velocity P-wave (km/s) = 4.56405 6.10061 5.38739
#
# Compressibility (1/GPa) = 0.04469304
#
# Stress axis : x y z
#
# Youngs Moduli (GPa) = 101.44347 119.10235 29.11165
#
# Poissons Ratio (x) = 0.37958 -0.01394
# Poissons Ratio (y) = 0.32330 0.03631
# Poissons Ratio (z) = -0.04856 0.14856
#
# Static dielectric constant tensor:
#      x y z
#    x 1.727850 0.000000 0.000000 
#    y 0.000000 1.780090 0.000000 
#    z 0.000000 0.000000 1.824020 
# 
# From -- ./inp_files/52814.got.cif
#   From: 2010.05.17/outbox.cif.g08.bks.cpg/sg63_27_cif.got.tgz:52814.got - 2010.06.03 15:47:04.
