data_PCOD9470647
_publ_section_title
;
Structure prediction by ZEFSAII (Michael W. Deem and Ramdas Pophale) SiO2 
 PCOD9470647
Probable space group: C M C M
;
_chemical_formula_sum "Si O2"
_cell_formula_units_Z 80
_cell_length_a 30.280103
_cell_length_b 14.814713
_cell_length_c 7.988248
_cell_angle_alpha 90.000000
_cell_angle_beta 90.000000
_cell_angle_gamma 90.000000
_cell_volume 3583.456443
_symmetry_space_group_name_H-M "C M C M"
_symmetry_group_IT_number 63
_symmetry_cell_setting 'orthorhombic'
loop_
_space_group_symop_operation_xyz
x,y,z
-x,-y,1/2+z
x,-y,-z
-x,y,1/2-z
-x,-y,-z
x,y,1/2-z
-x,y,z
x,-y,1/2+z
1/2+x,1/2+y,z
1/2-x,1/2-y,1/2+z
1/2+x,1/2-y,-z
1/2-x,1/2+y,1/2-z
1/2-x,1/2-y,-z
1/2+x,1/2+y,1/2-z
1/2-x,1/2+y,z
1/2+x,1/2-y,1/2+z
loop_
_atom_site_type_symbol
_atom_site_label
_atom_site_fract_x
_atom_site_fract_y
_atom_site_fract_z
Si Si1 0.948767 0.142354 0.750000
Si Si2 0.948923 0.635529 0.250000
Si Si3 0.895876 0.147093 0.069335
Si Si4 0.704589 0.895036 0.450744
Si Si5 0.893327 0.643279 0.939221
Si Si6 0.799840 0.105440 0.951311
O O1 0.946680 0.253434 0.750000
O O2 0.922927 0.109261 0.586013
O O3 0.000000 0.117409 0.750000
O O4 0.923933 0.602964 0.416899
O O5 0.000000 0.609940 0.250000
O O6 0.905156 0.105032 0.250000
O O7 0.907408 0.252778 0.077646
O O8 0.843578 0.143833 0.034458
O O9 0.705934 0.887157 0.250000
O O10 0.657441 0.856535 0.503620
O O11 0.752003 0.858377 0.511821
O O12 0.703255 0.000000 0.500000
O O13 0.894719 0.603834 0.750000
O O14 0.803165 0.115104 0.750000
O O15 0.799837 0.000000 0.000000
#
# Coordination Sequence:
#
# PCOD9470647 Si02
#       6
#     8   8  16  16  16  16
#     4   9  18  34  54  77 104 132 169 216 258 304
#     4   9  18  32  54  79 100 132 173 212 260 310
#     4  10  19  33  53  78 106 136 170 210 260 306
#     4   9  19  33  50  75 104 139 178 211 251 305
#     4   9  19  34  51  77 108 134 169 215 259 303
#     4  10  19  33  51  75 106 139 177 212 249 305
#
# _framework density 22.324815000000001
#
# number of rings (size 3 to 8) (size 9 to 14) (size 15 to 20)
#    0.000    2.600    1.000    0.600    1.400    2.400 
#    0.000    4.000    0.000    1.200    0.000    0.000 
#    0.000    0.000    0.000    0.000    0.000    0.000 
#
# Total GULP energy -223181.397693 kJ/mol
# GULP energy per Si atom -5579.534942 kJ/mol
# Density = 2.227400 g / cm^3
# Si number density = 22.324815 Si / 1000 Ang^3
#
#
#
# Elastic Constant Matrix: (Units=GPa)
#
#
# Indices 1 2 3 4 5 6 
#
# 1 170.8459 -5.4704 106.7141 0.0000 0.0000 0.0000
# 2 -5.4704 39.8656 5.3759 0.0000 0.0000 0.0000
# 3 106.7141 5.3759 156.3362 0.0000 0.0000 0.0000
# 4 0.0000 0.0000 0.0000 12.5935 0.0000 0.0000
# 5 0.0000 0.0000 0.0000 0.0000 19.2758 0.0000
# 6 0.0000 0.0000 0.0000 0.0000 0.0000 40.6464
#
#
#
# Elastic Compliance Matrix: (Units=1/GPa)
#
#
# Indices 1 2 3 4 5 6 
#
# 1 0.010428 0.002402 -0.007200 0.000000 0.000000 0.000000
# 2 0.002402 0.025754 -0.002525 0.000000 0.000000 0.000000
# 3 -0.007200 -0.002525 0.011398 0.000000 0.000000 0.000000
# 4 0.000000 0.000000 0.000000 0.079406 0.000000 0.000000
# 5 0.000000 0.000000 0.000000 0.000000 0.051879 0.000000
# 6 0.000000 0.000000 0.000000 0.000000 0.000000 0.024602
#
#
# Mechanical properties :
#
#
# Convention : Reuss Voigt Hill
#
# Bulk Modulus (GPa) = 30.36473 64.47634 47.42053
# Shear Modulus (GPa) = 21.82526 31.86501 26.84514
#
# Velocity S-wave (km/s) = 3.13009 3.78211 3.47144
# Velocity P-wave (km/s) = 5.16664 6.92937 6.11189
#
# Compressibility (1/GPa) = 0.03293295
#
# Stress axis : x y z
#
# Youngs Moduli (GPa) = 95.89821 38.82836 87.73231
#
# Poissons Ratio (x) = -0.09326 0.63172
# Poissons Ratio (y) = -0.23034 0.22153
# Poissons Ratio (z) = 0.69051 0.09805
#
# Static dielectric constant tensor:
#      x y z
#    x 1.808020 0.000000 0.000000 
#    y 0.000000 1.856170 0.000000 
#    z 0.000000 0.000000 1.834630 
# 
# From -- ./inp_files/12121.got.cif
#   From: 2010.05.17/outbox.cif.g08.bks.cpg/sg63_7_cif.got.tgz:12121.got - 2010.06.03 15:47:04.
