data_PCOD9470779
_publ_section_title
;
Structure prediction by ZEFSAII (Michael W. Deem and Ramdas Pophale) SiO2 
 PCOD9470779
Probable space group: C M C M
;
_chemical_formula_sum "Si O2"
_cell_formula_units_Z 80
_cell_length_a 8.431593
_cell_length_b 19.472183
_cell_length_c 26.901000
_cell_angle_alpha 90.000000
_cell_angle_beta 90.000000
_cell_angle_gamma 90.000000
_cell_volume 4416.647120
_symmetry_space_group_name_H-M "C M C M"
_symmetry_group_IT_number 63
_symmetry_cell_setting 'orthorhombic'
loop_
_space_group_symop_operation_xyz
x,y,z
-x,-y,1/2+z
x,-y,-z
-x,y,1/2-z
-x,-y,-z
x,y,1/2-z
-x,y,z
x,-y,1/2+z
1/2+x,1/2+y,z
1/2-x,1/2-y,1/2+z
1/2+x,1/2-y,-z
1/2-x,1/2+y,1/2-z
1/2-x,1/2-y,-z
1/2+x,1/2+y,1/2-z
1/2-x,1/2+y,z
1/2+x,1/2-y,1/2+z
loop_
_atom_site_type_symbol
_atom_site_label
_atom_site_fract_x
_atom_site_fract_y
_atom_site_fract_z
Si Si1 0.306787 0.323230 0.358011
Si Si2 0.187396 0.083198 0.549694
Si Si3 0.688414 0.333249 0.640365
Si Si4 0.185624 0.833099 0.250000
Si Si5 0.815413 0.567576 0.056609
Si Si6 0.189500 0.819619 0.750000
O O1 0.500000 0.320092 0.356733
O O2 0.259104 0.369718 0.404544
O O3 0.241943 0.246076 0.363432
O O4 0.250946 0.353410 0.304438
O O5 0.272450 0.097926 0.497495
O O6 0.000000 0.093511 0.542638
O O7 0.219194 0.003336 0.561644
O O8 0.500000 0.337497 0.632403
O O9 0.773636 0.379872 0.600027
O O10 0.721979 0.355662 0.697533
O O11 0.210925 0.750669 0.250000
O O12 0.000000 0.850701 0.250000
O O13 0.000000 0.550124 0.057443
O O14 0.000000 0.802015 0.750000
#
# Coordination Sequence:
#
# PCOD9470779 Si02
#       6
#    16  16  16   8  16   8
#     4   9  18  32  53  79 104 131 164 204 248 297
#     4  10  20  36  55  74 100 134 171 209 254 304
#     4  10  19  33  54  78 104 133 167 207 249 296
#     4   8  14  28  49  74 103 131 159 195 245 298
#     4  11  22  36  53  73 100 134 172 211 255 303
#     4   8  16  30  49  74 101 131 165 201 245 294
#
# _framework density 18.113288000000001
#
# number of rings (size 3 to 8) (size 9 to 14) (size 15 to 20)
#    0.000    2.400    0.000    4.200    0.000    3.200 
#    0.000    1.000    0.000    3.600    0.000    0.000 
#    0.000    0.000    0.000    0.000    0.000    0.000 
#
# Total GULP energy -222947.736756 kJ/mol
# GULP energy per Si atom -5573.693419 kJ/mol
# Density = 1.807206 g / cm^3
# Si number density = 18.113288 Si / 1000 Ang^3
#
#
#
# Elastic Constant Matrix: (Units=GPa)
#
#
# Indices 1 2 3 4 5 6 
#
# 1 15.2006 -4.6643 2.2591 0.0000 0.0000 0.0000
# 2 -4.6643 34.0449 50.2718 0.0000 0.0000 0.0000
# 3 2.2591 50.2718 138.9313 0.0000 0.0000 0.0000
# 4 0.0000 0.0000 0.0000 -65.6964 0.0000 0.0000
# 5 0.0000 0.0000 0.0000 0.0000 17.5850 0.0000
# 6 0.0000 0.0000 0.0000 0.0000 0.0000 21.5157
#
#
#
# Elastic Compliance Matrix: (Units=1/GPa)
#
#
# Indices 1 2 3 4 5 6 
#
# 1 0.075366 0.026059 -0.010655 0.000000 0.000000 0.000000
# 2 0.026059 0.072085 -0.026507 0.000000 0.000000 0.000000
# 3 -0.010655 -0.026507 0.016963 0.000000 0.000000 0.000000
# 4 0.000000 0.000000 0.000000 -0.015222 0.000000 0.000000
# 5 0.000000 0.000000 0.000000 0.000000 0.056867 0.000000
# 6 0.000000 0.000000 0.000000 0.000000 0.000000 0.046478
#
#
# Mechanical properties :
#
#
# Convention : Reuss Voigt Hill
#
# Bulk Modulus (GPa) = 7.03200 31.54556 19.28878
# Shear Modulus (GPa) = 15.52092 4.03488 9.77790
#
# Velocity S-wave (km/s) = 2.93043 1.49413 2.32592
# Velocity P-wave (km/s) = 3.91670 4.51996 4.22910
#
# Compressibility (1/GPa) = 0.14220708
#
# Stress axis : x y z
#
# Youngs Moduli (GPa) = 13.26853 13.87251 58.95295
#
# Poissons Ratio (x) = -0.36150 0.62813
# Poissons Ratio (y) = -0.34576 1.56269
# Poissons Ratio (z) = 0.14137 0.36772
#
# Static dielectric constant tensor:
#      x y z
#    x 1.611180 0.000000 0.000000 
#    y 0.000000 1.573020 0.000000 
#    z 0.000000 0.000000 1.662820 
# 
# From -- ./inp_files/59523.got.cif
#   From: 2010.05.17/outbox.cif.g08.bks.cpg/sg63_30_cif.got.tgz:59523.got - 2010.06.03 15:47:04.
