data_PCOD9470660
_publ_section_title
;
Structure prediction by ZEFSAII (Michael W. Deem and Ramdas Pophale) SiO2 
 PCOD9470660
Probable space group: C M C M
;
_chemical_formula_sum "Si O2"
_cell_formula_units_Z 88
_cell_length_a 24.858920
_cell_length_b 24.518178
_cell_length_c 9.324957
_cell_angle_alpha 90.000000
_cell_angle_beta 90.000000
_cell_angle_gamma 90.000000
_cell_volume 5683.518634
_symmetry_space_group_name_H-M "C M C M"
_symmetry_group_IT_number 63
_symmetry_cell_setting 'orthorhombic'
loop_
_space_group_symop_operation_xyz
x,y,z
-x,-y,1/2+z
x,-y,-z
-x,y,1/2-z
-x,-y,-z
x,y,1/2-z
-x,y,z
x,-y,1/2+z
1/2+x,1/2+y,z
1/2-x,1/2-y,1/2+z
1/2+x,1/2-y,-z
1/2-x,1/2+y,1/2-z
1/2-x,1/2-y,-z
1/2+x,1/2+y,1/2-z
1/2-x,1/2+y,z
1/2+x,1/2-y,1/2+z
loop_
_atom_site_type_symbol
_atom_site_label
_atom_site_fract_x
_atom_site_fract_y
_atom_site_fract_z
Si Si1 0.500000 0.055188 0.085341
Si Si2 0.166694 0.761403 0.419923
Si Si3 0.563493 0.235419 0.586173
Si Si4 0.752083 0.337100 0.579091
Si Si5 0.708047 0.058001 0.581385
Si Si6 0.411434 0.107565 0.592458
O O1 0.500000 0.044621 0.250000
O O2 0.552184 0.087439 0.035884
O O3 0.500000 0.000000 0.000000
O O4 0.168827 0.772411 0.250000
O O5 0.106102 0.762602 0.479628
O O6 0.195379 0.702072 0.442152
O O7 0.203338 0.803677 0.507873
O O8 0.568586 0.256572 0.750000
O O9 0.500000 0.237576 0.547236
O O10 0.582943 0.172566 0.591373
O O11 0.744973 0.343543 0.750000
O O12 0.758918 0.394893 0.500571
O O13 0.722956 0.052580 0.750000
O O14 0.647316 0.081964 0.578452
O O15 0.710729 0.000000 0.500000
O O16 0.432518 0.089704 0.750000
#
# Coordination Sequence:
#
# PCOD9470660 Si02
#       6
#     8  16  16  16  16  16
#     4  12  24  34  46  60  82 118 166 216 257 296
#     4  10  20  33  52  76 101 129 167 211 256 305
#     4  10  19  33  52  72  99 133 168 208 256 303
#     4  10  20  34  53  75 100 130 168 209 256 308
#     4  11  22  35  52  72  99 131 168 211 256 303
#     4  10  20  35  50  66  91 126 167 210 253 296
#
# _framework density 15.483366
#
# number of rings (size 3 to 8) (size 9 to 14) (size 15 to 20)
#    0.000    1.636    2.727    3.000    0.000    5.455 
#    0.000    0.000    0.000    0.000    0.000    0.000 
#    0.000    0.727    0.000    2.727    0.000    4.182 
#
# Total GULP energy -245342.557435 kJ/mol
# GULP energy per Si atom -5575.967214 kJ/mol
# Density = 1.544813 g / cm^3
# Si number density = 15.483366 Si / 1000 Ang^3
#
#
#
# Elastic Constant Matrix: (Units=GPa)
#
#
# Indices 1 2 3 4 5 6 
#
# 1 79.7943 39.2598 58.7162 0.0000 0.0000 0.0000
# 2 39.2598 69.9015 52.6524 0.0000 0.0000 0.0000
# 3 58.7162 52.6524 134.7826 0.0000 0.0000 0.0000
# 4 0.0000 0.0000 0.0000 26.6790 0.0000 0.0000
# 5 0.0000 0.0000 0.0000 0.0000 -12.4775 0.0000
# 6 0.0000 0.0000 0.0000 0.0000 0.0000 19.8917
#
#
#
# Elastic Compliance Matrix: (Units=1/GPa)
#
#
# Indices 1 2 3 4 5 6 
#
# 1 0.020486 -0.006778 -0.006276 0.000000 0.000000 0.000000
# 2 -0.006778 0.022513 -0.005842 0.000000 0.000000 0.000000
# 3 -0.006276 -0.005842 0.012436 0.000000 0.000000 0.000000
# 4 0.000000 0.000000 0.000000 0.037483 0.000000 0.000000
# 5 0.000000 0.000000 0.000000 0.000000 -0.080145 0.000000
# 6 0.000000 0.000000 0.000000 0.000000 0.000000 0.050272
#
#
# Mechanical properties :
#
#
# Convention : Reuss Voigt Hill
#
# Bulk Modulus (GPa) = 56.68406 65.08168 60.88287
# Shear Modulus (GPa) = 46.85250 15.74197 31.29724
#
# Velocity S-wave (km/s) = 5.50687 3.19204 4.50082
# Velocity P-wave (km/s) = 8.78198 7.46391 8.14964
#
# Compressibility (1/GPa) = 0.01764164
#
# Stress axis : x y z
#
# Youngs Moduli (GPa) = 48.81483 44.41889 80.41339
#
# Poissons Ratio (x) = 0.30107 0.50471
# Poissons Ratio (y) = 0.33086 0.46977
# Poissons Ratio (z) = 0.30639 0.25949
#
# Static dielectric constant tensor:
#      x y z
#    x 1.514990 0.000000 0.000000 
#    y 0.000000 1.518770 0.000000 
#    z 0.000000 0.000000 1.519830 
# 
# From -- ./inp_files/8247.got.cif
#   From: 2010.05.17/outbox.cif.g08.bks.cpg/sg63_5_cif.got.tgz:8247.got - 2010.06.03 15:47:04.
