data_PCOD9470051
_publ_section_title
;
Structure prediction by ZEFSAII (Michael W. Deem and Ramdas Pophale) SiO2 
 PCOD9470051
Probable space group: C M C M
;
_chemical_formula_sum "Si O2"
_cell_formula_units_Z 112
_cell_length_a 20.995119
_cell_length_b 19.152334
_cell_length_c 17.462491
_cell_angle_alpha 90.000000
_cell_angle_beta 90.000000
_cell_angle_gamma 90.000000
_cell_volume 7021.764224
_symmetry_space_group_name_H-M "C M C M"
_symmetry_group_IT_number 63
_symmetry_cell_setting 'orthorhombic'
loop_
_space_group_symop_operation_xyz
x,y,z
-x,-y,1/2+z
x,-y,-z
-x,y,1/2-z
-x,-y,-z
x,y,1/2-z
-x,y,z
x,-y,1/2+z
1/2+x,1/2+y,z
1/2-x,1/2-y,1/2+z
1/2+x,1/2-y,-z
1/2-x,1/2+y,1/2-z
1/2-x,1/2-y,-z
1/2+x,1/2+y,1/2-z
1/2-x,1/2+y,z
1/2+x,1/2-y,1/2+z
loop_
_atom_site_type_symbol
_atom_site_label
_atom_site_fract_x
_atom_site_fract_y
_atom_site_fract_z
Si Si1 0.734270 0.884259 0.340391
Si Si2 0.744829 0.336826 0.838793
Si Si3 0.069592 0.961885 0.582050
Si Si4 0.370910 0.776592 0.163224
Si Si5 0.429576 0.699131 0.031831
Si Si6 0.804148 0.230074 0.563115
Si Si7 0.209260 0.982730 0.909169
O O1 0.746808 0.874871 0.250000
O O2 0.665233 0.849128 0.354291
O O3 0.781986 0.838569 0.391786
O O4 0.745514 0.963159 0.365578
O O5 0.755020 0.355385 0.750000
O O6 0.685137 0.282586 0.840759
O O7 0.802068 0.293376 0.876546
O O8 0.730007 0.404251 0.889564
O O9 0.076944 0.879391 0.565157
O O10 0.135389 0.988310 0.618731
O O11 0.000000 0.973029 0.619798
O O12 0.066876 0.000000 0.500000
O O13 0.394877 0.777833 0.250000
O O14 0.421847 0.752902 0.101780
O O15 0.500000 0.703833 0.996976
O O16 0.371259 0.715870 0.976126
O O17 0.750000 0.250000 0.500000
O O18 0.210864 0.000000 0.000000
#
# Coordination Sequence:
#
# PCOD9470051 Si02
#       7
#    16  16  16  16  16  16  16
#     4  10  20  32  50  72 102 136 172 213 261 301
#     4  10  19  31  49  71 101 134 167 210 262 303
#     4   9  17  29  43  66 103 140 166 197 246 294
#     4   9  18  33  49  70 102 136 165 211 265 310
#     4  11  20  31  52  78 103 135 175 218 255 302
#     4  11  17  32  53  72  98 133 172 213 254 304
#     4  11  19  29  49  77 100 130 170 220 250 298
#
# _framework density 15.950407999999999
#
# number of rings (size 3 to 8) (size 9 to 14) (size 15 to 20)
#    0.000    1.857    4.286    4.286    0.000    0.286 
#    0.000    0.000    0.000    4.286    0.000    2.000 
#    0.000    2.286    0.000    0.000    0.000    0.000 
#
# Total GULP energy -312002.923960 kJ/mol
# GULP energy per Si atom -5571.480785 kJ/mol
# Density = 1.591410 g / cm^3
# Si number density = 15.950408 Si / 1000 Ang^3
#
#
#
# Elastic Constant Matrix: (Units=GPa)
#
#
# Indices 1 2 3 4 5 6 
#
# 1 46.8654 9.3360 12.4983 0.0000 0.0000 0.0000
# 2 9.3360 54.2466 -5.0992 0.0000 0.0000 0.0000
# 3 12.4983 -5.0992 42.3354 0.0000 0.0000 0.0000
# 4 0.0000 0.0000 0.0000 26.3186 0.0000 0.0000
# 5 0.0000 0.0000 0.0000 0.0000 12.4819 0.0000
# 6 0.0000 0.0000 0.0000 0.0000 0.0000 193.4673
#
#
#
# Elastic Compliance Matrix: (Units=1/GPa)
#
#
# Indices 1 2 3 4 5 6 
#
# 1 0.024400 -0.004932 -0.007797 0.000000 0.000000 0.000000
# 2 -0.004932 0.019642 0.003822 0.000000 0.000000 0.000000
# 3 -0.007797 0.003822 0.026383 0.000000 0.000000 0.000000
# 4 0.000000 0.000000 0.000000 0.037996 0.000000 0.000000
# 5 0.000000 0.000000 0.000000 0.000000 0.080116 0.000000
# 6 0.000000 0.000000 0.000000 0.000000 0.000000 0.005169
#
#
# Mechanical properties :
#
#
# Convention : Reuss Voigt Hill
#
# Bulk Modulus (GPa) = 19.00775 19.65752 19.33263
# Shear Modulus (GPa) = 21.82851 54.90103 38.36477
#
# Velocity S-wave (km/s) = 3.70337 5.87321 4.90966
# Velocity P-wave (km/s) = 5.49811 7.63830 6.65481
#
# Compressibility (1/GPa) = 0.05261011
#
# Stress axis : x y z
#
# Youngs Moduli (GPa) = 40.98416 50.91016 37.90289
#
# Poissons Ratio (x) = 0.25110 0.29554
# Poissons Ratio (y) = 0.20214 -0.14486
# Poissons Ratio (z) = 0.31957 -0.19458
#
# Static dielectric constant tensor:
#      x y z
#    x 1.546540 0.000000 0.000000 
#    y 0.000000 1.539060 0.000000 
#    z 0.000000 0.000000 1.554590 
# 
# From -- ./inp_files/47333.got.cif
#   From: 2010.05.17/outbox.cif.g08.bks.cpg/sg63_24_cif.got.tgz:47333.got - 2010.06.03 15:47:04.
