data_PCOD9470345
_publ_section_title
;
Structure prediction by ZEFSAII (Michael W. Deem and Ramdas Pophale) SiO2 
 PCOD9470345
Probable space group: C M C M
;
_chemical_formula_sum "Si O2"
_cell_formula_units_Z 128
_cell_length_a 7.429343
_cell_length_b 27.726288
_cell_length_c 27.755544
_cell_angle_alpha 90.000000
_cell_angle_beta 90.000000
_cell_angle_gamma 90.000000
_cell_volume 5717.311875
_symmetry_space_group_name_H-M "C M C M"
_symmetry_group_IT_number 63
_symmetry_cell_setting 'orthorhombic'
loop_
_space_group_symop_operation_xyz
x,y,z
-x,-y,1/2+z
x,-y,-z
-x,y,1/2-z
-x,-y,-z
x,y,1/2-z
-x,y,z
x,-y,1/2+z
1/2+x,1/2+y,z
1/2-x,1/2-y,1/2+z
1/2+x,1/2-y,-z
1/2-x,1/2+y,1/2-z
1/2-x,1/2-y,-z
1/2+x,1/2+y,1/2-z
1/2-x,1/2+y,z
1/2+x,1/2-y,1/2+z
loop_
_atom_site_type_symbol
_atom_site_label
_atom_site_fract_x
_atom_site_fract_y
_atom_site_fract_z
Si Si1 0.784364 0.069645 0.376033
Si Si2 0.781229 0.875800 0.436417
Si Si3 0.207264 0.945486 0.984361
Si Si4 0.784530 0.480941 0.196407
Si Si5 0.713105 0.303063 0.517228
Si Si6 0.295552 0.873277 0.326393
Si Si7 0.279887 0.677769 0.126121
Si Si8 0.281268 0.765404 0.304699
O O1 0.715769 0.062364 0.431069
O O2 0.750834 0.022983 0.342581
O O3 0.725206 0.123192 0.358567
O O4 0.000000 0.072021 0.379068
O O5 0.717680 0.920485 0.468244
O O6 0.722839 0.833883 0.472230
O O7 0.702129 0.873038 0.383983
O O8 0.000000 0.876066 0.430035
O O9 0.000000 0.927226 0.980903
O O10 0.203004 0.000000 0.000000
O O11 0.724196 0.495960 0.250000
O O12 0.715730 0.425985 0.187032
O O13 0.000000 0.476504 0.196669
O O14 0.500000 0.311344 0.520344
O O15 0.750000 0.250000 0.500000
O O16 0.781031 0.315004 0.570643
O O17 0.500000 0.872999 0.307065
O O18 0.216275 0.820802 0.312414
O O19 0.500000 0.678852 0.127142
O O20 0.220454 0.723486 0.158420
O O21 0.238297 0.751153 0.250000
O O22 0.500000 0.767487 0.309423
#
# Coordination Sequence:
#
# PCOD9470345 Si02
#       8
#    16  16  16  16  16  16  16  16
#     4  10  19  34  56  81 107 138 180 226 264 309
#     4  10  19  32  51  77 107 139 171 207 261 319
#     4   9  16  28  48  73 102 136 170 205 252 310
#     4  10  22  39  56  76 107 145 179 219 275 328
#     4  10  19  32  50  75 108 143 176 213 259 314
#     4  10  20  35  55  79 106 136 177 224 266 319
#     4   9  17  31  51  77 110 138 170 221 271 312
#     4   9  17  30  51  77 102 133 174 221 272 317
#
# _framework density 22.388144
#
# number of rings (size 3 to 8) (size 9 to 14) (size 15 to 20)
#    0.000    2.375    1.250    1.875    0.000    5.250 
#    0.000    2.500    0.000    4.125    0.000    0.000 
#    0.000    0.000    0.000    0.000    0.000    0.000 
#
# Total GULP energy -356808.939760 kJ/mol
# GULP energy per Si atom -5575.139684 kJ/mol
# Density = 2.233719 g / cm^3
# Si number density = 22.388144 Si / 1000 Ang^3
#
#
#
# Elastic Constant Matrix: (Units=GPa)
#
#
# Indices 1 2 3 4 5 6 
#
# 1 67.0849 11.6634 3.7369 0.0000 0.0000 0.0000
# 2 11.6634 149.0829 56.0912 0.0000 0.0000 0.0000
# 3 3.7369 56.0912 150.1894 0.0000 0.0000 0.0000
# 4 0.0000 0.0000 0.0000 41.6810 0.0000 0.0000
# 5 0.0000 0.0000 0.0000 0.0000 9.8272 0.0000
# 6 0.0000 0.0000 0.0000 0.0000 0.0000 2.6631
#
#
#
# Elastic Compliance Matrix: (Units=1/GPa)
#
#
# Indices 1 2 3 4 5 6 
#
# 1 0.015113 -0.001211 0.000076 0.000000 0.000000 0.000000
# 2 -0.001211 0.007901 -0.002921 0.000000 0.000000 0.000000
# 3 0.000076 -0.002921 0.007747 0.000000 0.000000 0.000000
# 4 0.000000 0.000000 0.000000 0.023992 0.000000 0.000000
# 5 0.000000 0.000000 0.000000 0.000000 0.101758 0.000000
# 6 0.000000 0.000000 0.000000 0.000000 0.000000 0.375499
#
#
# Mechanical properties :
#
#
# Convention : Reuss Voigt Hill
#
# Bulk Modulus (GPa) = 44.14971 56.59336 50.37154
# Shear Modulus (GPa) = 9.12955 30.49198 19.81077
#
# Velocity S-wave (km/s) = 2.02156 3.69449 2.97792
# Velocity P-wave (km/s) = 5.02114 6.59789 5.86277
#
# Compressibility (1/GPa) = 0.02265020
#
# Stress axis : x y z
#
# Youngs Moduli (GPa) = 66.16916 126.56080 129.07911
#
# Poissons Ratio (x) = 0.15327 -0.00984
# Poissons Ratio (y) = 0.08013 0.37701
# Poissons Ratio (z) = -0.00505 0.36966
#
# Static dielectric constant tensor:
#      x y z
#    x 1.972000 0.000000 0.000000 
#    y 0.000000 1.778490 0.000000 
#    z 0.000000 0.000000 1.783010 
# 
# From -- ./inp_files/68799.got.cif
#   From: 2010.05.17/outbox.cif.g08.bks.cpg/sg63_35_cif.got.tgz:68799.got - 2010.06.03 15:47:04.
