data_PCOD9470556
_publ_section_title
;
Structure prediction by ZEFSAII (Michael W. Deem and Ramdas Pophale) SiO2 
 PCOD9470556
Probable space group: C M C M
;
_chemical_formula_sum "Si O2"
_cell_formula_units_Z 88
_cell_length_a 25.074581
_cell_length_b 5.163994
_cell_length_c 28.368293
_cell_angle_alpha 90.000000
_cell_angle_beta 90.000000
_cell_angle_gamma 90.000000
_cell_volume 3673.268017
_symmetry_space_group_name_H-M "C M C M"
_symmetry_group_IT_number 63
_symmetry_cell_setting 'orthorhombic'
loop_
_space_group_symop_operation_xyz
x,y,z
-x,-y,1/2+z
x,-y,-z
-x,y,1/2-z
-x,-y,-z
x,y,1/2-z
-x,y,z
x,-y,1/2+z
1/2+x,1/2+y,z
1/2-x,1/2-y,1/2+z
1/2+x,1/2-y,-z
1/2-x,1/2+y,1/2-z
1/2-x,1/2-y,-z
1/2+x,1/2+y,1/2-z
1/2-x,1/2+y,z
1/2+x,1/2-y,1/2+z
loop_
_atom_site_type_symbol
_atom_site_label
_atom_site_fract_x
_atom_site_fract_y
_atom_site_fract_z
Si Si1 0.438257 0.407841 0.649647
Si Si2 0.214151 0.561957 0.750000
Si Si3 0.664884 0.935675 0.049818
Si Si4 0.783222 0.563559 0.350033
Si Si5 0.934625 0.592630 0.196708
Si Si6 0.096014 0.933805 0.451105
O O1 0.500000 0.391091 0.662937
O O2 0.412852 0.627079 0.682417
O O3 0.434155 0.501958 0.596479
O O4 0.417280 0.122697 0.659254
O O5 0.263040 0.352713 0.750000
O O6 0.187458 0.504666 0.800588
O O7 0.615579 0.138971 0.048287
O O8 0.692494 0.999939 0.099109
O O9 0.645575 0.638530 0.049488
O O10 0.694237 0.000000 0.000000
O O11 0.766963 0.864205 0.348285
O O12 0.922314 0.516002 0.250000
O O13 0.000000 0.612978 0.194437
O O14 0.067203 0.000000 0.500000
#
# Coordination Sequence:
#
# PCOD9470556 Si02
#       6
#    16   8  16  16  16  16
#     4  10  19  32  54  79 100 134 182 226 262 309
#     4   8  16  30  50  76 102 132 165 200 255 306
#     4  10  21  36  54  76 107 145 175 211 270 322
#     4  10  19  33  56  82 105 135 174 216 255 305
#     4   9  17  30  50  75 102 131 165 211 268 320
#     4  10  21  37  54  73 104 145 177 213 271 325
#
# _framework density 23.956866999999999
#
# number of rings (size 3 to 8) (size 9 to 14) (size 15 to 20)
#    0.000    2.364    0.000    2.727    0.000    3.273 
#    0.000    0.000   12.000    6.545    0.000    0.000 
#    0.000    0.000    0.000    0.000    0.000    0.000 
#
# Total GULP energy -245645.719633 kJ/mol
# GULP energy per Si atom -5582.857264 kJ/mol
# Density = 2.390234 g / cm^3
# Si number density = 23.956867 Si / 1000 Ang^3
#
#
#
# Elastic Constant Matrix: (Units=GPa)
#
#
# Indices 1 2 3 4 5 6 
#
# 1 28.3022 8.6079 12.1780 0.0000 0.0000 0.0000
# 2 8.6079 87.3638 23.0455 0.0000 0.0000 0.0000
# 3 12.1780 23.0455 121.2209 0.0000 0.0000 0.0000
# 4 0.0000 0.0000 0.0000 44.5869 0.0000 0.0000
# 5 0.0000 0.0000 0.0000 0.0000 42.6652 0.0000
# 6 0.0000 0.0000 0.0000 0.0000 0.0000 7.8522
#
#
#
# Elastic Compliance Matrix: (Units=1/GPa)
#
#
# Indices 1 2 3 4 5 6 
#
# 1 0.037592 -0.002851 -0.003235 0.000000 0.000000 0.000000
# 2 -0.002851 0.012267 -0.002046 0.000000 0.000000 0.000000
# 3 -0.003235 -0.002046 0.008963 0.000000 0.000000 0.000000
# 4 0.000000 0.000000 0.000000 0.022428 0.000000 0.000000
# 5 0.000000 0.000000 0.000000 0.000000 0.023438 0.000000
# 6 0.000000 0.000000 0.000000 0.000000 0.000000 0.127352
#
#
# Mechanical properties :
#
#
# Convention : Reuss Voigt Hill
#
# Bulk Modulus (GPa) = 23.49620 36.06108 29.77864
# Shear Modulus (GPa) = 19.04841 31.89122 25.46981
#
# Velocity S-wave (km/s) = 2.82283 3.65251 3.26414
# Velocity P-wave (km/s) = 4.52256 5.73349 5.16365
#
# Compressibility (1/GPa) = 0.04256007
#
# Stress axis : x y z
#
# Youngs Moduli (GPa) = 26.60159 81.52027 111.56655
#
# Poissons Ratio (x) = 0.23239 0.36087
# Poissons Ratio (y) = 0.07583 0.22823
# Poissons Ratio (z) = 0.08604 0.16677
#
# Static dielectric constant tensor:
#      x y z
#    x 1.968090 0.000000 0.000000 
#    y 0.000000 1.869800 0.000000 
#    z 0.000000 0.000000 1.932360 
# 
# From -- ./inp_files/65698.got.cif
#   From: 2010.05.17/outbox.cif.g08.bks.cpg/sg63_33_cif.got.tgz:65698.got - 2010.06.03 15:47:04.
