data_PCOD9470313
_publ_section_title
;
Structure prediction by ZEFSAII (Michael W. Deem and Ramdas Pophale) SiO2 
 PCOD9470313
Probable space group: C M C M
;
_chemical_formula_sum "Si O2"
_cell_formula_units_Z 112
_cell_length_a 7.313761
_cell_length_b 27.419646
_cell_length_c 24.436315
_cell_angle_alpha 90.000000
_cell_angle_beta 90.000000
_cell_angle_gamma 90.000000
_cell_volume 4900.476633
_symmetry_space_group_name_H-M "C M C M"
_symmetry_group_IT_number 63
_symmetry_cell_setting 'orthorhombic'
loop_
_space_group_symop_operation_xyz
x,y,z
-x,-y,1/2+z
x,-y,-z
-x,y,1/2-z
-x,-y,-z
x,y,1/2-z
-x,y,z
x,-y,1/2+z
1/2+x,1/2+y,z
1/2-x,1/2-y,1/2+z
1/2+x,1/2-y,-z
1/2-x,1/2+y,1/2-z
1/2-x,1/2-y,-z
1/2+x,1/2+y,1/2-z
1/2-x,1/2+y,z
1/2+x,1/2-y,1/2+z
loop_
_atom_site_type_symbol
_atom_site_label
_atom_site_fract_x
_atom_site_fract_y
_atom_site_fract_z
Si Si1 0.217170 0.282807 0.947856
Si Si2 0.722390 0.969132 0.870573
Si Si3 0.777137 0.575185 0.914325
Si Si4 0.778889 0.756171 0.334879
Si Si5 0.211230 0.633486 0.809299
Si Si6 0.276723 0.937056 0.750000
Si Si7 0.778283 0.324802 0.750000
Si Si8 0.223583 0.393144 0.964038
O O1 0.286568 0.253381 0.895851
O O2 0.285559 0.337702 0.954847
O O3 0.000000 0.287817 0.939448
O O4 0.250000 0.250000 0.000000
O O5 0.500000 0.968217 0.869514
O O6 0.781224 0.960812 0.807713
O O7 0.779659 0.927269 0.913371
O O8 0.776215 0.021149 0.895373
O O9 0.714077 0.611445 0.865822
O O10 0.000000 0.577033 0.916261
O O11 0.717689 0.588439 0.975823
O O12 0.715077 0.808019 0.312995
O O13 0.723310 0.708546 0.300971
O O14 0.000000 0.758681 0.332159
O O15 0.291413 0.619073 0.750000
O O16 0.000000 0.617368 0.807944
O O17 0.500000 0.938152 0.750000
O O18 0.217627 0.880383 0.750000
O O19 0.000000 0.327138 0.750000
O O20 0.000000 0.393731 0.964388
#
# Coordination Sequence:
#
# PCOD9470313 Si02
#       8
#    16  16  16  16  16   8   8  16
#     4  10  20  32  49  72  99 130 165 204 246 291
#     4   9  16  25  40  62  89 122 158 193 237 289
#     4   9  17  27  42  62  91 126 157 193 236 286
#     4  10  19  32  50  70  94 128 167 202 238 286
#     4  10  20  32  47  70 101 132 161 197 246 296
#     4   9  16  24  37  59  87 117 149 191 238 283
#     4   9  16  28  44  63  89 121 157 199 240 279
#     4   9  16  28  43  63  90 123 161 197 235 284
#
# _framework density 22.854921000000001
#
# number of rings (size 3 to 8) (size 9 to 14) (size 15 to 20)
#    0.000    2.571    0.714    2.143    1.000    6.857 
#    0.000    0.000    0.000    0.000    0.000    1.000 
#    0.000    6.857    0.000    0.000    0.000    0.000 
#
# Total GULP energy -312846.499169 kJ/mol
# GULP energy per Si atom -5586.544628 kJ/mol
# Density = 2.280290 g / cm^3
# Si number density = 22.854921 Si / 1000 Ang^3
#
#
#
# Elastic Constant Matrix: (Units=GPa)
#
#
# Indices 1 2 3 4 5 6 
#
# 1 90.4023 -6.9968 0.8571 0.0000 0.0000 0.0000
# 2 -6.9968 94.8169 45.4863 0.0000 0.0000 0.0000
# 3 0.8571 45.4863 197.4762 0.0000 0.0000 0.0000
# 4 0.0000 0.0000 0.0000 21.0206 0.0000 0.0000
# 5 0.0000 0.0000 0.0000 0.0000 -12.7192 0.0000
# 6 0.0000 0.0000 0.0000 0.0000 0.0000 45.3107
#
#
#
# Elastic Compliance Matrix: (Units=1/GPa)
#
#
# Indices 1 2 3 4 5 6 
#
# 1 0.011138 0.000950 -0.000267 0.000000 0.000000 0.000000
# 2 0.000950 0.011938 -0.002754 0.000000 0.000000 0.000000
# 3 -0.000267 -0.002754 0.005699 0.000000 0.000000 0.000000
# 4 0.000000 0.000000 0.000000 0.047572 0.000000 0.000000
# 5 0.000000 0.000000 0.000000 0.000000 -0.078622 0.000000
# 6 0.000000 0.000000 0.000000 0.000000 0.000000 0.022070
#
#
# Mechanical properties :
#
#
# Convention : Reuss Voigt Hill
#
# Bulk Modulus (GPa) = 40.59597 51.26541 45.93069
# Shear Modulus (GPa) = 155.52724 33.61234 94.56979
#
# Velocity S-wave (km/s) = 8.25818 3.83911 6.43958
# Velocity P-wave (km/s) = 10.42742 6.49085 8.68511
#
# Compressibility (1/GPa) = 0.02463298
#
# Stress axis : x y z
#
# Youngs Moduli (GPa) = 89.78488 83.76719 175.45766
#
# Poissons Ratio (x) = -0.07958 0.04688
# Poissons Ratio (y) = -0.08530 0.48319
# Poissons Ratio (z) = 0.02399 0.23068
#
# Static dielectric constant tensor:
#      x y z
#    x 1.913410 0.000000 0.000000 
#    y 0.000000 1.775500 0.000000 
#    z 0.000000 0.000000 1.773910 
# 
# From -- ./inp_files/61983.got.cif
#   From: 2010.05.17/outbox.cif.g08.bks.cpg/sg63_31_cif.got.tgz:61983.got - 2010.06.03 15:47:04.
