data_PCOD9470857
_publ_section_title
;
Structure prediction by ZEFSAII (Michael W. Deem and Ramdas Pophale) SiO2 
 PCOD9470857
Probable space group: C M C M
;
_chemical_formula_sum "Si O2"
_cell_formula_units_Z 112
_cell_length_a 18.756279
_cell_length_b 20.152880
_cell_length_c 15.907775
_cell_angle_alpha 90.000000
_cell_angle_beta 90.000000
_cell_angle_gamma 90.000000
_cell_volume 6013.028231
_symmetry_space_group_name_H-M "C M C M"
_symmetry_group_IT_number 63
_symmetry_cell_setting 'orthorhombic'
loop_
_space_group_symop_operation_xyz
x,y,z
-x,-y,1/2+z
x,-y,-z
-x,y,1/2-z
-x,-y,-z
x,y,1/2-z
-x,y,z
x,-y,1/2+z
1/2+x,1/2+y,z
1/2-x,1/2-y,1/2+z
1/2+x,1/2-y,-z
1/2-x,1/2+y,1/2-z
1/2-x,1/2-y,-z
1/2+x,1/2+y,1/2-z
1/2-x,1/2+y,z
1/2+x,1/2-y,1/2+z
loop_
_atom_site_type_symbol
_atom_site_label
_atom_site_fract_x
_atom_site_fract_y
_atom_site_fract_z
Si Si1 0.084146 0.797757 0.498252
Si Si2 0.081432 0.662342 0.584200
Si Si3 0.174462 0.749110 0.155864
Si Si4 0.580511 0.940112 0.935429
Si Si5 0.216067 0.596831 0.345075
Si Si6 0.180190 0.072525 0.497795
Si Si7 0.229040 0.622231 0.845040
O O1 0.095433 0.740417 0.568286
O O2 0.116246 0.767166 0.412962
O O3 0.126159 0.866199 0.511012
O O4 0.000000 0.808745 0.491719
O O5 0.083926 0.625560 0.493611
O O6 0.145095 0.629929 0.636823
O O7 0.000000 0.653493 0.615840
O O8 0.143996 0.752239 0.250000
O O9 0.205597 0.675948 0.143870
O O10 0.236419 0.804113 0.150148
O O11 0.500000 0.947547 0.903228
O O12 0.639690 0.935900 0.864560
O O13 0.594713 0.000000 0.000000
O O14 0.239258 0.583545 0.250000
O O15 0.269011 0.573729 0.416961
O O16 0.229705 0.083588 0.580759
O O17 0.145253 0.000000 0.500000
O O18 0.241194 0.596805 0.750000
#
# Coordination Sequence:
#
# PCOD9470857 Si02
#       7
#    16  16  16  16  16  16  16
#     4  10  20  36  59  82 109 150 189 230 291 344
#     4  10  19  33  55  82 113 146 182 223 272 328
#     4   9  18  32  53  85 113 137 177 232 281 334
#     4  10  20  35  52  76 114 150 180 221 272 327
#     4  11  21  34  58  85 111 147 188 227 279 335
#     4  11  23  39  56  80 114 148 192 245 284 325
#     4  10  20  35  57  81 111 147 184 224 278 338
#
# _framework density 18.626223
#
# number of rings (size 3 to 8) (size 9 to 14) (size 15 to 20)
#    0.000    1.857    2.857    1.286    0.000    4.000 
#    0.000    1.429    0.000    3.857    0.000    2.000 
#    0.000    0.000    0.000    0.000    0.000    0.000 
#
# Total GULP energy -312546.140644 kJ/mol
# GULP energy per Si atom -5581.181083 kJ/mol
# Density = 1.858383 g / cm^3
# Si number density = 18.626223 Si / 1000 Ang^3
#
#
#
# Elastic Constant Matrix: (Units=GPa)
#
#
# Indices 1 2 3 4 5 6 
#
# 1 57.8613 14.8285 18.0867 0.0000 0.0000 0.0000
# 2 14.8285 91.9720 7.3611 0.0000 0.0000 0.0000
# 3 18.0867 7.3611 58.7469 0.0000 0.0000 0.0000
# 4 0.0000 0.0000 0.0000 9.6651 0.0000 0.0000
# 5 0.0000 0.0000 0.0000 0.0000 33.5484 0.0000
# 6 0.0000 0.0000 0.0000 0.0000 0.0000 -5.3136
#
#
#
# Elastic Compliance Matrix: (Units=1/GPa)
#
#
# Indices 1 2 3 4 5 6 
#
# 1 0.019779 -0.002729 -0.005747 0.000000 0.000000 0.000000
# 2 -0.002729 0.011360 -0.000583 0.000000 0.000000 0.000000
# 3 -0.005747 -0.000583 0.018865 0.000000 0.000000 0.000000
# 4 0.000000 0.000000 0.000000 0.103465 0.000000 0.000000
# 5 0.000000 0.000000 0.000000 0.000000 0.029808 0.000000
# 6 0.000000 0.000000 0.000000 0.000000 0.000000 -0.188197
#
#
# Mechanical properties :
#
#
# Convention : Reuss Voigt Hill
#
# Bulk Modulus (GPa) = 31.36381 32.12587 31.74484
# Shear Modulus (GPa) = 209.86319 18.80025 114.33172
#
# Velocity S-wave (km/s) = 10.62617 3.18046 7.84317
# Velocity P-wave (km/s) = 12.93944 5.54727 9.95493
#
# Compressibility (1/GPa) = 0.03188388
#
# Stress axis : x y z
#
# Youngs Moduli (GPa) = 50.55968 88.03185 53.00897
#
# Poissons Ratio (x) = 0.24023 0.30466
# Poissons Ratio (y) = 0.13797 0.03092
# Poissons Ratio (z) = 0.29059 0.05134
#
# Static dielectric constant tensor:
#      x y z
#    x 1.620960 0.000000 0.000000 
#    y 0.000000 1.677420 0.000000 
#    z 0.000000 0.000000 1.647250 
# 
# From -- ./inp_files/46095.got.cif
#   From: 2010.05.17/outbox.cif.g08.bks.cpg/sg63_24_cif.got.tgz:46095.got - 2010.06.03 15:47:04.
