data_PCOD9470109
_publ_section_title
;
Structure prediction by ZEFSAII (Michael W. Deem and Ramdas Pophale) SiO2 
 PCOD9470109
Probable space group: C M C M
;
_chemical_formula_sum "Si O2"
_cell_formula_units_Z 112
_cell_length_a 15.893062
_cell_length_b 24.524389
_cell_length_c 14.237239
_cell_angle_alpha 90.000000
_cell_angle_beta 90.000000
_cell_angle_gamma 90.000000
_cell_volume 5549.214972
_symmetry_space_group_name_H-M "C M C M"
_symmetry_group_IT_number 63
_symmetry_cell_setting 'orthorhombic'
loop_
_space_group_symop_operation_xyz
x,y,z
-x,-y,1/2+z
x,-y,-z
-x,y,1/2-z
-x,-y,-z
x,y,1/2-z
-x,y,z
x,-y,1/2+z
1/2+x,1/2+y,z
1/2-x,1/2-y,1/2+z
1/2+x,1/2-y,-z
1/2-x,1/2+y,1/2-z
1/2-x,1/2-y,-z
1/2+x,1/2+y,1/2-z
1/2-x,1/2+y,z
1/2+x,1/2-y,1/2+z
loop_
_atom_site_type_symbol
_atom_site_label
_atom_site_fract_x
_atom_site_fract_y
_atom_site_fract_z
Si Si1 0.093374 0.508687 0.888559
Si Si2 0.729189 0.438228 0.356889
Si Si3 0.231686 0.304752 0.638508
Si Si4 0.402901 0.463356 0.860898
Si Si5 0.909041 0.214035 0.641783
Si Si6 0.651774 0.636593 0.492284
Si Si7 0.410110 0.883057 0.856538
O O1 0.174447 0.542070 0.859043
O O2 0.100806 0.447452 0.850584
O O3 0.000000 0.530165 0.863625
O O4 0.095897 0.500000 0.000000
O O5 0.709728 0.420059 0.250000
O O6 0.665108 0.488638 0.378496
O O7 0.716327 0.393455 0.436868
O O8 0.251880 0.309042 0.750000
O O9 0.172167 0.252266 0.625692
O O10 0.311686 0.315336 0.573853
O O11 0.171376 0.354357 0.605275
O O12 0.394435 0.449025 0.750000
O O13 0.500000 0.481529 0.876344
O O14 0.384380 0.410864 0.925288
O O15 0.903940 0.195198 0.750000
O O16 0.908130 0.165728 0.567220
O O17 0.000000 0.243565 0.633316
O O18 0.415069 0.861197 0.750000
O O19 0.500000 0.873342 0.904648
#
# Coordination Sequence:
#
# PCOD9470109 Si02
#       7
#    16  16  16  16  16  16  16
#     4  10  19  31  49  75 106 141 183 229 276 330
#     4  11  23  37  54  79 115 157 196 233 277 333
#     4  10  20  35  57  82 108 139 176 225 284 341
#     4  10  22  39  59  85 117 154 196 238 282 336
#     4  10  22  40  60  82 108 140 183 234 287 343
#     4  12  22  36  57  84 114 146 184 232 288 342
#     4   9  16  27  46  71  98 130 170 215 262 313
#
# _framework density 20.183035
#
# number of rings (size 3 to 8) (size 9 to 14) (size 15 to 20)
#    0.000    1.714    0.000    5.571    0.000    6.571 
#    0.000    2.143    0.000    0.000    0.000    0.000 
#    0.000    0.000    0.000    0.000    0.000    0.000 
#
# Total GULP energy -312269.059538 kJ/mol
# GULP energy per Si atom -5576.233206 kJ/mol
# Density = 2.013710 g / cm^3
# Si number density = 20.183035 Si / 1000 Ang^3
#
#
#
# Elastic Constant Matrix: (Units=GPa)
#
#
# Indices 1 2 3 4 5 6 
#
# 1 94.6523 25.9572 30.6050 0.0000 0.0000 0.0000
# 2 25.9572 47.5854 37.5829 0.0000 0.0000 0.0000
# 3 30.6050 37.5829 118.0537 0.0000 0.0000 0.0000
# 4 0.0000 0.0000 0.0000 37.0502 0.0000 0.0000
# 5 0.0000 0.0000 0.0000 0.0000 190.9145 0.0000
# 6 0.0000 0.0000 0.0000 0.0000 0.0000 40.4202
#
#
#
# Elastic Compliance Matrix: (Units=1/GPa)
#
#
# Indices 1 2 3 4 5 6 
#
# 1 0.012604 -0.005737 -0.001441 0.000000 0.000000 0.000000
# 2 -0.005737 0.030685 -0.008281 0.000000 0.000000 0.000000
# 3 -0.001441 -0.008281 0.011481 0.000000 0.000000 0.000000
# 4 0.000000 0.000000 0.000000 0.026990 0.000000 0.000000
# 5 0.000000 0.000000 0.000000 0.000000 0.005238 0.000000
# 6 0.000000 0.000000 0.000000 0.000000 0.000000 0.024740
#
#
# Mechanical properties :
#
#
# Convention : Reuss Voigt Hill
#
# Bulk Modulus (GPa) = 41.92769 49.84239 45.88504
# Shear Modulus (GPa) = 33.19869 64.75340 48.97604
#
# Velocity S-wave (km/s) = 4.06011 5.67034 4.93139
# Velocity P-wave (km/s) = 6.54203 8.22308 7.43025
#
# Compressibility (1/GPa) = 0.02385059
#
# Stress axis : x y z
#
# Youngs Moduli (GPa) = 79.33780 32.58915 87.10235
#
# Poissons Ratio (x) = 0.18697 0.12553
# Poissons Ratio (y) = 0.45518 0.72133
# Poissons Ratio (z) = 0.11434 0.26988
#
# Static dielectric constant tensor:
#      x y z
#    x 1.426370 0.000000 0.000000 
#    y 0.000000 1.712370 0.000000 
#    z 0.000000 0.000000 1.719680 
# 
# From -- ./inp_files/32251.got.cif
#   From: 2010.05.17/outbox.cif.g08.bks.cpg/sg63_17_cif.got.tgz:32251.got - 2010.06.03 15:47:04.
