data_PCOD9470537
_publ_section_title
;
Structure prediction by ZEFSAII (Michael W. Deem and Ramdas Pophale) SiO2 
 PCOD9470537
Probable space group: C M C M
;
_chemical_formula_sum "Si O2"
_cell_formula_units_Z 96
_cell_length_a 13.260450
_cell_length_b 23.897027
_cell_length_c 14.193946
_cell_angle_alpha 90.000000
_cell_angle_beta 90.000000
_cell_angle_gamma 90.000000
_cell_volume 4497.853286
_symmetry_space_group_name_H-M "C M C M"
_symmetry_group_IT_number 63
_symmetry_cell_setting 'orthorhombic'
loop_
_space_group_symop_operation_xyz
x,y,z
-x,-y,1/2+z
x,-y,-z
-x,y,1/2-z
-x,-y,-z
x,y,1/2-z
-x,y,z
x,-y,1/2+z
1/2+x,1/2+y,z
1/2-x,1/2-y,1/2+z
1/2+x,1/2-y,-z
1/2-x,1/2+y,1/2-z
1/2-x,1/2-y,-z
1/2+x,1/2+y,1/2-z
1/2-x,1/2+y,z
1/2+x,1/2-y,1/2+z
loop_
_atom_site_type_symbol
_atom_site_label
_atom_site_fract_x
_atom_site_fract_y
_atom_site_fract_z
Si Si1 0.320404 0.641024 0.948562
Si Si2 0.237017 0.632028 0.361574
Si Si3 0.386759 0.895839 0.135182
Si Si4 0.884434 0.254464 0.858760
Si Si5 0.610339 0.522362 0.893264
Si Si6 0.331913 0.016629 0.354457
O O1 0.204095 0.637262 0.913300
O O2 0.361775 0.701363 0.922866
O O3 0.375014 0.589446 0.896653
O O4 0.324342 0.630017 0.060585
O O5 0.261859 0.625701 0.250000
O O6 0.184778 0.691813 0.374437
O O7 0.164009 0.580054 0.389197
O O8 0.371675 0.895411 0.250000
O O9 0.500000 0.875485 0.116463
O O10 0.377001 0.960716 0.100893
O O11 0.869644 0.236268 0.750000
O O12 0.000000 0.271998 0.869870
O O13 0.500000 0.508563 0.854234
O O14 0.711662 0.496600 0.850373
O O15 0.612222 0.500000 0.000000
O O16 0.375827 0.018269 0.250000
#
# Coordination Sequence:
#
# PCOD9470537 Si02
#       6
#    16  16  16  16  16  16
#     4  11  20  36  60  82 112 150 188 230 283 335
#     4  10  21  37  56  79 111 149 187 230 277 331
#     4   9  19  34  55  85 115 145 185 231 279 332
#     4  10  22  39  59  84 110 141 187 238 285 335
#     4  10  19  32  53  81 112 145 182 225 274 330
#     4   9  18  34  54  78 113 150 184 227 280 333
#
# _framework density 21.343513999999999
#
# number of rings (size 3 to 8) (size 9 to 14) (size 15 to 20)
#    0.000    2.167    1.667    1.500    0.000    2.333 
#    0.000    4.167    0.000    3.000    0.000    4.667 
#    0.000    0.000    0.000    0.000    0.000    0.000 
#
# Total GULP energy -267728.078331 kJ/mol
# GULP energy per Si atom -5577.668299 kJ/mol
# Density = 2.129494 g / cm^3
# Si number density = 21.343514 Si / 1000 Ang^3
#
#
#
# Elastic Constant Matrix: (Units=GPa)
#
#
# Indices 1 2 3 4 5 6 
#
# 1 71.2795 -12.1883 -3.1347 0.0000 0.0000 0.0000
# 2 -12.1883 79.9566 6.7517 0.0000 0.0000 0.0000
# 3 -3.1347 6.7517 67.4726 0.0000 0.0000 0.0000
# 4 0.0000 0.0000 0.0000 33.2420 0.0000 0.0000
# 5 0.0000 0.0000 0.0000 0.0000 11.0864 0.0000
# 6 0.0000 0.0000 0.0000 0.0000 0.0000 7.1404
#
#
#
# Elastic Compliance Matrix: (Units=1/GPa)
#
#
# Indices 1 2 3 4 5 6 
#
# 1 0.014419 0.002160 0.000454 0.000000 0.000000 0.000000
# 2 0.002160 0.012937 -0.001194 0.000000 0.000000 0.000000
# 3 0.000454 -0.001194 0.014961 0.000000 0.000000 0.000000
# 4 0.000000 0.000000 0.000000 0.030082 0.000000 0.000000
# 5 0.000000 0.000000 0.000000 0.000000 0.090201 0.000000
# 6 0.000000 0.000000 0.000000 0.000000 0.000000 0.140049
#
#
# Mechanical properties :
#
#
# Convention : Reuss Voigt Hill
#
# Bulk Modulus (GPa) = 22.14588 22.39620 22.27104
# Shear Modulus (GPa) = 15.87999 25.44576 20.66288
#
# Velocity S-wave (km/s) = 2.73063 3.45657 3.11482
# Velocity P-wave (km/s) = 4.51002 5.14262 4.83667
#
# Compressibility (1/GPa) = 0.04515512
#
# Stress axis : x y z
#
# Youngs Moduli (GPa) = 69.35528 77.29868 66.83861
#
# Poissons Ratio (x) = -0.16693 -0.03033
# Poissons Ratio (y) = -0.14978 0.07982
# Poissons Ratio (z) = -0.03147 0.09231
#
# Static dielectric constant tensor:
#      x y z
#    x 1.755970 0.000000 0.000000 
#    y 0.000000 1.748930 0.000000 
#    z 0.000000 0.000000 1.818700 
# 
# From -- ./inp_files/31861.got.cif
#   From: 2010.05.17/outbox.cif.g08.bks.cpg/sg63_16_cif.got.tgz:31861.got - 2010.06.03 15:47:04.
