data_PCOD9470332
_publ_section_title
;
Structure prediction by ZEFSAII (Michael W. Deem and Ramdas Pophale) SiO2 
 PCOD9470332
Probable space group: C M C M
;
_chemical_formula_sum "Si O2"
_cell_formula_units_Z 80
_cell_length_a 27.274332
_cell_length_b 9.117476
_cell_length_c 14.106354
_cell_angle_alpha 90.000000
_cell_angle_beta 90.000000
_cell_angle_gamma 90.000000
_cell_volume 3507.870319
_symmetry_space_group_name_H-M "C M C M"
_symmetry_group_IT_number 63
_symmetry_cell_setting 'orthorhombic'
loop_
_space_group_symop_operation_xyz
x,y,z
-x,-y,1/2+z
x,-y,-z
-x,y,1/2-z
-x,-y,-z
x,y,1/2-z
-x,y,z
x,-y,1/2+z
1/2+x,1/2+y,z
1/2-x,1/2-y,1/2+z
1/2+x,1/2-y,-z
1/2-x,1/2+y,1/2-z
1/2-x,1/2-y,-z
1/2+x,1/2+y,1/2-z
1/2-x,1/2+y,z
1/2+x,1/2-y,1/2+z
loop_
_atom_site_type_symbol
_atom_site_label
_atom_site_fract_x
_atom_site_fract_y
_atom_site_fract_z
Si Si1 0.302277 0.371464 0.633848
Si Si2 0.106952 0.408102 0.597039
Si Si3 0.707874 0.952984 0.357974
Si Si4 0.500000 0.086266 0.401194
Si Si5 0.500000 0.420488 0.363808
Si Si6 0.606520 0.429937 0.135271
O O1 0.304035 0.366528 0.750000
O O2 0.301362 0.205438 0.596690
O O3 0.252554 0.452016 0.603342
O O4 0.350107 0.462832 0.606105
O O5 0.106603 0.500000 0.500000
O O6 0.156986 0.460541 0.644547
O O7 0.053611 0.443135 0.643282
O O8 0.109923 0.231900 0.590625
O O9 0.723487 0.922478 0.250000
O O10 0.500000 0.000000 0.500000
O O11 0.500000 0.262272 0.413801
O O12 0.500000 0.390615 0.250000
O O13 0.447886 0.494017 0.384729
O O14 0.610040 0.408423 0.250000
#
# Coordination Sequence:
#
# PCOD9470332 Si02
#       6
#    16  16  16   8   8  16
#     4   9  18  32  52  73  96 127 162 196 238 288
#     4  10  19  32  50  73  98 127 160 198 239 282
#     4  10  19  33  51  72  96 126 161 197 236 283
#     4   8  16  30  47  66  94 128 160 190 231 284
#     4   8  14  24  45  72  93 116 155 198 235 276
#     4   9  16  30  50  71  94 125 161 197 235 283
#
# _framework density 22.805861
#
# number of rings (size 3 to 8) (size 9 to 14) (size 15 to 20)
#    0.000    2.800    0.000    1.800    0.000    4.000 
#    0.000    6.000    0.000    2.400    0.000    8.400 
#    0.000    0.000    0.000    0.000    0.000    0.000 
#
# Total GULP energy -223120.995794 kJ/mol
# GULP energy per Si atom -5578.024895 kJ/mol
# Density = 2.275395 g / cm^3
# Si number density = 22.805861 Si / 1000 Ang^3
#
#
#
# Elastic Constant Matrix: (Units=GPa)
#
#
# Indices 1 2 3 4 5 6 
#
# 1 248.0678 98.1132 -6.9210 0.0000 0.0000 0.0000
# 2 98.1132 101.3117 -11.7306 0.0000 0.0000 0.0000
# 3 -6.9210 -11.7306 48.1522 0.0000 0.0000 0.0000
# 4 0.0000 0.0000 0.0000 21.7807 0.0000 0.0000
# 5 0.0000 0.0000 0.0000 0.0000 -34.4940 0.0000
# 6 0.0000 0.0000 0.0000 0.0000 0.0000 15.5279
#
#
#
# Elastic Compliance Matrix: (Units=1/GPa)
#
#
# Indices 1 2 3 4 5 6 
#
# 1 0.006552 -0.006417 -0.000622 0.000000 0.000000 0.000000
# 2 -0.006417 0.016442 0.003083 0.000000 0.000000 0.000000
# 3 -0.000622 0.003083 0.021429 0.000000 0.000000 0.000000
# 4 0.000000 0.000000 0.000000 0.045912 0.000000 0.000000
# 5 0.000000 0.000000 0.000000 0.000000 -0.028991 0.000000
# 6 0.000000 0.000000 0.000000 0.000000 0.000000 0.064400
#
#
# Mechanical properties :
#
#
# Convention : Reuss Voigt Hill
#
# Bulk Modulus (GPa) = 27.38805 61.82832 44.60819
# Shear Modulus (GPa) = 34.28744 21.76759 28.02751
#
# Velocity S-wave (km/s) = 3.88164 3.09281 3.50946
# Velocity P-wave (km/s) = 5.66787 6.31851 6.00201
#
# Compressibility (1/GPa) = 0.03651227
#
# Stress axis : x y z
#
# Youngs Moduli (GPa) = 152.63107 60.82064 46.66516
#
# Poissons Ratio (x) = 0.39028 0.02900
# Poissons Ratio (y) = 0.97941 -0.14388
# Poissons Ratio (z) = 0.09487 -0.18752
#
# Static dielectric constant tensor:
#      x y z
#    x 1.866150 0.000000 0.000000 
#    y 0.000000 1.794430 0.000000 
#    z 0.000000 0.000000 1.961730 
# 
# From -- ./inp_files/48827.got.cif
#   From: 2010.05.17/outbox.cif.g08.bks.cpg/sg63_25_cif.got.tgz:48827.got - 2010.06.03 15:47:04.
