data_PCOD9470733
_publ_section_title
;
Structure prediction by ZEFSAII (Michael W. Deem and Ramdas Pophale) SiO2 
 PCOD9470733
Probable space group: C M C M
;
_chemical_formula_sum "Si O2"
_cell_formula_units_Z 80
_cell_length_a 8.768999
_cell_length_b 20.015318
_cell_length_c 26.438074
_cell_angle_alpha 90.000000
_cell_angle_beta 90.000000
_cell_angle_gamma 90.000000
_cell_volume 4640.260145
_symmetry_space_group_name_H-M "C M C M"
_symmetry_group_IT_number 63
_symmetry_cell_setting 'orthorhombic'
loop_
_space_group_symop_operation_xyz
x,y,z
-x,-y,1/2+z
x,-y,-z
-x,y,1/2-z
-x,-y,-z
x,y,1/2-z
-x,y,z
x,-y,1/2+z
1/2+x,1/2+y,z
1/2-x,1/2-y,1/2+z
1/2+x,1/2-y,-z
1/2-x,1/2+y,1/2-z
1/2-x,1/2-y,-z
1/2+x,1/2+y,1/2-z
1/2-x,1/2+y,z
1/2+x,1/2-y,1/2+z
loop_
_atom_site_type_symbol
_atom_site_label
_atom_site_fract_x
_atom_site_fract_y
_atom_site_fract_z
Si Si1 0.818151 0.172725 0.942232
Si Si2 0.175313 0.579335 0.250000
Si Si3 0.683378 0.318511 0.941247
Si Si4 0.183893 0.426037 0.140045
Si Si5 0.175104 0.583153 0.750000
Si Si6 0.317348 0.426004 0.643668
O O1 0.763710 0.248029 0.931027
O O2 0.738613 0.121138 0.904751
O O3 0.000000 0.167530 0.936835
O O4 0.778857 0.160176 0.001270
O O5 0.174285 0.497978 0.250000
O O6 0.258179 0.598816 0.301766
O O7 0.000000 0.601468 0.250000
O O8 0.500000 0.308585 0.939096
O O9 0.725068 0.374376 0.900423
O O10 0.241303 0.399168 0.195127
O O11 0.246299 0.501084 0.133867
O O12 0.000000 0.428801 0.142087
O O13 0.000000 0.607026 0.750000
O O14 0.500000 0.432208 0.645091
#
# Coordination Sequence:
#
# PCOD9470733 Si02
#       6
#    16   8  16  16   8  16
#     4  10  20  35  54  75 101 134 172 213 258 309
#     4   9  17  31  50  75 106 135 165 205 255 303
#     4   9  20  37  54  73 101 136 171 211 259 307
#     4  10  19  33  53  77 105 135 170 212 257 302
#     4   7  14  29  48  69  96 131 163 197 243 293
#     4  10  19  33  54  78 103 134 173 211 250 300
#
# _framework density 17.240413
#
# number of rings (size 3 to 8) (size 9 to 14) (size 15 to 20)
#    0.000    2.600    0.000    3.300    0.000    3.200 
#    0.000    6.500    0.000    2.400    0.000    0.000 
#    0.000    0.000    0.000    0.000    0.000    0.000 
#
# Total GULP energy -222968.857989 kJ/mol
# GULP energy per Si atom -5574.221450 kJ/mol
# Density = 1.720117 g / cm^3
# Si number density = 17.240413 Si / 1000 Ang^3
#
#
#
# Elastic Constant Matrix: (Units=GPa)
#
#
# Indices 1 2 3 4 5 6 
#
# 1 57.6196 44.7410 61.3688 0.0000 0.0000 0.0000
# 2 44.7410 82.5064 100.0254 0.0000 0.0000 0.0000
# 3 61.3688 100.0254 167.8601 0.0000 0.0000 0.0000
# 4 0.0000 0.0000 0.0000 -29.4342 0.0000 0.0000
# 5 0.0000 0.0000 0.0000 0.0000 28.7305 0.0000
# 6 0.0000 0.0000 0.0000 0.0000 0.0000 27.5627
#
#
#
# Elastic Compliance Matrix: (Units=1/GPa)
#
#
# Indices 1 2 3 4 5 6 
#
# 1 0.030991 -0.011058 -0.004741 0.000000 0.000000 0.000000
# 2 -0.011058 0.047609 -0.024327 0.000000 0.000000 0.000000
# 3 -0.004741 -0.024327 0.022186 0.000000 0.000000 0.000000
# 4 0.000000 0.000000 0.000000 -0.033974 0.000000 0.000000
# 5 0.000000 0.000000 0.000000 0.000000 0.034806 0.000000
# 6 0.000000 0.000000 0.000000 0.000000 0.000000 0.036281
#
#
# Mechanical properties :
#
#
# Convention : Reuss Voigt Hill
#
# Bulk Modulus (GPa) = 48.69707 80.02852 64.36279
# Shear Modulus (GPa) = 22.22266 12.16186 17.19226
#
# Velocity S-wave (km/s) = 3.59414 2.65887 3.16128
# Velocity P-wave (km/s) = 6.74767 7.47971 7.12310
#
# Compressibility (1/GPa) = 0.02053512
#
# Stress axis : x y z
#
# Youngs Moduli (GPa) = 32.26738 21.00447 45.07274
#
# Poissons Ratio (x) = 0.23228 0.21367
# Poissons Ratio (y) = 0.35682 1.09647
# Poissons Ratio (z) = 0.15297 0.51097
#
# Static dielectric constant tensor:
#      x y z
#    x 1.584000 0.000000 0.000000 
#    y 0.000000 1.542570 0.000000 
#    z 0.000000 0.000000 1.607310 
# 
# From -- ./inp_files/59517.got.cif
#   From: 2010.05.17/outbox.cif.g08.bks.cpg/sg63_30_cif.got.tgz:59517.got - 2010.06.03 15:47:04.
