data_PCOD9470305
_publ_section_title
;
Structure prediction by ZEFSAII (Michael W. Deem and Ramdas Pophale) SiO2 
 PCOD9470305
Probable space group: C M C M
;
_chemical_formula_sum "Si O2"
_cell_formula_units_Z 96
_cell_length_a 7.976382
_cell_length_b 25.399209
_cell_length_c 27.377219
_cell_angle_alpha 90.000000
_cell_angle_beta 90.000000
_cell_angle_gamma 90.000000
_cell_volume 5546.454652
_symmetry_space_group_name_H-M "C M C M"
_symmetry_group_IT_number 63
_symmetry_cell_setting 'orthorhombic'
loop_
_space_group_symop_operation_xyz
x,y,z
-x,-y,1/2+z
x,-y,-z
-x,y,1/2-z
-x,-y,-z
x,y,1/2-z
-x,y,z
x,-y,1/2+z
1/2+x,1/2+y,z
1/2-x,1/2-y,1/2+z
1/2+x,1/2-y,-z
1/2-x,1/2+y,1/2-z
1/2-x,1/2-y,-z
1/2+x,1/2+y,1/2-z
1/2-x,1/2+y,z
1/2+x,1/2-y,1/2+z
loop_
_atom_site_type_symbol
_atom_site_label
_atom_site_fract_x
_atom_site_fract_y
_atom_site_fract_z
Si Si1 0.000000 0.060501 0.307879
Si Si2 0.698127 0.984797 0.446803
Si Si3 0.306999 0.791457 0.441981
Si Si4 0.805458 0.322013 0.952104
Si Si5 0.815938 0.883920 0.110600
Si Si6 0.000000 0.066088 0.693059
Si Si7 0.298859 0.912787 0.878723
O O1 0.000000 0.996750 0.314152
O O2 0.168487 0.082076 0.334136
O O3 0.000000 0.071499 0.250000
O O4 0.500000 0.973751 0.452410
O O5 0.776631 0.932901 0.423989
O O6 0.765746 0.000000 0.500000
O O7 0.716479 0.033733 0.410282
O O8 0.500000 0.776569 0.451564
O O9 0.213404 0.737069 0.431712
O O10 0.238435 0.817616 0.492373
O O11 0.301627 0.835086 0.400027
O O12 0.740721 0.365280 0.914371
O O13 0.000000 0.336839 0.957816
O O14 0.000000 0.862525 0.097886
O O15 0.841794 0.908124 0.164542
O O16 0.000000 0.077587 0.750000
O O17 0.500000 0.906699 0.866341
#
# Coordination Sequence:
#
# PCOD9470305 Si02
#       7
#     8  16  16  16  16   8  16
#     4  11  22  40  60  82 110 138 188 243 286 333
#     4  10  19  32  49  75 113 145 171 213 265 328
#     4  10  19  32  51  80 111 146 177 215 261 317
#     4   9  19  34  51  77 114 146 180 212 257 324
#     4  10  19  32  51  76 101 138 178 218 263 327
#     4   9  20  38  56  76 102 136 180 237 284 321
#     4  10  20  36  56  81 111 147 183 223 280 331
#
# _framework density 17.308354000000001
#
# number of rings (size 3 to 8) (size 9 to 14) (size 15 to 20)
#    0.500    1.667    1.667    2.000    1.167    4.000 
#    3.000    0.000    0.000    3.000    0.000    0.000 
#    0.000    0.000    0.000    0.000    0.000    0.000 
#
# Total GULP energy -267237.388499 kJ/mol
# GULP energy per Si atom -5567.445594 kJ/mol
# Density = 1.726896 g / cm^3
# Si number density = 17.308354 Si / 1000 Ang^3
#
#
#
# Elastic Constant Matrix: (Units=GPa)
#
#
# Indices 1 2 3 4 5 6 
#
# 1 48.7996 3.4217 22.3198 0.0000 0.0000 0.0000
# 2 3.4217 60.2633 13.4352 0.0000 0.0000 0.0000
# 3 22.3198 13.4352 60.9851 0.0000 0.0000 0.0000
# 4 0.0000 0.0000 0.0000 23.1583 0.0000 0.0000
# 5 0.0000 0.0000 0.0000 0.0000 18.6922 0.0000
# 6 0.0000 0.0000 0.0000 0.0000 0.0000 33.2898
#
#
#
# Elastic Compliance Matrix: (Units=1/GPa)
#
#
# Indices 1 2 3 4 5 6 
#
# 1 0.024635 0.000643 -0.009158 0.000000 0.000000 0.000000
# 2 0.000643 0.017468 -0.004083 0.000000 0.000000 0.000000
# 3 -0.009158 -0.004083 0.020649 0.000000 0.000000 0.000000
# 4 0.000000 0.000000 0.000000 0.043181 0.000000 0.000000
# 5 0.000000 0.000000 0.000000 0.000000 0.053498 0.000000
# 6 0.000000 0.000000 0.000000 0.000000 0.000000 0.030039
#
#
# Mechanical properties :
#
#
# Convention : Reuss Voigt Hill
#
# Bulk Modulus (GPa) = 26.62764 27.60014 27.11389
# Shear Modulus (GPa) = 22.00841 23.75281 22.88061
#
# Velocity S-wave (km/s) = 3.56975 3.70852 3.63979
# Velocity P-wave (km/s) = 5.69284 5.85818 5.77610
#
# Compressibility (1/GPa) = 0.03755497
#
# Stress axis : x y z
#
# Youngs Moduli (GPa) = 40.59186 57.24842 48.42911
#
# Poissons Ratio (x) = -0.03681 0.44351
# Poissons Ratio (y) = -0.02610 0.19776
# Poissons Ratio (z) = 0.37174 0.23377
#
# Static dielectric constant tensor:
#      x y z
#    x 1.632870 0.000000 0.000000 
#    y 0.000000 1.575560 0.000000 
#    z 0.000000 0.000000 1.582200 
# 
# From -- ./inp_files/67281.got.cif
#   From: 2010.05.17/outbox.cif.g08.bks.cpg/sg63_34_cif.got.tgz:67281.got - 2010.06.03 15:47:04.
