data_PCOD9470266
_publ_section_title
;
Structure prediction by ZEFSAII (Michael W. Deem and Ramdas Pophale) SiO2 
 PCOD9470266
Probable space group: C M C M
;
_chemical_formula_sum "Si O2"
_cell_formula_units_Z 96
_cell_length_a 12.521313
_cell_length_b 30.361916
_cell_length_c 15.030784
_cell_angle_alpha 90.000000
_cell_angle_beta 90.000000
_cell_angle_gamma 90.000000
_cell_volume 5714.268988
_symmetry_space_group_name_H-M "C M C M"
_symmetry_group_IT_number 63
_symmetry_cell_setting 'orthorhombic'
loop_
_space_group_symop_operation_xyz
x,y,z
-x,-y,1/2+z
x,-y,-z
-x,y,1/2-z
-x,-y,-z
x,y,1/2-z
-x,y,z
x,-y,1/2+z
1/2+x,1/2+y,z
1/2-x,1/2-y,1/2+z
1/2+x,1/2-y,-z
1/2-x,1/2+y,1/2-z
1/2-x,1/2-y,-z
1/2+x,1/2+y,1/2-z
1/2-x,1/2+y,z
1/2+x,1/2-y,1/2+z
loop_
_atom_site_type_symbol
_atom_site_label
_atom_site_fract_x
_atom_site_fract_y
_atom_site_fract_z
Si Si1 0.000000 0.069549 0.144442
Si Si2 0.379818 0.044546 0.846174
Si Si3 0.777542 0.027075 0.408135
Si Si4 0.309118 0.737805 0.358251
Si Si5 0.123119 0.598801 0.475575
Si Si6 0.000000 0.830081 0.643249
Si Si7 0.625081 0.202659 0.480841
O O1 0.894135 0.042748 0.119190
O O2 0.000000 0.073743 0.250000
O O3 0.000000 0.119891 0.106845
O O4 0.376005 0.066582 0.750000
O O5 0.500000 0.025196 0.857648
O O6 0.290802 0.006931 0.849784
O O7 0.365821 0.078711 0.925582
O O8 0.705200 0.070592 0.418139
O O9 0.785765 0.000000 0.500000
O O10 0.306136 0.744593 0.250000
O O11 0.395007 0.698787 0.378189
O O12 0.346217 0.778428 0.420983
O O13 0.197072 0.724124 0.403333
O O14 0.144072 0.650437 0.476869
O O15 0.000000 0.591523 0.447354
O O16 0.000000 0.833436 0.750000
O O17 0.500000 0.211177 0.465607
#
# Coordination Sequence:
#
# PCOD9470266 Si02
#       7
#     8  16  16  16  16   8  16
#     4  11  21  31  47  69  93 125 169 210 240 284
#     4   9  17  30  49  73 101 133 166 203 252 303
#     4  10  19  32  48  68  98 133 167 203 248 295
#     4  10  20  35  54  76 104 136 170 212 265 317
#     4   9  18  32  51  75 101 129 164 208 254 304
#     4   9  18  33  51  71  96 129 166 208 257 302
#     4  10  20  34  54  79 104 134 173 214 264 317
#
# _framework density 16.800049000000001
#
# number of rings (size 3 to 8) (size 9 to 14) (size 15 to 20)
#    0.000    2.333    0.833    2.250    0.000    3.000 
#    0.000    2.500    0.000    2.000    0.000    0.000 
#    0.000    0.000    0.000    0.000    0.000    0.000 
#
# Total GULP energy -267241.989316 kJ/mol
# GULP energy per Si atom -5567.541444 kJ/mol
# Density = 1.676181 g / cm^3
# Si number density = 16.800049 Si / 1000 Ang^3
#
#
#
# Elastic Constant Matrix: (Units=GPa)
#
#
# Indices 1 2 3 4 5 6 
#
# 1 96.3346 32.1707 20.9066 0.0000 0.0000 0.0000
# 2 32.1707 49.2413 -2.1741 0.0000 0.0000 0.0000
# 3 20.9066 -2.1741 54.3296 0.0000 0.0000 0.0000
# 4 0.0000 0.0000 0.0000 0.6301 0.0000 0.0000
# 5 0.0000 0.0000 0.0000 0.0000 17.9396 0.0000
# 6 0.0000 0.0000 0.0000 0.0000 0.0000 52.7535
#
#
#
# Elastic Compliance Matrix: (Units=1/GPa)
#
#
# Indices 1 2 3 4 5 6 
#
# 1 0.015123 -0.010155 -0.006226 0.000000 0.000000 0.000000
# 2 -0.010155 0.027163 0.004995 0.000000 0.000000 0.000000
# 3 -0.006226 0.004995 0.021002 0.000000 0.000000 0.000000
# 4 0.000000 0.000000 0.000000 1.587117 0.000000 0.000000
# 5 0.000000 0.000000 0.000000 0.000000 0.055743 0.000000
# 6 0.000000 0.000000 0.000000 0.000000 0.000000 0.018956
#
#
# Mechanical properties :
#
#
# Convention : Reuss Voigt Hill
#
# Bulk Modulus (GPa) = 24.68177 33.52354 29.10265
# Shear Modulus (GPa) = 2.83868 24.19812 13.51840
#
# Velocity S-wave (km/s) = 1.30129 3.79932 2.83974
# Velocity P-wave (km/s) = 4.12082 6.26452 5.30214
#
# Compressibility (1/GPa) = 0.04051574
#
# Stress axis : x y z
#
# Youngs Moduli (GPa) = 66.12497 36.81442 47.61492
#
# Poissons Ratio (x) = 0.37385 0.29644
# Poissons Ratio (y) = 0.67150 -0.23783
# Poissons Ratio (z) = 0.41168 -0.18388
#
# Static dielectric constant tensor:
#      x y z
#    x 1.584090 0.000000 0.000000 
#    y 0.000000 1.557650 0.000000 
#    z 0.000000 0.000000 1.562190 
# 
# From -- ./inp_files/30334.got.cif
#   From: 2010.05.17/outbox.cif.g08.bks.cpg/sg63_16_cif.got.tgz:30334.got - 2010.06.03 15:47:04.
