data_PCOD9470609
_publ_section_title
;
Structure prediction by ZEFSAII (Michael W. Deem and Ramdas Pophale) SiO2 
 PCOD9470609
Probable space group: C M C M
;
_chemical_formula_sum "Si O2"
_cell_formula_units_Z 96
_cell_length_a 23.372682
_cell_length_b 9.440828
_cell_length_c 20.265817
_cell_angle_alpha 90.000000
_cell_angle_beta 90.000000
_cell_angle_gamma 90.000000
_cell_volume 4471.803920
_symmetry_space_group_name_H-M "C M C M"
_symmetry_group_IT_number 63
_symmetry_cell_setting 'orthorhombic'
loop_
_space_group_symop_operation_xyz
x,y,z
-x,-y,1/2+z
x,-y,-z
-x,y,1/2-z
-x,-y,-z
x,y,1/2-z
-x,y,z
x,-y,1/2+z
1/2+x,1/2+y,z
1/2-x,1/2-y,1/2+z
1/2+x,1/2-y,-z
1/2-x,1/2+y,1/2-z
1/2-x,1/2-y,-z
1/2+x,1/2+y,1/2-z
1/2-x,1/2+y,z
1/2+x,1/2-y,1/2+z
loop_
_atom_site_type_symbol
_atom_site_label
_atom_site_fract_x
_atom_site_fract_y
_atom_site_fract_z
Si Si1 0.066650 0.734374 0.877285
Si Si2 0.564772 0.214060 0.465858
Si Si3 0.241391 0.883516 0.047362
Si Si4 0.065745 0.937783 0.357571
Si Si5 0.177991 0.213271 0.679482
Si Si6 0.647661 0.008646 0.383725
O O1 0.078574 0.895521 0.856405
O O2 0.109570 0.614966 0.851840
O O3 0.000000 0.704130 0.862061
O O4 0.073962 0.727352 0.956644
O O5 0.500000 0.160788 0.454861
O O6 0.568309 0.366942 0.430514
O O7 0.607701 0.106313 0.430669
O O8 0.207531 0.847163 0.113794
O O9 0.301975 0.942523 0.072673
O O10 0.250000 0.750000 0.000000
O O11 0.212649 0.000000 0.000000
O O12 0.000000 0.917803 0.334872
O O13 0.114189 0.851172 0.320214
O O14 0.205962 0.180278 0.750000
O O15 0.173718 0.381281 0.668188
#
# Coordination Sequence:
#
# PCOD9470609 Si02
#       6
#    16  16  16  16  16  16
#     4  10  19  32  58  97 134 170 215 273 329 384
#     4   9  17  31  56  93 135 173 212 263 326 390
#     4  12  26  46  70 101 131 175 223 281 337 397
#     4   9  20  37  61  94 131 175 220 264 322 394
#     4  11  27  47  68  95 132 177 226 275 334 406
#     4  11  23  39  63  92 132 169 217 267 334 390
#
# _framework density 21.467846999999999
#
# number of rings (size 3 to 8) (size 9 to 14) (size 15 to 20)
#    0.000    1.667    1.667    2.500    4.667    5.000 
#    0.000    0.833    0.000    1.000    0.000    0.000 
#    0.000    0.000    0.000    0.000    0.000    0.000 
#
# Total GULP energy -268261.054907 kJ/mol
# GULP energy per Si atom -5588.771977 kJ/mol
# Density = 2.141899 g / cm^3
# Si number density = 21.467847 Si / 1000 Ang^3
#
#
#
# Elastic Constant Matrix: (Units=GPa)
#
#
# Indices 1 2 3 4 5 6 
#
# 1 79.0785 46.6312 36.4609 0.0000 0.0000 0.0000
# 2 46.6312 132.4740 39.4968 0.0000 0.0000 0.0000
# 3 36.4609 39.4968 110.4199 0.0000 0.0000 0.0000
# 4 0.0000 0.0000 0.0000 3.7705 0.0000 0.0000
# 5 0.0000 0.0000 0.0000 0.0000 2.2036 0.0000
# 6 0.0000 0.0000 0.0000 0.0000 0.0000 32.4226
#
#
#
# Elastic Compliance Matrix: (Units=1/GPa)
#
#
# Indices 1 2 3 4 5 6 
#
# 1 0.017390 -0.004936 -0.003977 0.000000 0.000000 0.000000
# 2 -0.004936 0.009851 -0.001894 0.000000 0.000000 0.000000
# 3 -0.003977 -0.001894 0.011047 0.000000 0.000000 0.000000
# 4 0.000000 0.000000 0.000000 0.265220 0.000000 0.000000
# 5 0.000000 0.000000 0.000000 0.000000 0.453797 0.000000
# 6 0.000000 0.000000 0.000000 0.000000 0.000000 0.030843
#
#
# Mechanical properties :
#
#
# Convention : Reuss Voigt Hill
#
# Bulk Modulus (GPa) = 59.96986 63.01668 61.49327
# Shear Modulus (GPa) = 6.13258 20.97156 13.55207
#
# Velocity S-wave (km/s) = 1.69199 3.12890 2.51524
# Velocity P-wave (km/s) = 5.64026 6.51698 6.09441
#
# Compressibility (1/GPa) = 0.01667504
#
# Stress axis : x y z
#
# Youngs Moduli (GPa) = 57.50562 101.51652 90.52353
#
# Poissons Ratio (x) = 0.50104 0.35998
# Poissons Ratio (y) = 0.28382 0.17143
# Poissons Ratio (z) = 0.22868 0.19225
#
# Static dielectric constant tensor:
#      x y z
#    x 1.794610 0.000000 0.000000 
#    y 0.000000 1.817480 0.000000 
#    z 0.000000 0.000000 1.739960 
# 
# From -- ./inp_files/64957.got.cif
#   From: 2010.05.17/outbox.cif.g08.bks.cpg/sg63_33_cif.got.tgz:64957.got - 2010.06.03 15:47:04.
