data_PCOD9470760
_publ_section_title
;
Structure prediction by ZEFSAII (Michael W. Deem and Ramdas Pophale) SiO2 
 PCOD9470760
Probable space group: C M C M
;
_chemical_formula_sum "Si O2"
_cell_formula_units_Z 116
_cell_length_a 7.718880
_cell_length_b 28.874578
_cell_length_c 23.643112
_cell_angle_alpha 90.000000
_cell_angle_beta 90.000000
_cell_angle_gamma 90.000000
_cell_volume 5269.562679
_symmetry_space_group_name_H-M "C M C M"
_symmetry_group_IT_number 63
_symmetry_cell_setting 'orthorhombic'
loop_
_space_group_symop_operation_xyz
x,y,z
-x,-y,1/2+z
x,-y,-z
-x,y,1/2-z
-x,-y,-z
x,y,1/2-z
-x,y,z
x,-y,1/2+z
1/2+x,1/2+y,z
1/2-x,1/2-y,1/2+z
1/2+x,1/2-y,-z
1/2-x,1/2+y,1/2-z
1/2-x,1/2-y,-z
1/2+x,1/2+y,1/2-z
1/2-x,1/2+y,z
1/2+x,1/2-y,1/2+z
loop_
_atom_site_type_symbol
_atom_site_label
_atom_site_fract_x
_atom_site_fract_y
_atom_site_fract_z
Si Si1 0.198405 0.997867 0.563645
Si Si2 0.787322 0.312023 0.155699
Si Si3 0.804016 0.404274 0.102048
Si Si4 0.702006 0.734370 0.422616
Si Si5 0.500000 0.709833 0.750000
Si Si6 0.800306 0.845333 0.502479
Si Si7 0.799804 0.403486 0.607946
Si Si8 0.291189 0.825788 0.813066
O O1 0.204382 0.048491 0.591045
O O2 0.000000 0.983183 0.556478
O O3 0.276464 0.000000 0.500000
O O4 0.281395 0.958210 0.602002
O O5 0.748738 0.366643 0.148546
O O6 0.743271 0.285244 0.096895
O O7 0.655393 0.292157 0.201414
O O8 0.000000 0.306885 0.164841
O O9 0.000000 0.418091 0.114593
O O10 0.799029 0.374229 0.044588
O O11 0.500000 0.736193 0.435699
O O12 0.778844 0.702649 0.472497
O O13 0.722970 0.706007 0.363640
O O14 0.802016 0.878708 0.557569
O O15 0.000000 0.839686 0.484331
O O16 0.752852 0.378246 0.666532
O O17 0.000000 0.391201 0.597795
O O18 0.225532 0.815982 0.750000
O O19 0.500000 0.819266 0.811082
#
# Coordination Sequence:
#
# PCOD9470760 Si02
#       8
#    16  16  16  16   4  16  16  16
#     4  11  22  35  58  86 115 151 198 248 297 366
#     4  10  25  45  65  95 126 158 213 264 312 366
#     4  11  23  39  61  89 122 160 199 251 305 367
#     4   9  20  37  55  85 125 161 197 248 303 355
#     4  12  26  44  76  90 114 172 206 278 318 350
#     4  10  19  33  56  85 125 163 196 239 297 366
#     4  10  19  33  53  82 116 154 192 243 306 363
#     4   9  19  33  54  82 114 149 197 245 294 365
#
# _framework density 22.013210999999998
#
# number of rings (size 3 to 8) (size 9 to 14) (size 15 to 20)
#    0.000    1.931    1.379    1.862    3.862    2.483 
#    0.000    0.000    1.517    0.000    0.000    0.000 
#    0.000    0.000    0.000    0.000    0.000    0.000 
#
# Total GULP energy -323226.375668 kJ/mol
# GULP energy per Si atom -5572.868546 kJ/mol
# Density = 2.196311 g / cm^3
# Si number density = 22.013211 Si / 1000 Ang^3
#
#
#
# Elastic Constant Matrix: (Units=GPa)
#
#
# Indices 1 2 3 4 5 6 
#
# 1 73.9743 11.1678 16.8329 0.0000 0.0000 0.0000
# 2 11.1678 116.8307 5.7350 0.0000 0.0000 0.0000
# 3 16.8329 5.7350 60.2434 0.0000 0.0000 0.0000
# 4 0.0000 0.0000 0.0000 5.2448 0.0000 0.0000
# 5 0.0000 0.0000 0.0000 0.0000 35.2642 0.0000
# 6 0.0000 0.0000 0.0000 0.0000 0.0000 21.5273
#
#
#
# Elastic Compliance Matrix: (Units=1/GPa)
#
#
# Indices 1 2 3 4 5 6 
#
# 1 0.014602 -0.001201 -0.003966 0.000000 0.000000 0.000000
# 2 -0.001201 0.008698 -0.000492 0.000000 0.000000 0.000000
# 3 -0.003966 -0.000492 0.017754 0.000000 0.000000 0.000000
# 4 0.000000 0.000000 0.000000 0.190664 0.000000 0.000000
# 5 0.000000 0.000000 0.000000 0.000000 0.028357 0.000000
# 6 0.000000 0.000000 0.000000 0.000000 0.000000 0.046453
#
#
# Mechanical properties :
#
#
# Convention : Reuss Voigt Hill
#
# Bulk Modulus (GPa) = 33.62911 35.39107 34.51009
# Shear Modulus (GPa) = 15.25511 26.89477 21.07494
#
# Velocity S-wave (km/s) = 2.63534 3.49915 3.09751
# Velocity P-wave (km/s) = 4.95681 5.69540 5.33889
#
# Compressibility (1/GPa) = 0.02973614
#
# Stress axis : x y z
#
# Youngs Moduli (GPa) = 68.48414 114.96394 56.32451
#
# Poissons Ratio (x) = 0.13809 0.22336
# Poissons Ratio (y) = 0.08226 0.02774
# Poissons Ratio (z) = 0.27158 0.05661
#
# Static dielectric constant tensor:
#      x y z
#    x 1.783180 0.000000 0.000000 
#    y 0.000000 1.871870 0.000000 
#    z 0.000000 0.000000 2.022300 
# 
# From -- ./inp_files/60622.got.cif
#   From: 2010.05.17/outbox.cif.g08.bks.cpg/sg63_31_cif.got.tgz:60622.got - 2010.06.03 15:47:04.
