data_PCOD9470771
_publ_section_title
;
Structure prediction by ZEFSAII (Michael W. Deem and Ramdas Pophale) SiO2 
 PCOD9470771
Probable space group: C M C M
;
_chemical_formula_sum "Si O2"
_cell_formula_units_Z 80
_cell_length_a 33.247709
_cell_length_b 5.020434
_cell_length_c 25.461009
_cell_angle_alpha 90.000000
_cell_angle_beta 90.000000
_cell_angle_gamma 90.000000
_cell_volume 4249.898885
_symmetry_space_group_name_H-M "C M C M"
_symmetry_group_IT_number 63
_symmetry_cell_setting 'orthorhombic'
loop_
_space_group_symop_operation_xyz
x,y,z
-x,-y,1/2+z
x,-y,-z
-x,y,1/2-z
-x,-y,-z
x,y,1/2-z
-x,y,z
x,-y,1/2+z
1/2+x,1/2+y,z
1/2-x,1/2-y,1/2+z
1/2+x,1/2-y,-z
1/2-x,1/2+y,1/2-z
1/2-x,1/2-y,-z
1/2+x,1/2+y,1/2-z
1/2-x,1/2+y,z
1/2+x,1/2-y,1/2+z
loop_
_atom_site_type_symbol
_atom_site_label
_atom_site_fract_x
_atom_site_fract_y
_atom_site_fract_z
Si Si1 0.601701 0.224394 0.636873
Si Si2 0.342276 0.722018 0.862560
Si Si3 0.453489 0.740400 0.036152
Si Si4 0.342300 0.390441 0.250000
Si Si5 0.274935 0.496922 0.937333
Si Si6 0.897174 0.394027 0.250000
O O1 0.620320 0.518267 0.638223
O O2 0.571846 0.208603 0.588285
O O3 0.582596 0.163213 0.694092
O O4 0.638612 0.013824 0.630854
O O5 0.321783 0.683195 0.805110
O O6 0.312572 0.618146 0.907061
O O7 0.500000 0.677048 0.049664
O O8 0.437348 0.500000 0.000000
O O9 0.452869 0.000000 0.000000
O O10 0.358218 0.693625 0.250000
O O11 0.381232 0.195098 0.250000
O O12 0.262101 0.196242 0.924350
O O13 0.281740 0.500000 0.000000
#
# Coordination Sequence:
#
# PCOD9470771 Si02
#       6
#    16  16  16   8  16   8
#     4  10  19  33  54  78 101 131 172 211 248 299
#     4  10  19  33  54  76  99 129 169 210 248 300
#     4  10  21  36  52  74 108 141 166 204 257 300
#     4   8  16  30  48  73 101 126 155 204 261 296
#     4  10  21  36  50  68  99 134 164 203 257 302
#     4   8  16  30  49  73 102 130 159 206 259 294
#
# _framework density 18.823975000000001
#
# number of rings (size 3 to 8) (size 9 to 14) (size 15 to 20)
#    0.000    2.400    0.000    2.400    0.000    2.400 
#    0.000    1.500    0.000    0.000    0.000   12.600 
#    0.000    0.000    0.000    0.000    0.000    0.000 
#
# Total GULP energy -222935.667513 kJ/mol
# GULP energy per Si atom -5573.391688 kJ/mol
# Density = 1.878113 g / cm^3
# Si number density = 18.823975 Si / 1000 Ang^3
#
#
#
# Elastic Constant Matrix: (Units=GPa)
#
#
# Indices 1 2 3 4 5 6 
#
# 1 29.6889 0.4920 45.9778 0.0000 0.0000 0.0000
# 2 0.4920 83.3497 16.4827 0.0000 0.0000 0.0000
# 3 45.9778 16.4827 129.9313 0.0000 0.0000 0.0000
# 4 0.0000 0.0000 0.0000 27.2492 0.0000 0.0000
# 5 0.0000 0.0000 0.0000 0.0000 -13.2283 0.0000
# 6 0.0000 0.0000 0.0000 0.0000 0.0000 31.5062
#
#
#
# Elastic Compliance Matrix: (Units=1/GPa)
#
#
# Indices 1 2 3 4 5 6 
#
# 1 0.076522 0.005029 -0.027716 0.000000 0.000000 0.000000
# 2 0.005029 0.012637 -0.003383 0.000000 0.000000 0.000000
# 3 -0.027716 -0.003383 0.017933 0.000000 0.000000 0.000000
# 4 0.000000 0.000000 0.000000 0.036698 0.000000 0.000000
# 5 0.000000 0.000000 0.000000 0.000000 -0.075596 0.000000
# 6 0.000000 0.000000 0.000000 0.000000 0.000000 0.031740
#
#
# Mechanical properties :
#
#
# Convention : Reuss Voigt Hill
#
# Bulk Modulus (GPa) = 18.19745 40.98612 29.59178
# Shear Modulus (GPa) = 29.34409 21.10659 25.22534
#
# Velocity S-wave (km/s) = 3.95253 3.35216 3.66466
# Velocity P-wave (km/s) = 5.52433 6.06657 5.80178
#
# Compressibility (1/GPa) = 0.05495277
#
# Stress axis : x y z
#
# Youngs Moduli (GPa) = 13.06811 79.13331 55.76228
#
# Poissons Ratio (x) = -0.39798 1.54553
# Poissons Ratio (y) = -0.06572 0.18863
# Poissons Ratio (z) = 0.36220 0.26769
#
# Static dielectric constant tensor:
#      x y z
#    x 1.613760 0.000000 0.000000 
#    y 0.000000 1.627680 0.000000 
#    z 0.000000 0.000000 1.693160 
# 
# From -- ./inp_files/65667.got.cif
#   From: 2010.05.17/outbox.cif.g08.bks.cpg/sg63_33_cif.got.tgz:65667.got - 2010.06.03 15:47:04.
