data_PCOD9470719
_publ_section_title
;
Structure prediction by ZEFSAII (Michael W. Deem and Ramdas Pophale) SiO2 
 PCOD9470719
Probable space group: C M C M
;
_chemical_formula_sum "Si O2"
_cell_formula_units_Z 116
_cell_length_a 27.529057
_cell_length_b 28.955651
_cell_length_c 9.055837
_cell_angle_alpha 90.000000
_cell_angle_beta 90.000000
_cell_angle_gamma 90.000000
_cell_volume 7218.604790
_symmetry_space_group_name_H-M "C M C M"
_symmetry_group_IT_number 63
_symmetry_cell_setting 'orthorhombic'
loop_
_space_group_symop_operation_xyz
x,y,z
-x,-y,1/2+z
x,-y,-z
-x,y,1/2-z
-x,-y,-z
x,y,1/2-z
-x,y,z
x,-y,1/2+z
1/2+x,1/2+y,z
1/2-x,1/2-y,1/2+z
1/2+x,1/2-y,-z
1/2-x,1/2+y,1/2-z
1/2-x,1/2-y,-z
1/2+x,1/2+y,1/2-z
1/2-x,1/2+y,z
1/2+x,1/2-y,1/2+z
loop_
_atom_site_type_symbol
_atom_site_label
_atom_site_fract_x
_atom_site_fract_y
_atom_site_fract_z
Si Si1 0.000000 0.669885 0.250000
Si Si2 0.186896 0.952265 0.926341
Si Si3 0.352512 0.353629 0.572265
Si Si4 0.233701 0.797670 0.074908
Si Si5 0.170652 0.358799 0.075386
Si Si6 0.907933 0.296824 0.586716
Si Si7 0.802154 0.548082 0.426106
Si Si8 0.555966 0.704504 0.427010
O O1 0.043249 0.674645 0.123895
O O2 0.154687 0.851380 0.750000
O O3 0.159551 0.905868 0.975256
O O4 0.244409 0.946421 0.958477
O O5 0.170598 0.000000 0.000000
O O6 0.442655 0.288031 0.750000
O O7 0.314611 0.318639 0.497503
O O8 0.407010 0.337010 0.539615
O O9 0.227266 0.791096 0.250000
O O10 0.277324 0.834202 0.052058
O O11 0.250000 0.750000 0.000000
O O12 0.163728 0.364910 0.250000
O O13 0.129872 0.325495 0.008588
O O14 0.171254 0.407846 0.993907
O O15 0.886417 0.286148 0.750000
O O16 0.924064 0.249823 0.508099
O O17 0.817700 0.500000 0.500000
O O18 0.808175 0.546271 0.250000
O O19 0.681845 0.456499 0.750000
O O20 0.500000 0.696161 0.470026
#
# Coordination Sequence:
#
# PCOD9470719 Si02
#       8
#     4  16  16  16  16  16  16  16
#     4   8  20  36  54  76 106 132 182 220 254 308
#     4   9  18  32  51  72  99 135 174 212 257 309
#     4  10  20  34  51  73 102 136 175 215 262 315
#     4  11  23  35  47  70 106 143 174 206 250 311
#     4  11  22  34  51  78 109 139 175 213 257 315
#     4  10  19  35  53  75 104 136 174 216 261 302
#     4  10  19  33  53  77 107 142 172 215 258 310
#     4  10  19  33  53  76 102 133 176 225 269 311
#
# _framework density 16.069586999999999
#
# number of rings (size 3 to 8) (size 9 to 14) (size 15 to 20)
#    0.414    1.517    2.069    2.483    0.000    6.621 
#    0.000    0.000    0.000    0.414    0.000    0.483 
#    0.000    0.000    0.000    0.000    0.000    0.000 
#
# Total GULP energy -322937.129112 kJ/mol
# GULP energy per Si atom -5567.881536 kJ/mol
# Density = 1.603301 g / cm^3
# Si number density = 16.069587 Si / 1000 Ang^3
#
#
#
# Elastic Constant Matrix: (Units=GPa)
#
#
# Indices 1 2 3 4 5 6 
#
# 1 79.6983 45.2888 32.0428 0.0000 0.0000 0.0000
# 2 45.2888 106.7759 34.8506 0.0000 0.0000 0.0000
# 3 32.0428 34.8506 36.1986 0.0000 0.0000 0.0000
# 4 0.0000 0.0000 0.0000 27.4721 0.0000 0.0000
# 5 0.0000 0.0000 0.0000 0.0000 22.0064 0.0000
# 6 0.0000 0.0000 0.0000 0.0000 0.0000 12.5140
#
#
#
# Elastic Compliance Matrix: (Units=1/GPa)
#
#
# Indices 1 2 3 4 5 6 
#
# 1 0.020624 -0.004067 -0.014341 0.000000 0.000000 0.000000
# 2 -0.004067 0.014459 -0.010320 0.000000 0.000000 0.000000
# 3 -0.014341 -0.010320 0.050256 0.000000 0.000000 0.000000
# 4 0.000000 0.000000 0.000000 0.036401 0.000000 0.000000
# 5 0.000000 0.000000 0.000000 0.000000 0.045441 0.000000
# 6 0.000000 0.000000 0.000000 0.000000 0.000000 0.079910
#
#
# Mechanical properties :
#
#
# Convention : Reuss Voigt Hill
#
# Bulk Modulus (GPa) = 35.86480 49.67078 42.76779
# Shear Modulus (GPa) = 15.93162 19.76456 17.84809
#
# Velocity S-wave (km/s) = 3.15209 3.51085 3.33629
# Velocity P-wave (km/s) = 5.96778 6.88561 6.44306
#
# Compressibility (1/GPa) = 0.02788249
#
# Stress axis : x y z
#
# Youngs Moduli (GPa) = 48.48694 69.16162 19.89820
#
# Poissons Ratio (x) = 0.28128 0.28536
# Poissons Ratio (y) = 0.19720 0.20536
# Poissons Ratio (z) = 0.69534 0.71377
#
# Static dielectric constant tensor:
#      x y z
#    x 1.524850 0.000000 0.000000 
#    y 0.000000 1.522910 0.000000 
#    z 0.000000 0.000000 1.542840 
# 
# From -- ./inp_files/12940.got.cif
#   From: 2010.05.17/outbox.cif.g08.bks.cpg/sg63_7_cif.got.tgz:12940.got - 2010.06.03 15:47:04.
