data_PCOD9470191
_publ_section_title
;
Structure prediction by ZEFSAII (Michael W. Deem and Ramdas Pophale) SiO2 
 PCOD9470191
Probable space group: C M C M
;
_chemical_formula_sum "Si O2"
_cell_formula_units_Z 112
_cell_length_a 19.213201
_cell_length_b 12.602931
_cell_length_c 27.530997
_cell_angle_alpha 90.000000
_cell_angle_beta 90.000000
_cell_angle_gamma 90.000000
_cell_volume 6666.428474
_symmetry_space_group_name_H-M "C M C M"
_symmetry_group_IT_number 63
_symmetry_cell_setting 'orthorhombic'
loop_
_space_group_symop_operation_xyz
x,y,z
-x,-y,1/2+z
x,-y,-z
-x,y,1/2-z
-x,-y,-z
x,y,1/2-z
-x,y,z
x,-y,1/2+z
1/2+x,1/2+y,z
1/2-x,1/2-y,1/2+z
1/2+x,1/2-y,-z
1/2-x,1/2+y,1/2-z
1/2-x,1/2-y,-z
1/2+x,1/2+y,1/2-z
1/2-x,1/2+y,z
1/2+x,1/2-y,1/2+z
loop_
_atom_site_type_symbol
_atom_site_label
_atom_site_fract_x
_atom_site_fract_y
_atom_site_fract_z
Si Si1 0.320246 0.645348 0.361127
Si Si2 0.217872 0.286954 0.050282
Si Si3 0.919681 0.427166 0.452167
Si Si4 0.631519 0.999949 0.150484
Si Si5 0.184511 0.289805 0.807307
Si Si6 0.212554 0.915285 0.369197
Si Si7 0.580893 0.791636 0.196107
O O1 0.290057 0.690878 0.411477
O O2 0.261322 0.666013 0.320464
O O3 0.333152 0.521053 0.367008
O O4 0.382786 0.719428 0.344183
O O5 0.141630 0.339871 0.044288
O O6 0.269808 0.368874 0.077635
O O7 0.250000 0.250000 0.000000
O O8 0.915881 0.500000 0.500000
O O9 0.900281 0.492772 0.403487
O O10 0.000000 0.388185 0.447711
O O11 0.634676 0.118378 0.171278
O O12 0.710384 0.952470 0.148591
O O13 0.591393 0.914823 0.183126
O O14 0.175174 0.277044 0.750000
O O15 0.182304 0.178250 0.835814
O O16 0.610170 0.771282 0.250000
O O17 0.500000 0.767467 0.196549
#
# Coordination Sequence:
#
# PCOD9470191 Si02
#       7
#    16  16  16  16  16  16  16
#     4  10  20  35  51  79 109 148 181 226 276 333
#     4  10  21  33  57  82 114 145 185 237 279 334
#     4  10  21  35  56  83 111 144 180 228 287 341
#     4  10  19  34  53  77 111 138 183 228 274 333
#     4  10  19  31  51  78 110 142 172 224 283 327
#     4   9  20  33  50  80 109 144 178 220 282 327
#     4  11  21  34  55  80 107 143 189 233 273 328
#
# _framework density 16.800599999999999
#
# number of rings (size 3 to 8) (size 9 to 14) (size 15 to 20)
#    0.000    2.000    4.286    1.286    8.000    2.857 
#    0.000    0.000    0.000    2.571    0.000    4.000 
#    0.000    0.000    0.000    0.000    0.000    0.000 
#
# Total GULP energy -312043.890921 kJ/mol
# GULP energy per Si atom -5572.212338 kJ/mol
# Density = 1.676236 g / cm^3
# Si number density = 16.800600 Si / 1000 Ang^3
#
#
#
# Elastic Constant Matrix: (Units=GPa)
#
#
# Indices 1 2 3 4 5 6 
#
# 1 50.1780 24.2564 32.1512 0.0000 0.0000 0.0000
# 2 24.2564 117.6699 44.6523 0.0000 0.0000 0.0000
# 3 32.1512 44.6523 116.8599 0.0000 0.0000 0.0000
# 4 0.0000 0.0000 0.0000 17.5224 0.0000 0.0000
# 5 0.0000 0.0000 0.0000 0.0000 21.1569 0.0000
# 6 0.0000 0.0000 0.0000 0.0000 0.0000 13.6802
#
#
#
# Elastic Compliance Matrix: (Units=1/GPa)
#
#
# Indices 1 2 3 4 5 6 
#
# 1 0.025058 -0.002982 -0.005755 0.000000 0.000000 0.000000
# 2 -0.002982 0.010294 -0.003113 0.000000 0.000000 0.000000
# 3 -0.005755 -0.003113 0.011330 0.000000 0.000000 0.000000
# 4 0.000000 0.000000 0.000000 0.057070 0.000000 0.000000
# 5 0.000000 0.000000 0.000000 0.000000 0.047266 0.000000
# 6 0.000000 0.000000 0.000000 0.000000 0.000000 0.073098
#
#
# Mechanical properties :
#
#
# Convention : Reuss Voigt Hill
#
# Bulk Modulus (GPa) = 43.51031 54.09197 48.80114
# Shear Modulus (GPa) = 19.57130 22.71510 21.14320
#
# Velocity S-wave (km/s) = 3.41679 3.68100 3.55135
# Velocity P-wave (km/s) = 6.44362 7.09455 6.77691
#
# Compressibility (1/GPa) = 0.02298306
#
# Stress axis : x y z
#
# Youngs Moduli (GPa) = 39.90786 97.14088 88.26068
#
# Poissons Ratio (x) = 0.28964 0.50792
# Poissons Ratio (y) = 0.11899 0.27477
# Poissons Ratio (z) = 0.22966 0.30241
#
# Static dielectric constant tensor:
#      x y z
#    x 1.569410 0.000000 0.000000 
#    y 0.000000 1.583660 0.000000 
#    z 0.000000 0.000000 1.578130 
# 
# From -- ./inp_files/70474.got.cif
#   From: 2010.05.17/outbox.cif.g08.bks.cpg/sg63_36_cif.got.tgz:70474.got - 2010.06.03 15:47:04.
