data_PCOD9470328
_publ_section_title
;
Structure prediction by ZEFSAII (Michael W. Deem and Ramdas Pophale) SiO2 
 PCOD9470328
Probable space group: C M C M
;
_chemical_formula_sum "Si O2"
_cell_formula_units_Z 72
_cell_length_a 16.295419
_cell_length_b 28.383371
_cell_length_c 9.009171
_cell_angle_alpha 90.000000
_cell_angle_beta 90.000000
_cell_angle_gamma 90.000000
_cell_volume 4166.912069
_symmetry_space_group_name_H-M "C M C M"
_symmetry_group_IT_number 63
_symmetry_cell_setting 'orthorhombic'
loop_
_space_group_symop_operation_xyz
x,y,z
-x,-y,1/2+z
x,-y,-z
-x,y,1/2-z
-x,-y,-z
x,y,1/2-z
-x,y,z
x,-y,1/2+z
1/2+x,1/2+y,z
1/2-x,1/2-y,1/2+z
1/2+x,1/2-y,-z
1/2-x,1/2+y,1/2-z
1/2-x,1/2-y,-z
1/2+x,1/2+y,1/2-z
1/2-x,1/2+y,z
1/2+x,1/2-y,1/2+z
loop_
_atom_site_type_symbol
_atom_site_label
_atom_site_fract_x
_atom_site_fract_y
_atom_site_fract_z
Si Si1 0.667538 0.613780 0.427240
Si Si2 0.671302 0.725439 0.072433
Si Si3 0.000000 0.773004 0.077323
Si Si4 0.000000 0.551744 0.428250
Si Si5 0.500000 0.612342 0.920626
Si Si6 0.178620 0.551837 0.070460
O O1 0.659955 0.608930 0.250000
O O2 0.677850 0.669341 0.458004
O O3 0.583423 0.596726 0.500934
O O4 0.746619 0.584653 0.477873
O O5 0.670412 0.732219 0.250000
O O6 0.750000 0.750000 0.000000
O O7 0.584391 0.741929 0.002764
O O8 0.000000 0.830316 0.071885
O O9 0.000000 0.758809 0.250000
O O10 0.000000 0.500000 0.500000
O O11 0.088549 0.572777 0.469422
O O12 0.000000 0.547335 0.250000
O O13 0.500000 0.598250 0.750000
O O14 0.181835 0.547680 0.250000
O O15 0.185377 0.500000 0.000000
#
# Coordination Sequence:
#
# PCOD9470328 Si02
#       6
#    16  16   8   8   8  16
#     4   9  18  32  49  69  95 126 158 192 235 284
#     4  10  19  32  50  72  98 128 161 199 241 287
#     4   9  17  31  50  71  94 124 162 200 239 288
#     4   8  14  26  45  66  89 117 150 184 219 266
#     4   9  17  29  48  71  92 119 158 198 235 278
#     4   9  17  30  48  70  94 122 156 193 233 278
#
# _framework density 17.278983
#
# number of rings (size 3 to 8) (size 9 to 14) (size 15 to 20)
#    0.000    2.889    0.000    1.333    0.000    4.444 
#    0.000    1.667    0.000    4.000    0.000    3.111 
#    0.000    0.000    0.000    0.000    0.000    0.000 
#
# Total GULP energy -200482.458563 kJ/mol
# GULP energy per Si atom -5568.957182 kJ/mol
# Density = 1.723966 g / cm^3
# Si number density = 17.278983 Si / 1000 Ang^3
#
#
#
# Elastic Constant Matrix: (Units=GPa)
#
#
# Indices 1 2 3 4 5 6 
#
# 1 236.6449 59.8897 72.3487 0.0000 0.0000 0.0000
# 2 59.8897 28.0809 30.1454 0.0000 0.0000 0.0000
# 3 72.3487 30.1454 44.4929 0.0000 0.0000 0.0000
# 4 0.0000 0.0000 0.0000 17.5612 0.0000 0.0000
# 5 0.0000 0.0000 0.0000 0.0000 28.5921 0.0000
# 6 0.0000 0.0000 0.0000 0.0000 0.0000 33.3234
#
#
#
# Elastic Compliance Matrix: (Units=1/GPa)
#
#
# Indices 1 2 3 4 5 6 
#
# 1 0.009656 -0.013710 -0.006412 0.000000 0.000000 0.000000
# 2 -0.013710 0.150077 -0.079389 0.000000 0.000000 0.000000
# 3 -0.006412 -0.079389 0.086690 0.000000 0.000000 0.000000
# 4 0.000000 0.000000 0.000000 0.056944 0.000000 0.000000
# 5 0.000000 0.000000 0.000000 0.000000 0.034975 0.000000
# 6 0.000000 0.000000 0.000000 0.000000 0.000000 0.030009
#
#
# Mechanical properties :
#
#
# Convention : Reuss Voigt Hill
#
# Bulk Modulus (GPa) = 21.09632 70.44293 45.76962
# Shear Modulus (GPa) = 8.57380 25.68434 17.12907
#
# Velocity S-wave (km/s) = 2.22997 3.85963 3.15195
# Velocity P-wave (km/s) = 4.34351 7.79223 6.30813
#
# Compressibility (1/GPa) = 0.04740164
#
# Stress axis : x y z
#
# Youngs Moduli (GPa) = 103.56525 6.66326 11.53529
#
# Poissons Ratio (x) = 0.09135 0.07396
# Poissons Ratio (y) = 1.41987 0.91577
# Poissons Ratio (z) = 0.66407 0.52899
#
# Static dielectric constant tensor:
#      x y z
#    x 1.610260 0.000000 0.000000 
#    y 0.000000 1.587790 0.000000 
#    z 0.000000 0.000000 1.576750 
# 
# From -- ./inp_files/4965.got.cif
#   From: 2010.05.17/outbox.cif.g08.bks.cpg/sg63_3_cif.got.tgz:4965.got - 2010.06.03 15:47:04.
