data_PCOD9470644
_publ_section_title
;
Structure prediction by ZEFSAII (Michael W. Deem and Ramdas Pophale) SiO2 
 PCOD9470644
Probable space group: C M C M
;
_chemical_formula_sum "Si O2"
_cell_formula_units_Z 80
_cell_length_a 14.349723
_cell_length_b 22.446331
_cell_length_c 14.624925
_cell_angle_alpha 90.000000
_cell_angle_beta 90.000000
_cell_angle_gamma 90.000000
_cell_volume 4710.668339
_symmetry_space_group_name_H-M "C M C M"
_symmetry_group_IT_number 63
_symmetry_cell_setting 'orthorhombic'
loop_
_space_group_symop_operation_xyz
x,y,z
-x,-y,1/2+z
x,-y,-z
-x,y,1/2-z
-x,-y,-z
x,y,1/2-z
-x,y,z
x,-y,1/2+z
1/2+x,1/2+y,z
1/2-x,1/2-y,1/2+z
1/2+x,1/2-y,-z
1/2-x,1/2+y,1/2-z
1/2-x,1/2-y,-z
1/2+x,1/2+y,1/2-z
1/2-x,1/2+y,z
1/2+x,1/2-y,1/2+z
loop_
_atom_site_type_symbol
_atom_site_label
_atom_site_fract_x
_atom_site_fract_y
_atom_site_fract_z
Si Si1 0.110535 0.258799 0.350298
Si Si2 0.612666 0.333129 0.354918
Si Si3 0.891267 0.071045 0.005873
Si Si4 0.111065 0.292999 0.550402
Si Si5 0.231986 0.138529 0.353772
O O1 0.127227 0.286734 0.250000
O O2 0.132748 0.294582 0.442253
O O3 0.168537 0.198158 0.354113
O O4 0.000000 0.244921 0.355977
O O5 0.647413 0.333070 0.250000
O O6 0.500000 0.332517 0.349848
O O7 0.636538 0.391095 0.415357
O O8 0.637958 0.272239 0.408516
O O9 0.823873 0.092129 0.085717
O O10 0.000000 0.087100 0.024897
O O11 0.886743 0.000000 0.000000
O O12 0.170421 0.341929 0.602815
O O13 0.000000 0.299675 0.562816
O O14 0.243664 0.118671 0.250000
#
# Coordination Sequence:
#
# PCOD9470644 Si02
#       5
#    16  16  16  16  16
#     4   9  17  29  47  73 104 136 166 200 250 311
#     4   9  17  30  48  70  98 132 167 204 251 308
#     4  10  21  36  52  72 101 136 173 213 258 309
#     4  10  19  33  51  74 107 138 169 211 259 312
#     4  11  21  32  51  77 104 135 174 215 259 308
#
# _framework density 16.982728999999999
#
# number of rings (size 3 to 8) (size 9 to 14) (size 15 to 20)
#    0.000    2.200    2.000    1.800    0.000    3.200 
#    0.000    2.000    0.000    0.600    0.000    0.000 
#    0.000    0.000    0.000    0.000    0.000    0.000 
#
# Total GULP energy -223070.577949 kJ/mol
# GULP energy per Si atom -5576.764449 kJ/mol
# Density = 1.694408 g / cm^3
# Si number density = 16.982729 Si / 1000 Ang^3
#
#
#
# Elastic Constant Matrix: (Units=GPa)
#
#
# Indices 1 2 3 4 5 6 
#
# 1 68.4321 33.8485 48.9177 0.0000 0.0000 0.0000
# 2 33.8485 56.8330 47.8078 0.0000 0.0000 0.0000
# 3 48.9177 47.8078 167.0970 0.0000 0.0000 0.0000
# 4 0.0000 0.0000 0.0000 8.5081 0.0000 0.0000
# 5 0.0000 0.0000 0.0000 0.0000 18.3516 0.0000
# 6 0.0000 0.0000 0.0000 0.0000 0.0000 18.7199
#
#
#
# Elastic Compliance Matrix: (Units=1/GPa)
#
#
# Indices 1 2 3 4 5 6 
#
# 1 0.022233 -0.010228 -0.003582 0.000000 0.000000 0.000000
# 2 -0.010228 0.027878 -0.004982 0.000000 0.000000 0.000000
# 3 -0.003582 -0.004982 0.008459 0.000000 0.000000 0.000000
# 4 0.000000 0.000000 0.000000 0.117536 0.000000 0.000000
# 5 0.000000 0.000000 0.000000 0.000000 0.054491 0.000000
# 6 0.000000 0.000000 0.000000 0.000000 0.000000 0.053419
#
#
# Mechanical properties :
#
#
# Convention : Reuss Voigt Hill
#
# Bulk Modulus (GPa) = 47.65326 61.50110 54.57718
# Shear Modulus (GPa) = 15.21634 19.90178 17.55906
#
# Velocity S-wave (km/s) = 2.99655 3.42699 3.21898
# Velocity P-wave (km/s) = 6.33192 7.20774 6.78398
#
# Compressibility (1/GPa) = 0.02098492
#
# Stress axis : x y z
#
# Youngs Moduli (GPa) = 44.97851 35.87109 118.22258
#
# Poissons Ratio (x) = 0.36689 0.42352
# Poissons Ratio (y) = 0.46004 0.58896
# Poissons Ratio (z) = 0.16113 0.17870
#
# Static dielectric constant tensor:
#      x y z
#    x 1.585380 0.000000 0.000000 
#    y 0.000000 1.534270 0.000000 
#    z 0.000000 0.000000 1.615060 
# 
# From -- ./inp_files/31621.got.cif
#   From: 2010.05.17/outbox.cif.g08.bks.cpg/sg63_16_cif.got.tgz:31621.got - 2010.06.03 15:47:04.
