data_PCOD9470480
_publ_section_title
;
Structure prediction by ZEFSAII (Michael W. Deem and Ramdas Pophale) SiO2 
 PCOD9470480
Probable space group: C M C M
;
_chemical_formula_sum "Si O2"
_cell_formula_units_Z 96
_cell_length_a 25.186032
_cell_length_b 15.235324
_cell_length_c 14.605901
_cell_angle_alpha 90.000000
_cell_angle_beta 90.000000
_cell_angle_gamma 90.000000
_cell_volume 5604.537740
_symmetry_space_group_name_H-M "C M C M"
_symmetry_group_IT_number 63
_symmetry_cell_setting 'orthorhombic'
loop_
_space_group_symop_operation_xyz
x,y,z
-x,-y,1/2+z
x,-y,-z
-x,y,1/2-z
-x,-y,-z
x,y,1/2-z
-x,y,z
x,-y,1/2+z
1/2+x,1/2+y,z
1/2-x,1/2-y,1/2+z
1/2+x,1/2-y,-z
1/2-x,1/2+y,1/2-z
1/2-x,1/2-y,-z
1/2+x,1/2+y,1/2-z
1/2-x,1/2+y,z
1/2+x,1/2-y,1/2+z
loop_
_atom_site_type_symbol
_atom_site_label
_atom_site_fract_x
_atom_site_fract_y
_atom_site_fract_z
Si Si1 0.753452 0.812828 0.357053
Si Si2 0.435893 0.827381 0.250000
Si Si3 0.616065 0.078851 0.064402
Si Si4 0.632967 0.226385 0.578099
Si Si5 0.437310 0.964732 0.750000
Si Si6 0.823417 0.905579 0.988025
Si Si7 0.727233 0.105852 0.356564
O O1 0.754901 0.839025 0.250000
O O2 0.692069 0.807138 0.390716
O O3 0.789347 0.871344 0.424296
O O4 0.774972 0.712359 0.363588
O O5 0.500000 0.817835 0.250000
O O6 0.407523 0.785985 0.161490
O O7 0.422694 0.931745 0.250000
O O8 0.584966 0.079589 0.158983
O O9 0.677129 0.064250 0.093374
O O10 0.614021 0.166607 0.005572
O O11 0.597105 0.000000 0.000000
O O12 0.640052 0.325874 0.544949
O O13 0.500000 0.960025 0.750000
O O14 0.780311 0.920246 0.908003
O O15 0.850162 0.000000 0.000000
O O16 0.727409 0.082464 0.250000
#
# Coordination Sequence:
#
# PCOD9470480 Si02
#       7
#    16   8  16  16   8  16  16
#     4  10  19  33  53  79 117 153 186 230 267 330
#     4  11  24  42  63  85 111 145 190 243 297 345
#     4  12  21  34  58  80 112 157 186 226 280 344
#     4  11  21  39  59  83 116 153 194 234 282 341
#     4  11  26  40  55  87 115 139 188 243 293 349
#     4  11  22  35  52  85 121 153 193 233 274 331
#     4  10  19  32  52  78 112 155 189 219 269 335
#
# _framework density 17.128976000000002
#
# number of rings (size 3 to 8) (size 9 to 14) (size 15 to 20)
#    0.000    1.167    6.667    1.500    1.167    1.667 
#    0.000    0.000    0.000    0.500    0.000    1.167 
#    0.000    0.000    0.000    0.000    0.000    0.000 
#
# Total GULP energy -268105.091944 kJ/mol
# GULP energy per Si atom -5585.522749 kJ/mol
# Density = 1.708999 g / cm^3
# Si number density = 17.128976 Si / 1000 Ang^3
#
#
#
# Elastic Constant Matrix: (Units=GPa)
#
#
# Indices 1 2 3 4 5 6 
#
# 1 48.5837 28.8758 36.4652 0.0000 0.0000 0.0000
# 2 28.8758 59.4532 52.8239 0.0000 0.0000 0.0000
# 3 36.4652 52.8239 145.9597 0.0000 0.0000 0.0000
# 4 0.0000 0.0000 0.0000 15.7192 0.0000 0.0000
# 5 0.0000 0.0000 0.0000 0.0000 -31.4597 0.0000
# 6 0.0000 0.0000 0.0000 0.0000 0.0000 11.9871
#
#
#
# Elastic Compliance Matrix: (Units=1/GPa)
#
#
# Indices 1 2 3 4 5 6 
#
# 1 0.029959 -0.011645 -0.003270 0.000000 0.000000 0.000000
# 2 -0.011645 0.029318 -0.007701 0.000000 0.000000 0.000000
# 3 -0.003270 -0.007701 0.010455 0.000000 0.000000 0.000000
# 4 0.000000 0.000000 0.000000 0.063616 0.000000 0.000000
# 5 0.000000 0.000000 0.000000 0.000000 -0.031787 0.000000
# 6 0.000000 0.000000 0.000000 0.000000 0.000000 0.083423
#
#
# Mechanical properties :
#
#
# Convention : Reuss Voigt Hill
#
# Bulk Modulus (GPa) = 40.81730 54.48071 47.64901
# Shear Modulus (GPa) = 20.97446 8.30476 14.63961
#
# Velocity S-wave (km/s) = 3.50308 2.20429 2.92664
# Velocity P-wave (km/s) = 6.34376 6.19304 6.26885
#
# Compressibility (1/GPa) = 0.02449941
#
# Stress axis : x y z
#
# Youngs Moduli (GPa) = 33.37917 34.10824 95.64511
#
# Poissons Ratio (x) = 0.39720 0.31277
# Poissons Ratio (y) = 0.38871 0.73659
# Poissons Ratio (z) = 0.10915 0.26268
#
# Static dielectric constant tensor:
#      x y z
#    x 1.546070 0.000000 0.000000 
#    y 0.000000 1.606870 0.000000 
#    z 0.000000 0.000000 1.584090 
# 
# From -- ./inp_files/36801.got.cif
#   From: 2010.05.17/outbox.cif.g08.bks.cpg/sg63_19_cif.got.tgz:36801.got - 2010.06.03 15:47:04.
