data_PCOD9470349
_publ_section_title
;
Structure prediction by ZEFSAII (Michael W. Deem and Ramdas Pophale) SiO2 
 PCOD9470349
Probable space group: C M C M
;
_chemical_formula_sum "Si O2"
_cell_formula_units_Z 88
_cell_length_a 23.062564
_cell_length_b 23.720160
_cell_length_c 7.768355
_cell_angle_alpha 90.000000
_cell_angle_beta 90.000000
_cell_angle_gamma 90.000000
_cell_volume 4249.660798
_symmetry_space_group_name_H-M "C M C M"
_symmetry_group_IT_number 63
_symmetry_cell_setting 'orthorhombic'
loop_
_space_group_symop_operation_xyz
x,y,z
-x,-y,1/2+z
x,-y,-z
-x,y,1/2-z
-x,-y,-z
x,y,1/2-z
-x,y,z
x,-y,1/2+z
1/2+x,1/2+y,z
1/2-x,1/2-y,1/2+z
1/2+x,1/2-y,-z
1/2-x,1/2+y,1/2-z
1/2-x,1/2-y,-z
1/2+x,1/2+y,1/2-z
1/2-x,1/2+y,z
1/2+x,1/2-y,1/2+z
loop_
_atom_site_type_symbol
_atom_site_label
_atom_site_fract_x
_atom_site_fract_y
_atom_site_fract_z
Si Si1 0.160543 0.352551 0.959279
Si Si2 0.000000 0.066749 0.457612
Si Si3 0.565180 0.061423 0.043538
Si Si4 0.260443 0.436908 0.544044
Si Si5 0.622839 0.617799 0.460947
Si Si6 0.814979 0.231179 0.052401
O O1 0.162300 0.349744 0.750000
O O2 0.107306 0.390518 0.018096
O O3 0.218293 0.386450 0.017166
O O4 0.152617 0.289936 0.027146
O O5 0.059312 0.097457 0.519625
O O6 0.000000 0.070764 0.250000
O O7 0.000000 0.000000 0.500000
O O8 0.562566 0.065606 0.250000
O O9 0.500000 0.065103 0.973918
O O10 0.588990 0.000000 0.000000
O O11 0.240945 0.500000 0.500000
O O12 0.259684 0.432960 0.750000
O O13 0.326279 0.425602 0.486576
O O14 0.619930 0.618722 0.250000
O O15 0.648623 0.678534 0.522140
O O16 0.808043 0.215349 0.250000
O O17 0.750000 0.250000 0.000000
#
# Coordination Sequence:
#
# PCOD9470349 Si02
#       6
#    16   8  16  16  16  16
#     4  10  20  35  53  75 109 144 177 222 274 323
#     4  10  20  38  62  84 112 148 183 226 277 328
#     4   9  18  33  53  76 106 143 179 219 269 321
#     4  10  19  32  50  76 107 136 171 217 268 320
#     4   9  19  36  56  78 109 144 177 220 274 323
#     4  11  21  37  58  80 107 142 182 222 272 330
#
# _framework density 20.707536000000001
#
# number of rings (size 3 to 8) (size 9 to 14) (size 15 to 20)
#    0.000    2.182    1.818    1.636    0.000    1.455 
#    1.636    1.818    0.000    0.000    0.000    0.000 
#    0.000    0.000    0.000    0.000    0.000    0.000 
#
# Total GULP energy -245367.907968 kJ/mol
# GULP energy per Si atom -5576.543363 kJ/mol
# Density = 2.066041 g / cm^3
# Si number density = 20.707536 Si / 1000 Ang^3
#
#
#
# Elastic Constant Matrix: (Units=GPa)
#
#
# Indices 1 2 3 4 5 6 
#
# 1 115.7003 68.0978 8.7879 0.0000 0.0000 0.0000
# 2 68.0978 146.3261 -5.9797 0.0000 0.0000 0.0000
# 3 8.7879 -5.9797 23.0453 0.0000 0.0000 0.0000
# 4 0.0000 0.0000 0.0000 23.8751 0.0000 0.0000
# 5 0.0000 0.0000 0.0000 0.0000 -0.5202 0.0000
# 6 0.0000 0.0000 0.0000 0.0000 0.0000 77.4793
#
#
#
# Elastic Compliance Matrix: (Units=1/GPa)
#
#
# Indices 1 2 3 4 5 6 
#
# 1 0.012798 -0.006221 -0.006495 0.000000 0.000000 0.000000
# 2 -0.006221 0.009932 0.004949 0.000000 0.000000 0.000000
# 3 -0.006495 0.004949 0.047154 0.000000 0.000000 0.000000
# 4 0.000000 0.000000 0.000000 0.041885 0.000000 0.000000
# 5 0.000000 0.000000 0.000000 0.000000 -1.922418 0.000000
# 6 0.000000 0.000000 0.000000 0.000000 0.000000 0.012907
#
#
# Mechanical properties :
#
#
# Convention : Reuss Voigt Hill
#
# Bulk Modulus (GPa) = 18.39917 47.43153 32.91535
# Shear Modulus (GPa) = -2.83432 34.44455 15.80512
#
# Velocity S-wave (km/s) = -1.17120 4.08288 2.76570
# Velocity P-wave (km/s) = 2.66000 6.72174 5.11162
#
# Compressibility (1/GPa) = 0.05435028
#
# Stress axis : x y z
#
# Youngs Moduli (GPa) = 78.13695 100.68818 21.20723
#
# Poissons Ratio (x) = 0.62642 0.13773
# Poissons Ratio (y) = 0.48612 -0.10496
# Poissons Ratio (z) = 0.50747 -0.49835
#
# Static dielectric constant tensor:
#      x y z
#    x 1.774540 0.000000 0.000000 
#    y 0.000000 1.749590 0.000000 
#    z 0.000000 0.000000 1.757210 
# 
# From -- ./inp_files/8146.got.cif
#   From: 2010.05.17/outbox.cif.g08.bks.cpg/sg63_5_cif.got.tgz:8146.got - 2010.06.03 15:47:04.
