data_PCOD9470445
_publ_section_title
;
Structure prediction by ZEFSAII (Michael W. Deem and Ramdas Pophale) SiO2 
 PCOD9470445
Probable space group: C M C M
;
_chemical_formula_sum "Si O2"
_cell_formula_units_Z 104
_cell_length_a 28.415670
_cell_length_b 23.300512
_cell_length_c 9.299338
_cell_angle_alpha 90.000000
_cell_angle_beta 90.000000
_cell_angle_gamma 90.000000
_cell_volume 6157.088526
_symmetry_space_group_name_H-M "C M C M"
_symmetry_group_IT_number 63
_symmetry_cell_setting 'orthorhombic'
loop_
_space_group_symop_operation_xyz
x,y,z
-x,-y,1/2+z
x,-y,-z
-x,y,1/2-z
-x,-y,-z
x,y,1/2-z
-x,y,z
x,-y,1/2+z
1/2+x,1/2+y,z
1/2-x,1/2-y,1/2+z
1/2+x,1/2-y,-z
1/2-x,1/2+y,1/2-z
1/2-x,1/2-y,-z
1/2+x,1/2+y,1/2-z
1/2-x,1/2+y,z
1/2+x,1/2-y,1/2+z
loop_
_atom_site_type_symbol
_atom_site_label
_atom_site_fract_x
_atom_site_fract_y
_atom_site_fract_z
Si Si1 0.201074 0.260563 0.581410
Si Si2 0.946120 0.439029 0.922589
Si Si3 0.000000 0.939125 0.579133
Si Si4 0.268447 0.057447 0.579846
Si Si5 0.850494 0.621906 0.423438
Si Si6 0.101816 0.060979 0.079655
Si Si7 0.823007 0.132001 0.915132
O O1 0.212197 0.269132 0.750000
O O2 0.250000 0.250000 0.500000
O O3 0.169280 0.314862 0.536095
O O4 0.174611 0.200080 0.567654
O O5 0.944345 0.447654 0.750000
O O6 0.904534 0.394162 0.959028
O O7 0.000000 0.421086 0.958679
O O8 0.937303 0.500000 0.000000
O O9 0.949620 0.911982 0.544904
O O10 0.000000 0.949414 0.750000
O O11 0.000000 0.000000 0.500000
O O12 0.274804 0.047167 0.750000
O O13 0.316307 0.077583 0.504200
O O14 0.229663 0.107573 0.562647
O O15 0.251325 0.000000 0.500000
O O16 0.845463 0.616148 0.250000
O O17 0.105246 0.051998 0.250000
O O18 0.142766 0.100747 0.023265
O O19 0.104999 0.000000 0.000000
O O20 0.835643 0.117229 0.750000
#
# Coordination Sequence:
#
# PCOD9470445 Si02
#       7
#    16  16   8  16  16  16  16
#     4  10  20  36  55  75 101 134 174 214 252 299
#     4   9  18  33  53  79 108 137 169 210 262 315
#     4   8  16  30  48  72  98 126 162 202 247 300
#     4  11  22  34  49  73 106 138 167 207 254 304
#     4  10  20  34  55  78 102 135 173 214 257 308
#     4  10  19  32  52  76 102 133 167 208 258 308
#     4  10  21  35  50  72 103 135 171 212 252 301
#
# _framework density 16.891100999999999
#
# number of rings (size 3 to 8) (size 9 to 14) (size 15 to 20)
#    0.000    2.154    1.538    1.846    0.000    5.538 
#    0.000    0.000    1.692    0.000    0.000    0.000 
#    0.000    0.000    0.000    0.000    0.000    0.000 
#
# Total GULP energy -289770.765753 kJ/mol
# GULP energy per Si atom -5572.514726 kJ/mol
# Density = 1.685266 g / cm^3
# Si number density = 16.891101 Si / 1000 Ang^3
#
#
#
# Elastic Constant Matrix: (Units=GPa)
#
#
# Indices 1 2 3 4 5 6 
#
# 1 113.2383 38.5394 46.1398 0.0000 0.0000 0.0000
# 2 38.5394 77.0045 29.6377 0.0000 0.0000 0.0000
# 3 46.1398 29.6377 39.1125 0.0000 0.0000 0.0000
# 4 0.0000 0.0000 0.0000 21.4452 0.0000 0.0000
# 5 0.0000 0.0000 0.0000 0.0000 20.1325 0.0000
# 6 0.0000 0.0000 0.0000 0.0000 0.0000 17.5672
#
#
#
# Elastic Compliance Matrix: (Units=1/GPa)
#
#
# Indices 1 2 3 4 5 6 
#
# 1 0.017072 -0.001119 -0.019291 0.000000 0.000000 0.000000
# 2 -0.001119 0.018406 -0.012627 0.000000 0.000000 0.000000
# 3 -0.019291 -0.012627 0.057893 0.000000 0.000000 0.000000
# 4 0.000000 0.000000 0.000000 0.046630 0.000000 0.000000
# 5 0.000000 0.000000 0.000000 0.000000 0.049671 0.000000
# 6 0.000000 0.000000 0.000000 0.000000 0.000000 0.056924
#
#
# Mechanical properties :
#
#
# Convention : Reuss Voigt Hill
#
# Bulk Modulus (GPa) = 36.63547 50.88771 43.76159
# Shear Modulus (GPa) = 15.53896 19.49823 17.51859
#
# Velocity S-wave (km/s) = 3.03636 3.40126 3.22397
# Velocity P-wave (km/s) = 5.83343 6.75404 6.31055
#
# Compressibility (1/GPa) = 0.02729595
#
# Stress axis : x y z
#
# Youngs Moduli (GPa) = 58.57407 54.32880 17.27324
#
# Poissons Ratio (x) = 0.06082 0.33323
# Poissons Ratio (y) = 0.06557 0.21811
# Poissons Ratio (z) = 1.12998 0.68601
#
# Static dielectric constant tensor:
#      x y z
#    x 1.598280 0.000000 0.000000 
#    y 0.000000 1.563830 0.000000 
#    z 0.000000 0.000000 1.558160 
# 
# From -- ./inp_files/12869.got.cif
#   From: 2010.05.17/outbox.cif.g08.bks.cpg/sg63_7_cif.got.tgz:12869.got - 2010.06.03 15:47:04.
