data_PCOD9470525
_publ_section_title
;
Structure prediction by ZEFSAII (Michael W. Deem and Ramdas Pophale) SiO2 
 PCOD9470525
Probable space group: C M C M
;
_chemical_formula_sum "Si O2"
_cell_formula_units_Z 96
_cell_length_a 8.413953
_cell_length_b 24.385259
_cell_length_c 26.785434
_cell_angle_alpha 90.000000
_cell_angle_beta 90.000000
_cell_angle_gamma 90.000000
_cell_volume 5495.739540
_symmetry_space_group_name_H-M "C M C M"
_symmetry_group_IT_number 63
_symmetry_cell_setting 'orthorhombic'
loop_
_space_group_symop_operation_xyz
x,y,z
-x,-y,1/2+z
x,-y,-z
-x,y,1/2-z
-x,-y,-z
x,y,1/2-z
-x,y,z
x,-y,1/2+z
1/2+x,1/2+y,z
1/2-x,1/2-y,1/2+z
1/2+x,1/2-y,-z
1/2-x,1/2+y,1/2-z
1/2-x,1/2-y,-z
1/2+x,1/2+y,1/2-z
1/2-x,1/2+y,z
1/2+x,1/2-y,1/2+z
loop_
_atom_site_type_symbol
_atom_site_label
_atom_site_fract_x
_atom_site_fract_y
_atom_site_fract_z
Si Si1 0.809155 0.243443 0.384294
Si Si2 0.688048 0.523668 0.445649
Si Si3 0.686955 0.144439 0.433667
Si Si4 0.312841 0.922812 0.388460
Si Si5 0.193657 0.336184 0.193065
Si Si6 0.186170 0.831322 0.040586
O O1 0.745238 0.181810 0.387714
O O2 0.761010 0.281024 0.336988
O O3 0.739146 0.276292 0.431697
O O4 0.000000 0.243427 0.387038
O O5 0.740998 0.500000 0.500000
O O6 0.500000 0.534353 0.449765
O O7 0.772797 0.580225 0.431612
O O8 0.722580 0.477413 0.404476
O O9 0.500000 0.152037 0.440462
O O10 0.777912 0.166851 0.482400
O O11 0.500000 0.934562 0.383590
O O12 0.256894 0.889017 0.339704
O O13 0.285308 0.879750 0.433327
O O14 0.249008 0.337147 0.250000
O O15 0.000000 0.337138 0.193223
O O16 0.000000 0.841095 0.049283
#
# Coordination Sequence:
#
# PCOD9470525 Si02
#       6
#    16  16  16  16  16  16
#     4  10  20  34  52  76 105 136 173 215 262 312
#     4  11  22  35  52  74 105 145 181 217 256 307
#     4  12  23  34  50  72 104 142 179 215 256 308
#     4  10  19  32  53  80 107 138 176 218 261 307
#     4   8  16  33  58  84 106 131 167 214 268 318
#     4  11  20  32  49  72 105 141 177 214 254 304
#
# _framework density 17.468076
#
# number of rings (size 3 to 8) (size 9 to 14) (size 15 to 20)
#    0.000    1.667    1.667    6.000    0.000    0.667 
#    0.000    0.000    0.000   19.000    0.000    0.000 
#    0.000    0.000    0.000    0.000    0.000    0.000 
#
# Total GULP energy -267918.380404 kJ/mol
# GULP energy per Si atom -5581.632925 kJ/mol
# Density = 1.742832 g / cm^3
# Si number density = 17.468076 Si / 1000 Ang^3
#
#
#
# Elastic Constant Matrix: (Units=GPa)
#
#
# Indices 1 2 3 4 5 6 
#
# 1 35.2161 5.2915 0.0038 0.0000 0.0000 0.0000
# 2 5.2915 101.6129 49.3870 0.0000 0.0000 0.0000
# 3 0.0038 49.3870 90.0113 0.0000 0.0000 0.0000
# 4 0.0000 0.0000 0.0000 8.0226 0.0000 0.0000
# 5 0.0000 0.0000 0.0000 0.0000 9.2488 0.0000
# 6 0.0000 0.0000 0.0000 0.0000 0.0000 24.0221
#
#
#
# Elastic Compliance Matrix: (Units=1/GPa)
#
#
# Indices 1 2 3 4 5 6 
#
# 1 0.028702 -0.002037 0.001117 0.000000 0.000000 0.000000
# 2 -0.002037 0.013565 -0.007443 0.000000 0.000000 0.000000
# 3 0.001117 -0.007443 0.015193 0.000000 0.000000 0.000000
# 4 0.000000 0.000000 0.000000 0.124648 0.000000 0.000000
# 5 0.000000 0.000000 0.000000 0.000000 0.108122 0.000000
# 6 0.000000 0.000000 0.000000 0.000000 0.000000 0.041628
#
#
# Mechanical properties :
#
#
# Convention : Reuss Voigt Hill
#
# Bulk Modulus (GPa) = 24.54986 37.35613 30.95299
# Shear Modulus (GPa) = 13.80595 19.73590 16.77093
#
# Velocity S-wave (km/s) = 2.81437 3.36494 3.10189
# Velocity P-wave (km/s) = 4.96443 6.04391 5.53057
#
# Compressibility (1/GPa) = 0.04073343
#
# Stress axis : x y z
#
# Youngs Moduli (GPa) = 34.84065 73.72096 65.81887
#
# Poissons Ratio (x) = 0.15020 -0.07350
# Poissons Ratio (y) = 0.07098 0.48986
# Poissons Ratio (z) = -0.03890 0.54867
#
# Static dielectric constant tensor:
#      x y z
#    x 1.579860 0.000000 0.000000 
#    y 0.000000 1.618830 0.000000 
#    z 0.000000 0.000000 1.588260 
# 
# From -- ./inp_files/67218.got.cif
#   From: 2010.05.17/outbox.cif.g08.bks.cpg/sg63_34_cif.got.tgz:67218.got - 2010.06.03 15:47:04.
