data_PCOD9470568
_publ_section_title
;
Structure prediction by ZEFSAII (Michael W. Deem and Ramdas Pophale) SiO2 
 PCOD9470568
Probable space group: C M C M
;
_chemical_formula_sum "Si O2"
_cell_formula_units_Z 104
_cell_length_a 7.976097
_cell_length_b 26.686321
_cell_length_c 25.392777
_cell_angle_alpha 90.000000
_cell_angle_beta 90.000000
_cell_angle_gamma 90.000000
_cell_volume 5404.920761
_symmetry_space_group_name_H-M "C M C M"
_symmetry_group_IT_number 63
_symmetry_cell_setting 'orthorhombic'
loop_
_space_group_symop_operation_xyz
x,y,z
-x,-y,1/2+z
x,-y,-z
-x,y,1/2-z
-x,-y,-z
x,y,1/2-z
-x,y,z
x,-y,1/2+z
1/2+x,1/2+y,z
1/2-x,1/2-y,1/2+z
1/2+x,1/2-y,-z
1/2-x,1/2+y,1/2-z
1/2-x,1/2-y,-z
1/2+x,1/2+y,1/2-z
1/2-x,1/2+y,z
1/2+x,1/2-y,1/2+z
loop_
_atom_site_type_symbol
_atom_site_label
_atom_site_fract_x
_atom_site_fract_y
_atom_site_fract_z
Si Si1 0.000000 0.559897 0.996926
Si Si2 0.500000 0.107445 0.384430
Si Si3 0.199882 0.718336 0.587812
Si Si4 0.500000 0.989121 0.686135
Si Si5 0.682739 0.620370 0.971899
Si Si6 0.315121 0.555827 0.814128
Si Si7 0.201171 0.665131 0.690208
Si Si8 0.690233 0.331639 0.586538
O O1 0.163698 0.581997 0.967384
O O2 0.000000 0.500000 0.000000
O O3 0.000000 0.582290 0.056775
O O4 0.500000 0.064078 0.341558
O O5 0.333512 0.141398 0.380068
O O6 0.285675 0.672547 0.558114
O O7 0.235444 0.709157 0.649493
O O8 0.245398 0.774797 0.572965
O O9 0.000000 0.712849 0.578858
O O10 0.500000 0.985527 0.750000
O O11 0.335647 0.020257 0.669267
O O12 0.500000 0.599606 0.957280
O O13 0.679370 0.637118 0.032821
O O14 0.311239 0.556390 0.750000
O O15 0.500000 0.539483 0.830954
O O16 0.281644 0.613316 0.829532
O O17 0.255901 0.674928 0.750000
O O18 0.000000 0.656822 0.690968
O O19 0.500000 0.329032 0.609091
#
# Coordination Sequence:
#
# PCOD9470568 Si02
#       8
#     8   8  16   8  16  16  16  16
#     4  10  22  40  56  80 116 146 176 219 274 334
#     4  10  22  38  58  76 106 150 179 218 282 322
#     4  10  19  32  54  81 109 140 181 226 266 319
#     4  10  20  36  56  80 106 142 192 233 264 316
#     4  10  20  35  57  83 108 138 180 226 269 317
#     4   9  17  31  52  76 104 137 175 223 273 313
#     4   9  17  31  50  75 111 147 174 212 268 324
#     4   9  20  37  55  79 109 139 177 226 276 321
#
# _framework density 19.241726
#
# number of rings (size 3 to 8) (size 9 to 14) (size 15 to 20)
#    0.000    2.462    1.538    0.462    1.077    2.769 
#    0.000    0.769    0.000    0.923    0.000    0.000 
#    0.000    0.000    0.000    0.000    0.000    0.000 
#
# Total GULP energy -290085.253956 kJ/mol
# GULP energy per Si atom -5578.562576 kJ/mol
# Density = 1.919793 g / cm^3
# Si number density = 19.241726 Si / 1000 Ang^3
#
#
#
# Elastic Constant Matrix: (Units=GPa)
#
#
# Indices 1 2 3 4 5 6 
#
# 1 122.3544 55.9417 14.7413 0.0000 0.0000 0.0000
# 2 55.9417 78.5643 -7.6347 0.0000 0.0000 0.0000
# 3 14.7413 -7.6347 10.6853 0.0000 0.0000 0.0000
# 4 0.0000 0.0000 0.0000 19.1214 0.0000 0.0000
# 5 0.0000 0.0000 0.0000 0.0000 2.7826 0.0000
# 6 0.0000 0.0000 0.0000 0.0000 0.0000 4.7724
#
#
#
# Elastic Compliance Matrix: (Units=1/GPa)
#
#
# Indices 1 2 3 4 5 6 
#
# 1 0.024053 -0.021870 -0.048809 0.000000 0.000000 0.000000
# 2 -0.021870 0.033563 0.054153 0.000000 0.000000 0.000000
# 3 -0.048809 0.054153 0.199616 0.000000 0.000000 0.000000
# 4 0.000000 0.000000 0.000000 0.052297 0.000000 0.000000
# 5 0.000000 0.000000 0.000000 0.000000 0.359376 0.000000
# 6 0.000000 0.000000 0.000000 0.000000 0.000000 0.209537
#
#
# Mechanical properties :
#
#
# Convention : Reuss Voigt Hill
#
# Bulk Modulus (GPa) = 4.46070 37.52228 20.99149
# Shear Modulus (GPa) = 5.06986 15.23900 10.15443
#
# Velocity S-wave (km/s) = 1.62498 2.81726 2.29973
# Velocity P-wave (km/s) = 2.41744 5.48866 4.24084
#
# Compressibility (1/GPa) = 0.22418006
#
# Stress axis : x y z
#
# Youngs Moduli (GPa) = 41.57553 29.79443 5.00961
#
# Poissons Ratio (x) = 0.65160 0.24451
# Poissons Ratio (y) = 0.90925 -0.27128
# Poissons Ratio (z) = 2.02926 -1.61345
#
# Static dielectric constant tensor:
#      x y z
#    x 1.711610 0.000000 0.000000 
#    y 0.000000 1.626420 0.000000 
#    z 0.000000 0.000000 1.686330 
# 
# From -- ./inp_files/67418.got.cif
#   From: 2010.05.17/outbox.cif.g08.bks.cpg/sg63_34_cif.got.tgz:67418.got - 2010.06.03 15:47:04.
