data_PCOD9470008
_publ_section_title
;
Structure prediction by ZEFSAII (Michael W. Deem and Ramdas Pophale) SiO2 
 PCOD9470008
Probable space group: C M C M
;
_chemical_formula_sum "Si O2"
_cell_formula_units_Z 96
_cell_length_a 20.897051
_cell_length_b 30.236757
_cell_length_c 7.611561
_cell_angle_alpha 90.000000
_cell_angle_beta 90.000000
_cell_angle_gamma 90.000000
_cell_volume 4809.433726
_symmetry_space_group_name_H-M "C M C M"
_symmetry_group_IT_number 63
_symmetry_cell_setting 'orthorhombic'
loop_
_space_group_symop_operation_xyz
x,y,z
-x,-y,1/2+z
x,-y,-z
-x,y,1/2-z
-x,-y,-z
x,y,1/2-z
-x,y,z
x,-y,1/2+z
1/2+x,1/2+y,z
1/2-x,1/2-y,1/2+z
1/2+x,1/2-y,-z
1/2-x,1/2+y,1/2-z
1/2-x,1/2-y,-z
1/2+x,1/2+y,1/2-z
1/2-x,1/2+y,z
1/2+x,1/2-y,1/2+z
loop_
_atom_site_type_symbol
_atom_site_label
_atom_site_fract_x
_atom_site_fract_y
_atom_site_fract_z
Si Si1 0.207731 0.793426 0.038478
Si Si2 0.431475 0.447323 0.961013
Si Si3 0.430049 0.161124 0.961277
Si Si4 0.792891 0.051785 0.458763
Si Si5 0.570649 0.734526 0.961055
Si Si6 0.703364 0.871433 0.457059
O O1 0.202948 0.796873 0.250000
O O2 0.135042 0.788669 0.970918
O O3 0.246691 0.835524 0.969046
O O4 0.250000 0.750000 0.000000
O O5 0.431687 0.441933 0.750000
O O6 0.500000 0.429598 0.028304
O O7 0.362438 0.431509 0.028702
O O8 0.431553 0.500000 0.000000
O O9 0.432219 0.156197 0.750000
O O10 0.500000 0.147586 0.030220
O O11 0.367784 0.135676 0.029845
O O12 0.422082 0.213233 0.000115
O O13 0.794556 0.056328 0.250000
O O14 0.786700 0.000000 0.500000
O O15 0.734514 0.919183 0.475342
O O16 0.569503 0.729394 0.750000
O O17 0.500000 0.720690 0.027689
O O18 0.698385 0.861553 0.250000
#
# Coordination Sequence:
#
# PCOD9470008 Si02
#       6
#    16  16  16  16  16  16
#     4  10  19  31  48  71 100 132 165 203 246 291
#     4   8  14  26  45  68  92 118 152 194 237 282
#     4   9  17  30  49  72  98 129 165 204 246 293
#     4  10  20  34  53  75  99 130 166 207 253 299
#     4   9  17  29  46  69  99 134 169 205 244 289
#     4  10  20  33  49  73 103 132 165 206 250 297
#
# _framework density 19.960771000000001
#
# number of rings (size 3 to 8) (size 9 to 14) (size 15 to 20)
#    0.000    2.667    1.667    0.500    0.000    2.000 
#    0.000    0.833    0.000    1.500    0.000    0.000 
#    0.000    0.000    0.000    0.000    0.000    0.000 
#
# Total GULP energy -267522.292066 kJ/mol
# GULP energy per Si atom -5573.381085 kJ/mol
# Density = 1.991534 g / cm^3
# Si number density = 19.960771 Si / 1000 Ang^3
#
#
#
# Elastic Constant Matrix: (Units=GPa)
#
#
# Indices 1 2 3 4 5 6 
#
# 1 240.6632 64.0286 14.7887 0.0000 0.0000 0.0000
# 2 64.0286 48.2785 -6.3701 0.0000 0.0000 0.0000
# 3 14.7887 -6.3701 41.5883 0.0000 0.0000 0.0000
# 4 0.0000 0.0000 0.0000 15.1400 0.0000 0.0000
# 5 0.0000 0.0000 0.0000 0.0000 9.3043 0.0000
# 6 0.0000 0.0000 0.0000 0.0000 0.0000 31.5159
#
#
#
# Elastic Compliance Matrix: (Units=1/GPa)
#
#
# Indices 1 2 3 4 5 6 
#
# 1 0.007018 -0.009835 -0.004002 0.000000 0.000000 0.000000
# 2 -0.009835 0.034924 0.008847 0.000000 0.000000 0.000000
# 3 -0.004002 0.008847 0.026823 0.000000 0.000000 0.000000
# 4 0.000000 0.000000 0.000000 0.066050 0.000000 0.000000
# 5 0.000000 0.000000 0.000000 0.000000 0.107477 0.000000
# 6 0.000000 0.000000 0.000000 0.000000 0.000000 0.031730
#
#
# Mechanical properties :
#
#
# Convention : Reuss Voigt Hill
#
# Bulk Modulus (GPa) = 17.01126 52.82493 34.91810
# Shear Modulus (GPa) = 16.46915 28.39757 22.43336
#
# Velocity S-wave (km/s) = 2.87553 3.77592 3.35606
# Velocity P-wave (km/s) = 4.42332 6.74773 5.70516
#
# Compressibility (1/GPa) = 0.05878459
#
# Stress axis : x y z
#
# Youngs Moduli (GPa) = 142.49507 28.63336 37.28087
#
# Poissons Ratio (x) = 0.28162 0.14920
# Poissons Ratio (y) = 1.40148 -0.32982
# Poissons Ratio (z) = 0.57026 -0.25331
#
# Static dielectric constant tensor:
#      x y z
#    x 1.788970 0.000000 0.000000 
#    y 0.000000 1.651730 0.000000 
#    z 0.000000 0.000000 1.746090 
# 
# From -- ./inp_files/21338.got.cif
#   From: 2010.05.17/outbox.cif.g08.bks.cpg/sg63_11_cif.got.tgz:21338.got - 2010.06.03 15:47:04.
