data_PCOD9470293
_publ_section_title
;
Structure prediction by ZEFSAII (Michael W. Deem and Ramdas Pophale) SiO2 
 PCOD9470293
Probable space group: C M C M
;
_chemical_formula_sum "Si O2"
_cell_formula_units_Z 88
_cell_length_a 28.609091
_cell_length_b 18.149550
_cell_length_c 7.780489
_cell_angle_alpha 90.000000
_cell_angle_beta 90.000000
_cell_angle_gamma 90.000000
_cell_volume 4039.957662
_symmetry_space_group_name_H-M "C M C M"
_symmetry_group_IT_number 63
_symmetry_cell_setting 'orthorhombic'
loop_
_space_group_symop_operation_xyz
x,y,z
-x,-y,1/2+z
x,-y,-z
-x,y,1/2-z
-x,-y,-z
x,y,1/2-z
-x,y,z
x,-y,1/2+z
1/2+x,1/2+y,z
1/2-x,1/2-y,1/2+z
1/2+x,1/2-y,-z
1/2-x,1/2+y,1/2-z
1/2-x,1/2-y,-z
1/2+x,1/2+y,1/2-z
1/2-x,1/2+y,z
1/2+x,1/2-y,1/2+z
loop_
_atom_site_type_symbol
_atom_site_label
_atom_site_fract_x
_atom_site_fract_y
_atom_site_fract_z
Si Si1 0.448284 0.855572 0.449376
Si Si2 0.000000 0.915692 0.547089
Si Si3 0.248267 0.920454 0.457404
Si Si4 0.819578 0.208137 0.956596
Si Si5 0.076876 0.804687 0.051376
Si Si6 0.154977 0.374080 0.452483
O O1 0.449540 0.879051 0.250000
O O2 0.500000 0.873500 0.524346
O O3 0.442175 0.766724 0.452748
O O4 0.397897 0.881819 0.524923
O O5 0.955699 0.873716 0.472511
O O6 0.000000 0.906008 0.750000
O O7 0.000000 0.000000 0.500000
O O8 0.249797 0.914413 0.250000
O O9 0.219721 0.848548 0.519689
O O10 0.301441 0.918790 0.527167
O O11 0.226857 0.000000 0.500000
O O12 0.813941 0.215984 0.750000
O O13 0.870467 0.174671 0.994811
O O14 0.825914 0.289999 0.030863
O O15 0.076860 0.780874 0.250000
O O16 0.150792 0.390370 0.250000
#
# Coordination Sequence:
#
# PCOD9470293 Si02
#       6
#    16   8  16  16  16  16
#     4   9  16  28  49  75 101 128 161 202 249 298
#     4  12  24  36  48  64  92 132 171 206 247 296
#     4  10  21  36  52  73 103 137 174 213 258 311
#     4   9  19  34  53  77 103 131 167 213 258 305
#     4  10  19  32  49  71  98 125 159 204 251 296
#     4   9  18  32  52  78 104 133 171 214 256 304
#
# _framework density 21.782406999999999
#
# number of rings (size 3 to 8) (size 9 to 14) (size 15 to 20)
#    0.000    2.364    0.909    1.909    0.000    2.909 
#    0.000    1.818    0.000    0.545    0.000    0.000 
#    0.000    0.000    0.000    0.000    0.000    0.000 
#
# Total GULP energy -245278.329606 kJ/mol
# GULP energy per Si atom -5574.507491 kJ/mol
# Density = 2.173283 g / cm^3
# Si number density = 21.782407 Si / 1000 Ang^3
#
#
#
# Elastic Constant Matrix: (Units=GPa)
#
#
# Indices 1 2 3 4 5 6 
#
# 1 135.5891 7.0048 15.2334 0.0000 0.0000 0.0000
# 2 7.0048 16.1983 -11.1595 0.0000 0.0000 0.0000
# 3 15.2334 -11.1595 30.1313 0.0000 0.0000 0.0000
# 4 0.0000 0.0000 0.0000 -2.7613 0.0000 0.0000
# 5 0.0000 0.0000 0.0000 0.0000 6.8894 0.0000
# 6 0.0000 0.0000 0.0000 0.0000 0.0000 8.8543
#
#
#
# Elastic Compliance Matrix: (Units=1/GPa)
#
#
# Indices 1 2 3 4 5 6 
#
# 1 0.008724 -0.009144 -0.007797 0.000000 0.000000 0.000000
# 2 -0.009144 0.092467 0.038869 0.000000 0.000000 0.000000
# 3 -0.007797 0.038869 0.051526 0.000000 0.000000 0.000000
# 4 0.000000 0.000000 0.000000 -0.362147 0.000000 0.000000
# 5 0.000000 0.000000 0.000000 0.000000 0.145150 0.000000
# 6 0.000000 0.000000 0.000000 0.000000 0.000000 0.112940
#
#
# Mechanical properties :
#
#
# Convention : Reuss Voigt Hill
#
# Bulk Modulus (GPa) = 5.08716 22.67511 13.88114
# Shear Modulus (GPa) = 71.09558 13.98580 42.54069
#
# Velocity S-wave (km/s) = 5.71925 2.53666 4.42405
# Velocity P-wave (km/s) = 6.77891 4.36027 5.69937
#
# Compressibility (1/GPa) = 0.19657330
#
# Stress axis : x y z
#
# Youngs Moduli (GPa) = 114.63153 10.81464 19.40778
#
# Poissons Ratio (x) = 0.09889 0.15132
# Poissons Ratio (y) = 1.04819 -0.75437
# Poissons Ratio (z) = 0.89378 -0.42036
#
# Static dielectric constant tensor:
#      x y z
#    x 1.873960 0.000000 0.000000 
#    y 0.000000 1.754800 0.000000 
#    z 0.000000 0.000000 1.826890 
# 
# From -- ./inp_files/14158.got.cif
#   From: 2010.05.17/outbox.cif.g08.bks.cpg/sg63_8_cif.got.tgz:14158.got - 2010.06.03 15:47:04.
