data_PCOD9470464
_publ_section_title
;
Structure prediction by ZEFSAII (Michael W. Deem and Ramdas Pophale) SiO2 
 PCOD9470464
Probable space group: C M C M
;
_chemical_formula_sum "Si O2"
_cell_formula_units_Z 128
_cell_length_a 19.607373
_cell_length_b 22.021589
_cell_length_c 14.989532
_cell_angle_alpha 90.000000
_cell_angle_beta 90.000000
_cell_angle_gamma 90.000000
_cell_volume 6472.262713
_symmetry_space_group_name_H-M "C M C M"
_symmetry_group_IT_number 63
_symmetry_cell_setting 'orthorhombic'
loop_
_space_group_symop_operation_xyz
x,y,z
-x,-y,1/2+z
x,-y,-z
-x,y,1/2-z
-x,-y,-z
x,y,1/2-z
-x,y,z
x,-y,1/2+z
1/2+x,1/2+y,z
1/2-x,1/2-y,1/2+z
1/2+x,1/2-y,-z
1/2-x,1/2+y,1/2-z
1/2-x,1/2-y,-z
1/2+x,1/2+y,1/2-z
1/2-x,1/2+y,z
1/2+x,1/2-y,1/2+z
loop_
_atom_site_type_symbol
_atom_site_label
_atom_site_fract_x
_atom_site_fract_y
_atom_site_fract_z
Si Si1 0.576163 0.077155 0.857691
Si Si2 0.717863 0.120404 0.103325
Si Si3 0.718397 0.875180 0.394923
Si Si4 0.282267 0.498545 0.396037
Si Si5 0.781187 0.246883 0.900562
Si Si6 0.923738 0.052948 0.642387
Si Si7 0.078187 0.805022 0.142223
Si Si8 0.076943 0.563163 0.142063
O O1 0.576378 0.077094 0.750000
O O2 0.500000 0.094122 0.887327
O O3 0.637272 0.119295 0.888533
O O4 0.588852 0.007066 0.885674
O O5 0.731085 0.187097 0.141852
O O6 0.637769 0.104507 0.107941
O O7 0.756269 0.061987 0.143199
O O8 0.738190 0.124281 0.999244
O O9 0.748952 0.937606 0.355454
O O10 0.747803 0.812796 0.356529
O O11 0.261019 0.500000 0.500000
O O12 0.363004 0.489007 0.390907
O O13 0.862180 0.234169 0.901225
O O14 0.750000 0.250000 0.000000
O O15 0.923027 0.050902 0.750000
O O16 0.911430 0.123759 0.618277
O O17 0.000000 0.036160 0.612444
O O18 0.084261 0.800011 0.250000
O O19 0.000000 0.788711 0.119170
O O20 0.078905 0.564669 0.250000
O O21 0.000000 0.580099 0.114809
#
# Coordination Sequence:
#
# PCOD9470464 Si02
#       8
#    16  16  16  16  16  16  16  16
#     4   9  18  32  51  75 101 131 172 217 253 293
#     4  10  21  33  48  74 105 134 168 207 252 303
#     4  10  19  34  53  73  98 136 175 214 251 297
#     4  10  19  32  52  77 105 131 170 212 254 308
#     4  10  21  36  52  74 110 144 171 212 266 321
#     4   9  18  33  55  82 106 130 169 220 268 313
#     4   9  18  34  57  83 107 134 175 225 273 322
#     4   9  18  32  49  73 105 135 164 204 257 311
#
# _framework density 19.776700000000002
#
# number of rings (size 3 to 8) (size 9 to 14) (size 15 to 20)
#    0.000    2.500    2.500    1.500    0.000    3.250 
#    0.000    4.375    0.000    0.750    0.000    1.750 
#    0.000    0.000    0.000    0.000    0.000    0.000 
#
# Total GULP energy -356937.492378 kJ/mol
# GULP energy per Si atom -5577.148318 kJ/mol
# Density = 1.973169 g / cm^3
# Si number density = 19.776700 Si / 1000 Ang^3
#
#
#
# Elastic Constant Matrix: (Units=GPa)
#
#
# Indices 1 2 3 4 5 6 
#
# 1 120.6319 79.3571 6.3264 0.0000 0.0000 0.0000
# 2 79.3571 163.8977 11.0383 0.0000 0.0000 0.0000
# 3 6.3264 11.0383 45.6103 0.0000 0.0000 0.0000
# 4 0.0000 0.0000 0.0000 2.2636 0.0000 0.0000
# 5 0.0000 0.0000 0.0000 0.0000 29.3777 0.0000
# 6 0.0000 0.0000 0.0000 0.0000 0.0000 29.3499
#
#
#
# Elastic Compliance Matrix: (Units=1/GPa)
#
#
# Indices 1 2 3 4 5 6 
#
# 1 0.012167 -0.005873 -0.000266 0.000000 0.000000 0.000000
# 2 -0.005873 0.009038 -0.001373 0.000000 0.000000 0.000000
# 3 -0.000266 -0.001373 0.022294 0.000000 0.000000 0.000000
# 4 0.000000 0.000000 0.000000 0.441777 0.000000 0.000000
# 5 0.000000 0.000000 0.000000 0.000000 0.034039 0.000000
# 6 0.000000 0.000000 0.000000 0.000000 0.000000 0.034072
#
#
# Mechanical properties :
#
#
# Convention : Reuss Voigt Hill
#
# Bulk Modulus (GPa) = 35.11898 58.17596 46.64747
# Shear Modulus (GPa) = 8.65197 27.75944 18.20570
#
# Velocity S-wave (km/s) = 2.09388 3.75059 3.03737
# Velocity P-wave (km/s) = 4.86231 6.94523 5.99492
#
# Compressibility (1/GPa) = 0.02847463
#
# Stress axis : x y z
#
# Youngs Moduli (GPa) = 82.18678 110.64875 44.85519
#
# Poissons Ratio (x) = 0.64988 0.01194
# Poissons Ratio (y) = 0.48271 0.06157
# Poissons Ratio (z) = 0.02188 0.15187
#
# Static dielectric constant tensor:
#      x y z
#    x 1.700820 0.000000 0.000000 
#    y 0.000000 1.739460 0.000000 
#    z 0.000000 0.000000 1.705410 
# 
# From -- ./inp_files/46306.got.cif
#   From: 2010.05.17/outbox.cif.g08.bks.cpg/sg63_24_cif.got.tgz:46306.got - 2010.06.03 15:47:04.
