data_PCOD9470017
_publ_section_title
;
Structure prediction by ZEFSAII (Michael W. Deem and Ramdas Pophale) SiO2 
 PCOD9470017
Probable space group: C M C M
;
_chemical_formula_sum "Si O2"
_cell_formula_units_Z 96
_cell_length_a 8.738004
_cell_length_b 28.042767
_cell_length_c 24.168080
_cell_angle_alpha 90.000000
_cell_angle_beta 90.000000
_cell_angle_gamma 90.000000
_cell_volume 5922.093400
_symmetry_space_group_name_H-M "C M C M"
_symmetry_group_IT_number 63
_symmetry_cell_setting 'orthorhombic'
loop_
_space_group_symop_operation_xyz
x,y,z
-x,-y,1/2+z
x,-y,-z
-x,y,1/2-z
-x,-y,-z
x,y,1/2-z
-x,y,z
x,-y,1/2+z
1/2+x,1/2+y,z
1/2-x,1/2-y,1/2+z
1/2+x,1/2-y,-z
1/2-x,1/2+y,1/2-z
1/2-x,1/2-y,-z
1/2+x,1/2+y,1/2-z
1/2-x,1/2+y,z
1/2+x,1/2-y,1/2+z
loop_
_atom_site_type_symbol
_atom_site_label
_atom_site_fract_x
_atom_site_fract_y
_atom_site_fract_z
Si Si1 0.682402 0.432492 0.814467
Si Si2 0.683952 0.171900 0.313743
Si Si3 0.682361 0.014676 0.083605
Si Si4 0.183479 0.736636 0.415331
Si Si5 0.682191 0.428396 0.481532
Si Si6 0.681714 0.824672 0.475254
O O1 0.719111 0.442003 0.750000
O O2 0.500000 0.435623 0.821665
O O3 0.737251 0.378538 0.826393
O O4 0.764801 0.467873 0.856504
O O5 0.718986 0.184509 0.250000
O O6 0.500000 0.165320 0.318296
O O7 0.728706 0.211965 0.357888
O O8 0.500000 0.011646 0.079897
O O9 0.756268 0.964747 0.064950
O O10 0.742586 0.053045 0.038625
O O11 0.265884 0.785822 0.430211
O O12 0.216988 0.699731 0.465310
O O13 0.000000 0.744473 0.415241
O O14 0.500000 0.432455 0.485860
O O15 0.732381 0.374558 0.470238
O O16 0.500000 0.832497 0.472395
#
# Coordination Sequence:
#
# PCOD9470017 Si02
#       6
#    16  16  16  16  16  16
#     4  10  20  33  50  74 103 133 166 203 244 290
#     4   9  17  30  49  72  98 129 164 201 242 288
#     4  11  21  34  52  74 101 131 165 202 243 292
#     4   9  18  31  47  69  97 128 161 199 242 288
#     4  11  21  34  52  74 101 130 162 201 248 297
#     4  10  19  31  48  71  98 128 162 199 241 290
#
# _framework density 16.210483
#
# number of rings (size 3 to 8) (size 9 to 14) (size 15 to 20)
#    0.000    2.000    0.000    6.000    0.000    3.667 
#    0.000    0.000    0.000    1.000    0.000    2.333 
#    0.000    0.000    0.000    0.000    0.000    0.000 
#
# Total GULP energy -267980.716800 kJ/mol
# GULP energy per Si atom -5582.931600 kJ/mol
# Density = 1.617359 g / cm^3
# Si number density = 16.210483 Si / 1000 Ang^3
#
#
#
# Elastic Constant Matrix: (Units=GPa)
#
#
# Indices 1 2 3 4 5 6 
#
# 1 76.2019 46.8324 34.5662 0.0000 0.0000 0.0000
# 2 46.8324 101.1733 47.7635 0.0000 0.0000 0.0000
# 3 34.5662 47.7635 69.3755 0.0000 0.0000 0.0000
# 4 0.0000 0.0000 0.0000 21.8557 0.0000 0.0000
# 5 0.0000 0.0000 0.0000 0.0000 22.4075 0.0000
# 6 0.0000 0.0000 0.0000 0.0000 0.0000 30.8410
#
#
#
# Elastic Compliance Matrix: (Units=1/GPa)
#
#
# Indices 1 2 3 4 5 6 
#
# 1 0.019528 -0.006587 -0.005195 0.000000 0.000000 0.000000
# 2 -0.006587 0.016865 -0.008330 0.000000 0.000000 0.000000
# 3 -0.005195 -0.008330 0.022737 0.000000 0.000000 0.000000
# 4 0.000000 0.000000 0.000000 0.045755 0.000000 0.000000
# 5 0.000000 0.000000 0.000000 0.000000 0.044628 0.000000
# 6 0.000000 0.000000 0.000000 0.000000 0.000000 0.032424
#
#
# Mechanical properties :
#
#
# Convention : Reuss Voigt Hill
#
# Bulk Modulus (GPa) = 52.88747 56.11944 54.50345
# Shear Modulus (GPa) = 21.88550 22.86010 22.37280
#
# Velocity S-wave (km/s) = 3.67833 3.75934 3.71906
# Velocity P-wave (km/s) = 7.12295 7.31696 7.22061
#
# Compressibility (1/GPa) = 0.01890807
#
# Stress axis : x y z
#
# Youngs Moduli (GPa) = 51.20974 59.29315 43.98064
#
# Poissons Ratio (x) = 0.39055 0.22847
# Poissons Ratio (y) = 0.33731 0.36634
# Poissons Ratio (z) = 0.26602 0.49389
#
# Static dielectric constant tensor:
#      x y z
#    x 1.541190 0.000000 0.000000 
#    y 0.000000 1.514710 0.000000 
#    z 0.000000 0.000000 1.541190 
# 
# From -- ./inp_files/60193.got.cif
#   From: 2010.05.17/outbox.cif.g08.bks.cpg/sg63_31_cif.got.tgz:60193.got - 2010.06.03 15:47:04.
