data_PCOD9470854
_publ_section_title
;
Structure prediction by ZEFSAII (Michael W. Deem and Ramdas Pophale) SiO2 
 PCOD9470854
Probable space group: C M C M
;
_chemical_formula_sum "Si O2"
_cell_formula_units_Z 104
_cell_length_a 18.967334
_cell_length_b 17.128099
_cell_length_c 17.149274
_cell_angle_alpha 90.000000
_cell_angle_beta 90.000000
_cell_angle_gamma 90.000000
_cell_volume 5571.359664
_symmetry_space_group_name_H-M "C M C M"
_symmetry_group_IT_number 63
_symmetry_cell_setting 'orthorhombic'
loop_
_space_group_symop_operation_xyz
x,y,z
-x,-y,1/2+z
x,-y,-z
-x,y,1/2-z
-x,-y,-z
x,y,1/2-z
-x,y,z
x,-y,1/2+z
1/2+x,1/2+y,z
1/2-x,1/2-y,1/2+z
1/2+x,1/2-y,-z
1/2-x,1/2+y,1/2-z
1/2-x,1/2-y,-z
1/2+x,1/2+y,1/2-z
1/2-x,1/2+y,z
1/2+x,1/2-y,1/2+z
loop_
_atom_site_type_symbol
_atom_site_label
_atom_site_fract_x
_atom_site_fract_y
_atom_site_fract_z
Si Si1 0.500000 0.051386 0.923109
Si Si2 0.350493 0.972817 0.340715
Si Si3 0.210553 0.702137 0.834113
Si Si4 0.706613 0.478383 0.591662
Si Si5 0.643317 0.319369 0.947156
Si Si6 0.500000 0.768827 0.482229
Si Si7 0.853167 0.860032 0.372079
Si Si8 0.500000 0.717631 0.661257
O O1 0.571898 0.028977 0.877797
O O2 0.500000 0.143225 0.948035
O O3 0.500000 0.000000 0.000000
O O4 0.355197 0.993915 0.250000
O O5 0.322391 0.883610 0.346480
O O6 0.287969 0.024216 0.379577
O O7 0.184362 0.732352 0.750000
O O8 0.191926 0.755914 0.906133
O O9 0.293750 0.690182 0.830643
O O10 0.709636 0.500000 0.500000
O O11 0.661049 0.399718 0.597700
O O12 0.667071 0.549139 0.635609
O O13 0.566644 0.279796 0.950241
O O14 0.656922 0.338936 0.037049
O O15 0.500000 0.767402 0.578673
O O16 0.930455 0.835730 0.345993
O O17 0.500000 0.753390 0.750000
#
# Coordination Sequence:
#
# PCOD9470854 Si02
#       8
#     8  16  16  16  16   8  16   8
#     4  12  23  41  65  87 116 159 207 249 295 355
#     4  10  21  38  60  85 120 156 195 243 297 357
#     4  10  19  33  55  82 111 151 194 242 298 348
#     4   9  19  36  59  88 117 154 198 242 291 356
#     4  10  19  36  60  85 118 150 196 250 294 349
#     4  10  22  40  62  92 118 153 203 252 301 355
#     4   9  19  34  56  81 113 156 198 234 290 361
#     4  10  20  37  58  83 119 158 194 241 300 362
#
# _framework density 18.666896999999999
#
# number of rings (size 3 to 8) (size 9 to 14) (size 15 to 20)
#    0.000    2.154    1.538    1.615    0.000    1.846 
#    5.538    4.231    0.000    0.000    0.000    0.000 
#    0.000    0.000    0.000    0.000    0.000    0.000 
#
# Total GULP energy -289625.643307 kJ/mol
# GULP energy per Si atom -5569.723910 kJ/mol
# Density = 1.862441 g / cm^3
# Si number density = 18.666897 Si / 1000 Ang^3
#
#
#
# Elastic Constant Matrix: (Units=GPa)
#
#
# Indices 1 2 3 4 5 6 
#
# 1 121.1174 37.0663 37.0398 0.0000 0.0000 0.0000
# 2 37.0663 65.0491 34.8567 0.0000 0.0000 0.0000
# 3 37.0398 34.8567 59.8820 0.0000 0.0000 0.0000
# 4 0.0000 0.0000 0.0000 -4.6130 0.0000 0.0000
# 5 0.0000 0.0000 0.0000 0.0000 -7.8892 0.0000
# 6 0.0000 0.0000 0.0000 0.0000 0.0000 22.6825
#
#
#
# Elastic Compliance Matrix: (Units=1/GPa)
#
#
# Indices 1 2 3 4 5 6 
#
# 1 0.010772 -0.003732 -0.004491 0.000000 0.000000 0.000000
# 2 -0.003732 0.023634 -0.011449 0.000000 0.000000 0.000000
# 3 -0.004491 -0.011449 0.026142 0.000000 0.000000 0.000000
# 4 0.000000 0.000000 0.000000 -0.216780 0.000000 0.000000
# 5 0.000000 0.000000 0.000000 0.000000 -0.126755 0.000000
# 6 0.000000 0.000000 0.000000 0.000000 0.000000 0.044087
#
#
# Mechanical properties :
#
#
# Convention : Reuss Voigt Hill
#
# Bulk Modulus (GPa) = 47.15900 51.55269 49.35585
# Shear Modulus (GPa) = -25.97550 11.17511 -7.40020
#
# Velocity S-wave (km/s) = -3.73437 2.44941 -1.99323
# Velocity P-wave (km/s) = 2.59313 5.97299 4.60439
#
# Compressibility (1/GPa) = 0.02120486
#
# Stress axis : x y z
#
# Youngs Moduli (GPa) = 92.83498 42.31113 38.25304
#
# Poissons Ratio (x) = 0.15789 0.17178
# Poissons Ratio (y) = 0.34643 0.43797
# Poissons Ratio (z) = 0.41690 0.48443
#
# Static dielectric constant tensor:
#      x y z
#    x 1.668470 0.000000 0.000000 
#    y 0.000000 1.638860 0.000000 
#    z 0.000000 0.000000 1.669760 
# 
# From -- ./inp_files/45870.got.cif
#   From: 2010.05.17/outbox.cif.g08.bks.cpg/sg63_23_cif.got.tgz:45870.got - 2010.06.03 15:47:04.
