data_PCOD9470275
_publ_section_title
;
Structure prediction by ZEFSAII (Michael W. Deem and Ramdas Pophale) SiO2 
 PCOD9470275
Probable space group: C M C M
;
_chemical_formula_sum "Si O2"
_cell_formula_units_Z 96
_cell_length_a 32.008954
_cell_length_b 9.797399
_cell_length_c 14.666681
_cell_angle_alpha 90.000000
_cell_angle_beta 90.000000
_cell_angle_gamma 90.000000
_cell_volume 4599.537072
_symmetry_space_group_name_H-M "C M C M"
_symmetry_group_IT_number 63
_symmetry_cell_setting 'orthorhombic'
loop_
_space_group_symop_operation_xyz
x,y,z
-x,-y,1/2+z
x,-y,-z
-x,y,1/2-z
-x,-y,-z
x,y,1/2-z
-x,y,z
x,-y,1/2+z
1/2+x,1/2+y,z
1/2-x,1/2-y,1/2+z
1/2+x,1/2-y,-z
1/2-x,1/2+y,1/2-z
1/2-x,1/2-y,-z
1/2+x,1/2+y,1/2-z
1/2-x,1/2+y,z
1/2+x,1/2-y,1/2+z
loop_
_atom_site_type_symbol
_atom_site_label
_atom_site_fract_x
_atom_site_fract_y
_atom_site_fract_z
Si Si1 0.375218 0.174146 0.360762
Si Si2 0.143448 0.365632 0.359870
Si Si3 0.266599 0.871451 0.063947
Si Si4 0.820951 0.926938 0.401760
Si Si5 0.452707 0.356406 0.138586
Si Si6 0.898230 0.897017 0.647004
O O1 0.370598 0.182193 0.250000
O O2 0.340781 0.276100 0.402141
O O3 0.420496 0.235736 0.384142
O O4 0.368434 0.018393 0.388521
O O5 0.140600 0.361744 0.250000
O O6 0.191072 0.333319 0.385764
O O7 0.113032 0.247306 0.397251
O O8 0.227208 0.913917 0.127355
O O9 0.250000 0.750000 0.000000
O O10 0.276203 0.000000 0.000000
O O11 0.819491 0.000000 0.500000
O O12 0.854696 0.018389 0.349200
O O13 0.453267 0.361778 0.250000
O O14 0.500000 0.338703 0.106895
O O15 0.431610 0.498232 0.106364
O O16 0.912544 0.869405 0.750000
#
# Coordination Sequence:
#
# PCOD9470275 Si02
#       6
#    16  16  16  16  16  16
#     4   9  18  32  50  73 101 130 164 207 255 306
#     4  10  20  33  49  72 102 135 168 208 258 304
#     4  11  22  35  49  70 100 133 172 213 248 291
#     4  10  19  32  49  69  93 128 171 208 245 289
#     4   8  14  28  51  74  96 126 162 200 245 301
#     4   9  18  32  49  70  97 126 160 201 244 295
#
# _framework density 20.871665
#
# number of rings (size 3 to 8) (size 9 to 14) (size 15 to 20)
#    0.000    2.500    0.000    4.500    0.000    1.333 
#    0.000    5.000    0.000   13.000    0.000    0.000 
#    0.000   17.333    0.000    0.000    0.000    0.000 
#
# Total GULP energy -267916.631395 kJ/mol
# GULP energy per Si atom -5581.596487 kJ/mol
# Density = 2.082416 g / cm^3
# Si number density = 20.871665 Si / 1000 Ang^3
#
#
#
# Elastic Constant Matrix: (Units=GPa)
#
#
# Indices 1 2 3 4 5 6 
#
# 1 141.3115 43.7017 14.6960 0.0000 0.0000 0.0000
# 2 43.7017 146.9160 12.0026 0.0000 0.0000 0.0000
# 3 14.6960 12.0026 51.5716 0.0000 0.0000 0.0000
# 4 0.0000 0.0000 0.0000 21.1463 0.0000 0.0000
# 5 0.0000 0.0000 0.0000 0.0000 -71.8640 0.0000
# 6 0.0000 0.0000 0.0000 0.0000 0.0000 20.5269
#
#
#
# Elastic Compliance Matrix: (Units=1/GPa)
#
#
# Indices 1 2 3 4 5 6 
#
# 1 0.007945 -0.002221 -0.001747 0.000000 0.000000 0.000000
# 2 -0.002221 0.007559 -0.001127 0.000000 0.000000 0.000000
# 3 -0.001747 -0.001127 0.020151 0.000000 0.000000 0.000000
# 4 0.000000 0.000000 0.000000 0.047289 0.000000 0.000000
# 5 0.000000 0.000000 0.000000 0.000000 -0.013915 0.000000
# 6 0.000000 0.000000 0.000000 0.000000 0.000000 0.048717
#
#
# Mechanical properties :
#
#
# Convention : Reuss Voigt Hill
#
# Bulk Modulus (GPa) = 39.26781 53.39995 46.33388
# Shear Modulus (GPa) = 36.65071 11.92177 24.28624
#
# Velocity S-wave (km/s) = 4.19502 2.39256 3.41486
# Velocity P-wave (km/s) = 6.50530 5.76827 6.14784
#
# Compressibility (1/GPa) = 0.02546615
#
# Stress axis : x y z
#
# Youngs Moduli (GPa) = 125.86531 132.28954 49.62633
#
# Poissons Ratio (x) = 0.29376 0.08671
# Poissons Ratio (y) = 0.27949 0.05590
# Poissons Ratio (z) = 0.21991 0.14903
#
# Static dielectric constant tensor:
#      x y z
#    x 1.732970 0.000000 0.000000 
#    y 0.000000 1.764200 0.000000 
#    z 0.000000 0.000000 1.813550 
# 
# From -- ./inp_files/58117.got.cif
#   From: 2010.05.17/outbox.cif.g08.bks.cpg/sg63_30_cif.got.tgz:58117.got - 2010.06.03 15:47:04.
