data_PCOD9470635
_publ_section_title
;
Structure prediction by ZEFSAII (Michael W. Deem and Ramdas Pophale) SiO2 
 PCOD9470635
Probable space group: C M C M
;
_chemical_formula_sum "Si O2"
_cell_formula_units_Z 128
_cell_length_a 23.836459
_cell_length_b 17.375144
_cell_length_c 19.016886
_cell_angle_alpha 90.000000
_cell_angle_beta 90.000000
_cell_angle_gamma 90.000000
_cell_volume 7876.069782
_symmetry_space_group_name_H-M "C M C M"
_symmetry_group_IT_number 63
_symmetry_cell_setting 'orthorhombic'
loop_
_space_group_symop_operation_xyz
x,y,z
-x,-y,1/2+z
x,-y,-z
-x,y,1/2-z
-x,-y,-z
x,y,1/2-z
-x,y,z
x,-y,1/2+z
1/2+x,1/2+y,z
1/2-x,1/2-y,1/2+z
1/2+x,1/2-y,-z
1/2-x,1/2+y,1/2-z
1/2-x,1/2-y,-z
1/2+x,1/2+y,1/2-z
1/2-x,1/2+y,z
1/2+x,1/2-y,1/2+z
loop_
_atom_site_type_symbol
_atom_site_label
_atom_site_fract_x
_atom_site_fract_y
_atom_site_fract_z
Si Si1 0.179101 0.812132 0.910705
Si Si2 0.935778 0.891209 0.582773
Si Si3 0.934835 0.833855 0.426410
Si Si4 0.776139 0.432464 0.943167
Si Si5 0.758792 0.040777 0.667701
Si Si6 0.108902 0.965272 0.166325
Si Si7 0.237983 0.783251 0.167985
Si Si8 0.157065 0.283940 0.548943
O O1 0.116600 0.839442 0.892527
O O2 0.219485 0.881038 0.937756
O O3 0.208681 0.770904 0.845402
O O4 0.177669 0.753203 0.975891
O O5 0.929496 0.885511 0.497844
O O6 0.000000 0.866509 0.597957
O O7 0.925142 0.972946 0.619987
O O8 0.906442 0.881508 0.363703
O O9 0.904320 0.752668 0.440532
O O10 0.000000 0.823560 0.411975
O O11 0.779100 0.479073 0.870860
O O12 0.827523 0.373810 0.954088
O O13 0.770958 0.500000 0.000000
O O14 0.749298 0.036858 0.750000
O O15 0.824595 0.022892 0.654663
O O16 0.749466 0.129073 0.645584
O O17 0.097741 0.971922 0.250000
O O18 0.221038 0.783834 0.250000
O O19 0.192214 0.749476 0.114713
#
# Coordination Sequence:
#
# PCOD9470635 Si02
#       8
#    16  16  16  16  16  16  16  16
#     4  10  20  33  50  72  98 131 168 207 245 290
#     4  10  21  35  50  71 101 138 174 207 243 292
#     4  10  21  36  54  71  95 134 177 213 250 294
#     4  11  20  30  51  74  97 129 162 204 248 299
#     4  10  20  32  47  71 102 132 160 195 245 297
#     4  11  21  33  48  72 105 137 168 204 244 292
#     4  10  19  33  51  72 100 131 164 202 248 297
#     4  10  20  34  50  72  99 127 166 209 249 294
#
# _framework density 16.251760999999998
#
# number of rings (size 3 to 8) (size 9 to 14) (size 15 to 20)
#    0.000    1.750    2.500    3.750    1.750    4.500 
#    0.000    0.000    0.000    0.375    0.000    0.875 
#    0.000    1.000    0.000    0.000    0.000    0.000 
#
# Total GULP energy -356712.629383 kJ/mol
# GULP energy per Si atom -5573.634834 kJ/mol
# Density = 1.621477 g / cm^3
# Si number density = 16.251761 Si / 1000 Ang^3
#
#
#
# Elastic Constant Matrix: (Units=GPa)
#
#
# Indices 1 2 3 4 5 6 
#
# 1 50.2921 28.6509 15.0851 0.0000 0.0000 0.0000
# 2 28.6509 93.5917 31.9590 0.0000 0.0000 0.0000
# 3 15.0851 31.9590 35.9534 0.0000 0.0000 0.0000
# 4 0.0000 0.0000 0.0000 26.4458 0.0000 0.0000
# 5 0.0000 0.0000 0.0000 0.0000 13.4443 0.0000
# 6 0.0000 0.0000 0.0000 0.0000 0.0000 9.4887
#
#
#
# Elastic Compliance Matrix: (Units=1/GPa)
#
#
# Indices 1 2 3 4 5 6 
#
# 1 0.024753 -0.005788 -0.005241 0.000000 0.000000 0.000000
# 2 -0.005788 0.016695 -0.012411 0.000000 0.000000 0.000000
# 3 -0.005241 -0.012411 0.041045 0.000000 0.000000 0.000000
# 4 0.000000 0.000000 0.000000 0.037813 0.000000 0.000000
# 5 0.000000 0.000000 0.000000 0.000000 0.074381 0.000000
# 6 0.000000 0.000000 0.000000 0.000000 0.000000 0.105389
#
#
# Mechanical properties :
#
#
# Convention : Reuss Voigt Hill
#
# Bulk Modulus (GPa) = 28.07997 36.80301 32.44149
# Shear Modulus (GPa) = 13.93426 16.81857 15.37642
#
# Velocity S-wave (km/s) = 2.93132 3.22044 3.07927
# Velocity P-wave (km/s) = 5.36399 6.04343 5.71382
#
# Compressibility (1/GPa) = 0.03561258
#
# Stress axis : x y z
#
# Youngs Moduli (GPa) = 40.39888 59.89911 24.36339
#
# Poissons Ratio (x) = 0.34670 0.12768
# Poissons Ratio (y) = 0.23383 0.30238
# Poissons Ratio (z) = 0.21172 0.74343
#
# Static dielectric constant tensor:
#      x y z
#    x 1.550670 0.000000 0.000000 
#    y 0.000000 1.564200 0.000000 
#    z 0.000000 0.000000 1.570360 
# 
# From -- ./inp_files/48418.got.cif
#   From: 2010.05.17/outbox.cif.g08.bks.cpg/sg63_25_cif.got.tgz:48418.got - 2010.06.03 15:47:04.
