data_PCOD9470804
_publ_section_title
;
Structure prediction by ZEFSAII (Michael W. Deem and Ramdas Pophale) SiO2 
 PCOD9470804
Probable space group: C M C M
;
_chemical_formula_sum "Si O2"
_cell_formula_units_Z 104
_cell_length_a 28.397410
_cell_length_b 23.072883
_cell_length_c 8.721819
_cell_angle_alpha 90.000000
_cell_angle_beta 90.000000
_cell_angle_gamma 90.000000
_cell_volume 5714.624060
_symmetry_space_group_name_H-M "C M C M"
_symmetry_group_IT_number 63
_symmetry_cell_setting 'orthorhombic'
loop_
_space_group_symop_operation_xyz
x,y,z
-x,-y,1/2+z
x,-y,-z
-x,y,1/2-z
-x,-y,-z
x,y,1/2-z
-x,y,z
x,-y,1/2+z
1/2+x,1/2+y,z
1/2-x,1/2-y,1/2+z
1/2+x,1/2-y,-z
1/2-x,1/2+y,1/2-z
1/2-x,1/2-y,-z
1/2+x,1/2+y,1/2-z
1/2-x,1/2+y,z
1/2+x,1/2-y,1/2+z
loop_
_atom_site_type_symbol
_atom_site_label
_atom_site_fract_x
_atom_site_fract_y
_atom_site_fract_z
Si Si1 0.198654 0.264646 0.569955
Si Si2 0.945233 0.435287 0.934067
Si Si3 0.000000 0.935205 0.566490
Si Si4 0.268303 0.939040 0.568078
Si Si5 0.854955 0.624657 0.566873
Si Si6 0.101292 0.064840 0.065661
Si Si7 0.812898 0.134221 0.928783
O O1 0.203789 0.279365 0.750000
O O2 0.250000 0.250000 0.500000
O O3 0.168429 0.314944 0.490209
O O4 0.175005 0.201700 0.555085
O O5 0.940758 0.436946 0.750000
O O6 0.000000 0.420486 0.971453
O O7 0.936496 0.500000 0.000000
O O8 0.906334 0.391407 0.001155
O O9 0.949880 0.908422 0.524175
O O10 0.000000 0.940474 0.750000
O O11 0.000000 0.000000 0.500000
O O12 0.272093 0.943088 0.750000
O O13 0.318473 0.923783 0.494245
O O14 0.232480 0.887840 0.521990
O O15 0.250542 0.000000 0.500000
O O16 0.856163 0.624187 0.750000
O O17 0.106520 0.063853 0.250000
O O18 0.143376 0.098335 0.988559
O O19 0.101845 0.000000 0.000000
O O20 0.802631 0.123105 0.750000
#
# Coordination Sequence:
#
# PCOD9470804 Si02
#       7
#    16  16   8  16  16  16  16
#     4  11  23  40  62  84 112 150 197 241 285 339
#     4  10  21  39  64  94 127 161 199 246 302 362
#     4   8  16  30  50  76 104 138 178 220 265 322
#     4  12  24  38  57  82 117 153 190 233 286 344
#     4  12  24  39  61  88 120 155 198 243 291 352
#     4  10  19  33  54  80 111 145 183 227 280 335
#     4  11  23  38  56  81 112 146 188 234 284 341
#
# _framework density 18.198922
#
# number of rings (size 3 to 8) (size 9 to 14) (size 15 to 20)
#    0.000    1.231    1.538    5.538    0.000    3.385 
#    0.000    0.000    1.692    0.000    0.000    0.000 
#    0.000    0.000    0.000    0.000    0.000    0.000 
#
# Total GULP energy -290342.528286 kJ/mol
# GULP energy per Si atom -5583.510159 kJ/mol
# Density = 1.815750 g / cm^3
# Si number density = 18.198922 Si / 1000 Ang^3
#
#
#
# Elastic Constant Matrix: (Units=GPa)
#
#
# Indices 1 2 3 4 5 6 
#
# 1 125.8633 46.0014 48.3035 0.0000 0.0000 0.0000
# 2 46.0014 80.9115 52.4255 0.0000 0.0000 0.0000
# 3 48.3035 52.4255 117.8729 0.0000 0.0000 0.0000
# 4 0.0000 0.0000 0.0000 28.7801 0.0000 0.0000
# 5 0.0000 0.0000 0.0000 0.0000 26.1710 0.0000
# 6 0.0000 0.0000 0.0000 0.0000 0.0000 18.0215
#
#
#
# Elastic Compliance Matrix: (Units=1/GPa)
#
#
# Indices 1 2 3 4 5 6 
#
# 1 0.010457 -0.004451 -0.002305 0.000000 0.000000 0.000000
# 2 -0.004451 0.019258 -0.006741 0.000000 0.000000 0.000000
# 3 -0.002305 -0.006741 0.012427 0.000000 0.000000 0.000000
# 4 0.000000 0.000000 0.000000 0.034746 0.000000 0.000000
# 5 0.000000 0.000000 0.000000 0.000000 0.038210 0.000000
# 6 0.000000 0.000000 0.000000 0.000000 0.000000 0.055489
#
#
# Mechanical properties :
#
#
# Convention : Reuss Voigt Hill
#
# Bulk Modulus (GPa) = 66.02535 68.67871 67.35203
# Shear Modulus (GPa) = 24.67545 26.45569 25.56557
#
# Velocity S-wave (km/s) = 3.68621 3.81687 3.75211
# Velocity P-wave (km/s) = 7.38080 7.56600 7.47397
#
# Compressibility (1/GPa) = 0.01514570
#
# Stress axis : x y z
#
# Youngs Moduli (GPa) = 95.63174 51.92729 80.47301
#
# Poissons Ratio (x) = 0.23115 0.18551
# Poissons Ratio (y) = 0.42570 0.54246
# Poissons Ratio (z) = 0.22046 0.35004
#
# Static dielectric constant tensor:
#      x y z
#    x 1.656420 0.000000 0.000000 
#    y 0.000000 1.498560 0.000000 
#    z 0.000000 0.000000 1.612210 
# 
# From -- ./inp_files/12868.got.cif
#   From: 2010.05.17/outbox.cif.g08.bks.cpg/sg63_7_cif.got.tgz:12868.got - 2010.06.03 15:47:04.
