data_PCOD9470324
_publ_section_title
;
Structure prediction by ZEFSAII (Michael W. Deem and Ramdas Pophale) SiO2 
 PCOD9470324
Probable space group: C M C M
;
_chemical_formula_sum "Si O2"
_cell_formula_units_Z 96
_cell_length_a 22.657183
_cell_length_b 12.706135
_cell_length_c 19.160639
_cell_angle_alpha 90.000000
_cell_angle_beta 90.000000
_cell_angle_gamma 90.000000
_cell_volume 5516.064887
_symmetry_space_group_name_H-M "C M C M"
_symmetry_group_IT_number 63
_symmetry_cell_setting 'orthorhombic'
loop_
_space_group_symop_operation_xyz
x,y,z
-x,-y,1/2+z
x,-y,-z
-x,y,1/2-z
-x,-y,-z
x,y,1/2-z
-x,y,z
x,-y,1/2+z
1/2+x,1/2+y,z
1/2-x,1/2-y,1/2+z
1/2+x,1/2-y,-z
1/2-x,1/2+y,1/2-z
1/2-x,1/2-y,-z
1/2+x,1/2+y,1/2-z
1/2-x,1/2+y,z
1/2+x,1/2-y,1/2+z
loop_
_atom_site_type_symbol
_atom_site_label
_atom_site_fract_x
_atom_site_fract_y
_atom_site_fract_z
Si Si1 0.297523 0.430536 0.668533
Si Si2 0.831622 0.769973 0.561537
Si Si3 0.068180 0.388553 0.462836
Si Si4 0.669021 0.823069 0.669988
Si Si5 0.933301 0.482974 0.669413
Si Si6 0.285793 0.360410 0.422926
O O1 0.313057 0.450810 0.750000
O O2 0.336990 0.340118 0.631400
O O3 0.230423 0.386675 0.668100
O O4 0.295635 0.532714 0.619156
O O5 0.887865 0.708931 0.530574
O O6 0.782072 0.680252 0.576422
O O7 0.806256 0.849902 0.502912
O O8 0.084750 0.500000 0.500000
O O9 0.070615 0.418240 0.381056
O O10 0.000000 0.366639 0.482801
O O11 0.659502 0.788557 0.750000
O O12 0.677375 0.726770 0.618952
O O13 0.615137 0.897452 0.649253
O O14 0.923156 0.510823 0.750000
O O15 0.000000 0.440406 0.662551
#
# Coordination Sequence:
#
# PCOD9470324 Si02
#       6
#    16  16  16  16  16  16
#     4  10  20  33  50  73 100 132 169 206 248 297
#     4  10  21  33  51  76 101 130 166 204 250 299
#     4  10  20  34  53  76 101 129 161 200 248 300
#     4   9  17  29  47  72 100 131 166 204 246 291
#     4   9  17  29  47  72 100 129 161 199 245 295
#     4  10  19  32  50  72 102 134 164 204 249 296
#
# _framework density 17.403711999999999
#
# number of rings (size 3 to 8) (size 9 to 14) (size 15 to 20)
#    0.000    2.333    0.000    3.000    0.000    4.000 
#    0.000    0.000    0.000    3.000    0.000    0.000 
#    0.000    0.000    0.000    0.000    0.000    0.000 
#
# Total GULP energy -267474.145269 kJ/mol
# GULP energy per Si atom -5572.378026 kJ/mol
# Density = 1.736410 g / cm^3
# Si number density = 17.403712 Si / 1000 Ang^3
#
#
#
# Elastic Constant Matrix: (Units=GPa)
#
#
# Indices 1 2 3 4 5 6 
#
# 1 39.4271 24.5456 18.7300 0.0000 0.0000 0.0000
# 2 24.5456 68.9779 44.3118 0.0000 0.0000 0.0000
# 3 18.7300 44.3118 76.4447 0.0000 0.0000 0.0000
# 4 0.0000 0.0000 0.0000 30.6141 0.0000 0.0000
# 5 0.0000 0.0000 0.0000 0.0000 18.8620 0.0000
# 6 0.0000 0.0000 0.0000 0.0000 0.0000 20.9338
#
#
#
# Elastic Compliance Matrix: (Units=1/GPa)
#
#
# Indices 1 2 3 4 5 6 
#
# 1 0.032776 -0.010364 -0.002023 0.000000 0.000000 0.000000
# 2 -0.010364 0.026376 -0.012750 0.000000 0.000000 0.000000
# 3 -0.002023 -0.012750 0.020968 0.000000 0.000000 0.000000
# 4 0.000000 0.000000 0.000000 0.032665 0.000000 0.000000
# 5 0.000000 0.000000 0.000000 0.000000 0.053017 0.000000
# 6 0.000000 0.000000 0.000000 0.000000 0.000000 0.047770
#
#
# Mechanical properties :
#
#
# Convention : Reuss Voigt Hill
#
# Bulk Modulus (GPa) = 33.50480 40.00271 36.75376
# Shear Modulus (GPa) = 18.26199 20.56614 19.41407
#
# Velocity S-wave (km/s) = 3.24283 3.44133 3.34355
# Velocity P-wave (km/s) = 5.77188 6.23100 6.00583
#
# Compressibility (1/GPa) = 0.02984647
#
# Stress axis : x y z
#
# Youngs Moduli (GPa) = 30.50977 37.91358 47.69272
#
# Poissons Ratio (x) = 0.39292 0.09650
# Poissons Ratio (y) = 0.31619 0.60807
# Poissons Ratio (z) = 0.06173 0.48339
#
# Static dielectric constant tensor:
#      x y z
#    x 1.594060 0.000000 0.000000 
#    y 0.000000 1.571020 0.000000 
#    z 0.000000 0.000000 1.651910 
# 
# From -- ./inp_files/48053.got.cif
#   From: 2010.05.17/outbox.cif.g08.bks.cpg/sg63_25_cif.got.tgz:48053.got - 2010.06.03 15:47:04.
