data_PCOD9470833
_publ_section_title
;
Structure prediction by ZEFSAII (Michael W. Deem and Ramdas Pophale) SiO2 
 PCOD9470833
Probable space group: C M C M
;
_chemical_formula_sum "Si O2"
_cell_formula_units_Z 96
_cell_length_a 8.781723
_cell_length_b 30.887547
_cell_length_c 21.133098
_cell_angle_alpha 90.000000
_cell_angle_beta 90.000000
_cell_angle_gamma 90.000000
_cell_volume 5732.265804
_symmetry_space_group_name_H-M "C M C M"
_symmetry_group_IT_number 63
_symmetry_cell_setting 'orthorhombic'
loop_
_space_group_symop_operation_xyz
x,y,z
-x,-y,1/2+z
x,-y,-z
-x,y,1/2-z
-x,-y,-z
x,y,1/2-z
-x,y,z
x,-y,1/2+z
1/2+x,1/2+y,z
1/2-x,1/2-y,1/2+z
1/2+x,1/2-y,-z
1/2-x,1/2+y,1/2-z
1/2-x,1/2-y,-z
1/2+x,1/2+y,1/2-z
1/2-x,1/2+y,z
1/2+x,1/2-y,1/2+z
loop_
_atom_site_type_symbol
_atom_site_label
_atom_site_fract_x
_atom_site_fract_y
_atom_site_fract_z
Si Si1 0.676728 0.880736 0.492673
Si Si2 0.682394 0.691727 0.681452
Si Si3 0.183757 0.502765 0.680103
Si Si4 0.683107 0.710739 0.959735
Si Si5 0.676622 0.100523 0.845009
Si Si6 0.682398 0.464383 0.947125
O O1 0.500000 0.874234 0.509696
O O2 0.761055 0.834730 0.489256
O O3 0.682793 0.898864 0.421015
O O4 0.751952 0.917458 0.535411
O O5 0.738230 0.708797 0.750000
O O6 0.500000 0.695634 0.681183
O O7 0.736322 0.711485 0.614328
O O8 0.727131 0.641186 0.678046
O O9 0.222409 0.485619 0.750000
O O10 0.227299 0.553518 0.677461
O O11 0.259749 0.479119 0.621357
O O12 0.000000 0.501212 0.672811
O O13 0.500000 0.712173 0.960341
O O14 0.750000 0.750000 0.000000
O O15 0.500000 0.106976 0.826320
O O16 0.500000 0.462966 0.948412
O O17 0.732167 0.500000 0.000000
#
# Coordination Sequence:
#
# PCOD9470833 Si02
#       6
#    16  16  16  16  16  16
#     4  10  19  33  55  78 102 135 175 217 263 309
#     4   9  18  31  48  72 103 136 166 202 251 308
#     4  10  20  33  49  71 102 140 180 221 264 310
#     4  10  20  35  55  79 108 136 171 214 262 316
#     4   9  17  29  47  72 102 134 168 207 251 305
#     4  11  22  34  51  75 105 140 180 220 260 308
#
# _framework density 16.747305000000001
#
# number of rings (size 3 to 8) (size 9 to 14) (size 15 to 20)
#    0.000    2.167    1.667    2.000    0.000    4.000 
#    0.000    0.000    0.000    1.000    0.000    2.333 
#    0.000    0.000    0.000    0.000    0.000    0.000 
#
# Total GULP energy -267662.428782 kJ/mol
# GULP energy per Si atom -5576.300600 kJ/mol
# Density = 1.670919 g / cm^3
# Si number density = 16.747305 Si / 1000 Ang^3
#
#
#
# Elastic Constant Matrix: (Units=GPa)
#
#
# Indices 1 2 3 4 5 6 
#
# 1 42.9310 33.0496 40.7344 0.0000 0.0000 0.0000
# 2 33.0496 96.3822 74.8088 0.0000 0.0000 0.0000
# 3 40.7344 74.8088 141.4565 0.0000 0.0000 0.0000
# 4 0.0000 0.0000 0.0000 15.4893 0.0000 0.0000
# 5 0.0000 0.0000 0.0000 0.0000 10.6301 0.0000
# 6 0.0000 0.0000 0.0000 0.0000 0.0000 27.0873
#
#
#
# Elastic Compliance Matrix: (Units=1/GPa)
#
#
# Indices 1 2 3 4 5 6 
#
# 1 0.034638 -0.007015 -0.006265 0.000000 0.000000 0.000000
# 2 -0.007015 0.019020 -0.008039 0.000000 0.000000 0.000000
# 3 -0.006265 -0.008039 0.013125 0.000000 0.000000 0.000000
# 4 0.000000 0.000000 0.000000 0.064561 0.000000 0.000000
# 5 0.000000 0.000000 0.000000 0.000000 0.094073 0.000000
# 6 0.000000 0.000000 0.000000 0.000000 0.000000 0.036918
#
#
# Mechanical properties :
#
#
# Convention : Reuss Voigt Hill
#
# Bulk Modulus (GPa) = 41.41499 64.21726 52.81613
# Shear Modulus (GPa) = 15.97349 19.45312 17.71330
#
# Velocity S-wave (km/s) = 3.09171 3.41187 3.25573
# Velocity P-wave (km/s) = 6.12600 7.34502 6.76303
#
# Compressibility (1/GPa) = 0.02414585
#
# Stress axis : x y z
#
# Youngs Moduli (GPa) = 28.87044 52.57579 76.19327
#
# Poissons Ratio (x) = 0.36881 0.47732
# Poissons Ratio (y) = 0.20252 0.61249
# Poissons Ratio (z) = 0.18086 0.42264
#
# Static dielectric constant tensor:
#      x y z
#    x 1.569310 0.000000 0.000000 
#    y 0.000000 1.526480 0.000000 
#    z 0.000000 0.000000 1.601140 
# 
# From -- ./inp_files/51415.got.cif
#   From: 2010.05.17/outbox.cif.g08.bks.cpg/sg63_26_cif.got.tgz:51415.got - 2010.06.03 15:47:04.
