data_PCOD9470976
_publ_section_title
;
Structure prediction by ZEFSAII (Michael W. Deem and Ramdas Pophale) SiO2 
 PCOD9470976
Probable space group: C M C M
;
_chemical_formula_sum "Si O2"
_cell_formula_units_Z 112
_cell_length_a 12.692450
_cell_length_b 14.866936
_cell_length_c 33.301310
_cell_angle_alpha 90.000000
_cell_angle_beta 90.000000
_cell_angle_gamma 90.000000
_cell_volume 6283.885327
_symmetry_space_group_name_H-M "C M C M"
_symmetry_group_IT_number 63
_symmetry_cell_setting 'orthorhombic'
loop_
_space_group_symop_operation_xyz
x,y,z
-x,-y,1/2+z
x,-y,-z
-x,y,1/2-z
-x,-y,-z
x,y,1/2-z
-x,y,z
x,-y,1/2+z
1/2+x,1/2+y,z
1/2-x,1/2-y,1/2+z
1/2+x,1/2-y,-z
1/2-x,1/2+y,1/2-z
1/2-x,1/2-y,-z
1/2+x,1/2+y,1/2-z
1/2-x,1/2+y,z
1/2+x,1/2-y,1/2+z
loop_
_atom_site_type_symbol
_atom_site_label
_atom_site_fract_x
_atom_site_fract_y
_atom_site_fract_z
Si Si1 0.125220 0.074673 0.081640
Si Si2 0.882578 0.274372 0.581258
Si Si3 0.763315 0.600448 0.573592
Si Si4 0.233464 0.646929 0.013655
Si Si5 0.876508 0.537927 0.297800
Si Si6 0.622206 0.145081 0.652699
Si Si7 0.749634 0.324492 0.848600
O O1 0.164299 0.115551 0.038873
O O2 0.167051 0.134330 0.118891
O O3 0.000000 0.065414 0.082431
O O4 0.187907 0.981453 0.085104
O O5 0.804941 0.191010 0.576011
O O6 0.856069 0.348697 0.547672
O O7 0.854843 0.311266 0.624787
O O8 0.000000 0.242694 0.576934
O O9 0.792789 0.592584 0.526627
O O10 0.852943 0.614053 0.606847
O O11 0.250000 0.750000 0.000000
O O12 0.866465 0.528918 0.250000
O O13 0.859521 0.441940 0.319545
O O14 0.789389 0.608019 0.314387
O O15 0.000000 0.563797 0.306013
O O16 0.500000 0.172265 0.656133
O O17 0.698629 0.228839 0.663401
#
# Coordination Sequence:
#
# PCOD9470976 Si02
#       7
#    16  16  16  16  16  16  16
#     4  11  21  34  55  80 110 149 195 244 293 339
#     4   9  18  32  51  74 106 145 186 233 286 335
#     4  10  19  34  52  80 110 149 192 239 283 337
#     4   9  20  32  45  71 108 144 194 238 284 337
#     4  10  21  39  64  90 116 151 190 230 284 350
#     4  10  21  38  61  88 120 156 194 235 288 349
#     4  10  20  36  58  86 114 150 190 241 282 340
#
# _framework density 17.823367999999999
#
# number of rings (size 3 to 8) (size 9 to 14) (size 15 to 20)
#    0.000    2.143    1.429    2.571    0.000    4.571 
#    0.000    0.000    0.000    3.857    0.000    0.000 
#    0.000    0.000    0.000    0.000    0.000    0.000 
#
# Total GULP energy -311964.603925 kJ/mol
# GULP energy per Si atom -5570.796499 kJ/mol
# Density = 1.778280 g / cm^3
# Si number density = 17.823368 Si / 1000 Ang^3
#
#
#
# Elastic Constant Matrix: (Units=GPa)
#
#
# Indices 1 2 3 4 5 6 
#
# 1 53.4545 29.9809 40.2239 0.0000 0.0000 0.0000
# 2 29.9809 67.7270 43.0397 0.0000 0.0000 0.0000
# 3 40.2239 43.0397 96.9438 0.0000 0.0000 0.0000
# 4 0.0000 0.0000 0.0000 20.4021 0.0000 0.0000
# 5 0.0000 0.0000 0.0000 0.0000 9.3952 0.0000
# 6 0.0000 0.0000 0.0000 0.0000 0.0000 13.3073
#
#
#
# Elastic Compliance Matrix: (Units=1/GPa)
#
#
# Indices 1 2 3 4 5 6 
#
# 1 0.029637 -0.007390 -0.009016 0.000000 0.000000 0.000000
# 2 -0.007390 0.022411 -0.006883 0.000000 0.000000 0.000000
# 3 -0.009016 -0.006883 0.017112 0.000000 0.000000 0.000000
# 4 0.000000 0.000000 0.000000 0.049014 0.000000 0.000000
# 5 0.000000 0.000000 0.000000 0.000000 0.106438 0.000000
# 6 0.000000 0.000000 0.000000 0.000000 0.000000 0.075147
#
#
# Mechanical properties :
#
#
# Convention : Reuss Voigt Hill
#
# Bulk Modulus (GPa) = 44.28475 49.40158 46.84316
# Shear Modulus (GPa) = 14.12972 15.61297 14.87134
#
# Velocity S-wave (km/s) = 2.81866 2.96291 2.89169
# Velocity P-wave (km/s) = 5.95764 6.28352 6.12275
#
# Compressibility (1/GPa) = 0.02258114
#
# Stress axis : x y z
#
# Youngs Moduli (GPa) = 33.74202 44.62143 58.43776
#
# Poissons Ratio (x) = 0.32974 0.52688
# Poissons Ratio (y) = 0.24934 0.40225
# Poissons Ratio (z) = 0.30422 0.30715
#
# Static dielectric constant tensor:
#      x y z
#    x 1.572250 0.000000 0.000000 
#    y 0.000000 1.641920 0.000000 
#    z 0.000000 0.000000 1.656770 
# 
# From -- ./inp_files/72865.got.cif
#   From: 2010.05.17/outbox.cif.g08.bks.cpg/sg63_37_cif.got.tgz:72865.got - 2010.06.03 15:47:04.
