data_PCOD9470917
_publ_section_title
;
Structure prediction by ZEFSAII (Michael W. Deem and Ramdas Pophale) SiO2 
 PCOD9470917
Probable space group: C M C M
;
_chemical_formula_sum "Si O2"
_cell_formula_units_Z 64
_cell_length_a 8.180595
_cell_length_b 27.680628
_cell_length_c 13.807110
_cell_angle_alpha 90.000000
_cell_angle_beta 90.000000
_cell_angle_gamma 90.000000
_cell_volume 3126.537314
_symmetry_space_group_name_H-M "C M C M"
_symmetry_group_IT_number 63
_symmetry_cell_setting 'orthorhombic'
loop_
_space_group_symop_operation_xyz
x,y,z
-x,-y,1/2+z
x,-y,-z
-x,y,1/2-z
-x,-y,-z
x,y,1/2-z
-x,y,z
x,-y,1/2+z
1/2+x,1/2+y,z
1/2-x,1/2-y,1/2+z
1/2+x,1/2-y,-z
1/2-x,1/2+y,1/2-z
1/2-x,1/2-y,-z
1/2+x,1/2+y,1/2-z
1/2-x,1/2+y,z
1/2+x,1/2-y,1/2+z
loop_
_atom_site_type_symbol
_atom_site_label
_atom_site_fract_x
_atom_site_fract_y
_atom_site_fract_z
Si Si1 0.299573 0.558418 0.250000
Si Si2 0.804107 0.832195 0.750000
Si Si3 0.811260 0.021080 0.606095
Si Si4 0.194421 0.371297 0.359487
Si Si5 0.804304 0.697389 0.464884
O O1 0.500000 0.561355 0.250000
O O2 0.240483 0.612663 0.250000
O O3 0.244019 0.524831 0.336937
O O4 0.751943 0.810475 0.853799
O O5 0.000000 0.831667 0.750000
O O6 0.723852 0.071821 0.622156
O O7 0.000000 0.029673 0.635988
O O8 0.812393 0.000000 0.500000
O O9 0.258240 0.359281 0.250000
O O10 0.257908 0.340902 0.452696
O O11 0.000000 0.362667 0.356141
O O12 0.750000 0.750000 0.500000
O O13 0.000000 0.694188 0.464210
#
# Coordination Sequence:
#
# PCOD9470917 Si02
#       5
#     8   8  16  16  16
#     4   9  18  33  54  85 120 159 200 245 302 359
#     4  11  23  43  68  93 128 167 210 263 320 377
#     4  10  19  33  56  86 121 160 206 254 299 357
#     4  10  22  40  61  90 128 166 205 255 315 375
#     4  11  25  44  67  95 126 164 213 265 323 384
#
# _framework density 20.469930999999999
#
# number of rings (size 3 to 8) (size 9 to 14) (size 15 to 20)
#    0.000    1.750    1.250    2.625    1.750    4.500 
#    0.000    2.500    0.000    0.000    0.000    0.000 
#    0.000    0.000    0.000    0.000    0.000    0.000 
#
# Total GULP energy -178359.121218 kJ/mol
# GULP energy per Si atom -5573.722538 kJ/mol
# Density = 2.042334 g / cm^3
# Si number density = 20.469931 Si / 1000 Ang^3
#
#
#
# Elastic Constant Matrix: (Units=GPa)
#
#
# Indices 1 2 3 4 5 6 
#
# 1 31.5351 10.4981 29.0902 0.0000 0.0000 0.0000
# 2 10.4981 152.4210 102.3383 0.0000 0.0000 0.0000
# 3 29.0902 102.3383 220.9254 0.0000 0.0000 0.0000
# 4 0.0000 0.0000 0.0000 -180.2249 0.0000 0.0000
# 5 0.0000 0.0000 0.0000 0.0000 14.7519 0.0000
# 6 0.0000 0.0000 0.0000 0.0000 0.0000 26.7754
#
#
#
# Elastic Compliance Matrix: (Units=1/GPa)
#
#
# Indices 1 2 3 4 5 6 
#
# 1 0.036205 0.001026 -0.005243 0.000000 0.000000 0.000000
# 2 0.001026 0.009552 -0.004560 0.000000 0.000000 0.000000
# 3 -0.005243 -0.004560 0.007329 0.000000 0.000000 0.000000
# 4 0.000000 0.000000 0.000000 -0.005549 0.000000 0.000000
# 5 0.000000 0.000000 0.000000 0.000000 0.067788 0.000000
# 6 0.000000 0.000000 0.000000 0.000000 0.000000 0.037348
#
#
# Mechanical properties :
#
#
# Convention : Reuss Voigt Hill
#
# Bulk Modulus (GPa) = 28.14230 76.52608 52.33419
# Shear Modulus (GPa) = 27.46210 -10.20918 8.62646
#
# Velocity S-wave (km/s) = 3.66674 -2.23567 2.05508
# Velocity P-wave (km/s) = 5.63068 5.54991 5.59044
#
# Compressibility (1/GPa) = 0.03553370
#
# Stress axis : x y z
#
# Youngs Moduli (GPa) = 27.62027 104.69541 136.44594
#
# Poissons Ratio (x) = -0.10746 0.71536
# Poissons Ratio (y) = -0.02835 0.62215
# Poissons Ratio (z) = 0.14481 0.47738
#
# Static dielectric constant tensor:
#      x y z
#    x 1.759050 0.000000 0.000000 
#    y 0.000000 1.697980 0.000000 
#    z 0.000000 0.000000 1.728400 
# 
# From -- ./inp_files/27753.got.cif
#   From: 2010.05.17/outbox.cif.g08.bks.cpg/sg63_14_cif.got.tgz:27753.got - 2010.06.03 15:47:04.
