data_PCOD9470614
_publ_section_title
;
Structure prediction by ZEFSAII (Michael W. Deem and Ramdas Pophale) SiO2 
 PCOD9470614
Probable space group: C M C M
;
_chemical_formula_sum "Si O2"
_cell_formula_units_Z 112
_cell_length_a 21.157557
_cell_length_b 11.129250
_cell_length_c 26.719614
_cell_angle_alpha 90.000000
_cell_angle_beta 90.000000
_cell_angle_gamma 90.000000
_cell_volume 6291.607155
_symmetry_space_group_name_H-M "C M C M"
_symmetry_group_IT_number 63
_symmetry_cell_setting 'orthorhombic'
loop_
_space_group_symop_operation_xyz
x,y,z
-x,-y,1/2+z
x,-y,-z
-x,y,1/2-z
-x,-y,-z
x,y,1/2-z
-x,y,z
x,-y,1/2+z
1/2+x,1/2+y,z
1/2-x,1/2-y,1/2+z
1/2+x,1/2-y,-z
1/2-x,1/2+y,1/2-z
1/2-x,1/2-y,-z
1/2+x,1/2+y,1/2-z
1/2-x,1/2+y,z
1/2+x,1/2-y,1/2+z
loop_
_atom_site_type_symbol
_atom_site_label
_atom_site_fract_x
_atom_site_fract_y
_atom_site_fract_z
Si Si1 0.129935 0.364026 0.547938
Si Si2 0.928471 0.517090 0.871755
Si Si3 0.131948 0.875951 0.391365
Si Si4 0.247180 0.031781 0.555470
Si Si5 0.069555 0.930793 0.947412
Si Si6 0.424410 0.791444 0.690987
Si Si7 0.857019 0.693497 0.562336
O O1 0.076600 0.427648 0.580677
O O2 0.135042 0.227785 0.566397
O O3 0.195330 0.435441 0.560767
O O4 0.116401 0.364292 0.489173
O O5 0.908061 0.427362 0.827246
O O6 0.885023 0.627852 0.888803
O O7 0.000000 0.557150 0.863229
O O8 0.195418 0.953880 0.401319
O O9 0.116388 0.804074 0.340862
O O10 0.076796 0.968229 0.405177
O O11 0.283645 0.160189 0.556596
O O12 0.221068 0.000000 0.500000
O O13 0.122111 0.829908 0.939641
O O14 0.000000 0.873307 0.946099
O O15 0.075581 0.000000 0.000000
O O16 0.415108 0.778180 0.750000
O O17 0.500000 0.776611 0.680079
#
# Coordination Sequence:
#
# PCOD9470614 Si02
#       7
#    16  16  16  16  16  16  16
#     4   9  19  31  45  75 107 143 185 214 253 305
#     4   9  17  30  51  75 100 131 171 220 271 312
#     4  11  20  33  52  74 106 141 181 221 266 313
#     4   9  20  31  50  72 104 144 192 222 252 307
#     4  11  22  32  46  75 115 154 183 216 264 320
#     4   9  19  37  60  81  99 125 172 229 279 329
#     4  10  19  33  46  74 111 149 181 213 254 313
#
# _framework density 17.801492
#
# number of rings (size 3 to 8) (size 9 to 14) (size 15 to 20)
#    0.000    2.286    1.429    2.571    2.000    3.429 
#    0.000    0.000    0.000    8.571    0.000    2.000 
#    0.000    0.000    0.000    0.000    0.000    0.000 
#
# Total GULP energy -311829.353064 kJ/mol
# GULP energy per Si atom -5568.381305 kJ/mol
# Density = 1.776098 g / cm^3
# Si number density = 17.801492 Si / 1000 Ang^3
#
#
#
# Elastic Constant Matrix: (Units=GPa)
#
#
# Indices 1 2 3 4 5 6 
#
# 1 65.1107 27.7474 28.3457 0.0000 0.0000 0.0000
# 2 27.7474 85.0385 27.4956 0.0000 0.0000 0.0000
# 3 28.3457 27.4956 91.2673 0.0000 0.0000 0.0000
# 4 0.0000 0.0000 0.0000 19.5637 0.0000 0.0000
# 5 0.0000 0.0000 0.0000 0.0000 18.1882 0.0000
# 6 0.0000 0.0000 0.0000 0.0000 0.0000 24.4364
#
#
#
# Elastic Compliance Matrix: (Units=1/GPa)
#
#
# Indices 1 2 3 4 5 6 
#
# 1 0.019417 -0.004859 -0.004567 0.000000 0.000000 0.000000
# 2 -0.004859 0.014244 -0.002782 0.000000 0.000000 0.000000
# 3 -0.004567 -0.002782 0.013213 0.000000 0.000000 0.000000
# 4 0.000000 0.000000 0.000000 0.051115 0.000000 0.000000
# 5 0.000000 0.000000 0.000000 0.000000 0.054981 0.000000
# 6 0.000000 0.000000 0.000000 0.000000 0.000000 0.040923
#
#
# Mechanical properties :
#
#
# Convention : Reuss Voigt Hill
#
# Bulk Modulus (GPa) = 44.52565 45.39932 44.96249
# Shear Modulus (GPa) = 22.14390 22.95952 22.55171
#
# Velocity S-wave (km/s) = 3.53077 3.59521 3.56314
# Velocity P-wave (km/s) = 6.45666 6.54160 6.49927
#
# Compressibility (1/GPa) = 0.02245896
#
# Stress axis : x y z
#
# Youngs Moduli (GPa) = 51.50033 70.20270 75.68113
#
# Poissons Ratio (x) = 0.34113 0.34561
# Poissons Ratio (y) = 0.25025 0.21056
# Poissons Ratio (z) = 0.23519 0.19532
#
# Static dielectric constant tensor:
#      x y z
#    x 1.653190 0.000000 0.000000 
#    y 0.000000 1.671740 0.000000 
#    z 0.000000 0.000000 1.578810 
# 
# From -- ./inp_files/65103.got.cif
#   From: 2010.05.17/outbox.cif.g08.bks.cpg/sg63_33_cif.got.tgz:65103.got - 2010.06.03 15:47:04.
