data_PCOD9470998
_publ_section_title
;
Structure prediction by ZEFSAII (Michael W. Deem and Ramdas Pophale) SiO2 
 PCOD9470998
Probable space group: C M C M
;
_chemical_formula_sum "Si O2"
_cell_formula_units_Z 64
_cell_length_a 7.633025
_cell_length_b 23.750986
_cell_length_c 16.931673
_cell_angle_alpha 90.000000
_cell_angle_beta 90.000000
_cell_angle_gamma 90.000000
_cell_volume 3069.574659
_symmetry_space_group_name_H-M "C M C M"
_symmetry_group_IT_number 63
_symmetry_cell_setting 'orthorhombic'
loop_
_space_group_symop_operation_xyz
x,y,z
-x,-y,1/2+z
x,-y,-z
-x,y,1/2-z
-x,-y,-z
x,y,1/2-z
-x,y,z
x,-y,1/2+z
1/2+x,1/2+y,z
1/2-x,1/2-y,1/2+z
1/2+x,1/2-y,-z
1/2-x,1/2+y,1/2-z
1/2-x,1/2-y,-z
1/2+x,1/2+y,1/2-z
1/2-x,1/2+y,z
1/2+x,1/2-y,1/2+z
loop_
_atom_site_type_symbol
_atom_site_label
_atom_site_fract_x
_atom_site_fract_y
_atom_site_fract_z
Si Si1 0.714066 0.913835 0.941278
Si Si2 0.291977 0.969494 0.395452
Si Si3 0.210877 0.713965 0.420114
Si Si4 0.206986 0.108229 0.750000
Si Si5 0.215044 0.764542 0.250000
O O1 0.500000 0.910007 0.939840
O O2 0.776400 0.850483 0.928003
O O3 0.768996 0.965885 0.884915
O O4 0.772684 0.938383 0.025817
O O5 0.500000 0.974235 0.406455
O O6 0.258057 0.928357 0.324533
O O7 0.250000 0.750000 0.500000
O O8 0.270526 0.737997 0.334579
O O9 0.000000 0.712813 0.416079
O O10 0.278783 0.171094 0.750000
O O11 0.000000 0.114683 0.750000
O O12 0.000000 0.762406 0.250000
#
# Coordination Sequence:
#
# PCOD9470998 Si02
#       5
#    16  16  16   8   8
#     4   8  16  31  53  76  96 120 163 210 249 292
#     4   9  17  32  52  74  96 123 159 206 252 294
#     4  10  19  34  54  76 102 137 172 207 249 299
#     4  11  21  32  45  69 101 131 162 199 242 296
#     4   9  20  34  49  71 103 137 170 203 248 308
#
# _framework density 20.849792999999998
#
# number of rings (size 3 to 8) (size 9 to 14) (size 15 to 20)
#    0.000    2.750    0.000    3.375    0.000    1.000 
#    0.000    9.375    0.000    0.000    0.000    0.000 
#    0.000    0.000    0.000    0.000    0.000    0.000 
#
# Total GULP energy -178270.776958 kJ/mol
# GULP energy per Si atom -5570.961780 kJ/mol
# Density = 2.080234 g / cm^3
# Si number density = 20.849793 Si / 1000 Ang^3
#
#
#
# Elastic Constant Matrix: (Units=GPa)
#
#
# Indices 1 2 3 4 5 6 
#
# 1 33.9734 9.6323 4.4499 0.0000 0.0000 0.0000
# 2 9.6323 271.7221 125.4052 0.0000 0.0000 0.0000
# 3 4.4499 125.4052 144.8151 0.0000 0.0000 0.0000
# 4 0.0000 0.0000 0.0000 36.2351 0.0000 0.0000
# 5 0.0000 0.0000 0.0000 0.0000 -316.3992 0.0000
# 6 0.0000 0.0000 0.0000 0.0000 0.0000 -2.4769
#
#
#
# Elastic Compliance Matrix: (Units=1/GPa)
#
#
# Indices 1 2 3 4 5 6 
#
# 1 0.029734 -0.001053 -0.000002 0.000000 0.000000 0.000000
# 2 -0.001053 0.006168 -0.005309 0.000000 0.000000 0.000000
# 3 -0.000002 -0.005309 0.011502 0.000000 0.000000 0.000000
# 4 0.000000 0.000000 0.000000 0.027598 0.000000 0.000000
# 5 0.000000 0.000000 0.000000 0.000000 -0.003161 0.000000
# 6 0.000000 0.000000 0.000000 0.000000 0.000000 -0.403730
#
#
# Mechanical properties :
#
#
# Convention : Reuss Voigt Hill
#
# Bulk Modulus (GPa) = 28.83769 81.05395 54.94582
# Shear Modulus (GPa) = -16.25467 -35.79331 -26.02399
#
# Velocity S-wave (km/s) = -2.79518 -4.14783 -3.53677
# Velocity P-wave (km/s) = 1.85576 4.00253 3.11962
#
# Compressibility (1/GPa) = 0.03467684
#
# Stress axis : x y z
#
# Youngs Moduli (GPa) = 33.63195 162.13836 86.93810
#
# Poissons Ratio (x) = 0.17079 0.00013
# Poissons Ratio (y) = 0.03543 0.46152
# Poissons Ratio (z) = 0.00005 0.86072
#
# Static dielectric constant tensor:
#      x y z
#    x 1.799950 0.000000 0.000000 
#    y 0.000000 1.774510 0.000000 
#    z 0.000000 0.000000 1.741930 
# 
# From -- ./inp_files/39858.got.cif
#   From: 2010.05.17/outbox.cif.g08.bks.cpg/sg63_20_cif.got.tgz:39858.got - 2010.06.03 15:47:04.
