data_PCOD9470024
_publ_section_title
;
Structure prediction by ZEFSAII (Michael W. Deem and Ramdas Pophale) SiO2 
 PCOD9470024
Probable space group: C M C M
;
_chemical_formula_sum "Si O2"
_cell_formula_units_Z 128
_cell_length_a 21.235560
_cell_length_b 20.509207
_cell_length_c 14.768554
_cell_angle_alpha 90.000000
_cell_angle_beta 90.000000
_cell_angle_gamma 90.000000
_cell_volume 6432.067035
_symmetry_space_group_name_H-M "C M C M"
_symmetry_group_IT_number 63
_symmetry_cell_setting 'orthorhombic'
loop_
_space_group_symop_operation_xyz
x,y,z
-x,-y,1/2+z
x,-y,-z
-x,y,1/2-z
-x,-y,-z
x,y,1/2-z
-x,y,z
x,-y,1/2+z
1/2+x,1/2+y,z
1/2-x,1/2-y,1/2+z
1/2+x,1/2-y,-z
1/2-x,1/2+y,1/2-z
1/2-x,1/2-y,-z
1/2+x,1/2+y,1/2-z
1/2-x,1/2+y,z
1/2+x,1/2-y,1/2+z
loop_
_atom_site_type_symbol
_atom_site_label
_atom_site_fract_x
_atom_site_fract_y
_atom_site_fract_z
Si Si1 0.429670 0.357203 0.101657
Si Si2 0.191389 0.774261 0.358030
Si Si3 0.188977 0.642353 0.861729
Si Si4 0.254637 0.861469 0.638660
Si Si5 0.607620 0.635685 0.395743
Si Si6 0.226731 0.496504 0.144236
Si Si7 0.068529 0.278647 0.354171
Si Si8 0.624911 0.493727 0.390281
O O1 0.500000 0.338959 0.128884
O O2 0.376304 0.304760 0.123771
O O3 0.411271 0.428818 0.138384
O O4 0.424337 0.364734 0.993586
O O5 0.198481 0.772095 0.250000
O O6 0.247152 0.821465 0.391786
O O7 0.205185 0.700989 0.389621
O O8 0.189726 0.643080 0.750000
O O9 0.192109 0.567314 0.892097
O O10 0.128129 0.682736 0.893296
O O11 0.248675 0.862338 0.750000
O O12 0.183555 0.856576 0.601202
O O13 0.283094 0.930593 0.608159
O O14 0.582291 0.701427 0.351592
O O15 0.599175 0.563192 0.355406
O O16 0.210577 0.499423 0.250000
O O17 0.302035 0.485573 0.136068
O O18 0.064761 0.300500 0.250000
O O19 0.000000 0.289668 0.397586
O O20 0.623441 0.500000 0.500000
#
# Coordination Sequence:
#
# PCOD9470024 Si02
#       8
#    16  16  16  16  16  16  16  16
#     4  11  23  35  48  69  99 137 173 204 240 284
#     4  10  19  34  53  72  97 128 164 209 251 286
#     4   9  16  29  50  73  96 125 157 197 245 287
#     4   9  17  31  53  78 100 125 161 205 251 292
#     4  10  19  32  50  71 100 131 163 198 241 297
#     4   9  16  29  51  74  96 123 159 201 242 286
#     4  10  19  31  48  72 101 129 156 193 246 303
#     4   9  19  32  47  67  95 131 164 199 238 283
#
# _framework density 19.900289000000001
#
# number of rings (size 3 to 8) (size 9 to 14) (size 15 to 20)
#    0.000    2.375    2.500    0.750    0.000    4.000 
#    0.000    0.000    0.000    0.750    0.000    3.500 
#    0.000    2.500    0.000    0.000    0.000    0.000 
#
# Total GULP energy -356994.819393 kJ/mol
# GULP energy per Si atom -5578.044053 kJ/mol
# Density = 1.985500 g / cm^3
# Si number density = 19.900289 Si / 1000 Ang^3
#
#
#
# Elastic Constant Matrix: (Units=GPa)
#
#
# Indices 1 2 3 4 5 6 
#
# 1 125.0588 94.3556 -5.7412 0.0000 0.0000 0.0000
# 2 94.3556 165.7980 0.2868 0.0000 0.0000 0.0000
# 3 -5.7412 0.2868 36.0326 0.0000 0.0000 0.0000
# 4 0.0000 0.0000 0.0000 8.2678 0.0000 0.0000
# 5 0.0000 0.0000 0.0000 0.0000 -7.7875 0.0000
# 6 0.0000 0.0000 0.0000 0.0000 0.0000 20.4173
#
#
#
# Elastic Compliance Matrix: (Units=1/GPa)
#
#
# Indices 1 2 3 4 5 6 
#
# 1 0.014206 -0.008089 0.002328 0.000000 0.000000 0.000000
# 2 -0.008089 0.010637 -0.001373 0.000000 0.000000 0.000000
# 3 0.002328 -0.001373 0.028134 0.000000 0.000000 0.000000
# 4 0.000000 0.000000 0.000000 0.120952 0.000000 0.000000
# 5 0.000000 0.000000 0.000000 0.000000 -0.128412 0.000000
# 6 0.000000 0.000000 0.000000 0.000000 0.000000 0.048978
#
#
# Mechanical properties :
#
#
# Convention : Reuss Voigt Hill
#
# Bulk Modulus (GPa) = 25.83380 56.07688 40.95534
# Shear Modulus (GPa) = 41.09585 20.04541 30.57063
#
# Velocity S-wave (km/s) = 4.54925 3.17723 3.92368
# Velocity P-wave (km/s) = 6.37213 6.45754 6.41498
#
# Compressibility (1/GPa) = 0.03870898
#
# Stress axis : x y z
#
# Youngs Moduli (GPa) = 70.39356 94.01141 35.54359
#
# Poissons Ratio (x) = 0.76042 -0.08274
# Poissons Ratio (y) = 0.56938 0.04882
# Poissons Ratio (z) = -0.16386 0.12912
#
# Static dielectric constant tensor:
#      x y z
#    x 1.681770 0.000000 0.000000 
#    y 0.000000 1.734120 0.000000 
#    z 0.000000 0.000000 1.827940 
# 
# From -- ./inp_files/47524.got.cif
#   From: 2010.05.17/outbox.cif.g08.bks.cpg/sg63_24_cif.got.tgz:47524.got - 2010.06.03 15:47:04.
