data_PCOD9470860
_publ_section_title
;
Structure prediction by ZEFSAII (Michael W. Deem and Ramdas Pophale) SiO2 
 PCOD9470860
Probable space group: C M C M
;
_chemical_formula_sum "Si O2"
_cell_formula_units_Z 112
_cell_length_a 22.532975
_cell_length_b 10.409035
_cell_length_c 22.555778
_cell_angle_alpha 90.000000
_cell_angle_beta 90.000000
_cell_angle_gamma 90.000000
_cell_volume 5290.379358
_symmetry_space_group_name_H-M "C M C M"
_symmetry_group_IT_number 63
_symmetry_cell_setting 'orthorhombic'
loop_
_space_group_symop_operation_xyz
x,y,z
-x,-y,1/2+z
x,-y,-z
-x,y,1/2-z
-x,-y,-z
x,y,1/2-z
-x,y,z
x,-y,1/2+z
1/2+x,1/2+y,z
1/2-x,1/2-y,1/2+z
1/2+x,1/2-y,-z
1/2-x,1/2+y,1/2-z
1/2-x,1/2-y,-z
1/2+x,1/2+y,1/2-z
1/2-x,1/2+y,z
1/2+x,1/2-y,1/2+z
loop_
_atom_site_type_symbol
_atom_site_label
_atom_site_fract_x
_atom_site_fract_y
_atom_site_fract_z
Si Si1 0.771473 0.055128 0.420261
Si Si2 0.686344 0.283828 0.078465
Si Si3 0.067613 0.571254 0.942801
Si Si4 0.245629 0.612944 0.818268
Si Si5 0.429839 0.794059 0.250000
Si Si6 0.134680 0.230340 0.135952
Si Si7 0.067648 0.308959 0.876402
Si Si8 0.071850 0.404182 0.750000
O O1 0.726121 0.163953 0.443427
O O2 0.833694 0.114664 0.398257
O O3 0.788864 0.917450 0.449758
O O4 0.739222 0.012810 0.358613
O O5 0.702769 0.311241 0.147386
O O6 0.616275 0.257076 0.080784
O O7 0.105734 0.682946 0.914981
O O8 0.064148 0.458198 0.895150
O O9 0.000000 0.613514 0.957399
O O10 0.093644 0.500000 0.000000
O O11 0.256012 0.588319 0.750000
O O12 0.187872 0.696248 0.830897
O O13 0.500000 0.804774 0.250000
O O14 0.410625 0.718464 0.309533
O O15 0.407219 0.945166 0.250000
O O16 0.087612 0.323382 0.808404
O O17 0.000000 0.256813 0.881106
O O18 0.000000 0.412131 0.750000
#
# Coordination Sequence:
#
# PCOD9470860 Si02
#       8
#    16  16  16  16   8  16  16   8
#     4   9  21  33  52  81 116 151 191 228 276 332
#     4   9  20  34  52  83 116 153 192 230 276 339
#     4  10  21  37  58  83 110 149 197 240 284 341
#     4   9  19  32  51  82 116 152 187 226 274 338
#     4  11  20  30  48  80 117 148 182 233 288 341
#     4  11  19  33  55  79 114 145 188 235 286 335
#     4  10  19  33  55  82 114 149 187 234 286 343
#     4   9  18  28  46  78 109 142 179 221 280 333
#
# _framework density 21.170504000000001
#
# number of rings (size 3 to 8) (size 9 to 14) (size 15 to 20)
#    0.857    1.429    2.143    1.286    2.000    0.571 
#    0.000    1.429    0.000    9.429    0.000    3.000 
#    0.000    0.000    0.000    0.000    0.000    0.000 
#
# Total GULP energy -311781.496054 kJ/mol
# GULP energy per Si atom -5567.526715 kJ/mol
# Density = 2.112232 g / cm^3
# Si number density = 21.170504 Si / 1000 Ang^3
#
#
#
# Elastic Constant Matrix: (Units=GPa)
#
#
# Indices 1 2 3 4 5 6 
#
# 1 81.2356 43.7115 9.6674 0.0000 0.0000 0.0000
# 2 43.7115 89.5718 7.1475 0.0000 0.0000 0.0000
# 3 9.6674 7.1475 53.0031 0.0000 0.0000 0.0000
# 4 0.0000 0.0000 0.0000 14.9203 0.0000 0.0000
# 5 0.0000 0.0000 0.0000 0.0000 16.8240 0.0000
# 6 0.0000 0.0000 0.0000 0.0000 0.0000 14.9716
#
#
#
# Elastic Compliance Matrix: (Units=1/GPa)
#
#
# Indices 1 2 3 4 5 6 
#
# 1 0.016899 -0.008088 -0.001992 0.000000 0.000000 0.000000
# 2 -0.008088 0.015156 -0.000569 0.000000 0.000000 0.000000
# 3 -0.001992 -0.000569 0.019307 0.000000 0.000000 0.000000
# 4 0.000000 0.000000 0.000000 0.067023 0.000000 0.000000
# 5 0.000000 0.000000 0.000000 0.000000 0.059439 0.000000
# 6 0.000000 0.000000 0.000000 0.000000 0.000000 0.066793
#
#
# Mechanical properties :
#
#
# Convention : Reuss Voigt Hill
#
# Bulk Modulus (GPa) = 33.26027 38.31817 35.78922
# Shear Modulus (GPa) = 18.12023 20.22879 19.17451
#
# Velocity S-wave (km/s) = 2.92878 3.09450 3.01278
# Velocity P-wave (km/s) = 5.21362 5.55940 5.38928
#
# Compressibility (1/GPa) = 0.03006590
#
# Stress axis : x y z
#
# Youngs Moduli (GPa) = 59.17587 65.97838 51.79527
#
# Poissons Ratio (x) = 0.53362 0.10316
# Poissons Ratio (y) = 0.47860 0.02946
# Poissons Ratio (z) = 0.11785 0.03752
#
# Static dielectric constant tensor:
#      x y z
#    x 1.804780 0.000000 0.000000 
#    y 0.000000 1.787180 0.000000 
#    z 0.000000 0.000000 1.856270 
# 
# From -- ./inp_files/65128.got.cif
#   From: 2010.05.17/outbox.cif.g08.bks.cpg/sg63_33_cif.got.tgz:65128.got - 2010.06.03 15:47:04.
