data_PCOD9470148
_publ_section_title
;
Structure prediction by ZEFSAII (Michael W. Deem and Ramdas Pophale) SiO2 
 PCOD9470148
Probable space group: C M C M
;
_chemical_formula_sum "Si O2"
_cell_formula_units_Z 104
_cell_length_a 19.384555
_cell_length_b 19.499190
_cell_length_c 12.902868
_cell_angle_alpha 90.000000
_cell_angle_beta 90.000000
_cell_angle_gamma 90.000000
_cell_volume 4877.066317
_symmetry_space_group_name_H-M "C M C M"
_symmetry_group_IT_number 63
_symmetry_cell_setting 'orthorhombic'
loop_
_space_group_symop_operation_xyz
x,y,z
-x,-y,1/2+z
x,-y,-z
-x,y,1/2-z
-x,-y,-z
x,y,1/2-z
-x,y,z
x,-y,1/2+z
1/2+x,1/2+y,z
1/2-x,1/2-y,1/2+z
1/2+x,1/2-y,-z
1/2-x,1/2+y,1/2-z
1/2-x,1/2-y,-z
1/2+x,1/2+y,1/2-z
1/2-x,1/2+y,z
1/2+x,1/2-y,1/2+z
loop_
_atom_site_type_symbol
_atom_site_label
_atom_site_fract_x
_atom_site_fract_y
_atom_site_fract_z
Si Si1 0.000000 0.105672 0.872085
Si Si2 0.500000 0.872746 0.624176
Si Si3 0.151188 0.095316 0.624174
Si Si4 0.000000 0.766340 0.503119
Si Si5 0.787598 0.048396 0.123991
Si Si6 0.860866 0.808906 0.624884
Si Si7 0.148934 0.385090 0.625396
Si Si8 0.713058 0.257251 0.124738
O O1 0.073170 0.080613 0.912719
O O2 0.000000 0.094258 0.750000
O O3 0.000000 0.185238 0.901847
O O4 0.500000 0.855348 0.750000
O O5 0.500000 0.808347 0.546707
O O6 0.572213 0.909347 0.601179
O O7 0.148058 0.098213 0.750000
O O8 0.183648 0.168558 0.593857
O O9 0.194273 0.028957 0.595057
O O10 0.068902 0.784501 0.569257
O O11 0.785083 0.047393 0.250000
O O12 0.840698 0.111153 0.102831
O O13 0.712632 0.071430 0.085206
O O14 0.869700 0.803367 0.750000
O O15 0.791981 0.763773 0.597731
O O16 0.153956 0.385929 0.750000
O O17 0.163241 0.305995 0.595054
O O18 0.713019 0.258082 0.250000
#
# Coordination Sequence:
#
# PCOD9470148 Si02
#       8
#     8   8  16   8  16  16  16  16
#     4  10  21  34  48  74 109 136 162 202 250 298
#     4  10  19  31  50  76 104 129 158 208 263 301
#     4   9  16  29  52  77 103 137 170 201 246 301
#     4  12  22  33  52  76 101 135 173 208 248 305
#     4   8  15  30  52  75 100 135 173 205 245 299
#     4   9  19  35  52  72 100 133 171 214 253 289
#     4   8  14  27  48  73 101 130 162 204 252 297
#     4   8  14  27  48  72  98 129 167 210 249 290
#
# _framework density 21.324294999999999
#
# number of rings (size 3 to 8) (size 9 to 14) (size 15 to 20)
#    0.000    3.077    0.000    3.231    0.000    3.077 
#    0.000   10.769    0.000    0.923    0.000    6.462 
#    0.000    0.000    0.000    0.000    0.000    0.000 
#
# Total GULP energy -290145.696081 kJ/mol
# GULP energy per Si atom -5579.724925 kJ/mol
# Density = 2.127576 g / cm^3
# Si number density = 21.324295 Si / 1000 Ang^3
#
#
#
# Elastic Constant Matrix: (Units=GPa)
#
#
# Indices 1 2 3 4 5 6 
#
# 1 204.2568 81.4982 35.6347 0.0000 0.0000 0.0000
# 2 81.4982 118.9921 13.6505 0.0000 0.0000 0.0000
# 3 35.6347 13.6505 41.8722 0.0000 0.0000 0.0000
# 4 0.0000 0.0000 0.0000 22.3154 0.0000 0.0000
# 5 0.0000 0.0000 0.0000 0.0000 26.1403 0.0000
# 6 0.0000 0.0000 0.0000 0.0000 0.0000 16.9317
#
#
#
# Elastic Compliance Matrix: (Units=1/GPa)
#
#
# Indices 1 2 3 4 5 6 
#
# 1 0.007616 -0.004647 -0.004967 0.000000 0.000000 0.000000
# 2 -0.004647 0.011565 0.000184 0.000000 0.000000 0.000000
# 3 -0.004967 0.000184 0.028049 0.000000 0.000000 0.000000
# 4 0.000000 0.000000 0.000000 0.044812 0.000000 0.000000
# 5 0.000000 0.000000 0.000000 0.000000 0.038255 0.000000
# 6 0.000000 0.000000 0.000000 0.000000 0.000000 0.059061
#
#
# Mechanical properties :
#
#
# Convention : Reuss Voigt Hill
#
# Bulk Modulus (GPa) = 35.24612 69.63200 52.43906
# Shear Modulus (GPa) = 22.97001 28.69999 25.83500
#
# Velocity S-wave (km/s) = 3.28560 3.67261 3.48448
# Velocity P-wave (km/s) = 5.56399 7.12101 6.39010
#
# Compressibility (1/GPa) = 0.02837192
#
# Stress axis : x y z
#
# Youngs Moduli (GPa) = 131.29645 86.46539 35.65163
#
# Poissons Ratio (x) = 0.40178 0.17708
# Poissons Ratio (y) = 0.61009 -0.00657
# Poissons Ratio (z) = 0.65214 -0.01592
#
# Static dielectric constant tensor:
#      x y z
#    x 1.782310 0.000000 0.000000 
#    y 0.000000 1.731020 0.000000 
#    z 0.000000 0.000000 1.854650 
# 
# From -- ./inp_files/34224.got.cif
#   From: 2010.05.17/outbox.cif.g08.bks.cpg/sg63_18_cif.got.tgz:34224.got - 2010.06.03 15:47:04.
