data_PCOD9470913
_publ_section_title
;
Structure prediction by ZEFSAII (Michael W. Deem and Ramdas Pophale) SiO2 
 PCOD9470913
Probable space group: C M C M
;
_chemical_formula_sum "Si O2"
_cell_formula_units_Z 104
_cell_length_a 21.526901
_cell_length_b 28.876792
_cell_length_c 9.139238
_cell_angle_alpha 90.000000
_cell_angle_beta 90.000000
_cell_angle_gamma 90.000000
_cell_volume 5681.204801
_symmetry_space_group_name_H-M "C M C M"
_symmetry_group_IT_number 63
_symmetry_cell_setting 'orthorhombic'
loop_
_space_group_symop_operation_xyz
x,y,z
-x,-y,1/2+z
x,-y,-z
-x,y,1/2-z
-x,-y,-z
x,y,1/2-z
-x,y,z
x,-y,1/2+z
1/2+x,1/2+y,z
1/2-x,1/2-y,1/2+z
1/2+x,1/2-y,-z
1/2-x,1/2+y,1/2-z
1/2-x,1/2-y,-z
1/2+x,1/2+y,1/2-z
1/2-x,1/2+y,z
1/2+x,1/2-y,1/2+z
loop_
_atom_site_type_symbol
_atom_site_label
_atom_site_fract_x
_atom_site_fract_y
_atom_site_fract_z
Si Si1 0.642417 0.383518 0.421036
Si Si2 0.877386 0.596862 0.427168
Si Si3 0.073751 0.043636 0.410797
Si Si4 0.000000 0.552056 0.570517
Si Si5 0.676622 0.706633 0.082112
Si Si6 0.826539 0.299964 0.918811
Si Si7 0.240822 0.548820 0.574271
O O1 0.630997 0.384800 0.250000
O O2 0.588963 0.409983 0.505900
O O3 0.648508 0.332051 0.478701
O O4 0.705105 0.413242 0.450019
O O5 0.881942 0.590603 0.250000
O O6 0.939671 0.579328 0.507763
O O7 0.858727 0.650915 0.453538
O O8 0.821124 0.567227 0.495256
O O9 0.101904 0.044077 0.250000
O O10 0.000000 0.038257 0.399271
O O11 0.098140 0.000000 0.500000
O O12 0.000000 0.500000 0.500000
O O13 0.000000 0.549873 0.750000
O O14 0.658014 0.700207 0.250000
O O15 0.751253 0.698099 0.074437
O O16 0.658756 0.757559 0.025935
O O17 0.842316 0.288382 0.750000
O O18 0.256858 0.500000 0.500000
O O19 0.232193 0.543907 0.750000
#
# Coordination Sequence:
#
# PCOD9470913 Si02
#       7
#    16  16  16   8  16  16  16
#     4  11  22  35  55  83 115 151 189 233 283 338
#     4  11  22  40  63  86 115 152 194 240 293 348
#     4  10  21  37  57  80 109 147 190 233 278 334
#     4  12  26  44  64  88 118 156 202 248 299 356
#     4  10  19  33  56  86 118 151 186 230 281 336
#     4   9  19  35  57  85 115 149 185 229 281 339
#     4  11  23  36  53  81 116 151 187 232 284 340
#
# _framework density 18.305976999999999
#
# number of rings (size 3 to 8) (size 9 to 14) (size 15 to 20)
#    0.000    1.538    1.538    3.923    0.000    5.846 
#    0.000    0.000    1.692    0.000    0.000    0.000 
#    0.000    0.000    0.000    0.000    0.000    0.000 
#
# Total GULP energy -290268.468160 kJ/mol
# GULP energy per Si atom -5582.085926 kJ/mol
# Density = 1.826431 g / cm^3
# Si number density = 18.305977 Si / 1000 Ang^3
#
#
#
# Elastic Constant Matrix: (Units=GPa)
#
#
# Indices 1 2 3 4 5 6 
#
# 1 48.4362 28.9105 37.2185 0.0000 0.0000 0.0000
# 2 28.9105 100.1310 60.7646 0.0000 0.0000 0.0000
# 3 37.2185 60.7646 120.8307 0.0000 0.0000 0.0000
# 4 0.0000 0.0000 0.0000 35.2094 0.0000 0.0000
# 5 0.0000 0.0000 0.0000 0.0000 126.6834 0.0000
# 6 0.0000 0.0000 0.0000 0.0000 0.0000 27.0284
#
#
#
# Elastic Compliance Matrix: (Units=1/GPa)
#
#
# Indices 1 2 3 4 5 6 
#
# 1 0.028186 -0.004130 -0.006605 0.000000 0.000000 0.000000
# 2 -0.004130 0.014978 -0.006260 0.000000 0.000000 0.000000
# 3 -0.006605 -0.006260 0.013459 0.000000 0.000000 0.000000
# 4 0.000000 0.000000 0.000000 0.028401 0.000000 0.000000
# 5 0.000000 0.000000 0.000000 0.000000 0.007894 0.000000
# 6 0.000000 0.000000 0.000000 0.000000 0.000000 0.036998
#
#
# Mechanical properties :
#
#
# Convention : Reuss Voigt Hill
#
# Bulk Modulus (GPa) = 44.18375 58.13165 51.15770
# Shear Modulus (GPa) = 29.16273 47.28453 38.22363
#
# Velocity S-wave (km/s) = 3.99566 5.08785 4.57447
# Velocity P-wave (km/s) = 6.74357 8.14490 7.47714
#
# Compressibility (1/GPa) = 0.02263275
#
# Stress axis : x y z
#
# Youngs Moduli (GPa) = 35.47851 66.76249 74.30037
#
# Poissons Ratio (x) = 0.27571 0.49076
# Poissons Ratio (y) = 0.14652 0.46515
# Poissons Ratio (z) = 0.23434 0.41796
#
# Static dielectric constant tensor:
#      x y z
#    x 1.638470 0.000000 0.000000 
#    y 0.000000 1.584580 0.000000 
#    z 0.000000 0.000000 1.618550 
# 
# From -- ./inp_files/8787.got.cif
#   From: 2010.05.17/outbox.cif.g08.bks.cpg/sg63_5_cif.got.tgz:8787.got - 2010.06.03 15:47:04.
