data_PCOD9470826
_publ_section_title
;
Structure prediction by ZEFSAII (Michael W. Deem and Ramdas Pophale) SiO2 
 PCOD9470826
Probable space group: C M C M
;
_chemical_formula_sum "Si O2"
_cell_formula_units_Z 104
_cell_length_a 22.151790
_cell_length_b 28.766632
_cell_length_c 9.241662
_cell_angle_alpha 90.000000
_cell_angle_beta 90.000000
_cell_angle_gamma 90.000000
_cell_volume 5889.086374
_symmetry_space_group_name_H-M "C M C M"
_symmetry_group_IT_number 63
_symmetry_cell_setting 'orthorhombic'
loop_
_space_group_symop_operation_xyz
x,y,z
-x,-y,1/2+z
x,-y,-z
-x,y,1/2-z
-x,-y,-z
x,y,1/2-z
-x,y,z
x,-y,1/2+z
1/2+x,1/2+y,z
1/2-x,1/2-y,1/2+z
1/2+x,1/2-y,-z
1/2-x,1/2+y,1/2-z
1/2-x,1/2-y,-z
1/2+x,1/2+y,1/2-z
1/2-x,1/2+y,z
1/2+x,1/2-y,1/2+z
loop_
_atom_site_type_symbol
_atom_site_label
_atom_site_fract_x
_atom_site_fract_y
_atom_site_fract_z
Si Si1 0.329981 0.883269 0.081674
Si Si2 0.318987 0.792831 0.915310
Si Si3 0.760676 0.951246 0.920053
Si Si4 0.931841 0.456307 0.419000
Si Si5 0.672621 0.700493 0.082849
Si Si6 0.613277 0.400106 0.920556
Si Si7 0.500000 0.551727 0.574259
O O1 0.312109 0.882431 0.250000
O O2 0.391175 0.911844 0.064397
O O3 0.341280 0.832398 0.021813
O O4 0.279943 0.911097 0.990957
O O5 0.338033 0.799460 0.750000
O O6 0.245980 0.800434 0.918741
O O7 0.339485 0.742786 0.974104
O O8 0.746445 0.955475 0.750000
O O9 0.830008 0.934958 0.934206
O O10 0.751111 0.000000 0.000000
O O11 0.903879 0.500000 0.500000
O O12 0.934257 0.467735 0.250000
O O13 0.000000 0.449312 0.473083
O O14 0.655793 0.711229 0.250000
O O15 0.640386 0.651536 0.045020
O O16 0.595282 0.399342 0.750000
O O17 0.558617 0.419526 0.017278
O O18 0.500000 0.500000 0.500000
O O19 0.500000 0.547554 0.750000
#
# Coordination Sequence:
#
# PCOD9470826 Si02
#       7
#    16  16  16  16  16  16   8
#     4  11  21  33  53  80 109 145 183 227 278 329
#     4  10  19  33  54  84 116 145 179 224 275 329
#     4  11  22  36  53  80 114 146 181 225 277 335
#     4   9  19  35  53  74 102 139 183 223 262 316
#     4   9  18  35  57  83 111 144 181 221 273 333
#     4  10  21  40  62  83 112 149 190 233 283 341
#     4  12  26  42  62  88 116 152 198 244 293 346
#
# _framework density 17.659786
#
# number of rings (size 3 to 8) (size 9 to 14) (size 15 to 20)
#    0.000    1.846    1.538    3.000    0.000    6.154 
#    0.000    0.000    1.692    0.000    0.000    0.000 
#    0.000    0.000    0.000    0.000    0.000    0.000 
#
# Total GULP energy -290014.844773 kJ/mol
# GULP energy per Si atom -5577.208553 kJ/mol
# Density = 1.761959 g / cm^3
# Si number density = 17.659786 Si / 1000 Ang^3
#
#
#
# Elastic Constant Matrix: (Units=GPa)
#
#
# Indices 1 2 3 4 5 6 
#
# 1 45.3805 28.6132 48.4619 0.0000 0.0000 0.0000
# 2 28.6132 105.8429 57.8700 0.0000 0.0000 0.0000
# 3 48.4619 57.8700 97.2638 0.0000 0.0000 0.0000
# 4 0.0000 0.0000 0.0000 31.8062 0.0000 0.0000
# 5 0.0000 0.0000 0.0000 0.0000 23.1645 0.0000
# 6 0.0000 0.0000 0.0000 0.0000 0.0000 35.1744
#
#
#
# Elastic Compliance Matrix: (Units=1/GPa)
#
#
# Indices 1 2 3 4 5 6 
#
# 1 0.047095 0.000146 -0.023552 0.000000 0.000000 0.000000
# 2 0.000146 0.014004 -0.008405 0.000000 0.000000 0.000000
# 3 -0.023552 -0.008405 0.027017 0.000000 0.000000 0.000000
# 4 0.000000 0.000000 0.000000 0.031440 0.000000 0.000000
# 5 0.000000 0.000000 0.000000 0.000000 0.043170 0.000000
# 6 0.000000 0.000000 0.000000 0.000000 0.000000 0.028430
#
#
# Mechanical properties :
#
#
# Convention : Reuss Voigt Hill
#
# Bulk Modulus (GPa) = 40.82647 57.59747 49.21197
# Shear Modulus (GPa) = 19.01565 25.59851 22.30708
#
# Velocity S-wave (km/s) = 3.28499 3.81141 3.55795
# Velocity P-wave (km/s) = 6.12835 7.21491 6.69372
#
# Compressibility (1/GPa) = 0.02449391
#
# Stress axis : x y z
#
# Youngs Moduli (GPa) = 21.23365 71.40915 37.01433
#
# Poissons Ratio (x) = -0.01039 0.87175
# Poissons Ratio (y) = -0.00309 0.31109
# Poissons Ratio (z) = 0.50009 0.60016
#
# Static dielectric constant tensor:
#      x y z
#    x 1.537700 0.000000 0.000000 
#    y 0.000000 1.605310 0.000000 
#    z 0.000000 0.000000 1.596310 
# 
# From -- ./inp_files/8835.got.cif
#   From: 2010.05.17/outbox.cif.g08.bks.cpg/sg63_5_cif.got.tgz:8835.got - 2010.06.03 15:47:04.
