data_PCOD9470907
_publ_section_title
;
Structure prediction by ZEFSAII (Michael W. Deem and Ramdas Pophale) SiO2 
 PCOD9470907
Probable space group: C M C M
;
_chemical_formula_sum "Si O2"
_cell_formula_units_Z 96
_cell_length_a 14.234672
_cell_length_b 22.646451
_cell_length_c 15.050053
_cell_angle_alpha 90.000000
_cell_angle_beta 90.000000
_cell_angle_gamma 90.000000
_cell_volume 4851.607355
_symmetry_space_group_name_H-M "C M C M"
_symmetry_group_IT_number 63
_symmetry_cell_setting 'orthorhombic'
loop_
_space_group_symop_operation_xyz
x,y,z
-x,-y,1/2+z
x,-y,-z
-x,y,1/2-z
-x,-y,-z
x,y,1/2-z
-x,y,z
x,-y,1/2+z
1/2+x,1/2+y,z
1/2-x,1/2-y,1/2+z
1/2+x,1/2-y,-z
1/2-x,1/2+y,1/2-z
1/2-x,1/2-y,-z
1/2+x,1/2+y,1/2-z
1/2-x,1/2+y,z
1/2+x,1/2-y,1/2+z
loop_
_atom_site_type_symbol
_atom_site_label
_atom_site_fract_x
_atom_site_fract_y
_atom_site_fract_z
Si Si1 0.601013 0.272511 0.853411
Si Si2 0.897695 0.659976 0.984107
Si Si3 0.888353 0.942072 0.944668
Si Si4 0.812600 0.722247 0.355119
Si Si5 0.106411 0.050912 0.250000
Si Si6 0.803616 0.856817 0.422843
Si Si7 0.393145 0.589765 0.750000
O O1 0.602195 0.251787 0.750000
O O2 0.500000 0.304586 0.864554
O O3 0.704448 0.299602 0.864179
O O4 0.598875 0.217947 0.921042
O O5 0.878074 0.681524 0.084537
O O6 0.000000 0.630679 0.977081
O O7 0.803331 0.628630 0.950204
O O8 0.848622 0.934770 0.845070
O O9 0.000000 0.951890 0.934052
O O10 0.869446 0.883860 0.001538
O O11 0.853667 0.000000 0.000000
O O12 0.835424 0.726077 0.250000
O O13 0.814133 0.787333 0.400842
O O14 0.000000 0.076131 0.250000
O O15 0.099605 0.980285 0.250000
O O16 0.836856 0.889146 0.334779
O O17 0.500000 0.613967 0.750000
#
# Coordination Sequence:
#
# PCOD9470907 Si02
#       7
#    16  16  16  16   8  16   8
#     4   8  14  27  49  72  96 128 165 216 278 331
#     4  10  22  37  52  74 106 149 194 235 279 324
#     4  10  19  33  56  85 119 148 174 214 277 349
#     4  10  20  36  55  77 107 143 195 244 280 326
#     4   9  18  34  54  82 117 151 177 206 266 352
#     4  11  20  35  56  87 111 144 185 233 280 327
#     4  11  20  32  57  92 119 139 180 226 273 340
#
# _framework density 19.787257
#
# number of rings (size 3 to 8) (size 9 to 14) (size 15 to 20)
#    0.000    2.167    2.500    2.500    1.167    1.667 
#    1.500    1.667    1.833    0.500    0.000    0.000 
#    0.000    0.000    0.000    0.000    0.000    0.000 
#
# Total GULP energy -267583.294183 kJ/mol
# GULP energy per Si atom -5574.651962 kJ/mol
# Density = 1.974222 g / cm^3
# Si number density = 19.787257 Si / 1000 Ang^3
#
#
#
# Elastic Constant Matrix: (Units=GPa)
#
#
# Indices 1 2 3 4 5 6 
#
# 1 61.4876 4.3582 21.2160 0.0000 0.0000 0.0000
# 2 4.3582 51.6073 32.5438 0.0000 0.0000 0.0000
# 3 21.2160 32.5438 160.9179 0.0000 0.0000 0.0000
# 4 0.0000 0.0000 0.0000 7.4358 0.0000 0.0000
# 5 0.0000 0.0000 0.0000 0.0000 -20.5638 0.0000
# 6 0.0000 0.0000 0.0000 0.0000 0.0000 8.1664
#
#
#
# Elastic Compliance Matrix: (Units=1/GPa)
#
#
# Indices 1 2 3 4 5 6 
#
# 1 0.017039 -0.000026 -0.002241 0.000000 0.000000 0.000000
# 2 -0.000026 0.022210 -0.004488 0.000000 0.000000 0.000000
# 3 -0.002241 -0.004488 0.007418 0.000000 0.000000 0.000000
# 4 0.000000 0.000000 0.000000 0.134485 0.000000 0.000000
# 5 0.000000 0.000000 0.000000 0.000000 -0.048629 0.000000
# 6 0.000000 0.000000 0.000000 0.000000 0.000000 0.122454
#
#
# Mechanical properties :
#
#
# Convention : Reuss Voigt Hill
#
# Bulk Modulus (GPa) = 30.16084 43.36096 36.76090
# Shear Modulus (GPa) = 17.88674 13.40066 15.64370
#
# Velocity S-wave (km/s) = 3.00984 2.60520 2.81480
# Velocity P-wave (km/s) = 5.23015 5.56871 5.40209
#
# Compressibility (1/GPa) = 0.03315558
#
# Stress axis : x y z
#
# Youngs Moduli (GPa) = 58.69033 45.02558 134.81552
#
# Poissons Ratio (x) = 0.00115 0.30216
# Poissons Ratio (y) = 0.00150 0.60509
# Poissons Ratio (z) = 0.13154 0.20209
#
# Static dielectric constant tensor:
#      x y z
#    x 1.726910 0.000000 0.000000 
#    y 0.000000 1.700370 0.000000 
#    z 0.000000 0.000000 1.730180 
# 
# From -- ./inp_files/31980.got.cif
#   From: 2010.05.17/outbox.cif.g08.bks.cpg/sg63_16_cif.got.tgz:31980.got - 2010.06.03 15:47:04.
