data_PCOD9470232
_publ_section_title
;
Structure prediction by ZEFSAII (Michael W. Deem and Ramdas Pophale) SiO2 
 PCOD9470232
Probable space group: C M C M
;
_chemical_formula_sum "Si O2"
_cell_formula_units_Z 96
_cell_length_a 18.641373
_cell_length_b 11.273566
_cell_length_c 24.854123
_cell_angle_alpha 90.000000
_cell_angle_beta 90.000000
_cell_angle_gamma 90.000000
_cell_volume 5223.211977
_symmetry_space_group_name_H-M "C M C M"
_symmetry_group_IT_number 63
_symmetry_cell_setting 'orthorhombic'
loop_
_space_group_symop_operation_xyz
x,y,z
-x,-y,1/2+z
x,-y,-z
-x,y,1/2-z
-x,-y,-z
x,y,1/2-z
-x,y,z
x,-y,1/2+z
1/2+x,1/2+y,z
1/2-x,1/2-y,1/2+z
1/2+x,1/2-y,-z
1/2-x,1/2+y,1/2-z
1/2-x,1/2-y,-z
1/2+x,1/2+y,1/2-z
1/2-x,1/2+y,z
1/2+x,1/2-y,1/2+z
loop_
_atom_site_type_symbol
_atom_site_label
_atom_site_fract_x
_atom_site_fract_y
_atom_site_fract_z
Si Si1 0.343006 0.146511 0.545119
Si Si2 0.083543 0.394912 0.938193
Si Si3 0.641999 0.720042 0.637727
Si Si4 0.686346 0.547398 0.944643
Si Si5 0.697843 0.674643 0.130358
Si Si6 0.707547 0.380314 0.750000
Si Si7 0.319744 0.656282 0.750000
O O1 0.375555 0.174213 0.486602
O O2 0.258406 0.118579 0.538716
O O3 0.350657 0.242761 0.592126
O O4 0.381891 0.024982 0.561944
O O5 0.096844 0.331831 0.881399
O O6 0.000000 0.400798 0.950622
O O7 0.633090 0.622913 0.591554
O O8 0.725823 0.758795 0.635398
O O9 0.632957 0.666821 0.696439
O O10 0.710941 0.443058 0.904447
O O11 0.654616 0.500000 0.000000
O O12 0.672539 0.645258 0.191193
O O13 0.720166 0.525697 0.750000
O O14 0.770539 0.277693 0.750000
#
# Coordination Sequence:
#
# PCOD9470232 Si02
#       7
#    16  16  16  16  16   8   8
#     4  10  19  33  52  81 112 148 179 225 289 334
#     4  11  21  37  55  78 113 147 190 234 280 337
#     4  10  20  32  51  80 108 147 182 218 280 329
#     4  11  17  28  51  79 115 137 171 219 273 345
#     4  10  19  31  53  80 118 140 178 223 280 344
#     4  10  20  34  52  89 116 164 174 229 295 346
#     4  10  20  34  55  77 126 146 195 229 283 344
#
# _framework density 18.379496
#
# number of rings (size 3 to 8) (size 9 to 14) (size 15 to 20)
#    0.000    1.667    5.000    2.000    0.000    2.667 
#    0.000    0.417    0.000    5.500    0.000    1.750 
#    0.000    0.000    0.000    0.000    0.000    0.000 
#
# Total GULP energy -267215.500521 kJ/mol
# GULP energy per Si atom -5566.989594 kJ/mol
# Density = 1.833766 g / cm^3
# Si number density = 18.379496 Si / 1000 Ang^3
#
#
#
# Elastic Constant Matrix: (Units=GPa)
#
#
# Indices 1 2 3 4 5 6 
#
# 1 29.5152 5.9058 7.6579 0.0000 0.0000 0.0000
# 2 5.9058 60.7528 53.4786 0.0000 0.0000 0.0000
# 3 7.6579 53.4786 120.5975 0.0000 0.0000 0.0000
# 4 0.0000 0.0000 0.0000 31.4502 0.0000 0.0000
# 5 0.0000 0.0000 0.0000 0.0000 1.1966 0.0000
# 6 0.0000 0.0000 0.0000 0.0000 0.0000 -0.5622
#
#
#
# Elastic Compliance Matrix: (Units=1/GPa)
#
#
# Indices 1 2 3 4 5 6 
#
# 1 0.034651 -0.002348 -0.001159 0.000000 0.000000 0.000000
# 2 -0.002348 0.027159 -0.011894 0.000000 0.000000 0.000000
# 3 -0.001159 -0.011894 0.013640 0.000000 0.000000 0.000000
# 4 0.000000 0.000000 0.000000 0.031796 0.000000 0.000000
# 5 0.000000 0.000000 0.000000 0.000000 0.835714 0.000000
# 6 0.000000 0.000000 0.000000 0.000000 0.000000 -1.778712
#
#
# Mechanical properties :
#
#
# Convention : Reuss Voigt Hill
#
# Bulk Modulus (GPa) = 22.39790 38.32779 30.36284
# Shear Modulus (GPa) = -6.32858 16.00513 4.83827
#
# Velocity S-wave (km/s) = -1.85762 2.95416 1.62424
# Velocity P-wave (km/s) = 2.75895 5.70394 4.48033
#
# Compressibility (1/GPa) = 0.04464705
#
# Stress axis : x y z
#
# Youngs Moduli (GPa) = 28.85885 36.82085 73.31318
#
# Poissons Ratio (x) = 0.08646 0.08497
# Poissons Ratio (y) = 0.06777 0.87201
# Poissons Ratio (z) = 0.03345 0.43796
#
# Static dielectric constant tensor:
#      x y z
#    x 1.593170 0.000000 0.000000 
#    y 0.000000 1.725230 0.000000 
#    z 0.000000 0.000000 1.687650 
# 
# From -- ./inp_files/56609.got.cif
#   From: 2010.05.17/outbox.cif.g08.bks.cpg/sg63_29_cif.got.tgz:56609.got - 2010.06.03 15:47:04.
