data_PCOD9470327
_publ_section_title
;
Structure prediction by ZEFSAII (Michael W. Deem and Ramdas Pophale) SiO2 
 PCOD9470327
Probable space group: C M C M
;
_chemical_formula_sum "Si O2"
_cell_formula_units_Z 88
_cell_length_a 19.816710
_cell_length_b 27.953553
_cell_length_c 8.796149
_cell_angle_alpha 90.000000
_cell_angle_beta 90.000000
_cell_angle_gamma 90.000000
_cell_volume 4872.604337
_symmetry_space_group_name_H-M "C M C M"
_symmetry_group_IT_number 63
_symmetry_cell_setting 'orthorhombic'
loop_
_space_group_symop_operation_xyz
x,y,z
-x,-y,1/2+z
x,-y,-z
-x,y,1/2-z
-x,-y,-z
x,y,1/2-z
-x,y,z
x,-y,1/2+z
1/2+x,1/2+y,z
1/2-x,1/2-y,1/2+z
1/2+x,1/2-y,-z
1/2-x,1/2+y,1/2-z
1/2-x,1/2-y,-z
1/2+x,1/2+y,1/2-z
1/2-x,1/2+y,z
1/2+x,1/2-y,1/2+z
loop_
_atom_site_type_symbol
_atom_site_label
_atom_site_fract_x
_atom_site_fract_y
_atom_site_fract_z
Si Si1 0.688409 0.307135 0.424929
Si Si2 0.178248 0.346096 0.567570
Si Si3 0.274496 0.049831 0.432283
Si Si4 0.862439 0.084169 0.924848
Si Si5 0.076830 0.731465 0.435592
Si Si6 0.500000 0.552757 0.430664
O O1 0.703530 0.293385 0.250000
O O2 0.758552 0.313898 0.512746
O O3 0.656609 0.360060 0.424017
O O4 0.631375 0.271197 0.485722
O O5 0.180537 0.347024 0.750000
O O6 0.188202 0.401054 0.516236
O O7 0.109638 0.319493 0.521555
O O8 0.275912 0.047568 0.250000
O O9 0.197835 0.056988 0.489946
O O10 0.300886 0.000000 0.500000
O O11 0.866730 0.067341 0.750000
O O12 0.932843 0.077526 0.007806
O O13 0.075094 0.734072 0.250000
O O14 0.000000 0.738240 0.488655
O O15 0.500000 0.500000 0.500000
O O16 0.500000 0.551089 0.250000
#
# Coordination Sequence:
#
# PCOD9470327 Si02
#       6
#    16  16  16  16  16   8
#     4   9  18  31  52  76  99 132 167 202 242 292
#     4   9  18  32  51  75 102 131 164 207 250 292
#     4  10  19  32  50  72  97 125 163 206 252 298
#     4  10  20  33  49  71  98 127 164 205 247 294
#     4   9  17  30  51  77 103 132 167 204 244 294
#     4  12  24  36  48  64  92 132 170 208 253 294
#
# _framework density 18.060158000000001
#
# number of rings (size 3 to 8) (size 9 to 14) (size 15 to 20)
#    0.000    2.364    0.000    3.000    1.273    1.455 
#    0.000    0.000    0.000    2.182    0.000    0.000 
#    0.000    0.000    0.000    0.000    0.000    0.545 
#
# Total GULP energy -245395.663511 kJ/mol
# GULP energy per Si atom -5577.174171 kJ/mol
# Density = 1.801905 g / cm^3
# Si number density = 18.060158 Si / 1000 Ang^3
#
#
#
# Elastic Constant Matrix: (Units=GPa)
#
#
# Indices 1 2 3 4 5 6 
#
# 1 67.7504 40.9990 7.7864 0.0000 0.0000 0.0000
# 2 40.9990 97.2520 14.5612 0.0000 0.0000 0.0000
# 3 7.7864 14.5612 41.7793 0.0000 0.0000 0.0000
# 4 0.0000 0.0000 0.0000 15.9946 0.0000 0.0000
# 5 0.0000 0.0000 0.0000 0.0000 17.1280 0.0000
# 6 0.0000 0.0000 0.0000 0.0000 0.0000 8.5088
#
#
#
# Elastic Compliance Matrix: (Units=1/GPa)
#
#
# Indices 1 2 3 4 5 6 
#
# 1 0.019842 -0.008241 -0.000826 0.000000 0.000000 0.000000
# 2 -0.008241 0.014272 -0.003438 0.000000 0.000000 0.000000
# 3 -0.000826 -0.003438 0.025287 0.000000 0.000000 0.000000
# 4 0.000000 0.000000 0.000000 0.062521 0.000000 0.000000
# 5 0.000000 0.000000 0.000000 0.000000 0.058384 0.000000
# 6 0.000000 0.000000 0.000000 0.000000 0.000000 0.117525
#
#
# Mechanical properties :
#
#
# Convention : Reuss Voigt Hill
#
# Bulk Modulus (GPa) = 29.07732 37.05276 33.06504
# Shear Modulus (GPa) = 14.95638 17.88863 16.42251
#
# Velocity S-wave (km/s) = 2.88087 3.15064 3.01877
# Velocity P-wave (km/s) = 5.21547 5.81345 5.52256
#
# Compressibility (1/GPa) = 0.03439107
#
# Stress axis : x y z
#
# Youngs Moduli (GPa) = 50.39775 70.06891 39.54532
#
# Poissons Ratio (x) = 0.57746 0.03265
# Poissons Ratio (y) = 0.41534 0.13596
# Poissons Ratio (z) = 0.04161 0.24090
#
# Static dielectric constant tensor:
#      x y z
#    x 1.570270 0.000000 0.000000 
#    y 0.000000 1.649910 0.000000 
#    z 0.000000 0.000000 1.622020 
# 
# From -- ./inp_files/6787.got.cif
#   From: 2010.05.17/outbox.cif.g08.bks.cpg/sg63_4_cif.got.tgz:6787.got - 2010.06.03 15:47:04.
