data_PCOD9470390
_publ_section_title
;
Structure prediction by ZEFSAII (Michael W. Deem and Ramdas Pophale) SiO2 
 PCOD9470390
Probable space group: C M C M
;
_chemical_formula_sum "Si O2"
_cell_formula_units_Z 96
_cell_length_a 9.107548
_cell_length_b 32.608804
_cell_length_c 18.352459
_cell_angle_alpha 90.000000
_cell_angle_beta 90.000000
_cell_angle_gamma 90.000000
_cell_volume 5450.427934
_symmetry_space_group_name_H-M "C M C M"
_symmetry_group_IT_number 63
_symmetry_cell_setting 'orthorhombic'
loop_
_space_group_symop_operation_xyz
x,y,z
-x,-y,1/2+z
x,-y,-z
-x,y,1/2-z
-x,-y,-z
x,y,1/2-z
-x,y,z
x,-y,1/2+z
1/2+x,1/2+y,z
1/2-x,1/2-y,1/2+z
1/2+x,1/2-y,-z
1/2-x,1/2+y,1/2-z
1/2-x,1/2-y,-z
1/2+x,1/2+y,1/2-z
1/2-x,1/2+y,z
1/2+x,1/2-y,1/2+z
loop_
_atom_site_type_symbol
_atom_site_label
_atom_site_fract_x
_atom_site_fract_y
_atom_site_fract_z
Si Si1 0.675606 0.251320 0.920884
Si Si2 0.675989 0.161763 0.916311
Si Si3 0.669611 0.994427 0.161291
Si Si4 0.323991 0.913857 0.663483
Si Si5 0.176215 0.841041 0.575692
Si Si6 0.331339 0.412365 0.337879
O O1 0.500000 0.251244 0.930345
O O2 0.712866 0.207449 0.885367
O O3 0.713053 0.296139 0.889536
O O4 0.750000 0.250000 0.000000
O O5 0.500000 0.158719 0.923334
O O6 0.736965 0.125141 0.867825
O O7 0.750897 0.158367 0.995679
O O8 0.670897 0.994914 0.250000
O O9 0.500000 0.988420 0.139145
O O10 0.718391 0.040018 0.138742
O O11 0.766227 0.956083 0.137149
O O12 0.295832 0.910759 0.750000
O O13 0.500000 0.910249 0.652979
O O14 0.240691 0.878295 0.621568
O O15 0.000000 0.844218 0.569723
O O16 0.326419 0.412130 0.250000
O O17 0.500000 0.407958 0.361066
#
# Coordination Sequence:
#
# PCOD9470390 Si02
#       6
#    16  16  16  16  16  16
#     4   8  16  30  48  70  94 125 163 199 237 285
#     4  10  19  33  53  73  96 129 167 202 239 288
#     4   8  15  30  51  71  93 126 165 199 234 284
#     4   9  18  33  52  74 100 130 165 201 237 285
#     4  10  19  32  51  75 102 128 159 202 248 290
#     4  10  20  33  50  74 102 128 158 200 247 291
#
# _framework density 17.613295999999998
#
# number of rings (size 3 to 8) (size 9 to 14) (size 15 to 20)
#    0.000    2.833    0.000    2.500    0.000    3.333 
#    0.000    3.333    0.000   10.000    0.000    0.000 
#    0.000    0.000    0.000    0.000    0.000    0.000 
#
# Total GULP energy -267289.807112 kJ/mol
# GULP energy per Si atom -5568.537648 kJ/mol
# Density = 1.757321 g / cm^3
# Si number density = 17.613296 Si / 1000 Ang^3
#
#
#
# Elastic Constant Matrix: (Units=GPa)
#
#
# Indices 1 2 3 4 5 6 
#
# 1 58.3080 69.2143 21.6070 0.0000 0.0000 0.0000
# 2 69.2143 188.8118 33.2279 0.0000 0.0000 0.0000
# 3 21.6070 33.2279 12.8832 0.0000 0.0000 0.0000
# 4 0.0000 0.0000 0.0000 28.4591 0.0000 0.0000
# 5 0.0000 0.0000 0.0000 0.0000 23.3696 0.0000
# 6 0.0000 0.0000 0.0000 0.0000 0.0000 30.8795
#
#
#
# Elastic Compliance Matrix: (Units=1/GPa)
#
#
# Indices 1 2 3 4 5 6 
#
# 1 0.049247 -0.006441 -0.065981 0.000000 0.000000 0.000000
# 2 -0.006441 0.010541 -0.016383 0.000000 0.000000 0.000000
# 3 -0.065981 -0.016383 0.230535 0.000000 0.000000 0.000000
# 4 0.000000 0.000000 0.000000 0.035138 0.000000 0.000000
# 5 0.000000 0.000000 0.000000 0.000000 0.042791 0.000000
# 6 0.000000 0.000000 0.000000 0.000000 0.000000 0.032384
#
#
# Mechanical properties :
#
#
# Convention : Reuss Voigt Hill
#
# Bulk Modulus (GPa) = 8.87221 56.45571 32.66396
# Shear Modulus (GPa) = 8.11930 25.60524 16.86227
#
# Velocity S-wave (km/s) = 2.14936 3.81694 3.09748
# Velocity P-wave (km/s) = 3.34781 7.17968 5.60159
#
# Compressibility (1/GPa) = 0.11271150
#
# Stress axis : x y z
#
# Youngs Moduli (GPa) = 20.30597 94.87077 4.33773
#
# Poissons Ratio (x) = 0.61107 0.28621
# Poissons Ratio (y) = 0.13079 0.07107
# Poissons Ratio (z) = 1.33981 1.55430
#
# Static dielectric constant tensor:
#      x y z
#    x 1.588030 0.000000 0.000000 
#    y 0.000000 1.640520 0.000000 
#    z 0.000000 0.000000 1.584060 
# 
# From -- ./inp_files/51397.got.cif
#   From: 2010.05.17/outbox.cif.g08.bks.cpg/sg63_26_cif.got.tgz:51397.got - 2010.06.03 15:47:04.
