data_PCOD9470036
_publ_section_title
;
Structure prediction by ZEFSAII (Michael W. Deem and Ramdas Pophale) SiO2 
 PCOD9470036
Probable space group: C M C M
;
_chemical_formula_sum "Si O2"
_cell_formula_units_Z 128
_cell_length_a 17.577249
_cell_length_b 19.432078
_cell_length_c 22.520555
_cell_angle_alpha 90.000000
_cell_angle_beta 90.000000
_cell_angle_gamma 90.000000
_cell_volume 7692.176472
_symmetry_space_group_name_H-M "C M C M"
_symmetry_group_IT_number 63
_symmetry_cell_setting 'orthorhombic'
loop_
_space_group_symop_operation_xyz
x,y,z
-x,-y,1/2+z
x,-y,-z
-x,y,1/2-z
-x,-y,-z
x,y,1/2-z
-x,y,z
x,-y,1/2+z
1/2+x,1/2+y,z
1/2-x,1/2-y,1/2+z
1/2+x,1/2-y,-z
1/2-x,1/2+y,1/2-z
1/2-x,1/2-y,-z
1/2+x,1/2+y,1/2-z
1/2-x,1/2+y,z
1/2+x,1/2-y,1/2+z
loop_
_atom_site_type_symbol
_atom_site_label
_atom_site_fract_x
_atom_site_fract_y
_atom_site_fract_z
Si Si1 0.414386 0.323061 0.533854
Si Si2 0.675285 0.141794 0.682224
Si Si3 0.591716 0.323658 0.392675
Si Si4 0.583003 0.165303 0.571861
Si Si5 0.208495 0.269231 0.680497
Si Si6 0.799594 0.948767 0.119377
Si Si7 0.785605 0.105775 0.111551
Si Si8 0.300088 0.927295 0.005605
O O1 0.500000 0.352099 0.536868
O O2 0.393788 0.319365 0.463882
O O3 0.415393 0.245740 0.558321
O O4 0.357510 0.363500 0.576269
O O5 0.655018 0.130420 0.750000
O O6 0.603633 0.150136 0.639710
O O7 0.725734 0.211092 0.676852
O O8 0.730612 0.082095 0.658082
O O9 0.500000 0.320058 0.383153
O O10 0.639012 0.263454 0.358456
O O11 0.628917 0.397137 0.373163
O O12 0.500000 0.138328 0.555997
O O13 0.648620 0.130138 0.534376
O O14 0.186631 0.276178 0.750000
O O15 0.246658 0.339493 0.655934
O O16 0.770290 0.941651 0.050833
O O17 0.808107 0.029375 0.134128
O O18 0.725307 0.094384 0.059015
O O19 0.342266 0.000000 0.000000
#
# Coordination Sequence:
#
# PCOD9470036 Si02
#       8
#    16  16  16  16  16  16  16  16
#     4  10  20  31  50  82 113 140 172 214 270 329
#     4   9  18  34  52  71  96 131 180 227 262 312
#     4  10  20  35  55  81 113 147 180 220 272 328
#     4  10  19  31  48  74 104 133 171 219 269 318
#     4  10  21  35  54  77 100 140 190 228 265 313
#     4   9  19  32  51  80 107 137 177 218 265 323
#     4  11  19  33  55  76 110 146 173 220 271 318
#     4   9  18  31  49  75 103 138 172 209 264 319
#
# _framework density 16.640284000000001
#
# number of rings (size 3 to 8) (size 9 to 14) (size 15 to 20)
#    0.000    2.250    2.500    0.750    0.000    2.750 
#    0.000    1.250    0.000    3.375    0.000    7.000 
#    0.000    0.000    0.000    0.000    0.000    0.000 
#
# Total GULP energy -356370.301676 kJ/mol
# GULP energy per Si atom -5568.285964 kJ/mol
# Density = 1.660241 g / cm^3
# Si number density = 16.640284 Si / 1000 Ang^3
#
#
#
# Elastic Constant Matrix: (Units=GPa)
#
#
# Indices 1 2 3 4 5 6 
#
# 1 62.6442 38.2344 19.9086 0.0000 0.0000 0.0000
# 2 38.2344 103.9730 39.5554 0.0000 0.0000 0.0000
# 3 19.9086 39.5554 64.1245 0.0000 0.0000 0.0000
# 4 0.0000 0.0000 0.0000 16.0415 0.0000 0.0000
# 5 0.0000 0.0000 0.0000 0.0000 -0.7635 0.0000
# 6 0.0000 0.0000 0.0000 0.0000 0.0000 -7.2529
#
#
#
# Elastic Compliance Matrix: (Units=1/GPa)
#
#
# Indices 1 2 3 4 5 6 
#
# 1 0.020834 -0.006795 -0.002277 0.000000 0.000000 0.000000
# 2 -0.006795 0.014783 -0.007009 0.000000 0.000000 0.000000
# 3 -0.002277 -0.007009 0.020625 0.000000 0.000000 0.000000
# 4 0.000000 0.000000 0.000000 0.062338 0.000000 0.000000
# 5 0.000000 0.000000 0.000000 0.000000 -1.309676 0.000000
# 6 0.000000 0.000000 0.000000 0.000000 0.000000 -0.137875
#
#
# Mechanical properties :
#
#
# Convention : Reuss Voigt Hill
#
# Bulk Modulus (GPa) = 41.52817 47.34873 44.43845
# Shear Modulus (GPa) = -3.87964 10.47457 3.29747
#
# Velocity S-wave (km/s) = -1.52857 2.51165 1.40923
# Velocity P-wave (km/s) = 4.67923 6.07678 5.42321
#
# Compressibility (1/GPa) = 0.02408004
#
# Stress axis : x y z
#
# Youngs Moduli (GPa) = 47.99810 67.64337 48.48418
#
# Poissons Ratio (x) = 0.45966 0.11038
# Poissons Ratio (y) = 0.32616 0.33985
# Poissons Ratio (z) = 0.10927 0.47414
#
# Static dielectric constant tensor:
#      x y z
#    x 1.556230 0.000000 0.000000 
#    y 0.000000 1.569680 0.000000 
#    z 0.000000 0.000000 1.564360 
# 
# From -- ./inp_files/64089.got.cif
#   From: 2010.05.17/outbox.cif.g08.bks.cpg/sg63_33_cif.got.tgz:64089.got - 2010.06.03 15:47:04.
