data_PCOD9470167
_publ_section_title
;
Structure prediction by ZEFSAII (Michael W. Deem and Ramdas Pophale) SiO2 
 PCOD9470167
Probable space group: C M C M
;
_chemical_formula_sum "Si O2"
_cell_formula_units_Z 56
_cell_length_a 24.062673
_cell_length_b 14.382268
_cell_length_c 7.596436
_cell_angle_alpha 90.000000
_cell_angle_beta 90.000000
_cell_angle_gamma 90.000000
_cell_volume 2628.942756
_symmetry_space_group_name_H-M "C M C M"
_symmetry_group_IT_number 63
_symmetry_cell_setting 'orthorhombic'
loop_
_space_group_symop_operation_xyz
x,y,z
-x,-y,1/2+z
x,-y,-z
-x,y,1/2-z
-x,-y,-z
x,y,1/2-z
-x,y,z
x,-y,1/2+z
1/2+x,1/2+y,z
1/2-x,1/2-y,1/2+z
1/2+x,1/2-y,-z
1/2-x,1/2+y,1/2-z
1/2-x,1/2-y,-z
1/2+x,1/2+y,1/2-z
1/2-x,1/2+y,z
1/2+x,1/2-y,1/2+z
loop_
_atom_site_type_symbol
_atom_site_label
_atom_site_fract_x
_atom_site_fract_y
_atom_site_fract_z
Si Si1 0.850515 0.901089 0.959258
Si Si2 0.614766 0.192783 0.040946
Si Si3 0.000000 0.390870 0.961848
Si Si4 0.267245 0.144360 0.460621
O O1 0.846819 0.892670 0.750000
O O2 0.787276 0.906051 0.034749
O O3 0.877574 0.804084 0.019335
O O4 0.878551 0.000000 0.000000
O O5 0.614901 0.175512 0.250000
O O6 0.556555 0.156009 0.969049
O O7 0.669743 0.139067 0.969720
O O8 0.000000 0.378242 0.750000
O O9 0.000000 0.500000 0.000000
O O10 0.269613 0.128178 0.250000
O O11 0.250000 0.250000 0.500000
#
# Coordination Sequence:
#
# PCOD9470167 Si02
#       4
#    16  16   8  16
#     4  10  19  31  50  78 107 137 170 207 254 308
#     4   9  18  35  54  74 103 137 172 213 254 297
#     4  10  22  38  57  78 101 132 171 212 256 302
#     4   8  15  28  47  70  98 130 164 201 245 292
#
# _framework density 21.301338999999999
#
# number of rings (size 3 to 8) (size 9 to 14) (size 15 to 20)
#    0.000    2.857    0.000    0.857    0.000    3.429 
#    0.000    0.714    0.000    0.000    0.000    0.000 
#    0.000    0.000    0.000    0.000    0.000    0.000 
#
# Total GULP energy -155892.958927 kJ/mol
# GULP energy per Si atom -5567.605676 kJ/mol
# Density = 2.125286 g / cm^3
# Si number density = 21.301339 Si / 1000 Ang^3
#
#
#
# Elastic Constant Matrix: (Units=GPa)
#
#
# Indices 1 2 3 4 5 6 
#
# 1 175.3925 61.6937 10.3211 0.0000 0.0000 0.0000
# 2 61.6937 108.4118 -23.2876 0.0000 0.0000 0.0000
# 3 10.3211 -23.2876 55.0261 0.0000 0.0000 0.0000
# 4 0.0000 0.0000 0.0000 20.1487 0.0000 0.0000
# 5 0.0000 0.0000 0.0000 0.0000 5.6597 0.0000
# 6 0.0000 0.0000 0.0000 0.0000 0.0000 17.9515
#
#
#
# Elastic Compliance Matrix: (Units=1/GPa)
#
#
# Indices 1 2 3 4 5 6 
#
# 1 0.007741 -0.005189 -0.003648 0.000000 0.000000 0.000000
# 2 -0.005189 0.013625 0.006739 0.000000 0.000000 0.000000
# 3 -0.003648 0.006739 0.021710 0.000000 0.000000 0.000000
# 4 0.000000 0.000000 0.000000 0.049631 0.000000 0.000000
# 5 0.000000 0.000000 0.000000 0.000000 0.176687 0.000000
# 6 0.000000 0.000000 0.000000 0.000000 0.000000 0.055706
#
#
# Mechanical properties :
#
#
# Convention : Reuss Voigt Hill
#
# Bulk Modulus (GPa) = 25.72001 48.47610 37.09806
# Shear Modulus (GPa) = 14.60900 28.09220 21.35060
#
# Velocity S-wave (km/s) = 2.62167 3.63547 3.16937
# Velocity P-wave (km/s) = 4.61137 6.35837 5.55399
#
# Compressibility (1/GPa) = 0.03888023
#
# Stress axis : x y z
#
# Youngs Moduli (GPa) = 129.17584 73.39642 46.06256
#
# Poissons Ratio (x) = 0.38085 0.16804
# Poissons Ratio (y) = 0.67029 -0.31043
# Poissons Ratio (z) = 0.47124 -0.49465
#
# Static dielectric constant tensor:
#      x y z
#    x 1.831910 0.000000 0.000000 
#    y 0.000000 1.757710 0.000000 
#    z 0.000000 0.000000 1.781620 
# 
# From -- ./inp_files/7288.got.cif
#   From: 2010.05.17/outbox.cif.g08.bks.cpg/sg63_4_cif.got.tgz:7288.got - 2010.06.03 15:47:04.
