data_PCOD9470282
_publ_section_title
;
Structure prediction by ZEFSAII (Michael W. Deem and Ramdas Pophale) SiO2 
 PCOD9470282
Probable space group: C M C M
;
_chemical_formula_sum "Si O2"
_cell_formula_units_Z 112
_cell_length_a 25.594508
_cell_length_b 13.244425
_cell_length_c 14.430560
_cell_angle_alpha 90.000000
_cell_angle_beta 90.000000
_cell_angle_gamma 90.000000
_cell_volume 4891.736767
_symmetry_space_group_name_H-M "C M C M"
_symmetry_group_IT_number 63
_symmetry_cell_setting 'orthorhombic'
loop_
_space_group_symop_operation_xyz
x,y,z
-x,-y,1/2+z
x,-y,-z
-x,y,1/2-z
-x,-y,-z
x,y,1/2-z
-x,y,z
x,-y,1/2+z
1/2+x,1/2+y,z
1/2-x,1/2-y,1/2+z
1/2+x,1/2-y,-z
1/2-x,1/2+y,1/2-z
1/2-x,1/2-y,-z
1/2+x,1/2+y,1/2-z
1/2-x,1/2+y,z
1/2+x,1/2-y,1/2+z
loop_
_atom_site_type_symbol
_atom_site_label
_atom_site_fract_x
_atom_site_fract_y
_atom_site_fract_z
Si Si1 0.586557 0.752792 0.467160
Si Si2 0.796232 0.303304 0.057442
Si Si3 0.728849 0.618147 0.353072
Si Si4 0.881205 0.942619 0.862242
Si Si5 0.440551 0.352680 0.354501
Si Si6 0.671335 0.013236 0.138550
Si Si7 0.057520 0.544175 0.861999
O O1 0.647421 0.776311 0.482147
O O2 0.586202 0.648259 0.408516
O O3 0.562879 0.731942 0.567455
O O4 0.563275 0.846103 0.409801
O O5 0.788832 0.233664 0.148777
O O6 0.800541 0.417170 0.091830
O O7 0.750000 0.250000 0.000000
O O8 0.730845 0.575589 0.250000
O O9 0.678820 0.563928 0.398062
O O10 0.787933 0.601298 0.388071
O O11 0.881801 0.928472 0.750000
O O12 0.904407 0.052706 0.880635
O O13 0.426973 0.317550 0.250000
O O14 0.500000 0.390404 0.352073
O O15 0.669151 0.003322 0.250000
O O16 0.610279 0.016663 0.109986
O O17 0.058947 0.555557 0.750000
O O18 0.000000 0.501213 0.885570
#
# Coordination Sequence:
#
# PCOD9470282 Si02
#       7
#    16  16  16  16  16  16  16
#     4  10  19  32  49  70 102 139 177 218 272 324
#     4  10  21  33  49  79 109 137 178 226 269 321
#     4   9  18  34  55  76 106 145 179 216 271 332
#     4   9  18  31  48  71 100 135 175 218 266 323
#     4  10  21  34  46  66  98 137 185 227 257 308
#     4   9  18  33  53  77 109 145 177 220 275 329
#     4   9  17  30  51  80 109 136 172 222 280 334
#
# _framework density 22.895754
#
# number of rings (size 3 to 8) (size 9 to 14) (size 15 to 20)
#    0.000    2.571    0.000    1.714    2.000    5.714 
#    0.000    2.143    0.000    0.000    0.000    9.000 
#    0.000    2.286    0.000    0.000    0.000    0.857 
#
# Total GULP energy -312264.372796 kJ/mol
# GULP energy per Si atom -5576.149514 kJ/mol
# Density = 2.284364 g / cm^3
# Si number density = 22.895754 Si / 1000 Ang^3
#
#
#
# Elastic Constant Matrix: (Units=GPa)
#
#
# Indices 1 2 3 4 5 6 
#
# 1 141.0924 31.1349 14.0160 0.0000 0.0000 0.0000
# 2 31.1349 47.2607 6.5052 0.0000 0.0000 0.0000
# 3 14.0160 6.5052 71.1318 0.0000 0.0000 0.0000
# 4 0.0000 0.0000 0.0000 21.0652 0.0000 0.0000
# 5 0.0000 0.0000 0.0000 0.0000 21.3726 0.0000
# 6 0.0000 0.0000 0.0000 0.0000 0.0000 9.4409
#
#
#
# Elastic Compliance Matrix: (Units=1/GPa)
#
#
# Indices 1 2 3 4 5 6 
#
# 1 0.008387 -0.005365 -0.001162 0.000000 0.000000 0.000000
# 2 -0.005365 0.024861 -0.001216 0.000000 0.000000 0.000000
# 3 -0.001162 -0.001216 0.014399 0.000000 0.000000 0.000000
# 4 0.000000 0.000000 0.000000 0.047472 0.000000 0.000000
# 5 0.000000 0.000000 0.000000 0.000000 0.046789 0.000000
# 6 0.000000 0.000000 0.000000 0.000000 0.000000 0.105923
#
#
# Mechanical properties :
#
#
# Convention : Reuss Voigt Hill
#
# Bulk Modulus (GPa) = 31.09503 40.31081 35.70292
# Shear Modulus (GPa) = 18.24571 24.23099 21.23835
#
# Velocity S-wave (km/s) = 2.82601 3.25671 3.04897
# Velocity P-wave (km/s) = 4.92535 5.63791 5.29363
#
# Compressibility (1/GPa) = 0.03215948
#
# Stress axis : x y z
#
# Youngs Moduli (GPa) = 119.23297 40.22320 69.45122
#
# Poissons Ratio (x) = 0.21581 0.08070
# Poissons Ratio (y) = 0.63972 0.08448
# Poissons Ratio (z) = 0.13854 0.04893
#
# Static dielectric constant tensor:
#      x y z
#    x 1.890670 0.000000 0.000000 
#    y 0.000000 1.851790 0.000000 
#    z 0.000000 0.000000 1.979390 
# 
# From -- ./inp_files/36938.got.cif
#   From: 2010.05.17/outbox.cif.g08.bks.cpg/sg63_19_cif.got.tgz:36938.got - 2010.06.03 15:47:04.
