data_PCOD9470074
_publ_section_title
;
Structure prediction by ZEFSAII (Michael W. Deem and Ramdas Pophale) SiO2 
 PCOD9470074
Probable space group: C M C M
;
_chemical_formula_sum "Si O2"
_cell_formula_units_Z 80
_cell_length_a 14.029191
_cell_length_b 18.963461
_cell_length_c 15.373446
_cell_angle_alpha 90.000000
_cell_angle_beta 90.000000
_cell_angle_gamma 90.000000
_cell_volume 4089.982573
_symmetry_space_group_name_H-M "C M C M"
_symmetry_group_IT_number 63
_symmetry_cell_setting 'orthorhombic'
loop_
_space_group_symop_operation_xyz
x,y,z
-x,-y,1/2+z
x,-y,-z
-x,y,1/2-z
-x,-y,-z
x,y,1/2-z
-x,y,z
x,-y,1/2+z
1/2+x,1/2+y,z
1/2-x,1/2-y,1/2+z
1/2+x,1/2-y,-z
1/2-x,1/2+y,1/2-z
1/2-x,1/2-y,-z
1/2+x,1/2+y,1/2-z
1/2-x,1/2+y,z
1/2+x,1/2-y,1/2+z
loop_
_atom_site_type_symbol
_atom_site_label
_atom_site_fract_x
_atom_site_fract_y
_atom_site_fract_z
Si Si1 0.109530 0.403991 0.855542
Si Si2 0.218195 0.735839 0.400819
Si Si3 0.213485 0.006378 0.150478
Si Si4 0.106790 0.849182 0.878813
Si Si5 0.608907 0.370988 0.413334
O O1 0.116338 0.398099 0.750000
O O2 0.146103 0.330109 0.894530
O O3 0.184784 0.464297 0.882127
O O4 0.000000 0.418028 0.878287
O O5 0.250000 0.750000 0.500000
O O6 0.314256 0.708775 0.354335
O O7 0.165597 0.806267 0.369694
O O8 0.224992 0.982261 0.250000
O O9 0.166032 0.943270 0.098240
O O10 0.145009 0.074668 0.150166
O O11 0.000000 0.834864 0.849019
O O12 0.104377 0.854040 0.983960
O O13 0.500000 0.377581 0.381259
#
# Coordination Sequence:
#
# PCOD9470074 Si02
#       5
#    16  16  16  16  16
#     4   9  18  34  54  73  98 136 176 210 248 299
#     4   9  18  32  51  74 101 129 165 210 252 297
#     4  10  20  32  49  74 100 127 163 206 248 292
#     4   9  18  33  51  69  95 133 167 196 240 296
#     4  10  19  31  49  73 101 130 159 201 254 296
#
# _framework density 19.559985999999999
#
# number of rings (size 3 to 8) (size 9 to 14) (size 15 to 20)
#    0.000    2.600    0.000    1.800    0.000    4.800 
#    0.000    1.000    0.000   16.800    0.000    0.000 
#    0.000    0.000    0.000    0.000    0.000    0.000 
#
# Total GULP energy -223120.496046 kJ/mol
# GULP energy per Si atom -5578.012401 kJ/mol
# Density = 1.951547 g / cm^3
# Si number density = 19.559986 Si / 1000 Ang^3
#
#
#
# Elastic Constant Matrix: (Units=GPa)
#
#
# Indices 1 2 3 4 5 6 
#
# 1 204.5197 96.3794 20.3094 0.0000 0.0000 0.0000
# 2 96.3794 128.9474 17.5136 0.0000 0.0000 0.0000
# 3 20.3094 17.5136 37.0236 0.0000 0.0000 0.0000
# 4 0.0000 0.0000 0.0000 -29.6631 0.0000 0.0000
# 5 0.0000 0.0000 0.0000 0.0000 16.1804 0.0000
# 6 0.0000 0.0000 0.0000 0.0000 0.0000 15.8179
#
#
#
# Elastic Compliance Matrix: (Units=1/GPa)
#
#
# Indices 1 2 3 4 5 6 
#
# 1 0.007635 -0.005490 -0.001591 0.000000 0.000000 0.000000
# 2 -0.005490 0.012236 -0.002776 0.000000 0.000000 0.000000
# 3 -0.001591 -0.002776 0.029196 0.000000 0.000000 0.000000
# 4 0.000000 0.000000 0.000000 -0.033712 0.000000 0.000000
# 5 0.000000 0.000000 0.000000 0.000000 0.061803 0.000000
# 6 0.000000 0.000000 0.000000 0.000000 0.000000 0.063219
#
#
# Mechanical properties :
#
#
# Convention : Reuss Voigt Hill
#
# Bulk Modulus (GPa) = 34.07006 70.98840 52.52923
# Shear Modulus (GPa) = 29.43321 16.21960 22.82640
#
# Velocity S-wave (km/s) = 3.88334 2.88275 3.41984
# Velocity P-wave (km/s) = 6.12888 6.88852 6.51978
#
# Compressibility (1/GPa) = 0.02935129
#
# Stress axis : x y z
#
# Youngs Moduli (GPa) = 130.97831 81.72666 34.25153
#
# Poissons Ratio (x) = 0.44872 0.05449
# Poissons Ratio (y) = 0.71913 0.09509
# Poissons Ratio (z) = 0.20838 0.22689
#
# Static dielectric constant tensor:
#      x y z
#    x 1.705020 0.000000 0.000000 
#    y 0.000000 1.651060 0.000000 
#    z 0.000000 0.000000 1.703390 
# 
# From -- ./inp_files/43955.got.cif
#   From: 2010.05.17/outbox.cif.g08.bks.cpg/sg63_22_cif.got.tgz:43955.got - 2010.06.03 15:47:04.
