data_PCOD9470497
_publ_section_title
;
Structure prediction by ZEFSAII (Michael W. Deem and Ramdas Pophale) SiO2 
 PCOD9470497
Probable space group: C M C M
;
_chemical_formula_sum "Si O2"
_cell_formula_units_Z 100
_cell_length_a 7.556342
_cell_length_b 32.828057
_cell_length_c 20.656158
_cell_angle_alpha 90.000000
_cell_angle_beta 90.000000
_cell_angle_gamma 90.000000
_cell_volume 5123.967088
_symmetry_space_group_name_H-M "C M C M"
_symmetry_group_IT_number 63
_symmetry_cell_setting 'orthorhombic'
loop_
_space_group_symop_operation_xyz
x,y,z
-x,-y,1/2+z
x,-y,-z
-x,y,1/2-z
-x,-y,-z
x,y,1/2-z
-x,y,z
x,-y,1/2+z
1/2+x,1/2+y,z
1/2-x,1/2-y,1/2+z
1/2+x,1/2-y,-z
1/2-x,1/2+y,1/2-z
1/2-x,1/2-y,-z
1/2+x,1/2+y,1/2-z
1/2-x,1/2+y,z
1/2+x,1/2-y,1/2+z
loop_
_atom_site_type_symbol
_atom_site_label
_atom_site_fract_x
_atom_site_fract_y
_atom_site_fract_z
Si Si1 0.706775 0.684448 0.678534
Si Si2 0.204025 0.579687 0.144008
Si Si3 0.289580 0.095679 0.871045
Si Si4 0.787633 0.209339 0.539567
Si Si5 0.000000 0.899904 0.750000
Si Si6 0.214023 0.491574 0.176558
Si Si7 0.711255 0.623523 0.013218
O O1 0.784261 0.692570 0.750000
O O2 0.500000 0.695672 0.681857
O O3 0.715930 0.636039 0.663576
O O4 0.781149 0.706190 0.613793
O O5 0.343681 0.598446 0.193597
O O6 0.257301 0.531907 0.136330
O O7 0.210066 0.602667 0.076000
O O8 0.000000 0.580265 0.168097
O O9 0.500000 0.097127 0.860114
O O10 0.220139 0.052399 0.845926
O O11 0.252746 0.099726 0.947116
O O12 0.750000 0.250000 0.500000
O O13 0.724046 0.169526 0.500723
O O14 0.000000 0.205277 0.544429
O O15 0.273349 0.499905 0.250000
O O16 0.000000 0.488467 0.176616
O O17 0.500000 0.624589 0.021620
#
# Coordination Sequence:
#
# PCOD9470497 Si02
#       7
#    16  16  16  16   4  16  16
#     4   9  18  34  53  78 111 146 181 229 284 344
#     4  11  22  39  61  83 113 154 196 242 292 341
#     4  10  19  32  52  80 112 148 186 234 285 334
#     4   9  19  35  59  83 111 144 183 233 288 351
#     4  12  22  40  60  88 112 152 200 244 292 338
#     4   9  18  33  51  74 109 150 194 236 282 333
#     4  10  21  39  56  82 114 145 187 238 285 345
#
# _framework density 19.516127999999998
#
# number of rings (size 3 to 8) (size 9 to 14) (size 15 to 20)
#    0.000    2.240    1.600    2.640    0.000    4.800 
#    2.880    3.200    1.760    0.000    0.000    0.000 
#    0.000    0.000    0.000    0.000    0.000    0.000 
#
# Total GULP energy -278354.893149 kJ/mol
# GULP energy per Si atom -5567.097863 kJ/mol
# Density = 1.947171 g / cm^3
# Si number density = 19.516128 Si / 1000 Ang^3
#
#
#
# Elastic Constant Matrix: (Units=GPa)
#
#
# Indices 1 2 3 4 5 6 
#
# 1 65.1151 -6.7933 -5.6859 0.0000 0.0000 0.0000
# 2 -6.7933 97.8987 75.8546 0.0000 0.0000 0.0000
# 3 -5.6859 75.8546 132.8632 0.0000 0.0000 0.0000
# 4 0.0000 0.0000 0.0000 -18.7980 0.0000 0.0000
# 5 0.0000 0.0000 0.0000 0.0000 22.5477 0.0000
# 6 0.0000 0.0000 0.0000 0.0000 0.0000 13.9773
#
#
#
# Elastic Compliance Matrix: (Units=1/GPa)
#
#
# Indices 1 2 3 4 5 6 
#
# 1 0.015470 0.001005 0.000088 0.000000 0.000000 0.000000
# 2 0.001005 0.018383 -0.010452 0.000000 0.000000 0.000000
# 3 0.000088 -0.010452 0.013498 0.000000 0.000000 0.000000
# 4 0.000000 0.000000 0.000000 -0.053197 0.000000 0.000000
# 5 0.000000 0.000000 0.000000 0.000000 0.044350 0.000000
# 6 0.000000 0.000000 0.000000 0.000000 0.000000 0.071545
#
#
# Mechanical properties :
#
#
# Convention : Reuss Voigt Hill
#
# Bulk Modulus (GPa) = 34.92485 46.95863 40.94174
# Shear Modulus (GPa) = 36.15037 19.04550 27.59794
#
# Velocity S-wave (km/s) = 4.30854 3.12731 3.76454
# Velocity P-wave (km/s) = 6.53342 6.09539 6.31820
#
# Compressibility (1/GPa) = 0.02863291
#
# Stress axis : x y z
#
# Youngs Moduli (GPa) = 64.64134 54.39770 74.08628
#
# Poissons Ratio (x) = -0.05468 -0.00653
# Poissons Ratio (y) = -0.06497 0.77437
# Poissons Ratio (z) = -0.00570 0.56858
#
# Static dielectric constant tensor:
#      x y z
#    x 1.732240 0.000000 0.000000 
#    y 0.000000 1.688230 0.000000 
#    z 0.000000 0.000000 1.678480 
# 
# From -- ./inp_files/51677.got.cif
#   From: 2010.05.17/outbox.cif.g08.bks.cpg/sg63_26_cif.got.tgz:51677.got - 2010.06.03 15:47:04.
