data_PCOD9470790
_publ_section_title
;
Structure prediction by ZEFSAII (Michael W. Deem and Ramdas Pophale) SiO2 
 PCOD9470790
Probable space group: C M C M
;
_chemical_formula_sum "Si O2"
_cell_formula_units_Z 112
_cell_length_a 31.090569
_cell_length_b 12.737252
_cell_length_c 15.397418
_cell_angle_alpha 90.000000
_cell_angle_beta 90.000000
_cell_angle_gamma 90.000000
_cell_volume 6097.507054
_symmetry_space_group_name_H-M "C M C M"
_symmetry_group_IT_number 63
_symmetry_cell_setting 'orthorhombic'
loop_
_space_group_symop_operation_xyz
x,y,z
-x,-y,1/2+z
x,-y,-z
-x,y,1/2-z
-x,-y,-z
x,y,1/2-z
-x,y,z
x,-y,1/2+z
1/2+x,1/2+y,z
1/2-x,1/2-y,1/2+z
1/2+x,1/2-y,-z
1/2-x,1/2+y,1/2-z
1/2-x,1/2-y,-z
1/2+x,1/2+y,1/2-z
1/2-x,1/2+y,z
1/2+x,1/2-y,1/2+z
loop_
_atom_site_type_symbol
_atom_site_label
_atom_site_fract_x
_atom_site_fract_y
_atom_site_fract_z
Si Si1 0.049037 0.435551 0.644320
Si Si2 0.303477 0.419333 0.847327
Si Si3 0.329607 0.242252 0.518915
Si Si4 0.875096 0.075154 0.579346
Si Si5 0.788390 0.433397 0.913258
Si Si6 0.867814 0.566511 0.646834
Si Si7 0.452250 0.302795 0.146798
O O1 0.049403 0.436106 0.750000
O O2 0.086611 0.515800 0.619487
O O3 0.058689 0.315766 0.615130
O O4 0.000000 0.461837 0.617403
O O5 0.313949 0.384923 0.750000
O O6 0.308154 0.325055 0.915619
O O7 0.336187 0.513487 0.872794
O O8 0.253394 0.448249 0.854585
O O9 0.358950 0.315268 0.459541
O O10 0.298438 0.180891 0.452778
O O11 0.354327 0.159279 0.580850
O O12 0.917319 0.107985 0.630635
O O13 0.887212 0.000000 0.500000
O O14 0.830877 0.478478 0.867076
O O15 0.779999 0.500000 0.000000
O O16 0.869012 0.595584 0.750000
O O17 0.455200 0.291655 0.250000
O O18 0.500000 0.329208 0.112926
#
# Coordination Sequence:
#
# PCOD9470790 Si02
#       7
#    16  16  16  16  16  16  16
#     4   8  15  29  51  78 105 131 163 208 258 306
#     4  11  22  37  55  76 102 136 181 222 257 305
#     4  10  21  36  53  75 108 143 171 211 266 316
#     4  10  21  36  53  75 105 140 177 218 266 313
#     4  10  20  35  54  76 106 137 168 211 264 314
#     4  10  19  33  54  79 106 138 176 213 254 310
#     4   9  17  32  55  80 104 134 175 221 266 312
#
# _framework density 18.368162999999999
#
# number of rings (size 3 to 8) (size 9 to 14) (size 15 to 20)
#    0.000    2.286    0.000    4.714    0.000    1.429 
#    0.000    5.714    0.000    6.429    0.000    8.000 
#    0.000    0.000    0.000    0.000    0.000    0.000 
#
# Total GULP energy -311991.936855 kJ/mol
# GULP energy per Si atom -5571.284587 kJ/mol
# Density = 1.832636 g / cm^3
# Si number density = 18.368163 Si / 1000 Ang^3
#
#
#
# Elastic Constant Matrix: (Units=GPa)
#
#
# Indices 1 2 3 4 5 6 
#
# 1 113.3068 53.9442 6.8603 0.0000 0.0000 0.0000
# 2 53.9442 67.5689 10.0382 0.0000 0.0000 0.0000
# 3 6.8603 10.0382 35.4711 0.0000 0.0000 0.0000
# 4 0.0000 0.0000 0.0000 -17.2069 0.0000 0.0000
# 5 0.0000 0.0000 0.0000 0.0000 23.3271 0.0000
# 6 0.0000 0.0000 0.0000 0.0000 0.0000 -72.2307
#
#
#
# Elastic Compliance Matrix: (Units=1/GPa)
#
#
# Indices 1 2 3 4 5 6 
#
# 1 0.014245 -0.011444 0.000484 0.000000 0.000000 0.000000
# 2 -0.011444 0.024644 -0.004761 0.000000 0.000000 0.000000
# 3 0.000484 -0.004761 0.029446 0.000000 0.000000 0.000000
# 4 0.000000 0.000000 0.000000 -0.058116 0.000000 0.000000
# 5 0.000000 0.000000 0.000000 0.000000 0.042869 0.000000
# 6 0.000000 0.000000 0.000000 0.000000 0.000000 -0.013845
#
#
# Mechanical properties :
#
#
# Convention : Reuss Voigt Hill
#
# Bulk Modulus (GPa) = 27.10652 39.78136 33.44394
# Shear Modulus (GPa) = 60.25407 -3.52184 28.36611
#
# Velocity S-wave (km/s) = 5.73365 -1.38619 3.93403
# Velocity P-wave (km/s) = 7.65652 4.37524 6.23559
#
# Compressibility (1/GPa) = 0.03689150
#
# Stress axis : x y z
#
# Youngs Moduli (GPa) = 70.20074 40.57838 33.96088
#
# Poissons Ratio (x) = 0.46439 -0.01643
# Poissons Ratio (y) = 0.80340 0.16168
# Poissons Ratio (z) = -0.03395 0.19318
#
# Static dielectric constant tensor:
#      x y z
#    x 1.660260 0.000000 0.000000 
#    y 0.000000 1.706710 0.000000 
#    z 0.000000 0.000000 1.633850 
# 
# From -- ./inp_files/38530.got.cif
#   From: 2010.05.17/outbox.cif.g08.bks.cpg/sg63_20_cif.got.tgz:38530.got - 2010.06.03 15:47:04.
