data_PCOD9470365
_publ_section_title
;
Structure prediction by ZEFSAII (Michael W. Deem and Ramdas Pophale) SiO2 
 PCOD9470365
Probable space group: C M C M
;
_chemical_formula_sum "Si O2"
_cell_formula_units_Z 112
_cell_length_a 7.325689
_cell_length_b 23.888113
_cell_length_c 25.652027
_cell_angle_alpha 90.000000
_cell_angle_beta 90.000000
_cell_angle_gamma 90.000000
_cell_volume 4489.024861
_symmetry_space_group_name_H-M "C M C M"
_symmetry_group_IT_number 63
_symmetry_cell_setting 'orthorhombic'
loop_
_space_group_symop_operation_xyz
x,y,z
-x,-y,1/2+z
x,-y,-z
-x,y,1/2-z
-x,-y,-z
x,y,1/2-z
-x,y,z
x,-y,1/2+z
1/2+x,1/2+y,z
1/2-x,1/2-y,1/2+z
1/2+x,1/2-y,-z
1/2-x,1/2+y,1/2-z
1/2-x,1/2-y,-z
1/2+x,1/2+y,1/2-z
1/2-x,1/2+y,z
1/2+x,1/2-y,1/2+z
loop_
_atom_site_type_symbol
_atom_site_label
_atom_site_fract_x
_atom_site_fract_y
_atom_site_fract_z
Si Si1 0.278540 0.058810 0.028493
Si Si2 0.717834 0.417936 0.138724
Si Si3 0.202505 0.236619 0.398427
Si Si4 0.218233 0.187619 0.805396
Si Si5 0.776256 0.844943 0.690968
Si Si6 0.209935 0.340190 0.040191
Si Si7 0.210506 0.959580 0.851423
O O1 0.500000 0.059376 0.025815
O O2 0.218057 0.056989 0.087944
O O3 0.213590 0.117904 0.003680
O O4 0.221861 0.000000 0.000000
O O5 0.500000 0.422444 0.129016
O O6 0.746150 0.377931 0.187538
O O7 0.788538 0.383299 0.089200
O O8 0.794277 0.478881 0.148634
O O9 0.186917 0.281231 0.351726
O O10 0.286434 0.187307 0.362329
O O11 0.287090 0.279000 0.442214
O O12 0.000000 0.218981 0.416287
O O13 0.283611 0.207077 0.750000
O O14 0.000000 0.197590 0.809998
O O15 0.721069 0.827115 0.750000
O O16 0.716789 0.908861 0.682547
O O17 0.000000 0.841554 0.689387
O O18 0.000000 0.328132 0.026338
O O19 0.000000 0.965835 0.834687
#
# Coordination Sequence:
#
# PCOD9470365 Si02
#       7
#    16  16  16  16  16  16  16
#     4  10  19  32  51  73 101 135 164 195 246 303
#     4   9  17  28  43  66  95 124 155 194 240 286
#     4   9  17  31  52  72  92 122 165 208 241 282
#     4   9  17  28  43  66  95 122 151 195 249 295
#     4   9  18  33  52  73  98 130 167 206 246 287
#     4   9  17  30  49  73  96 124 160 199 243 291
#     4  10  20  32  49  74 100 129 167 204 237 287
#
# _framework density 24.949739999999998
#
# number of rings (size 3 to 8) (size 9 to 14) (size 15 to 20)
#    0.000    2.714    1.429    0.429    0.000    2.286 
#    0.000    4.286    0.000    1.286    0.000    2.000 
#    0.000    0.000    0.000    0.000    0.000    0.000 
#
# Total GULP energy -312084.473551 kJ/mol
# GULP energy per Si atom -5572.937028 kJ/mol
# Density = 2.489295 g / cm^3
# Si number density = 24.949740 Si / 1000 Ang^3
#
#
#
# Elastic Constant Matrix: (Units=GPa)
#
#
# Indices 1 2 3 4 5 6 
#
# 1 94.2388 4.9163 -1.8582 0.0000 0.0000 0.0000
# 2 4.9163 118.2839 31.8256 0.0000 0.0000 0.0000
# 3 -1.8582 31.8256 51.5387 0.0000 0.0000 0.0000
# 4 0.0000 0.0000 0.0000 -26.1021 0.0000 0.0000
# 5 0.0000 0.0000 0.0000 0.0000 12.6549 0.0000
# 6 0.0000 0.0000 0.0000 0.0000 0.0000 4.1219
#
#
#
# Elastic Compliance Matrix: (Units=1/GPa)
#
#
# Indices 1 2 3 4 5 6 
#
# 1 0.010661 -0.000655 0.000789 0.000000 0.000000 0.000000
# 2 -0.000655 0.010179 -0.006309 0.000000 0.000000 0.000000
# 3 0.000789 -0.006309 0.023327 0.000000 0.000000 0.000000
# 4 0.000000 0.000000 0.000000 -0.038311 0.000000 0.000000
# 5 0.000000 0.000000 0.000000 0.000000 0.079021 0.000000
# 6 0.000000 0.000000 0.000000 0.000000 0.000000 0.242607
#
#
# Mechanical properties :
#
#
# Convention : Reuss Voigt Hill
#
# Bulk Modulus (GPa) = 31.43041 37.09210 34.26125
# Shear Modulus (GPa) = 14.26772 13.41342 13.84057
#
# Velocity S-wave (km/s) = 2.39395 2.32117 2.35784
# Velocity P-wave (km/s) = 4.50180 4.69923 4.60157
#
# Compressibility (1/GPa) = 0.03181632
#
# Stress axis : x y z
#
# Youngs Moduli (GPa) = 93.79898 98.24081 42.86805
#
# Poissons Ratio (x) = 0.06439 -0.03383
# Poissons Ratio (y) = 0.06148 0.27047
# Poissons Ratio (z) = -0.07402 0.61983
#
# Static dielectric constant tensor:
#      x y z
#    x 1.984700 0.000000 0.000000 
#    y 0.000000 2.038770 0.000000 
#    z 0.000000 0.000000 4.790310 
# 
# From -- ./inp_files/61774.got.cif
#   From: 2010.05.17/outbox.cif.g08.bks.cpg/sg63_31_cif.got.tgz:61774.got - 2010.06.03 15:47:04.
