data_PCOD9470539
_publ_section_title
;
Structure prediction by ZEFSAII (Michael W. Deem and Ramdas Pophale) SiO2 
 PCOD9470539
Probable space group: C M C M
;
_chemical_formula_sum "Si O2"
_cell_formula_units_Z 80
_cell_length_a 12.493622
_cell_length_b 19.690108
_cell_length_c 19.566869
_cell_angle_alpha 90.000000
_cell_angle_beta 90.000000
_cell_angle_gamma 90.000000
_cell_volume 4813.464772
_symmetry_space_group_name_H-M "C M C M"
_symmetry_group_IT_number 63
_symmetry_cell_setting 'orthorhombic'
loop_
_space_group_symop_operation_xyz
x,y,z
-x,-y,1/2+z
x,-y,-z
-x,y,1/2-z
-x,-y,-z
x,y,1/2-z
-x,y,z
x,-y,1/2+z
1/2+x,1/2+y,z
1/2-x,1/2-y,1/2+z
1/2+x,1/2-y,-z
1/2-x,1/2+y,1/2-z
1/2-x,1/2-y,-z
1/2+x,1/2+y,1/2-z
1/2-x,1/2+y,z
1/2+x,1/2-y,1/2+z
loop_
_atom_site_type_symbol
_atom_site_label
_atom_site_fract_x
_atom_site_fract_y
_atom_site_fract_z
Si Si1 0.372713 0.675686 0.544350
Si Si2 0.872645 0.023398 0.576502
Si Si3 0.500000 0.996019 0.385520
Si Si4 0.712094 0.942489 0.670104
Si Si5 0.197344 0.680080 0.067662
Si Si6 0.000000 0.388093 0.497140
O O1 0.500000 0.680150 0.534007
O O2 0.350835 0.603794 0.580385
O O3 0.309176 0.675881 0.472611
O O4 0.331047 0.742112 0.583791
O O5 0.000000 0.012109 0.582265
O O6 0.839238 0.000000 0.500000
O O7 0.807831 0.980952 0.631547
O O8 0.500000 0.923482 0.423350
O O9 0.605993 0.012444 0.342989
O O10 0.500000 0.051351 0.447011
O O11 0.731041 0.933638 0.750000
O O12 0.695653 0.870764 0.631295
O O13 0.105741 0.654914 0.014379
#
# Coordination Sequence:
#
# PCOD9470539 Si02
#       6
#    16  16   8  16  16   8
#     4  10  19  33  55  83 110 137 180 234 280 320
#     4  10  20  36  58  82 111 144 186 236 276 322
#     4   9  19  30  52  78 108 146 179 227 277 330
#     4  11  22  36  54  80 116 151 187 225 281 346
#     4  10  19  32  53  82 110 140 182 231 280 327
#     4   9  16  30  52  80 105 134 183 233 273 319
#
# _framework density 16.620045999999999
#
# number of rings (size 3 to 8) (size 9 to 14) (size 15 to 20)
#    0.000    2.000    3.000    1.500    2.800    0.400 
#    0.000    1.000    0.000    1.200    0.000    0.000 
#    0.000    0.000    0.000    0.000    0.000    0.000 
#
# Total GULP energy -223101.950881 kJ/mol
# GULP energy per Si atom -5577.548772 kJ/mol
# Density = 1.658222 g / cm^3
# Si number density = 16.620046 Si / 1000 Ang^3
#
#
#
# Elastic Constant Matrix: (Units=GPa)
#
#
# Indices 1 2 3 4 5 6 
#
# 1 63.8041 38.8679 44.7377 0.0000 0.0000 0.0000
# 2 38.8679 126.4055 59.8338 0.0000 0.0000 0.0000
# 3 44.7377 59.8338 110.7040 0.0000 0.0000 0.0000
# 4 0.0000 0.0000 0.0000 17.1123 0.0000 0.0000
# 5 0.0000 0.0000 0.0000 0.0000 2.1030 0.0000
# 6 0.0000 0.0000 0.0000 0.0000 0.0000 21.9405
#
#
#
# Elastic Compliance Matrix: (Units=1/GPa)
#
#
# Indices 1 2 3 4 5 6 
#
# 1 0.023025 -0.003595 -0.007362 0.000000 0.000000 0.000000
# 2 -0.003595 0.011192 -0.004596 0.000000 0.000000 0.000000
# 3 -0.007362 -0.004596 0.014492 0.000000 0.000000 0.000000
# 4 0.000000 0.000000 0.000000 0.058437 0.000000 0.000000
# 5 0.000000 0.000000 0.000000 0.000000 0.475506 0.000000
# 6 0.000000 0.000000 0.000000 0.000000 0.000000 0.045578
#
#
# Mechanical properties :
#
#
# Convention : Reuss Voigt Hill
#
# Bulk Modulus (GPa) = 56.80837 65.31027 61.05932
# Shear Modulus (GPa) = 7.51649 18.72946 13.12297
#
# Velocity S-wave (km/s) = 2.12893 3.36060 2.81301
# Velocity P-wave (km/s) = 6.34807 7.37832 6.88250
#
# Compressibility (1/GPa) = 0.01760304
#
# Stress axis : x y z
#
# Youngs Moduli (GPa) = 43.43134 89.34813 69.00202
#
# Poissons Ratio (x) = 0.32122 0.50797
# Poissons Ratio (y) = 0.15614 0.31716
# Poissons Ratio (z) = 0.31973 0.41067
#
# Static dielectric constant tensor:
#      x y z
#    x 1.574680 0.000000 0.000000 
#    y 0.000000 1.589130 0.000000 
#    z 0.000000 0.000000 1.519480 
# 
# From -- ./inp_files/52482.got.cif
#   From: 2010.05.17/outbox.cif.g08.bks.cpg/sg63_27_cif.got.tgz:52482.got - 2010.06.03 15:47:04.
