data_PCOD9470459
_publ_section_title
;
Structure prediction by ZEFSAII (Michael W. Deem and Ramdas Pophale) SiO2 
 PCOD9470459
Probable space group: C M C M
;
_chemical_formula_sum "Si O2"
_cell_formula_units_Z 96
_cell_length_a 13.429014
_cell_length_b 13.526900
_cell_length_c 28.556135
_cell_angle_alpha 90.000000
_cell_angle_beta 90.000000
_cell_angle_gamma 90.000000
_cell_volume 5187.305577
_symmetry_space_group_name_H-M "C M C M"
_symmetry_group_IT_number 63
_symmetry_cell_setting 'orthorhombic'
loop_
_space_group_symop_operation_xyz
x,y,z
-x,-y,1/2+z
x,-y,-z
-x,y,1/2-z
-x,-y,-z
x,y,1/2-z
-x,y,z
x,-y,1/2+z
1/2+x,1/2+y,z
1/2-x,1/2-y,1/2+z
1/2+x,1/2-y,-z
1/2-x,1/2+y,1/2-z
1/2-x,1/2-y,-z
1/2+x,1/2+y,1/2-z
1/2-x,1/2+y,z
1/2+x,1/2-y,1/2+z
loop_
_atom_site_type_symbol
_atom_site_label
_atom_site_fract_x
_atom_site_fract_y
_atom_site_fract_z
Si Si1 0.804524 0.116674 0.496072
Si Si2 0.880116 0.945781 0.150401
Si Si3 0.885453 0.144371 0.103205
Si Si4 0.802542 0.273968 0.648456
Si Si5 0.616854 0.795331 0.950758
Si Si6 0.384503 0.777626 0.750000
Si Si7 0.385773 0.536559 0.750000
O O1 0.862276 0.161129 0.451036
O O2 0.688945 0.138636 0.483518
O O3 0.844374 0.183269 0.538729
O O4 0.822597 0.000000 0.500000
O O5 0.826677 0.842241 0.145441
O O6 0.844413 0.992783 0.199865
O O7 0.000000 0.926379 0.153405
O O8 0.863969 0.028179 0.111769
O O9 0.811432 0.204564 0.136069
O O10 0.000000 0.162642 0.114295
O O11 0.861881 0.319616 0.603919
O O12 0.834624 0.307266 0.700561
O O13 0.500000 0.803103 0.960454
O O14 0.500000 0.808189 0.750000
O O15 0.384172 0.656798 0.750000
O O16 0.500000 0.502237 0.750000
#
# Coordination Sequence:
#
# PCOD9470459 Si02
#       7
#    16  16  16  16  16   8   8
#     4  10  21  35  52  76 104 136 173 210 253 305
#     4   9  16  29  50  72  96 128 165 209 255 299
#     4  10  21  34  50  75 105 136 172 212 256 305
#     4  10  19  32  52  77 103 131 170 213 255 303
#     4  10  20  34  53  76 103 134 169 211 256 303
#     4   9  16  29  51  77 102 130 165 210 259 303
#     4   7  12  23  42  69  94 118 156 200 244 293
#
# _framework density 18.506717999999999
#
# number of rings (size 3 to 8) (size 9 to 14) (size 15 to 20)
#    0.000    2.500    0.000    4.000    0.000    3.667 
#    0.000    1.250    0.000   12.000    0.000    0.000 
#    0.000    0.000    0.000    0.000    0.000    0.000 
#
# Total GULP energy -267384.661700 kJ/mol
# GULP energy per Si atom -5570.513785 kJ/mol
# Density = 1.846460 g / cm^3
# Si number density = 18.506718 Si / 1000 Ang^3
#
#
#
# Elastic Constant Matrix: (Units=GPa)
#
#
# Indices 1 2 3 4 5 6 
#
# 1 113.4117 18.9741 36.4970 0.0000 0.0000 0.0000
# 2 18.9741 39.1535 3.5689 0.0000 0.0000 0.0000
# 3 36.4970 3.5689 110.0784 0.0000 0.0000 0.0000
# 4 0.0000 0.0000 0.0000 16.1559 0.0000 0.0000
# 5 0.0000 0.0000 0.0000 0.0000 9.2735 0.0000
# 6 0.0000 0.0000 0.0000 0.0000 0.0000 19.8596
#
#
#
# Elastic Compliance Matrix: (Units=1/GPa)
#
#
# Indices 1 2 3 4 5 6 
#
# 1 0.010729 -0.004890 -0.003399 0.000000 0.000000 0.000000
# 2 -0.004890 0.027845 0.000718 0.000000 0.000000 0.000000
# 3 -0.003399 0.000718 0.010188 0.000000 0.000000 0.000000
# 4 0.000000 0.000000 0.000000 0.061897 0.000000 0.000000
# 5 0.000000 0.000000 0.000000 0.000000 0.107835 0.000000
# 6 0.000000 0.000000 0.000000 0.000000 0.000000 0.050353
#
#
# Mechanical properties :
#
#
# Convention : Reuss Voigt Hill
#
# Bulk Modulus (GPa) = 29.74260 42.30263 36.02262
# Shear Modulus (GPa) = 16.93801 22.63137 19.78469
#
# Velocity S-wave (km/s) = 3.02857 3.50075 3.27319
# Velocity P-wave (km/s) = 5.32314 6.26482 5.81308
#
# Compressibility (1/GPa) = 0.03362180
#
# Stress axis : x y z
#
# Youngs Moduli (GPa) = 93.20303 35.91357 98.15438
#
# Poissons Ratio (x) = 0.17561 0.33361
# Poissons Ratio (y) = 0.45573 -0.07052
# Poissons Ratio (z) = 0.31678 -0.02580
#
# Static dielectric constant tensor:
#      x y z
#    x 1.632290 0.000000 0.000000 
#    y 0.000000 1.623550 0.000000 
#    z 0.000000 0.000000 1.755890 
# 
# From -- ./inp_files/72790.got.cif
#   From: 2010.05.17/outbox.cif.g08.bks.cpg/sg63_37_cif.got.tgz:72790.got - 2010.06.03 15:47:04.
