data_PCOD9470619
_publ_section_title
;
Structure prediction by ZEFSAII (Michael W. Deem and Ramdas Pophale) SiO2 
 PCOD9470619
Probable space group: C M C M
;
_chemical_formula_sum "Si O2"
_cell_formula_units_Z 88
_cell_length_a 12.358102
_cell_length_b 17.410661
_cell_length_c 25.512258
_cell_angle_alpha 90.000000
_cell_angle_beta 90.000000
_cell_angle_gamma 90.000000
_cell_volume 5489.286940
_symmetry_space_group_name_H-M "C M C M"
_symmetry_group_IT_number 63
_symmetry_cell_setting 'orthorhombic'
loop_
_space_group_symop_operation_xyz
x,y,z
-x,-y,1/2+z
x,-y,-z
-x,y,1/2-z
-x,-y,-z
x,y,1/2-z
-x,y,z
x,-y,1/2+z
1/2+x,1/2+y,z
1/2-x,1/2-y,1/2+z
1/2+x,1/2-y,-z
1/2-x,1/2+y,1/2-z
1/2-x,1/2-y,-z
1/2+x,1/2+y,1/2-z
1/2-x,1/2+y,z
1/2+x,1/2-y,1/2+z
loop_
_atom_site_type_symbol
_atom_site_label
_atom_site_fract_x
_atom_site_fract_y
_atom_site_fract_z
Si Si1 0.123885 0.217744 0.250000
Si Si2 0.871456 0.191719 0.850954
Si Si3 0.256141 0.869978 0.250000
Si Si4 0.371018 0.965766 0.750000
Si Si5 0.869773 0.920626 0.568544
Si Si6 0.727620 0.855388 0.662782
Si Si7 0.371199 0.398127 0.048144
O O1 0.146810 0.308327 0.250000
O O2 0.181353 0.180935 0.200175
O O3 0.000000 0.199392 0.250000
O O4 0.814301 0.150901 0.801457
O O5 0.847448 0.282515 0.850693
O O6 0.828700 0.154976 0.905222
O O7 0.000000 0.178746 0.846774
O O8 0.303002 0.955366 0.250000
O O9 0.500000 0.978728 0.750000
O O10 0.336514 0.916612 0.801412
O O11 0.791151 0.890420 0.613629
O O12 0.835411 0.886675 0.511801
O O13 0.000000 0.906375 0.577294
O O14 0.856702 0.012652 0.563257
O O15 0.500000 0.385388 0.046123
#
# Coordination Sequence:
#
# PCOD9470619 Si02
#       7
#     8  16   8   8  16  16  16
#     4   9  18  32  45  66  94 120 153 199 237 277
#     4  10  19  33  49  72 100 126 159 200 238 288
#     4  10  20  32  52  70  88 126 164 190 238 286
#     4  11  22  36  49  70  98 124 157 195 233 289
#     4   9  16  30  49  73  99 126 163 208 241 279
#     4  10  20  30  49  72  96 130 160 188 243 291
#     4   8  16  29  48  69  96 129 162 202 248 278
#
# _framework density 16.031226
#
# number of rings (size 3 to 8) (size 9 to 14) (size 15 to 20)
#    0.000    2.545    0.000    4.364    0.000    0.727 
#    0.000    4.545    0.000    0.000    0.000   25.455 
#    0.000    0.000    0.000    0.000    0.000    0.000 
#
# Total GULP energy -245059.270170 kJ/mol
# GULP energy per Si atom -5569.528867 kJ/mol
# Density = 1.599474 g / cm^3
# Si number density = 16.031226 Si / 1000 Ang^3
#
#
#
# Elastic Constant Matrix: (Units=GPa)
#
#
# Indices 1 2 3 4 5 6 
#
# 1 59.5070 24.5036 30.0386 0.0000 0.0000 0.0000
# 2 24.5036 83.7875 53.6606 0.0000 0.0000 0.0000
# 3 30.0386 53.6606 139.3058 0.0000 0.0000 0.0000
# 4 0.0000 0.0000 0.0000 154.6739 0.0000 0.0000
# 5 0.0000 0.0000 0.0000 0.0000 25.8136 0.0000
# 6 0.0000 0.0000 0.0000 0.0000 0.0000 15.6992
#
#
#
# Elastic Compliance Matrix: (Units=1/GPa)
#
#
# Indices 1 2 3 4 5 6 
#
# 1 0.019849 -0.004067 -0.002713 0.000000 0.000000 0.000000
# 2 -0.004067 0.016677 -0.005547 0.000000 0.000000 0.000000
# 3 -0.002713 -0.005547 0.009900 0.000000 0.000000 0.000000
# 4 0.000000 0.000000 0.000000 0.006465 0.000000 0.000000
# 5 0.000000 0.000000 0.000000 0.000000 0.038739 0.000000
# 6 0.000000 0.000000 0.000000 0.000000 0.000000 0.063697
#
#
# Mechanical properties :
#
#
# Convention : Reuss Voigt Hill
#
# Bulk Modulus (GPa) = 45.93194 55.44507 50.68850
# Shear Modulus (GPa) = 26.70368 50.86386 38.78377
#
# Velocity S-wave (km/s) = 4.08576 5.63887 4.92394
# Velocity P-wave (km/s) = 7.13945 8.77819 8.00088
#
# Compressibility (1/GPa) = 0.02177134
#
# Stress axis : x y z
#
# Youngs Moduli (GPa) = 50.37984 59.96345 101.00774
#
# Poissons Ratio (x) = 0.24388 0.27408
# Poissons Ratio (y) = 0.20490 0.56028
# Poissons Ratio (z) = 0.13670 0.33261
#
# Static dielectric constant tensor:
#      x y z
#    x 1.504600 0.000000 0.000000 
#    y 0.000000 1.534490 0.000000 
#    z 0.000000 0.000000 1.554930 
# 
# From -- ./inp_files/61277.got.cif
#   From: 2010.05.17/outbox.cif.g08.bks.cpg/sg63_31_cif.got.tgz:61277.got - 2010.06.03 15:47:04.
