data_PCOD9470724
_publ_section_title
;
Structure prediction by ZEFSAII (Michael W. Deem and Ramdas Pophale) SiO2 
 PCOD9470724
Probable space group: C M C M
;
_chemical_formula_sum "Si O2"
_cell_formula_units_Z 96
_cell_length_a 7.408290
_cell_length_b 28.165814
_cell_length_c 20.699420
_cell_angle_alpha 90.000000
_cell_angle_beta 90.000000
_cell_angle_gamma 90.000000
_cell_volume 4319.151704
_symmetry_space_group_name_H-M "C M C M"
_symmetry_group_IT_number 63
_symmetry_cell_setting 'orthorhombic'
loop_
_space_group_symop_operation_xyz
x,y,z
-x,-y,1/2+z
x,-y,-z
-x,y,1/2-z
-x,-y,-z
x,y,1/2-z
-x,y,z
x,-y,1/2+z
1/2+x,1/2+y,z
1/2-x,1/2-y,1/2+z
1/2+x,1/2-y,-z
1/2-x,1/2+y,1/2-z
1/2-x,1/2-y,-z
1/2+x,1/2+y,1/2-z
1/2-x,1/2+y,z
1/2+x,1/2-y,1/2+z
loop_
_atom_site_type_symbol
_atom_site_label
_atom_site_fract_x
_atom_site_fract_y
_atom_site_fract_z
Si Si1 0.279575 0.308658 0.322677
Si Si2 0.710586 0.095895 0.250000
Si Si3 0.289580 0.052569 0.005854
Si Si4 0.215550 0.732872 0.427515
Si Si5 0.777964 0.372096 0.889728
Si Si6 0.218242 0.085849 0.862943
Si Si7 0.718223 0.484425 0.250000
O O1 0.224969 0.295995 0.250000
O O2 0.500000 0.308889 0.323830
O O3 0.216148 0.271251 0.375858
O O4 0.222969 0.362305 0.339118
O O5 0.500000 0.109019 0.250000
O O6 0.783639 0.116220 0.317210
O O7 0.723676 0.038849 0.250000
O O8 0.500000 0.046145 0.023087
O O9 0.277474 0.076321 0.935742
O O10 0.215342 0.087241 0.060724
O O11 0.208469 0.000000 0.000000
O O12 0.250000 0.750000 0.500000
O O13 0.281319 0.679732 0.413439
O O14 0.000000 0.731192 0.419250
O O15 0.000000 0.372484 0.890467
O O16 0.278083 0.044868 0.813312
O O17 0.000000 0.085551 0.862219
O O18 0.500000 0.484289 0.250000
#
# Coordination Sequence:
#
# PCOD9470724 Si02
#       7
#    16   8  16  16  16  16   8
#     4   9  17  31  53  79 103 132 172 214 256 306
#     4  10  20  36  57  77 101 137 180 216 251 306
#     4  10  20  34  51  73 105 141 173 211 259 306
#     4  10  20  34  55  80 106 136 171 213 260 308
#     4   9  19  34  53  79 106 134 173 219 259 300
#     4  10  19  33  53  76 103 134 171 215 258 304
#     4  10  20  34  51  75 107 137 168 216 267 302
#
# _framework density 22.226586999999999
#
# number of rings (size 3 to 8) (size 9 to 14) (size 15 to 20)
#    0.000    2.333    0.833    2.000    1.167    2.333 
#    0.000    1.667    0.000    1.500    0.000    0.000 
#    0.000    0.000    0.000    0.000    0.000    0.000 
#
# Total GULP energy -268332.967526 kJ/mol
# GULP energy per Si atom -5590.270157 kJ/mol
# Density = 2.217600 g / cm^3
# Si number density = 22.226587 Si / 1000 Ang^3
#
#
#
# Elastic Constant Matrix: (Units=GPa)
#
#
# Indices 1 2 3 4 5 6 
#
# 1 70.5170 0.8403 -9.6882 0.0000 0.0000 0.0000
# 2 0.8403 191.4060 123.9135 0.0000 0.0000 0.0000
# 3 -9.6882 123.9135 222.1510 0.0000 0.0000 0.0000
# 4 0.0000 0.0000 0.0000 47.0685 0.0000 0.0000
# 5 0.0000 0.0000 0.0000 0.0000 7.6606 0.0000
# 6 0.0000 0.0000 0.0000 0.0000 0.0000 -3.8127
#
#
#
# Elastic Compliance Matrix: (Units=1/GPa)
#
#
# Indices 1 2 3 4 5 6 
#
# 1 0.014332 -0.000732 0.001033 0.000000 0.000000 0.000000
# 2 -0.000732 0.008215 -0.004614 0.000000 0.000000 0.000000
# 3 0.001033 -0.004614 0.007120 0.000000 0.000000 0.000000
# 4 0.000000 0.000000 0.000000 0.021246 0.000000 0.000000
# 5 0.000000 0.000000 0.000000 0.000000 0.130538 0.000000
# 6 0.000000 0.000000 0.000000 0.000000 0.000000 -0.262282
#
#
# Mechanical properties :
#
#
# Convention : Reuss Voigt Hill
#
# Bulk Modulus (GPa) = 47.52553 79.35614 63.44083
# Shear Modulus (GPa) = -76.69567 34.78384 -20.95591
#
# Velocity S-wave (km/s) = -5.88058 3.96026 -3.07389
# Velocity P-wave (km/s) = 4.96785 7.52943 4.00080
#
# Compressibility (1/GPa) = 0.02104132
#
# Stress axis : x y z
#
# Youngs Moduli (GPa) = 69.77567 121.73211 140.44638
#
# Poissons Ratio (x) = 0.08908 -0.14511
# Poissons Ratio (y) = 0.05106 0.64802
# Poissons Ratio (z) = -0.07209 0.56167
#
# Static dielectric constant tensor:
#      x y z
#    x 1.860180 0.000000 0.000000 
#    y 0.000000 1.778240 0.000000 
#    z 0.000000 0.000000 1.758160 
# 
# From -- ./inp_files/42725.got.cif
#   From: 2010.05.17/outbox.cif.g08.bks.cpg/sg63_22_cif.got.tgz:42725.got - 2010.06.03 15:47:04.
