data_PCOD9470228
_publ_section_title
;
Structure prediction by ZEFSAII (Michael W. Deem and Ramdas Pophale) SiO2 
 PCOD9470228
Probable space group: C M C M
;
_chemical_formula_sum "Si O2"
_cell_formula_units_Z 104
_cell_length_a 21.803058
_cell_length_b 26.953373
_cell_length_c 9.221241
_cell_angle_alpha 90.000000
_cell_angle_beta 90.000000
_cell_angle_gamma 90.000000
_cell_volume 5419.009397
_symmetry_space_group_name_H-M "C M C M"
_symmetry_group_IT_number 63
_symmetry_cell_setting 'orthorhombic'
loop_
_space_group_symop_operation_xyz
x,y,z
-x,-y,1/2+z
x,-y,-z
-x,y,1/2-z
-x,-y,-z
x,y,1/2-z
-x,y,z
x,-y,1/2+z
1/2+x,1/2+y,z
1/2-x,1/2-y,1/2+z
1/2+x,1/2-y,-z
1/2-x,1/2+y,1/2-z
1/2-x,1/2-y,-z
1/2+x,1/2+y,1/2-z
1/2-x,1/2+y,z
1/2+x,1/2-y,1/2+z
loop_
_atom_site_type_symbol
_atom_site_label
_atom_site_fract_x
_atom_site_fract_y
_atom_site_fract_z
Si Si1 0.899320 0.114234 0.420357
Si Si2 0.758181 0.202342 0.592457
Si Si3 0.500000 0.448049 0.421131
Si Si4 0.776479 0.948883 0.577131
Si Si5 0.072897 0.326729 0.922300
Si Si6 0.098477 0.788949 0.413799
Si Si7 0.175164 0.389081 0.074876
O O1 0.912641 0.107341 0.250000
O O2 0.829441 0.093549 0.441607
O O3 0.918620 0.170204 0.467287
O O4 0.940714 0.080928 0.523416
O O5 0.731552 0.212810 0.750000
O O6 0.750000 0.250000 0.500000
O O7 0.830374 0.196545 0.602384
O O8 0.721466 0.155853 0.537411
O O9 0.500000 0.500000 0.500000
O O10 0.500000 0.453305 0.250000
O O11 0.769044 0.955903 0.750000
O O12 0.711330 0.933701 0.503562
O O13 0.797152 0.000000 0.500000
O O14 0.086037 0.332755 0.750000
O O15 0.090411 0.268916 0.956578
O O16 0.000000 0.331938 0.944985
O O17 0.111457 0.367739 0.011040
O O18 0.071317 0.794369 0.250000
O O19 0.172505 0.396122 0.250000
#
# Coordination Sequence:
#
# PCOD9470228 Si02
#       7
#    16  16   8  16  16  16  16
#     4  11  24  40  60  89 122 160 205 252 302 357
#     4  10  19  31  52  81 114 152 192 236 286 343
#     4  12  26  44  64  82 112 158 208 258 305 356
#     4  11  24  41  64  91 121 154 195 250 310 367
#     4  10  22  39  59  85 121 165 210 250 299 362
#     4  10  20  35  55  83 119 160 201 243 294 350
#     4  11  22  37  59  88 121 156 199 249 306 365
#
# _framework density 19.191700000000001
#
# number of rings (size 3 to 8) (size 9 to 14) (size 15 to 20)
#    0.000    1.385    3.077    2.538    1.077    5.231 
#    0.000    0.000    0.000    0.462    0.000    0.000 
#    0.000    0.000    0.000    0.000    0.000    0.000 
#
# Total GULP energy -289730.372291 kJ/mol
# GULP energy per Si atom -5571.737929 kJ/mol
# Density = 1.914802 g / cm^3
# Si number density = 19.191700 Si / 1000 Ang^3
#
#
#
# Elastic Constant Matrix: (Units=GPa)
#
#
# Indices 1 2 3 4 5 6 
#
# 1 82.3683 9.3044 38.1019 0.0000 0.0000 0.0000
# 2 9.3044 48.2688 46.9208 0.0000 0.0000 0.0000
# 3 38.1019 46.9208 93.4943 0.0000 0.0000 0.0000
# 4 0.0000 0.0000 0.0000 32.4021 0.0000 0.0000
# 5 0.0000 0.0000 0.0000 0.0000 26.7774 0.0000
# 6 0.0000 0.0000 0.0000 0.0000 0.0000 17.8932
#
#
#
# Elastic Compliance Matrix: (Units=1/GPa)
#
#
# Indices 1 2 3 4 5 6 
#
# 1 0.015888 0.006309 -0.009641 0.000000 0.000000 0.000000
# 2 0.006309 0.042957 -0.024129 0.000000 0.000000 0.000000
# 3 -0.009641 -0.024129 0.026734 0.000000 0.000000 0.000000
# 4 0.000000 0.000000 0.000000 0.030862 0.000000 0.000000
# 5 0.000000 0.000000 0.000000 0.000000 0.037345 0.000000
# 6 0.000000 0.000000 0.000000 0.000000 0.000000 0.055887
#
#
# Mechanical properties :
#
#
# Convention : Reuss Voigt Hill
#
# Bulk Modulus (GPa) = 32.61965 45.86507 39.24236
# Shear Modulus (GPa) = 18.19415 24.06816 21.13116
#
# Velocity S-wave (km/s) = 3.08234 3.54516 3.32182
# Velocity P-wave (km/s) = 5.44990 6.38027 5.93335
#
# Compressibility (1/GPa) = 0.03065637
#
# Stress axis : x y z
#
# Youngs Moduli (GPa) = 62.94198 23.27935 37.40509
#
# Poissons Ratio (x) = -0.14688 0.36063
# Poissons Ratio (y) = -0.39712 0.90256
# Poissons Ratio (z) = 0.60683 0.56171
#
# Static dielectric constant tensor:
#      x y z
#    x 1.453090 0.000000 0.000000 
#    y 0.000000 1.620160 0.000000 
#    z 0.000000 0.000000 1.686230 
# 
# From -- ./inp_files/8774.got.cif
#   From: 2010.05.17/outbox.cif.g08.bks.cpg/sg63_5_cif.got.tgz:8774.got - 2010.06.03 15:47:04.
