data_PCOD9470692
_publ_section_title
;
Structure prediction by ZEFSAII (Michael W. Deem and Ramdas Pophale) SiO2 
 PCOD9470692
Probable space group: C M C M
;
_chemical_formula_sum "Si O2"
_cell_formula_units_Z 104
_cell_length_a 23.405288
_cell_length_b 12.852288
_cell_length_c 19.934585
_cell_angle_alpha 90.000000
_cell_angle_beta 90.000000
_cell_angle_gamma 90.000000
_cell_volume 5996.552458
_symmetry_space_group_name_H-M "C M C M"
_symmetry_group_IT_number 63
_symmetry_cell_setting 'orthorhombic'
loop_
_space_group_symop_operation_xyz
x,y,z
-x,-y,1/2+z
x,-y,-z
-x,y,1/2-z
-x,-y,-z
x,y,1/2-z
-x,y,z
x,-y,1/2+z
1/2+x,1/2+y,z
1/2-x,1/2-y,1/2+z
1/2+x,1/2-y,-z
1/2-x,1/2+y,1/2-z
1/2-x,1/2-y,-z
1/2+x,1/2+y,1/2-z
1/2-x,1/2+y,z
1/2+x,1/2-y,1/2+z
loop_
_atom_site_type_symbol
_atom_site_label
_atom_site_fract_x
_atom_site_fract_y
_atom_site_fract_z
Si Si1 0.937611 0.577395 0.437050
Si Si2 0.180839 0.495811 0.082157
Si Si3 0.804804 0.066596 0.374317
Si Si4 0.664794 0.654036 0.675467
Si Si5 0.294480 0.796804 0.170163
Si Si6 0.564316 0.688934 0.927815
Si Si7 0.119060 0.000000 0.500000
O O1 0.938753 0.500000 0.500000
O O2 0.879302 0.549482 0.399055
O O3 0.933058 0.696888 0.460409
O O4 0.000000 0.567350 0.402400
O O5 0.237508 0.551764 0.110105
O O6 0.181207 0.382248 0.117885
O O7 0.184974 0.500000 0.000000
O O8 0.815871 0.180568 0.345085
O O9 0.824320 0.970321 0.328155
O O10 0.839941 0.044732 0.442162
O O11 0.650513 0.686900 0.750000
O O12 0.726155 0.701745 0.656985
O O13 0.613728 0.684708 0.627335
O O14 0.302633 0.822505 0.250000
O O15 0.500000 0.675581 0.901040
O O16 0.579893 0.594466 0.975986
#
# Coordination Sequence:
#
# PCOD9470692 Si02
#       7
#    16  16  16  16  16  16   8
#     4   9  19  34  52  76 106 141 179 222 272 323
#     4  10  20  33  53  83 108 142 185 233 272 327
#     4  10  19  33  52  81 111 142 176 225 275 334
#     4   9  19  35  52  76 107 140 180 222 268 325
#     4  10  21  35  55  80 112 151 184 222 279 340
#     4  10  20  35  53  77 107 138 181 226 274 323
#     4  10  21  32  52  84 111 140 172 230 278 330
#
# _framework density 17.343298999999998
#
# number of rings (size 3 to 8) (size 9 to 14) (size 15 to 20)
#    0.000    2.308    0.769    1.615    4.308    1.538 
#    0.000    0.769    0.000    1.385    0.000    0.000 
#    0.000    0.000    0.000    0.000    0.000    0.000 
#
# Total GULP energy -289498.967844 kJ/mol
# GULP energy per Si atom -5567.287843 kJ/mol
# Density = 1.730382 g / cm^3
# Si number density = 17.343299 Si / 1000 Ang^3
#
#
#
# Elastic Constant Matrix: (Units=GPa)
#
#
# Indices 1 2 3 4 5 6 
#
# 1 93.7411 38.6940 29.1294 0.0000 0.0000 0.0000
# 2 38.6940 125.9018 28.0803 0.0000 0.0000 0.0000
# 3 29.1294 28.0803 45.9837 0.0000 0.0000 0.0000
# 4 0.0000 0.0000 0.0000 10.1050 0.0000 0.0000
# 5 0.0000 0.0000 0.0000 0.0000 -1.3774 0.0000
# 6 0.0000 0.0000 0.0000 0.0000 0.0000 20.3403
#
#
#
# Elastic Compliance Matrix: (Units=1/GPa)
#
#
# Indices 1 2 3 4 5 6 
#
# 1 0.014031 -0.002697 -0.007241 0.000000 0.000000 0.000000
# 2 -0.002697 0.009714 -0.004223 0.000000 0.000000 0.000000
# 3 -0.007241 -0.004223 0.028913 0.000000 0.000000 0.000000
# 4 0.000000 0.000000 0.000000 0.098960 0.000000 0.000000
# 5 0.000000 0.000000 0.000000 0.000000 -0.725984 0.000000
# 6 0.000000 0.000000 0.000000 0.000000 0.000000 0.049163
#
#
# Mechanical properties :
#
#
# Convention : Reuss Voigt Hill
#
# Bulk Modulus (GPa) = 41.09401 50.82600 45.96001
# Shear Modulus (GPa) = -10.22980 17.12844 3.44932
#
# Velocity S-wave (km/s) = -2.43130 3.14604 1.41180
# Velocity P-wave (km/s) = 3.98300 6.52428 5.40511
#
# Compressibility (1/GPa) = 0.02433444
#
# Stress axis : x y z
#
# Youngs Moduli (GPa) = 71.26962 102.94928 34.58676
#
# Poissons Ratio (x) = 0.27768 0.25045
# Poissons Ratio (y) = 0.19223 0.14606
# Poissons Ratio (z) = 0.51609 0.43475
#
# Static dielectric constant tensor:
#      x y z
#    x 1.604160 0.000000 0.000000 
#    y 0.000000 1.599160 0.000000 
#    z 0.000000 0.000000 1.589210 
# 
# From -- ./inp_files/57581.got.cif
#   From: 2010.05.17/outbox.cif.g08.bks.cpg/sg63_29_cif.got.tgz:57581.got - 2010.06.03 15:47:04.
