data_PCOD9470498
_publ_section_title
;
Structure prediction by ZEFSAII (Michael W. Deem and Ramdas Pophale) SiO2 
 PCOD9470498
Probable space group: C M C M
;
_chemical_formula_sum "Si O2"
_cell_formula_units_Z 96
_cell_length_a 23.617958
_cell_length_b 10.470947
_cell_length_c 21.146472
_cell_angle_alpha 90.000000
_cell_angle_beta 90.000000
_cell_angle_gamma 90.000000
_cell_volume 5229.572991
_symmetry_space_group_name_H-M "C M C M"
_symmetry_group_IT_number 63
_symmetry_cell_setting 'orthorhombic'
loop_
_space_group_symop_operation_xyz
x,y,z
-x,-y,1/2+z
x,-y,-z
-x,y,1/2-z
-x,-y,-z
x,y,1/2-z
-x,y,z
x,-y,1/2+z
1/2+x,1/2+y,z
1/2-x,1/2-y,1/2+z
1/2+x,1/2-y,-z
1/2-x,1/2+y,1/2-z
1/2-x,1/2-y,-z
1/2+x,1/2+y,1/2-z
1/2-x,1/2+y,z
1/2+x,1/2-y,1/2+z
loop_
_atom_site_type_symbol
_atom_site_label
_atom_site_fract_x
_atom_site_fract_y
_atom_site_fract_z
Si Si1 0.500000 0.600897 0.826444
Si Si2 0.821223 0.735892 0.678525
Si Si3 0.779497 0.665071 0.091193
Si Si4 0.121958 0.999975 0.676524
Si Si5 0.374045 0.040507 0.174543
Si Si6 0.000000 0.393564 0.826621
Si Si7 0.301657 0.564654 0.559190
O O1 0.500000 0.602536 0.750000
O O2 0.441374 0.534371 0.843932
O O3 0.500000 0.746858 0.848153
O O4 0.798484 0.732169 0.750000
O O5 0.770363 0.774219 0.633462
O O6 0.867122 0.848630 0.675568
O O7 0.849336 0.600810 0.665312
O O8 0.834098 0.631890 0.133504
O O9 0.752862 0.531073 0.066258
O O10 0.793733 0.784923 0.045999
O O11 0.131159 0.042680 0.750000
O O12 0.165966 0.056339 0.626092
O O13 0.370409 0.071335 0.250000
O O14 0.439821 0.046686 0.154809
O O15 0.000000 0.395742 0.750000
O O16 0.333692 0.500000 0.500000
#
# Coordination Sequence:
#
# PCOD9470498 Si02
#       7
#     8  16  16  16  16   8  16
#     4   9  16  31  52  80 107 143 186 225 276 328
#     4   9  18  31  49  81 111 141 183 227 278 329
#     4  11  20  36  54  76 107 145 186 225 281 328
#     4   9  19  34  56  79 110 143 182 229 274 331
#     4  10  19  32  52  80 114 146 183 233 280 332
#     4   9  18  29  45  74 112 147 180 222 281 337
#     4  11  23  37  55  80 111 143 183 229 283 338
#
# _framework density 18.357140000000001
#
# number of rings (size 3 to 8) (size 9 to 14) (size 15 to 20)
#    0.000    2.167    1.667    2.000    0.000    4.000 
#    0.000    3.750    0.000    0.000    0.000    0.583 
#    0.000    0.000    0.000    0.000    0.000    0.000 
#
# Total GULP energy -267436.066216 kJ/mol
# GULP energy per Si atom -5571.584713 kJ/mol
# Density = 1.831536 g / cm^3
# Si number density = 18.357140 Si / 1000 Ang^3
#
#
#
# Elastic Constant Matrix: (Units=GPa)
#
#
# Indices 1 2 3 4 5 6 
#
# 1 86.1139 15.3873 32.4900 0.0000 0.0000 0.0000
# 2 15.3873 58.7121 17.9773 0.0000 0.0000 0.0000
# 3 32.4900 17.9773 53.2348 0.0000 0.0000 0.0000
# 4 0.0000 0.0000 0.0000 24.6814 0.0000 0.0000
# 5 0.0000 0.0000 0.0000 0.0000 4.3319 0.0000
# 6 0.0000 0.0000 0.0000 0.0000 0.0000 16.6918
#
#
#
# Elastic Compliance Matrix: (Units=1/GPa)
#
#
# Indices 1 2 3 4 5 6 
#
# 1 0.015171 -0.001273 -0.008829 0.000000 0.000000 0.000000
# 2 -0.001273 0.019103 -0.005674 0.000000 0.000000 0.000000
# 3 -0.008829 -0.005674 0.026090 0.000000 0.000000 0.000000
# 4 0.000000 0.000000 0.000000 0.040516 0.000000 0.000000
# 5 0.000000 0.000000 0.000000 0.000000 0.230846 0.000000
# 6 0.000000 0.000000 0.000000 0.000000 0.000000 0.059910
#
#
# Mechanical properties :
#
#
# Convention : Reuss Voigt Hill
#
# Bulk Modulus (GPa) = 34.70875 36.64111 35.67493
# Shear Modulus (GPa) = 11.55288 17.95476 14.75382
#
# Velocity S-wave (km/s) = 2.51139 3.13082 2.83805
# Velocity P-wave (km/s) = 5.23048 5.75090 5.49685
#
# Compressibility (1/GPa) = 0.02881118
#
# Stress axis : x y z
#
# Youngs Moduli (GPa) = 65.91434 52.34706 38.32923
#
# Poissons Ratio (x) = 0.06661 0.33843
# Poissons Ratio (y) = 0.08388 0.21750
# Poissons Ratio (z) = 0.58199 0.29704
#
# Static dielectric constant tensor:
#      x y z
#    x 1.621060 0.000000 0.000000 
#    y 0.000000 1.654410 0.000000 
#    z 0.000000 0.000000 1.669900 
# 
# From -- ./inp_files/56581.got.cif
#   From: 2010.05.17/outbox.cif.g08.bks.cpg/sg63_29_cif.got.tgz:56581.got - 2010.06.03 15:47:04.
