data_PCOD9470712
_publ_section_title
;
Structure prediction by ZEFSAII (Michael W. Deem and Ramdas Pophale) SiO2 
 PCOD9470712
Probable space group: C M C M
;
_chemical_formula_sum "Si O2"
_cell_formula_units_Z 80
_cell_length_a 8.716940
_cell_length_b 19.773079
_cell_length_c 26.223207
_cell_angle_alpha 90.000000
_cell_angle_beta 90.000000
_cell_angle_gamma 90.000000
_cell_volume 4519.851449
_symmetry_space_group_name_H-M "C M C M"
_symmetry_group_IT_number 63
_symmetry_cell_setting 'orthorhombic'
loop_
_space_group_symop_operation_xyz
x,y,z
-x,-y,1/2+z
x,-y,-z
-x,y,1/2-z
-x,-y,-z
x,y,1/2-z
-x,y,z
x,-y,1/2+z
1/2+x,1/2+y,z
1/2-x,1/2-y,1/2+z
1/2+x,1/2-y,-z
1/2-x,1/2+y,1/2-z
1/2-x,1/2-y,-z
1/2+x,1/2+y,1/2-z
1/2-x,1/2+y,z
1/2+x,1/2-y,1/2+z
loop_
_atom_site_type_symbol
_atom_site_label
_atom_site_fract_x
_atom_site_fract_y
_atom_site_fract_z
Si Si1 0.817622 0.982143 0.382954
Si Si2 0.815951 0.616264 0.533736
Si Si3 0.315883 0.273553 0.392323
Si Si4 0.815543 0.619935 0.414474
Si Si5 0.683938 0.128070 0.809463
O O1 0.755334 0.945110 0.434002
O O2 0.745620 0.939645 0.336567
O O3 0.000000 0.976365 0.381377
O O4 0.764581 0.059363 0.384673
O O5 0.755896 0.684299 0.560833
O O6 0.775001 0.614498 0.474390
O O7 0.000000 0.613188 0.538233
O O8 0.500000 0.279537 0.395113
O O9 0.274630 0.194863 0.395547
O O10 0.255644 0.310434 0.341666
O O11 0.000000 0.612177 0.410482
O O12 0.724040 0.130701 0.750000
O O13 0.500000 0.130142 0.814623
#
# Coordination Sequence:
#
# PCOD9470712 Si02
#       5
#    16  16  16  16  16
#     4  11  22  34  53  80 107 137 176 220 261 305
#     4  10  19  33  53  75 107 148 182 212 250 304
#     4  10  20  34  54  80 108 137 174 217 258 306
#     4  10  21  35  51  76 111 147 177 210 257 307
#     4  10  21  39  61  79  99 132 172 214 263 319
#
# _framework density 17.699697
#
# number of rings (size 3 to 8) (size 9 to 14) (size 15 to 20)
#    0.000    1.800    0.000    7.200    0.000    7.200 
#    0.000    1.000    0.000    1.200    0.000    0.000 
#    0.000    0.000    0.000    0.000    0.000    0.000 
#
# Total GULP energy -223484.874958 kJ/mol
# GULP energy per Si atom -5587.121874 kJ/mol
# Density = 1.765941 g / cm^3
# Si number density = 17.699697 Si / 1000 Ang^3
#
#
#
# Elastic Constant Matrix: (Units=GPa)
#
#
# Indices 1 2 3 4 5 6 
#
# 1 40.3273 7.2305 5.9050 0.0000 0.0000 0.0000
# 2 7.2305 83.5845 1.5216 0.0000 0.0000 0.0000
# 3 5.9050 1.5216 63.2952 0.0000 0.0000 0.0000
# 4 0.0000 0.0000 0.0000 2.6448 0.0000 0.0000
# 5 0.0000 0.0000 0.0000 0.0000 11.6740 0.0000
# 6 0.0000 0.0000 0.0000 0.0000 0.0000 34.0276
#
#
#
# Elastic Compliance Matrix: (Units=1/GPa)
#
#
# Indices 1 2 3 4 5 6 
#
# 1 0.025526 -0.002166 -0.002329 0.000000 0.000000 0.000000
# 2 -0.002166 0.012153 -0.000090 0.000000 0.000000 0.000000
# 3 -0.002329 -0.000090 0.016018 0.000000 0.000000 0.000000
# 4 0.000000 0.000000 0.000000 0.378097 0.000000 0.000000
# 5 0.000000 0.000000 0.000000 0.000000 0.085661 0.000000
# 6 0.000000 0.000000 0.000000 0.000000 0.000000 0.029388
#
#
# Mechanical properties :
#
#
# Convention : Reuss Voigt Hill
#
# Bulk Modulus (GPa) = 22.45809 24.05791 23.25800
# Shear Modulus (GPa) = 8.75876 21.17260 14.96568
#
# Velocity S-wave (km/s) = 2.22694 3.46238 2.91096
# Velocity P-wave (km/s) = 4.39640 5.44113 4.94642
#
# Compressibility (1/GPa) = 0.04452739
#
# Stress axis : x y z
#
# Youngs Moduli (GPa) = 39.17501 82.28468 62.42793
#
# Poissons Ratio (x) = 0.17821 0.14542
# Poissons Ratio (y) = 0.08484 0.00562
# Poissons Ratio (z) = 0.09125 0.00741
#
# Static dielectric constant tensor:
#      x y z
#    x 1.594310 0.000000 0.000000 
#    y 0.000000 1.598400 0.000000 
#    z 0.000000 0.000000 1.580470 
# 
# From -- ./inp_files/66640.got.cif
#   From: 2010.05.17/outbox.cif.g08.bks.cpg/sg63_34_cif.got.tgz:66640.got - 2010.06.03 15:47:04.
