data_PCOD9470515
_publ_section_title
;
Structure prediction by ZEFSAII (Michael W. Deem and Ramdas Pophale) SiO2 
 PCOD9470515
Probable space group: C M C M
;
_chemical_formula_sum "Si O2"
_cell_formula_units_Z 96
_cell_length_a 7.730471
_cell_length_b 20.570455
_cell_length_c 28.734439
_cell_angle_alpha 90.000000
_cell_angle_beta 90.000000
_cell_angle_gamma 90.000000
_cell_volume 4569.330543
_symmetry_space_group_name_H-M "C M C M"
_symmetry_group_IT_number 63
_symmetry_cell_setting 'orthorhombic'
loop_
_space_group_symop_operation_xyz
x,y,z
-x,-y,1/2+z
x,-y,-z
-x,y,1/2-z
-x,-y,-z
x,y,1/2-z
-x,y,z
x,-y,1/2+z
1/2+x,1/2+y,z
1/2-x,1/2-y,1/2+z
1/2+x,1/2-y,-z
1/2-x,1/2+y,1/2-z
1/2-x,1/2-y,-z
1/2+x,1/2+y,1/2-z
1/2-x,1/2+y,z
1/2+x,1/2-y,1/2+z
loop_
_atom_site_type_symbol
_atom_site_label
_atom_site_fract_x
_atom_site_fract_y
_atom_site_fract_z
Si Si1 0.787832 0.507374 0.697808
Si Si2 0.288802 0.147562 0.837167
Si Si3 0.790511 0.788090 0.801634
Si Si4 0.702423 0.191268 0.936533
Si Si5 0.298530 0.899268 0.626776
Si Si6 0.201973 0.833025 0.535306
O O1 0.733217 0.488797 0.750000
O O2 0.731885 0.580578 0.685922
O O3 0.726588 0.457835 0.658107
O O4 0.000000 0.505576 0.697517
O O5 0.500000 0.145057 0.836098
O O6 0.238759 0.213641 0.810966
O O7 0.228933 0.156256 0.890620
O O8 0.734924 0.808737 0.750000
O O9 0.722697 0.835216 0.841472
O O10 0.000000 0.790514 0.803660
O O11 0.500000 0.201823 0.926427
O O12 0.776084 0.263636 0.946215
O O13 0.718319 0.153022 0.984955
O O14 0.500000 0.912037 0.619052
O O15 0.221240 0.884595 0.576350
O O16 0.000000 0.823311 0.526078
#
# Coordination Sequence:
#
# PCOD9470515 Si02
#       6
#    16  16  16  16  16  16
#     4   9  18  32  51  76 106 140 176 216 261 306
#     4   9  16  31  53  78 104 133 174 221 262 305
#     4  10  19  32  53  79 104 133 174 222 267 310
#     4   9  17  31  53  80 106 131 169 219 268 312
#     4  11  21  33  51  77 109 141 175 214 262 313
#     4  10  19  33  53  78 107 137 174 215 262 317
#
# _framework density 21.009644000000002
#
# number of rings (size 3 to 8) (size 9 to 14) (size 15 to 20)
#    0.000    2.333    1.667    2.000    0.000    3.667 
#    0.000    0.833    0.000    9.000    0.000    0.000 
#    0.000    0.000    0.000    0.000    0.000    0.000 
#
# Total GULP energy -267919.440996 kJ/mol
# GULP energy per Si atom -5581.655021 kJ/mol
# Density = 2.096183 g / cm^3
# Si number density = 21.009644 Si / 1000 Ang^3
#
#
#
# Elastic Constant Matrix: (Units=GPa)
#
#
# Indices 1 2 3 4 5 6 
#
# 1 28.4523 -5.9643 -6.1671 0.0000 0.0000 0.0000
# 2 -5.9643 45.9103 -15.1167 0.0000 0.0000 0.0000
# 3 -6.1671 -15.1167 84.6223 0.0000 0.0000 0.0000
# 4 0.0000 0.0000 0.0000 31.0910 0.0000 0.0000
# 5 0.0000 0.0000 0.0000 0.0000 19.6245 0.0000
# 6 0.0000 0.0000 0.0000 0.0000 0.0000 4.7244
#
#
#
# Elastic Compliance Matrix: (Units=1/GPa)
#
#
# Indices 1 2 3 4 5 6 
#
# 1 0.037248 0.006091 0.003803 0.000000 0.000000 0.000000
# 2 0.006091 0.024139 0.004756 0.000000 0.000000 0.000000
# 3 0.003803 0.004756 0.012944 0.000000 0.000000 0.000000
# 4 0.000000 0.000000 0.000000 0.032164 0.000000 0.000000
# 5 0.000000 0.000000 0.000000 0.000000 0.050957 0.000000
# 6 0.000000 0.000000 0.000000 0.000000 0.000000 0.211667
#
#
# Mechanical properties :
#
#
# Convention : Reuss Voigt Hill
#
# Bulk Modulus (GPa) = 9.64977 11.60987 10.62982
# Shear Modulus (GPa) = 13.35605 23.50350 18.42977
#
# Velocity S-wave (km/s) = 2.52407 3.34833 2.96498
# Velocity P-wave (km/s) = 3.61905 4.52619 4.09780
#
# Compressibility (1/GPa) = 0.10362940
#
# Stress axis : x y z
#
# Youngs Moduli (GPa) = 26.84743 41.42692 77.25627
#
# Poissons Ratio (x) = -0.25233 -0.29377
# Poissons Ratio (y) = -0.16353 -0.36743
# Poissons Ratio (z) = -0.10209 -0.19703
#
# Static dielectric constant tensor:
#      x y z
#    x 1.800930 0.000000 0.000000 
#    y 0.000000 1.741300 0.000000 
#    z 0.000000 0.000000 1.760190 
# 
# From -- ./inp_files/66979.got.cif
#   From: 2010.05.17/outbox.cif.g08.bks.cpg/sg63_34_cif.got.tgz:66979.got - 2010.06.03 15:47:04.
