data_PCOD9470054
_publ_section_title
;
Structure prediction by ZEFSAII (Michael W. Deem and Ramdas Pophale) SiO2 
 PCOD9470054
Probable space group: C M C M
;
_chemical_formula_sum "Si O2"
_cell_formula_units_Z 120
_cell_length_a 26.457252
_cell_length_b 29.086121
_cell_length_c 7.757011
_cell_angle_alpha 90.000000
_cell_angle_beta 90.000000
_cell_angle_gamma 90.000000
_cell_volume 5969.321193
_symmetry_space_group_name_H-M "C M C M"
_symmetry_group_IT_number 63
_symmetry_cell_setting 'orthorhombic'
loop_
_space_group_symop_operation_xyz
x,y,z
-x,-y,1/2+z
x,-y,-z
-x,y,1/2-z
-x,-y,-z
x,y,1/2-z
-x,y,z
x,-y,1/2+z
1/2+x,1/2+y,z
1/2-x,1/2-y,1/2+z
1/2+x,1/2-y,-z
1/2-x,1/2+y,1/2-z
1/2-x,1/2-y,-z
1/2+x,1/2+y,1/2-z
1/2-x,1/2+y,z
1/2+x,1/2-y,1/2+z
loop_
_atom_site_type_symbol
_atom_site_label
_atom_site_fract_x
_atom_site_fract_y
_atom_site_fract_z
Si Si1 0.646695 0.706896 0.961958
Si Si2 0.208707 0.552662 0.544398
Si Si3 0.338619 0.811809 0.960008
Si Si4 0.234558 0.139869 0.952061
Si Si5 0.500000 0.053957 0.041597
Si Si6 0.556713 0.352807 0.454583
Si Si7 0.103420 0.400041 0.955412
Si Si8 0.442128 0.548779 0.454374
O O1 0.648028 0.707097 0.750000
O O2 0.653767 0.759438 0.015696
O O3 0.689590 0.671262 0.023599
O O4 0.593414 0.686312 0.020640
O O5 0.219075 0.500000 0.500000
O O6 0.208610 0.557154 0.750000
O O7 0.249449 0.589908 0.474958
O O8 0.152578 0.568009 0.485831
O O9 0.336909 0.812803 0.750000
O O10 0.380697 0.849035 0.017266
O O11 0.285538 0.830569 0.028499
O O12 0.222714 0.133185 0.750000
O O13 0.500000 0.057487 0.250000
O O14 0.551508 0.078166 0.976104
O O15 0.500000 0.000000 0.000000
O O16 0.552584 0.346427 0.250000
O O17 0.500000 0.352478 0.528870
O O18 0.580257 0.403473 0.481543
O O19 0.097145 0.396438 0.750000
O O20 0.417808 0.500000 0.500000
O O21 0.444976 0.551378 0.250000
O O22 0.500000 0.547597 0.527182
#
# Coordination Sequence:
#
# PCOD9470054 Si02
#       8
#    16  16  16  16   8  16  16  16
#     4   9  17  31  50  72  97 126 159 197 242 285
#     4  10  19  31  49  71  95 126 159 194 240 291
#     4   9  17  31  51  73  96 123 158 201 244 284
#     4   9  18  32  50  71  96 124 156 196 241 288
#     4  10  20  32  46  68  98 132 166 200 239 280
#     4   9  17  30  47  68  95 126 160 194 230 282
#     4   9  18  32  48  70  99 129 163 202 240 283
#     4   9  16  27  45  67  89 116 151 191 233 275
#
# _framework density 20.102789999999999
#
# number of rings (size 3 to 8) (size 9 to 14) (size 15 to 20)
#    0.000    2.800    0.000    1.600    0.000    3.733 
#    1.200    2.000    0.000    1.600    0.000    0.000 
#    0.000    0.000    0.000    0.000    0.000    0.000 
#
# Total GULP energy -334429.702436 kJ/mol
# GULP energy per Si atom -5573.828374 kJ/mol
# Density = 2.005703 g / cm^3
# Si number density = 20.102790 Si / 1000 Ang^3
#
#
#
# Elastic Constant Matrix: (Units=GPa)
#
#
# Indices 1 2 3 4 5 6 
#
# 1 83.7805 76.7672 4.3014 0.0000 0.0000 0.0000
# 2 76.7672 182.6273 -6.7278 0.0000 0.0000 0.0000
# 3 4.3014 -6.7278 26.0673 0.0000 0.0000 0.0000
# 4 0.0000 0.0000 0.0000 14.5497 0.0000 0.0000
# 5 0.0000 0.0000 0.0000 0.0000 9.2504 0.0000
# 6 0.0000 0.0000 0.0000 0.0000 0.0000 14.9395
#
#
#
# Elastic Compliance Matrix: (Units=1/GPa)
#
#
# Indices 1 2 3 4 5 6 
#
# 1 0.020185 -0.008690 -0.005573 0.000000 0.000000 0.000000
# 2 -0.008690 0.009269 0.003826 0.000000 0.000000 0.000000
# 3 -0.005573 0.003826 0.040269 0.000000 0.000000 0.000000
# 4 0.000000 0.000000 0.000000 0.068730 0.000000 0.000000
# 5 0.000000 0.000000 0.000000 0.000000 0.108103 0.000000
# 6 0.000000 0.000000 0.000000 0.000000 0.000000 0.066937
#
#
# Mechanical properties :
#
#
# Convention : Reuss Voigt Hill
#
# Bulk Modulus (GPa) = 20.47116 49.01741 34.74429
# Shear Modulus (GPa) = 14.25924 22.29022 18.27473
#
# Velocity S-wave (km/s) = 2.66619 3.33350 3.01834
# Velocity P-wave (km/s) = 4.43660 6.26519 5.42844
#
# Compressibility (1/GPa) = 0.04884921
#
# Stress axis : x y z
#
# Youngs Moduli (GPa) = 49.54291 107.88231 24.83275
#
# Poissons Ratio (x) = 0.93748 0.13840
# Poissons Ratio (y) = 0.43052 -0.09502
# Poissons Ratio (z) = 0.27613 -0.41279
#
# Static dielectric constant tensor:
#      x y z
#    x 1.713770 0.000000 0.000000 
#    y 0.000000 1.591690 0.000000 
#    z 0.000000 0.000000 1.734050 
# 
# From -- ./inp_files/13168.got.cif
#   From: 2010.05.17/outbox.cif.g08.bks.cpg/sg63_7_cif.got.tgz:13168.got - 2010.06.03 15:47:04.
