data_PCOD9470182
_publ_section_title
;
Structure prediction by ZEFSAII (Michael W. Deem and Ramdas Pophale) SiO2 
 PCOD9470182
Probable space group: C M C M
;
_chemical_formula_sum "Si O2"
_cell_formula_units_Z 96
_cell_length_a 12.278927
_cell_length_b 14.479826
_cell_length_c 20.507910
_cell_angle_alpha 90.000000
_cell_angle_beta 90.000000
_cell_angle_gamma 90.000000
_cell_volume 3646.239264
_symmetry_space_group_name_H-M "C M C M"
_symmetry_group_IT_number 63
_symmetry_cell_setting 'orthorhombic'
loop_
_space_group_symop_operation_xyz
x,y,z
-x,-y,1/2+z
x,-y,-z
-x,y,1/2-z
-x,-y,-z
x,y,1/2-z
-x,y,z
x,-y,1/2+z
1/2+x,1/2+y,z
1/2-x,1/2-y,1/2+z
1/2+x,1/2-y,-z
1/2-x,1/2+y,1/2-z
1/2-x,1/2-y,-z
1/2+x,1/2+y,1/2-z
1/2-x,1/2+y,z
1/2+x,1/2-y,1/2+z
loop_
_atom_site_type_symbol
_atom_site_label
_atom_site_fract_x
_atom_site_fract_y
_atom_site_fract_z
Si Si1 0.126187 0.600630 0.673016
Si Si2 0.653407 0.370483 0.993406
Si Si3 0.886210 0.339105 0.967407
Si Si4 0.387719 0.399217 0.655834
Si Si5 0.377916 0.606437 0.639264
Si Si6 0.650646 0.877583 0.677783
O O1 0.126346 0.620320 0.750000
O O2 0.248133 0.637372 0.648554
O O3 0.132910 0.487879 0.666169
O O4 0.000000 0.626035 0.649105
O O5 0.629220 0.261852 0.002423
O O6 0.614250 0.409724 0.061464
O O7 0.780904 0.392934 0.988832
O O8 0.611895 0.394242 0.922438
O O9 0.886548 0.329985 0.888911
O O10 0.000000 0.380484 0.988324
O O11 0.500000 0.357755 0.679305
O O12 0.380536 0.506919 0.673516
O O13 0.278100 0.354977 0.679234
O O14 0.500000 0.648858 0.657087
O O15 0.609597 0.854588 0.750000
#
# Coordination Sequence:
#
# PCOD9470182 Si02
#       6
#    16  16  16  16  16  16
#     4   9  18  33  52  73  99 131 165 205 254 301
#     4  10  20  33  49  72 102 132 165 204 247 298
#     4  10  20  33  50  71  96 131 169 203 245 295
#     4   9  17  30  50  74 100 130 162 201 250 298
#     4  10  19  31  51  77 102 131 167 207 252 301
#     4   9  18  32  50  73  98 125 163 207 247 291
#
# _framework density 26.328498
#
# number of rings (size 3 to 8) (size 9 to 14) (size 15 to 20)
#    0.000    2.500    0.000    2.500    0.000    3.667 
#    0.000    4.167    0.000    8.000    0.000    0.000 
#    0.000    0.000    0.000    0.000    0.000    0.000 
#
# Total GULP energy -267422.944648 kJ/mol
# GULP energy per Si atom -5571.311347 kJ/mol
# Density = 2.626857 g / cm^3
# Si number density = 26.328498 Si / 1000 Ang^3
#
#
#
# Elastic Constant Matrix: (Units=GPa)
#
#
# Indices 1 2 3 4 5 6 
#
# 1 329.7364 9.7485 39.3842 0.0000 0.0000 0.0000
# 2 9.7485 60.2836 0.9158 0.0000 0.0000 0.0000
# 3 39.3842 0.9158 85.9968 0.0000 0.0000 0.0000
# 4 0.0000 0.0000 0.0000 16.3602 0.0000 0.0000
# 5 0.0000 0.0000 0.0000 0.0000 -72.7582 0.0000
# 6 0.0000 0.0000 0.0000 0.0000 0.0000 3.5689
#
#
#
# Elastic Compliance Matrix: (Units=1/GPa)
#
#
# Indices 1 2 3 4 5 6 
#
# 1 0.003223 -0.000499 -0.001471 0.000000 0.000000 0.000000
# 2 -0.000499 0.016668 0.000051 0.000000 0.000000 0.000000
# 3 -0.001471 0.000051 0.012301 0.000000 0.000000 0.000000
# 4 0.000000 0.000000 0.000000 0.061124 0.000000 0.000000
# 5 0.000000 0.000000 0.000000 0.000000 -0.013744 0.000000
# 6 0.000000 0.000000 0.000000 0.000000 0.000000 0.280201
#
#
# Mechanical properties :
#
#
# Convention : Reuss Voigt Hill
#
# Bulk Modulus (GPa) = 35.26678 64.01262 49.63970
# Shear Modulus (GPa) = 13.40258 17.83205 15.61732
#
# Velocity S-wave (km/s) = 2.25867 2.60530 2.43815
# Velocity P-wave (km/s) = 4.49734 5.78066 5.17890
#
# Compressibility (1/GPa) = 0.02835529
#
# Stress axis : x y z
#
# Youngs Moduli (GPa) = 310.25556 59.99458 81.29166
#
# Poissons Ratio (x) = 0.02993 0.11956
# Poissons Ratio (y) = 0.15478 -0.00414
# Poissons Ratio (z) = 0.45632 -0.00306
#
# Static dielectric constant tensor:
#      x y z
#    x 2.224320 0.000000 0.000000 
#    y 0.000000 2.062850 0.000000 
#    z 0.000000 0.000000 2.003040 
# 
# From -- ./inp_files/52891.got.cif
#   From: 2010.05.17/outbox.cif.g08.bks.cpg/sg63_27_cif.got.tgz:52891.got - 2010.06.03 15:47:04.
