data_PCOD9470047
_publ_section_title
;
Structure prediction by ZEFSAII (Michael W. Deem and Ramdas Pophale) SiO2 
 PCOD9470047
Probable space group: C M C M
;
_chemical_formula_sum "Si O2"
_cell_formula_units_Z 96
_cell_length_a 24.333749
_cell_length_b 24.813750
_cell_length_c 7.459139
_cell_angle_alpha 90.000000
_cell_angle_beta 90.000000
_cell_angle_gamma 90.000000
_cell_volume 4503.914388
_symmetry_space_group_name_H-M "C M C M"
_symmetry_group_IT_number 63
_symmetry_cell_setting 'orthorhombic'
loop_
_space_group_symop_operation_xyz
x,y,z
-x,-y,1/2+z
x,-y,-z
-x,y,1/2-z
-x,-y,-z
x,y,1/2-z
-x,y,z
x,-y,1/2+z
1/2+x,1/2+y,z
1/2-x,1/2-y,1/2+z
1/2+x,1/2-y,-z
1/2-x,1/2+y,1/2-z
1/2-x,1/2-y,-z
1/2+x,1/2+y,1/2-z
1/2-x,1/2+y,z
1/2+x,1/2-y,1/2+z
loop_
_atom_site_type_symbol
_atom_site_label
_atom_site_fract_x
_atom_site_fract_y
_atom_site_fract_z
Si Si1 0.438039 0.378343 0.031111
Si Si2 0.666460 0.439067 0.036667
Si Si3 0.062705 0.438502 0.035039
Si Si4 0.235278 0.836404 0.469141
Si Si5 0.858860 0.344463 0.459471
Si Si6 0.629936 0.726520 0.534027
O O1 0.439416 0.378902 0.250000
O O2 0.500000 0.385336 0.967842
O O3 0.394520 0.423512 0.970963
O O4 0.411362 0.321019 0.978692
O O5 0.664924 0.432754 0.250000
O O6 0.708296 0.393212 0.974322
O O7 0.682139 0.500000 0.000000
O O8 0.059985 0.432166 0.250000
O O9 0.104136 0.392768 0.965252
O O10 0.000000 0.432666 0.966389
O O11 0.080752 0.500000 0.000000
O O12 0.236030 0.833639 0.250000
O O13 0.297589 0.835675 0.535523
O O14 0.191485 0.790871 0.527586
O O15 0.850941 0.357484 0.250000
O O16 0.886290 0.285826 0.473055
O O17 0.630536 0.726668 0.750000
#
# Coordination Sequence:
#
# PCOD9470047 Si02
#       6
#    16  16  16  16  16  16
#     4   8  15  29  47  65  89 123 155 182 219 266
#     4   9  17  30  47  66  90 119 152 189 225 262
#     4   9  19  35  51  67  90 119 149 183 224 268
#     4   8  16  31  47  64  91 125 152 178 220 270
#     4  10  19  31  49  70  92 119 148 180 225 274
#     4   9  17  30  48  69  92 118 152 188 217 257
#
# _framework density 21.314793000000002
#
# number of rings (size 3 to 8) (size 9 to 14) (size 15 to 20)
#    0.000    3.167    0.000    2.500    0.000    2.333 
#    0.000    4.167    0.000    1.000    0.000    0.000 
#    0.000    0.000    0.000    0.000    0.000    0.000 
#
# Total GULP energy -267731.978180 kJ/mol
# GULP energy per Si atom -5577.749545 kJ/mol
# Density = 2.126628 g / cm^3
# Si number density = 21.314793 Si / 1000 Ang^3
#
#
#
# Elastic Constant Matrix: (Units=GPa)
#
#
# Indices 1 2 3 4 5 6 
#
# 1 27.4896 19.7619 4.3267 0.0000 0.0000 0.0000
# 2 19.7619 130.2293 -9.2814 0.0000 0.0000 0.0000
# 3 4.3267 -9.2814 59.9731 0.0000 0.0000 0.0000
# 4 0.0000 0.0000 0.0000 19.7690 0.0000 0.0000
# 5 0.0000 0.0000 0.0000 0.0000 -19.0360 0.0000
# 6 0.0000 0.0000 0.0000 0.0000 0.0000 16.9362
#
#
#
# Elastic Compliance Matrix: (Units=1/GPa)
#
#
# Indices 1 2 3 4 5 6 
#
# 1 0.041778 -0.006628 -0.004040 0.000000 0.000000 0.000000
# 2 -0.006628 0.008816 0.001842 0.000000 0.000000 0.000000
# 3 -0.004040 0.001842 0.017251 0.000000 0.000000 0.000000
# 4 0.000000 0.000000 0.000000 0.050584 0.000000 0.000000
# 5 0.000000 0.000000 0.000000 0.000000 -0.052532 0.000000
# 6 0.000000 0.000000 0.000000 0.000000 0.000000 0.059045
#
#
# Mechanical properties :
#
#
# Convention : Reuss Voigt Hill
#
# Bulk Modulus (GPa) = 19.92245 27.47849 23.70047
# Shear Modulus (GPa) = 31.38293 17.05951 24.22122
#
# Velocity S-wave (km/s) = 3.84129 2.83213 3.37465
# Velocity P-wave (km/s) = 5.38898 4.85946 5.13105
#
# Compressibility (1/GPa) = 0.05019463
#
# Stress axis : x y z
#
# Youngs Moduli (GPa) = 23.93628 113.43296 57.96863
#
# Poissons Ratio (x) = 0.75178 0.23417
# Poissons Ratio (y) = 0.15864 -0.10680
# Poissons Ratio (z) = 0.09669 -0.20900
#
# Static dielectric constant tensor:
#      x y z
#    x 1.774630 0.000000 0.000000 
#    y 0.000000 1.755010 0.000000 
#    z 0.000000 0.000000 1.805960 
# 
# From -- ./inp_files/10466.got.cif
#   From: 2010.05.17/outbox.cif.g08.bks.cpg/sg63_6_cif.got.tgz:10466.got - 2010.06.03 15:47:04.
