data_PCOD9470254
_publ_section_title
;
Structure prediction by ZEFSAII (Michael W. Deem and Ramdas Pophale) SiO2 
 PCOD9470254
Probable space group: C M C M
;
_chemical_formula_sum "Si O2"
_cell_formula_units_Z 116
_cell_length_a 19.816044
_cell_length_b 12.704138
_cell_length_c 24.829821
_cell_angle_alpha 90.000000
_cell_angle_beta 90.000000
_cell_angle_gamma 90.000000
_cell_volume 6250.802098
_symmetry_space_group_name_H-M "C M C M"
_symmetry_group_IT_number 63
_symmetry_cell_setting 'orthorhombic'
loop_
_space_group_symop_operation_xyz
x,y,z
-x,-y,1/2+z
x,-y,-z
-x,y,1/2-z
-x,-y,-z
x,y,1/2-z
-x,y,z
x,-y,1/2+z
1/2+x,1/2+y,z
1/2-x,1/2-y,1/2+z
1/2+x,1/2-y,-z
1/2-x,1/2+y,1/2-z
1/2-x,1/2-y,-z
1/2+x,1/2+y,1/2-z
1/2-x,1/2+y,z
1/2+x,1/2-y,1/2+z
loop_
_atom_site_type_symbol
_atom_site_label
_atom_site_fract_x
_atom_site_fract_y
_atom_site_fract_z
Si Si1 0.918963 0.850679 0.882971
Si Si2 0.817740 0.232118 0.813154
Si Si3 0.500000 0.911889 0.750000
Si Si4 0.418471 0.912359 0.957572
Si Si5 0.335249 0.184758 0.686668
Si Si6 0.919475 0.908807 0.381059
Si Si7 0.581603 0.319519 0.494102
Si Si8 0.878469 0.554122 0.334613
O O1 0.880373 0.764434 0.848008
O O2 0.000000 0.831266 0.880793
O O3 0.907628 0.970679 0.864094
O O4 0.896196 0.844152 0.945454
O O5 0.828554 0.209629 0.750000
O O6 0.743209 0.194690 0.828582
O O7 0.875152 0.172729 0.847234
O O8 0.822964 0.357193 0.822169
O O9 0.558689 0.915662 0.797056
O O10 0.500000 0.911803 0.957876
O O11 0.396106 0.796920 0.976432
O O12 0.395820 0.937346 0.897478
O O13 0.395482 0.000000 0.000000
O O14 0.341764 0.211212 0.750000
O O15 0.358022 0.064757 0.678526
O O16 0.901636 0.895821 0.444415
O O17 0.000000 0.886045 0.375494
O O18 0.500000 0.320587 0.496735
#
# Coordination Sequence:
#
# PCOD9470254 Si02
#       8
#    16  16   4  16  16  16  16  16
#     4  10  22  39  64  94 123 161 204 253 305 372
#     4  11  25  42  63  87 122 166 209 253 307 375
#     4  12  24  36  70 104 122 162 204 270 312 370
#     4  10  19  31  57  94 127 157 194 257 322 372
#     4  11  26  43  62  86 125 171 205 249 312 378
#     4  10  21  38  64  92 122 160 204 258 308 359
#     4   9  17  34  59  90 124 157 200 251 312 368
#     4  12  23  41  65  93 127 159 208 262 313 368
#
# _framework density 18.557618000000002
#
# number of rings (size 3 to 8) (size 9 to 14) (size 15 to 20)
#    0.000    1.517    3.448    1.241    3.862    3.862 
#    0.000    2.069    0.000    0.000    0.000    0.000 
#    0.000    0.000    0.000    0.000    0.000    0.000 
#
# Total GULP energy -323266.079781 kJ/mol
# GULP energy per Si atom -5573.553100 kJ/mol
# Density = 1.851538 g / cm^3
# Si number density = 18.557618 Si / 1000 Ang^3
#
#
#
# Elastic Constant Matrix: (Units=GPa)
#
#
# Indices 1 2 3 4 5 6 
#
# 1 36.6452 28.9467 20.2302 0.0000 0.0000 0.0000
# 2 28.9467 81.0636 26.0470 0.0000 0.0000 0.0000
# 3 20.2302 26.0470 90.7346 0.0000 0.0000 0.0000
# 4 0.0000 0.0000 0.0000 15.6615 0.0000 0.0000
# 5 0.0000 0.0000 0.0000 0.0000 7.1263 0.0000
# 6 0.0000 0.0000 0.0000 0.0000 0.0000 3.0381
#
#
#
# Elastic Compliance Matrix: (Units=1/GPa)
#
#
# Indices 1 2 3 4 5 6 
#
# 1 0.040228 -0.012650 -0.005338 0.000000 0.000000 0.000000
# 2 -0.012650 0.017567 -0.002223 0.000000 0.000000 0.000000
# 3 -0.005338 -0.002223 0.012849 0.000000 0.000000 0.000000
# 4 0.000000 0.000000 0.000000 0.063851 0.000000 0.000000
# 5 0.000000 0.000000 0.000000 0.000000 0.140325 0.000000
# 6 0.000000 0.000000 0.000000 0.000000 0.000000 0.329157
#
#
# Mechanical properties :
#
#
# Convention : Reuss Voigt Hill
#
# Bulk Modulus (GPa) = 33.08630 39.87677 36.48154
# Shear Modulus (GPa) = 7.63974 14.04647 10.84311
#
# Velocity S-wave (km/s) = 2.03118 2.75419 2.41984
# Velocity P-wave (km/s) = 4.83411 5.62573 5.24487
#
# Compressibility (1/GPa) = 0.03022399
#
# Stress axis : x y z
#
# Youngs Moduli (GPa) = 24.85853 56.92443 77.82515
#
# Poissons Ratio (x) = 0.72007 0.41542
# Poissons Ratio (y) = 0.31445 0.17297
# Poissons Ratio (z) = 0.13269 0.12652
#
# Static dielectric constant tensor:
#      x y z
#    x 1.621340 0.000000 0.000000 
#    y 0.000000 1.644380 0.000000 
#    z 0.000000 0.000000 1.633110 
# 
# From -- ./inp_files/70045.got.cif
#   From: 2010.05.17/outbox.cif.g08.bks.cpg/sg63_36_cif.got.tgz:70045.got - 2010.06.03 15:47:04.
