data_PCOD9470493
_publ_section_title
;
Structure prediction by ZEFSAII (Michael W. Deem and Ramdas Pophale) SiO2 
 PCOD9470493
Probable space group: C M C M
;
_chemical_formula_sum "Si O2"
_cell_formula_units_Z 116
_cell_length_a 7.935339
_cell_length_b 33.989956
_cell_length_c 23.971594
_cell_angle_alpha 90.000000
_cell_angle_beta 90.000000
_cell_angle_gamma 90.000000
_cell_volume 6465.662045
_symmetry_space_group_name_H-M "C M C M"
_symmetry_group_IT_number 63
_symmetry_cell_setting 'orthorhombic'
loop_
_space_group_symop_operation_xyz
x,y,z
-x,-y,1/2+z
x,-y,-z
-x,y,1/2-z
-x,-y,-z
x,y,1/2-z
-x,y,z
x,-y,1/2+z
1/2+x,1/2+y,z
1/2-x,1/2-y,1/2+z
1/2+x,1/2-y,-z
1/2-x,1/2+y,1/2-z
1/2-x,1/2-y,-z
1/2+x,1/2+y,1/2-z
1/2-x,1/2+y,z
1/2+x,1/2-y,1/2+z
loop_
_atom_site_type_symbol
_atom_site_label
_atom_site_fract_x
_atom_site_fract_y
_atom_site_fract_z
Si Si1 0.196733 0.475824 0.053918
Si Si2 0.697166 0.099396 0.374820
Si Si3 0.199820 0.311378 0.472728
Si Si4 0.704518 0.266542 0.585524
Si Si5 0.203743 0.180032 0.313744
Si Si6 0.687959 0.484573 0.664043
Si Si7 0.000000 0.495198 0.750000
Si Si8 0.695514 0.603500 0.503134
O O1 0.293877 0.489642 0.108187
O O2 0.000000 0.485945 0.061921
O O3 0.257639 0.500000 0.000000
O O4 0.215319 0.430206 0.038756
O O5 0.500000 0.091740 0.366500
O O6 0.745528 0.138549 0.341086
O O7 0.730989 0.105185 0.440507
O O8 0.795086 0.061342 0.353028
O O9 0.233848 0.293261 0.534079
O O10 0.258084 0.277927 0.429106
O O11 0.285033 0.353595 0.469939
O O12 0.000000 0.316802 0.466281
O O13 0.500000 0.267201 0.584014
O O14 0.760382 0.285656 0.643713
O O15 0.264556 0.183555 0.250000
O O16 0.000000 0.181271 0.312511
O O17 0.500000 0.490898 0.687274
O O18 0.848388 0.494044 0.702299
O O19 0.500000 0.593124 0.498397
#
# Coordination Sequence:
#
# PCOD9470493 Si02
#       8
#    16  16  16  16  16  16   4  16
#     4  11  22  39  62  91 124 157 195 250 315 375
#     4  12  23  37  53  82 121 159 197 243 293 357
#     4  10  19  32  52  80 108 145 183 236 296 347
#     4   9  18  33  52  75 109 144 186 233 286 348
#     4  10  21  35  53  79 111 153 196 238 284 347
#     4  12  25  43  65  90 122 164 209 257 308 364
#     4  12  26  48  62  90 116 168 218 262 300 362
#     4  12  23  35  56  86 118 154 195 238 305 374
#
# _framework density 17.940930999999999
#
# number of rings (size 3 to 8) (size 9 to 14) (size 15 to 20)
#    0.000    1.103    4.138    3.517    0.966    1.379 
#    0.000    0.000    0.000    0.000    1.793    0.000 
#    0.000    0.000    0.000    0.000    0.000    0.000 
#
# Total GULP energy -323469.946012 kJ/mol
# GULP energy per Si atom -5577.068035 kJ/mol
# Density = 1.790010 g / cm^3
# Si number density = 17.940931 Si / 1000 Ang^3
#
#
#
# Elastic Constant Matrix: (Units=GPa)
#
#
# Indices 1 2 3 4 5 6 
#
# 1 88.0325 10.2125 32.7534 0.0000 0.0000 0.0000
# 2 10.2125 76.3090 52.9343 0.0000 0.0000 0.0000
# 3 32.7534 52.9343 131.0954 0.0000 0.0000 0.0000
# 4 0.0000 0.0000 0.0000 -2.3020 0.0000 0.0000
# 5 0.0000 0.0000 0.0000 0.0000 8.0833 0.0000
# 6 0.0000 0.0000 0.0000 0.0000 0.0000 24.2059
#
#
#
# Elastic Compliance Matrix: (Units=1/GPa)
#
#
# Indices 1 2 3 4 5 6 
#
# 1 0.012550 0.000688 -0.003413 0.000000 0.000000 0.000000
# 2 0.000688 0.018241 -0.007537 0.000000 0.000000 0.000000
# 3 -0.003413 -0.007537 0.011524 0.000000 0.000000 0.000000
# 4 0.000000 0.000000 0.000000 -0.434400 0.000000 0.000000
# 5 0.000000 0.000000 0.000000 0.000000 0.123712 0.000000
# 6 0.000000 0.000000 0.000000 0.000000 0.000000 0.041312
#
#
# Mechanical properties :
#
#
# Convention : Reuss Voigt Hill
#
# Bulk Modulus (GPa) = 45.89267 54.13748 50.01507
# Shear Modulus (GPa) = -25.09120 19.29988 -2.89566
#
# Velocity S-wave (km/s) = -3.74377 3.28341 -1.27181
# Velocity P-wave (km/s) = 2.63584 6.67947 5.07755
#
# Compressibility (1/GPa) = 0.02178997
#
# Stress axis : x y z
#
# Youngs Moduli (GPa) = 79.68396 54.82130 86.77290
#
# Poissons Ratio (x) = -0.03773 0.29619
# Poissons Ratio (y) = -0.05484 0.65404
# Poissons Ratio (z) = 0.27199 0.41321
#
# Static dielectric constant tensor:
#      x y z
#    x 1.636980 0.000000 0.000000 
#    y 0.000000 1.605420 0.000000 
#    z 0.000000 0.000000 1.602990 
# 
# From -- ./inp_files/60634.got.cif
#   From: 2010.05.17/outbox.cif.g08.bks.cpg/sg63_31_cif.got.tgz:60634.got - 2010.06.03 15:47:04.
