data_PCOD9470697
_publ_section_title
;
Structure prediction by ZEFSAII (Michael W. Deem and Ramdas Pophale) SiO2 
 PCOD9470697
Probable space group: C M C M
;
_chemical_formula_sum "Si O2"
_cell_formula_units_Z 88
_cell_length_a 7.797873
_cell_length_b 17.603782
_cell_length_c 33.047774
_cell_angle_alpha 90.000000
_cell_angle_beta 90.000000
_cell_angle_gamma 90.000000
_cell_volume 4536.535895
_symmetry_space_group_name_H-M "C M C M"
_symmetry_group_IT_number 63
_symmetry_cell_setting 'orthorhombic'
loop_
_space_group_symop_operation_xyz
x,y,z
-x,-y,1/2+z
x,-y,-z
-x,y,1/2-z
-x,-y,-z
x,y,1/2-z
-x,y,z
x,-y,1/2+z
1/2+x,1/2+y,z
1/2-x,1/2-y,1/2+z
1/2+x,1/2-y,-z
1/2-x,1/2+y,1/2-z
1/2-x,1/2-y,-z
1/2+x,1/2+y,1/2-z
1/2-x,1/2+y,z
1/2+x,1/2-y,1/2+z
loop_
_atom_site_type_symbol
_atom_site_label
_atom_site_fract_x
_atom_site_fract_y
_atom_site_fract_z
Si Si1 0.500000 0.164641 0.138009
Si Si2 0.799672 0.586897 0.501592
Si Si3 0.500000 0.031594 0.295645
Si Si4 0.303054 0.384006 0.582502
Si Si5 0.500000 0.289712 0.294033
Si Si6 0.695660 0.424934 0.321941
Si Si7 0.204309 0.935924 0.087356
O O1 0.332952 0.160460 0.109498
O O2 0.500000 0.236130 0.167501
O O3 0.500000 0.093456 0.168827
O O4 0.729498 0.500000 0.500000
O O5 0.711868 0.632786 0.465546
O O6 0.780643 0.607005 0.548635
O O7 0.000000 0.584465 0.491172
O O8 0.500000 0.062804 0.250000
O O9 0.331510 0.979809 0.301755
O O10 0.500000 0.375237 0.595503
O O11 0.253186 0.473852 0.586233
O O12 0.500000 0.252879 0.250000
O O13 0.661393 0.346930 0.298447
O O14 0.500000 0.459032 0.324447
O O15 0.752270 0.408564 0.368017
O O16 0.000000 0.929524 0.083096
#
# Coordination Sequence:
#
# PCOD9470697 Si02
#       7
#     8  16   8  16   8  16  16
#     4  12  23  38  60  88 123 153 197 249 300 352
#     4   9  16  24  46  81 122 156 190 241 286 337
#     4  12  23  36  65  94 112 144 197 255 304 351
#     4  10  19  33  52  84 123 159 195 240 296 342
#     4  10  23  46  64  81 121 162 193 241 308 369
#     4   9  21  39  62  86 115 155 194 243 293 353
#     4   9  16  29  51  84 115 151 196 243 286 337
#
# _framework density 19.398060000000001
#
# number of rings (size 3 to 8) (size 9 to 14) (size 15 to 20)
#    0.545    1.636    2.727    1.364    2.545    2.182 
#    1.636    0.000    0.000    2.182    0.000    0.000 
#    0.000    0.000    0.000    0.000    0.000    0.000 
#
# Total GULP energy -245145.640527 kJ/mol
# GULP energy per Si atom -5571.491830 kJ/mol
# Density = 1.935391 g / cm^3
# Si number density = 19.398060 Si / 1000 Ang^3
#
#
#
# Elastic Constant Matrix: (Units=GPa)
#
#
# Indices 1 2 3 4 5 6 
#
# 1 70.1412 5.7166 21.6294 0.0000 0.0000 0.0000
# 2 5.7166 15.3119 1.0543 0.0000 0.0000 0.0000
# 3 21.6294 1.0543 126.8394 0.0000 0.0000 0.0000
# 4 0.0000 0.0000 0.0000 -14.5385 0.0000 0.0000
# 5 0.0000 0.0000 0.0000 0.0000 34.6897 0.0000
# 6 0.0000 0.0000 0.0000 0.0000 0.0000 6.4502
#
#
#
# Elastic Compliance Matrix: (Units=1/GPa)
#
#
# Indices 1 2 3 4 5 6 
#
# 1 0.015516 -0.005614 -0.002599 0.000000 0.000000 0.000000
# 2 -0.005614 0.067377 0.000397 0.000000 0.000000 0.000000
# 3 -0.002599 0.000397 0.008324 0.000000 0.000000 0.000000
# 4 0.000000 0.000000 0.000000 -0.068783 0.000000 0.000000
# 5 0.000000 0.000000 0.000000 0.000000 0.028827 0.000000
# 6 0.000000 0.000000 0.000000 0.000000 0.000000 0.155033
#
#
# Mechanical properties :
#
#
# Convention : Reuss Voigt Hill
#
# Bulk Modulus (GPa) = 13.23005 29.89923 21.56464
# Shear Modulus (GPa) = 20.23300 17.57978 18.90639
#
# Velocity S-wave (km/s) = 3.23312 3.01369 3.12533
# Velocity P-wave (km/s) = 4.55769 5.24945 4.91575
#
# Compressibility (1/GPa) = 0.07558549
#
# Stress axis : x y z
#
# Youngs Moduli (GPa) = 64.44953 14.84184 120.13578
#
# Poissons Ratio (x) = 0.08332 0.31226
# Poissons Ratio (y) = 0.36181 -0.04773
# Poissons Ratio (z) = 0.16752 -0.00590
#
# Static dielectric constant tensor:
#      x y z
#    x 1.679160 0.000000 0.000000 
#    y 0.000000 1.676350 0.000000 
#    z 0.000000 0.000000 1.715730 
# 
# From -- ./inp_files/71727.got.cif
#   From: 2010.05.17/outbox.cif.g08.bks.cpg/sg63_36_cif.got.tgz:71727.got - 2010.06.03 15:47:04.
