data_PCOD9470745
_publ_section_title
;
Structure prediction by ZEFSAII (Michael W. Deem and Ramdas Pophale) SiO2 
 PCOD9470745
Probable space group: C M C M
;
_chemical_formula_sum "Si O2"
_cell_formula_units_Z 112
_cell_length_a 14.070151
_cell_length_b 29.966428
_cell_length_c 14.154518
_cell_angle_alpha 90.000000
_cell_angle_beta 90.000000
_cell_angle_gamma 90.000000
_cell_volume 5968.000096
_symmetry_space_group_name_H-M "C M C M"
_symmetry_group_IT_number 63
_symmetry_cell_setting 'orthorhombic'
loop_
_space_group_symop_operation_xyz
x,y,z
-x,-y,1/2+z
x,-y,-z
-x,y,1/2-z
-x,-y,-z
x,y,1/2-z
-x,y,z
x,-y,1/2+z
1/2+x,1/2+y,z
1/2-x,1/2-y,1/2+z
1/2+x,1/2-y,-z
1/2-x,1/2+y,1/2-z
1/2-x,1/2-y,-z
1/2+x,1/2+y,1/2-z
1/2-x,1/2+y,z
1/2+x,1/2-y,1/2+z
loop_
_atom_site_type_symbol
_atom_site_label
_atom_site_fract_x
_atom_site_fract_y
_atom_site_fract_z
Si Si1 0.746352 0.757567 0.139943
Si Si2 0.196481 0.982302 0.860709
Si Si3 0.612281 0.433293 0.031407
Si Si4 0.189604 0.855226 0.352391
Si Si5 0.606326 0.118822 0.591193
Si Si6 0.889389 0.706552 0.018677
Si Si7 0.104697 0.479753 0.361880
O O1 0.721304 0.752170 0.250000
O O2 0.810017 0.802583 0.130963
O O3 0.655443 0.767574 0.072919
O O4 0.814300 0.718947 0.099971
O O5 0.178211 0.975823 0.750000
O O6 0.153725 0.029559 0.896460
O O7 0.309007 0.987223 0.877838
O O8 0.153574 0.945301 0.929097
O O9 0.500000 0.438070 0.029348
O O10 0.642485 0.385059 0.068059
O O11 0.146642 0.865572 0.250000
O O12 0.301203 0.867993 0.350085
O O13 0.500000 0.125852 0.632582
O O14 0.612150 0.153628 0.504761
O O15 0.614532 0.065696 0.578367
O O16 0.000000 0.718767 0.035402
O O17 0.110197 0.466478 0.250000
O O18 0.000000 0.498803 0.378278
#
# Coordination Sequence:
#
# PCOD9470745 Si02
#       7
#    16  16  16  16  16  16  16
#     4   9  19  34  54  81 111 143 180 222 271 322
#     4  10  20  36  54  73 101 134 170 215 264 313
#     4  11  23  35  50  75 102 134 179 225 262 304
#     4  10  19  33  53  78 107 136 169 218 273 315
#     4   9  16  28  50  78 106 135 165 201 256 319
#     4   9  18  32  51  80 114 145 176 216 263 319
#     4   9  16  28  51  82 109 132 163 208 262 316
#
# _framework density 18.766756999999998
#
# number of rings (size 3 to 8) (size 9 to 14) (size 15 to 20)
#    0.000    2.429    1.429    1.714    0.000    4.571 
#    0.000    7.857    0.000    7.714    0.000    6.000 
#    0.000    0.000    0.000    0.000    0.000    0.000 
#
# Total GULP energy -312069.460530 kJ/mol
# GULP energy per Si atom -5572.668938 kJ/mol
# Density = 1.872404 g / cm^3
# Si number density = 18.766757 Si / 1000 Ang^3
#
#
#
# Elastic Constant Matrix: (Units=GPa)
#
#
# Indices 1 2 3 4 5 6 
#
# 1 97.6373 17.3738 22.0361 0.0000 0.0000 0.0000
# 2 17.3738 20.6624 16.9744 0.0000 0.0000 0.0000
# 3 22.0361 16.9744 79.1400 0.0000 0.0000 0.0000
# 4 0.0000 0.0000 0.0000 11.3913 0.0000 0.0000
# 5 0.0000 0.0000 0.0000 0.0000 167.7787 0.0000
# 6 0.0000 0.0000 0.0000 0.0000 0.0000 19.7663
#
#
#
# Elastic Compliance Matrix: (Units=1/GPa)
#
#
# Indices 1 2 3 4 5 6 
#
# 1 0.012180 -0.009050 -0.001450 0.000000 0.000000 0.000000
# 2 -0.009050 0.065473 -0.011523 0.000000 0.000000 0.000000
# 3 -0.001450 -0.011523 0.015511 0.000000 0.000000 0.000000
# 4 0.000000 0.000000 0.000000 0.087786 0.000000 0.000000
# 5 0.000000 0.000000 0.000000 0.000000 0.005960 0.000000
# 6 0.000000 0.000000 0.000000 0.000000 0.000000 0.050591
#
#
# Mechanical properties :
#
#
# Convention : Reuss Voigt Hill
#
# Bulk Modulus (GPa) = 20.35943 34.46759 27.41351
# Shear Modulus (GPa) = 16.78305 49.19097 32.98701
#
# Velocity S-wave (km/s) = 2.99372 5.12530 4.19708
# Velocity P-wave (km/s) = 4.77724 7.30965 6.17467
#
# Compressibility (1/GPa) = 0.04911729
#
# Stress axis : x y z
#
# Youngs Moduli (GPa) = 82.10421 15.27353 64.46943
#
# Poissons Ratio (x) = 0.13822 0.09350
# Poissons Ratio (y) = 0.74302 0.74289
# Poissons Ratio (z) = 0.11908 0.17600
#
# Static dielectric constant tensor:
#      x y z
#    x 1.660010 0.000000 0.000000 
#    y 0.000000 1.656940 0.000000 
#    z 0.000000 0.000000 1.685660 
# 
# From -- ./inp_files/32773.got.cif
#   From: 2010.05.17/outbox.cif.g08.bks.cpg/sg63_17_cif.got.tgz:32773.got - 2010.06.03 15:47:04.
