data_PCOD9470127
_publ_section_title
;
Structure prediction by ZEFSAII (Michael W. Deem and Ramdas Pophale) SiO2 
 PCOD9470127
Probable space group: C M C M
;
_chemical_formula_sum "Si O2"
_cell_formula_units_Z 96
_cell_length_a 8.870525
_cell_length_b 24.352271
_cell_length_c 26.385154
_cell_angle_alpha 90.000000
_cell_angle_beta 90.000000
_cell_angle_gamma 90.000000
_cell_volume 5699.653123
_symmetry_space_group_name_H-M "C M C M"
_symmetry_group_IT_number 63
_symmetry_cell_setting 'orthorhombic'
loop_
_space_group_symop_operation_xyz
x,y,z
-x,-y,1/2+z
x,-y,-z
-x,y,1/2-z
-x,-y,-z
x,y,1/2-z
-x,y,z
x,-y,1/2+z
1/2+x,1/2+y,z
1/2-x,1/2-y,1/2+z
1/2+x,1/2-y,-z
1/2-x,1/2+y,1/2-z
1/2-x,1/2-y,-z
1/2+x,1/2+y,1/2-z
1/2-x,1/2+y,z
1/2+x,1/2-y,1/2+z
loop_
_atom_site_type_symbol
_atom_site_label
_atom_site_fract_x
_atom_site_fract_y
_atom_site_fract_z
Si Si1 0.826117 0.925898 0.468649
Si Si2 0.826210 0.170883 0.885743
Si Si3 0.680424 0.995440 0.612335
Si Si4 0.678250 0.733581 0.445615
Si Si5 0.318448 0.421664 0.190577
Si Si6 0.178053 0.383433 0.569344
O O1 0.824555 0.873481 0.431258
O O2 0.723307 0.911092 0.516010
O O3 0.000000 0.935258 0.483824
O O4 0.761757 0.975617 0.435423
O O5 0.728101 0.221629 0.904183
O O6 0.775233 0.135445 0.837174
O O7 0.000000 0.188539 0.878311
O O8 0.500000 0.001970 0.607352
O O9 0.714409 0.930533 0.610532
O O10 0.739336 0.028525 0.661003
O O11 0.500000 0.733129 0.452176
O O12 0.750000 0.750000 0.500000
O O13 0.734813 0.673733 0.428701
O O14 0.285360 0.421294 0.250000
O O15 0.500000 0.426891 0.183436
O O16 0.000000 0.372454 0.570626
#
# Coordination Sequence:
#
# PCOD9470127 Si02
#       6
#    16  16  16  16  16  16
#     4  10  19  31  50  74 104 142 178 214 257 309
#     4   9  18  33  52  77 107 137 175 218 261 312
#     4  10  21  34  50  76 107 138 174 218 265 313
#     4  12  23  34  51  74 105 145 184 220 261 311
#     4   9  19  37  61  84 105 133 171 218 271 323
#     4  11  22  34  49  71 105 145 181 216 257 308
#
# _framework density 16.843129999999999
#
# number of rings (size 3 to 8) (size 9 to 14) (size 15 to 20)
#    0.000    1.833    1.667    4.500    0.000    7.667 
#    0.000    0.000    0.000    1.000    0.000    2.333 
#    0.000    0.000    0.000    0.000    0.000    0.000 
#
# Total GULP energy -267921.022365 kJ/mol
# GULP energy per Si atom -5581.687966 kJ/mol
# Density = 1.680479 g / cm^3
# Si number density = 16.843130 Si / 1000 Ang^3
#
#
#
# Elastic Constant Matrix: (Units=GPa)
#
#
# Indices 1 2 3 4 5 6 
#
# 1 89.2249 66.4338 29.8899 0.0000 0.0000 0.0000
# 2 66.4338 142.2426 48.3282 0.0000 0.0000 0.0000
# 3 29.8899 48.3282 68.8429 0.0000 0.0000 0.0000
# 4 0.0000 0.0000 0.0000 6.1422 0.0000 0.0000
# 5 0.0000 0.0000 0.0000 0.0000 21.3615 0.0000
# 6 0.0000 0.0000 0.0000 0.0000 0.0000 28.8938
#
#
#
# Elastic Compliance Matrix: (Units=1/GPa)
#
#
# Indices 1 2 3 4 5 6 
#
# 1 0.017490 -0.007339 -0.002442 0.000000 0.000000 0.000000
# 2 -0.007339 0.012312 -0.005457 0.000000 0.000000 0.000000
# 3 -0.002442 -0.005457 0.019416 0.000000 0.000000 0.000000
# 4 0.000000 0.000000 0.000000 0.162808 0.000000 0.000000
# 5 0.000000 0.000000 0.000000 0.000000 0.046813 0.000000
# 6 0.000000 0.000000 0.000000 0.000000 0.000000 0.034610
#
#
# Mechanical properties :
#
#
# Convention : Reuss Voigt Hill
#
# Bulk Modulus (GPa) = 53.35109 65.51270 59.43189
# Shear Modulus (GPa) = 15.14362 21.65672 18.40017
#
# Velocity S-wave (km/s) = 3.00175 3.58968 3.30880
# Velocity P-wave (km/s) = 6.61499 7.49409 7.06822
#
# Compressibility (1/GPa) = 0.01874376
#
# Stress axis : x y z
#
# Youngs Moduli (GPa) = 57.17555 81.22273 51.50266
#
# Poissons Ratio (x) = 0.59610 0.12575
# Poissons Ratio (y) = 0.41961 0.28103
# Poissons Ratio (z) = 0.13960 0.44320
#
# Static dielectric constant tensor:
#      x y z
#    x 1.569910 0.000000 0.000000 
#    y 0.000000 1.588230 0.000000 
#    z 0.000000 0.000000 1.553790 
# 
# From -- ./inp_files/67003.got.cif
#   From: 2010.05.17/outbox.cif.g08.bks.cpg/sg63_34_cif.got.tgz:67003.got - 2010.06.03 15:47:04.
