data_PCOD9470654
_publ_section_title
;
Structure prediction by ZEFSAII (Michael W. Deem and Ramdas Pophale) SiO2 
 PCOD9470654
Probable space group: C M C M
;
_chemical_formula_sum "Si O2"
_cell_formula_units_Z 96
_cell_length_a 21.679281
_cell_length_b 8.528409
_cell_length_c 23.731874
_cell_angle_alpha 90.000000
_cell_angle_beta 90.000000
_cell_angle_gamma 90.000000
_cell_volume 4387.780849
_symmetry_space_group_name_H-M "C M C M"
_symmetry_group_IT_number 63
_symmetry_cell_setting 'orthorhombic'
loop_
_space_group_symop_operation_xyz
x,y,z
-x,-y,1/2+z
x,-y,-z
-x,y,1/2-z
-x,-y,-z
x,y,1/2-z
-x,y,z
x,-y,1/2+z
1/2+x,1/2+y,z
1/2-x,1/2-y,1/2+z
1/2+x,1/2-y,-z
1/2-x,1/2+y,1/2-z
1/2-x,1/2-y,-z
1/2+x,1/2+y,1/2-z
1/2-x,1/2+y,z
1/2+x,1/2-y,1/2+z
loop_
_atom_site_type_symbol
_atom_site_label
_atom_site_fract_x
_atom_site_fract_y
_atom_site_fract_z
Si Si1 0.212164 0.870275 0.038831
Si Si2 0.815749 0.590122 0.619033
Si Si3 0.925854 0.276030 0.750000
Si Si4 0.926491 0.358557 0.250000
Si Si5 0.759222 0.117917 0.314354
Si Si6 0.426865 0.725589 0.129098
Si Si7 0.865887 0.100799 0.855914
O O1 0.268435 0.957899 0.070617
O O2 0.164048 0.820161 0.087931
O O3 0.250000 0.750000 0.000000
O O4 0.179822 0.000000 0.000000
O O5 0.785001 0.746822 0.645588
O O6 0.805562 0.454703 0.665033
O O7 0.882549 0.647609 0.598466
O O8 0.909807 0.460081 0.750000
O O9 0.000000 0.261031 0.750000
O O10 0.901620 0.196813 0.807904
O O11 0.908527 0.267846 0.193875
O O12 0.000000 0.355279 0.250000
O O13 0.756249 0.169810 0.250000
O O14 0.808691 0.978705 0.322495
O O15 0.500000 0.747612 0.120814
O O16 0.407231 0.545514 0.121831
#
# Coordination Sequence:
#
# PCOD9470654 Si02
#       7
#    16  16   8   8  16  16  16
#     4  11  23  43  65  90 128 168 224 286 334 385
#     4  10  22  35  57  88 112 163 212 259 338 388
#     4  11  21  37  60  95 142 177 215 271 340 425
#     4   9  21  33  50  83 124 175 210 247 314 385
#     4  10  19  33  51  82 127 155 202 265 321 396
#     4  10  20  37  57  84 125 168 216 263 315 401
#     4  10  21  37  62  93 123 178 222 265 338 403
#
# _framework density 21.878941999999999
#
# number of rings (size 3 to 8) (size 9 to 14) (size 15 to 20)
#    0.000    1.833    0.833    4.500    4.667    4.667 
#    0.000    0.000    0.000    9.500    0.000    0.000 
#    0.000    0.000    0.000    0.000    0.000    0.000 
#
# Total GULP energy -267800.846734 kJ/mol
# GULP energy per Si atom -5579.184307 kJ/mol
# Density = 2.182914 g / cm^3
# Si number density = 21.878942 Si / 1000 Ang^3
#
#
#
# Elastic Constant Matrix: (Units=GPa)
#
#
# Indices 1 2 3 4 5 6 
#
# 1 136.1902 37.8451 26.5043 0.0000 0.0000 0.0000
# 2 37.8451 63.4520 33.0064 0.0000 0.0000 0.0000
# 3 26.5043 33.0064 95.6748 0.0000 0.0000 0.0000
# 4 0.0000 0.0000 0.0000 36.9329 0.0000 0.0000
# 5 0.0000 0.0000 0.0000 0.0000 24.8831 0.0000
# 6 0.0000 0.0000 0.0000 0.0000 0.0000 41.9102
#
#
#
# Elastic Compliance Matrix: (Units=1/GPa)
#
#
# Indices 1 2 3 4 5 6 
#
# 1 0.008848 -0.004877 -0.000768 0.000000 0.000000 0.000000
# 2 -0.004877 0.021895 -0.006202 0.000000 0.000000 0.000000
# 3 -0.000768 -0.006202 0.012805 0.000000 0.000000 0.000000
# 4 0.000000 0.000000 0.000000 0.027076 0.000000 0.000000
# 5 0.000000 0.000000 0.000000 0.000000 0.040188 0.000000
# 6 0.000000 0.000000 0.000000 0.000000 0.000000 0.023861
#
#
# Mechanical properties :
#
#
# Convention : Reuss Voigt Hill
#
# Bulk Modulus (GPa) = 50.37453 54.44762 52.41108
# Shear Modulus (GPa) = 30.30571 33.94266 32.12418
#
# Velocity S-wave (km/s) = 3.72580 3.94304 3.83596
# Velocity P-wave (km/s) = 6.44849 6.75795 6.60503
#
# Compressibility (1/GPa) = 0.01985130
#
# Stress axis : x y z
#
# Youngs Moduli (GPa) = 113.02593 45.67190 78.09641
#
# Poissons Ratio (x) = 0.22275 0.06001
# Poissons Ratio (y) = 0.55126 0.48439
# Poissons Ratio (z) = 0.08685 0.28328
#
# Static dielectric constant tensor:
#      x y z
#    x 1.834620 0.000000 0.000000 
#    y 0.000000 1.853510 0.000000 
#    z 0.000000 0.000000 1.918480 
# 
# From -- ./inp_files/65034.got.cif
#   From: 2010.05.17/outbox.cif.g08.bks.cpg/sg63_33_cif.got.tgz:65034.got - 2010.06.03 15:47:04.
