data_PCOD9470373
_publ_section_title
;
Structure prediction by ZEFSAII (Michael W. Deem and Ramdas Pophale) SiO2 
 PCOD9470373
Probable space group: C M C M
;
_chemical_formula_sum "Si O2"
_cell_formula_units_Z 88
_cell_length_a 25.353430
_cell_length_b 24.633905
_cell_length_c 9.212821
_cell_angle_alpha 90.000000
_cell_angle_beta 90.000000
_cell_angle_gamma 90.000000
_cell_volume 5753.904078
_symmetry_space_group_name_H-M "C M C M"
_symmetry_group_IT_number 63
_symmetry_cell_setting 'orthorhombic'
loop_
_space_group_symop_operation_xyz
x,y,z
-x,-y,1/2+z
x,-y,-z
-x,y,1/2-z
-x,-y,-z
x,y,1/2-z
-x,y,z
x,-y,1/2+z
1/2+x,1/2+y,z
1/2-x,1/2-y,1/2+z
1/2+x,1/2-y,-z
1/2-x,1/2+y,1/2-z
1/2-x,1/2-y,-z
1/2+x,1/2+y,1/2-z
1/2-x,1/2+y,z
1/2+x,1/2-y,1/2+z
loop_
_atom_site_type_symbol
_atom_site_label
_atom_site_fract_x
_atom_site_fract_y
_atom_site_fract_z
Si Si1 0.827296 0.265195 0.580570
Si Si2 0.061847 0.223913 0.920243
Si Si3 0.000000 0.944754 0.417551
Si Si4 0.798364 0.941446 0.579726
Si Si5 0.087750 0.116321 0.416707
Si Si6 0.744594 0.338387 0.422331
O O1 0.813984 0.275613 0.750000
O O2 0.890594 0.267054 0.565907
O O3 0.795875 0.306847 0.480515
O O4 0.803545 0.204650 0.548806
O O5 0.064855 0.205079 0.750000
O O6 0.000000 0.238275 0.944925
O O7 0.080460 0.178074 0.032900
O O8 0.050717 0.913083 0.469423
O O9 0.000000 0.953890 0.250000
O O10 0.000000 0.000000 0.500000
O O11 0.785147 0.948588 0.750000
O O12 0.855728 0.912412 0.573203
O O13 0.762606 0.895681 0.502676
O O14 0.798399 0.000000 0.500000
O O15 0.069782 0.110353 0.250000
O O16 0.746270 0.346868 0.250000
#
# Coordination Sequence:
#
# PCOD9470373 Si02
#       6
#    16  16   8  16  16  16
#     4   9  18  32  50  73 100 129 165 206 250 299
#     4  10  19  32  51  73  98 132 167 206 251 294
#     4  12  24  36  48  60  82 118 164 212 253 290
#     4  11  23  36  51  71  98 129 165 208 253 300
#     4  11  22  34  48  68  92 124 165 207 249 292
#     4  10  19  32  52  74  97 128 166 206 252 300
#
# _framework density 15.293963
#
# number of rings (size 3 to 8) (size 9 to 14) (size 15 to 20)
#    0.000    1.636    2.727    3.000    0.000    5.091 
#    0.000    0.000    0.000    0.000    0.000    0.000 
#    0.000    0.727    0.000    2.000    0.000    2.909 
#
# Total GULP energy -245125.971850 kJ/mol
# GULP energy per Si atom -5571.044815 kJ/mol
# Density = 1.525915 g / cm^3
# Si number density = 15.293963 Si / 1000 Ang^3
#
#
#
# Elastic Constant Matrix: (Units=GPa)
#
#
# Indices 1 2 3 4 5 6 
#
# 1 83.4575 37.6936 45.3313 0.0000 0.0000 0.0000
# 2 37.6936 60.3597 48.5650 0.0000 0.0000 0.0000
# 3 45.3313 48.5650 107.5535 0.0000 0.0000 0.0000
# 4 0.0000 0.0000 0.0000 26.6619 0.0000 0.0000
# 5 0.0000 0.0000 0.0000 0.0000 37.6602 0.0000
# 6 0.0000 0.0000 0.0000 0.0000 0.0000 18.3226
#
#
#
# Elastic Compliance Matrix: (Units=1/GPa)
#
#
# Indices 1 2 3 4 5 6 
#
# 1 0.017658 -0.007914 -0.003869 0.000000 0.000000 0.000000
# 2 -0.007914 0.029568 -0.010016 0.000000 0.000000 0.000000
# 3 -0.003869 -0.010016 0.015451 0.000000 0.000000 0.000000
# 4 0.000000 0.000000 0.000000 0.037507 0.000000 0.000000
# 5 0.000000 0.000000 0.000000 0.000000 0.026553 0.000000
# 6 0.000000 0.000000 0.000000 0.000000 0.000000 0.054577
#
#
# Mechanical properties :
#
#
# Convention : Reuss Voigt Hill
#
# Bulk Modulus (GPa) = 52.41211 57.17229 54.79220
# Shear Modulus (GPa) = 21.61961 24.51434 23.06697
#
# Velocity S-wave (km/s) = 3.76387 4.00794 3.88782
# Velocity P-wave (km/s) = 7.29611 7.67343 7.48714
#
# Compressibility (1/GPa) = 0.01907956
#
# Stress axis : x y z
#
# Youngs Moduli (GPa) = 56.63142 33.82014 64.72160
#
# Poissons Ratio (x) = 0.26766 0.25040
# Poissons Ratio (y) = 0.44820 0.64823
# Poissons Ratio (z) = 0.21910 0.33873
#
# Static dielectric constant tensor:
#      x y z
#    x 1.537230 0.000000 0.000000 
#    y 0.000000 1.473730 0.000000 
#    z 0.000000 0.000000 1.514200 
# 
# From -- ./inp_files/10192.got.cif
#   From: 2010.05.17/outbox.cif.g08.bks.cpg/sg63_6_cif.got.tgz:10192.got - 2010.06.03 15:47:04.
