data_PCOD9470721
_publ_section_title
;
Structure prediction by ZEFSAII (Michael W. Deem and Ramdas Pophale) SiO2 
 PCOD9470721
Probable space group: C M C M
;
_chemical_formula_sum "Si O2"
_cell_formula_units_Z 88
_cell_length_a 31.868639
_cell_length_b 18.299809
_cell_length_c 8.428481
_cell_angle_alpha 90.000000
_cell_angle_beta 90.000000
_cell_angle_gamma 90.000000
_cell_volume 4915.405892
_symmetry_space_group_name_H-M "C M C M"
_symmetry_group_IT_number 63
_symmetry_cell_setting 'orthorhombic'
loop_
_space_group_symop_operation_xyz
x,y,z
-x,-y,1/2+z
x,-y,-z
-x,y,1/2-z
-x,-y,-z
x,y,1/2-z
-x,y,z
x,-y,1/2+z
1/2+x,1/2+y,z
1/2-x,1/2-y,1/2+z
1/2+x,1/2-y,-z
1/2-x,1/2+y,1/2-z
1/2-x,1/2-y,-z
1/2+x,1/2+y,1/2-z
1/2-x,1/2+y,z
1/2+x,1/2-y,1/2+z
loop_
_atom_site_type_symbol
_atom_site_label
_atom_site_fract_x
_atom_site_fract_y
_atom_site_fract_z
Si Si1 0.881016 0.304293 0.061479
Si Si2 0.547706 0.083235 0.557764
Si Si3 0.586025 0.652173 0.559236
Si Si4 0.203722 0.766524 0.560602
Si Si5 0.328614 0.579018 0.561959
Si Si6 0.000000 0.081889 0.941162
O O1 0.877391 0.316760 0.250000
O O2 0.913413 0.366246 0.000266
O O3 0.833316 0.288748 0.000045
O O4 0.902722 0.226844 0.027239
O O5 0.548209 0.084314 0.750000
O O6 0.500000 0.107132 0.509030
O O7 0.552961 0.000000 0.500000
O O8 0.585861 0.665171 0.750000
O O9 0.622139 0.592750 0.527534
O O10 0.541570 0.622831 0.505562
O O11 0.203141 0.761778 0.750000
O O12 0.250000 0.750000 0.500000
O O13 0.192819 0.849470 0.511620
O O14 0.315128 0.500000 0.500000
O O15 0.322345 0.581486 0.750000
O O16 0.000000 0.081571 0.750000
O O17 0.000000 0.000000 0.000000
#
# Coordination Sequence:
#
# PCOD9470721 Si02
#       6
#    16  16  16  16  16   8
#     4   9  19  34  53  76 101 132 171 213 255 306
#     4   9  18  33  52  76 105 136 171 211 257 309
#     4   9  19  32  47  70 101 134 170 210 250 295
#     4  10  20  36  56  78 105 136 172 216 267 318
#     4  10  19  33  53  76 102 134 172 213 257 307
#     4  10  20  32  44  66  99 134 169 206 245 288
#
# _framework density 17.902895999999998
#
# number of rings (size 3 to 8) (size 9 to 14) (size 15 to 20)
#    0.000    2.545    0.000    1.636    1.273    2.909 
#    0.000    0.909    0.000    2.182    0.000    0.000 
#    0.000    0.000    0.000    0.000    0.000    0.000 
#
# Total GULP energy -245135.926027 kJ/mol
# GULP energy per Si atom -5571.271046 kJ/mol
# Density = 1.786215 g / cm^3
# Si number density = 17.902896 Si / 1000 Ang^3
#
#
#
# Elastic Constant Matrix: (Units=GPa)
#
#
# Indices 1 2 3 4 5 6 
#
# 1 168.8482 69.6706 26.8861 0.0000 0.0000 0.0000
# 2 69.6706 83.3508 14.5635 0.0000 0.0000 0.0000
# 3 26.8861 14.5635 12.6835 0.0000 0.0000 0.0000
# 4 0.0000 0.0000 0.0000 30.1136 0.0000 0.0000
# 5 0.0000 0.0000 0.0000 0.0000 19.8017 0.0000
# 6 0.0000 0.0000 0.0000 0.0000 0.0000 18.1123
#
#
#
# Elastic Compliance Matrix: (Units=1/GPa)
#
#
# Indices 1 2 3 4 5 6 
#
# 1 0.011203 -0.006524 -0.016257 0.000000 0.000000 0.000000
# 2 -0.006524 0.018807 -0.007766 0.000000 0.000000 0.000000
# 3 -0.016257 -0.007766 0.122221 0.000000 0.000000 0.000000
# 4 0.000000 0.000000 0.000000 0.033208 0.000000 0.000000
# 5 0.000000 0.000000 0.000000 0.000000 0.050501 0.000000
# 6 0.000000 0.000000 0.000000 0.000000 0.000000 0.055211
#
#
# Mechanical properties :
#
#
# Convention : Reuss Voigt Hill
#
# Bulk Modulus (GPa) = 10.97249 54.12476 32.54863
# Shear Modulus (GPa) = 13.06767 23.85632 18.46200
#
# Velocity S-wave (km/s) = 2.70463 3.65436 3.21476
# Velocity P-wave (km/s) = 3.98693 6.93569 5.65683
#
# Compressibility (1/GPa) = 0.09113700
#
# Stress axis : x y z
#
# Youngs Moduli (GPa) = 89.26230 53.17030 8.18193
#
# Poissons Ratio (x) = 0.34687 0.13301
# Poissons Ratio (y) = 0.58232 0.06354
# Poissons Ratio (z) = 1.45112 0.41294
#
# Static dielectric constant tensor:
#      x y z
#    x 1.647680 0.000000 0.000000 
#    y 0.000000 1.574220 0.000000 
#    z 0.000000 0.000000 1.621140 
# 
# From -- ./inp_files/14142.got.cif
#   From: 2010.05.17/outbox.cif.g08.bks.cpg/sg63_8_cif.got.tgz:14142.got - 2010.06.03 15:47:04.
