data_PCOD9470780
_publ_section_title
;
Structure prediction by ZEFSAII (Michael W. Deem and Ramdas Pophale) SiO2 
 PCOD9470780
Probable space group: C M C M
;
_chemical_formula_sum "Si O2"
_cell_formula_units_Z 96
_cell_length_a 13.836108
_cell_length_b 23.289926
_cell_length_c 18.640922
_cell_angle_alpha 90.000000
_cell_angle_beta 90.000000
_cell_angle_gamma 90.000000
_cell_volume 6006.886709
_symmetry_space_group_name_H-M "C M C M"
_symmetry_group_IT_number 63
_symmetry_cell_setting 'orthorhombic'
loop_
_space_group_symop_operation_xyz
x,y,z
-x,-y,1/2+z
x,-y,-z
-x,y,1/2-z
-x,-y,-z
x,y,1/2-z
-x,y,z
x,-y,1/2+z
1/2+x,1/2+y,z
1/2-x,1/2-y,1/2+z
1/2+x,1/2-y,-z
1/2-x,1/2+y,1/2-z
1/2-x,1/2-y,-z
1/2+x,1/2+y,1/2-z
1/2-x,1/2+y,z
1/2+x,1/2-y,1/2+z
loop_
_atom_site_type_symbol
_atom_site_label
_atom_site_fract_x
_atom_site_fract_y
_atom_site_fract_z
Si Si1 0.113607 0.088313 0.833377
Si Si2 0.114117 0.311482 0.591451
Si Si3 0.775893 0.207680 0.665728
Si Si4 0.276723 0.029894 0.923528
Si Si5 0.614921 0.067056 0.165526
Si Si6 0.385986 0.848862 0.071866
O O1 0.130868 0.071694 0.750000
O O2 0.150810 0.153739 0.840498
O O3 0.178058 0.050449 0.886256
O O4 0.000000 0.084502 0.847866
O O5 0.178834 0.261252 0.623973
O O6 0.138135 0.371875 0.629478
O O7 0.127057 0.320346 0.506433
O O8 0.000000 0.299703 0.605088
O O9 0.763814 0.220579 0.750000
O O10 0.676644 0.186113 0.629658
O O11 0.343488 0.086571 0.931337
O O12 0.328996 0.984044 0.872671
O O13 0.261596 0.000000 0.000000
O O14 0.635424 0.068885 0.250000
O O15 0.500000 0.057949 0.155804
O O16 0.500000 0.850304 0.088147
#
# Coordination Sequence:
#
# PCOD9470780 Si02
#       6
#    16  16  16  16  16  16
#     4   9  19  35  53  74 100 131 170 216 261 304
#     4  10  19  33  54  78 104 135 173 217 264 309
#     4  10  20  34  54  78 103 133 171 216 264 311
#     4  11  20  33  53  76 106 140 173 212 259 309
#     4  10  20  32  50  78 107 137 175 215 256 306
#     4  10  21  35  53  77 107 141 175 212 258 312
#
# _framework density 15.981655999999999
#
# number of rings (size 3 to 8) (size 9 to 14) (size 15 to 20)
#    0.000    2.000    1.667    2.500    0.000    3.667 
#    0.000    0.000    0.000    1.000    0.000    0.000 
#    0.000    0.000    0.000    0.000    0.000    0.000 
#
# Total GULP energy -267882.638593 kJ/mol
# GULP energy per Si atom -5580.888304 kJ/mol
# Density = 1.594528 g / cm^3
# Si number density = 15.981656 Si / 1000 Ang^3
#
#
#
# Elastic Constant Matrix: (Units=GPa)
#
#
# Indices 1 2 3 4 5 6 
#
# 1 108.6904 60.3922 60.0829 0.0000 0.0000 0.0000
# 2 60.3922 88.0638 42.9843 0.0000 0.0000 0.0000
# 3 60.0829 42.9843 63.0483 0.0000 0.0000 0.0000
# 4 0.0000 0.0000 0.0000 7.1401 0.0000 0.0000
# 5 0.0000 0.0000 0.0000 0.0000 26.0565 0.0000
# 6 0.0000 0.0000 0.0000 0.0000 0.0000 18.6126
#
#
#
# Elastic Compliance Matrix: (Units=1/GPa)
#
#
# Indices 1 2 3 4 5 6 
#
# 1 0.022218 -0.007347 -0.016164 0.000000 0.000000 0.000000
# 2 -0.007347 0.019448 -0.006258 0.000000 0.000000 0.000000
# 3 -0.016164 -0.006258 0.035531 0.000000 0.000000 0.000000
# 4 0.000000 0.000000 0.000000 0.140055 0.000000 0.000000
# 5 0.000000 0.000000 0.000000 0.000000 0.038378 0.000000
# 6 0.000000 0.000000 0.000000 0.000000 0.000000 0.053727
#
#
# Mechanical properties :
#
#
# Convention : Reuss Voigt Hill
#
# Bulk Modulus (GPa) = 56.62632 65.19125 60.90879
# Shear Modulus (GPa) = 13.34111 16.78470 15.06291
#
# Velocity S-wave (km/s) = 2.89238 3.24427 3.07337
# Velocity P-wave (km/s) = 6.83107 7.41037 7.12661
#
# Compressibility (1/GPa) = 0.01765963
#
# Stress axis : x y z
#
# Youngs Moduli (GPa) = 45.00860 51.41878 28.14426
#
# Poissons Ratio (x) = 0.37776 0.45493
# Poissons Ratio (y) = 0.33067 0.17612
# Poissons Ratio (z) = 0.72753 0.32177
#
# Static dielectric constant tensor:
#      x y z
#    x 1.508740 0.000000 0.000000 
#    y 0.000000 1.507670 0.000000 
#    z 0.000000 0.000000 1.525440 
# 
# From -- ./inp_files/31867.got.cif
#   From: 2010.05.17/outbox.cif.g08.bks.cpg/sg63_16_cif.got.tgz:31867.got - 2010.06.03 15:47:04.
