data_PCOD9470292
_publ_section_title
;
Structure prediction by ZEFSAII (Michael W. Deem and Ramdas Pophale) SiO2 
 PCOD9470292
Probable space group: C M C M
;
_chemical_formula_sum "Si O2"
_cell_formula_units_Z 96
_cell_length_a 13.486728
_cell_length_b 13.071166
_cell_length_c 33.363045
_cell_angle_alpha 90.000000
_cell_angle_beta 90.000000
_cell_angle_gamma 90.000000
_cell_volume 5881.479804
_symmetry_space_group_name_H-M "C M C M"
_symmetry_group_IT_number 63
_symmetry_cell_setting 'orthorhombic'
loop_
_space_group_symop_operation_xyz
x,y,z
-x,-y,1/2+z
x,-y,-z
-x,y,1/2-z
-x,-y,-z
x,y,1/2-z
-x,y,z
x,-y,1/2+z
1/2+x,1/2+y,z
1/2-x,1/2-y,1/2+z
1/2+x,1/2-y,-z
1/2-x,1/2+y,1/2-z
1/2-x,1/2-y,-z
1/2+x,1/2+y,1/2-z
1/2-x,1/2+y,z
1/2+x,1/2-y,1/2+z
loop_
_atom_site_type_symbol
_atom_site_label
_atom_site_fract_x
_atom_site_fract_y
_atom_site_fract_z
Si Si1 0.384954 0.813060 0.835225
Si Si2 0.384016 0.704582 0.099121
Si Si3 0.380541 0.283562 0.250000
Si Si4 0.880481 0.020953 0.250000
Si Si5 0.799157 0.944159 0.835934
Si Si6 0.796013 0.856985 0.111758
Si Si7 0.880887 0.010880 0.046538
O O1 0.500000 0.839020 0.832783
O O2 0.351242 0.767003 0.792107
O O3 0.312911 0.907330 0.842045
O O4 0.366330 0.732675 0.871074
O O5 0.500000 0.733190 0.095584
O O6 0.367003 0.631716 0.137733
O O7 0.308781 0.799978 0.103336
O O8 0.356496 0.624465 0.063487
O O9 0.500000 0.280611 0.250000
O O10 0.352130 0.401448 0.250000
O O11 0.835211 0.064408 0.209400
O O12 0.000000 0.029978 0.250000
O O13 0.801600 0.058601 0.852943
O O14 0.831487 0.921972 0.073342
O O15 0.000000 0.000308 0.050853
O O16 0.854710 0.000000 0.000000
#
# Coordination Sequence:
#
# PCOD9470292 Si02
#       7
#    16  16   8   8  16  16  16
#     4  10  19  32  49  71  97 126 161 202 244 285
#     4   9  19  34  51  72 100 130 160 198 244 290
#     4   9  17  28  46  68  90 120 156 197 241 275
#     4  11  19  30  51  72  94 128 167 205 242 279
#     4  10  20  32  49  73  96 128 166 202 239 285
#     4  10  19  32  51  73  98 128 163 197 240 292
#     4   9  18  33  53  76  99 124 158 200 243 289
#
# _framework density 16.322423000000001
#
# number of rings (size 3 to 8) (size 9 to 14) (size 15 to 20)
#    0.000    2.333    1.667    1.500    0.000    2.667 
#    0.000    0.000    0.000    0.500    0.000    0.000 
#    0.000    0.000    0.000    0.000    0.000    0.000 
#
# Total GULP energy -267279.676443 kJ/mol
# GULP energy per Si atom -5568.326593 kJ/mol
# Density = 1.628527 g / cm^3
# Si number density = 16.322423 Si / 1000 Ang^3
#
#
#
# Elastic Constant Matrix: (Units=GPa)
#
#
# Indices 1 2 3 4 5 6 
#
# 1 61.3314 13.6751 17.5443 0.0000 0.0000 0.0000
# 2 13.6751 35.4004 17.7674 0.0000 0.0000 0.0000
# 3 17.5443 17.7674 102.3930 0.0000 0.0000 0.0000
# 4 0.0000 0.0000 0.0000 5.4135 0.0000 0.0000
# 5 0.0000 0.0000 0.0000 0.0000 20.0003 0.0000
# 6 0.0000 0.0000 0.0000 0.0000 0.0000 12.9710
#
#
#
# Elastic Compliance Matrix: (Units=1/GPa)
#
#
# Indices 1 2 3 4 5 6 
#
# 1 0.018239 -0.006000 -0.002084 0.000000 0.000000 0.000000
# 2 -0.006000 0.032917 -0.004684 0.000000 0.000000 0.000000
# 3 -0.002084 -0.004684 0.010936 0.000000 0.000000 0.000000
# 4 0.000000 0.000000 0.000000 0.184723 0.000000 0.000000
# 5 0.000000 0.000000 0.000000 0.000000 0.049999 0.000000
# 6 0.000000 0.000000 0.000000 0.000000 0.000000 0.077095
#
#
# Mechanical properties :
#
#
# Convention : Reuss Voigt Hill
#
# Bulk Modulus (GPa) = 27.35474 33.01093 30.18284
# Shear Modulus (GPa) = 12.14685 17.68617 14.91651
#
# Velocity S-wave (km/s) = 2.73093 3.29530 3.02630
# Velocity P-wave (km/s) = 5.17101 5.89465 5.54465
#
# Compressibility (1/GPa) = 0.03655673
#
# Stress axis : x y z
#
# Youngs Moduli (GPa) = 54.82835 30.37979 91.44027
#
# Poissons Ratio (x) = 0.18227 0.19056
# Poissons Ratio (y) = 0.32895 0.42828
# Poissons Ratio (z) = 0.11426 0.14229
#
# Static dielectric constant tensor:
#      x y z
#    x 1.531540 0.000000 0.000000 
#    y 0.000000 1.535010 0.000000 
#    z 0.000000 0.000000 1.564210 
# 
# From -- ./inp_files/69323.got.cif
#   From: 2010.05.17/outbox.cif.g08.bks.cpg/sg63_35_cif.got.tgz:69323.got - 2010.06.03 15:47:04.
