data_PCOD9470337
_publ_section_title
;
Structure prediction by ZEFSAII (Michael W. Deem and Ramdas Pophale) SiO2 
 PCOD9470337
Probable space group: C M C M
;
_chemical_formula_sum "Si O2"
_cell_formula_units_Z 116
_cell_length_a 24.047366
_cell_length_b 29.335817
_cell_length_c 7.761016
_cell_angle_alpha 90.000000
_cell_angle_beta 90.000000
_cell_angle_gamma 90.000000
_cell_volume 5475.001972
_symmetry_space_group_name_H-M "C M C M"
_symmetry_group_IT_number 63
_symmetry_cell_setting 'orthorhombic'
loop_
_space_group_symop_operation_xyz
x,y,z
-x,-y,1/2+z
x,-y,-z
-x,y,1/2-z
-x,-y,-z
x,y,1/2-z
-x,y,z
x,-y,1/2+z
1/2+x,1/2+y,z
1/2-x,1/2-y,1/2+z
1/2+x,1/2-y,-z
1/2-x,1/2+y,1/2-z
1/2-x,1/2-y,-z
1/2+x,1/2+y,1/2-z
1/2-x,1/2+y,z
1/2+x,1/2-y,1/2+z
loop_
_atom_site_type_symbol
_atom_site_label
_atom_site_fract_x
_atom_site_fract_y
_atom_site_fract_z
Si Si1 0.298812 0.700931 0.452415
Si Si2 0.318584 0.602714 0.550108
Si Si3 0.911551 0.550156 0.456856
Si Si4 0.784867 0.549876 0.454693
Si Si5 0.172649 0.297701 0.550340
Si Si6 0.939097 0.651443 0.038999
Si Si7 0.078354 0.947477 0.552160
Si Si8 0.500000 0.584817 0.750000
O O1 0.294459 0.711917 0.250000
O O2 0.327938 0.652731 0.475481
O O3 0.235293 0.695209 0.522996
O O4 0.330933 0.742828 0.538922
O O5 0.331184 0.602865 0.750000
O O6 0.254880 0.588275 0.526008
O O7 0.357159 0.565877 0.458343
O O8 0.934791 0.500000 0.500000
O O9 0.911395 0.551929 0.250000
O O10 0.847806 0.551314 0.522039
O O11 0.937132 0.598111 0.513866
O O12 0.762076 0.500000 0.500000
O O13 0.787059 0.555130 0.250000
O O14 0.176136 0.312625 0.750000
O O15 0.117345 0.322625 0.479871
O O16 0.938026 0.653001 0.250000
O O17 0.000000 0.670129 0.986229
O O18 0.060509 0.940917 0.750000
O O19 0.047461 0.918814 0.404816
O O20 0.069112 0.000000 0.500000
#
# Coordination Sequence:
#
# PCOD9470337 Si02
#       8
#    16  16  16  16  16  16  16   4
#     4  10  20  35  58  84 113 144 178 234 295 359
#     4  12  23  37  54  84 117 147 188 235 297 356
#     4   9  18  32  50  76 110 150 191 231 273 329
#     4  10  19  32  50  74 111 151 186 229 285 343
#     4   9  18  35  58  85 109 140 188 234 290 352
#     4   9  17  31  54  80 108 145 189 231 276 333
#     4  12  24  40  63  88 117 154 201 253 298 354
#     4  12  24  44  62  90 112 158 206 252 292 358
#
# _framework density 21.187207999999998
#
# number of rings (size 3 to 8) (size 9 to 14) (size 15 to 20)
#    0.000    1.793    1.379    3.724    0.000    3.586 
#    0.000    0.690    1.517    1.241    0.000    0.000 
#    0.000    0.000    0.000    0.000    0.000    0.000 
#
# Total GULP energy -323087.765577 kJ/mol
# GULP energy per Si atom -5570.478717 kJ/mol
# Density = 2.113898 g / cm^3
# Si number density = 21.187208 Si / 1000 Ang^3
#
#
#
# Elastic Constant Matrix: (Units=GPa)
#
#
# Indices 1 2 3 4 5 6 
#
# 1 108.9391 41.2684 15.3752 0.0000 0.0000 0.0000
# 2 41.2684 85.2779 0.8609 0.0000 0.0000 0.0000
# 3 15.3752 0.8609 90.6133 0.0000 0.0000 0.0000
# 4 0.0000 0.0000 0.0000 23.1430 0.0000 0.0000
# 5 0.0000 0.0000 0.0000 0.0000 -7.3612 0.0000
# 6 0.0000 0.0000 0.0000 0.0000 0.0000 47.7027
#
#
#
# Elastic Compliance Matrix: (Units=1/GPa)
#
#
# Indices 1 2 3 4 5 6 
#
# 1 0.011561 -0.005575 -0.001909 0.000000 0.000000 0.000000
# 2 -0.005575 0.014416 0.000809 0.000000 0.000000 0.000000
# 3 -0.001909 0.000809 0.011352 0.000000 0.000000 0.000000
# 4 0.000000 0.000000 0.000000 0.043210 0.000000 0.000000
# 5 0.000000 0.000000 0.000000 0.000000 -0.135848 0.000000
# 6 0.000000 0.000000 0.000000 0.000000 0.000000 0.020963
#
#
# Mechanical properties :
#
#
# Convention : Reuss Voigt Hill
#
# Bulk Modulus (GPa) = 41.70268 44.42659 43.06463
# Shear Modulus (GPa) = -384.52386 27.85195 -178.33595
#
# Velocity S-wave (km/s) = -13.48639 3.62963 -9.18446
# Velocity P-wave (km/s) = 14.92597 6.21125 9.59700
#
# Compressibility (1/GPa) = 0.02397927
#
# Stress axis : x y z
#
# Youngs Moduli (GPa) = 86.49856 69.36601 88.08959
#
# Poissons Ratio (x) = 0.38674 0.16813
# Poissons Ratio (y) = 0.48226 -0.07127
# Poissons Ratio (z) = 0.16510 -0.05612
#
# Static dielectric constant tensor:
#      x y z
#    x 1.834000 0.000000 0.000000 
#    y 0.000000 1.771950 0.000000 
#    z 0.000000 0.000000 1.772900 
# 
# From -- ./inp_files/11172.got.cif
#   From: 2010.05.17/outbox.cif.g08.bks.cpg/sg63_6_cif.got.tgz:11172.got - 2010.06.03 15:47:04.
