data_PCOD9470336
_publ_section_title
;
Structure prediction by ZEFSAII (Michael W. Deem and Ramdas Pophale) SiO2 
 PCOD9470336
Probable space group: C M C M
;
_chemical_formula_sum "Si O2"
_cell_formula_units_Z 96
_cell_length_a 12.408772
_cell_length_b 32.235150
_cell_length_c 14.116876
_cell_angle_alpha 90.000000
_cell_angle_beta 90.000000
_cell_angle_gamma 90.000000
_cell_volume 5646.731014
_symmetry_space_group_name_H-M "C M C M"
_symmetry_group_IT_number 63
_symmetry_cell_setting 'orthorhombic'
loop_
_space_group_symop_operation_xyz
x,y,z
-x,-y,1/2+z
x,-y,-z
-x,y,1/2-z
-x,-y,-z
x,y,1/2-z
-x,y,z
x,-y,1/2+z
1/2+x,1/2+y,z
1/2-x,1/2-y,1/2+z
1/2+x,1/2-y,-z
1/2-x,1/2+y,1/2-z
1/2-x,1/2-y,-z
1/2+x,1/2+y,1/2-z
1/2-x,1/2+y,z
1/2+x,1/2-y,1/2+z
loop_
_atom_site_type_symbol
_atom_site_label
_atom_site_fract_x
_atom_site_fract_y
_atom_site_fract_z
Si Si1 0.000000 0.075907 0.134777
Si Si2 0.375684 0.026961 0.862413
Si Si3 0.764483 0.053075 0.363613
Si Si4 0.291881 0.726172 0.363011
Si Si5 0.126556 0.603552 0.500049
Si Si6 0.000000 0.828571 0.635491
Si Si7 0.628198 0.198801 0.518891
O O1 0.888876 0.054328 0.105552
O O2 0.000000 0.123891 0.102441
O O3 0.000000 0.076233 0.250000
O O4 0.365728 0.034434 0.750000
O O5 0.500000 0.014186 0.881049
O O6 0.297020 0.989370 0.888311
O O7 0.354445 0.068757 0.920065
O O8 0.760153 0.057525 0.250000
O O9 0.700954 0.090573 0.412582
O O10 0.277703 0.724455 0.250000
O O11 0.392178 0.696294 0.391265
O O12 0.324563 0.771909 0.399028
O O13 0.188026 0.711981 0.422160
O O14 0.148307 0.650037 0.534418
O O15 0.000000 0.601361 0.473378
O O16 0.000000 0.829673 0.750000
O O17 0.500000 0.205195 0.512821
#
# Coordination Sequence:
#
# PCOD9470336 Si02
#       7
#     8  16  16  16  16   8  16
#     4   9  18  30  47  73 100 130 169 214 248 290
#     4   9  18  33  52  73  99 137 176 209 252 304
#     4  10  19  32  50  74 104 137 175 213 255 303
#     4  10  20  35  55  77 103 137 171 211 264 318
#     4  10  20  33  51  76 106 134 165 212 261 306
#     4   9  16  30  52  73  96 130 171 208 257 310
#     4  10  21  35  52  79 107 133 172 217 263 315
#
# _framework density 17.000986000000001
#
# number of rings (size 3 to 8) (size 9 to 14) (size 15 to 20)
#    0.000    2.333    0.833    2.000    0.000    5.333 
#    0.000    5.000    0.000    0.000    0.000    0.000 
#    0.000    0.000    0.000    0.000    0.000    0.000 
#
# Total GULP energy -267735.168649 kJ/mol
# GULP energy per Si atom -5577.816014 kJ/mol
# Density = 1.696229 g / cm^3
# Si number density = 17.000986 Si / 1000 Ang^3
#
#
#
# Elastic Constant Matrix: (Units=GPa)
#
#
# Indices 1 2 3 4 5 6 
#
# 1 56.7612 53.8653 10.0885 0.0000 0.0000 0.0000
# 2 53.8653 112.3611 16.0160 0.0000 0.0000 0.0000
# 3 10.0885 16.0160 40.9088 0.0000 0.0000 0.0000
# 4 0.0000 0.0000 0.0000 18.2577 0.0000 0.0000
# 5 0.0000 0.0000 0.0000 0.0000 13.5029 0.0000
# 6 0.0000 0.0000 0.0000 0.0000 0.0000 10.8415
#
#
#
# Elastic Compliance Matrix: (Units=1/GPa)
#
#
# Indices 1 2 3 4 5 6 
#
# 1 0.032480 -0.015282 -0.002027 0.000000 0.000000 0.000000
# 2 -0.015282 0.016616 -0.002737 0.000000 0.000000 0.000000
# 3 -0.002027 -0.002737 0.026016 0.000000 0.000000 0.000000
# 4 0.000000 0.000000 0.000000 0.054772 0.000000 0.000000
# 5 0.000000 0.000000 0.000000 0.000000 0.074058 0.000000
# 6 0.000000 0.000000 0.000000 0.000000 0.000000 0.092238
#
#
# Mechanical properties :
#
#
# Convention : Reuss Voigt Hill
#
# Bulk Modulus (GPa) = 28.55418 41.10786 34.83102
# Shear Modulus (GPa) = 14.37009 17.19115 15.78062
#
# Velocity S-wave (km/s) = 2.91047 3.18336 3.04997
# Velocity P-wave (km/s) = 5.30345 6.14361 5.73892
#
# Compressibility (1/GPa) = 0.03502115
#
# Stress axis : x y z
#
# Youngs Moduli (GPa) = 30.78798 60.18283 38.43811
#
# Poissons Ratio (x) = 0.91971 0.07791
# Poissons Ratio (y) = 0.47050 0.10519
# Poissons Ratio (z) = 0.06240 0.16470
#
# Static dielectric constant tensor:
#      x y z
#    x 1.575720 0.000000 0.000000 
#    y 0.000000 1.572070 0.000000 
#    z 0.000000 0.000000 1.560730 
# 
# From -- ./inp_files/30335.got.cif
#   From: 2010.05.17/outbox.cif.g08.bks.cpg/sg63_16_cif.got.tgz:30335.got - 2010.06.03 15:47:04.
