data_PCOD9470978
_publ_section_title
;
Structure prediction by ZEFSAII (Michael W. Deem and Ramdas Pophale) SiO2 
 PCOD9470978
Probable space group: C M C M
;
_chemical_formula_sum "Si O2"
_cell_formula_units_Z 96
_cell_length_a 7.539999
_cell_length_b 20.609169
_cell_length_c 29.801339
_cell_angle_alpha 90.000000
_cell_angle_beta 90.000000
_cell_angle_gamma 90.000000
_cell_volume 4630.922858
_symmetry_space_group_name_H-M "C M C M"
_symmetry_group_IT_number 63
_symmetry_cell_setting 'orthorhombic'
loop_
_space_group_symop_operation_xyz
x,y,z
-x,-y,1/2+z
x,-y,-z
-x,y,1/2-z
-x,-y,-z
x,y,1/2-z
-x,y,z
x,-y,1/2+z
1/2+x,1/2+y,z
1/2-x,1/2-y,1/2+z
1/2+x,1/2-y,-z
1/2-x,1/2+y,1/2-z
1/2-x,1/2-y,-z
1/2+x,1/2+y,1/2-z
1/2-x,1/2+y,z
1/2+x,1/2-y,1/2+z
loop_
_atom_site_type_symbol
_atom_site_label
_atom_site_fract_x
_atom_site_fract_y
_atom_site_fract_z
Si Si1 0.213995 0.933170 0.978246
Si Si2 0.717768 0.254553 0.373061
Si Si3 0.786930 0.857938 0.300726
Si Si4 0.212012 0.394516 0.623927
Si Si5 0.712313 0.995163 0.698546
Si Si6 0.712005 0.309574 0.032524
O O1 0.256426 0.921674 0.926063
O O2 0.000000 0.933208 0.980799
O O3 0.281958 0.873797 0.008540
O O4 0.277914 0.000000 0.000000
O O5 0.500000 0.253292 0.373354
O O6 0.775862 0.299707 0.332027
O O7 0.777630 0.179734 0.372177
O O8 0.777896 0.289901 0.418532
O O9 0.717949 0.852790 0.250000
O O10 0.746804 0.930934 0.316875
O O11 0.000000 0.853019 0.299189
O O12 0.280862 0.442784 0.662688
O O13 0.000000 0.391325 0.629634
O O14 0.780259 0.988161 0.750000
O O15 0.500000 0.987532 0.700822
O O16 0.500000 0.317298 0.036603
O O17 0.750000 0.250000 0.000000
#
# Coordination Sequence:
#
# PCOD9470978 Si02
#       6
#    16  16  16  16  16  16
#     4  10  22  36  52  76 104 137 172 210 257 304
#     4   9  18  32  52  76 102 130 165 209 251 294
#     4   9  18  33  55  80 102 130 169 209 250 300
#     4  10  20  35  54  76 102 135 172 211 254 299
#     4   9  19  35  53  75 104 135 166 205 256 307
#     4  10  19  34  53  73 101 136 168 205 252 298
#
# _framework density 20.730211000000001
#
# number of rings (size 3 to 8) (size 9 to 14) (size 15 to 20)
#    0.000    2.500    1.667    0.000    2.333    1.667 
#    0.000    5.000    0.000    0.000    0.000    4.667 
#    0.000    0.000    0.000    0.000    0.000    0.000 
#
# Total GULP energy -267924.903393 kJ/mol
# GULP energy per Si atom -5581.768821 kJ/mol
# Density = 2.068303 g / cm^3
# Si number density = 20.730211 Si / 1000 Ang^3
#
#
#
# Elastic Constant Matrix: (Units=GPa)
#
#
# Indices 1 2 3 4 5 6 
#
# 1 51.6130 1.9834 1.8204 0.0000 0.0000 0.0000
# 2 1.9834 221.4347 130.3929 0.0000 0.0000 0.0000
# 3 1.8204 130.3929 148.6186 0.0000 0.0000 0.0000
# 4 0.0000 0.0000 0.0000 45.0815 0.0000 0.0000
# 5 0.0000 0.0000 0.0000 0.0000 16.1532 0.0000
# 6 0.0000 0.0000 0.0000 0.0000 0.0000 14.6137
#
#
#
# Elastic Compliance Matrix: (Units=1/GPa)
#
#
# Indices 1 2 3 4 5 6 
#
# 1 0.019384 -0.000070 -0.000176 0.000000 0.000000 0.000000
# 2 -0.000070 0.009343 -0.008197 0.000000 0.000000 0.000000
# 3 -0.000176 -0.008197 0.013922 0.000000 0.000000 0.000000
# 4 0.000000 0.000000 0.000000 0.022182 0.000000 0.000000
# 5 0.000000 0.000000 0.000000 0.000000 0.061907 0.000000
# 6 0.000000 0.000000 0.000000 0.000000 0.000000 0.068429
#
#
# Mechanical properties :
#
#
# Convention : Reuss Voigt Hill
#
# Bulk Modulus (GPa) = 38.81368 76.67329 57.74348
# Shear Modulus (GPa) = 22.66130 34.33433 28.49781
#
# Velocity S-wave (km/s) = 3.30987 4.07412 3.71172
# Velocity P-wave (km/s) = 5.77676 7.69401 6.80326
#
# Compressibility (1/GPa) = 0.02576411
#
# Stress axis : x y z
#
# Youngs Moduli (GPa) = 51.58932 107.02954 71.82785
#
# Poissons Ratio (x) = 0.00749 0.01265
# Poissons Ratio (y) = 0.00361 0.58874
# Poissons Ratio (z) = 0.00908 0.87727
#
# Static dielectric constant tensor:
#      x y z
#    x 1.799340 0.000000 0.000000 
#    y 0.000000 1.723460 0.000000 
#    z 0.000000 0.000000 1.689790 
# 
# From -- ./inp_files/61486.got.cif
#   From: 2010.05.17/outbox.cif.g08.bks.cpg/sg63_31_cif.got.tgz:61486.got - 2010.06.03 15:47:04.
