data_PCOD9470253
_publ_section_title
;
Structure prediction by ZEFSAII (Michael W. Deem and Ramdas Pophale) SiO2 
 PCOD9470253
Probable space group: C M C M
;
_chemical_formula_sum "Si O2"
_cell_formula_units_Z 68
_cell_length_a 7.390441
_cell_length_b 15.553465
_cell_length_c 27.575724
_cell_angle_alpha 90.000000
_cell_angle_beta 90.000000
_cell_angle_gamma 90.000000
_cell_volume 3169.745793
_symmetry_space_group_name_H-M "C M C M"
_symmetry_group_IT_number 63
_symmetry_cell_setting 'orthorhombic'
loop_
_space_group_symop_operation_xyz
x,y,z
-x,-y,1/2+z
x,-y,-z
-x,y,1/2-z
-x,-y,-z
x,y,1/2-z
-x,y,z
x,-y,1/2+z
1/2+x,1/2+y,z
1/2-x,1/2-y,1/2+z
1/2+x,1/2-y,-z
1/2-x,1/2+y,1/2-z
1/2-x,1/2-y,-z
1/2+x,1/2+y,1/2-z
1/2-x,1/2+y,z
1/2+x,1/2-y,1/2+z
loop_
_atom_site_type_symbol
_atom_site_label
_atom_site_fract_x
_atom_site_fract_y
_atom_site_fract_z
Si Si1 0.711119 0.487764 0.667252
Si Si2 0.707595 0.340114 0.381504
Si Si3 0.500000 0.946348 0.750000
Si Si4 0.218443 0.401571 0.488818
Si Si5 0.780110 0.658041 0.408330
O O1 0.500000 0.493276 0.682058
O O2 0.780436 0.582459 0.651068
O O3 0.720734 0.426246 0.620313
O O4 0.841564 0.450292 0.707747
O O5 0.500000 0.330811 0.365819
O O6 0.710548 0.370403 0.437397
O O7 0.786988 0.244548 0.382226
O O8 0.269667 0.500000 0.500000
O O9 0.276313 0.346460 0.535484
O O10 0.000000 0.398810 0.485542
O O11 0.000000 0.658931 0.408353
#
# Coordination Sequence:
#
# PCOD9470253 Si02
#       5
#    16  16   4  16  16
#     4  11  24  44  70  96 121 168 214 264 332 393
#     4  10  22  37  61  93 134 170 214 264 315 379
#     4  12  26  48  76  88 128 158 210 288 340 372
#     4  10  19  31  57  92 130 180 219 248 305 385
#     4  10  20  39  62  92 136 175 208 263 320 372
#
# _framework density 21.452822999999999
#
# number of rings (size 3 to 8) (size 9 to 14) (size 15 to 20)
#    0.000    1.647    3.529    1.059    1.647    2.353 
#    0.000    1.176    0.000    0.000    0.000    0.000 
#    0.000    0.000    0.000    0.000    0.000    0.000 
#
# Total GULP energy -189438.964646 kJ/mol
# GULP energy per Si atom -5571.734254 kJ/mol
# Density = 2.140400 g / cm^3
# Si number density = 21.452823 Si / 1000 Ang^3
#
#
#
# Elastic Constant Matrix: (Units=GPa)
#
#
# Indices 1 2 3 4 5 6 
#
# 1 104.0771 -6.0621 5.1388 0.0000 0.0000 0.0000
# 2 -6.0621 69.5219 -32.3032 0.0000 0.0000 0.0000
# 3 5.1388 -32.3032 49.7565 0.0000 0.0000 0.0000
# 4 0.0000 0.0000 0.0000 -7.5939 0.0000 0.0000
# 5 0.0000 0.0000 0.0000 0.0000 39.8144 0.0000
# 6 0.0000 0.0000 0.0000 0.0000 0.0000 4.6611
#
#
#
# Elastic Compliance Matrix: (Units=1/GPa)
#
#
# Indices 1 2 3 4 5 6 
#
# 1 0.009672 0.000543 -0.000646 0.000000 0.000000 0.000000
# 2 0.000543 0.020628 0.013336 0.000000 0.000000 0.000000
# 3 -0.000646 0.013336 0.028823 0.000000 0.000000 0.000000
# 4 0.000000 0.000000 0.000000 -0.131685 0.000000 0.000000
# 5 0.000000 0.000000 0.000000 0.000000 0.025117 0.000000
# 6 0.000000 0.000000 0.000000 0.000000 0.000000 0.214544
#
#
# Mechanical properties :
#
#
# Convention : Reuss Voigt Hill
#
# Bulk Modulus (GPa) = 11.68388 17.43360 14.55874
# Shear Modulus (GPa) = 29.55751 24.48178 27.01965
#
# Velocity S-wave (km/s) = 3.71589 3.38182 3.55278
# Velocity P-wave (km/s) = 4.88555 4.83664 4.86115
#
# Compressibility (1/GPa) = 0.08558799
#
# Stress axis : x y z
#
# Youngs Moduli (GPa) = 103.39333 48.47806 34.69479
#
# Poissons Ratio (x) = -0.02633 0.02242
# Poissons Ratio (y) = -0.05615 -0.46269
# Poissons Ratio (z) = 0.06683 -0.64651
#
# Static dielectric constant tensor:
#      x y z
#    x 1.806360 0.000000 0.000000 
#    y 0.000000 1.804770 0.000000 
#    z 0.000000 0.000000 1.726340 
# 
# From -- ./inp_files/59299.got.cif
#   From: 2010.05.17/outbox.cif.g08.bks.cpg/sg63_30_cif.got.tgz:59299.got - 2010.06.03 15:47:04.
