data_PCOD9470867
_publ_section_title
;
Structure prediction by ZEFSAII (Michael W. Deem and Ramdas Pophale) SiO2 
 PCOD9470867
Probable space group: C M C M
;
_chemical_formula_sum "Si O2"
_cell_formula_units_Z 80
_cell_length_a 29.200771
_cell_length_b 8.801478
_cell_length_c 16.826354
_cell_angle_alpha 90.000000
_cell_angle_beta 90.000000
_cell_angle_gamma 90.000000
_cell_volume 4324.540292
_symmetry_space_group_name_H-M "C M C M"
_symmetry_group_IT_number 63
_symmetry_cell_setting 'orthorhombic'
loop_
_space_group_symop_operation_xyz
x,y,z
-x,-y,1/2+z
x,-y,-z
-x,y,1/2-z
-x,-y,-z
x,y,1/2-z
-x,y,z
x,-y,1/2+z
1/2+x,1/2+y,z
1/2-x,1/2-y,1/2+z
1/2+x,1/2-y,-z
1/2-x,1/2+y,1/2-z
1/2-x,1/2-y,-z
1/2+x,1/2+y,1/2-z
1/2-x,1/2+y,z
1/2+x,1/2-y,1/2+z
loop_
_atom_site_type_symbol
_atom_site_label
_atom_site_fract_x
_atom_site_fract_y
_atom_site_fract_z
Si Si1 0.699794 0.319966 0.510244
Si Si2 0.146525 0.700343 0.660255
Si Si3 0.447360 0.658990 0.105116
Si Si4 0.867268 0.399979 0.579871
Si Si5 0.051890 0.191617 0.913009
O O1 0.700330 0.500000 0.500000
O O2 0.750000 0.250000 0.500000
O O3 0.677833 0.284495 0.595917
O O4 0.667318 0.231380 0.447921
O O5 0.158605 0.737377 0.750000
O O6 0.093467 0.746592 0.644059
O O7 0.151729 0.521737 0.641520
O O8 0.500000 0.694046 0.129312
O O9 0.439141 0.478818 0.117973
O O10 0.444978 0.682666 0.009543
O O11 0.877415 0.500000 0.500000
O O12 0.912056 0.316914 0.612101
O O13 0.000000 0.232163 0.892310
#
# Coordination Sequence:
#
# PCOD9470867 Si02
#       5
#    16  16  16  16  16
#     4  11  22  42  68  89 110 147 193 238 291 349
#     4  11  23  38  57  88 125 155 191 239 295 348
#     4   9  17  31  54  83 118 157 199 244 287 336
#     4  10  19  33  55  83 115 151 190 234 282 343
#     4   9  16  29  53  84 112 151 208 250 276 328
#
# _framework density 18.499075999999999
#
# number of rings (size 3 to 8) (size 9 to 14) (size 15 to 20)
#    0.000    2.000    4.000    4.200    0.000    1.600 
#    0.000    8.000    0.000    1.200    0.000    0.000 
#    0.000    0.000    0.000    0.000    0.000    0.000 
#
# Total GULP energy -223201.766373 kJ/mol
# GULP energy per Si atom -5580.044159 kJ/mol
# Density = 1.845697 g / cm^3
# Si number density = 18.499076 Si / 1000 Ang^3
#
#
#
# Elastic Constant Matrix: (Units=GPa)
#
#
# Indices 1 2 3 4 5 6 
#
# 1 100.8234 70.6876 36.2104 0.0000 0.0000 0.0000
# 2 70.6876 139.4330 28.9087 0.0000 0.0000 0.0000
# 3 36.2104 28.9087 61.7256 0.0000 0.0000 0.0000
# 4 0.0000 0.0000 0.0000 6.7276 0.0000 0.0000
# 5 0.0000 0.0000 0.0000 0.0000 7.1416 0.0000
# 6 0.0000 0.0000 0.0000 0.0000 0.0000 39.5342
#
#
#
# Elastic Compliance Matrix: (Units=1/GPa)
#
#
# Indices 1 2 3 4 5 6 
#
# 1 0.017652 -0.007533 -0.006827 0.000000 0.000000 0.000000
# 2 -0.007533 0.011158 -0.000807 0.000000 0.000000 0.000000
# 3 -0.006827 -0.000807 0.020583 0.000000 0.000000 0.000000
# 4 0.000000 0.000000 0.000000 0.148642 0.000000 0.000000
# 5 0.000000 0.000000 0.000000 0.000000 0.140025 0.000000
# 6 0.000000 0.000000 0.000000 0.000000 0.000000 0.025295
#
#
# Mechanical properties :
#
#
# Convention : Reuss Voigt Hill
#
# Bulk Modulus (GPa) = 52.46671 63.73283 58.09977
# Shear Modulus (GPa) = 12.49868 21.75901 17.12885
#
# Velocity S-wave (km/s) = 2.60212 3.43333 3.04621
# Velocity P-wave (km/s) = 6.11976 7.08828 6.62175
#
# Compressibility (1/GPa) = 0.01905970
#
# Stress axis : x y z
#
# Youngs Moduli (GPa) = 56.65082 89.61912 48.58274
#
# Poissons Ratio (x) = 0.67514 0.33168
# Poissons Ratio (y) = 0.42678 0.03918
# Poissons Ratio (z) = 0.38676 0.07228
#
# Static dielectric constant tensor:
#      x y z
#    x 1.647040 0.000000 0.000000 
#    y 0.000000 1.644420 0.000000 
#    z 0.000000 0.000000 1.640220 
# 
# From -- ./inp_files/49427.got.cif
#   From: 2010.05.17/outbox.cif.g08.bks.cpg/sg63_25_cif.got.tgz:49427.got - 2010.06.03 15:47:04.
