data_PCOD9470513
_publ_section_title
;
Structure prediction by ZEFSAII (Michael W. Deem and Ramdas Pophale) SiO2 
 PCOD9470513
Probable space group: C M C M
;
_chemical_formula_sum "Si O2"
_cell_formula_units_Z 80
_cell_length_a 9.994407
_cell_length_b 28.978933
_cell_length_c 14.965288
_cell_angle_alpha 90.000000
_cell_angle_beta 90.000000
_cell_angle_gamma 90.000000
_cell_volume 4334.355221
_symmetry_space_group_name_H-M "C M C M"
_symmetry_group_IT_number 63
_symmetry_cell_setting 'orthorhombic'
loop_
_space_group_symop_operation_xyz
x,y,z
-x,-y,1/2+z
x,-y,-z
-x,y,1/2-z
-x,-y,-z
x,y,1/2-z
-x,y,z
x,-y,1/2+z
1/2+x,1/2+y,z
1/2-x,1/2-y,1/2+z
1/2+x,1/2-y,-z
1/2-x,1/2+y,1/2-z
1/2-x,1/2-y,-z
1/2+x,1/2+y,1/2-z
1/2-x,1/2+y,z
1/2+x,1/2-y,1/2+z
loop_
_atom_site_type_symbol
_atom_site_label
_atom_site_fract_x
_atom_site_fract_y
_atom_site_fract_z
Si Si1 0.157829 0.205360 0.505839
Si Si2 0.348605 0.476400 0.097324
Si Si3 0.661332 0.627801 0.852710
Si Si4 0.351863 0.052297 0.353894
Si Si5 0.151184 0.130364 0.356873
O O1 0.250000 0.250000 0.500000
O O2 0.203762 0.170093 0.584218
O O3 0.166071 0.176588 0.413629
O O4 0.000000 0.216659 0.520183
O O5 0.500000 0.481485 0.135559
O O6 0.313289 0.422425 0.103904
O O7 0.232770 0.505609 0.143282
O O8 0.353267 0.500000 0.000000
O O9 0.710570 0.629507 0.750000
O O10 0.500000 0.631208 0.849430
O O11 0.367178 0.063912 0.250000
O O12 0.500000 0.048699 0.394632
O O13 0.258575 0.093172 0.389928
O O14 0.162782 0.137697 0.250000
O O15 0.000000 0.112215 0.373856
#
# Coordination Sequence:
#
# PCOD9470513 Si02
#       5
#    16  16  16  16  16
#     4  10  21  37  56  78 102 130 171 221 271 324
#     4  10  19  32  53  78 104 140 184 221 254 303
#     4   9  18  33  53  77 106 141 179 217 259 314
#     4  10  20  32  48  75 109 139 168 207 258 313
#     4   9  18  34  55  76 101 136 177 220 264 314
#
# _framework density 18.457184999999999
#
# number of rings (size 3 to 8) (size 9 to 14) (size 15 to 20)
#    0.000    2.400    0.000    2.400    0.000    7.200 
#    0.000    1.000    0.000    1.200    0.000    0.000 
#    0.000    0.000    0.000    0.000    0.000    0.000 
#
# Total GULP energy -222876.099468 kJ/mol
# GULP energy per Si atom -5571.902487 kJ/mol
# Density = 1.841518 g / cm^3
# Si number density = 18.457185 Si / 1000 Ang^3
#
#
#
# Elastic Constant Matrix: (Units=GPa)
#
#
# Indices 1 2 3 4 5 6 
#
# 1 117.4766 83.9918 34.9922 0.0000 0.0000 0.0000
# 2 83.9918 159.6886 52.1113 0.0000 0.0000 0.0000
# 3 34.9922 52.1113 83.0152 0.0000 0.0000 0.0000
# 4 0.0000 0.0000 0.0000 21.3567 0.0000 0.0000
# 5 0.0000 0.0000 0.0000 0.0000 12.9457 0.0000
# 6 0.0000 0.0000 0.0000 0.0000 0.0000 24.8535
#
#
#
# Elastic Compliance Matrix: (Units=1/GPa)
#
#
# Indices 1 2 3 4 5 6 
#
# 1 0.013807 -0.006744 -0.001586 0.000000 0.000000 0.000000
# 2 -0.006744 0.011170 -0.004169 0.000000 0.000000 0.000000
# 3 -0.001586 -0.004169 0.015331 0.000000 0.000000 0.000000
# 4 0.000000 0.000000 0.000000 0.046824 0.000000 0.000000
# 5 0.000000 0.000000 0.000000 0.000000 0.077246 0.000000
# 6 0.000000 0.000000 0.000000 0.000000 0.000000 0.040236
#
#
# Mechanical properties :
#
#
# Convention : Reuss Voigt Hill
#
# Bulk Modulus (GPa) = 65.31894 78.04122 71.68008
# Shear Modulus (GPa) = 21.30237 24.43685 22.86961
#
# Velocity S-wave (km/s) = 3.40096 3.64259 3.52385
# Velocity P-wave (km/s) = 7.13361 7.75019 7.44828
#
# Compressibility (1/GPa) = 0.01530950
#
# Stress axis : x y z
#
# Youngs Moduli (GPa) = 72.42818 89.52567 65.22525
#
# Poissons Ratio (x) = 0.60380 0.10345
# Poissons Ratio (y) = 0.48848 0.27192
# Poissons Ratio (z) = 0.11488 0.37322
#
# Static dielectric constant tensor:
#      x y z
#    x 1.668980 0.000000 0.000000 
#    y 0.000000 1.610350 0.000000 
#    z 0.000000 0.000000 1.697120 
# 
# From -- ./inp_files/40501.got.cif
#   From: 2010.05.17/outbox.cif.g08.bks.cpg/sg63_21_cif.got.tgz:40501.got - 2010.06.03 15:47:04.
