data_PCOD9470070
_publ_section_title
;
Structure prediction by ZEFSAII (Michael W. Deem and Ramdas Pophale) SiO2 
 PCOD9470070
Probable space group: C M C M
;
_chemical_formula_sum "Si O2"
_cell_formula_units_Z 96
_cell_length_a 9.264294
_cell_length_b 28.470511
_cell_length_c 20.157641
_cell_angle_alpha 90.000000
_cell_angle_beta 90.000000
_cell_angle_gamma 90.000000
_cell_volume 5316.762946
_symmetry_space_group_name_H-M "C M C M"
_symmetry_group_IT_number 63
_symmetry_cell_setting 'orthorhombic'
loop_
_space_group_symop_operation_xyz
x,y,z
-x,-y,1/2+z
x,-y,-z
-x,y,1/2-z
-x,-y,-z
x,y,1/2-z
-x,y,z
x,-y,1/2+z
1/2+x,1/2+y,z
1/2-x,1/2-y,1/2+z
1/2+x,1/2-y,-z
1/2-x,1/2+y,1/2-z
1/2-x,1/2-y,-z
1/2+x,1/2+y,1/2-z
1/2-x,1/2+y,z
1/2+x,1/2-y,1/2+z
loop_
_atom_site_type_symbol
_atom_site_label
_atom_site_fract_x
_atom_site_fract_y
_atom_site_fract_z
Si Si1 0.166792 0.522282 0.574622
Si Si2 0.660277 0.151243 0.171321
Si Si3 0.672547 0.207274 0.961262
Si Si4 0.170267 0.243764 0.173165
Si Si5 0.664303 0.564670 0.379462
Si Si6 0.334073 0.390482 0.473441
O O1 0.167045 0.500000 0.500000
O O2 0.251630 0.484392 0.618525
O O3 0.249502 0.571715 0.571361
O O4 0.000000 0.527720 0.594207
O O5 0.647704 0.156925 0.250000
O O6 0.500000 0.148016 0.141532
O O7 0.743757 0.197783 0.149141
O O8 0.749131 0.104354 0.159124
O O9 0.500000 0.207029 0.974664
O O10 0.692889 0.216764 0.882265
O O11 0.747234 0.158018 0.978512
O O12 0.750000 0.250000 0.000000
O O13 0.208887 0.255357 0.250000
O O14 0.000000 0.232096 0.172966
O O15 0.500000 0.559295 0.356275
O O16 0.660014 0.585111 0.454381
O O17 0.500000 0.382681 0.452064
#
# Coordination Sequence:
#
# PCOD9470070 Si02
#       6
#    16  16  16  16  16  16
#     4   9  17  30  49  72  97 126 159 196 241 293
#     4  10  20  32  48  72  99 127 162 204 248 294
#     4  11  22  34  51  76 104 133 167 211 259 302
#     4   9  19  36  54  71  96 133 173 208 247 299
#     4  10  19  31  49  72  99 131 163 197 242 295
#     4  10  20  33  49  72 102 132 163 201 246 297
#
# _framework density 18.056097999999999
#
# number of rings (size 3 to 8) (size 9 to 14) (size 15 to 20)
#    0.000    2.167    0.000    3.500    0.000   10.333 
#    0.000    0.000    0.000    1.000    0.000    2.333 
#    0.000    0.000    0.000    0.000    0.000    0.000 
#
# Total GULP energy -267723.205760 kJ/mol
# GULP energy per Si atom -5577.566787 kJ/mol
# Density = 1.801500 g / cm^3
# Si number density = 18.056098 Si / 1000 Ang^3
#
#
#
# Elastic Constant Matrix: (Units=GPa)
#
#
# Indices 1 2 3 4 5 6 
#
# 1 129.5872 61.4425 19.3792 0.0000 0.0000 0.0000
# 2 61.4425 109.2946 7.8612 0.0000 0.0000 0.0000
# 3 19.3792 7.8612 26.7224 0.0000 0.0000 0.0000
# 4 0.0000 0.0000 0.0000 28.9309 0.0000 0.0000
# 5 0.0000 0.0000 0.0000 0.0000 19.5102 0.0000
# 6 0.0000 0.0000 0.0000 0.0000 0.0000 27.1341
#
#
#
# Elastic Compliance Matrix: (Units=1/GPa)
#
#
# Indices 1 2 3 4 5 6 
#
# 1 0.011562 -0.006024 -0.006613 0.000000 0.000000 0.000000
# 2 -0.006024 0.012486 0.000696 0.000000 0.000000 0.000000
# 3 -0.006613 0.000696 0.042013 0.000000 0.000000 0.000000
# 4 0.000000 0.000000 0.000000 0.034565 0.000000 0.000000
# 5 0.000000 0.000000 0.000000 0.000000 0.051255 0.000000
# 6 0.000000 0.000000 0.000000 0.000000 0.000000 0.036854
#
#
# Mechanical properties :
#
#
# Convention : Reuss Voigt Hill
#
# Bulk Modulus (GPa) = 23.70882 49.21888 36.46385
# Shear Modulus (GPa) = 22.05780 26.90980 24.48380
#
# Velocity S-wave (km/s) = 3.49897 3.86469 3.68637
# Velocity P-wave (km/s) = 5.42981 6.87259 6.19336
#
# Compressibility (1/GPa) = 0.04217839
#
# Stress axis : x y z
#
# Youngs Moduli (GPa) = 86.48997 80.08826 23.80237
#
# Poissons Ratio (x) = 0.48247 0.15740
# Poissons Ratio (y) = 0.52104 -0.01656
# Poissons Ratio (z) = 0.57192 -0.05571
#
# Static dielectric constant tensor:
#      x y z
#    x 1.634870 0.000000 0.000000 
#    y 0.000000 1.595700 0.000000 
#    z 0.000000 0.000000 1.652700 
# 
# From -- ./inp_files/51303.got.cif
#   From: 2010.05.17/outbox.cif.g08.bks.cpg/sg63_26_cif.got.tgz:51303.got - 2010.06.03 15:47:04.
