data_PCOD9470477
_publ_section_title
;
Structure prediction by ZEFSAII (Michael W. Deem and Ramdas Pophale) SiO2 
 PCOD9470477
Probable space group: C M C M
;
_chemical_formula_sum "Si O2"
_cell_formula_units_Z 112
_cell_length_a 16.877918
_cell_length_b 17.127252
_cell_length_c 22.184142
_cell_angle_alpha 90.000000
_cell_angle_beta 90.000000
_cell_angle_gamma 90.000000
_cell_volume 6412.822168
_symmetry_space_group_name_H-M "C M C M"
_symmetry_group_IT_number 63
_symmetry_cell_setting 'orthorhombic'
loop_
_space_group_symop_operation_xyz
x,y,z
-x,-y,1/2+z
x,-y,-z
-x,y,1/2-z
-x,-y,-z
x,y,1/2-z
-x,y,z
x,-y,1/2+z
1/2+x,1/2+y,z
1/2-x,1/2-y,1/2+z
1/2+x,1/2-y,-z
1/2-x,1/2+y,1/2-z
1/2-x,1/2-y,-z
1/2+x,1/2+y,1/2-z
1/2-x,1/2+y,z
1/2+x,1/2-y,1/2+z
loop_
_atom_site_type_symbol
_atom_site_label
_atom_site_fract_x
_atom_site_fract_y
_atom_site_fract_z
Si Si1 0.837361 0.357956 0.912690
Si Si2 0.592354 0.660714 0.119388
Si Si3 0.410623 0.969954 0.681962
Si Si4 0.592583 0.188734 0.961928
Si Si5 0.204024 0.401523 0.368180
Si Si6 0.306479 0.524900 0.433239
Si Si7 0.235080 0.764192 0.817496
O O1 0.895851 0.405790 0.869288
O O2 0.771476 0.419386 0.936668
O O3 0.791175 0.298617 0.869337
O O4 0.879313 0.318576 0.969377
O O5 0.500000 0.657007 0.135605
O O6 0.600945 0.723873 0.064875
O O7 0.627510 0.577705 0.099028
O O8 0.649357 0.696118 0.170699
O O9 0.400087 0.939006 0.750000
O O10 0.500000 0.000544 0.677044
O O11 0.348132 0.037985 0.669776
O O12 0.500000 0.166596 0.956392
O O13 0.648228 0.132978 0.921469
O O14 0.277169 0.449538 0.396122
O O15 0.228355 0.327807 0.328501
O O16 0.330822 0.500000 0.500000
O O17 0.262101 0.782093 0.750000
#
# Coordination Sequence:
#
# PCOD9470477 Si02
#       7
#    16  16  16  16  16  16  16
#     4  10  20  33  52  76 105 138 177 216 261 318
#     4   9  21  36  54  80 108 138 178 220 267 323
#     4  10  20  33  49  72 105 142 176 213 258 315
#     4  10  19  33  53  80 109 137 171 219 272 318
#     4  10  20  33  53  80 108 135 173 220 268 321
#     4  10  19  32  52  78 109 140 168 209 268 312
#     4  10  21  36  57  77 100 137 179 222 264 307
#
# _framework density 17.465009999999999
#
# number of rings (size 3 to 8) (size 9 to 14) (size 15 to 20)
#    0.000    2.143    1.429    1.714    2.000    2.857 
#    0.000    2.857    0.000    0.000    0.000    0.000 
#    0.000    0.000    0.000    0.000    0.000    0.000 
#
# Total GULP energy -312392.847651 kJ/mol
# GULP energy per Si atom -5578.443708 kJ/mol
# Density = 1.742526 g / cm^3
# Si number density = 17.465010 Si / 1000 Ang^3
#
#
#
# Elastic Constant Matrix: (Units=GPa)
#
#
# Indices 1 2 3 4 5 6 
#
# 1 31.6605 24.0144 3.0515 0.0000 0.0000 0.0000
# 2 24.0144 59.2006 12.9980 0.0000 0.0000 0.0000
# 3 3.0515 12.9980 74.6492 0.0000 0.0000 0.0000
# 4 0.0000 0.0000 0.0000 5.8375 0.0000 0.0000
# 5 0.0000 0.0000 0.0000 0.0000 18.2246 0.0000
# 6 0.0000 0.0000 0.0000 0.0000 0.0000 22.5848
#
#
#
# Elastic Compliance Matrix: (Units=1/GPa)
#
#
# Indices 1 2 3 4 5 6 
#
# 1 0.045765 -0.018875 0.001416 0.000000 0.000000 0.000000
# 2 -0.018875 0.025348 -0.003642 0.000000 0.000000 0.000000
# 3 0.001416 -0.003642 0.013972 0.000000 0.000000 0.000000
# 4 0.000000 0.000000 0.000000 0.171307 0.000000 0.000000
# 5 0.000000 0.000000 0.000000 0.000000 0.054871 0.000000
# 6 0.000000 0.000000 0.000000 0.000000 0.000000 0.044278
#
#
# Mechanical properties :
#
#
# Convention : Reuss Voigt Hill
#
# Bulk Modulus (GPa) = 23.31946 27.29310 25.30628
# Shear Modulus (GPa) = 12.13479 17.69248 14.91364
#
# Velocity S-wave (km/s) = 2.63878 3.18626 2.92535
# Velocity P-wave (km/s) = 4.76081 5.40347 5.09229
#
# Compressibility (1/GPa) = 0.04288264
#
# Stress axis : x y z
#
# Youngs Moduli (GPa) = 21.85052 39.45078 71.57033
#
# Poissons Ratio (x) = 0.74465 -0.10133
# Poissons Ratio (y) = 0.41244 0.26066
# Poissons Ratio (z) = -0.03094 0.14368
#
# Static dielectric constant tensor:
#      x y z
#    x 1.588640 0.000000 0.000000 
#    y 0.000000 1.587540 0.000000 
#    z 0.000000 0.000000 1.585900 
# 
# From -- ./inp_files/55817.got.cif
#   From: 2010.05.17/outbox.cif.g08.bks.cpg/sg63_28_cif.got.tgz:55817.got - 2010.06.03 15:47:04.
