data_PCOD9470267
_publ_section_title
;
Structure prediction by ZEFSAII (Michael W. Deem and Ramdas Pophale) SiO2 
 PCOD9470267
Probable space group: C M C M
;
_chemical_formula_sum "Si O2"
_cell_formula_units_Z 104
_cell_length_a 20.683030
_cell_length_b 20.663267
_cell_length_c 15.049167
_cell_angle_alpha 90.000000
_cell_angle_beta 90.000000
_cell_angle_gamma 90.000000
_cell_volume 6431.697511
_symmetry_space_group_name_H-M "C M C M"
_symmetry_group_IT_number 63
_symmetry_cell_setting 'orthorhombic'
loop_
_space_group_symop_operation_xyz
x,y,z
-x,-y,1/2+z
x,-y,-z
-x,y,1/2-z
-x,-y,-z
x,y,1/2-z
-x,y,z
x,-y,1/2+z
1/2+x,1/2+y,z
1/2-x,1/2-y,1/2+z
1/2+x,1/2-y,-z
1/2-x,1/2+y,1/2-z
1/2-x,1/2-y,-z
1/2+x,1/2+y,1/2-z
1/2-x,1/2+y,z
1/2+x,1/2-y,1/2+z
loop_
_atom_site_type_symbol
_atom_site_label
_atom_site_fract_x
_atom_site_fract_y
_atom_site_fract_z
Si Si1 0.500000 0.280643 0.357356
Si Si2 0.740136 0.175627 0.473861
Si Si3 0.000000 0.079099 0.553933
Si Si4 0.864557 0.985820 0.100122
Si Si5 0.139118 0.268494 0.852769
Si Si6 0.779945 0.134200 0.847829
Si Si7 0.500000 0.376581 0.645384
Si Si8 0.856862 0.133044 0.348537
O O1 0.500000 0.293207 0.250000
O O2 0.500000 0.348124 0.409394
O O3 0.434851 0.242263 0.379394
O O4 0.750000 0.250000 0.500000
O O5 0.678269 0.179814 0.410605
O O6 0.734454 0.137379 0.566067
O O7 0.804145 0.153086 0.420918
O O8 0.935627 0.044737 0.589063
O O9 0.000000 0.081078 0.445884
O O10 0.821135 0.931297 0.145263
O O11 0.864950 0.055145 0.147202
O O12 0.840650 0.000000 0.000000
O O13 0.141829 0.287815 0.750000
O O14 0.172827 0.196944 0.857436
O O15 0.749596 0.138897 0.750000
O O16 0.500000 0.401731 0.750000
O O17 0.430267 0.341402 0.637415
O O18 0.834814 0.152563 0.250000
#
# Coordination Sequence:
#
# PCOD9470267 Si02
#       8
#     8  16   8  16  16  16   8  16
#     4  10  20  32  53  79 101 129 174 224 257 296
#     4  10  20  34  51  69  90 132 171 214 261 299
#     4  12  20  32  51  68 106 142 179 211 248 293
#     4  12  20  31  48  70  98 140 170 209 252 297
#     4   9  18  33  51  73  97 127 168 216 263 300
#     4  10  19  32  48  69  97 128 170 210 247 297
#     4  10  21  33  45  66  98 140 177 210 246 286
#     4  11  22  35  49  71 102 134 174 212 249 298
#
# _framework density 16.169915
#
# number of rings (size 3 to 8) (size 9 to 14) (size 15 to 20)
#    0.000    1.538    4.615    1.615    2.154    1.231 
#    0.000    0.000    0.000    0.000    0.000    0.000 
#    0.000    2.462    0.000    3.308    0.000   11.692 
#
# Total GULP energy -289731.237384 kJ/mol
# GULP energy per Si atom -5571.754565 kJ/mol
# Density = 1.613311 g / cm^3
# Si number density = 16.169915 Si / 1000 Ang^3
#
#
#
# Elastic Constant Matrix: (Units=GPa)
#
#
# Indices 1 2 3 4 5 6 
#
# 1 86.7762 36.3006 56.1457 0.0000 0.0000 0.0000
# 2 36.3006 40.1258 32.6057 0.0000 0.0000 0.0000
# 3 56.1457 32.6057 101.4444 0.0000 0.0000 0.0000
# 4 0.0000 0.0000 0.0000 19.5142 0.0000 0.0000
# 5 0.0000 0.0000 0.0000 0.0000 14.8111 0.0000
# 6 0.0000 0.0000 0.0000 0.0000 0.0000 25.0405
#
#
#
# Elastic Compliance Matrix: (Units=1/GPa)
#
#
# Indices 1 2 3 4 5 6 
#
# 1 0.022491 -0.013849 -0.007997 0.000000 0.000000 0.000000
# 2 -0.013849 0.042259 -0.005918 0.000000 0.000000 0.000000
# 3 -0.007997 -0.005918 0.016186 0.000000 0.000000 0.000000
# 4 0.000000 0.000000 0.000000 0.051245 0.000000 0.000000
# 5 0.000000 0.000000 0.000000 0.000000 0.067517 0.000000
# 6 0.000000 0.000000 0.000000 0.000000 0.000000 0.039935
#
#
# Mechanical properties :
#
#
# Convention : Reuss Voigt Hill
#
# Bulk Modulus (GPa) = 39.35651 53.16117 46.25884
# Shear Modulus (GPa) = 16.46739 18.75946 17.61343
#
# Velocity S-wave (km/s) = 3.19470 3.40979 3.30399
# Velocity P-wave (km/s) = 6.16444 6.96061 6.57459
#
# Compressibility (1/GPa) = 0.02540876
#
# Stress axis : x y z
#
# Youngs Moduli (GPa) = 44.46132 23.66344 61.78327
#
# Poissons Ratio (x) = 0.32772 0.49407
# Poissons Ratio (y) = 0.61576 0.36562
# Poissons Ratio (z) = 0.35555 0.14003
#
# Static dielectric constant tensor:
#      x y z
#    x 1.547450 0.000000 0.000000 
#    y 0.000000 1.532590 0.000000 
#    z 0.000000 0.000000 1.617570 
# 
# From -- ./inp_files/35839.got.cif
#   From: 2010.05.17/outbox.cif.g08.bks.cpg/sg63_18_cif.got.tgz:35839.got - 2010.06.03 15:47:04.
