data_PCOD9470710
_publ_section_title
;
Structure prediction by ZEFSAII (Michael W. Deem and Ramdas Pophale) SiO2 
 PCOD9470710
Probable space group: C M C M
;
_chemical_formula_sum "Si O2"
_cell_formula_units_Z 112
_cell_length_a 7.703139
_cell_length_b 31.936506
_cell_length_c 20.624197
_cell_angle_alpha 90.000000
_cell_angle_beta 90.000000
_cell_angle_gamma 90.000000
_cell_volume 5073.786441
_symmetry_space_group_name_H-M "C M C M"
_symmetry_group_IT_number 63
_symmetry_cell_setting 'orthorhombic'
loop_
_space_group_symop_operation_xyz
x,y,z
-x,-y,1/2+z
x,-y,-z
-x,y,1/2-z
-x,-y,-z
x,y,1/2-z
-x,y,z
x,-y,1/2+z
1/2+x,1/2+y,z
1/2-x,1/2-y,1/2+z
1/2+x,1/2-y,-z
1/2-x,1/2+y,1/2-z
1/2-x,1/2-y,-z
1/2+x,1/2+y,1/2-z
1/2-x,1/2+y,z
1/2+x,1/2-y,1/2+z
loop_
_atom_site_type_symbol
_atom_site_label
_atom_site_fract_x
_atom_site_fract_y
_atom_site_fract_z
Si Si1 0.700148 0.925859 0.582922
Si Si2 0.711912 0.253965 0.676942
Si Si3 0.708080 0.787803 0.047609
Si Si4 0.709804 0.649659 0.175105
Si Si5 0.199428 0.591500 0.678652
Si Si6 0.799624 0.001833 0.178317
Si Si7 0.713944 0.880153 0.459433
O O1 0.500000 0.937300 0.573954
O O2 0.713214 0.884004 0.626463
O O3 0.774770 0.913284 0.512990
O O4 0.779819 0.963621 0.623450
O O5 0.768890 0.243451 0.750000
O O6 0.500000 0.253331 0.677614
O O7 0.772409 0.223964 0.619590
O O8 0.761355 0.302201 0.662201
O O9 0.500000 0.790601 0.051859
O O10 0.769108 0.832980 0.023427
O O11 0.750000 0.750000 0.000000
O O12 0.755895 0.640344 0.250000
O O13 0.500000 0.647185 0.170320
O O14 0.277217 0.599911 0.750000
O O15 0.198183 0.541281 0.669406
O O16 0.275413 0.610491 0.613289
O O17 0.000000 0.606461 0.681223
O O18 0.753762 0.019473 0.250000
O O19 0.000000 0.989097 0.180089
O O20 0.500000 0.881977 0.460283
#
# Coordination Sequence:
#
# PCOD9470710 Si02
#       7
#    16  16  16  16  16  16  16
#     4  11  21  32  48  72 105 139 170 204 245 301
#     4   8  15  28  48  73  97 126 168 214 255 296
#     4  10  19  33  53  75 103 137 172 210 253 302
#     4   9  17  30  47  69 100 134 169 213 258 295
#     4   9  18  36  60  80 100 131 171 210 251 304
#     4  10  21  37  56  78 104 132 164 207 254 296
#     4   9  20  35  51  77 108 135 165 209 260 297
#
# _framework density 22.074244
#
# number of rings (size 3 to 8) (size 9 to 14) (size 15 to 20)
#    0.000    2.571    0.000    3.000    0.000    4.000 
#    0.000    8.571    0.000    1.286    0.000    0.000 
#    0.000    0.000    0.000    0.000    0.000    0.000 
#
# Total GULP energy -312632.940217 kJ/mol
# GULP energy per Si atom -5582.731075 kJ/mol
# Density = 2.202400 g / cm^3
# Si number density = 22.074244 Si / 1000 Ang^3
#
#
#
# Elastic Constant Matrix: (Units=GPa)
#
#
# Indices 1 2 3 4 5 6 
#
# 1 36.9596 -3.0542 -0.8560 0.0000 0.0000 0.0000
# 2 -3.0542 41.7768 33.8432 0.0000 0.0000 0.0000
# 3 -0.8560 33.8432 107.0011 0.0000 0.0000 0.0000
# 4 0.0000 0.0000 0.0000 38.4553 0.0000 0.0000
# 5 0.0000 0.0000 0.0000 0.0000 5.0007 0.0000
# 6 0.0000 0.0000 0.0000 0.0000 0.0000 15.3793
#
#
#
# Elastic Compliance Matrix: (Units=1/GPa)
#
#
# Indices 1 2 3 4 5 6 
#
# 1 0.027245 0.002441 -0.000554 0.000000 0.000000 0.000000
# 2 0.002441 0.032401 -0.010229 0.000000 0.000000 0.000000
# 3 -0.000554 -0.010229 0.012576 0.000000 0.000000 0.000000
# 4 0.000000 0.000000 0.000000 0.026004 0.000000 0.000000
# 5 0.000000 0.000000 0.000000 0.000000 0.199972 0.000000
# 6 0.000000 0.000000 0.000000 0.000000 0.000000 0.065022
#
#
# Mechanical properties :
#
#
# Convention : Reuss Voigt Hill
#
# Bulk Modulus (GPa) = 18.00530 27.28929 22.64730
# Shear Modulus (GPa) = 12.54962 22.15403 17.35182
#
# Velocity S-wave (km/s) = 2.38695 3.17142 2.80673
# Velocity P-wave (km/s) = 3.97129 5.07936 4.55911
#
# Compressibility (1/GPa) = 0.05553919
#
# Stress axis : x y z
#
# Youngs Moduli (GPa) = 36.70340 30.86299 79.51370
#
# Poissons Ratio (x) = -0.07532 0.04405
# Poissons Ratio (y) = -0.08958 0.81331
# Poissons Ratio (z) = 0.02033 0.31569
#
# Static dielectric constant tensor:
#      x y z
#    x 1.823570 0.000000 0.000000 
#    y 0.000000 1.771600 0.000000 
#    z 0.000000 0.000000 1.823110 
# 
# From -- ./inp_files/53325.got.cif
#   From: 2010.05.17/outbox.cif.g08.bks.cpg/sg63_27_cif.got.tgz:53325.got - 2010.06.03 15:47:04.
