data_PCOD9470869
_publ_section_title
;
Structure prediction by ZEFSAII (Michael W. Deem and Ramdas Pophale) SiO2 
 PCOD9470869
Probable space group: C M C M
;
_chemical_formula_sum "Si O2"
_cell_formula_units_Z 96
_cell_length_a 20.554374
_cell_length_b 10.031471
_cell_length_c 23.503235
_cell_angle_alpha 90.000000
_cell_angle_beta 90.000000
_cell_angle_gamma 90.000000
_cell_volume 4846.146284
_symmetry_space_group_name_H-M "C M C M"
_symmetry_group_IT_number 63
_symmetry_cell_setting 'orthorhombic'
loop_
_space_group_symop_operation_xyz
x,y,z
-x,-y,1/2+z
x,-y,-z
-x,y,1/2-z
-x,-y,-z
x,y,1/2-z
-x,y,z
x,-y,1/2+z
1/2+x,1/2+y,z
1/2-x,1/2-y,1/2+z
1/2+x,1/2-y,-z
1/2-x,1/2+y,1/2-z
1/2-x,1/2-y,-z
1/2+x,1/2+y,1/2-z
1/2-x,1/2+y,z
1/2+x,1/2-y,1/2+z
loop_
_atom_site_type_symbol
_atom_site_label
_atom_site_fract_x
_atom_site_fract_y
_atom_site_fract_z
Si Si1 0.888594 0.542287 0.561810
Si Si2 0.617382 0.746859 0.581318
Si Si3 0.756131 0.357435 0.099267
Si Si4 0.428478 0.677208 0.044744
Si Si5 0.173958 0.896824 0.867427
Si Si6 0.924414 0.065164 0.812783
O O1 0.912413 0.500000 0.500000
O O2 0.892882 0.403516 0.594846
O O3 0.813166 0.588603 0.558762
O O4 0.726901 0.514175 0.630635
O O5 0.694075 0.716275 0.572126
O O6 0.583209 0.703775 0.522247
O O7 0.593816 0.663005 0.635477
O O8 0.791600 0.245259 0.137169
O O9 0.631975 0.600604 0.073281
O O10 0.500000 0.616668 0.053133
O O11 0.425615 0.821874 0.076124
O O12 0.379218 0.563752 0.178858
O O13 0.912546 0.123724 0.750000
O O14 0.000000 0.030927 0.817001
#
# Coordination Sequence:
#
# PCOD9470869 Si02
#       6
#    16  16  16  16  16  16
#     4   9  19  30  52  82 120 160 187 231 286 347
#     4  10  20  34  57  85 119 157 191 246 290 350
#     4  10  19  33  55  83 117 146 193 227 288 346
#     4  10  21  34  53  87 122 160 199 235 291 352
#     4  10  21  36  59  84 117 148 189 239 287 344
#     4  10  22  40  61  83 110 150 196 239 290 345
#
# _framework density 19.809553999999999
#
# number of rings (size 3 to 8) (size 9 to 14) (size 15 to 20)
#    0.000    2.167    1.667    1.000    2.333    7.667 
#    0.000    7.500    0.000    4.000    0.000    9.333 
#    0.000    0.000    0.000    0.000    0.000    0.000 
#
# Total GULP energy -267442.714312 kJ/mol
# GULP energy per Si atom -5571.723215 kJ/mol
# Density = 1.976447 g / cm^3
# Si number density = 19.809554 Si / 1000 Ang^3
#
#
#
# Elastic Constant Matrix: (Units=GPa)
#
#
# Indices 1 2 3 4 5 6 
#
# 1 102.5123 26.2419 25.1177 0.0000 0.0000 0.0000
# 2 26.2419 118.4567 30.9214 0.0000 0.0000 0.0000
# 3 25.1177 30.9214 75.7471 0.0000 0.0000 0.0000
# 4 0.0000 0.0000 0.0000 11.9152 0.0000 0.0000
# 5 0.0000 0.0000 0.0000 0.0000 7.3518 0.0000
# 6 0.0000 0.0000 0.0000 0.0000 0.0000 13.8203
#
#
#
# Elastic Compliance Matrix: (Units=1/GPa)
#
#
# Indices 1 2 3 4 5 6 
#
# 1 0.010897 -0.001646 -0.002941 0.000000 0.000000 0.000000
# 2 -0.001646 0.009697 -0.003413 0.000000 0.000000 0.000000
# 3 -0.002941 -0.003413 0.015570 0.000000 0.000000 0.000000
# 4 0.000000 0.000000 0.000000 0.083926 0.000000 0.000000
# 5 0.000000 0.000000 0.000000 0.000000 0.136022 0.000000
# 6 0.000000 0.000000 0.000000 0.000000 0.000000 0.072357
#
#
# Mechanical properties :
#
#
# Convention : Reuss Voigt Hill
#
# Bulk Modulus (GPa) = 49.59342 51.25312 50.42327
# Shear Modulus (GPa) = 14.23721 20.91314 17.57518
#
# Velocity S-wave (km/s) = 2.68377 3.25269 2.98183
# Velocity P-wave (km/s) = 5.89007 6.32738 6.11264
#
# Compressibility (1/GPa) = 0.02016397
#
# Stress axis : x y z
#
# Youngs Moduli (GPa) = 91.76795 103.11986 64.22460
#
# Poissons Ratio (x) = 0.16976 0.18891
# Poissons Ratio (y) = 0.15107 0.21919
# Poissons Ratio (z) = 0.26993 0.35193
#
# Static dielectric constant tensor:
#      x y z
#    x 1.731170 0.000000 0.000000 
#    y 0.000000 1.770400 0.000000 
#    z 0.000000 0.000000 1.681740 
# 
# From -- ./inp_files/48002.got.cif
#   From: 2010.05.17/outbox.cif.g08.bks.cpg/sg63_25_cif.got.tgz:48002.got - 2010.06.03 15:47:04.
