data_PCOD9470448
_publ_section_title
;
Structure prediction by ZEFSAII (Michael W. Deem and Ramdas Pophale) SiO2 
 PCOD9470448
Probable space group: C M C M
;
_chemical_formula_sum "Si O2"
_cell_formula_units_Z 96
_cell_length_a 24.506566
_cell_length_b 23.807568
_cell_length_c 7.672092
_cell_angle_alpha 90.000000
_cell_angle_beta 90.000000
_cell_angle_gamma 90.000000
_cell_volume 4476.218679
_symmetry_space_group_name_H-M "C M C M"
_symmetry_group_IT_number 63
_symmetry_cell_setting 'orthorhombic'
loop_
_space_group_symop_operation_xyz
x,y,z
-x,-y,1/2+z
x,-y,-z
-x,y,1/2-z
-x,-y,-z
x,y,1/2-z
-x,y,z
x,-y,1/2+z
1/2+x,1/2+y,z
1/2-x,1/2-y,1/2+z
1/2+x,1/2-y,-z
1/2-x,1/2+y,1/2-z
1/2-x,1/2-y,-z
1/2+x,1/2+y,1/2-z
1/2-x,1/2+y,z
1/2+x,1/2-y,1/2+z
loop_
_atom_site_type_symbol
_atom_site_label
_atom_site_fract_x
_atom_site_fract_y
_atom_site_fract_z
Si Si1 0.338999 0.246520 0.049729
Si Si2 0.059045 0.066739 0.459478
Si Si3 0.562739 0.059628 0.041506
Si Si4 0.248623 0.833365 0.045367
Si Si5 0.437063 0.182411 0.036243
Si Si6 0.821296 0.934218 0.542390
O O1 0.348129 0.263225 0.250000
O O2 0.300823 0.294634 0.972211
O O3 0.396876 0.230485 0.970519
O O4 0.302876 0.189521 0.044625
O O5 0.059090 0.073432 0.250000
O O6 0.118651 0.086299 0.524661
O O7 0.000000 0.089014 0.524610
O O8 0.058849 0.000000 0.500000
O O9 0.560388 0.062496 0.250000
O O10 0.500000 0.056892 0.974814
O O11 0.583390 0.120232 0.980813
O O12 0.589993 0.000000 0.000000
O O13 0.255863 0.820914 0.250000
O O14 0.228102 0.896500 0.025628
O O15 0.435630 0.183563 0.250000
O O16 0.500000 0.188787 0.985441
O O17 0.821756 0.928617 0.750000
O O18 0.815687 0.000000 0.500000
#
# Coordination Sequence:
#
# PCOD9470448 Si02
#       6
#    16  16  16  16  16  16
#     4   9  18  34  55  74  94 127 169 209 249 296
#     4   8  14  25  42  65  93 126 161 194 233 286
#     4   8  13  22  38  61  89 120 151 182 221 274
#     4  10  20  34  52  74  99 129 169 211 250 295
#     4   8  14  27  49  74  97 123 159 204 251 297
#     4  10  19  32  52  76 103 133 165 205 252 299
#
# _framework density 21.446673000000001
#
# number of rings (size 3 to 8) (size 9 to 14) (size 15 to 20)
#    0.000    3.167    0.000    2.000    0.000    1.333 
#    0.000    2.500    0.000    4.500    0.000    0.000 
#    0.000    0.000    0.000    0.000    0.000    0.000 
#
# Total GULP energy -267233.988793 kJ/mol
# GULP energy per Si atom -5567.374767 kJ/mol
# Density = 2.139786 g / cm^3
# Si number density = 21.446673 Si / 1000 Ang^3
#
#
#
# Elastic Constant Matrix: (Units=GPa)
#
#
# Indices 1 2 3 4 5 6 
#
# 1 44.9808 21.4290 -9.9115 0.0000 0.0000 0.0000
# 2 21.4290 36.0366 -5.1512 0.0000 0.0000 0.0000
# 3 -9.9115 -5.1512 47.6284 0.0000 0.0000 0.0000
# 4 0.0000 0.0000 0.0000 13.4088 0.0000 0.0000
# 5 0.0000 0.0000 0.0000 0.0000 6.3097 0.0000
# 6 0.0000 0.0000 0.0000 0.0000 0.0000 24.6980
#
#
#
# Elastic Compliance Matrix: (Units=1/GPa)
#
#
# Indices 1 2 3 4 5 6 
#
# 1 0.032012 -0.018368 0.004675 0.000000 0.000000 0.000000
# 2 -0.018368 0.038724 0.000366 0.000000 0.000000 0.000000
# 3 0.004675 0.000366 0.022008 0.000000 0.000000 0.000000
# 4 0.000000 0.000000 0.000000 0.074578 0.000000 0.000000
# 5 0.000000 0.000000 0.000000 0.000000 0.158487 0.000000
# 6 0.000000 0.000000 0.000000 0.000000 0.000000 0.040489
#
#
# Mechanical properties :
#
#
# Convention : Reuss Voigt Hill
#
# Bulk Modulus (GPa) = 15.13052 15.70872 15.41962
# Shear Modulus (GPa) = 12.04871 17.03527 14.54199
#
# Velocity S-wave (km/s) = 2.37280 2.82141 2.60677
# Velocity P-wave (km/s) = 3.81801 4.23724 4.03308
#
# Compressibility (1/GPa) = 0.06609156
#
# Stress axis : x y z
#
# Youngs Moduli (GPa) = 31.23801 25.82375 45.43733
#
# Poissons Ratio (x) = 0.47432 -0.21243
# Poissons Ratio (y) = 0.57377 -0.01662
# Poissons Ratio (z) = -0.14604 -0.00945
#
# Static dielectric constant tensor:
#      x y z
#    x 1.821100 0.000000 0.000000 
#    y 0.000000 1.772240 0.000000 
#    z 0.000000 0.000000 1.824720 
# 
# From -- ./inp_files/10441.got.cif
#   From: 2010.05.17/outbox.cif.g08.bks.cpg/sg63_6_cif.got.tgz:10441.got - 2010.06.03 15:47:04.
