data_PCOD9470099
_publ_section_title
;
Structure prediction by ZEFSAII (Michael W. Deem and Ramdas Pophale) SiO2 
 PCOD9470099
Probable space group: C M C M
;
_chemical_formula_sum "Si O2"
_cell_formula_units_Z 96
_cell_length_a 32.301891
_cell_length_b 19.649497
_cell_length_c 8.620640
_cell_angle_alpha 90.000000
_cell_angle_beta 90.000000
_cell_angle_gamma 90.000000
_cell_volume 5471.657365
_symmetry_space_group_name_H-M "C M C M"
_symmetry_group_IT_number 63
_symmetry_cell_setting 'orthorhombic'
loop_
_space_group_symop_operation_xyz
x,y,z
-x,-y,1/2+z
x,-y,-z
-x,y,1/2-z
-x,-y,-z
x,y,1/2-z
-x,y,z
x,-y,1/2+z
1/2+x,1/2+y,z
1/2-x,1/2-y,1/2+z
1/2+x,1/2-y,-z
1/2-x,1/2+y,1/2-z
1/2-x,1/2-y,-z
1/2+x,1/2+y,1/2-z
1/2-x,1/2+y,z
1/2+x,1/2-y,1/2+z
loop_
_atom_site_type_symbol
_atom_site_label
_atom_site_fract_x
_atom_site_fract_y
_atom_site_fract_z
Si Si1 0.452920 0.925005 0.437187
Si Si2 0.706009 0.675692 0.436183
Si Si3 0.796213 0.329178 0.565937
Si Si4 0.118296 0.677933 0.935358
Si Si5 0.620207 0.330877 0.065436
Si Si6 0.547406 0.423828 0.936038
O O1 0.452075 0.927223 0.250000
O O2 0.500000 0.907673 0.485372
O O3 0.419222 0.869946 0.487547
O O4 0.443380 0.000000 0.500000
O O5 0.704663 0.685741 0.250000
O O6 0.750544 0.642345 0.473954
O O7 0.706002 0.749367 0.519208
O O8 0.663442 0.642238 0.492053
O O9 0.802112 0.334951 0.750000
O O10 0.837333 0.354368 0.480901
O O11 0.116726 0.686235 0.750000
O O12 0.115371 0.752626 0.010408
O O13 0.623351 0.333026 0.250000
O O14 0.581375 0.374087 0.007187
O O15 0.551182 0.424190 0.750000
O O16 0.500000 0.403466 0.975179
O O17 0.553515 0.500000 0.000000
#
# Coordination Sequence:
#
# PCOD9470099 Si02
#       6
#    16  16  16  16  16  16
#     4   9  19  35  53  72  95 127 166 204 246 298
#     4   9  16  27  44  67  97 131 165 202 246 295
#     4   9  16  26  43  68  97 129 164 203 246 294
#     4  10  19  31  49  74 103 133 166 207 253 299
#     4  11  21  32  50  77 106 134 167 207 248 291
#     4  10  21  38  58  77 100 132 168 205 247 298
#
# _framework density 17.544958999999999
#
# number of rings (size 3 to 8) (size 9 to 14) (size 15 to 20)
#    0.000    2.333    0.000    5.500    0.000    5.000 
#    0.000    1.667    0.000    1.000    0.000    2.333 
#    0.000    0.000    0.000    0.000    0.000    0.000 
#
# Total GULP energy -267523.667760 kJ/mol
# GULP energy per Si atom -5573.409745 kJ/mol
# Density = 1.750503 g / cm^3
# Si number density = 17.544959 Si / 1000 Ang^3
#
#
#
# Elastic Constant Matrix: (Units=GPa)
#
#
# Indices 1 2 3 4 5 6 
#
# 1 159.4109 67.5854 25.8594 0.0000 0.0000 0.0000
# 2 67.5854 44.5511 15.9950 0.0000 0.0000 0.0000
# 3 25.8594 15.9950 38.8378 0.0000 0.0000 0.0000
# 4 0.0000 0.0000 0.0000 22.6693 0.0000 0.0000
# 5 0.0000 0.0000 0.0000 0.0000 23.5922 0.0000
# 6 0.0000 0.0000 0.0000 0.0000 0.0000 -10.0887
#
#
#
# Elastic Compliance Matrix: (Units=1/GPa)
#
#
# Indices 1 2 3 4 5 6 
#
# 1 0.017604 -0.026401 -0.000848 0.000000 0.000000 0.000000
# 2 -0.026401 0.065936 -0.009576 0.000000 0.000000 0.000000
# 3 -0.000848 -0.009576 0.030257 0.000000 0.000000 0.000000
# 4 0.000000 0.000000 0.000000 0.044113 0.000000 0.000000
# 5 0.000000 0.000000 0.000000 0.000000 0.042387 0.000000
# 6 0.000000 0.000000 0.000000 0.000000 0.000000 -0.099121
#
#
# Mechanical properties :
#
#
# Convention : Reuss Voigt Hill
#
# Bulk Modulus (GPa) = 24.90958 51.29770 38.10364
# Shear Modulus (GPa) = 26.56627 16.12522 21.34575
#
# Velocity S-wave (km/s) = 3.89547 3.03492 3.49181
# Velocity P-wave (km/s) = 5.87038 6.44844 6.16618
#
# Compressibility (1/GPa) = 0.04014520
#
# Stress axis : x y z
#
# Youngs Moduli (GPa) = 56.80503 15.16623 33.05048
#
# Poissons Ratio (x) = 0.40041 0.02803
# Poissons Ratio (y) = 1.49973 0.31650
# Poissons Ratio (z) = 0.04818 0.14523
#
# Static dielectric constant tensor:
#      x y z
#    x 1.656140 0.000000 0.000000 
#    y 0.000000 1.556810 0.000000 
#    z 0.000000 0.000000 1.588290 
# 
# From -- ./inp_files/12410.got.cif
#   From: 2010.05.17/outbox.cif.g08.bks.cpg/sg63_7_cif.got.tgz:12410.got - 2010.06.03 15:47:04.
