data_PCOD9470714
_publ_section_title
;
Structure prediction by ZEFSAII (Michael W. Deem and Ramdas Pophale) SiO2 
 PCOD9470714
Probable space group: C M C M
;
_chemical_formula_sum "Si O2"
_cell_formula_units_Z 72
_cell_length_a 15.830607
_cell_length_b 26.936063
_cell_length_c 7.438253
_cell_angle_alpha 90.000000
_cell_angle_beta 90.000000
_cell_angle_gamma 90.000000
_cell_volume 3171.776907
_symmetry_space_group_name_H-M "C M C M"
_symmetry_group_IT_number 63
_symmetry_cell_setting 'orthorhombic'
loop_
_space_group_symop_operation_xyz
x,y,z
-x,-y,1/2+z
x,-y,-z
-x,y,1/2-z
-x,-y,-z
x,y,1/2-z
-x,y,z
x,-y,1/2+z
1/2+x,1/2+y,z
1/2-x,1/2-y,1/2+z
1/2+x,1/2-y,-z
1/2-x,1/2+y,1/2-z
1/2-x,1/2-y,-z
1/2+x,1/2+y,1/2-z
1/2-x,1/2+y,z
1/2+x,1/2-y,1/2+z
loop_
_atom_site_type_symbol
_atom_site_label
_atom_site_fract_x
_atom_site_fract_y
_atom_site_fract_z
Si Si1 0.682519 0.443821 0.035052
Si Si2 0.345012 0.767499 0.464489
Si Si3 0.000000 0.199582 0.031350
Si Si4 0.000000 0.083441 0.541219
Si Si5 0.339038 0.119865 0.529408
Si Si6 0.500000 0.941883 0.035528
O O1 0.678222 0.437090 0.250000
O O2 0.588033 0.435941 0.961598
O O3 0.750502 0.403857 0.969025
O O4 0.711322 0.500000 0.000000
O O5 0.356732 0.769525 0.250000
O O6 0.250000 0.750000 0.500000
O O7 0.416681 0.729566 0.530007
O O8 0.353515 0.823844 0.531083
O O9 0.000000 0.197776 0.250000
O O10 0.000000 0.143061 0.967517
O O11 0.000000 0.067710 0.750000
O O12 0.337759 0.120210 0.750000
O O13 0.415655 0.085021 0.469360
O O14 0.500000 0.935192 0.250000
O O15 0.500000 0.000000 0.000000
#
# Coordination Sequence:
#
# PCOD9470714 Si02
#       6
#    16  16   8   8  16   8
#     4  10  20  34  52  75 101 133 170 209 253 303
#     4  10  20  36  56  79 107 140 177 217 260 312
#     4  10  21  35  55  82 108 136 176 222 263 303
#     4  10  21  36  54  75 103 138 173 209 258 314
#     4   9  18  33  53  74 100 134 169 203 250 309
#     4  10  19  33  53  75  99 132 169 207 251 301
#
# _framework density 22.700208
#
# number of rings (size 3 to 8) (size 9 to 14) (size 15 to 20)
#    0.000    2.222    0.000    3.000    0.000    6.222 
#    0.000    2.222    0.000    1.333    0.000    0.000 
#    0.000    0.000    0.000    0.000    0.000    0.000 
#
# Total GULP energy -201293.294776 kJ/mol
# GULP energy per Si atom -5591.480410 kJ/mol
# Density = 2.264854 g / cm^3
# Si number density = 22.700208 Si / 1000 Ang^3
#
#
#
# Elastic Constant Matrix: (Units=GPa)
#
#
# Indices 1 2 3 4 5 6 
#
# 1 85.7764 -3.8547 -3.5473 0.0000 0.0000 0.0000
# 2 -3.8547 90.8202 -19.4012 0.0000 0.0000 0.0000
# 3 -3.5473 -19.4012 70.9576 0.0000 0.0000 0.0000
# 4 0.0000 0.0000 0.0000 24.0587 0.0000 0.0000
# 5 0.0000 0.0000 0.0000 0.0000 -6.4773 0.0000
# 6 0.0000 0.0000 0.0000 0.0000 0.0000 103.9175
#
#
#
# Elastic Compliance Matrix: (Units=1/GPa)
#
#
# Indices 1 2 3 4 5 6 
#
# 1 0.011720 0.000661 0.000767 0.000000 0.000000 0.000000
# 2 0.000661 0.011731 0.003241 0.000000 0.000000 0.000000
# 3 0.000767 0.003241 0.015017 0.000000 0.000000 0.000000
# 4 0.000000 0.000000 0.000000 0.041565 0.000000 0.000000
# 5 0.000000 0.000000 0.000000 0.000000 -0.154385 0.000000
# 6 0.000000 0.000000 0.000000 0.000000 0.000000 0.009623
#
#
# Mechanical properties :
#
#
# Convention : Reuss Voigt Hill
#
# Bulk Modulus (GPa) = 20.91835 21.54973 21.23404
# Shear Modulus (GPa) = -86.01282 42.59027 -21.71128
#
# Velocity S-wave (km/s) = -6.16223 4.33622 -3.09598
# Velocity P-wave (km/s) = 6.43394 5.88083 1.84546
#
# Compressibility (1/GPa) = 0.04780491
#
# Stress axis : x y z
#
# Youngs Moduli (GPa) = 85.32682 85.24356 66.58989
#
# Poissons Ratio (x) = -0.05636 -0.05105
# Poissons Ratio (y) = -0.05642 -0.21579
# Poissons Ratio (z) = -0.06542 -0.27624
#
# Static dielectric constant tensor:
#      x y z
#    x 1.827540 0.000000 0.000000 
#    y 0.000000 1.779020 0.000000 
#    z 0.000000 0.000000 1.843770 
# 
# From -- ./inp_files/4732.got.cif
#   From: 2010.05.17/outbox.cif.g08.bks.cpg/sg63_3_cif.got.tgz:4732.got - 2010.06.03 15:47:04.
