data_PCOD9470706
_publ_section_title
;
Structure prediction by ZEFSAII (Michael W. Deem and Ramdas Pophale) SiO2 
 PCOD9470706
Probable space group: C M C M
;
_chemical_formula_sum "Si O2"
_cell_formula_units_Z 96
_cell_length_a 7.712053
_cell_length_b 23.119919
_cell_length_c 24.202383
_cell_angle_alpha 90.000000
_cell_angle_beta 90.000000
_cell_angle_gamma 90.000000
_cell_volume 4315.334278
_symmetry_space_group_name_H-M "C M C M"
_symmetry_group_IT_number 63
_symmetry_cell_setting 'orthorhombic'
loop_
_space_group_symop_operation_xyz
x,y,z
-x,-y,1/2+z
x,-y,-z
-x,y,1/2-z
-x,-y,-z
x,y,1/2-z
-x,y,z
x,-y,1/2+z
1/2+x,1/2+y,z
1/2-x,1/2-y,1/2+z
1/2+x,1/2-y,-z
1/2-x,1/2+y,1/2-z
1/2-x,1/2-y,-z
1/2+x,1/2+y,1/2-z
1/2-x,1/2+y,z
1/2+x,1/2-y,1/2+z
loop_
_atom_site_type_symbol
_atom_site_label
_atom_site_fract_x
_atom_site_fract_y
_atom_site_fract_z
Si Si1 0.702809 0.654594 0.906568
Si Si2 0.798073 0.036111 0.118110
Si Si3 0.709685 0.850693 0.687532
Si Si4 0.296549 0.891995 0.984316
Si Si5 0.786560 0.074160 0.686373
Si Si6 0.289265 0.780961 0.583607
O O1 0.500000 0.665445 0.897124
O O2 0.771788 0.629341 0.849325
O O3 0.776052 0.716241 0.926846
O O4 0.717406 0.607121 0.954924
O O5 0.774522 0.091034 0.158503
O O6 0.726304 0.055805 0.058702
O O7 0.000000 0.025422 0.109137
O O8 0.726017 0.981422 0.151284
O O9 0.771804 0.844727 0.750000
O O10 0.500000 0.854133 0.688220
O O11 0.754714 0.798657 0.646351
O O12 0.500000 0.884874 0.992839
O O13 0.224557 0.833711 0.954387
O O14 0.731097 0.073077 0.750000
O O15 0.000000 0.073230 0.686865
O O16 0.500000 0.782615 0.578095
#
# Coordination Sequence:
#
# PCOD9470706 Si02
#       6
#    16  16  16  16  16  16
#     4  10  19  33  54  77 101 133 171 205 245 299
#     4  10  19  33  53  75 100 131 170 212 253 297
#     4   9  17  30  49  75 105 134 167 210 257 301
#     4  10  20  35  53  76 105 131 163 209 259 303
#     4   9  19  34  52  76 104 132 165 207 249 291
#     4   8  16  30  49  74 102 133 167 204 247 297
#
# _framework density 22.246248999999999
#
# number of rings (size 3 to 8) (size 9 to 14) (size 15 to 20)
#    0.000    2.667    0.000    3.000    0.000    2.333 
#    0.000   11.667    0.000    2.500    0.000    0.000 
#    0.000    0.000    0.000    0.000    0.000    0.000 
#
# Total GULP energy -267859.985936 kJ/mol
# GULP energy per Si atom -5580.416374 kJ/mol
# Density = 2.219562 g / cm^3
# Si number density = 22.246249 Si / 1000 Ang^3
#
#
#
# Elastic Constant Matrix: (Units=GPa)
#
#
# Indices 1 2 3 4 5 6 
#
# 1 31.3790 9.1584 -7.6792 0.0000 0.0000 0.0000
# 2 9.1584 33.8447 35.0901 0.0000 0.0000 0.0000
# 3 -7.6792 35.0901 97.2488 0.0000 0.0000 0.0000
# 4 0.0000 0.0000 0.0000 21.7700 0.0000 0.0000
# 5 0.0000 0.0000 0.0000 0.0000 13.6471 0.0000
# 6 0.0000 0.0000 0.0000 0.0000 0.0000 7.6029
#
#
#
# Elastic Compliance Matrix: (Units=1/GPa)
#
#
# Indices 1 2 3 4 5 6 
#
# 1 0.041572 -0.023411 0.011730 0.000000 0.000000 0.000000
# 2 -0.023411 0.060391 -0.023640 0.000000 0.000000 0.000000
# 3 0.011730 -0.023640 0.019739 0.000000 0.000000 0.000000
# 4 0.000000 0.000000 0.000000 0.045935 0.000000 0.000000
# 5 0.000000 0.000000 0.000000 0.000000 0.073276 0.000000
# 6 0.000000 0.000000 0.000000 0.000000 0.000000 0.131528
#
#
# Mechanical properties :
#
#
# Convention : Reuss Voigt Hill
#
# Bulk Modulus (GPa) = 19.58442 26.17902 22.88172
# Shear Modulus (GPa) = 10.86715 16.99755 13.93235
#
# Velocity S-wave (km/s) = 2.21259 2.76717 2.50527
# Velocity P-wave (km/s) = 3.91790 4.69074 4.32163
#
# Compressibility (1/GPa) = 0.05106100
#
# Stress axis : x y z
#
# Youngs Moduli (GPa) = 24.05465 16.55868 50.66119
#
# Poissons Ratio (x) = 0.38766 -0.59426
# Poissons Ratio (y) = 0.56315 1.19761
# Poissons Ratio (z) = -0.28216 0.39144
#
# Static dielectric constant tensor:
#      x y z
#    x 1.832150 0.000000 0.000000 
#    y 0.000000 1.840240 0.000000 
#    z 0.000000 0.000000 1.807460 
# 
# From -- ./inp_files/59834.got.cif
#   From: 2010.05.17/outbox.cif.g08.bks.cpg/sg63_30_cif.got.tgz:59834.got - 2010.06.03 15:47:04.
