data_PCOD9470640
_publ_section_title
;
Structure prediction by ZEFSAII (Michael W. Deem and Ramdas Pophale) SiO2 
 PCOD9470640
Probable space group: C M C M
;
_chemical_formula_sum "Si O2"
_cell_formula_units_Z 112
_cell_length_a 14.591793
_cell_length_b 23.604631
_cell_length_c 14.781465
_cell_angle_alpha 90.000000
_cell_angle_beta 90.000000
_cell_angle_gamma 90.000000
_cell_volume 5091.237481
_symmetry_space_group_name_H-M "C M C M"
_symmetry_group_IT_number 63
_symmetry_cell_setting 'orthorhombic'
loop_
_space_group_symop_operation_xyz
x,y,z
-x,-y,1/2+z
x,-y,-z
-x,y,1/2-z
-x,-y,-z
x,y,1/2-z
-x,y,z
x,-y,1/2+z
1/2+x,1/2+y,z
1/2-x,1/2-y,1/2+z
1/2+x,1/2-y,-z
1/2-x,1/2+y,1/2-z
1/2-x,1/2-y,-z
1/2+x,1/2+y,1/2-z
1/2-x,1/2+y,z
1/2+x,1/2-y,1/2+z
loop_
_atom_site_type_symbol
_atom_site_label
_atom_site_fract_x
_atom_site_fract_y
_atom_site_fract_z
Si Si1 0.601958 0.515508 0.393945
Si Si2 0.394678 0.869485 0.946989
Si Si3 0.744304 0.573461 0.850210
Si Si4 0.107139 0.149011 0.354219
Si Si5 0.895973 0.743997 0.354030
Si Si6 0.219090 0.174132 0.528444
Si Si7 0.608299 0.987425 0.858299
O O1 0.610629 0.500000 0.500000
O O2 0.500000 0.498335 0.365288
O O3 0.678772 0.480363 0.344985
O O4 0.611669 0.581665 0.373062
O O5 0.500000 0.874558 0.977850
O O6 0.393678 0.823784 0.865477
O O7 0.361547 0.930383 0.910274
O O8 0.326981 0.838699 0.017069
O O9 0.760336 0.597790 0.750000
O O10 0.693834 0.618136 0.914031
O O11 0.837835 0.544271 0.885562
O O12 0.133627 0.160516 0.250000
O O13 0.171437 0.175339 0.430677
O O14 0.000000 0.165671 0.365687
O O15 0.883485 0.759769 0.250000
O O16 0.819263 0.773562 0.415080
O O17 0.000000 0.761600 0.382514
O O18 0.621923 0.980162 0.750000
O O19 0.500000 0.993812 0.874417
#
# Coordination Sequence:
#
# PCOD9470640 Si02
#       7
#    16  16  16  16  16  16  16
#     4  10  19  33  51  73 109 157 202 246 294 349
#     4  10  22  39  62  90 118 156 208 261 308 351
#     4  11  23  36  55  86 123 161 201 243 299 371
#     4  10  21  36  54  79 114 157 203 249 301 363
#     4  10  22  42  67  93 121 156 203 258 309 361
#     4  12  23  38  60  89 125 161 196 245 305 375
#     4   9  19  37  60  87 120 158 202 253 304 354
#
# _framework density 21.99858
#
# number of rings (size 3 to 8) (size 9 to 14) (size 15 to 20)
#    0.000    1.714    1.429    3.000    0.000    6.000 
#    0.000    1.429    0.000    1.286    0.000    2.000 
#    0.000    0.000    0.000    0.000    0.000    0.000 
#
# Total GULP energy -312814.466453 kJ/mol
# GULP energy per Si atom -5585.972615 kJ/mol
# Density = 2.194851 g / cm^3
# Si number density = 21.998580 Si / 1000 Ang^3
#
#
#
# Elastic Constant Matrix: (Units=GPa)
#
#
# Indices 1 2 3 4 5 6 
#
# 1 47.3686 10.7739 35.4183 0.0000 0.0000 0.0000
# 2 10.7739 61.5455 25.6214 0.0000 0.0000 0.0000
# 3 35.4183 25.6214 111.0851 0.0000 0.0000 0.0000
# 4 0.0000 0.0000 0.0000 15.2859 0.0000 0.0000
# 5 0.0000 0.0000 0.0000 0.0000 30.8436 0.0000
# 6 0.0000 0.0000 0.0000 0.0000 0.0000 21.8048
#
#
#
# Elastic Compliance Matrix: (Units=1/GPa)
#
#
# Indices 1 2 3 4 5 6 
#
# 1 0.027813 -0.001302 -0.008568 0.000000 0.000000 0.000000
# 2 -0.001302 0.018035 -0.003745 0.000000 0.000000 0.000000
# 3 -0.008568 -0.003745 0.012597 0.000000 0.000000 0.000000
# 4 0.000000 0.000000 0.000000 0.065420 0.000000 0.000000
# 5 0.000000 0.000000 0.000000 0.000000 0.032422 0.000000
# 6 0.000000 0.000000 0.000000 0.000000 0.000000 0.045861
#
#
# Mechanical properties :
#
#
# Convention : Reuss Voigt Hill
#
# Bulk Modulus (GPa) = 32.03374 40.40293 36.21834
# Shear Modulus (GPa) = 20.85221 23.46592 22.15906
#
# Velocity S-wave (km/s) = 3.08212 3.26958 3.17723
# Velocity P-wave (km/s) = 5.22104 5.71486 5.47352
#
# Compressibility (1/GPa) = 0.03121709
#
# Stress axis : x y z
#
# Youngs Moduli (GPa) = 35.95395 55.44797 79.38102
#
# Poissons Ratio (x) = 0.07220 0.68011
# Poissons Ratio (y) = 0.04682 0.29724
# Poissons Ratio (z) = 0.30804 0.20763
#
# Static dielectric constant tensor:
#      x y z
#    x 1.843830 0.000000 0.000000 
#    y 0.000000 1.806360 0.000000 
#    z 0.000000 0.000000 1.852760 
# 
# From -- ./inp_files/32333.got.cif
#   From: 2010.05.17/outbox.cif.g08.bks.cpg/sg63_17_cif.got.tgz:32333.got - 2010.06.03 15:47:04.
