data_PCOD9470150
_publ_section_title
;
Structure prediction by ZEFSAII (Michael W. Deem and Ramdas Pophale) SiO2 
 PCOD9470150
Probable space group: C M C M
;
_chemical_formula_sum "Si O2"
_cell_formula_units_Z 96
_cell_length_a 8.909379
_cell_length_b 22.960314
_cell_length_c 27.672910
_cell_angle_alpha 90.000000
_cell_angle_beta 90.000000
_cell_angle_gamma 90.000000
_cell_volume 5660.829673
_symmetry_space_group_name_H-M "C M C M"
_symmetry_group_IT_number 63
_symmetry_cell_setting 'orthorhombic'
loop_
_space_group_symop_operation_xyz
x,y,z
-x,-y,1/2+z
x,-y,-z
-x,y,1/2-z
-x,-y,-z
x,y,1/2-z
-x,y,z
x,-y,1/2+z
1/2+x,1/2+y,z
1/2-x,1/2-y,1/2+z
1/2+x,1/2-y,-z
1/2-x,1/2+y,1/2-z
1/2-x,1/2-y,-z
1/2+x,1/2+y,1/2-z
1/2-x,1/2+y,z
1/2+x,1/2-y,1/2+z
loop_
_atom_site_type_symbol
_atom_site_label
_atom_site_fract_x
_atom_site_fract_y
_atom_site_fract_z
Si Si1 0.326453 0.649929 0.750000
Si Si2 0.172906 0.991588 0.250000
Si Si3 0.325257 0.848075 0.150764
Si Si4 0.322724 0.160223 0.469341
Si Si5 0.175940 0.511599 0.647767
Si Si6 0.179841 0.035749 0.451378
Si Si7 0.176523 0.785119 0.436601
O O1 0.500000 0.668665 0.750000
O O2 0.326714 0.579160 0.750000
O O3 0.236546 0.668725 0.702982
O O4 0.251840 0.008209 0.199113
O O5 0.000000 0.011083 0.250000
O O6 0.500000 0.832930 0.144368
O O7 0.312162 0.918055 0.146187
O O8 0.222429 0.816896 0.111847
O O9 0.500000 0.147453 0.468922
O O10 0.232723 0.102196 0.457478
O O11 0.272782 0.184804 0.521328
O O12 0.292904 0.215940 0.435126
O O13 0.252232 0.488218 0.598829
O O14 0.000000 0.496209 0.647673
O O15 0.000000 0.032051 0.448718
O O16 0.227320 0.000000 0.500000
O O17 0.000000 0.792228 0.447697
#
# Coordination Sequence:
#
# PCOD9470150 Si02
#       7
#     8   8  16  16  16  16  16
#     4   9  17  29  47  72 103 134 165 207 252 294
#     4   9  17  31  51  74 101 134 173 213 254 300
#     4  10  19  31  50  76 104 134 168 206 250 298
#     4  10  21  36  53  74 100 132 169 207 250 299
#     4  10  20  33  51  76 106 138 172 211 255 304
#     4  11  23  36  52  76 106 138 172 212 257 306
#     4  10  20  34  53  75 100 131 167 206 248 298
#
# _framework density 16.958646000000002
#
# number of rings (size 3 to 8) (size 9 to 14) (size 15 to 20)
#    0.000    2.000    0.000    4.000    0.000   10.000 
#    0.000    0.000    0.000    1.000    0.000    1.167 
#    0.000    0.000    0.000    0.000    0.000    0.000 
#
# Total GULP energy -267741.905185 kJ/mol
# GULP energy per Si atom -5577.956358 kJ/mol
# Density = 1.692005 g / cm^3
# Si number density = 16.958646 Si / 1000 Ang^3
#
#
#
# Elastic Constant Matrix: (Units=GPa)
#
#
# Indices 1 2 3 4 5 6 
#
# 1 76.7716 32.3865 43.5439 0.0000 0.0000 0.0000
# 2 32.3865 42.2028 33.9110 0.0000 0.0000 0.0000
# 3 43.5439 33.9110 112.5797 0.0000 0.0000 0.0000
# 4 0.0000 0.0000 0.0000 -2.1356 0.0000 0.0000
# 5 0.0000 0.0000 0.0000 0.0000 33.9474 0.0000
# 6 0.0000 0.0000 0.0000 0.0000 0.0000 23.6545
#
#
#
# Elastic Compliance Matrix: (Units=1/GPa)
#
#
# Indices 1 2 3 4 5 6 
#
# 1 0.020695 -0.012467 -0.004249 0.000000 0.000000 0.000000
# 2 -0.012467 0.038772 -0.006857 0.000000 0.000000 0.000000
# 3 -0.004249 -0.006857 0.012591 0.000000 0.000000 0.000000
# 4 0.000000 0.000000 0.000000 -0.468243 0.000000 0.000000
# 5 0.000000 0.000000 0.000000 0.000000 0.029457 0.000000
# 6 0.000000 0.000000 0.000000 0.000000 0.000000 0.042275
#
#
# Mechanical properties :
#
#
# Convention : Reuss Voigt Hill
#
# Bulk Modulus (GPa) = 40.14059 50.13741 45.13900
# Shear Modulus (GPa) = -18.58725 19.20744 0.31010
#
# Velocity S-wave (km/s) = -3.31423 3.36907 0.42808
# Velocity P-wave (km/s) = 3.01257 6.69051 5.18837
#
# Compressibility (1/GPa) = 0.02491244
#
# Stress axis : x y z
#
# Youngs Moduli (GPa) = 48.32079 25.79187 79.41875
#
# Poissons Ratio (x) = 0.32155 0.33746
# Poissons Ratio (y) = 0.60242 0.54455
# Poissons Ratio (z) = 0.20532 0.17685
#
# Static dielectric constant tensor:
#      x y z
#    x 1.570470 0.000000 0.000000 
#    y 0.000000 1.556510 0.000000 
#    z 0.000000 0.000000 1.413720 
# 
# From -- ./inp_files/67270.got.cif
#   From: 2010.05.17/outbox.cif.g08.bks.cpg/sg63_34_cif.got.tgz:67270.got - 2010.06.03 15:47:04.
