data_PCOD9470974
_publ_section_title
;
Structure prediction by ZEFSAII (Michael W. Deem and Ramdas Pophale) SiO2 
 PCOD9470974
Probable space group: C M C M
;
_chemical_formula_sum "Si O2"
_cell_formula_units_Z 72
_cell_length_a 16.043950
_cell_length_b 15.453118
_cell_length_c 16.175272
_cell_angle_alpha 90.000000
_cell_angle_beta 90.000000
_cell_angle_gamma 90.000000
_cell_volume 4010.319861
_symmetry_space_group_name_H-M "C M C M"
_symmetry_group_IT_number 63
_symmetry_cell_setting 'orthorhombic'
loop_
_space_group_symop_operation_xyz
x,y,z
-x,-y,1/2+z
x,-y,-z
-x,y,1/2-z
-x,-y,-z
x,y,1/2-z
-x,y,z
x,-y,1/2+z
1/2+x,1/2+y,z
1/2-x,1/2-y,1/2+z
1/2+x,1/2-y,-z
1/2-x,1/2+y,1/2-z
1/2-x,1/2-y,-z
1/2+x,1/2+y,1/2-z
1/2-x,1/2+y,z
1/2+x,1/2-y,1/2+z
loop_
_atom_site_type_symbol
_atom_site_label
_atom_site_fract_x
_atom_site_fract_y
_atom_site_fract_z
Si Si1 0.647175 0.693185 0.346744
Si Si2 0.000000 0.220022 0.022629
Si Si3 0.678315 0.499676 0.847923
Si Si4 0.500000 0.556178 0.917468
Si Si5 0.000000 0.588051 0.947965
Si Si6 0.828887 0.386760 0.152199
O O1 0.616469 0.689077 0.250000
O O2 0.576611 0.699631 0.416193
O O3 0.691881 0.602351 0.363303
O O4 0.693667 0.784770 0.353925
O O5 0.000000 0.321584 0.000899
O O6 0.000000 0.156075 0.945163
O O7 0.681652 0.512167 0.750000
O O8 0.586072 0.529507 0.873873
O O9 0.753378 0.556606 0.883490
O O10 0.500000 0.500000 0.000000
O O11 0.083764 0.594369 0.892739
O O12 0.000000 0.500000 0.000000
O O13 0.840792 0.404743 0.250000
#
# Coordination Sequence:
#
# PCOD9470974 Si02
#       6
#    16   8  16   8   8  16
#     4   9  16  31  55  80 102 131 178 224 260 302
#     4  10  19  34  52  79 104 137 176 215 268 306
#     4  10  20  35  55  79 107 141 176 219 264 310
#     4  12  21  33  53  80 112 138 171 211 268 327
#     4  10  21  39  56  79 108 140 175 221 264 313
#     4   9  19  36  59  80 102 136 181 224 260 304
#
# _framework density 17.953679999999999
#
# number of rings (size 3 to 8) (size 9 to 14) (size 15 to 20)
#    0.000    2.222    2.222    1.000    0.000    5.333 
#    4.000    2.222    0.000    1.333    0.000    0.000 
#    0.000    0.000    0.000    0.000    0.000    0.000 
#
# Total GULP energy -200485.959086 kJ/mol
# GULP energy per Si atom -5569.054419 kJ/mol
# Density = 1.791282 g / cm^3
# Si number density = 17.953680 Si / 1000 Ang^3
#
#
#
# Elastic Constant Matrix: (Units=GPa)
#
#
# Indices 1 2 3 4 5 6 
#
# 1 112.3798 74.2040 14.0689 0.0000 0.0000 0.0000
# 2 74.2040 168.5291 46.2549 0.0000 0.0000 0.0000
# 3 14.0689 46.2549 17.9347 0.0000 0.0000 0.0000
# 4 0.0000 0.0000 0.0000 29.1925 0.0000 0.0000
# 5 0.0000 0.0000 0.0000 0.0000 22.9422 0.0000
# 6 0.0000 0.0000 0.0000 0.0000 0.0000 25.9395
#
#
#
# Elastic Compliance Matrix: (Units=1/GPa)
#
#
# Indices 1 2 3 4 5 6 
#
# 1 0.013862 -0.010676 0.016661 0.000000 0.000000 0.000000
# 2 -0.010676 0.028534 -0.065215 0.000000 0.000000 0.000000
# 3 0.016661 -0.065215 0.210884 0.000000 0.000000 0.000000
# 4 0.000000 0.000000 0.000000 0.034255 0.000000 0.000000
# 5 0.000000 0.000000 0.000000 0.000000 0.043588 0.000000
# 6 0.000000 0.000000 0.000000 0.000000 0.000000 0.038551
#
#
# Mechanical properties :
#
#
# Convention : Reuss Voigt Hill
#
# Bulk Modulus (GPa) = 7.41742 63.09990 35.25866
# Shear Modulus (GPa) = 9.37954 26.56923 17.97439
#
# Velocity S-wave (km/s) = 2.28815 3.85109 3.16753
# Velocity P-wave (km/s) = 3.33485 7.41598 5.74970
#
# Compressibility (1/GPa) = 0.13481778
#
# Stress axis : x y z
#
# Youngs Moduli (GPa) = 72.13879 35.04626 4.74195
#
# Poissons Ratio (x) = 0.37417 -0.07901
# Poissons Ratio (y) = 0.77018 0.30925
# Poissons Ratio (z) = -1.20190 2.28556
#
# Static dielectric constant tensor:
#      x y z
#    x 1.643800 0.000000 0.000000 
#    y 0.000000 1.658640 0.000000 
#    z 0.000000 0.000000 1.615820 
# 
# From -- ./inp_files/43785.got.cif
#   From: 2010.05.17/outbox.cif.g08.bks.cpg/sg63_22_cif.got.tgz:43785.got - 2010.06.03 15:47:04.
