data_PCOD9470462
_publ_section_title
;
Structure prediction by ZEFSAII (Michael W. Deem and Ramdas Pophale) SiO2 
 PCOD9470462
Probable space group: C M C M
;
_chemical_formula_sum "Si O2"
_cell_formula_units_Z 112
_cell_length_a 16.787392
_cell_length_b 23.691967
_cell_length_c 15.847882
_cell_angle_alpha 90.000000
_cell_angle_beta 90.000000
_cell_angle_gamma 90.000000
_cell_volume 6303.120062
_symmetry_space_group_name_H-M "C M C M"
_symmetry_group_IT_number 63
_symmetry_cell_setting 'orthorhombic'
loop_
_space_group_symop_operation_xyz
x,y,z
-x,-y,1/2+z
x,-y,-z
-x,y,1/2-z
-x,-y,-z
x,y,1/2-z
-x,y,z
x,-y,1/2+z
1/2+x,1/2+y,z
1/2-x,1/2-y,1/2+z
1/2+x,1/2-y,-z
1/2-x,1/2+y,1/2-z
1/2-x,1/2-y,-z
1/2+x,1/2+y,1/2-z
1/2-x,1/2+y,z
1/2+x,1/2-y,1/2+z
loop_
_atom_site_type_symbol
_atom_site_label
_atom_site_fract_x
_atom_site_fract_y
_atom_site_fract_z
Si Si1 0.088473 0.347290 0.654322
Si Si2 0.681716 0.759579 0.344111
Si Si3 0.292514 0.652910 0.917410
Si Si4 0.410795 0.440258 0.351833
Si Si5 0.747754 0.360981 0.600639
Si Si6 0.589990 0.251317 0.014622
Si Si7 0.910860 0.928552 0.851972
O O1 0.091305 0.323572 0.750000
O O2 0.170106 0.382241 0.642195
O O3 0.092862 0.299506 0.582182
O O4 0.000000 0.374343 0.646033
O O5 0.647935 0.754235 0.250000
O O6 0.738665 0.813968 0.350671
O O7 0.731603 0.702469 0.364707
O O8 0.620307 0.764520 0.421382
O O9 0.341976 0.599674 0.885929
O O10 0.354544 0.699365 0.951139
O O11 0.241268 0.638834 0.000165
O O12 0.408958 0.438494 0.250000
O O13 0.500000 0.421643 0.378412
O O14 0.402011 0.505784 0.376957
O O15 0.665549 0.393982 0.617792
O O16 0.500000 0.271337 0.009358
O O17 0.910819 0.926042 0.750000
O O18 0.000000 0.909357 0.879792
#
# Coordination Sequence:
#
# PCOD9470462 Si02
#       7
#    16  16  16  16  16  16  16
#     4  10  19  32  52  77 104 135 172 218 273 324
#     4  11  21  34  51  73 105 143 183 223 271 330
#     4  11  20  33  49  76 106 143 178 223 271 327
#     4   9  19  35  53  76 107 144 186 227 267 322
#     4  11  20  34  52  76 108 140 180 231 277 322
#     4  10  20  34  49  74 107 137 178 224 267 324
#     4   9  19  35  54  78 109 145 186 227 267 322
#
# _framework density 17.768978000000001
#
# number of rings (size 3 to 8) (size 9 to 14) (size 15 to 20)
#    0.000    1.857    2.857    3.857    0.000    4.286 
#    0.000    2.857    0.000    0.000    0.000    3.000 
#    0.000    2.286    0.000    0.000    0.000    0.000 
#
# Total GULP energy -312127.654949 kJ/mol
# GULP energy per Si atom -5573.708124 kJ/mol
# Density = 1.772854 g / cm^3
# Si number density = 17.768978 Si / 1000 Ang^3
#
#
#
# Elastic Constant Matrix: (Units=GPa)
#
#
# Indices 1 2 3 4 5 6 
#
# 1 85.3846 16.1792 19.8138 0.0000 0.0000 0.0000
# 2 16.1792 40.7974 8.3208 0.0000 0.0000 0.0000
# 3 19.8138 8.3208 86.2773 0.0000 0.0000 0.0000
# 4 0.0000 0.0000 0.0000 6.3925 0.0000 0.0000
# 5 0.0000 0.0000 0.0000 0.0000 27.5242 0.0000
# 6 0.0000 0.0000 0.0000 0.0000 0.0000 29.1907
#
#
#
# Elastic Compliance Matrix: (Units=1/GPa)
#
#
# Indices 1 2 3 4 5 6 
#
# 1 0.013202 -0.004710 -0.002578 0.000000 0.000000 0.000000
# 2 -0.004710 0.026683 -0.001492 0.000000 0.000000 0.000000
# 3 -0.002578 -0.001492 0.012326 0.000000 0.000000 0.000000
# 4 0.000000 0.000000 0.000000 0.156434 0.000000 0.000000
# 5 0.000000 0.000000 0.000000 0.000000 0.036332 0.000000
# 6 0.000000 0.000000 0.000000 0.000000 0.000000 0.034257
#
#
# Mechanical properties :
#
#
# Convention : Reuss Voigt Hill
#
# Bulk Modulus (GPa) = 28.85726 33.45408 31.15567
# Shear Modulus (GPa) = 16.21558 23.83117 20.02338
#
# Velocity S-wave (km/s) = 3.02417 3.66617 3.36053
# Velocity P-wave (km/s) = 5.33569 6.06541 5.71221
#
# Compressibility (1/GPa) = 0.03465332
#
# Stress axis : x y z
#
# Youngs Moduli (GPa) = 75.74405 37.47639 81.12682
#
# Poissons Ratio (x) = 0.17651 0.20912
# Poissons Ratio (y) = 0.35675 0.12102
# Poissons Ratio (z) = 0.19525 0.05591
#
# Static dielectric constant tensor:
#      x y z
#    x 1.647680 0.000000 0.000000 
#    y 0.000000 1.589930 0.000000 
#    z 0.000000 0.000000 1.636670 
# 
# From -- ./inp_files/32345.got.cif
#   From: 2010.05.17/outbox.cif.g08.bks.cpg/sg63_17_cif.got.tgz:32345.got - 2010.06.03 15:47:04.
