data_PCOD9470894
_publ_section_title
;
Structure prediction by ZEFSAII (Michael W. Deem and Ramdas Pophale) SiO2 
 PCOD9470894
Probable space group: C M C M
;
_chemical_formula_sum "Si O2"
_cell_formula_units_Z 80
_cell_length_a 9.073061
_cell_length_b 19.989692
_cell_length_c 24.618351
_cell_angle_alpha 90.000000
_cell_angle_beta 90.000000
_cell_angle_gamma 90.000000
_cell_volume 4464.973573
_symmetry_space_group_name_H-M "C M C M"
_symmetry_group_IT_number 63
_symmetry_cell_setting 'orthorhombic'
loop_
_space_group_symop_operation_xyz
x,y,z
-x,-y,1/2+z
x,-y,-z
-x,y,1/2-z
-x,-y,-z
x,y,1/2-z
-x,y,z
x,-y,1/2+z
1/2+x,1/2+y,z
1/2-x,1/2-y,1/2+z
1/2+x,1/2-y,-z
1/2-x,1/2+y,1/2-z
1/2-x,1/2-y,-z
1/2+x,1/2+y,1/2-z
1/2-x,1/2+y,z
1/2+x,1/2-y,1/2+z
loop_
_atom_site_type_symbol
_atom_site_label
_atom_site_fract_x
_atom_site_fract_y
_atom_site_fract_z
Si Si1 0.828859 0.299487 0.097704
Si Si2 0.676127 0.958618 0.813220
Si Si3 0.324905 0.433088 0.109918
Si Si4 0.829036 0.398050 0.005574
Si Si5 0.823417 0.657348 0.392368
O O1 0.738998 0.359779 0.125905
O O2 0.823687 0.324735 0.034854
O O3 0.757573 0.227889 0.106128
O O4 0.000000 0.300249 0.114014
O O5 0.714970 0.962439 0.750000
O O6 0.500000 0.970334 0.818834
O O7 0.705752 0.885761 0.838748
O O8 0.760472 0.012525 0.849449
O O9 0.500000 0.432995 0.109287
O O10 0.261782 0.442202 0.048424
O O11 0.000000 0.419486 0.005956
O O12 0.777468 0.387501 0.944476
O O13 0.000000 0.667670 0.397570
#
# Coordination Sequence:
#
# PCOD9470894 Si02
#       5
#    16  16  16  16  16
#     4   9  18  33  54  82 113 143 174 216 270 324
#     4  10  22  40  58  76 104 143 183 225 274 322
#     4  10  20  35  56  79 107 142 182 223 264 318
#     4   8  17  32  53  82 113 143 175 216 271 329
#     4  10  19  33  56  83 112 144 178 220 271 329
#
# _framework density 17.91724
#
# number of rings (size 3 to 8) (size 9 to 14) (size 15 to 20)
#    1.200    1.400    0.000    2.400    0.000    2.800 
#    0.000    5.000    0.000    3.600    0.000    0.000 
#    0.000    0.000    0.000    0.000    0.000    0.000 
#
# Total GULP energy -222789.017201 kJ/mol
# GULP energy per Si atom -5569.725430 kJ/mol
# Density = 1.787646 g / cm^3
# Si number density = 17.917240 Si / 1000 Ang^3
#
#
#
# Elastic Constant Matrix: (Units=GPa)
#
#
# Indices 1 2 3 4 5 6 
#
# 1 56.2524 32.7872 40.0110 0.0000 0.0000 0.0000
# 2 32.7872 81.1399 40.2733 0.0000 0.0000 0.0000
# 3 40.0110 40.2733 75.2385 0.0000 0.0000 0.0000
# 4 0.0000 0.0000 0.0000 13.5148 0.0000 0.0000
# 5 0.0000 0.0000 0.0000 0.0000 8.0995 0.0000
# 6 0.0000 0.0000 0.0000 0.0000 0.0000 25.9637
#
#
#
# Elastic Compliance Matrix: (Units=1/GPa)
#
#
# Indices 1 2 3 4 5 6 
#
# 1 0.030483 -0.005817 -0.013097 0.000000 0.000000 0.000000
# 2 -0.005817 0.017894 -0.006484 0.000000 0.000000 0.000000
# 3 -0.013097 -0.006484 0.023727 0.000000 0.000000 0.000000
# 4 0.000000 0.000000 0.000000 0.073993 0.000000 0.000000
# 5 0.000000 0.000000 0.000000 0.000000 0.123464 0.000000
# 6 0.000000 0.000000 0.000000 0.000000 0.000000 0.038515
#
#
# Mechanical properties :
#
#
# Convention : Reuss Voigt Hill
#
# Bulk Modulus (GPa) = 46.93391 48.75264 47.84327
# Shear Modulus (GPa) = 13.66215 16.15290 14.90752
#
# Velocity S-wave (km/s) = 2.76436 3.00580 2.88761
# Velocity P-wave (km/s) = 6.03661 6.27020 6.15451
#
# Compressibility (1/GPa) = 0.02130656
#
# Stress axis : x y z
#
# Youngs Moduli (GPa) = 32.80516 55.88620 42.14653
#
# Poissons Ratio (x) = 0.32510 0.55198
# Poissons Ratio (y) = 0.19083 0.27330
# Poissons Ratio (z) = 0.42964 0.36239
#
# Static dielectric constant tensor:
#      x y z
#    x 1.597040 0.000000 0.000000 
#    y 0.000000 1.622880 0.000000 
#    z 0.000000 0.000000 1.612120 
# 
# From -- ./inp_files/71571.got.cif
#   From: 2010.05.17/outbox.cif.g08.bks.cpg/sg63_36_cif.got.tgz:71571.got - 2010.06.03 15:47:04.
