data_PCOD9470922
_publ_section_title
;
Structure prediction by ZEFSAII (Michael W. Deem and Ramdas Pophale) SiO2 
 PCOD9470922
Probable space group: C M C M
;
_chemical_formula_sum "Si O2"
_cell_formula_units_Z 88
_cell_length_a 25.090235
_cell_length_b 8.315150
_cell_length_c 21.234334
_cell_angle_alpha 90.000000
_cell_angle_beta 90.000000
_cell_angle_gamma 90.000000
_cell_volume 4430.099303
_symmetry_space_group_name_H-M "C M C M"
_symmetry_group_IT_number 63
_symmetry_cell_setting 'orthorhombic'
loop_
_space_group_symop_operation_xyz
x,y,z
-x,-y,1/2+z
x,-y,-z
-x,y,1/2-z
-x,-y,-z
x,y,1/2-z
-x,y,z
x,-y,1/2+z
1/2+x,1/2+y,z
1/2-x,1/2-y,1/2+z
1/2+x,1/2-y,-z
1/2-x,1/2+y,1/2-z
1/2-x,1/2-y,-z
1/2+x,1/2+y,1/2-z
1/2-x,1/2+y,z
1/2+x,1/2-y,1/2+z
loop_
_atom_site_type_symbol
_atom_site_label
_atom_site_fract_x
_atom_site_fract_y
_atom_site_fract_z
Si Si1 0.305453 0.197130 0.750000
Si Si2 0.884118 0.307101 0.500473
Si Si3 0.184794 0.684240 0.250000
Si Si4 0.500000 0.304755 0.175000
Si Si5 0.000000 0.307477 0.489639
Si Si6 0.116561 0.197303 0.632033
Si Si7 0.117780 0.187018 0.358234
Si Si8 0.500000 0.309548 0.653253
O O1 0.243891 0.244093 0.750000
O O2 0.335651 0.265339 0.811167
O O3 0.311199 0.006676 0.750000
O O4 0.883138 0.500000 0.500000
O O5 0.944342 0.243487 0.513852
O O6 0.857662 0.247720 0.564923
O O7 0.872110 0.252259 0.429308
O O8 0.152708 0.740705 0.311296
O O9 0.500000 0.277081 0.250000
O O10 0.444288 0.241024 0.146149
O O11 0.500000 0.498240 0.163642
O O12 0.000000 0.500000 0.500000
O O13 0.000000 0.253270 0.417890
O O14 0.114432 0.004803 0.635362
O O15 0.060326 0.243164 0.328426
#
# Coordination Sequence:
#
# PCOD9470922 Si02
#       8
#     8  16   8   8   8  16  16   8
#     4  12  26  45  66  85 119 154 204 258 307 372
#     4  10  19  34  56  88 125 163 203 248 300 359
#     4  12  26  45  64  89 113 160 204 254 317 358
#     4  10  19  33  56  90 128 164 205 246 297 360
#     4   8  15  29  48  78 121 165 201 238 291 348
#     4  11  21  38  63  90 127 162 206 250 297 361
#     4  10  21  38  61  93 123 164 203 247 301 357
#     4   8  18  30  56  87 124 158 199 241 292 352
#
# _framework density 19.864115000000002
#
# number of rings (size 3 to 8) (size 9 to 14) (size 15 to 20)
#    0.000    1.818    0.909    3.818    3.818    0.000 
#    0.000   10.000    0.000    0.000    0.000    0.000 
#    0.000    0.000    0.000    0.000    0.000    0.000 
#
# Total GULP energy -245148.378192 kJ/mol
# GULP energy per Si atom -5571.554050 kJ/mol
# Density = 1.981890 g / cm^3
# Si number density = 19.864115 Si / 1000 Ang^3
#
#
#
# Elastic Constant Matrix: (Units=GPa)
#
#
# Indices 1 2 3 4 5 6 
#
# 1 115.7566 16.2119 68.7153 0.0000 0.0000 0.0000
# 2 16.2119 61.9023 39.6526 0.0000 0.0000 0.0000
# 3 68.7153 39.6526 180.1145 0.0000 0.0000 0.0000
# 4 0.0000 0.0000 0.0000 39.5598 0.0000 0.0000
# 5 0.0000 0.0000 0.0000 0.0000 -8.4195 0.0000
# 6 0.0000 0.0000 0.0000 0.0000 0.0000 22.1518
#
#
#
# Elastic Compliance Matrix: (Units=1/GPa)
#
#
# Indices 1 2 3 4 5 6 
#
# 1 0.011171 -0.000228 -0.004212 0.000000 0.000000 0.000000
# 2 -0.000228 0.018811 -0.004054 0.000000 0.000000 0.000000
# 3 -0.004212 -0.004054 0.008051 0.000000 0.000000 0.000000
# 4 0.000000 0.000000 0.000000 0.025278 0.000000 0.000000
# 5 0.000000 0.000000 0.000000 0.000000 -0.118773 0.000000
# 6 0.000000 0.000000 0.000000 0.000000 0.000000 0.045143
#
#
# Mechanical properties :
#
#
# Convention : Reuss Voigt Hill
#
# Bulk Modulus (GPa) = 47.51538 67.43700 57.47619
# Shear Modulus (GPa) = 365.36181 26.20468 195.78324
#
# Velocity S-wave (km/s) = 13.57681 3.63602 9.93857
# Velocity P-wave (km/s) = 16.42392 7.18682 12.67666
#
# Compressibility (1/GPa) = 0.02104582
#
# Stress axis : x y z
#
# Youngs Moduli (GPa) = 89.51906 53.15959 124.20212
#
# Poissons Ratio (x) = 0.01211 0.52309
# Poissons Ratio (y) = 0.02039 0.50357
# Poissons Ratio (z) = 0.37702 0.21553
#
# Static dielectric constant tensor:
#      x y z
#    x 1.719420 0.000000 0.000000 
#    y 0.000000 1.678780 0.000000 
#    z 0.000000 0.000000 1.722250 
# 
# From -- ./inp_files/57428.got.cif
#   From: 2010.05.17/outbox.cif.g08.bks.cpg/sg63_29_cif.got.tgz:57428.got - 2010.06.03 15:47:04.
