data_PCOD9470080
_publ_section_title
;
Structure prediction by ZEFSAII (Michael W. Deem and Ramdas Pophale) SiO2 
 PCOD9470080
Probable space group: C M C M
;
_chemical_formula_sum "Si O2"
_cell_formula_units_Z 80
_cell_length_a 8.335860
_cell_length_b 28.160052
_cell_length_c 18.839944
_cell_angle_alpha 90.000000
_cell_angle_beta 90.000000
_cell_angle_gamma 90.000000
_cell_volume 4422.455505
_symmetry_space_group_name_H-M "C M C M"
_symmetry_group_IT_number 63
_symmetry_cell_setting 'orthorhombic'
loop_
_space_group_symop_operation_xyz
x,y,z
-x,-y,1/2+z
x,-y,-z
-x,y,1/2-z
-x,-y,-z
x,y,1/2-z
-x,y,z
x,-y,1/2+z
1/2+x,1/2+y,z
1/2-x,1/2-y,1/2+z
1/2+x,1/2-y,-z
1/2-x,1/2+y,1/2-z
1/2-x,1/2-y,-z
1/2+x,1/2+y,1/2-z
1/2-x,1/2+y,z
1/2+x,1/2-y,1/2+z
loop_
_atom_site_type_symbol
_atom_site_label
_atom_site_fract_x
_atom_site_fract_y
_atom_site_fract_z
Si Si1 0.691416 0.352578 0.957501
Si Si2 0.308248 0.948860 0.472684
Si Si3 0.195255 0.194503 0.898849
Si Si4 0.306002 0.594913 0.829886
Si Si5 0.306683 0.206943 0.169169
O O1 0.500000 0.349752 0.955453
O O2 0.759128 0.335417 0.882933
O O3 0.739419 0.405296 0.981442
O O4 0.749418 0.317526 0.021134
O O5 0.500000 0.947379 0.478271
O O6 0.259592 0.938790 0.391431
O O7 0.251082 0.000000 0.500000
O O8 0.239878 0.148868 0.851335
O O9 0.252889 0.243799 0.866107
O O10 0.000000 0.196042 0.899814
O O11 0.253307 0.583880 0.750000
O O12 0.500000 0.592967 0.832134
O O13 0.248939 0.202063 0.250000
O O14 0.500000 0.209535 0.171399
#
# Coordination Sequence:
#
# PCOD9470080 Si02
#       5
#    16  16  16  16  16
#     4  10  20  34  53  75 100 131 169 213 255 299
#     4  10  21  37  56  76  99 130 169 212 257 306
#     4   8  15  29  50  75 102 134 168 201 244 298
#     4   9  17  31  53  81 109 133 162 205 255 304
#     4  10  19  31  49  73 104 141 174 203 241 293
#
# _framework density 18.089499
#
# number of rings (size 3 to 8) (size 9 to 14) (size 15 to 20)
#    0.000    2.600    0.000    3.600    0.000    4.800 
#    0.000    5.000    0.000    6.000    0.000    0.000 
#    0.000    0.000    0.000    0.000    0.000    0.000 
#
# Total GULP energy -223140.961890 kJ/mol
# GULP energy per Si atom -5578.524047 kJ/mol
# Density = 1.804833 g / cm^3
# Si number density = 18.089499 Si / 1000 Ang^3
#
#
#
# Elastic Constant Matrix: (Units=GPa)
#
#
# Indices 1 2 3 4 5 6 
#
# 1 13.4970 6.6701 16.0703 0.0000 0.0000 0.0000
# 2 6.6701 94.4039 86.3822 0.0000 0.0000 0.0000
# 3 16.0703 86.3822 158.8441 0.0000 0.0000 0.0000
# 4 0.0000 0.0000 0.0000 18.3063 0.0000 0.0000
# 5 0.0000 0.0000 0.0000 0.0000 25.1499 0.0000
# 6 0.0000 0.0000 0.0000 0.0000 0.0000 17.3043
#
#
#
# Elastic Compliance Matrix: (Units=1/GPa)
#
#
# Indices 1 2 3 4 5 6 
#
# 1 0.084883 0.003703 -0.010602 0.000000 0.000000 0.000000
# 2 0.003703 0.021246 -0.011929 0.000000 0.000000 0.000000
# 3 -0.010602 -0.011929 0.013855 0.000000 0.000000 0.000000
# 4 0.000000 0.000000 0.000000 0.054626 0.000000 0.000000
# 5 0.000000 0.000000 0.000000 0.000000 0.039762 0.000000
# 6 0.000000 0.000000 0.000000 0.000000 0.000000 0.057789
#
#
# Mechanical properties :
#
#
# Convention : Reuss Voigt Hill
#
# Bulk Modulus (GPa) = 12.14615 53.88781 33.01698
# Shear Modulus (GPa) = 14.82540 22.66025 18.74282
#
# Velocity S-wave (km/s) = 2.86590 3.54315 3.22237
# Velocity P-wave (km/s) = 4.20479 6.82589 5.66891
#
# Compressibility (1/GPa) = 0.08233061
#
# Stress axis : x y z
#
# Youngs Moduli (GPa) = 11.78089 47.06704 72.17543
#
# Poissons Ratio (x) = -0.17431 0.76518
# Poissons Ratio (y) = -0.04363 0.86096
# Poissons Ratio (z) = 0.12490 0.56145
#
# Static dielectric constant tensor:
#      x y z
#    x 1.629310 0.000000 0.000000 
#    y 0.000000 1.601790 0.000000 
#    z 0.000000 0.000000 1.620830 
# 
# From -- ./inp_files/40532.got.cif
#   From: 2010.05.17/outbox.cif.g08.bks.cpg/sg63_21_cif.got.tgz:40532.got - 2010.06.03 15:47:04.
