data_PCOD9470818
_publ_section_title
;
Structure prediction by ZEFSAII (Michael W. Deem and Ramdas Pophale) SiO2 
 PCOD9470818
Probable space group: C M C M
;
_chemical_formula_sum "Si O2"
_cell_formula_units_Z 112
_cell_length_a 15.961728
_cell_length_b 9.912283
_cell_length_c 28.631558
_cell_angle_alpha 90.000000
_cell_angle_beta 90.000000
_cell_angle_gamma 90.000000
_cell_volume 4530.003939
_symmetry_space_group_name_H-M "C M C M"
_symmetry_group_IT_number 63
_symmetry_cell_setting 'orthorhombic'
loop_
_space_group_symop_operation_xyz
x,y,z
-x,-y,1/2+z
x,-y,-z
-x,y,1/2-z
-x,-y,-z
x,y,1/2-z
-x,y,z
x,-y,1/2+z
1/2+x,1/2+y,z
1/2-x,1/2-y,1/2+z
1/2+x,1/2-y,-z
1/2-x,1/2+y,1/2-z
1/2-x,1/2-y,-z
1/2+x,1/2+y,1/2-z
1/2-x,1/2+y,z
1/2+x,1/2-y,1/2+z
loop_
_atom_site_type_symbol
_atom_site_label
_atom_site_fract_x
_atom_site_fract_y
_atom_site_fract_z
Si Si1 0.589047 0.147926 0.697983
Si Si2 0.908976 0.772750 0.444622
Si Si3 0.093953 0.077683 0.093732
Si Si4 0.245550 0.401009 0.957930
Si Si5 0.858325 0.443528 0.875591
Si Si6 0.228085 0.270688 0.801293
Si Si7 0.404261 0.527923 0.802911
O O1 0.589216 0.083035 0.750000
O O2 0.500000 0.225474 0.696295
O O3 0.590327 0.048430 0.654178
O O4 0.677542 0.220689 0.695098
O O5 0.902664 0.927218 0.429020
O O6 0.824880 0.713776 0.468857
O O7 0.909129 0.679871 0.398158
O O8 0.000000 0.754289 0.468604
O O9 0.103859 0.056957 0.149318
O O10 0.000000 0.132257 0.085027
O O11 0.171302 0.150971 0.068526
O O12 0.196348 0.493399 0.919230
O O13 0.265006 0.500000 0.000000
O O14 0.793752 0.379217 0.839454
O O15 0.215021 0.329842 0.750000
O O16 0.164540 0.145470 0.805965
O O17 0.394604 0.466987 0.750000
O O18 0.500000 0.581679 0.804222
#
# Coordination Sequence:
#
# PCOD9470818 Si02
#       7
#    16  16  16  16  16  16  16
#     4  10  21  36  56  85 120 155 189 227 275 331
#     4   9  20  36  58  83 111 143 181 228 283 336
#     4  10  19  37  60  81 111 150 183 227 283 336
#     4  10  23  38  59  83 111 145 189 242 292 340
#     4  10  20  33  57  80 113 143 187 233 275 331
#     4  10  19  33  54  82 115 152 186 224 274 332
#     4   9  16  27  48  79 109 140 178 218 265 324
#
# _framework density 24.724039999999999
#
# number of rings (size 3 to 8) (size 9 to 14) (size 15 to 20)
#    0.857    1.429    1.429    1.714    0.000    1.714 
#    0.000    2.857    0.000    3.429    0.000    4.000 
#    0.000    0.000    0.000    0.000    0.000    0.000 
#
# Total GULP energy -312797.266128 kJ/mol
# GULP energy per Si atom -5585.665467 kJ/mol
# Density = 2.466777 g / cm^3
# Si number density = 24.724040 Si / 1000 Ang^3
#
#
#
# Elastic Constant Matrix: (Units=GPa)
#
#
# Indices 1 2 3 4 5 6 
#
# 1 219.8067 37.0413 47.3549 0.0000 0.0000 0.0000
# 2 37.0413 39.2635 20.8391 0.0000 0.0000 0.0000
# 3 47.3549 20.8391 130.1505 0.0000 0.0000 0.0000
# 4 0.0000 0.0000 0.0000 25.9860 0.0000 0.0000
# 5 0.0000 0.0000 0.0000 0.0000 20.3025 0.0000
# 6 0.0000 0.0000 0.0000 0.0000 0.0000 22.9921
#
#
#
# Elastic Compliance Matrix: (Units=1/GPa)
#
#
# Indices 1 2 3 4 5 6 
#
# 1 0.005605 -0.004596 -0.001303 0.000000 0.000000 0.000000
# 2 -0.004596 0.031603 -0.003388 0.000000 0.000000 0.000000
# 3 -0.001303 -0.003388 0.008700 0.000000 0.000000 0.000000
# 4 0.000000 0.000000 0.000000 0.038482 0.000000 0.000000
# 5 0.000000 0.000000 0.000000 0.000000 0.049255 0.000000
# 6 0.000000 0.000000 0.000000 0.000000 0.000000 0.043493
#
#
# Mechanical properties :
#
#
# Convention : Reuss Voigt Hill
#
# Bulk Modulus (GPa) = 36.58529 66.63237 51.60883
# Shear Modulus (GPa) = 24.41130 32.78849 28.59989
#
# Velocity S-wave (km/s) = 3.14562 3.64562 3.40481
# Velocity P-wave (km/s) = 5.29366 6.68803 6.03127
#
# Compressibility (1/GPa) = 0.02733339
#
# Stress axis : x y z
#
# Youngs Moduli (GPa) = 178.42117 31.64289 114.94101
#
# Poissons Ratio (x) = 0.14542 0.14982
# Poissons Ratio (y) = 0.81997 0.38941
# Poissons Ratio (z) = 0.23256 0.10720
#
# Static dielectric constant tensor:
#      x y z
#    x 1.990690 0.000000 0.000000 
#    y 0.000000 1.953960 0.000000 
#    z 0.000000 0.000000 1.974120 
# 
# From -- ./inp_files/69391.got.cif
#   From: 2010.05.17/outbox.cif.g08.bks.cpg/sg63_35_cif.got.tgz:69391.got - 2010.06.03 15:47:04.
