data_PCOD9470542
_publ_section_title
;
Structure prediction by ZEFSAII (Michael W. Deem and Ramdas Pophale) SiO2 
 PCOD9470542
Probable space group: C M C M
;
_chemical_formula_sum "Si O2"
_cell_formula_units_Z 56
_cell_length_a 22.314197
_cell_length_b 14.894111
_cell_length_c 8.803288
_cell_angle_alpha 90.000000
_cell_angle_beta 90.000000
_cell_angle_gamma 90.000000
_cell_volume 2925.773885
_symmetry_space_group_name_H-M "C M C M"
_symmetry_group_IT_number 63
_symmetry_cell_setting 'orthorhombic'
loop_
_space_group_symop_operation_xyz
x,y,z
-x,-y,1/2+z
x,-y,-z
-x,y,1/2-z
-x,-y,-z
x,y,1/2-z
-x,y,z
x,-y,1/2+z
1/2+x,1/2+y,z
1/2-x,1/2-y,1/2+z
1/2+x,1/2-y,-z
1/2-x,1/2+y,1/2-z
1/2-x,1/2-y,-z
1/2+x,1/2+y,1/2-z
1/2-x,1/2+y,z
1/2+x,1/2-y,1/2+z
loop_
_atom_site_type_symbol
_atom_site_label
_atom_site_fract_x
_atom_site_fract_y
_atom_site_fract_z
Si Si1 0.778727 0.594340 0.568355
Si Si2 0.392538 0.212886 0.931930
Si Si3 0.353483 0.594717 0.432205
Si Si4 0.500000 0.099281 0.430017
O O1 0.801496 0.500000 0.500000
O O2 0.771832 0.586158 0.750000
O O3 0.827094 0.671012 0.535894
O O4 0.713958 0.609766 0.494188
O O5 0.402041 0.206111 0.750000
O O6 0.391843 0.317787 0.974064
O O7 0.442262 0.154555 0.014474
O O8 0.374620 0.500000 0.500000
O O9 0.350997 0.588648 0.250000
O O10 0.500000 0.091451 0.250000
O O11 0.500000 0.000000 0.500000
#
# Coordination Sequence:
#
# PCOD9470542 Si02
#       4
#    16  16  16   8
#     4  10  19  32  53  82 114 148 184 226 277 333
#     4  10  22  39  58  81 112 149 189 232 278 326
#     4  10  20  35  56  83 115 149 184 229 279 329
#     4  12  26  42  63  86 111 144 183 228 276 328
#
# _framework density 19.140234
#
# number of rings (size 3 to 8) (size 9 to 14) (size 15 to 20)
#    0.000    1.714    0.000    6.429    0.000    6.857 
#    0.000    0.714    0.000    0.000    0.000    0.000 
#    0.000    0.000    0.000    0.000    0.000    0.000 
#
# Total GULP energy -156461.833620 kJ/mol
# GULP energy per Si atom -5587.922629 kJ/mol
# Density = 1.909667 g / cm^3
# Si number density = 19.140234 Si / 1000 Ang^3
#
#
#
# Elastic Constant Matrix: (Units=GPa)
#
#
# Indices 1 2 3 4 5 6 
#
# 1 44.9012 65.9242 34.2345 0.0000 0.0000 0.0000
# 2 65.9242 199.2118 77.7920 0.0000 0.0000 0.0000
# 3 34.2345 77.7920 74.0953 0.0000 0.0000 0.0000
# 4 0.0000 0.0000 0.0000 29.6124 0.0000 0.0000
# 5 0.0000 0.0000 0.0000 0.0000 31.3421 0.0000
# 6 0.0000 0.0000 0.0000 0.0000 0.0000 29.7271
#
#
#
# Elastic Compliance Matrix: (Units=1/GPa)
#
#
# Indices 1 2 3 4 5 6 
#
# 1 0.046650 -0.011900 -0.009061 0.000000 0.000000 0.000000
# 2 -0.011900 0.011543 -0.006621 0.000000 0.000000 0.000000
# 3 -0.009061 -0.006621 0.024634 0.000000 0.000000 0.000000
# 4 0.000000 0.000000 0.000000 0.033770 0.000000 0.000000
# 5 0.000000 0.000000 0.000000 0.000000 0.031906 0.000000
# 6 0.000000 0.000000 0.000000 0.000000 0.000000 0.033639
#
#
# Mechanical properties :
#
#
# Convention : Reuss Voigt Hill
#
# Bulk Modulus (GPa) = 36.14727 74.90107 55.52417
# Shear Modulus (GPa) = 20.28176 27.48682 23.88429
#
# Velocity S-wave (km/s) = 3.25874 3.79367 3.53634
# Velocity P-wave (km/s) = 5.75202 7.64245 6.76360
#
# Compressibility (1/GPa) = 0.02766461
#
# Stress axis : x y z
#
# Youngs Moduli (GPa) = 21.43606 86.63136 40.59433
#
# Poissons Ratio (x) = 1.03087 0.36782
# Poissons Ratio (y) = 0.25508 0.26878
# Poissons Ratio (z) = 0.19423 0.57359
#
# Static dielectric constant tensor:
#      x y z
#    x 1.641000 0.000000 0.000000 
#    y 0.000000 1.682300 0.000000 
#    z 0.000000 0.000000 1.641000 
# 
# From -- ./inp_files/7292.got.cif
#   From: 2010.05.17/outbox.cif.g08.bks.cpg/sg63_4_cif.got.tgz:7292.got - 2010.06.03 15:47:04.
