data_PCOD9470583
_publ_section_title
;
Structure prediction by ZEFSAII (Michael W. Deem and Ramdas Pophale) SiO2 
 PCOD9470583
Probable space group: C M C M
;
_chemical_formula_sum "Si O2"
_cell_formula_units_Z 112
_cell_length_a 13.346107
_cell_length_b 24.266465
_cell_length_c 16.793616
_cell_angle_alpha 90.000000
_cell_angle_beta 90.000000
_cell_angle_gamma 90.000000
_cell_volume 5438.828145
_symmetry_space_group_name_H-M "C M C M"
_symmetry_group_IT_number 63
_symmetry_cell_setting 'orthorhombic'
loop_
_space_group_symop_operation_xyz
x,y,z
-x,-y,1/2+z
x,-y,-z
-x,y,1/2-z
-x,-y,-z
x,y,1/2-z
-x,y,z
x,-y,1/2+z
1/2+x,1/2+y,z
1/2-x,1/2-y,1/2+z
1/2+x,1/2-y,-z
1/2-x,1/2+y,1/2-z
1/2-x,1/2-y,-z
1/2+x,1/2+y,1/2-z
1/2-x,1/2+y,z
1/2+x,1/2-y,1/2+z
loop_
_atom_site_type_symbol
_atom_site_label
_atom_site_fract_x
_atom_site_fract_y
_atom_site_fract_z
Si Si1 0.113603 0.294609 0.337731
Si Si2 0.262581 0.808326 0.837879
Si Si3 0.212809 0.981036 0.162814
Si Si4 0.614697 0.608921 0.952587
Si Si5 0.888300 0.542214 0.071933
Si Si6 0.610070 0.591256 0.364388
Si Si7 0.688622 0.843305 0.001722
O O1 0.127260 0.322464 0.250000
O O2 0.189800 0.243975 0.340199
O O3 0.129034 0.329523 0.418063
O O4 0.000000 0.273529 0.339386
O O5 0.313141 0.809181 0.750000
O O6 0.193306 0.863429 0.842774
O O7 0.323193 0.807276 0.921229
O O8 0.230454 0.957269 0.250000
O O9 0.312208 0.012242 0.131698
O O10 0.134404 0.031160 0.167320
O O11 0.168383 0.934215 0.105745
O O12 0.500000 0.622786 0.928454
O O13 0.695071 0.657465 0.968848
O O14 0.608964 0.583216 0.040466
O O15 0.000000 0.553589 0.104740
O O16 0.897612 0.500000 0.000000
O O17 0.842088 0.596872 0.032243
O O18 0.500000 0.611076 0.340716
#
# Coordination Sequence:
#
# PCOD9470583 Si02
#       7
#    16  16  16  16  16  16  16
#     4  10  22  40  62  90 121 154 198 253 302 348
#     4  10  20  35  58  88 123 152 190 245 302 357
#     4  12  22  35  53  81 118 155 195 237 289 353
#     4  10  21  37  57  82 116 153 190 237 290 349
#     4  11  22  40  60  80 111 154 200 246 295 346
#     4  10  19  32  55  82 113 153 193 234 287 349
#     4  11  21  39  63  89 117 161 201 244 298 364
#
# _framework density 20.592669999999998
#
# number of rings (size 3 to 8) (size 9 to 14) (size 15 to 20)
#    0.000    1.429    4.286    2.571    0.000    5.143 
#    0.000    0.000    0.000    1.286    0.000    4.000 
#    0.000    0.000    0.000    0.000    0.000    0.000 
#
# Total GULP energy -312072.252914 kJ/mol
# GULP energy per Si atom -5572.718802 kJ/mol
# Density = 2.054580 g / cm^3
# Si number density = 20.592670 Si / 1000 Ang^3
#
#
#
# Elastic Constant Matrix: (Units=GPa)
#
#
# Indices 1 2 3 4 5 6 
#
# 1 70.0375 3.1913 25.6981 0.0000 0.0000 0.0000
# 2 3.1913 19.3350 22.2428 0.0000 0.0000 0.0000
# 3 25.6981 22.2428 161.8648 0.0000 0.0000 0.0000
# 4 0.0000 0.0000 0.0000 -22.0998 0.0000 0.0000
# 5 0.0000 0.0000 0.0000 0.0000 16.7077 0.0000
# 6 0.0000 0.0000 0.0000 0.0000 0.0000 61.1008
#
#
#
# Elastic Compliance Matrix: (Units=1/GPa)
#
#
# Indices 1 2 3 4 5 6 
#
# 1 0.015163 0.000317 -0.002451 0.000000 0.000000 0.000000
# 2 0.000317 0.061437 -0.008493 0.000000 0.000000 0.000000
# 3 -0.002451 -0.008493 0.007734 0.000000 0.000000 0.000000
# 4 0.000000 0.000000 0.000000 -0.045249 0.000000 0.000000
# 5 0.000000 0.000000 0.000000 0.000000 0.059853 0.000000
# 6 0.000000 0.000000 0.000000 0.000000 0.000000 0.016366
#
#
# Mechanical properties :
#
#
# Convention : Reuss Voigt Hill
#
# Bulk Modulus (GPa) = 15.85270 39.27796 27.56533
# Shear Modulus (GPa) = 31.72893 24.48207 28.10550
#
# Velocity S-wave (km/s) = 3.92955 3.45174 3.69837
# Velocity P-wave (km/s) = 5.32009 5.91618 5.62604
#
# Compressibility (1/GPa) = 0.06308074
#
# Stress axis : x y z
#
# Youngs Moduli (GPa) = 65.95048 16.27672 129.29681
#
# Poissons Ratio (x) = -0.00516 0.31688
# Poissons Ratio (y) = -0.02089 1.09809
# Poissons Ratio (z) = 0.16163 0.13823
#
# Static dielectric constant tensor:
#      x y z
#    x 1.798110 0.000000 0.000000 
#    y 0.000000 1.716230 0.000000 
#    z 0.000000 0.000000 1.805290 
# 
# From -- ./inp_files/32308.got.cif
#   From: 2010.05.17/outbox.cif.g08.bks.cpg/sg63_17_cif.got.tgz:32308.got - 2010.06.03 15:47:04.
