data_PCOD9470170
_publ_section_title
;
Structure prediction by ZEFSAII (Michael W. Deem and Ramdas Pophale) SiO2 
 PCOD9470170
Probable space group: C M C M
;
_chemical_formula_sum "Si O2"
_cell_formula_units_Z 88
_cell_length_a 22.910957
_cell_length_b 24.688673
_cell_length_c 7.976778
_cell_angle_alpha 90.000000
_cell_angle_beta 90.000000
_cell_angle_gamma 90.000000
_cell_volume 4511.993686
_symmetry_space_group_name_H-M "C M C M"
_symmetry_group_IT_number 63
_symmetry_cell_setting 'orthorhombic'
loop_
_space_group_symop_operation_xyz
x,y,z
-x,-y,1/2+z
x,-y,-z
-x,y,1/2-z
-x,-y,-z
x,y,1/2-z
-x,y,z
x,-y,1/2+z
1/2+x,1/2+y,z
1/2-x,1/2-y,1/2+z
1/2+x,1/2-y,-z
1/2-x,1/2+y,1/2-z
1/2-x,1/2-y,-z
1/2+x,1/2+y,1/2-z
1/2-x,1/2+y,z
1/2+x,1/2-y,1/2+z
loop_
_atom_site_type_symbol
_atom_site_label
_atom_site_fract_x
_atom_site_fract_y
_atom_site_fract_z
Si Si1 0.500000 0.936354 0.947379
Si Si2 0.437357 0.732067 0.047724
Si Si3 0.564497 0.561780 0.547564
Si Si4 0.726538 0.189540 0.953411
Si Si5 0.344765 0.353437 0.051187
Si Si6 0.098442 0.350649 0.048739
O O1 0.500000 0.936589 0.750000
O O2 0.558316 0.902030 0.999511
O O3 0.500000 0.000000 0.000000
O O4 0.434148 0.728149 0.250000
O O5 0.500000 0.709348 0.991079
O O6 0.434675 0.795141 0.003365
O O7 0.382302 0.700863 0.975247
O O8 0.574260 0.500000 0.500000
O O9 0.563807 0.566221 0.750000
O O10 0.500000 0.577401 0.485560
O O11 0.614984 0.599633 0.478325
O O12 0.723426 0.190258 0.750000
O O13 0.779829 0.152266 0.015194
O O14 0.664760 0.163854 0.011584
O O15 0.750000 0.250000 0.000000
O O16 0.339120 0.362264 0.250000
O O17 0.102021 0.353558 0.250000
#
# Coordination Sequence:
#
# PCOD9470170 Si02
#       6
#     8  16  16  16  16  16
#     4  12  26  44  68  92 114 150 199 252 305 362
#     4  10  19  31  50  78 112 149 185 226 280 334
#     4   9  18  33  51  71 100 137 177 222 269 312
#     4  10  20  34  55  82 117 156 188 226 279 342
#     4  10  20  33  51  79 112 145 183 227 275 327
#     4  10  20  38  59  83 118 153 186 234 292 349
#
# _framework density 19.503571999999998
#
# number of rings (size 3 to 8) (size 9 to 14) (size 15 to 20)
#    0.000    2.000    2.727    1.364    0.000    3.273 
#    0.000    2.727    0.000    2.182    0.000    0.000 
#    0.000    0.000    0.000    0.000    0.000    0.000 
#
# Total GULP energy -245118.775168 kJ/mol
# GULP energy per Si atom -5570.881254 kJ/mol
# Density = 1.945918 g / cm^3
# Si number density = 19.503572 Si / 1000 Ang^3
#
#
#
# Elastic Constant Matrix: (Units=GPa)
#
#
# Indices 1 2 3 4 5 6 
#
# 1 203.7335 85.3688 17.7385 0.0000 0.0000 0.0000
# 2 85.3688 123.5756 4.7568 0.0000 0.0000 0.0000
# 3 17.7385 4.7568 17.2439 0.0000 0.0000 0.0000
# 4 0.0000 0.0000 0.0000 25.2963 0.0000 0.0000
# 5 0.0000 0.0000 0.0000 0.0000 5.5387 0.0000
# 6 0.0000 0.0000 0.0000 0.0000 0.0000 22.9084
#
#
#
# Elastic Compliance Matrix: (Units=1/GPa)
#
#
# Indices 1 2 3 4 5 6 
#
# 1 0.007546 -0.004967 -0.006393 0.000000 0.000000 0.000000
# 2 -0.004967 0.011448 0.001951 0.000000 0.000000 0.000000
# 3 -0.006393 0.001951 0.064029 0.000000 0.000000 0.000000
# 4 0.000000 0.000000 0.000000 0.039532 0.000000 0.000000
# 5 0.000000 0.000000 0.000000 0.000000 0.180547 0.000000
# 6 0.000000 0.000000 0.000000 0.000000 0.000000 0.043652
#
#
# Mechanical properties :
#
#
# Convention : Reuss Voigt Hill
#
# Bulk Modulus (GPa) = 15.57453 62.25347 38.91400
# Shear Modulus (GPa) = 12.92078 26.52794 19.72436
#
# Velocity S-wave (km/s) = 2.57667 3.69203 3.18358
# Velocity P-wave (km/s) = 4.10550 7.08259 5.78870
#
# Compressibility (1/GPa) = 0.06420738
#
# Stress axis : x y z
#
# Youngs Moduli (GPa) = 132.51605 87.34804 15.61794
#
# Poissons Ratio (x) = 0.43386 0.09984
# Poissons Ratio (y) = 0.65822 -0.03048
# Poissons Ratio (z) = 0.84711 -0.17045
#
# Static dielectric constant tensor:
#      x y z
#    x 1.758390 0.000000 0.000000 
#    y 0.000000 1.706680 0.000000 
#    z 0.000000 0.000000 1.696820 
# 
# From -- ./inp_files/8172.got.cif
#   From: 2010.05.17/outbox.cif.g08.bks.cpg/sg63_5_cif.got.tgz:8172.got - 2010.06.03 15:47:04.
