data_PCOD9470069
_publ_section_title
;
Structure prediction by ZEFSAII (Michael W. Deem and Ramdas Pophale) SiO2 
 PCOD9470069
Probable space group: C M C M
;
_chemical_formula_sum "Si O2"
_cell_formula_units_Z 112
_cell_length_a 13.860580
_cell_length_b 17.822664
_cell_length_c 25.198717
_cell_angle_alpha 90.000000
_cell_angle_beta 90.000000
_cell_angle_gamma 90.000000
_cell_volume 6224.901054
_symmetry_space_group_name_H-M "C M C M"
_symmetry_group_IT_number 63
_symmetry_cell_setting 'orthorhombic'
loop_
_space_group_symop_operation_xyz
x,y,z
-x,-y,1/2+z
x,-y,-z
-x,y,1/2-z
-x,-y,-z
x,y,1/2-z
-x,y,z
x,-y,1/2+z
1/2+x,1/2+y,z
1/2-x,1/2-y,1/2+z
1/2+x,1/2-y,-z
1/2-x,1/2+y,1/2-z
1/2-x,1/2-y,-z
1/2+x,1/2+y,1/2-z
1/2-x,1/2+y,z
1/2+x,1/2-y,1/2+z
loop_
_atom_site_type_symbol
_atom_site_label
_atom_site_fract_x
_atom_site_fract_y
_atom_site_fract_z
Si Si1 0.270276 0.182927 0.811594
Si Si2 0.606282 0.278854 0.974890
Si Si3 0.888469 0.468717 0.187344
Si Si4 0.799218 0.251108 0.584401
Si Si5 0.105175 0.045067 0.445708
Si Si6 0.107028 0.169427 0.188395
Si Si7 0.230850 0.584725 0.377008
O O1 0.233355 0.185835 0.750000
O O2 0.198912 0.207309 0.859440
O O3 0.354426 0.245761 0.814779
O O4 0.318902 0.102630 0.820886
O O5 0.500000 0.247804 0.963899
O O6 0.691972 0.241199 0.941228
O O7 0.606897 0.366140 0.958363
O O8 0.629997 0.273510 0.037439
O O9 0.883659 0.487292 0.250000
O O10 0.849098 0.537746 0.153284
O O11 0.000000 0.450768 0.174928
O O12 0.810423 0.340449 0.594954
O O13 0.203859 0.031706 0.414251
O O14 0.000000 0.027787 0.420139
O O15 0.107994 0.000000 0.500000
O O16 0.102010 0.149514 0.250000
O O17 0.187035 0.118287 0.161668
O O18 0.000000 0.162972 0.164842
#
# Coordination Sequence:
#
# PCOD9470069 Si02
#       7
#    16  16  16  16  16  16  16
#     4   9  18  32  52  75 101 132 170 216 260 302
#     4   9  18  33  52  75 102 132 167 209 256 304
#     4  10  21  35  50  72 103 140 176 208 249 299
#     4   9  19  33  53  78 101 133 171 213 255 304
#     4   9  18  31  49  73  97 125 159 199 250 304
#     4   9  16  28  49  75  98 120 154 203 255 299
#     4  10  19  31  49  72  99 130 163 204 245 300
#
# _framework density 17.992253999999999
#
# number of rings (size 3 to 8) (size 9 to 14) (size 15 to 20)
#    0.000    2.714    0.000    1.286    2.000    6.857 
#    0.000    0.000    0.000    0.857    0.000    2.000 
#    0.000    0.000    0.000    0.000    0.000    0.000 
#
# Total GULP energy -311925.876723 kJ/mol
# GULP energy per Si atom -5570.104941 kJ/mol
# Density = 1.795130 g / cm^3
# Si number density = 17.992254 Si / 1000 Ang^3
#
#
#
# Elastic Constant Matrix: (Units=GPa)
#
#
# Indices 1 2 3 4 5 6 
#
# 1 20.9240 4.2231 5.3314 0.0000 0.0000 0.0000
# 2 4.2231 24.1985 15.4024 0.0000 0.0000 0.0000
# 3 5.3314 15.4024 73.8740 0.0000 0.0000 0.0000
# 4 0.0000 0.0000 0.0000 30.5997 0.0000 0.0000
# 5 0.0000 0.0000 0.0000 0.0000 20.3458 0.0000
# 6 0.0000 0.0000 0.0000 0.0000 0.0000 11.0961
#
#
#
# Elastic Compliance Matrix: (Units=1/GPa)
#
#
# Indices 1 2 3 4 5 6 
#
# 1 0.049806 -0.007384 -0.002055 0.000000 0.000000 0.000000
# 2 -0.007384 0.048743 -0.009630 0.000000 0.000000 0.000000
# 3 -0.002055 -0.009630 0.015693 0.000000 0.000000 0.000000
# 4 0.000000 0.000000 0.000000 0.032680 0.000000 0.000000
# 5 0.000000 0.000000 0.000000 0.000000 0.049150 0.000000
# 6 0.000000 0.000000 0.000000 0.000000 0.000000 0.090122
#
#
# Mechanical properties :
#
#
# Convention : Reuss Voigt Hill
#
# Bulk Modulus (GPa) = 13.13991 18.76781 15.95386
# Shear Modulus (GPa) = 14.29801 18.67764 16.48783
#
# Velocity S-wave (km/s) = 2.82206 3.22544 3.03047
# Velocity P-wave (km/s) = 4.23528 4.93204 4.59688
#
# Compressibility (1/GPa) = 0.07610400
#
# Stress axis : x y z
#
# Youngs Moduli (GPa) = 20.07793 20.51575 63.72411
#
# Poissons Ratio (x) = 0.15149 0.13095
# Poissons Ratio (y) = 0.14826 0.61365
# Poissons Ratio (z) = 0.04126 0.19756
#
# Static dielectric constant tensor:
#      x y z
#    x 1.619840 0.000000 0.000000 
#    y 0.000000 1.597580 0.000000 
#    z 0.000000 0.000000 1.669330 
# 
# From -- ./inp_files/69426.got.cif
#   From: 2010.05.17/outbox.cif.g08.bks.cpg/sg63_35_cif.got.tgz:69426.got - 2010.06.03 15:47:04.
