data_PCOD9470339
_publ_section_title
;
Structure prediction by ZEFSAII (Michael W. Deem and Ramdas Pophale) SiO2 
 PCOD9470339
Probable space group: C M C M
;
_chemical_formula_sum "Si O2"
_cell_formula_units_Z 80
_cell_length_a 18.618610
_cell_length_b 9.340227
_cell_length_c 24.903919
_cell_angle_alpha 90.000000
_cell_angle_beta 90.000000
_cell_angle_gamma 90.000000
_cell_volume 4330.842413
_symmetry_space_group_name_H-M "C M C M"
_symmetry_group_IT_number 63
_symmetry_cell_setting 'orthorhombic'
loop_
_space_group_symop_operation_xyz
x,y,z
-x,-y,1/2+z
x,-y,-z
-x,y,1/2-z
-x,-y,-z
x,y,1/2-z
-x,y,z
x,-y,1/2+z
1/2+x,1/2+y,z
1/2-x,1/2-y,1/2+z
1/2+x,1/2-y,-z
1/2-x,1/2+y,1/2-z
1/2-x,1/2-y,-z
1/2+x,1/2+y,1/2-z
1/2-x,1/2+y,z
1/2+x,1/2-y,1/2+z
loop_
_atom_site_type_symbol
_atom_site_label
_atom_site_fract_x
_atom_site_fract_y
_atom_site_fract_z
Si Si1 0.803396 0.152223 0.629302
Si Si2 0.580250 0.571941 0.554606
Si Si3 0.419362 0.733048 0.107028
Si Si4 0.802982 0.146278 0.186473
Si Si5 0.300318 0.860057 0.033691
O O1 0.871887 0.178418 0.590230
O O2 0.768641 0.287591 0.658994
O O3 0.745783 0.098173 0.585708
O O4 0.812748 0.020228 0.670215
O O5 0.611801 0.500000 0.500000
O O6 0.500000 0.625959 0.541320
O O7 0.574081 0.434328 0.592773
O O8 0.500000 0.791626 0.112865
O O9 0.368815 0.734665 0.159470
O O10 0.373764 0.796143 0.057415
O O11 0.800652 0.162808 0.250000
O O12 0.250000 0.750000 0.000000
O O13 0.314857 0.000000 0.000000
#
# Coordination Sequence:
#
# PCOD9470339 Si02
#       5
#    16  16  16  16  16
#     4  10  19  32  50  75 101 127 168 210 247 300
#     4   9  16  28  48  73 103 134 159 192 244 302
#     4   9  19  32  47  72 101 128 165 207 245 296
#     4  10  20  34  53  72  94 129 171 218 263 297
#     4  11  20  32  52  77 106 139 168 201 251 309
#
# _framework density 18.472156999999999
#
# number of rings (size 3 to 8) (size 9 to 14) (size 15 to 20)
#    0.000    2.200    0.000    6.000    0.000    0.800 
#    0.000    0.000    0.000   11.400    0.000    0.000 
#    0.000    0.000    0.000    0.000    0.000    0.000 
#
# Total GULP energy -222729.810773 kJ/mol
# GULP energy per Si atom -5568.245269 kJ/mol
# Density = 1.843011 g / cm^3
# Si number density = 18.472157 Si / 1000 Ang^3
#
#
#
# Elastic Constant Matrix: (Units=GPa)
#
#
# Indices 1 2 3 4 5 6 
#
# 1 92.6551 11.2259 30.4162 0.0000 0.0000 0.0000
# 2 11.2259 33.2946 12.8468 0.0000 0.0000 0.0000
# 3 30.4162 12.8468 115.7227 0.0000 0.0000 0.0000
# 4 0.0000 0.0000 0.0000 29.2993 0.0000 0.0000
# 5 0.0000 0.0000 0.0000 0.0000 17.1775 0.0000
# 6 0.0000 0.0000 0.0000 0.0000 0.0000 16.9267
#
#
#
# Elastic Compliance Matrix: (Units=1/GPa)
#
#
# Indices 1 2 3 4 5 6 
#
# 1 0.012088 -0.002977 -0.002847 0.000000 0.000000 0.000000
# 2 -0.002977 0.032112 -0.002782 0.000000 0.000000 0.000000
# 3 -0.002847 -0.002782 0.009698 0.000000 0.000000 0.000000
# 4 0.000000 0.000000 0.000000 0.034130 0.000000 0.000000
# 5 0.000000 0.000000 0.000000 0.000000 0.058216 0.000000
# 6 0.000000 0.000000 0.000000 0.000000 0.000000 0.059078
#
#
# Mechanical properties :
#
#
# Convention : Reuss Voigt Hill
#
# Bulk Modulus (GPa) = 27.25829 38.96113 33.10971
# Shear Modulus (GPa) = 21.29796 25.15961 23.22879
#
# Velocity S-wave (km/s) = 3.39923 3.69457 3.54998
# Velocity P-wave (km/s) = 5.49498 6.27195 5.89628
#
# Compressibility (1/GPa) = 0.03668609
#
# Stress axis : x y z
#
# Youngs Moduli (GPa) = 82.72733 31.14068 103.10953
#
# Poissons Ratio (x) = 0.09272 0.29351
# Poissons Ratio (y) = 0.24630 0.28689
# Poissons Ratio (z) = 0.23549 0.08664
#
# Static dielectric constant tensor:
#      x y z
#    x 1.738410 0.000000 0.000000 
#    y 0.000000 1.666560 0.000000 
#    z 0.000000 0.000000 1.631360 
# 
# From -- ./inp_files/69743.got.cif
#   From: 2010.05.17/outbox.cif.g08.bks.cpg/sg63_35_cif.got.tgz:69743.got - 2010.06.03 15:47:04.
