data_PCOD9470318
_publ_section_title
;
Structure prediction by ZEFSAII (Michael W. Deem and Ramdas Pophale) SiO2 
 PCOD9470318
Probable space group: C M C M
;
_chemical_formula_sum "Si O2"
_cell_formula_units_Z 96
_cell_length_a 8.919634
_cell_length_b 23.839150
_cell_length_c 26.793796
_cell_angle_alpha 90.000000
_cell_angle_beta 90.000000
_cell_angle_gamma 90.000000
_cell_volume 5697.338812
_symmetry_space_group_name_H-M "C M C M"
_symmetry_group_IT_number 63
_symmetry_cell_setting 'orthorhombic'
loop_
_space_group_symop_operation_xyz
x,y,z
-x,-y,1/2+z
x,-y,-z
-x,y,1/2-z
-x,-y,-z
x,y,1/2-z
-x,y,z
x,-y,1/2+z
1/2+x,1/2+y,z
1/2-x,1/2-y,1/2+z
1/2+x,1/2-y,-z
1/2-x,1/2+y,1/2-z
1/2-x,1/2-y,-z
1/2+x,1/2+y,1/2-z
1/2-x,1/2+y,z
1/2+x,1/2-y,1/2+z
loop_
_atom_site_type_symbol
_atom_site_label
_atom_site_fract_x
_atom_site_fract_y
_atom_site_fract_z
Si Si1 0.680528 0.906725 0.691603
Si Si2 0.325968 0.915681 0.960766
Si Si3 0.322032 0.327160 0.610107
Si Si4 0.178993 0.229914 0.552570
Si Si5 0.674215 0.991044 0.124690
Si Si6 0.822595 0.098086 0.563387
O O1 0.713397 0.902306 0.750000
O O2 0.500000 0.902545 0.684162
O O3 0.757433 0.858425 0.658782
O O4 0.724825 0.967593 0.669178
O O5 0.500000 0.897679 0.962444
O O6 0.225323 0.867699 0.935657
O O7 0.317550 0.968381 0.923799
O O8 0.265438 0.926182 0.015690
O O9 0.500000 0.322002 0.612876
O O10 0.246174 0.268380 0.596337
O O11 0.250000 0.250000 0.500000
O O12 0.210197 0.164496 0.563126
O O13 0.000000 0.237304 0.549514
O O14 0.500000 0.976146 0.132588
O O15 0.768170 0.936114 0.111666
O O16 0.000000 0.090528 0.556674
#
# Coordination Sequence:
#
# PCOD9470318 Si02
#       6
#    16  16  16  16  16  16
#     4   9  19  38  62  83 104 134 172 217 270 323
#     4  10  19  32  50  71 102 142 179 214 254 308
#     4  11  21  33  52  80 109 138 177 222 267 313
#     4  11  22  35  51  73 105 146 187 222 262 312
#     4   9  19  33  50  75 103 135 173 211 260 317
#     4  11  22  32  47  73 105 141 179 216 258 308
#
# _framework density 16.849972999999999
#
# number of rings (size 3 to 8) (size 9 to 14) (size 15 to 20)
#    0.000    1.833    1.667    4.500    0.000    7.667 
#    0.000    0.000    0.000    1.000    0.000    4.667 
#    0.000    0.000    0.000    0.000    0.000    0.000 
#
# Total GULP energy -267891.494103 kJ/mol
# GULP energy per Si atom -5581.072794 kJ/mol
# Density = 1.681162 g / cm^3
# Si number density = 16.849973 Si / 1000 Ang^3
#
#
#
# Elastic Constant Matrix: (Units=GPa)
#
#
# Indices 1 2 3 4 5 6 
#
# 1 71.2175 45.7330 36.9614 0.0000 0.0000 0.0000
# 2 45.7330 75.0713 40.5741 0.0000 0.0000 0.0000
# 3 36.9614 40.5741 91.8442 0.0000 0.0000 0.0000
# 4 0.0000 0.0000 0.0000 14.7182 0.0000 0.0000
# 5 0.0000 0.0000 0.0000 0.0000 20.3511 0.0000
# 6 0.0000 0.0000 0.0000 0.0000 0.0000 26.3391
#
#
#
# Elastic Compliance Matrix: (Units=1/GPa)
#
#
# Indices 1 2 3 4 5 6 
#
# 1 0.024264 -0.012485 -0.004249 0.000000 0.000000 0.000000
# 2 -0.012485 0.023923 -0.005544 0.000000 0.000000 0.000000
# 3 -0.004249 -0.005544 0.015047 0.000000 0.000000 0.000000
# 4 0.000000 0.000000 0.000000 0.067943 0.000000 0.000000
# 5 0.000000 0.000000 0.000000 0.000000 0.049138 0.000000
# 6 0.000000 0.000000 0.000000 0.000000 0.000000 0.037966
#
#
# Mechanical properties :
#
#
# Convention : Reuss Voigt Hill
#
# Bulk Modulus (GPa) = 53.53965 53.85221 53.69593
# Shear Modulus (GPa) = 18.58297 19.93930 19.26113
#
# Velocity S-wave (km/s) = 3.32452 3.44371 3.38464
# Velocity P-wave (km/s) = 6.82494 6.91675 6.87100
#
# Compressibility (1/GPa) = 0.01867774
#
# Stress axis : x y z
#
# Youngs Moduli (GPa) = 41.21302 41.80115 66.45732
#
# Poissons Ratio (x) = 0.52189 0.28240
# Poissons Ratio (y) = 0.51454 0.36844
# Poissons Ratio (z) = 0.17513 0.23175
#
# Static dielectric constant tensor:
#      x y z
#    x 1.564640 0.000000 0.000000 
#    y 0.000000 1.589670 0.000000 
#    z 0.000000 0.000000 1.558260 
# 
# From -- ./inp_files/66908.got.cif
#   From: 2010.05.17/outbox.cif.g08.bks.cpg/sg63_34_cif.got.tgz:66908.got - 2010.06.03 15:47:04.
