data_PCOD9470460
_publ_section_title
;
Structure prediction by ZEFSAII (Michael W. Deem and Ramdas Pophale) SiO2 
 PCOD9470460
Probable space group: C M C M
;
_chemical_formula_sum "Si O2"
_cell_formula_units_Z 112
_cell_length_a 12.970185
_cell_length_b 22.717707
_cell_length_c 23.403728
_cell_angle_alpha 90.000000
_cell_angle_beta 90.000000
_cell_angle_gamma 90.000000
_cell_volume 6895.975450
_symmetry_space_group_name_H-M "C M C M"
_symmetry_group_IT_number 63
_symmetry_cell_setting 'orthorhombic'
loop_
_space_group_symop_operation_xyz
x,y,z
-x,-y,1/2+z
x,-y,-z
-x,y,1/2-z
-x,-y,-z
x,y,1/2-z
-x,y,z
x,-y,1/2+z
1/2+x,1/2+y,z
1/2-x,1/2-y,1/2+z
1/2+x,1/2-y,-z
1/2-x,1/2+y,1/2-z
1/2-x,1/2-y,-z
1/2+x,1/2+y,1/2-z
1/2-x,1/2+y,z
1/2+x,1/2-y,1/2+z
loop_
_atom_site_type_symbol
_atom_site_label
_atom_site_fract_x
_atom_site_fract_y
_atom_site_fract_z
Si Si1 0.615109 0.385014 0.867308
Si Si2 0.705775 0.841096 0.482760
Si Si3 0.832338 0.418842 0.815995
Si Si4 0.000000 0.474480 0.601339
Si Si5 0.118821 0.931915 0.996314
Si Si6 0.774507 0.773770 0.907454
Si Si7 0.885485 0.719014 0.184191
Si Si8 0.000000 0.585484 0.523884
O O1 0.500000 0.392160 0.842637
O O2 0.711582 0.411560 0.832424
O O3 0.638461 0.315904 0.880272
O O4 0.616762 0.415422 0.929409
O O5 0.804074 0.884711 0.474961
O O6 0.715843 0.816378 0.547420
O O7 0.698249 0.783916 0.442809
O O8 0.603353 0.877334 0.473709
O O9 0.843902 0.438602 0.750000
O O10 0.900223 0.456773 0.860427
O O11 0.875266 0.351951 0.819289
O O12 0.000000 0.540542 0.577128
O O13 0.000000 0.441121 0.540392
O O14 0.000000 0.927959 0.017609
O O15 0.153560 0.000000 0.000000
O O16 0.699045 0.755283 0.857118
O O17 0.869735 0.735169 0.250000
O O18 0.000000 0.735972 0.166323
#
# Coordination Sequence:
#
# PCOD9470460 Si02
#       8
#    16  16  16   8  16  16  16   8
#     4   9  18  31  50  73 102 136 166 213 266 310
#     4  10  21  33  48  76 105 144 175 209 257 312
#     4  10  19  32  52  77 104 133 174 218 262 308
#     4  11  21  34  52  78 107 143 164 216 263 306
#     4   9  18  32  50  71 101 135 173 214 258 316
#     4   9  19  33  49  73 106 141 171 213 258 313
#     4   9  16  28  50  77 100 127 166 217 265 301
#     4  11  24  32  52  80 112 138 173 210 255 321
#
# _framework density 16.241358000000002
#
# number of rings (size 3 to 8) (size 9 to 14) (size 15 to 20)
#    0.000    2.429    0.714    2.786    6.000    0.857 
#    2.571    0.000    0.000    1.714    0.000    0.000 
#    0.000    0.000    0.000    0.000    0.000    0.000 
#
# Total GULP energy -311817.195959 kJ/mol
# GULP energy per Si atom -5568.164214 kJ/mol
# Density = 1.620439 g / cm^3
# Si number density = 16.241358 Si / 1000 Ang^3
#
#
#
# Elastic Constant Matrix: (Units=GPa)
#
#
# Indices 1 2 3 4 5 6 
#
# 1 98.2438 20.8612 33.9364 0.0000 0.0000 0.0000
# 2 20.8612 47.8979 16.1838 0.0000 0.0000 0.0000
# 3 33.9364 16.1838 45.7968 0.0000 0.0000 0.0000
# 4 0.0000 0.0000 0.0000 15.5894 0.0000 0.0000
# 5 0.0000 0.0000 0.0000 0.0000 11.4093 0.0000
# 6 0.0000 0.0000 0.0000 0.0000 0.0000 101.2623
#
#
#
# Elastic Compliance Matrix: (Units=1/GPa)
#
#
# Indices 1 2 3 4 5 6 
#
# 1 0.014039 -0.002952 -0.009360 0.000000 0.000000 0.000000
# 2 -0.002952 0.024329 -0.006410 0.000000 0.000000 0.000000
# 3 -0.009360 -0.006410 0.031037 0.000000 0.000000 0.000000
# 4 0.000000 0.000000 0.000000 0.064146 0.000000 0.000000
# 5 0.000000 0.000000 0.000000 0.000000 0.087648 0.000000
# 6 0.000000 0.000000 0.000000 0.000000 0.000000 0.009875
#
#
# Mechanical properties :
#
#
# Convention : Reuss Voigt Hill
#
# Bulk Modulus (GPa) = 31.28820 37.10015 34.19418
# Shear Modulus (GPa) = 17.91013 33.71600 25.81306
#
# Velocity S-wave (km/s) = 3.32437 4.56119 3.99098
# Velocity P-wave (km/s) = 5.83452 7.11560 6.50667
#
# Compressibility (1/GPa) = 0.03196093
#
# Stress axis : x y z
#
# Youngs Moduli (GPa) = 71.23139 41.10285 32.21991
#
# Poissons Ratio (x) = 0.12133 0.30157
# Poissons Ratio (y) = 0.21026 0.20653
# Poissons Ratio (z) = 0.66672 0.26348
#
# Static dielectric constant tensor:
#      x y z
#    x 1.591120 0.000000 0.000000 
#    y 0.000000 1.543430 0.000000 
#    z 0.000000 0.000000 1.529250 
# 
# From -- ./inp_files/61980.got.cif
#   From: 2010.05.17/outbox.cif.g08.bks.cpg/sg63_31_cif.got.tgz:61980.got - 2010.06.03 15:47:04.
