data_PCOD9470019
_publ_section_title
;
Structure prediction by ZEFSAII (Michael W. Deem and Ramdas Pophale) SiO2 
 PCOD9470019
Probable space group: C M C M
;
_chemical_formula_sum "Si O2"
_cell_formula_units_Z 72
_cell_length_a 19.965952
_cell_length_b 14.188010
_cell_length_c 13.970749
_cell_angle_alpha 90.000000
_cell_angle_beta 90.000000
_cell_angle_gamma 90.000000
_cell_volume 3957.593634
_symmetry_space_group_name_H-M "C M C M"
_symmetry_group_IT_number 63
_symmetry_cell_setting 'orthorhombic'
loop_
_space_group_symop_operation_xyz
x,y,z
-x,-y,1/2+z
x,-y,-z
-x,y,1/2-z
-x,-y,-z
x,y,1/2-z
-x,y,z
x,-y,1/2+z
1/2+x,1/2+y,z
1/2-x,1/2-y,1/2+z
1/2+x,1/2-y,-z
1/2-x,1/2+y,1/2-z
1/2-x,1/2-y,-z
1/2+x,1/2+y,1/2-z
1/2-x,1/2+y,z
1/2+x,1/2-y,1/2+z
loop_
_atom_site_type_symbol
_atom_site_label
_atom_site_fract_x
_atom_site_fract_y
_atom_site_fract_z
Si Si1 0.647375 0.799310 0.043841
Si Si2 0.207948 0.209167 0.860505
Si Si3 0.798201 0.015738 0.360959
Si Si4 0.819735 0.500000 0.500000
Si Si5 0.925916 0.863929 0.865502
O O1 0.715101 0.778838 0.105205
O O2 0.639700 0.911880 0.040581
O O3 0.589367 0.738370 0.091140
O O4 0.661927 0.761941 0.936953
O O5 0.200118 0.237940 0.750000
O O6 0.193700 0.097042 0.867267
O O7 0.787778 0.040025 0.250000
O O8 0.864479 0.069028 0.395995
O O9 0.732411 0.040368 0.421245
O O10 0.924057 0.859663 0.750000
O O11 0.000000 0.897272 0.893759
#
# Coordination Sequence:
#
# PCOD9470019 Si02
#       5
#    16  16  16   8  16
#     4  10  19  31  48  71  98 129 167 202 240 284
#     4   9  17  30  50  74 101 129 157 199 249 294
#     4   9  17  30  48  73 101 125 155 196 246 296
#     4  10  20  32  48  74 100 126 160 204 248 282
#     4  10  20  34  52  73  98 129 163 198 238 290
#
# _framework density 18.192872999999999
#
# number of rings (size 3 to 8) (size 9 to 14) (size 15 to 20)
#    0.000    2.444    0.000    4.667    0.000    3.556 
#    0.000    5.556    0.000    2.000    0.000    0.000 
#    0.000    0.000    0.000    0.000    0.000    0.000 
#
# Total GULP energy -200893.920058 kJ/mol
# GULP energy per Si atom -5580.386668 kJ/mol
# Density = 1.815147 g / cm^3
# Si number density = 18.192873 Si / 1000 Ang^3
#
#
#
# Elastic Constant Matrix: (Units=GPa)
#
#
# Indices 1 2 3 4 5 6 
#
# 1 37.1254 28.0277 14.3010 0.0000 0.0000 0.0000
# 2 28.0277 57.4226 9.2907 0.0000 0.0000 0.0000
# 3 14.3010 9.2907 68.6130 0.0000 0.0000 0.0000
# 4 0.0000 0.0000 0.0000 26.9503 0.0000 0.0000
# 5 0.0000 0.0000 0.0000 0.0000 12.1899 0.0000
# 6 0.0000 0.0000 0.0000 0.0000 0.0000 17.2367
#
#
#
# Elastic Compliance Matrix: (Units=1/GPa)
#
#
# Indices 1 2 3 4 5 6 
#
# 1 0.045405 -0.021093 -0.006608 0.000000 0.000000 0.000000
# 2 -0.021093 0.027604 0.000659 0.000000 0.000000 0.000000
# 3 -0.006608 0.000659 0.015863 0.000000 0.000000 0.000000
# 4 0.000000 0.000000 0.000000 0.037105 0.000000 0.000000
# 5 0.000000 0.000000 0.000000 0.000000 0.082035 0.000000
# 6 0.000000 0.000000 0.000000 0.000000 0.000000 0.058016
#
#
# Mechanical properties :
#
#
# Convention : Reuss Voigt Hill
#
# Bulk Modulus (GPa) = 28.74603 29.59996 29.17300
# Shear Modulus (GPa) = 15.07355 18.71150 16.89252
#
# Velocity S-wave (km/s) = 2.88156 3.21051 3.05048
# Velocity P-wave (km/s) = 5.18712 5.48166 5.33642
#
# Compressibility (1/GPa) = 0.03478741
#
# Stress axis : x y z
#
# Youngs Moduli (GPa) = 22.02393 36.22720 63.04164
#
# Poissons Ratio (x) = 0.76414 0.41656
# Poissons Ratio (y) = 0.46455 -0.04152
# Poissons Ratio (z) = 0.14553 -0.02386
#
# Static dielectric constant tensor:
#      x y z
#    x 1.601000 0.000000 0.000000 
#    y 0.000000 1.663760 0.000000 
#    z 0.000000 0.000000 1.646540 
# 
# From -- ./inp_files/33660.got.cif
#   From: 2010.05.17/outbox.cif.g08.bks.cpg/sg63_17_cif.got.tgz:33660.got - 2010.06.03 15:47:04.
