data_PCOD9470272
_publ_section_title
;
Structure prediction by ZEFSAII (Michael W. Deem and Ramdas Pophale) SiO2 
 PCOD9470272
Probable space group: C M C M
;
_chemical_formula_sum "Si O2"
_cell_formula_units_Z 80
_cell_length_a 30.348370
_cell_length_b 15.668330
_cell_length_c 8.661699
_cell_angle_alpha 90.000000
_cell_angle_beta 90.000000
_cell_angle_gamma 90.000000
_cell_volume 4118.709560
_symmetry_space_group_name_H-M "C M C M"
_symmetry_group_IT_number 63
_symmetry_cell_setting 'orthorhombic'
loop_
_space_group_symop_operation_xyz
x,y,z
-x,-y,1/2+z
x,-y,-z
-x,y,1/2-z
-x,-y,-z
x,y,1/2-z
-x,y,z
x,-y,1/2+z
1/2+x,1/2+y,z
1/2-x,1/2-y,1/2+z
1/2+x,1/2-y,-z
1/2-x,1/2+y,1/2-z
1/2-x,1/2-y,-z
1/2+x,1/2+y,1/2-z
1/2-x,1/2+y,z
1/2+x,1/2-y,1/2+z
loop_
_atom_site_type_symbol
_atom_site_label
_atom_site_fract_x
_atom_site_fract_y
_atom_site_fract_z
Si Si1 0.450328 0.267578 0.432325
Si Si2 0.141366 0.227907 0.434927
Si Si3 0.552350 0.085397 0.578043
Si Si4 0.731767 0.338657 0.564439
Si Si5 0.677281 0.909175 0.935660
O O1 0.449126 0.282016 0.250000
O O2 0.500000 0.291103 0.488750
O O3 0.406443 0.304060 0.510206
O O4 0.444495 0.167120 0.469532
O O5 0.141477 0.234202 0.250000
O O6 0.180672 0.163134 0.484647
O O7 0.153681 0.322975 0.500143
O O8 0.570807 0.100970 0.750000
O O9 0.500000 0.072819 0.596705
O O10 0.569416 0.000000 0.500000
O O11 0.731777 0.337852 0.750000
O O12 0.750000 0.250000 0.500000
O O13 0.770712 0.402351 0.518160
O O14 0.673143 0.907545 0.750000
O O15 0.661791 0.000000 0.000000
#
# Coordination Sequence:
#
# PCOD9470272 Si02
#       5
#    16  16  16  16  16
#     4  10  20  32  44  60  84 114 149 189 228 264
#     4  10  19  32  49  68  90 120 156 190 228 271
#     4   9  16  26  39  53  70  96 132 174 218 259
#     4   8  16  30  48  68  91 118 147 182 224 271
#     4  10  19  32  49  71  97 122 150 185 225 269
#
# _framework density 19.423559000000001
#
# number of rings (size 3 to 8) (size 9 to 14) (size 15 to 20)
#    0.000    2.600    0.000    2.400    0.000    6.000 
#    0.000    4.000    0.000    0.000    0.000    0.000 
#    0.000    0.800    0.000    1.800    0.000    3.200 
#
# Total GULP energy -222685.885531 kJ/mol
# GULP energy per Si atom -5567.147138 kJ/mol
# Density = 1.937935 g / cm^3
# Si number density = 19.423559 Si / 1000 Ang^3
#
#
#
# Elastic Constant Matrix: (Units=GPa)
#
#
# Indices 1 2 3 4 5 6 
#
# 1 194.4025 16.4790 27.3212 0.0000 0.0000 0.0000
# 2 16.4790 17.0265 3.1097 0.0000 0.0000 0.0000
# 3 27.3212 3.1097 39.9174 0.0000 0.0000 0.0000
# 4 0.0000 0.0000 0.0000 8.6140 0.0000 0.0000
# 5 0.0000 0.0000 0.0000 0.0000 27.0287 0.0000
# 6 0.0000 0.0000 0.0000 0.0000 0.0000 -3.9663
#
#
#
# Elastic Compliance Matrix: (Units=1/GPa)
#
#
# Indices 1 2 3 4 5 6 
#
# 1 0.006119 -0.005232 -0.003780 0.000000 0.000000 0.000000
# 2 -0.005232 0.064053 -0.001409 0.000000 0.000000 0.000000
# 3 -0.003780 -0.001409 0.027749 0.000000 0.000000 0.000000
# 4 0.000000 0.000000 0.000000 0.116090 0.000000 0.000000
# 5 0.000000 0.000000 0.000000 0.000000 0.036998 0.000000
# 6 0.000000 0.000000 0.000000 0.000000 0.000000 -0.252121
#
#
# Mechanical properties :
#
#
# Convention : Reuss Voigt Hill
#
# Bulk Modulus (GPa) = 12.97387 38.35181 25.66284
# Shear Modulus (GPa) = 110.07757 19.96436 65.02097
#
# Velocity S-wave (km/s) = 7.53626 3.20948 5.79206
# Velocity P-wave (km/s) = 9.07860 5.78983 7.61390
#
# Compressibility (1/GPa) = 0.07707799
#
# Stress axis : x y z
#
# Youngs Moduli (GPa) = 163.43291 15.61216 36.03735
#
# Poissons Ratio (x) = 0.08168 0.13623
# Poissons Ratio (y) = 0.85500 0.05079
# Poissons Ratio (z) = 0.61784 0.02200
#
# Static dielectric constant tensor:
#      x y z
#    x 1.807970 0.000000 0.000000 
#    y 0.000000 1.637140 0.000000 
#    z 0.000000 0.000000 1.678210 
# 
# From -- ./inp_files/14038.got.cif
#   From: 2010.05.17/outbox.cif.g08.bks.cpg/sg63_8_cif.got.tgz:14038.got - 2010.06.03 15:47:04.
