data_PCOD9470138
_publ_section_title
;
Structure prediction by ZEFSAII (Michael W. Deem and Ramdas Pophale) SiO2 
 PCOD9470138
Probable space group: C M C M
;
_chemical_formula_sum "Si O2"
_cell_formula_units_Z 96
_cell_length_a 8.854863
_cell_length_b 27.326950
_cell_length_c 23.324205
_cell_angle_alpha 90.000000
_cell_angle_beta 90.000000
_cell_angle_gamma 90.000000
_cell_volume 5643.907123
_symmetry_space_group_name_H-M "C M C M"
_symmetry_group_IT_number 63
_symmetry_cell_setting 'orthorhombic'
loop_
_space_group_symop_operation_xyz
x,y,z
-x,-y,1/2+z
x,-y,-z
-x,y,1/2-z
-x,-y,-z
x,y,1/2-z
-x,y,z
x,-y,1/2+z
1/2+x,1/2+y,z
1/2-x,1/2-y,1/2+z
1/2+x,1/2-y,-z
1/2-x,1/2+y,1/2-z
1/2-x,1/2-y,-z
1/2+x,1/2+y,1/2-z
1/2-x,1/2+y,z
1/2+x,1/2-y,1/2+z
loop_
_atom_site_type_symbol
_atom_site_label
_atom_site_fract_x
_atom_site_fract_y
_atom_site_fract_z
Si Si1 0.834946 0.556492 0.011288
Si Si2 0.182055 0.196166 0.504803
Si Si3 0.827427 0.373817 0.403110
Si Si4 0.174074 0.120172 0.093012
Si Si5 0.820682 0.051471 0.681641
Si Si6 0.180097 0.553065 0.316828
O O1 0.833063 0.584402 0.951628
O O2 0.000000 0.567684 0.039065
O O3 0.826567 0.500000 0.000000
O O4 0.698633 0.575222 0.049332
O O5 0.250000 0.250000 0.500000
O O6 0.242914 0.169555 0.562487
O O7 0.228122 0.165085 0.447517
O O8 0.000000 0.196653 0.506168
O O9 0.747276 0.401267 0.350499
O O10 0.000000 0.359514 0.388910
O O11 0.262418 0.100180 0.148062
O O12 0.000000 0.128259 0.107492
O O13 0.793241 0.055545 0.750000
O O14 0.000000 0.049380 0.671564
O O15 0.748606 0.999253 0.662750
O O16 0.223318 0.558123 0.250000
O O17 0.000000 0.549437 0.320699
#
# Coordination Sequence:
#
# PCOD9470138 Si02
#       6
#    16  16  16  16  16  16
#     4   9  17  28  43  66  97 130 162 197 239 291
#     4  10  21  37  56  78 102 129 165 211 263 314
#     4  10  19  31  50  75 102 133 168 207 252 302
#     4  10  20  32  49  73  99 128 163 205 252 300
#     4  10  20  33  50  74 106 142 176 210 248 291
#     4  10  20  33  50  73 103 140 177 208 242 291
#
# _framework density 17.009494
#
# number of rings (size 3 to 8) (size 9 to 14) (size 15 to 20)
#    0.000    2.167    0.000    3.500    0.000    6.333 
#    0.000    0.000    0.000    1.000    0.000    4.667 
#    0.000    0.000    0.000    0.000    0.000    0.000 
#
# Total GULP energy -267401.096643 kJ/mol
# GULP energy per Si atom -5570.856180 kJ/mol
# Density = 1.697078 g / cm^3
# Si number density = 17.009494 Si / 1000 Ang^3
#
#
#
# Elastic Constant Matrix: (Units=GPa)
#
#
# Indices 1 2 3 4 5 6 
#
# 1 65.2010 46.3225 33.6681 0.0000 0.0000 0.0000
# 2 46.3225 116.3573 45.0675 0.0000 0.0000 0.0000
# 3 33.6681 45.0675 71.8002 0.0000 0.0000 0.0000
# 4 0.0000 0.0000 0.0000 25.0653 0.0000 0.0000
# 5 0.0000 0.0000 0.0000 0.0000 27.3349 0.0000
# 6 0.0000 0.0000 0.0000 0.0000 0.0000 19.7551
#
#
#
# Elastic Compliance Matrix: (Units=1/GPa)
#
#
# Indices 1 2 3 4 5 6 
#
# 1 0.023692 -0.006776 -0.006856 0.000000 0.000000 0.000000
# 2 -0.006776 0.013293 -0.005166 0.000000 0.000000 0.000000
# 3 -0.006856 -0.005166 0.020385 0.000000 0.000000 0.000000
# 4 0.000000 0.000000 0.000000 0.039896 0.000000 0.000000
# 5 0.000000 0.000000 0.000000 0.000000 0.036583 0.000000
# 6 0.000000 0.000000 0.000000 0.000000 0.000000 0.050620
#
#
# Mechanical properties :
#
#
# Convention : Reuss Voigt Hill
#
# Bulk Modulus (GPa) = 50.57473 55.94163 53.25818
# Shear Modulus (GPa) = 21.86687 22.98443 22.42565
#
# Velocity S-wave (km/s) = 3.58937 3.67995 3.63494
# Velocity P-wave (km/s) = 6.85390 7.14254 6.99971
#
# Compressibility (1/GPa) = 0.01977272
#
# Stress axis : x y z
#
# Youngs Moduli (GPa) = 42.20878 75.22824 49.05544
#
# Poissons Ratio (x) = 0.50977 0.33632
# Poissons Ratio (y) = 0.28602 0.25343
# Poissons Ratio (z) = 0.28938 0.38864
#
# Static dielectric constant tensor:
#      x y z
#    x 1.623320 0.000000 0.000000 
#    y 0.000000 1.581490 0.000000 
#    z 0.000000 0.000000 1.700770 
# 
# From -- ./inp_files/51329.got.cif
#   From: 2010.05.17/outbox.cif.g08.bks.cpg/sg63_26_cif.got.tgz:51329.got - 2010.06.03 15:47:04.
