data_PCOD9470097
_publ_section_title
;
Structure prediction by ZEFSAII (Michael W. Deem and Ramdas Pophale) SiO2 
 PCOD9470097
Probable space group: C M C M
;
_chemical_formula_sum "Si O2"
_cell_formula_units_Z 80
_cell_length_a 8.821034
_cell_length_b 26.293217
_cell_length_c 20.466135
_cell_angle_alpha 90.000000
_cell_angle_beta 90.000000
_cell_angle_gamma 90.000000
_cell_volume 4746.779480
_symmetry_space_group_name_H-M "C M C M"
_symmetry_group_IT_number 63
_symmetry_cell_setting 'orthorhombic'
loop_
_space_group_symop_operation_xyz
x,y,z
-x,-y,1/2+z
x,-y,-z
-x,y,1/2-z
-x,-y,-z
x,y,1/2-z
-x,y,z
x,-y,1/2+z
1/2+x,1/2+y,z
1/2-x,1/2-y,1/2+z
1/2+x,1/2-y,-z
1/2-x,1/2+y,1/2-z
1/2-x,1/2-y,-z
1/2+x,1/2+y,1/2-z
1/2-x,1/2+y,z
1/2+x,1/2-y,1/2+z
loop_
_atom_site_type_symbol
_atom_site_label
_atom_site_fract_x
_atom_site_fract_y
_atom_site_fract_z
Si Si1 0.817163 0.938784 0.174678
Si Si2 0.317366 0.523010 0.430090
Si Si3 0.318287 0.130976 0.449616
Si Si4 0.318023 0.758122 0.927674
Si Si5 0.681414 0.844287 0.100561
O O1 0.778131 0.948235 0.250000
O O2 0.743936 0.886942 0.148680
O O3 0.000000 0.934202 0.169704
O O4 0.769287 0.984838 0.127295
O O5 0.267205 0.500000 0.500000
O O6 0.500000 0.524818 0.430602
O O7 0.255943 0.579868 0.423590
O O8 0.500000 0.125834 0.447888
O O9 0.278331 0.183304 0.411966
O O10 0.275190 0.138956 0.526191
O O11 0.500000 0.754249 0.930160
O O12 0.250686 0.711529 0.886837
O O13 0.250000 0.750000 0.000000
O O14 0.500000 0.841346 0.102931
#
# Coordination Sequence:
#
# PCOD9470097 Si02
#       5
#    16  16  16  16  16
#     4  10  21  36  52  72 101 136 170 209 260 312
#     4  10  19  31  50  75  99 130 173 214 253 303
#     4   9  18  30  47  74 103 132 163 205 255 299
#     4   9  17  29  46  72 103 132 164 202 251 304
#     4  10  19  31  49  74 102 132 168 209 255 304
#
# _framework density 16.853532000000001
#
# number of rings (size 3 to 8) (size 9 to 14) (size 15 to 20)
#    0.000    2.400    2.000    2.400    0.000    5.600 
#    0.000    0.000    0.000    1.200    0.000    5.600 
#    0.000    0.000    0.000    0.000    0.000    0.000 
#
# Total GULP energy -222948.262540 kJ/mol
# GULP energy per Si atom -5573.706564 kJ/mol
# Density = 1.681517 g / cm^3
# Si number density = 16.853532 Si / 1000 Ang^3
#
#
#
# Elastic Constant Matrix: (Units=GPa)
#
#
# Indices 1 2 3 4 5 6 
#
# 1 25.5478 46.6723 30.4152 0.0000 0.0000 0.0000
# 2 46.6723 193.7574 71.2222 0.0000 0.0000 0.0000
# 3 30.4152 71.2222 83.9434 0.0000 0.0000 0.0000
# 4 0.0000 0.0000 0.0000 19.1467 0.0000 0.0000
# 5 0.0000 0.0000 0.0000 0.0000 13.5920 0.0000
# 6 0.0000 0.0000 0.0000 0.0000 0.0000 36.4545
#
#
#
# Elastic Compliance Matrix: (Units=1/GPa)
#
#
# Indices 1 2 3 4 5 6 
#
# 1 0.088795 -0.013897 -0.020382 0.000000 0.000000 0.000000
# 2 -0.013897 0.009675 -0.003174 0.000000 0.000000 0.000000
# 3 -0.020382 -0.003174 0.021991 0.000000 0.000000 0.000000
# 4 0.000000 0.000000 0.000000 0.052228 0.000000 0.000000
# 5 0.000000 0.000000 0.000000 0.000000 0.073573 0.000000
# 6 0.000000 0.000000 0.000000 0.000000 0.000000 0.027431
#
#
# Mechanical properties :
#
#
# Convention : Reuss Voigt Hill
#
# Bulk Modulus (GPa) = 21.95128 66.65200 44.30164
# Shear Modulus (GPa) = 13.74440 24.16790 18.95615
#
# Velocity S-wave (km/s) = 2.85883 3.79092 3.35738
# Velocity P-wave (km/s) = 4.89390 7.66780 6.43216
#
# Compressibility (1/GPa) = 0.04555542
#
# Stress axis : x y z
#
# Youngs Moduli (GPa) = 11.26185 103.35739 45.47380
#
# Poissons Ratio (x) = 1.43634 0.92686
# Poissons Ratio (y) = 0.15650 0.14432
# Poissons Ratio (z) = 0.22954 0.32803
#
# Static dielectric constant tensor:
#      x y z
#    x 1.564720 0.000000 0.000000 
#    y 0.000000 1.590040 0.000000 
#    z 0.000000 0.000000 1.562130 
# 
# From -- ./inp_files/40466.got.cif
#   From: 2010.05.17/outbox.cif.g08.bks.cpg/sg63_21_cif.got.tgz:40466.got - 2010.06.03 15:47:04.
