data_PCOD9470678
_publ_section_title
;
Structure prediction by ZEFSAII (Michael W. Deem and Ramdas Pophale) SiO2 
 PCOD9470678
Probable space group: C M C M
;
_chemical_formula_sum "Si O2"
_cell_formula_units_Z 96
_cell_length_a 7.666721
_cell_length_b 26.425941
_cell_length_c 24.326330
_cell_angle_alpha 90.000000
_cell_angle_beta 90.000000
_cell_angle_gamma 90.000000
_cell_volume 4928.522165
_symmetry_space_group_name_H-M "C M C M"
_symmetry_group_IT_number 63
_symmetry_cell_setting 'orthorhombic'
loop_
_space_group_symop_operation_xyz
x,y,z
-x,-y,1/2+z
x,-y,-z
-x,y,1/2-z
-x,-y,-z
x,y,1/2-z
-x,y,z
x,-y,1/2+z
1/2+x,1/2+y,z
1/2-x,1/2-y,1/2+z
1/2+x,1/2-y,-z
1/2-x,1/2+y,1/2-z
1/2-x,1/2-y,-z
1/2+x,1/2+y,1/2-z
1/2-x,1/2+y,z
1/2+x,1/2-y,1/2+z
loop_
_atom_site_type_symbol
_atom_site_label
_atom_site_fract_x
_atom_site_fract_y
_atom_site_fract_z
Si Si1 0.207366 0.190213 0.998705
Si Si2 0.289601 0.942817 0.312962
Si Si3 0.292351 0.846211 0.121890
Si Si4 0.208415 0.057930 0.187511
Si Si5 0.786645 0.247709 0.186930
Si Si6 0.713742 0.650834 0.384736
O O1 0.265535 0.164586 0.942173
O O2 0.000000 0.186748 0.000207
O O3 0.250000 0.250000 0.000000
O O4 0.275235 0.162595 0.053563
O O5 0.229103 0.933925 0.250000
O O6 0.500000 0.941036 0.312007
O O7 0.224567 0.899011 0.353588
O O8 0.240962 0.999923 0.328664
O O9 0.500000 0.846923 0.131011
O O10 0.224510 0.798110 0.156122
O O11 0.277116 0.065282 0.250000
O O12 0.273936 0.099220 0.144171
O O13 0.000000 0.064895 0.190602
O O14 0.730631 0.246227 0.250000
O O15 0.734736 0.198062 0.153418
O O16 0.000000 0.248337 0.186734
O O17 0.500000 0.649961 0.386160
#
# Coordination Sequence:
#
# PCOD9470678 Si02
#       6
#    16  16  16  16  16  16
#     4  11  21  35  53  74 102 138 173 210 255 304
#     4   9  18  33  53  77 105 136 169 207 254 307
#     4  10  19  33  52  76 102 132 172 211 249 300
#     4   9  17  31  53  78 101 128 165 210 256 299
#     4   9  15  25  47  76 100 123 159 209 254 294
#     4   9  17  30  49  75 101 127 168 212 250 297
#
# _framework density 19.478456000000001
#
# number of rings (size 3 to 8) (size 9 to 14) (size 15 to 20)
#    0.000    2.500    1.667    1.500    0.000    4.667 
#    0.000    2.500    0.000    6.500    0.000    0.000 
#    0.000    0.000    0.000    0.000    0.000    0.000 
#
# Total GULP energy -267865.102022 kJ/mol
# GULP energy per Si atom -5580.522959 kJ/mol
# Density = 1.943412 g / cm^3
# Si number density = 19.478456 Si / 1000 Ang^3
#
#
#
# Elastic Constant Matrix: (Units=GPa)
#
#
# Indices 1 2 3 4 5 6 
#
# 1 28.2680 -5.5759 -12.0845 0.0000 0.0000 0.0000
# 2 -5.5759 177.5505 109.4044 0.0000 0.0000 0.0000
# 3 -12.0845 109.4044 157.1335 0.0000 0.0000 0.0000
# 4 0.0000 0.0000 0.0000 26.8134 0.0000 0.0000
# 5 0.0000 0.0000 0.0000 0.0000 19.0326 0.0000
# 6 0.0000 0.0000 0.0000 0.0000 0.0000 20.6212
#
#
#
# Elastic Compliance Matrix: (Units=1/GPa)
#
#
# Indices 1 2 3 4 5 6 
#
# 1 0.036685 -0.001027 0.003536 0.000000 0.000000 0.000000
# 2 -0.001027 0.009893 -0.006967 0.000000 0.000000 0.000000
# 3 0.003536 -0.006967 0.011487 0.000000 0.000000 0.000000
# 4 0.000000 0.000000 0.000000 0.037295 0.000000 0.000000
# 5 0.000000 0.000000 0.000000 0.000000 0.052541 0.000000
# 6 0.000000 0.000000 0.000000 0.000000 0.000000 0.048494
#
#
# Mechanical properties :
#
#
# Convention : Reuss Voigt Hill
#
# Bulk Modulus (GPa) = 20.34613 60.71554 40.53083
# Shear Modulus (GPa) = 22.55374 31.37397 26.96386
#
# Velocity S-wave (km/s) = 3.40646 4.01771 3.72464
# Velocity P-wave (km/s) = 5.09314 7.26367 6.27300
#
# Compressibility (1/GPa) = 0.04914940
#
# Stress axis : x y z
#
# Youngs Moduli (GPa) = 27.25915 101.08300 87.05726
#
# Poissons Ratio (x) = 0.10381 -0.30786
# Poissons Ratio (y) = 0.02799 0.60652
# Poissons Ratio (z) = -0.09640 0.70423
#
# Static dielectric constant tensor:
#      x y z
#    x 1.747190 0.000000 0.000000 
#    y 0.000000 1.652370 0.000000 
#    z 0.000000 0.000000 1.657220 
# 
# From -- ./inp_files/53062.got.cif
#   From: 2010.05.17/outbox.cif.g08.bks.cpg/sg63_27_cif.got.tgz:53062.got - 2010.06.03 15:47:04.
