data_PCOD9470618
_publ_section_title
;
Structure prediction by ZEFSAII (Michael W. Deem and Ramdas Pophale) SiO2 
 PCOD9470618
Probable space group: C M C M
;
_chemical_formula_sum "Si O2"
_cell_formula_units_Z 80
_cell_length_a 23.942510
_cell_length_b 19.663926
_cell_length_c 7.638199
_cell_angle_alpha 90.000000
_cell_angle_beta 90.000000
_cell_angle_gamma 90.000000
_cell_volume 3596.092693
_symmetry_space_group_name_H-M "C M C M"
_symmetry_group_IT_number 63
_symmetry_cell_setting 'orthorhombic'
loop_
_space_group_symop_operation_xyz
x,y,z
-x,-y,1/2+z
x,-y,-z
-x,y,1/2-z
-x,-y,-z
x,y,1/2-z
-x,y,z
x,-y,1/2+z
1/2+x,1/2+y,z
1/2-x,1/2-y,1/2+z
1/2+x,1/2-y,-z
1/2-x,1/2+y,1/2-z
1/2-x,1/2-y,-z
1/2+x,1/2+y,1/2-z
1/2-x,1/2+y,z
1/2+x,1/2-y,1/2+z
loop_
_atom_site_type_symbol
_atom_site_label
_atom_site_fract_x
_atom_site_fract_y
_atom_site_fract_z
Si Si1 0.883222 0.430510 0.958974
Si Si2 0.500000 0.260994 0.538128
Si Si3 0.205917 0.080310 0.039434
Si Si4 0.122439 0.812767 0.541978
Si Si5 0.500000 0.101211 0.040433
Si Si6 0.195572 0.683367 0.461187
O O1 0.884781 0.425214 0.750000
O O2 0.944648 0.431000 0.036386
O O3 0.855729 0.362578 0.022171
O O4 0.852080 0.500000 0.000000
O O5 0.500000 0.265902 0.750000
O O6 0.560444 0.291326 0.474551
O O7 0.500000 0.181712 0.488217
O O8 0.208021 0.084039 0.250000
O O9 0.147907 0.115355 0.978341
O O10 0.253731 0.134144 0.977347
O O11 0.212157 0.000000 0.000000
O O12 0.115535 0.817635 0.750000
O O13 0.173266 0.757725 0.514996
O O14 0.500000 0.090094 0.250000
O O15 0.200724 0.687205 0.250000
#
# Coordination Sequence:
#
# PCOD9470618 Si02
#       6
#    16   8  16  16   8  16
#     4  10  20  31  46  71 104 141 179 218 262 315
#     4  10  20  35  56  81 108 143 184 229 278 326
#     4  10  22  39  58  83 114 146 183 228 278 330
#     4  10  21  37  58  84 112 144 185 230 275 327
#     4  10  19  33  49  69 103 141 181 229 271 316
#     4  10  20  35  56  82 111 144 181 223 272 327
#
# _framework density 22.246369000000001
#
# number of rings (size 3 to 8) (size 9 to 14) (size 15 to 20)
#    0.000    2.000    2.000    1.500    0.000    3.200 
#    0.000    0.500    0.000    0.000    0.000    0.000 
#    0.000    0.000    0.000    0.000    0.000    0.000 
#
# Total GULP energy -222698.896974 kJ/mol
# GULP energy per Si atom -5567.472424 kJ/mol
# Density = 2.219573 g / cm^3
# Si number density = 22.246369 Si / 1000 Ang^3
#
#
#
# Elastic Constant Matrix: (Units=GPa)
#
#
# Indices 1 2 3 4 5 6 
#
# 1 101.5701 87.4322 1.8613 0.0000 0.0000 0.0000
# 2 87.4322 132.1632 -8.9916 0.0000 0.0000 0.0000
# 3 1.8613 -8.9916 41.0400 0.0000 0.0000 0.0000
# 4 0.0000 0.0000 0.0000 8.9792 0.0000 0.0000
# 5 0.0000 0.0000 0.0000 0.0000 1.5099 0.0000
# 6 0.0000 0.0000 0.0000 0.0000 0.0000 40.2534
#
#
#
# Elastic Compliance Matrix: (Units=1/GPa)
#
#
# Indices 1 2 3 4 5 6 
#
# 1 0.023685 -0.015980 -0.004575 0.000000 0.000000 0.000000
# 2 -0.015980 0.018462 0.004770 0.000000 0.000000 0.000000
# 3 -0.004575 0.004770 0.025619 0.000000 0.000000 0.000000
# 4 0.000000 0.000000 0.000000 0.111368 0.000000 0.000000
# 5 0.000000 0.000000 0.000000 0.000000 0.662277 0.000000
# 6 0.000000 0.000000 0.000000 0.000000 0.000000 0.024843
#
#
# Mechanical properties :
#
#
# Convention : Reuss Voigt Hill
#
# Bulk Modulus (GPa) = 27.62790 48.37521 38.00156
# Shear Modulus (GPa) = 5.49517 23.11329 14.30423
#
# Velocity S-wave (km/s) = 1.57337 3.22680 2.53848
# Velocity P-wave (km/s) = 3.96821 5.97289 5.07061
#
# Compressibility (1/GPa) = 0.03619530
#
# Stress axis : x y z
#
# Youngs Moduli (GPa) = 42.22102 54.16413 39.03353
#
# Poissons Ratio (x) = 0.86554 0.17859
# Poissons Ratio (y) = 0.67469 -0.18618
# Poissons Ratio (z) = 0.19317 -0.25835
#
# Static dielectric constant tensor:
#      x y z
#    x 1.924990 0.000000 0.000000 
#    y 0.000000 1.808800 0.000000 
#    z 0.000000 0.000000 1.804200 
# 
# From -- ./inp_files/10069.got.cif
#   From: 2010.05.17/outbox.cif.g08.bks.cpg/sg63_6_cif.got.tgz:10069.got - 2010.06.03 15:47:04.
