data_PCOD9470376
_publ_section_title
;
Structure prediction by ZEFSAII (Michael W. Deem and Ramdas Pophale) SiO2 
 PCOD9470376
Probable space group: C M C M
;
_chemical_formula_sum "Si O2"
_cell_formula_units_Z 96
_cell_length_a 22.696618
_cell_length_b 26.080522
_cell_length_c 7.401215
_cell_angle_alpha 90.000000
_cell_angle_beta 90.000000
_cell_angle_gamma 90.000000
_cell_volume 4381.072580
_symmetry_space_group_name_H-M "C M C M"
_symmetry_group_IT_number 63
_symmetry_cell_setting 'orthorhombic'
loop_
_space_group_symop_operation_xyz
x,y,z
-x,-y,1/2+z
x,-y,-z
-x,y,1/2-z
-x,-y,-z
x,y,1/2-z
-x,y,z
x,-y,1/2+z
1/2+x,1/2+y,z
1/2-x,1/2-y,1/2+z
1/2+x,1/2-y,-z
1/2-x,1/2+y,1/2-z
1/2-x,1/2-y,-z
1/2+x,1/2+y,1/2-z
1/2-x,1/2+y,z
1/2+x,1/2-y,1/2+z
loop_
_atom_site_type_symbol
_atom_site_label
_atom_site_fract_x
_atom_site_fract_y
_atom_site_fract_z
Si Si1 0.871885 0.444266 0.965227
Si Si2 0.500000 0.199886 0.469605
Si Si3 0.662561 0.360436 0.959986
Si Si4 0.566667 0.559696 0.033671
Si Si5 0.795116 0.652265 0.028566
Si Si6 0.500000 0.919539 0.970071
Si Si7 0.875755 0.253865 0.968733
O O1 0.875476 0.437794 0.750000
O O2 0.834954 0.395739 0.030496
O O3 0.938821 0.443025 0.036553
O O4 0.845020 0.500000 0.000000
O O5 0.500000 0.201210 0.250000
O O6 0.500000 0.140320 0.518846
O O7 0.560217 0.226473 0.529127
O O8 0.670336 0.374880 0.750000
O O9 0.616506 0.401678 0.037334
O O10 0.728552 0.356105 0.035858
O O11 0.636103 0.303565 0.969949
O O12 0.564096 0.566770 0.250000
O O13 0.500000 0.569434 0.964492
O O14 0.580702 0.500000 0.000000
O O15 0.794650 0.653272 0.250000
O O16 0.825840 0.705463 0.972419
O O17 0.500000 0.922944 0.750000
O O18 0.875570 0.253833 0.750000
#
# Coordination Sequence:
#
# PCOD9470376 Si02
#       7
#    16   8  16  16  16   8  16
#     4  10  19  32  51  74 100 132 173 214 253 295
#     4   9  16  29  52  78  99 129 172 211 241 286
#     4  10  21  35  53  77 105 134 164 202 254 306
#     4   9  19  36  55  74  99 130 163 202 249 299
#     4   9  18  34  53  72 100 139 173 203 244 300
#     4   9  15  29  52  72  96 135 173 207 250 298
#     4  10  19  33  54  78 102 131 172 210 243 290
#
# _framework density 21.912441000000001
#
# number of rings (size 3 to 8) (size 9 to 14) (size 15 to 20)
#    0.000    2.500    1.667    0.750    1.167    1.333 
#    0.000    1.667    0.000    1.000    0.000    0.000 
#    0.000    0.000    0.000    0.000    0.000    0.000 
#
# Total GULP energy -268114.349913 kJ/mol
# GULP energy per Si atom -5585.715623 kJ/mol
# Density = 2.186257 g / cm^3
# Si number density = 21.912441 Si / 1000 Ang^3
#
#
#
# Elastic Constant Matrix: (Units=GPa)
#
#
# Indices 1 2 3 4 5 6 
#
# 1 172.3636 99.8155 4.5451 0.0000 0.0000 0.0000
# 2 99.8155 149.1499 -11.8026 0.0000 0.0000 0.0000
# 3 4.5451 -11.8026 73.7213 0.0000 0.0000 0.0000
# 4 0.0000 0.0000 0.0000 19.0856 0.0000 0.0000
# 5 0.0000 0.0000 0.0000 0.0000 -31.2740 0.0000
# 6 0.0000 0.0000 0.0000 0.0000 0.0000 10.5445
#
#
#
# Elastic Compliance Matrix: (Units=1/GPa)
#
#
# Indices 1 2 3 4 5 6 
#
# 1 0.009668 -0.006601 -0.001653 0.000000 0.000000 0.000000
# 2 -0.006601 0.011297 0.002216 0.000000 0.000000 0.000000
# 3 -0.001653 0.002216 0.014021 0.000000 0.000000 0.000000
# 4 0.000000 0.000000 0.000000 0.052396 0.000000 0.000000
# 5 0.000000 0.000000 0.000000 0.000000 -0.031975 0.000000
# 6 0.000000 0.000000 0.000000 0.000000 0.000000 0.094836
#
#
# Mechanical properties :
#
#
# Convention : Reuss Voigt Hill
#
# Bulk Modulus (GPa) = 43.64798 64.48342 54.06570
# Shear Modulus (GPa) = 29.41944 19.84966 24.63455
#
# Velocity S-wave (km/s) = 3.66811 3.01302 3.35659
# Velocity P-wave (km/s) = 6.15651 6.44950 6.30471
#
# Compressibility (1/GPa) = 0.02291057
#
# Stress axis : x y z
#
# Youngs Moduli (GPa) = 103.43675 88.51602 71.32048
#
# Poissons Ratio (x) = 0.58427 0.11788
# Poissons Ratio (y) = 0.68276 -0.15802
# Poissons Ratio (z) = 0.17096 -0.19612
#
# Static dielectric constant tensor:
#      x y z
#    x 1.797690 0.000000 0.000000 
#    y 0.000000 1.747630 0.000000 
#    z 0.000000 0.000000 1.834330 
# 
# From -- ./inp_files/10566.got.cif
#   From: 2010.05.17/outbox.cif.g08.bks.cpg/sg63_6_cif.got.tgz:10566.got - 2010.06.03 15:47:04.
