data_PCOD9470297
_publ_section_title
;
Structure prediction by ZEFSAII (Michael W. Deem and Ramdas Pophale) SiO2 
 PCOD9470297
Probable space group: C M C M
;
_chemical_formula_sum "Si O2"
_cell_formula_units_Z 80
_cell_length_a 12.978609
_cell_length_b 28.438335
_cell_length_c 13.630009
_cell_angle_alpha 90.000000
_cell_angle_beta 90.000000
_cell_angle_gamma 90.000000
_cell_volume 5030.700439
_symmetry_space_group_name_H-M "C M C M"
_symmetry_group_IT_number 63
_symmetry_cell_setting 'orthorhombic'
loop_
_space_group_symop_operation_xyz
x,y,z
-x,-y,1/2+z
x,-y,-z
-x,y,1/2-z
-x,-y,-z
x,y,1/2-z
-x,y,z
x,-y,1/2+z
1/2+x,1/2+y,z
1/2-x,1/2-y,1/2+z
1/2+x,1/2-y,-z
1/2-x,1/2+y,1/2-z
1/2-x,1/2-y,-z
1/2+x,1/2+y,1/2-z
1/2-x,1/2+y,z
1/2+x,1/2-y,1/2+z
loop_
_atom_site_type_symbol
_atom_site_label
_atom_site_fract_x
_atom_site_fract_y
_atom_site_fract_z
Si Si1 0.000000 0.713850 0.368818
Si Si2 0.000000 0.177294 0.632615
Si Si3 0.282904 0.631071 0.866142
Si Si4 0.786413 0.303175 0.526773
Si Si5 0.620652 0.445886 0.477558
Si Si6 0.117527 0.864497 0.865630
O O1 0.105482 0.695392 0.416044
O O2 0.000000 0.709071 0.250000
O O3 0.000000 0.768983 0.396387
O O4 0.895105 0.152293 0.604270
O O5 0.000000 0.176221 0.750000
O O6 0.266881 0.634920 0.750000
O O7 0.299367 0.577638 0.901422
O O8 0.207778 0.663737 0.929818
O O9 0.750000 0.250000 0.500000
O O10 0.699697 0.327214 0.594914
O O11 0.642852 0.500000 0.500000
O O12 0.500000 0.443674 0.443543
O O13 0.628806 0.413095 0.574157
O O14 0.130635 0.872250 0.750000
O O15 0.000000 0.847623 0.882605
#
# Coordination Sequence:
#
# PCOD9470297 Si02
#       6
#     8   8  16  16  16  16
#     4  11  22  36  53  74 101 141 185 218 248 299
#     4   9  16  28  47  70  98 135 172 202 242 299
#     4  10  19  32  49  72 103 139 174 209 255 307
#     4  11  22  32  53  73 103 135 179 217 257 296
#     4   9  17  28  46  74 104 135 170 207 253 313
#     4   9  19  34  50  71 103 137 168 208 261 310
#
# _framework density 15.902358
#
# number of rings (size 3 to 8) (size 9 to 14) (size 15 to 20)
#    0.000    2.200    3.000    0.600    2.800    1.600 
#    0.000    2.500    0.000    0.000    0.000   11.200 
#    0.000   12.800    0.000    0.000    0.000    0.000 
#
# Total GULP energy -222838.842037 kJ/mol
# GULP energy per Si atom -5570.971051 kJ/mol
# Density = 1.586616 g / cm^3
# Si number density = 15.902358 Si / 1000 Ang^3
#
#
#
# Elastic Constant Matrix: (Units=GPa)
#
#
# Indices 1 2 3 4 5 6 
#
# 1 85.3114 48.4467 46.9050 0.0000 0.0000 0.0000
# 2 48.4467 109.9490 46.6491 0.0000 0.0000 0.0000
# 3 46.9050 46.6491 111.7467 0.0000 0.0000 0.0000
# 4 0.0000 0.0000 0.0000 15.8082 0.0000 0.0000
# 5 0.0000 0.0000 0.0000 0.0000 28.4253 0.0000
# 6 0.0000 0.0000 0.0000 0.0000 0.0000 11.5756
#
#
#
# Elastic Compliance Matrix: (Units=1/GPa)
#
#
# Indices 1 2 3 4 5 6 
#
# 1 0.017726 -0.005656 -0.005080 0.000000 0.000000 0.000000
# 2 -0.005656 0.012857 -0.002993 0.000000 0.000000 0.000000
# 3 -0.005080 -0.002993 0.012331 0.000000 0.000000 0.000000
# 4 0.000000 0.000000 0.000000 0.063258 0.000000 0.000000
# 5 0.000000 0.000000 0.000000 0.000000 0.035180 0.000000
# 6 0.000000 0.000000 0.000000 0.000000 0.000000 0.086389
#
#
# Mechanical properties :
#
#
# Convention : Reuss Voigt Hill
#
# Bulk Modulus (GPa) = 64.69586 65.66765 65.18175
# Shear Modulus (GPa) = 19.20492 22.16225 20.68358
#
# Velocity S-wave (km/s) = 3.47894 3.73721 3.61038
# Velocity P-wave (km/s) = 7.54379 7.74637 7.64575
#
# Compressibility (1/GPa) = 0.01545694
#
# Stress axis : x y z
#
# Youngs Moduli (GPa) = 56.41361 77.77769 81.09958
#
# Poissons Ratio (x) = 0.43987 0.41195
# Poissons Ratio (y) = 0.31905 0.24276
# Poissons Ratio (z) = 0.28656 0.23282
#
# Static dielectric constant tensor:
#      x y z
#    x 1.536330 0.000000 0.000000 
#    y 0.000000 1.559850 0.000000 
#    z 0.000000 0.000000 1.559540 
# 
# From -- ./inp_files/30053.got.cif
#   From: 2010.05.17/outbox.cif.g08.bks.cpg/sg63_16_cif.got.tgz:30053.got - 2010.06.03 15:47:04.
