data_PCOD9470132
_publ_section_title
;
Structure prediction by ZEFSAII (Michael W. Deem and Ramdas Pophale) SiO2 
 PCOD9470132
Probable space group: C M C M
;
_chemical_formula_sum "Si O2"
_cell_formula_units_Z 96
_cell_length_a 19.699797
_cell_length_b 8.988227
_cell_length_c 26.446542
_cell_angle_alpha 90.000000
_cell_angle_beta 90.000000
_cell_angle_gamma 90.000000
_cell_volume 4682.789946
_symmetry_space_group_name_H-M "C M C M"
_symmetry_group_IT_number 63
_symmetry_cell_setting 'orthorhombic'
loop_
_space_group_symop_operation_xyz
x,y,z
-x,-y,1/2+z
x,-y,-z
-x,y,1/2-z
-x,-y,-z
x,y,1/2-z
-x,y,z
x,-y,1/2+z
1/2+x,1/2+y,z
1/2-x,1/2-y,1/2+z
1/2+x,1/2-y,-z
1/2-x,1/2+y,1/2-z
1/2-x,1/2-y,-z
1/2+x,1/2+y,1/2-z
1/2-x,1/2+y,z
1/2+x,1/2-y,1/2+z
loop_
_atom_site_type_symbol
_atom_site_label
_atom_site_fract_x
_atom_site_fract_y
_atom_site_fract_z
Si Si1 0.215639 0.856134 0.136287
Si Si2 0.165588 0.840392 0.601909
Si Si3 0.575759 0.325766 0.992478
Si Si4 0.079787 0.295573 0.193376
Si Si5 0.420801 0.065792 0.443345
Si Si6 0.340180 0.054705 0.158598
O O1 0.262992 0.745726 0.103534
O O2 0.171921 0.731198 0.165999
O O3 0.175862 0.982150 0.105449
O O4 0.270146 0.961123 0.166080
O O5 0.127265 0.791410 0.551833
O O6 0.122785 0.790680 0.651045
O O7 0.500000 0.281001 0.975487
O O8 0.576710 0.500000 0.000000
O O9 0.587482 0.240301 0.044475
O O10 0.093093 0.238326 0.250000
O O11 0.104151 0.467185 0.190863
O O12 0.000000 0.284206 0.182799
O O13 0.500000 0.036941 0.429169
O O14 0.368735 0.029377 0.398842
O O15 0.409344 0.000000 0.500000
#
# Coordination Sequence:
#
# PCOD9470132 Si02
#       6
#    16  16  16  16  16  16
#     4   9  20  35  55  78 107 147 187 215 264 327
#     4  10  19  38  56  78 115 147 180 233 271 313
#     4  10  20  33  52  79 108 143 187 228 273 326
#     4  10  21  38  62  87 107 136 177 220 276 333
#     4  10  19  31  50  74  99 136 182 221 267 320
#     4  10  19  37  54  76 110 140 174 225 264 309
#
# _framework density 20.500599000000001
#
# number of rings (size 3 to 8) (size 9 to 14) (size 15 to 20)
#    0.000    2.167    0.000    4.000    0.000    1.333 
#    0.000   33.333    0.000    2.000    0.000    0.000 
#    0.000    0.000    0.000    0.000    0.000    0.000 
#
# Total GULP energy -267506.269244 kJ/mol
# GULP energy per Si atom -5573.047276 kJ/mol
# Density = 2.045394 g / cm^3
# Si number density = 20.500599 Si / 1000 Ang^3
#
#
#
# Elastic Constant Matrix: (Units=GPa)
#
#
# Indices 1 2 3 4 5 6 
#
# 1 73.6846 21.1493 31.4589 0.0000 0.0000 0.0000
# 2 21.1493 127.9078 10.1944 0.0000 0.0000 0.0000
# 3 31.4589 10.1944 55.7638 0.0000 0.0000 0.0000
# 4 0.0000 0.0000 0.0000 15.5142 0.0000 0.0000
# 5 0.0000 0.0000 0.0000 0.0000 69.4927 0.0000
# 6 0.0000 0.0000 0.0000 0.0000 0.0000 28.9218
#
#
#
# Elastic Compliance Matrix: (Units=1/GPa)
#
#
# Indices 1 2 3 4 5 6 
#
# 1 0.018499 -0.002260 -0.010023 0.000000 0.000000 0.000000
# 2 -0.002260 0.008210 -0.000226 0.000000 0.000000 0.000000
# 3 -0.010023 -0.000226 0.023629 0.000000 0.000000 0.000000
# 4 0.000000 0.000000 0.000000 0.064457 0.000000 0.000000
# 5 0.000000 0.000000 0.000000 0.000000 0.014390 0.000000
# 6 0.000000 0.000000 0.000000 0.000000 0.000000 0.034576
#
#
# Mechanical properties :
#
#
# Convention : Reuss Voigt Hill
#
# Bulk Modulus (GPa) = 39.49500 42.55126 41.02313
# Shear Modulus (GPa) = 25.35254 35.75598 30.55426
#
# Velocity S-wave (km/s) = 3.52045 4.18082 3.86477
# Velocity P-wave (km/s) = 5.98597 6.64130 6.32213
#
# Compressibility (1/GPa) = 0.02531966
#
# Stress axis : x y z
#
# Youngs Moduli (GPa) = 54.05608 121.80532 42.32156
#
# Poissons Ratio (x) = 0.27528 0.42420
# Poissons Ratio (y) = 0.12217 0.00956
# Poissons Ratio (z) = 0.54181 0.02752
#
# Static dielectric constant tensor:
#      x y z
#    x 1.757150 0.000000 0.000000 
#    y 0.000000 1.840170 0.000000 
#    z 0.000000 0.000000 1.721340 
# 
# From -- ./inp_files/70264.got.cif
#   From: 2010.05.17/outbox.cif.g08.bks.cpg/sg63_36_cif.got.tgz:70264.got - 2010.06.03 15:47:04.
