data_PCOD9470230
_publ_section_title
;
Structure prediction by ZEFSAII (Michael W. Deem and Ramdas Pophale) SiO2 
 PCOD9470230
Probable space group: C M C M
;
_chemical_formula_sum "Si O2"
_cell_formula_units_Z 96
_cell_length_a 20.003620
_cell_length_b 10.152301
_cell_length_c 24.695708
_cell_angle_alpha 90.000000
_cell_angle_beta 90.000000
_cell_angle_gamma 90.000000
_cell_volume 5015.272821
_symmetry_space_group_name_H-M "C M C M"
_symmetry_group_IT_number 63
_symmetry_cell_setting 'orthorhombic'
loop_
_space_group_symop_operation_xyz
x,y,z
-x,-y,1/2+z
x,-y,-z
-x,y,1/2-z
-x,-y,-z
x,y,1/2-z
-x,y,z
x,-y,1/2+z
1/2+x,1/2+y,z
1/2-x,1/2-y,1/2+z
1/2+x,1/2-y,-z
1/2-x,1/2+y,1/2-z
1/2-x,1/2-y,-z
1/2+x,1/2+y,1/2-z
1/2-x,1/2+y,z
1/2+x,1/2-y,1/2+z
loop_
_atom_site_type_symbol
_atom_site_label
_atom_site_fract_x
_atom_site_fract_y
_atom_site_fract_z
Si Si1 0.924994 0.233663 0.904565
Si Si2 0.237036 0.910684 0.951329
Si Si3 0.791818 0.472231 0.342527
Si Si4 0.637316 0.777293 0.488988
Si Si5 0.680505 0.729691 0.809739
Si Si6 0.074572 0.448108 0.398304
O O1 0.870808 0.198056 0.858721
O O2 0.925860 0.393822 0.905146
O O3 0.000000 0.187597 0.891911
O O4 0.904405 0.198170 0.966016
O O5 0.178584 0.805581 0.944356
O O6 0.257564 0.994852 0.900263
O O7 0.304003 0.842886 0.974710
O O8 0.212308 0.000000 0.000000
O O9 0.744727 0.365057 0.314929
O O10 0.798476 0.616572 0.315529
O O11 0.866445 0.421421 0.355481
O O12 0.593969 0.880150 0.455079
O O13 0.650162 0.711557 0.750000
O O14 0.000000 0.406717 0.382006
#
# Coordination Sequence:
#
# PCOD9470230 Si02
#       6
#    16  16  16  16  16  16
#     4  10  20  34  54  82 114 143 181 230 276 329
#     4  11  19  29  51  81 113 149 183 219 266 332
#     4  11  21  38  57  85 114 144 186 234 279 332
#     4  11  18  30  50  81 118 153 179 215 270 332
#     4  11  23  39  61  82 105 141 190 242 288 326
#     4  10  19  31  52  83 118 151 179 216 272 337
#
# _framework density 19.141531000000001
#
# number of rings (size 3 to 8) (size 9 to 14) (size 15 to 20)
#    0.000    1.333    5.000    3.500    0.000    1.667 
#    0.000    0.000    0.000   15.500    0.000    0.000 
#    0.000    0.000    0.000    0.000    0.000    0.000 
#
# Total GULP energy -267788.647632 kJ/mol
# GULP energy per Si atom -5578.930159 kJ/mol
# Density = 1.909796 g / cm^3
# Si number density = 19.141531 Si / 1000 Ang^3
#
#
#
# Elastic Constant Matrix: (Units=GPa)
#
#
# Indices 1 2 3 4 5 6 
#
# 1 131.3145 36.5809 28.5902 0.0000 0.0000 0.0000
# 2 36.5809 28.8548 14.2951 0.0000 0.0000 0.0000
# 3 28.5902 14.2951 61.2750 0.0000 0.0000 0.0000
# 4 0.0000 0.0000 0.0000 9.9321 0.0000 0.0000
# 5 0.0000 0.0000 0.0000 0.0000 7.3097 0.0000
# 6 0.0000 0.0000 0.0000 0.0000 0.0000 23.6102
#
#
#
# Elastic Compliance Matrix: (Units=1/GPa)
#
#
# Indices 1 2 3 4 5 6 
#
# 1 0.012060 -0.014136 -0.002329 0.000000 0.000000 0.000000
# 2 -0.014136 0.055753 -0.006411 0.000000 0.000000 0.000000
# 3 -0.002329 -0.006411 0.018902 0.000000 0.000000 0.000000
# 4 0.000000 0.000000 0.000000 0.100683 0.000000 0.000000
# 5 0.000000 0.000000 0.000000 0.000000 0.136804 0.000000
# 6 0.000000 0.000000 0.000000 0.000000 0.000000 0.042355
#
#
# Mechanical properties :
#
#
# Convention : Reuss Voigt Hill
#
# Bulk Modulus (GPa) = 24.41219 42.26407 33.33813
# Shear Modulus (GPa) = 11.73805 17.63561 14.68683
#
# Velocity S-wave (km/s) = 2.47902 3.03863 2.77298
# Velocity P-wave (km/s) = 4.57988 5.86845 5.26374
#
# Compressibility (1/GPa) = 0.04096315
#
# Stress axis : x y z
#
# Youngs Moduli (GPa) = 82.91678 17.93625 52.90311
#
# Poissons Ratio (x) = 0.25354 0.12324
# Poissons Ratio (y) = 1.17207 0.33918
# Poissons Ratio (z) = 0.19315 0.11500
#
# Static dielectric constant tensor:
#      x y z
#    x 1.705120 0.000000 0.000000 
#    y 0.000000 1.735840 0.000000 
#    z 0.000000 0.000000 1.669300 
# 
# From -- ./inp_files/69878.got.cif
#   From: 2010.05.17/outbox.cif.g08.bks.cpg/sg63_35_cif.got.tgz:69878.got - 2010.06.03 15:47:04.
