data_PCOD9470946
_publ_section_title
;
Structure prediction by ZEFSAII (Michael W. Deem and Ramdas Pophale) SiO2 
 PCOD9470946
Probable space group: C M C M
;
_chemical_formula_sum "Si O2"
_cell_formula_units_Z 96
_cell_length_a 8.877995
_cell_length_b 20.424792
_cell_length_c 28.265041
_cell_angle_alpha 90.000000
_cell_angle_beta 90.000000
_cell_angle_gamma 90.000000
_cell_volume 5125.333838
_symmetry_space_group_name_H-M "C M C M"
_symmetry_group_IT_number 63
_symmetry_cell_setting 'orthorhombic'
loop_
_space_group_symop_operation_xyz
x,y,z
-x,-y,1/2+z
x,-y,-z
-x,y,1/2-z
-x,-y,-z
x,y,1/2-z
-x,y,z
x,-y,1/2+z
1/2+x,1/2+y,z
1/2-x,1/2-y,1/2+z
1/2+x,1/2-y,-z
1/2-x,1/2+y,1/2-z
1/2-x,1/2-y,-z
1/2+x,1/2+y,1/2-z
1/2-x,1/2+y,z
1/2+x,1/2-y,1/2+z
loop_
_atom_site_type_symbol
_atom_site_label
_atom_site_fract_x
_atom_site_fract_y
_atom_site_fract_z
Si Si1 0.821330 0.156008 0.867655
Si Si2 0.679524 0.101025 0.336865
Si Si3 0.822387 0.544874 0.805084
Si Si4 0.181299 0.084403 0.539612
Si Si5 0.180342 0.558088 0.442362
Si Si6 0.320285 0.265706 0.696764
O O1 0.778179 0.139039 0.921654
O O2 0.744636 0.217513 0.842798
O O3 0.000000 0.164898 0.866177
O O4 0.773958 0.092683 0.837251
O O5 0.500000 0.111644 0.330926
O O6 0.716158 0.030929 0.313790
O O7 0.711525 0.093264 0.392749
O O8 0.766516 0.160959 0.314017
O O9 0.804430 0.561113 0.750000
O O10 0.000000 0.552712 0.817440
O O11 0.251518 0.094404 0.487880
O O12 0.000000 0.079656 0.536617
O O13 0.246580 0.014369 0.557057
O O14 0.000000 0.551262 0.447208
O O15 0.269695 0.246621 0.750000
O O16 0.500000 0.262000 0.695767
#
# Coordination Sequence:
#
# PCOD9470946 Si02
#       6
#    16  16  16  16  16  16
#     4  11  23  38  58  84 115 153 194 237 286 341
#     4  10  21  38  60  86 116 151 191 236 287 344
#     4  10  20  35  57  84 114 147 187 238 290 339
#     4  10  20  34  55  85 119 152 187 233 287 338
#     4  10  19  33  58  88 116 150 189 231 284 342
#     4  11  25  42  60  83 114 154 196 240 291 345
#
# _framework density 18.730487
#
# number of rings (size 3 to 8) (size 9 to 14) (size 15 to 20)
#    0.000    1.667    1.667    4.000    0.000    8.333 
#    0.000    0.833    0.000    0.000    0.000    0.000 
#    0.000    0.000    0.000    0.000    0.000    0.000 
#
# Total GULP energy -268174.023300 kJ/mol
# GULP energy per Si atom -5586.958819 kJ/mol
# Density = 1.868786 g / cm^3
# Si number density = 18.730487 Si / 1000 Ang^3
#
#
#
# Elastic Constant Matrix: (Units=GPa)
#
#
# Indices 1 2 3 4 5 6 
#
# 1 37.2780 2.3640 17.5198 0.0000 0.0000 0.0000
# 2 2.3640 27.1937 -9.0621 0.0000 0.0000 0.0000
# 3 17.5198 -9.0621 52.3433 0.0000 0.0000 0.0000
# 4 0.0000 0.0000 0.0000 18.4721 0.0000 0.0000
# 5 0.0000 0.0000 0.0000 0.0000 23.1216 0.0000
# 6 0.0000 0.0000 0.0000 0.0000 0.0000 31.3842
#
#
#
# Elastic Compliance Matrix: (Units=1/GPa)
#
#
# Indices 1 2 3 4 5 6 
#
# 1 0.033028 -0.006956 -0.012259 0.000000 0.000000 0.000000
# 2 -0.006956 0.040490 0.009338 0.000000 0.000000 0.000000
# 3 -0.012259 0.009338 0.024825 0.000000 0.000000 0.000000
# 4 0.000000 0.000000 0.000000 0.054136 0.000000 0.000000
# 5 0.000000 0.000000 0.000000 0.000000 0.043250 0.000000
# 6 0.000000 0.000000 0.000000 0.000000 0.000000 0.031863
#
#
# Mechanical properties :
#
#
# Convention : Reuss Voigt Hill
#
# Bulk Modulus (GPa) = 12.72457 15.38425 14.05441
# Shear Modulus (GPa) = 18.27875 21.66182 19.97028
#
# Velocity S-wave (km/s) = 3.12730 3.40443 3.26880
# Velocity P-wave (km/s) = 4.45514 4.86670 4.66546
#
# Compressibility (1/GPa) = 0.07858813
#
# Stress axis : x y z
#
# Youngs Moduli (GPa) = 30.27721 24.69752 40.28254
#
# Poissons Ratio (x) = 0.17181 0.49383
# Poissons Ratio (y) = 0.21062 -0.37617
# Poissons Ratio (z) = 0.37117 -0.23063
#
# Static dielectric constant tensor:
#      x y z
#    x 1.628040 0.000000 0.000000 
#    y 0.000000 1.621450 0.000000 
#    z 0.000000 0.000000 1.672630 
# 
# From -- ./inp_files/66859.got.cif
#   From: 2010.05.17/outbox.cif.g08.bks.cpg/sg63_34_cif.got.tgz:66859.got - 2010.06.03 15:47:04.
