data_PCOD9470126
_publ_section_title
;
Structure prediction by ZEFSAII (Michael W. Deem and Ramdas Pophale) SiO2 
 PCOD9470126
Probable space group: C M C M
;
_chemical_formula_sum "Si O2"
_cell_formula_units_Z 112
_cell_length_a 14.060552
_cell_length_b 28.743250
_cell_length_c 14.823876
_cell_angle_alpha 90.000000
_cell_angle_beta 90.000000
_cell_angle_gamma 90.000000
_cell_volume 5991.009616
_symmetry_space_group_name_H-M "C M C M"
_symmetry_group_IT_number 63
_symmetry_cell_setting 'orthorhombic'
loop_
_space_group_symop_operation_xyz
x,y,z
-x,-y,1/2+z
x,-y,-z
-x,y,1/2-z
-x,-y,-z
x,y,1/2-z
-x,y,z
x,-y,1/2+z
1/2+x,1/2+y,z
1/2-x,1/2-y,1/2+z
1/2+x,1/2-y,-z
1/2-x,1/2+y,1/2-z
1/2-x,1/2-y,-z
1/2+x,1/2+y,1/2-z
1/2-x,1/2+y,z
1/2+x,1/2-y,1/2+z
loop_
_atom_site_type_symbol
_atom_site_label
_atom_site_fract_x
_atom_site_fract_y
_atom_site_fract_z
Si Si1 0.385710 0.700119 0.356089
Si Si2 0.895760 0.479514 0.148051
Si Si3 0.804134 0.985277 0.895667
Si Si4 0.114983 0.304154 0.351801
Si Si5 0.390985 0.890242 0.018705
Si Si6 0.613089 0.582089 0.650093
Si Si7 0.691477 0.611024 0.044814
O O1 0.362875 0.693375 0.250000
O O2 0.500000 0.698559 0.364271
O O3 0.353235 0.752556 0.380832
O O4 0.343671 0.659463 0.416560
O O5 0.895973 0.460401 0.250000
O O6 0.803854 0.511513 0.139536
O O7 0.886656 0.436993 0.078835
O O8 0.000000 0.501852 0.132400
O O9 0.845650 0.933422 0.897795
O O10 0.863397 0.026901 0.851696
O O11 0.798173 0.000000 0.000000
O O12 0.149681 0.313242 0.250000
O O13 0.134596 0.346175 0.418464
O O14 0.000000 0.301918 0.346779
O O15 0.500000 0.885255 0.986810
O O16 0.305639 0.892303 0.948781
O O17 0.643933 0.599480 0.750000
O O18 0.500000 0.588896 0.642005
O O19 0.661941 0.603493 0.560529
#
# Coordination Sequence:
#
# PCOD9470126 Si02
#       7
#    16  16  16  16  16  16  16
#     4   9  19  36  56  78 105 136 176 226 271 312
#     4  10  19  31  50  74 100 132 171 212 256 308
#     4  10  20  33  46  69  98 136 173 212 250 302
#     4   8  15  30  52  78 106 135 172 222 271 313
#     4  10  19  31  51  78 107 138 171 212 269 319
#     4  10  21  36  53  74 104 138 173 219 269 316
#     4  11  22  34  53  80 104 141 178 218 261 319
#
# _framework density 18.694679000000001
#
# number of rings (size 3 to 8) (size 9 to 14) (size 15 to 20)
#    0.000    2.286    2.857    2.143    0.000    8.000 
#    0.000    1.429    0.000    0.429    0.000    0.000 
#    0.000    1.143    0.000    0.000    0.000    0.000 
#
# Total GULP energy -312094.429538 kJ/mol
# GULP energy per Si atom -5573.114813 kJ/mol
# Density = 1.865213 g / cm^3
# Si number density = 18.694679 Si / 1000 Ang^3
#
#
#
# Elastic Constant Matrix: (Units=GPa)
#
#
# Indices 1 2 3 4 5 6 
#
# 1 49.3936 11.1638 13.0121 0.0000 0.0000 0.0000
# 2 11.1638 77.5961 18.3493 0.0000 0.0000 0.0000
# 3 13.0121 18.3493 40.7222 0.0000 0.0000 0.0000
# 4 0.0000 0.0000 0.0000 23.8259 0.0000 0.0000
# 5 0.0000 0.0000 0.0000 0.0000 17.1130 0.0000
# 6 0.0000 0.0000 0.0000 0.0000 0.0000 17.3975
#
#
#
# Elastic Compliance Matrix: (Units=1/GPa)
#
#
# Indices 1 2 3 4 5 6 
#
# 1 0.022306 -0.001705 -0.006359 0.000000 0.000000 0.000000
# 2 -0.001705 0.014555 -0.006013 0.000000 0.000000 0.000000
# 3 -0.006359 -0.006013 0.029298 0.000000 0.000000 0.000000
# 4 0.000000 0.000000 0.000000 0.041971 0.000000 0.000000
# 5 0.000000 0.000000 0.000000 0.000000 0.058435 0.000000
# 6 0.000000 0.000000 0.000000 0.000000 0.000000 0.057479
#
#
# Mechanical properties :
#
#
# Convention : Reuss Voigt Hill
#
# Bulk Modulus (GPa) = 26.31357 28.08470 27.19913
# Shear Modulus (GPa) = 18.87733 20.01308 19.44520
#
# Velocity S-wave (km/s) = 3.18114 3.27543 3.22863
# Velocity P-wave (km/s) = 5.25346 5.41849 5.33661
#
# Compressibility (1/GPa) = 0.03800321
#
# Stress axis : x y z
#
# Youngs Moduli (GPa) = 44.83047 68.70686 34.13185
#
# Poissons Ratio (x) = 0.11718 0.21705
# Poissons Ratio (y) = 0.07646 0.20525
# Poissons Ratio (z) = 0.28508 0.41316
#
# Static dielectric constant tensor:
#      x y z
#    x 1.661530 0.000000 0.000000 
#    y 0.000000 1.665350 0.000000 
#    z 0.000000 0.000000 1.666100 
# 
# From -- ./inp_files/32753.got.cif
#   From: 2010.05.17/outbox.cif.g08.bks.cpg/sg63_17_cif.got.tgz:32753.got - 2010.06.03 15:47:04.
