data_PCOD9470559
_publ_section_title
;
Structure prediction by ZEFSAII (Michael W. Deem and Ramdas Pophale) SiO2 
 PCOD9470559
Probable space group: C M C M
;
_chemical_formula_sum "Si O2"
_cell_formula_units_Z 96
_cell_length_a 17.688900
_cell_length_b 17.397883
_cell_length_c 18.647261
_cell_angle_alpha 90.000000
_cell_angle_beta 90.000000
_cell_angle_gamma 90.000000
_cell_volume 5738.683619
_symmetry_space_group_name_H-M "C M C M"
_symmetry_group_IT_number 63
_symmetry_cell_setting 'orthorhombic'
loop_
_space_group_symop_operation_xyz
x,y,z
-x,-y,1/2+z
x,-y,-z
-x,y,1/2-z
-x,-y,-z
x,y,1/2-z
-x,y,z
x,-y,1/2+z
1/2+x,1/2+y,z
1/2-x,1/2-y,1/2+z
1/2+x,1/2-y,-z
1/2-x,1/2+y,1/2-z
1/2-x,1/2-y,-z
1/2+x,1/2+y,1/2-z
1/2-x,1/2+y,z
1/2+x,1/2-y,1/2+z
loop_
_atom_site_type_symbol
_atom_site_label
_atom_site_fract_x
_atom_site_fract_y
_atom_site_fract_z
Si Si1 0.682142 0.024687 0.923191
Si Si2 0.089783 0.226254 0.665088
Si Si3 0.089527 0.349425 0.333589
Si Si4 0.805806 0.370381 0.666843
Si Si5 0.805150 0.850929 0.445114
Si Si6 0.679936 0.278099 0.594040
O O1 0.630917 0.083620 0.878151
O O2 0.761652 0.068396 0.938675
O O3 0.690966 0.946801 0.879224
O O4 0.648931 0.000000 0.000000
O O5 0.104020 0.212130 0.750000
O O6 0.128844 0.308439 0.647561
O O7 0.131768 0.164510 0.615050
O O8 0.000000 0.228213 0.653564
O O9 0.114265 0.350401 0.250000
O O10 0.112238 0.268385 0.369787
O O11 0.000000 0.360570 0.335926
O O12 0.813946 0.388806 0.750000
O O13 0.726766 0.328434 0.650488
O O14 0.738872 0.788462 0.430214
O O15 0.836215 0.829590 0.523951
#
# Coordination Sequence:
#
# PCOD9470559 Si02
#       6
#    16  16  16  16  16  16
#     4  11  21  35  53  78 113 141 174 216 260 314
#     4   9  19  34  53  79 108 138 176 221 266 312
#     4  10  22  37  53  77 109 142 176 214 259 315
#     4  10  19  32  54  79 104 140 176 213 262 312
#     4   9  18  32  53  75 104 135 177 220 259 306
#     4   9  17  33  53  75  99 136 178 223 255 302
#
# _framework density 16.728574999999999
#
# number of rings (size 3 to 8) (size 9 to 14) (size 15 to 20)
#    0.000    2.333    1.667    1.000    2.333    6.333 
#    0.000    1.667    0.000    1.500    0.000    2.333 
#    0.000    0.000    0.000    0.000    0.000    0.000 
#
# Total GULP energy -267486.113651 kJ/mol
# GULP energy per Si atom -5572.627368 kJ/mol
# Density = 1.669050 g / cm^3
# Si number density = 16.728575 Si / 1000 Ang^3
#
#
#
# Elastic Constant Matrix: (Units=GPa)
#
#
# Indices 1 2 3 4 5 6 
#
# 1 59.8432 38.4916 42.1708 0.0000 0.0000 0.0000
# 2 38.4916 32.2353 36.1244 0.0000 0.0000 0.0000
# 3 42.1708 36.1244 98.2300 0.0000 0.0000 0.0000
# 4 0.0000 0.0000 0.0000 33.2506 0.0000 0.0000
# 5 0.0000 0.0000 0.0000 0.0000 10.4803 0.0000
# 6 0.0000 0.0000 0.0000 0.0000 0.0000 14.7998
#
#
#
# Elastic Compliance Matrix: (Units=1/GPa)
#
#
# Indices 1 2 3 4 5 6 
#
# 1 0.072124 -0.087472 0.001205 0.000000 0.000000 0.000000
# 2 -0.087472 0.158856 -0.020867 0.000000 0.000000 0.000000
# 3 0.001205 -0.020867 0.017337 0.000000 0.000000 0.000000
# 4 0.000000 0.000000 0.000000 0.030075 0.000000 0.000000
# 5 0.000000 0.000000 0.000000 0.000000 0.095417 0.000000
# 6 0.000000 0.000000 0.000000 0.000000 0.000000 0.067569
#
#
# Mechanical properties :
#
#
# Convention : Reuss Voigt Hill
#
# Bulk Modulus (GPa) = 29.37076 47.09799 38.23437
# Shear Modulus (GPa) = 7.49630 16.60758 12.05194
#
# Velocity S-wave (km/s) = 2.11917 3.15424 2.68701
# Velocity P-wave (km/s) = 4.85625 6.44057 5.70369
#
# Compressibility (1/GPa) = 0.03404747
#
# Stress axis : x y z
#
# Youngs Moduli (GPa) = 13.86500 6.29501 57.68026
#
# Poissons Ratio (x) = 0.55064 -0.06950
# Poissons Ratio (y) = 1.21280 1.20363
# Poissons Ratio (z) = -0.01671 0.13136
#
# Static dielectric constant tensor:
#      x y z
#    x 1.540800 0.000000 0.000000 
#    y 0.000000 1.554300 0.000000 
#    z 0.000000 0.000000 1.594710 
# 
# From -- ./inp_files/45753.got.cif
#   From: 2010.05.17/outbox.cif.g08.bks.cpg/sg63_23_cif.got.tgz:45753.got - 2010.06.03 15:47:04.
