data_PCOD9470850
_publ_section_title
;
Structure prediction by ZEFSAII (Michael W. Deem and Ramdas Pophale) SiO2 
 PCOD9470850
Probable space group: C M C M
;
_chemical_formula_sum "Si O2"
_cell_formula_units_Z 80
_cell_length_a 19.818029
_cell_length_b 8.061221
_cell_length_c 26.537575
_cell_angle_alpha 90.000000
_cell_angle_beta 90.000000
_cell_angle_gamma 90.000000
_cell_volume 4239.576945
_symmetry_space_group_name_H-M "C M C M"
_symmetry_group_IT_number 63
_symmetry_cell_setting 'orthorhombic'
loop_
_space_group_symop_operation_xyz
x,y,z
-x,-y,1/2+z
x,-y,-z
-x,y,1/2-z
-x,-y,-z
x,y,1/2-z
-x,y,z
x,-y,1/2+z
1/2+x,1/2+y,z
1/2-x,1/2-y,1/2+z
1/2+x,1/2-y,-z
1/2-x,1/2+y,1/2-z
1/2-x,1/2-y,-z
1/2+x,1/2+y,1/2-z
1/2-x,1/2+y,z
1/2+x,1/2-y,1/2+z
loop_
_atom_site_type_symbol
_atom_site_label
_atom_site_fract_x
_atom_site_fract_y
_atom_site_fract_z
Si Si1 0.646027 0.608797 0.750000
Si Si2 0.280905 0.878832 0.915641
Si Si3 0.317887 0.170829 0.648750
Si Si4 0.787717 0.472195 0.750000
Si Si5 0.579472 0.470990 0.848592
Si Si6 0.148328 0.071581 0.949810
O O1 0.706418 0.473162 0.750000
O O2 0.679728 0.790427 0.750000
O O3 0.603485 0.576896 0.800395
O O4 0.249570 0.771051 0.868984
O O5 0.322587 0.757422 0.951268
O O6 0.324490 0.029023 0.893662
O O7 0.214505 0.956137 0.941041
O O8 0.378659 0.299347 0.651940
O O9 0.308139 0.075542 0.700760
O O10 0.500000 0.444328 0.846779
O O11 0.602299 0.557483 0.900491
O O12 0.115025 0.000000 0.000000
#
# Coordination Sequence:
#
# PCOD9470850 Si02
#       6
#     8  16  16   8  16  16
#     4  12  23  37  60  86 113 141 175 226 279 328
#     4   9  18  33  54  86 113 135 174 228 287 326
#     4  10  19  33  55  81 113 143 175 224 274 323
#     4  12  20  33  60  90 108 131 175 228 285 328
#     4  11  24  40  54  74 111 154 189 218 259 321
#     4  10  19  34  59  85 112 143 178 228 279 325
#
# _framework density 18.869807999999999
#
# number of rings (size 3 to 8) (size 9 to 14) (size 15 to 20)
#    0.000    1.600    0.000    8.700    0.000    0.400 
#    0.000    5.000    0.000    1.200    0.000    0.000 
#    0.000    0.000    0.000    0.000    0.000    0.000 
#
# Total GULP energy -223483.412534 kJ/mol
# GULP energy per Si atom -5587.085313 kJ/mol
# Density = 1.882686 g / cm^3
# Si number density = 18.869808 Si / 1000 Ang^3
#
#
#
# Elastic Constant Matrix: (Units=GPa)
#
#
# Indices 1 2 3 4 5 6 
#
# 1 67.4337 2.9732 0.2631 0.0000 0.0000 0.0000
# 2 2.9732 76.0625 -4.2190 0.0000 0.0000 0.0000
# 3 0.2631 -4.2190 73.8415 0.0000 0.0000 0.0000
# 4 0.0000 0.0000 0.0000 21.4092 0.0000 0.0000
# 5 0.0000 0.0000 0.0000 0.0000 4.3643 0.0000
# 6 0.0000 0.0000 0.0000 0.0000 0.0000 10.0455
#
#
#
# Elastic Compliance Matrix: (Units=1/GPa)
#
#
# Indices 1 2 3 4 5 6 
#
# 1 0.014856 -0.000585 -0.000086 0.000000 0.000000 0.000000
# 2 -0.000585 0.013212 0.000757 0.000000 0.000000 0.000000
# 3 -0.000086 0.000757 0.013586 0.000000 0.000000 0.000000
# 4 0.000000 0.000000 0.000000 0.046709 0.000000 0.000000
# 5 0.000000 0.000000 0.000000 0.000000 0.229129 0.000000
# 6 0.000000 0.000000 0.000000 0.000000 0.000000 0.099547
#
#
# Mechanical properties :
#
#
# Convention : Reuss Voigt Hill
#
# Bulk Modulus (GPa) = 23.90983 23.93024 23.92003
# Shear Modulus (GPa) = 11.60605 21.71852 16.66228
#
# Velocity S-wave (km/s) = 2.48273 3.39627 2.97478
# Velocity P-wave (km/s) = 4.57352 5.29989 4.95004
#
# Compressibility (1/GPa) = 0.04182380
#
# Stress axis : x y z
#
# Youngs Moduli (GPa) = 67.31496 75.68906 73.60479
#
# Poissons Ratio (x) = 0.04431 0.00636
# Poissons Ratio (y) = 0.03941 -0.05572
# Poissons Ratio (z) = 0.00581 -0.05729
#
# Static dielectric constant tensor:
#      x y z
#    x 1.605610 0.000000 0.000000 
#    y 0.000000 1.674820 0.000000 
#    z 0.000000 0.000000 1.718530 
# 
# From -- ./inp_files/64289.got.cif
#   From: 2010.05.17/outbox.cif.g08.bks.cpg/sg63_33_cif.got.tgz:64289.got - 2010.06.03 15:47:04.
