data_PCOD9470732
_publ_section_title
;
Structure prediction by ZEFSAII (Michael W. Deem and Ramdas Pophale) SiO2 
 PCOD9470732
Probable space group: C M C M
;
_chemical_formula_sum "Si O2"
_cell_formula_units_Z 96
_cell_length_a 26.889468
_cell_length_b 23.795811
_cell_length_c 7.608485
_cell_angle_alpha 90.000000
_cell_angle_beta 90.000000
_cell_angle_gamma 90.000000
_cell_volume 4868.340092
_symmetry_space_group_name_H-M "C M C M"
_symmetry_group_IT_number 63
_symmetry_cell_setting 'orthorhombic'
loop_
_space_group_symop_operation_xyz
x,y,z
-x,-y,1/2+z
x,-y,-z
-x,y,1/2-z
-x,-y,-z
x,y,1/2-z
-x,y,z
x,-y,1/2+z
1/2+x,1/2+y,z
1/2-x,1/2-y,1/2+z
1/2+x,1/2-y,-z
1/2-x,1/2+y,1/2-z
1/2-x,1/2-y,-z
1/2+x,1/2+y,1/2-z
1/2-x,1/2+y,z
1/2+x,1/2-y,1/2+z
loop_
_atom_site_type_symbol
_atom_site_label
_atom_site_fract_x
_atom_site_fract_y
_atom_site_fract_z
Si Si1 0.443144 0.182540 0.535045
Si Si2 0.151407 0.132532 0.053226
Si Si3 0.556924 0.687776 0.034700
Si Si4 0.250838 0.065242 0.955919
Si Si5 0.347448 0.127156 0.951706
Si Si6 0.192043 0.252181 0.539708
O O1 0.441163 0.182737 0.750000
O O2 0.500000 0.170441 0.484553
O O3 0.431972 0.247357 0.480012
O O4 0.402597 0.137257 0.470763
O O5 0.142653 0.112089 0.250000
O O6 0.096902 0.141932 0.968677
O O7 0.198775 0.096791 0.991533
O O8 0.169553 0.196844 0.046024
O O9 0.559139 0.687856 0.250000
O O10 0.500000 0.675922 0.985099
O O11 0.257791 0.071832 0.750000
O O12 0.301879 0.091763 0.035095
O O13 0.246620 0.000000 0.000000
O O14 0.354594 0.107912 0.750000
O O15 0.327897 0.190992 0.956057
O O16 0.183657 0.251838 0.750000
O O17 0.250000 0.250000 0.500000
#
# Coordination Sequence:
#
# PCOD9470732 Si02
#       6
#    16  16  16  16  16  16
#     4   8  13  24  46  77 109 138 171 207 245 299
#     4  11  20  33  55  79 108 140 173 215 260 309
#     4   8  14  25  46  78 111 141 170 201 244 304
#     4  11  24  39  55  74 101 135 179 226 271 320
#     4  10  19  33  53  77 104 137 174 217 261 309
#     4  12  22  31  47  75 109 142 173 208 258 317
#
# _framework density 19.719246999999999
#
# number of rings (size 3 to 8) (size 9 to 14) (size 15 to 20)
#    0.000    2.000    3.333    3.500    0.000    0.667 
#    0.000    0.000    0.000    4.500    0.000    0.000 
#    0.000    0.000    0.000    0.000    0.000    0.167 
#
# Total GULP energy -267317.243589 kJ/mol
# GULP energy per Si atom -5569.109241 kJ/mol
# Density = 1.967436 g / cm^3
# Si number density = 19.719247 Si / 1000 Ang^3
#
#
#
# Elastic Constant Matrix: (Units=GPa)
#
#
# Indices 1 2 3 4 5 6 
#
# 1 191.1640 60.0840 5.1976 0.0000 0.0000 0.0000
# 2 60.0840 82.5585 -6.4549 0.0000 0.0000 0.0000
# 3 5.1976 -6.4549 56.7031 0.0000 0.0000 0.0000
# 4 0.0000 0.0000 0.0000 -18.4700 0.0000 0.0000
# 5 0.0000 0.0000 0.0000 0.0000 7.2640 0.0000
# 6 0.0000 0.0000 0.0000 0.0000 0.0000 15.1850
#
#
#
# Elastic Compliance Matrix: (Units=1/GPa)
#
#
# Indices 1 2 3 4 5 6 
#
# 1 0.006864 -0.005090 -0.001209 0.000000 0.000000 0.000000
# 2 -0.005090 0.015996 0.002287 0.000000 0.000000 0.000000
# 3 -0.001209 0.002287 0.018007 0.000000 0.000000 0.000000
# 4 0.000000 0.000000 0.000000 -0.054142 0.000000 0.000000
# 5 0.000000 0.000000 0.000000 0.000000 0.137665 0.000000
# 6 0.000000 0.000000 0.000000 0.000000 0.000000 0.065854
#
#
# Mechanical properties :
#
#
# Convention : Reuss Voigt Hill
#
# Bulk Modulus (GPa) = 30.44644 49.78656 40.11650
# Shear Modulus (GPa) = 23.89902 18.90239 21.40071
#
# Velocity S-wave (km/s) = 3.48510 3.09945 3.29792
# Velocity P-wave (km/s) = 5.62744 6.17343 5.90675
#
# Compressibility (1/GPa) = 0.03284457
#
# Stress axis : x y z
#
# Youngs Moduli (GPa) = 145.69400 62.51706 55.53427
#
# Poissons Ratio (x) = 0.31819 0.06712
# Poissons Ratio (y) = 0.74154 -0.12703
# Poissons Ratio (z) = 0.17608 -0.14300
#
# Static dielectric constant tensor:
#      x y z
#    x 1.780280 0.000000 0.000000 
#    y 0.000000 1.662810 0.000000 
#    z 0.000000 0.000000 1.774210 
# 
# From -- ./inp_files/12382.got.cif
#   From: 2010.05.17/outbox.cif.g08.bks.cpg/sg63_7_cif.got.tgz:12382.got - 2010.06.03 15:47:04.
