data_PCOD9470001
_publ_section_title
;
Structure prediction by ZEFSAII (Michael W. Deem and Ramdas Pophale) SiO2 
 PCOD9470001
Probable space group: C M C M
;
_chemical_formula_sum "Si O2"
_cell_formula_units_Z 96
_cell_length_a 32.610110
_cell_length_b 19.119171
_cell_length_c 8.868754
_cell_angle_alpha 90.000000
_cell_angle_beta 90.000000
_cell_angle_gamma 90.000000
_cell_volume 5529.475396
_symmetry_space_group_name_H-M "C M C M"
_symmetry_group_IT_number 63
_symmetry_cell_setting 'orthorhombic'
loop_
_space_group_symop_operation_xyz
x,y,z
-x,-y,1/2+z
x,-y,-z
-x,y,1/2-z
-x,-y,-z
x,y,1/2-z
-x,y,z
x,-y,1/2+z
1/2+x,1/2+y,z
1/2-x,1/2-y,1/2+z
1/2+x,1/2-y,-z
1/2-x,1/2+y,1/2-z
1/2-x,1/2-y,-z
1/2+x,1/2+y,1/2-z
1/2-x,1/2+y,z
1/2+x,1/2-y,1/2+z
loop_
_atom_site_type_symbol
_atom_site_label
_atom_site_fract_x
_atom_site_fract_y
_atom_site_fract_z
Si Si1 0.838291 0.922595 0.431616
Si Si2 0.000000 0.337823 0.075085
Si Si3 0.500000 0.667962 0.074655
Si Si4 0.585227 0.671039 0.568197
Si Si5 0.084959 0.333681 0.931097
Si Si6 0.335251 0.922248 0.931372
Si Si7 0.247752 0.578229 0.569059
O O1 0.839961 0.928663 0.250000
O O2 0.875796 0.874136 0.481581
O O3 0.792918 0.892260 0.467442
O O4 0.841852 0.000000 0.500000
O O5 0.000000 0.356329 0.250000
O O6 0.000000 0.252891 0.061551
O O7 0.957688 0.361246 0.998916
O O8 0.500000 0.649592 0.250000
O O9 0.457912 0.644329 0.997113
O O10 0.583124 0.668917 0.750000
O O11 0.590232 0.752404 0.523439
O O12 0.081523 0.335273 0.750000
O O13 0.124796 0.377873 0.974184
O O14 0.332587 0.926420 0.750000
O O15 0.293008 0.889751 0.995954
O O16 0.339082 0.000000 0.000000
O O17 0.249059 0.500000 0.500000
O O18 0.243177 0.575071 0.750000
#
# Coordination Sequence:
#
# PCOD9470001 Si02
#       7
#    16   8   8  16  16  16  16
#     4   9  18  31  49  71  94 121 155 191 229 271
#     4   9  17  29  48  71  94 119 151 189 230 273
#     4   9  17  29  46  71  96 119 151 191 230 271
#     4   9  17  32  51  69  91 123 157 188 225 274
#     4   9  18  32  50  69  92 122 156 189 225 272
#     4  10  19  31  48  70  93 121 155 191 228 271
#     4   9  16  28  46  67  91 121 154 188 225 271
#
# _framework density 17.361501000000001
#
# number of rings (size 3 to 8) (size 9 to 14) (size 15 to 20)
#    0.000    2.833    0.000    2.500    0.000    4.667 
#    0.000    1.667    0.000    0.000    0.000    0.000 
#    0.000    0.000    0.000    0.000    0.000    0.000 
#
# Total GULP energy -267347.199339 kJ/mol
# GULP energy per Si atom -5569.733320 kJ/mol
# Density = 1.732199 g / cm^3
# Si number density = 17.361501 Si / 1000 Ang^3
#
#
#
# Elastic Constant Matrix: (Units=GPa)
#
#
# Indices 1 2 3 4 5 6 
#
# 1 226.1999 62.2112 56.1767 0.0000 0.0000 0.0000
# 2 62.2112 36.0174 18.0079 0.0000 0.0000 0.0000
# 3 56.1767 18.0079 35.6587 0.0000 0.0000 0.0000
# 4 0.0000 0.0000 0.0000 14.1080 0.0000 0.0000
# 5 0.0000 0.0000 0.0000 0.0000 17.6353 0.0000
# 6 0.0000 0.0000 0.0000 0.0000 0.0000 33.2389
#
#
#
# Elastic Compliance Matrix: (Units=1/GPa)
#
#
# Indices 1 2 3 4 5 6 
#
# 1 0.010508 -0.013209 -0.009884 0.000000 0.000000 0.000000
# 2 -0.013209 0.053745 -0.006333 0.000000 0.000000 0.000000
# 3 -0.009884 -0.006333 0.046814 0.000000 0.000000 0.000000
# 4 0.000000 0.000000 0.000000 0.070882 0.000000 0.000000
# 5 0.000000 0.000000 0.000000 0.000000 0.056704 0.000000
# 6 0.000000 0.000000 0.000000 0.000000 0.000000 0.030085
#
#
# Mechanical properties :
#
#
# Convention : Reuss Voigt Hill
#
# Bulk Modulus (GPa) = 19.15142 63.40751 41.27947
# Shear Modulus (GPa) = 14.49292 23.76180 19.12736
#
# Velocity S-wave (km/s) = 2.89238 3.70354 3.32280
# Velocity P-wave (km/s) = 4.71268 7.40874 6.20882
#
# Compressibility (1/GPa) = 0.05221545
#
# Stress axis : x y z
#
# Youngs Moduli (GPa) = 95.16177 18.60627 21.36128
#
# Poissons Ratio (x) = 0.24576 0.21114
# Poissons Ratio (y) = 1.25696 0.13528
# Poissons Ratio (z) = 0.94062 0.11783
#
# Static dielectric constant tensor:
#      x y z
#    x 1.624760 0.000000 0.000000 
#    y 0.000000 1.573780 0.000000 
#    z 0.000000 0.000000 1.582460 
# 
# From -- ./inp_files/12824.got.cif
#   From: 2010.05.17/outbox.cif.g08.bks.cpg/sg63_7_cif.got.tgz:12824.got - 2010.06.03 15:47:04.
