data_PCOD9470049
_publ_section_title
;
Structure prediction by ZEFSAII (Michael W. Deem and Ramdas Pophale) SiO2 
 PCOD9470049
Probable space group: C M C M
;
_chemical_formula_sum "Si O2"
_cell_formula_units_Z 80
_cell_length_a 7.670026
_cell_length_b 18.973163
_cell_length_c 27.357850
_cell_angle_alpha 90.000000
_cell_angle_beta 90.000000
_cell_angle_gamma 90.000000
_cell_volume 3981.241642
_symmetry_space_group_name_H-M "C M C M"
_symmetry_group_IT_number 63
_symmetry_cell_setting 'orthorhombic'
loop_
_space_group_symop_operation_xyz
x,y,z
-x,-y,1/2+z
x,-y,-z
-x,y,1/2-z
-x,-y,-z
x,y,1/2-z
-x,y,z
x,-y,1/2+z
1/2+x,1/2+y,z
1/2-x,1/2-y,1/2+z
1/2+x,1/2-y,-z
1/2-x,1/2+y,1/2-z
1/2-x,1/2-y,-z
1/2+x,1/2+y,1/2-z
1/2-x,1/2+y,z
1/2+x,1/2-y,1/2+z
loop_
_atom_site_type_symbol
_atom_site_label
_atom_site_fract_x
_atom_site_fract_y
_atom_site_fract_z
Si Si1 0.703510 0.922169 0.003197
Si Si2 0.214512 0.326426 0.408412
Si Si3 0.703243 0.162108 0.697388
Si Si4 0.291166 0.173348 0.197199
Si Si5 0.705832 0.336234 0.590685
O O1 0.500000 0.930946 0.016337
O O2 0.713897 0.883965 0.951182
O O3 0.775685 0.872034 0.045793
O O4 0.782524 0.000000 0.000000
O O5 0.274224 0.357420 0.355975
O O6 0.270826 0.244791 0.412846
O O7 0.000000 0.324741 0.407275
O O8 0.781051 0.140105 0.750000
O O9 0.500000 0.141560 0.698137
O O10 0.713461 0.247585 0.696516
O O11 0.241213 0.141295 0.250000
O O12 0.500000 0.180158 0.196517
O O13 0.237480 0.138564 0.146277
O O14 0.500000 0.335098 0.581984
#
# Coordination Sequence:
#
# PCOD9470049 Si02
#       5
#    16  16  16  16  16
#     4  10  20  33  48  65  91 126 160 198 241 282
#     4   8  15  28  46  69  92 117 153 191 230 277
#     4   8  13  23  41  65  92 118 145 182 227 273
#     4   9  16  26  43  69  98 122 146 181 226 276
#     4  10  19  31  49  70  93 121 155 195 232 274
#
# _framework density 20.094234
#
# number of rings (size 3 to 8) (size 9 to 14) (size 15 to 20)
#    0.000    3.000    0.000    3.000    0.000    1.600 
#    0.000    4.000    0.000    1.200    0.000    5.600 
#    0.000    0.000    0.000    0.000    0.000    0.000 
#
# Total GULP energy -222734.915656 kJ/mol
# GULP energy per Si atom -5568.372891 kJ/mol
# Density = 2.004850 g / cm^3
# Si number density = 20.094234 Si / 1000 Ang^3
#
#
#
# Elastic Constant Matrix: (Units=GPa)
#
#
# Indices 1 2 3 4 5 6 
#
# 1 36.5601 -0.1114 -19.4228 0.0000 0.0000 0.0000
# 2 -0.1114 59.6611 60.2789 0.0000 0.0000 0.0000
# 3 -19.4228 60.2789 182.4620 0.0000 0.0000 0.0000
# 4 0.0000 0.0000 0.0000 -10.4895 0.0000 0.0000
# 5 0.0000 0.0000 0.0000 0.0000 15.5897 0.0000
# 6 0.0000 0.0000 0.0000 0.0000 0.0000 11.9107
#
#
#
# Elastic Compliance Matrix: (Units=1/GPa)
#
#
# Indices 1 2 3 4 5 6 
#
# 1 0.029858 -0.004736 0.004743 0.000000 0.000000 0.000000
# 2 -0.004736 0.025910 -0.009064 0.000000 0.000000 0.000000
# 3 0.004743 -0.009064 0.008980 0.000000 0.000000 0.000000
# 4 0.000000 0.000000 0.000000 -0.095333 0.000000 0.000000
# 5 0.000000 0.000000 0.000000 0.000000 0.064145 0.000000
# 6 0.000000 0.000000 0.000000 0.000000 0.000000 0.083958
#
#
# Mechanical properties :
#
#
# Convention : Reuss Voigt Hill
#
# Bulk Modulus (GPa) = 21.44400 40.01917 30.73159
# Shear Modulus (GPa) = 33.07386 19.26475 26.16930
#
# Velocity S-wave (km/s) = 4.06142 3.09968 3.61269
# Velocity P-wave (km/s) = 5.71737 5.72448 5.72093
#
# Compressibility (1/GPa) = 0.04663309
#
# Stress axis : x y z
#
# Youngs Moduli (GPa) = 33.49237 38.59461 111.35974
#
# Poissons Ratio (x) = 0.18280 -0.52818
# Poissons Ratio (y) = 0.15863 1.00937
# Poissons Ratio (z) = -0.15885 0.34982
#
# Static dielectric constant tensor:
#      x y z
#    x 1.733670 0.000000 0.000000 
#    y 0.000000 1.671480 0.000000 
#    z 0.000000 0.000000 1.777200 
# 
# From -- ./inp_files/66548.got.cif
#   From: 2010.05.17/outbox.cif.g08.bks.cpg/sg63_34_cif.got.tgz:66548.got - 2010.06.03 15:47:04.
