data_PCOD9470810
_publ_section_title
;
Structure prediction by ZEFSAII (Michael W. Deem and Ramdas Pophale) SiO2 
 PCOD9470810
Probable space group: C M C M
;
_chemical_formula_sum "Si O2"
_cell_formula_units_Z 80
_cell_length_a 27.357631
_cell_length_b 18.431789
_cell_length_c 8.588139
_cell_angle_alpha 90.000000
_cell_angle_beta 90.000000
_cell_angle_gamma 90.000000
_cell_volume 4330.569796
_symmetry_space_group_name_H-M "C M C M"
_symmetry_group_IT_number 63
_symmetry_cell_setting 'orthorhombic'
loop_
_space_group_symop_operation_xyz
x,y,z
-x,-y,1/2+z
x,-y,-z
-x,y,1/2-z
-x,-y,-z
x,y,1/2-z
-x,y,z
x,-y,1/2+z
1/2+x,1/2+y,z
1/2-x,1/2-y,1/2+z
1/2+x,1/2-y,-z
1/2-x,1/2+y,1/2-z
1/2-x,1/2-y,-z
1/2+x,1/2+y,1/2-z
1/2-x,1/2+y,z
1/2+x,1/2-y,1/2+z
loop_
_atom_site_type_symbol
_atom_site_label
_atom_site_fract_x
_atom_site_fract_y
_atom_site_fract_z
Si Si1 0.552430 0.582528 0.437873
Si Si2 0.946627 0.582616 0.936837
Si Si3 0.344804 0.917689 0.935630
Si Si4 0.247992 0.668868 0.935729
Si Si5 0.659379 0.417598 0.562203
O O1 0.552316 0.500000 0.500000
O O2 0.552409 0.580570 0.250000
O O3 0.500000 0.615643 0.487728
O O4 0.605485 0.612930 0.483629
O O5 0.942502 0.581031 0.750000
O O6 0.000000 0.615204 0.976932
O O7 0.947806 0.500000 0.000000
O O8 0.896950 0.614156 0.007298
O O9 0.344201 0.920488 0.750000
O O10 0.299493 0.871989 0.998197
O O11 0.340873 0.000000 0.000000
O O12 0.245670 0.669115 0.750000
O O13 0.250000 0.750000 0.000000
O O14 0.296421 0.627312 0.991695
O O15 0.662323 0.500000 0.500000
O O16 0.663012 0.418132 0.750000
#
# Coordination Sequence:
#
# PCOD9470810 Si02
#       5
#    16  16  16  16  16
#     4   8  14  25  44  72 105 137 168 205 249 296
#     4   9  16  27  46  75 109 141 173 212 259 308
#     4  11  21  35  56  82 110 141 178 219 263 311
#     4  12  25  41  57  75 102 136 176 221 271 323
#     4  10  19  33  54  81 110 140 176 216 258 306
#
# _framework density 18.473320000000001
#
# number of rings (size 3 to 8) (size 9 to 14) (size 15 to 20)
#    0.000    2.000    0.000    6.600    0.000    2.000 
#    0.000    0.000    0.000    1.200    0.000    2.800 
#    0.000    0.000    0.000    0.000    0.000    0.000 
#
# Total GULP energy -223021.983328 kJ/mol
# GULP energy per Si atom -5575.549583 kJ/mol
# Density = 1.843127 g / cm^3
# Si number density = 18.473320 Si / 1000 Ang^3
#
#
#
# Elastic Constant Matrix: (Units=GPa)
#
#
# Indices 1 2 3 4 5 6 
#
# 1 249.8797 67.4131 79.2226 0.0000 0.0000 0.0000
# 2 67.4131 53.7343 30.9280 0.0000 0.0000 0.0000
# 3 79.2226 30.9280 125.9140 0.0000 0.0000 0.0000
# 4 0.0000 0.0000 0.0000 22.2560 0.0000 0.0000
# 5 0.0000 0.0000 0.0000 0.0000 28.8526 0.0000
# 6 0.0000 0.0000 0.0000 0.0000 0.0000 -6.7699
#
#
#
# Elastic Compliance Matrix: (Units=1/GPa)
#
#
# Indices 1 2 3 4 5 6 
#
# 1 0.006658 -0.006920 -0.002489 0.000000 0.000000 0.000000
# 2 -0.006920 0.028867 -0.002736 0.000000 0.000000 0.000000
# 3 -0.002489 -0.002736 0.010180 0.000000 0.000000 0.000000
# 4 0.000000 0.000000 0.000000 0.044932 0.000000 0.000000
# 5 0.000000 0.000000 0.000000 0.000000 0.034659 0.000000
# 6 0.000000 0.000000 0.000000 0.000000 0.000000 -0.147713
#
#
# Mechanical properties :
#
#
# Convention : Reuss Voigt Hill
#
# Bulk Modulus (GPa) = 46.69984 87.18391 66.94187
# Shear Modulus (GPa) = 554.78046 25.66536 290.22291
#
# Velocity S-wave (km/s) = 17.34838 3.73140 12.54770
# Velocity P-wave (km/s) = 20.65485 8.11551 15.69211
#
# Compressibility (1/GPa) = 0.02141335
#
# Stress axis : x y z
#
# Youngs Moduli (GPa) = 150.19280 34.64166 98.22859
#
# Poissons Ratio (x) = 0.23973 0.24453
# Poissons Ratio (y) = 1.03937 0.26880
# Poissons Ratio (z) = 0.37388 0.09480
#
# Static dielectric constant tensor:
#      x y z
#    x 1.709190 0.000000 0.000000 
#    y 0.000000 1.585100 0.000000 
#    z 0.000000 0.000000 1.618350 
# 
# From -- ./inp_files/12033.got.cif
#   From: 2010.05.17/outbox.cif.g08.bks.cpg/sg63_7_cif.got.tgz:12033.got - 2010.06.03 15:47:04.
