data_PCOD9470168
_publ_section_title
;
Structure prediction by ZEFSAII (Michael W. Deem and Ramdas Pophale) SiO2 
 PCOD9470168
Probable space group: C M C M
;
_chemical_formula_sum "Si O2"
_cell_formula_units_Z 80
_cell_length_a 21.589772
_cell_length_b 14.164752
_cell_length_c 14.470067
_cell_angle_alpha 90.000000
_cell_angle_beta 90.000000
_cell_angle_gamma 90.000000
_cell_volume 4425.145685
_symmetry_space_group_name_H-M "C M C M"
_symmetry_group_IT_number 63
_symmetry_cell_setting 'orthorhombic'
loop_
_space_group_symop_operation_xyz
x,y,z
-x,-y,1/2+z
x,-y,-z
-x,y,1/2-z
-x,-y,-z
x,y,1/2-z
-x,y,z
x,-y,1/2+z
1/2+x,1/2+y,z
1/2-x,1/2-y,1/2+z
1/2+x,1/2-y,-z
1/2-x,1/2+y,1/2-z
1/2-x,1/2-y,-z
1/2+x,1/2+y,1/2-z
1/2-x,1/2+y,z
1/2+x,1/2-y,1/2+z
loop_
_atom_site_type_symbol
_atom_site_label
_atom_site_fract_x
_atom_site_fract_y
_atom_site_fract_z
Si Si1 0.234357 0.599666 0.050577
Si Si2 0.073569 0.352571 0.358023
Si Si3 0.344490 0.273908 0.975921
Si Si4 0.929138 0.242005 0.860817
Si Si5 0.613075 0.945429 0.643291
O O1 0.301147 0.645685 0.067197
O O2 0.185463 0.579334 0.132103
O O3 0.241279 0.500000 0.000000
O O4 0.198719 0.681291 0.992439
O O5 0.091621 0.346719 0.250000
O O6 0.101885 0.263835 0.410135
O O7 0.098404 0.452488 0.398436
O O8 0.000000 0.354517 0.364333
O O9 0.376975 0.303305 0.073074
O O10 0.916155 0.234777 0.750000
O O11 0.923992 0.353166 0.888951
O O12 0.000000 0.210385 0.876091
O O13 0.595450 0.954553 0.750000
#
# Coordination Sequence:
#
# PCOD9470168 Si02
#       5
#    16  16  16  16  16
#     4  10  19  34  49  70 101 133 173 215 246 301
#     4  10  19  31  50  78 108 135 167 208 259 316
#     4  10  20  32  51  74 101 136 171 208 259 302
#     4   9  17  30  49  73 100 129 167 213 260 310
#     4   9  17  30  48  73 102 133 166 206 260 312
#
# _framework density 18.078500999999999
#
# number of rings (size 3 to 8) (size 9 to 14) (size 15 to 20)
#    0.000    2.400    2.000    1.200    0.000    3.200 
#    0.000    7.000    0.000    2.400    0.000    2.800 
#    0.000    0.000    0.000    0.000    0.000    0.000 
#
# Total GULP energy -222672.701834 kJ/mol
# GULP energy per Si atom -5566.817546 kJ/mol
# Density = 1.803735 g / cm^3
# Si number density = 18.078501 Si / 1000 Ang^3
#
#
#
# Elastic Constant Matrix: (Units=GPa)
#
#
# Indices 1 2 3 4 5 6 
#
# 1 67.1639 15.4856 17.7825 0.0000 0.0000 0.0000
# 2 15.4856 22.5091 6.0576 0.0000 0.0000 0.0000
# 3 17.7825 6.0576 35.8994 0.0000 0.0000 0.0000
# 4 0.0000 0.0000 0.0000 7.9655 0.0000 0.0000
# 5 0.0000 0.0000 0.0000 0.0000 24.7126 0.0000
# 6 0.0000 0.0000 0.0000 0.0000 0.0000 19.9641
#
#
#
# Elastic Compliance Matrix: (Units=1/GPa)
#
#
# Indices 1 2 3 4 5 6 
#
# 1 0.019569 -0.011371 -0.007775 0.000000 0.000000 0.000000
# 2 -0.011371 0.053147 -0.003335 0.000000 0.000000 0.000000
# 3 -0.007775 -0.003335 0.032270 0.000000 0.000000 0.000000
# 4 0.000000 0.000000 0.000000 0.125541 0.000000 0.000000
# 5 0.000000 0.000000 0.000000 0.000000 0.040465 0.000000
# 6 0.000000 0.000000 0.000000 0.000000 0.000000 0.050090
#
#
# Mechanical properties :
#
#
# Convention : Reuss Voigt Hill
#
# Bulk Modulus (GPa) = 16.66006 22.69152 19.67579
# Shear Modulus (GPa) = 12.95164 16.27824 14.61494
#
# Velocity S-wave (km/s) = 2.67949 3.00395 2.84635
# Velocity P-wave (km/s) = 4.33685 4.96090 4.65934
#
# Compressibility (1/GPa) = 0.06002380
#
# Stress axis : x y z
#
# Youngs Moduli (GPa) = 51.10093 18.81575 30.98889
#
# Poissons Ratio (x) = 0.21395 0.24093
# Poissons Ratio (y) = 0.58105 0.10336
# Poissons Ratio (z) = 0.39730 0.06276
#
# Static dielectric constant tensor:
#      x y z
#    x 1.639240 0.000000 0.000000 
#    y 0.000000 1.625190 0.000000 
#    z 0.000000 0.000000 1.660550 
# 
# From -- ./inp_files/35096.got.cif
#   From: 2010.05.17/outbox.cif.g08.bks.cpg/sg63_18_cif.got.tgz:35096.got - 2010.06.03 15:47:04.
