data_PCOD9470747
_publ_section_title
;
Structure prediction by ZEFSAII (Michael W. Deem and Ramdas Pophale) SiO2 
 PCOD9470747
Probable space group: C M C M
;
_chemical_formula_sum "Si O2"
_cell_formula_units_Z 96
_cell_length_a 20.239399
_cell_length_b 29.127221
_cell_length_c 9.288095
_cell_angle_alpha 90.000000
_cell_angle_beta 90.000000
_cell_angle_gamma 90.000000
_cell_volume 5475.494057
_symmetry_space_group_name_H-M "C M C M"
_symmetry_group_IT_number 63
_symmetry_cell_setting 'orthorhombic'
loop_
_space_group_symop_operation_xyz
x,y,z
-x,-y,1/2+z
x,-y,-z
-x,y,1/2-z
-x,-y,-z
x,y,1/2-z
-x,y,z
x,-y,1/2+z
1/2+x,1/2+y,z
1/2-x,1/2-y,1/2+z
1/2+x,1/2-y,-z
1/2-x,1/2+y,1/2-z
1/2-x,1/2-y,-z
1/2+x,1/2+y,1/2-z
1/2-x,1/2+y,z
1/2+x,1/2-y,1/2+z
loop_
_atom_site_type_symbol
_atom_site_label
_atom_site_fract_x
_atom_site_fract_y
_atom_site_fract_z
Si Si1 0.294409 0.401778 0.577212
Si Si2 0.928499 0.951460 0.578060
Si Si3 0.697902 0.693313 0.586709
Si Si4 0.850354 0.724359 0.585936
Si Si5 0.578797 0.140650 0.421380
Si Si6 0.158546 0.451700 0.923078
O O1 0.291656 0.396057 0.750000
O O2 0.363930 0.423951 0.535465
O O3 0.292812 0.352854 0.502651
O O4 0.232157 0.433743 0.537734
O O5 0.925092 0.958399 0.750000
O O6 0.000000 0.929299 0.546082
O O7 0.927036 0.000000 0.500000
O O8 0.675653 0.684741 0.750000
O O9 0.772279 0.713158 0.594280
O O10 0.649454 0.729128 0.507515
O O11 0.874452 0.730608 0.750000
O O12 0.887219 0.682002 0.508974
O O13 0.591736 0.147420 0.250000
O O14 0.500000 0.140363 0.443841
O O15 0.610227 0.091007 0.459858
O O16 0.155703 0.458201 0.750000
O O17 0.143965 0.500000 0.000000
#
# Coordination Sequence:
#
# PCOD9470747 Si02
#       6
#    16  16  16  16  16  16
#     4  10  19  33  53  78 108 143 179 223 272 320
#     4   9  18  32  50  73 102 138 177 215 261 316
#     4  10  20  33  55  83 109 137 174 220 268 321
#     4  10  20  35  56  82 108 138 176 220 268 322
#     4  10  21  38  58  79 109 148 186 228 279 332
#     4  10  21  35  53  78 108 142 184 231 278 327
#
# _framework density 17.532665000000001
#
# number of rings (size 3 to 8) (size 9 to 14) (size 15 to 20)
#    0.000    2.167    1.667    1.500    0.000    4.000 
#    0.000    0.833    0.000    3.000    0.000    0.000 
#    0.000    0.000    0.000    0.000    0.000    0.000 
#
# Total GULP energy -267572.614792 kJ/mol
# GULP energy per Si atom -5574.429475 kJ/mol
# Density = 1.749276 g / cm^3
# Si number density = 17.532665 Si / 1000 Ang^3
#
#
#
# Elastic Constant Matrix: (Units=GPa)
#
#
# Indices 1 2 3 4 5 6 
#
# 1 62.6735 15.2415 30.5830 0.0000 0.0000 0.0000
# 2 15.2415 71.2639 35.9833 0.0000 0.0000 0.0000
# 3 30.5830 35.9833 45.1751 0.0000 0.0000 0.0000
# 4 0.0000 0.0000 0.0000 31.2488 0.0000 0.0000
# 5 0.0000 0.0000 0.0000 0.0000 -16.6015 0.0000
# 6 0.0000 0.0000 0.0000 0.0000 0.0000 7.6320
#
#
#
# Elastic Compliance Matrix: (Units=1/GPa)
#
#
# Indices 1 2 3 4 5 6 
#
# 1 0.024989 0.005349 -0.021178 0.000000 0.000000 0.000000
# 2 0.005349 0.024618 -0.023230 0.000000 0.000000 0.000000
# 3 -0.021178 -0.023230 0.054976 0.000000 0.000000 0.000000
# 4 0.000000 0.000000 0.000000 0.032001 0.000000 0.000000
# 5 0.000000 0.000000 0.000000 0.000000 -0.060236 0.000000
# 6 0.000000 0.000000 0.000000 0.000000 0.000000 0.131027
#
#
# Mechanical properties :
#
#
# Convention : Reuss Voigt Hill
#
# Bulk Modulus (GPa) = 37.78483 38.08090 37.93287
# Shear Modulus (GPa) = 16.98859 10.94286 13.96572
#
# Velocity S-wave (km/s) = 3.11620 2.50099 2.82539
# Velocity P-wave (km/s) = 5.87754 5.48699 5.68562
#
# Compressibility (1/GPa) = 0.02646565
#
# Stress axis : x y z
#
# Youngs Moduli (GPa) = 40.01743 40.62098 18.18963
#
# Poissons Ratio (x) = -0.21727 0.38522
# Poissons Ratio (y) = -0.21404 0.42254
# Poissons Ratio (z) = 0.84748 0.94362
#
# Static dielectric constant tensor:
#      x y z
#    x 1.607310 0.000000 0.000000 
#    y 0.000000 1.601520 0.000000 
#    z 0.000000 0.000000 1.601300 
# 
# From -- ./inp_files/8513.got.cif
#   From: 2010.05.17/outbox.cif.g08.bks.cpg/sg63_5_cif.got.tgz:8513.got - 2010.06.03 15:47:04.
