data_PCOD9470203
_publ_section_title
;
Structure prediction by ZEFSAII (Michael W. Deem and Ramdas Pophale) SiO2 
 PCOD9470203
Probable space group: C M C M
;
_chemical_formula_sum "Si O2"
_cell_formula_units_Z 116
_cell_length_a 26.442031
_cell_length_b 29.514328
_cell_length_c 7.643028
_cell_angle_alpha 90.000000
_cell_angle_beta 90.000000
_cell_angle_gamma 90.000000
_cell_volume 5964.762556
_symmetry_space_group_name_H-M "C M C M"
_symmetry_group_IT_number 63
_symmetry_cell_setting 'orthorhombic'
loop_
_space_group_symop_operation_xyz
x,y,z
-x,-y,1/2+z
x,-y,-z
-x,y,1/2-z
-x,-y,-z
x,y,1/2-z
-x,y,z
x,-y,1/2+z
1/2+x,1/2+y,z
1/2-x,1/2-y,1/2+z
1/2+x,1/2-y,-z
1/2-x,1/2+y,1/2-z
1/2-x,1/2-y,-z
1/2+x,1/2+y,1/2-z
1/2-x,1/2+y,z
1/2+x,1/2-y,1/2+z
loop_
_atom_site_type_symbol
_atom_site_label
_atom_site_fract_x
_atom_site_fract_y
_atom_site_fract_z
Si Si1 0.278774 0.703574 0.040442
Si Si2 0.692450 0.140156 0.454418
Si Si3 0.555832 0.376354 0.959089
Si Si4 0.643030 0.447760 0.456943
Si Si5 0.106528 0.215865 0.463851
Si Si6 0.585410 0.819248 0.543653
Si Si7 0.256295 0.052205 0.958135
Si Si8 0.500000 0.163029 0.750000
O O1 0.283319 0.698245 0.250000
O O2 0.242179 0.664521 0.968327
O O3 0.336098 0.705801 0.976156
O O4 0.250000 0.750000 0.000000
O O5 0.692147 0.152139 0.250000
O O6 0.639381 0.159750 0.517365
O O7 0.702427 0.087068 0.472311
O O8 0.552455 0.372804 0.750000
O O9 0.500000 0.389041 0.026476
O O10 0.572571 0.326560 0.021320
O O11 0.599481 0.413019 0.991351
O O12 0.630591 0.500000 0.500000
O O13 0.647501 0.444847 0.250000
O O14 0.699431 0.437675 0.530014
O O15 0.105348 0.218217 0.250000
O O16 0.089450 0.264628 0.531346
O O17 0.576493 0.831204 0.750000
O O18 0.543708 0.834847 0.405805
O O19 0.255510 0.057334 0.750000
O O20 0.266921 0.000000 0.000000
#
# Coordination Sequence:
#
# PCOD9470203 Si02
#       8
#    16  16  16  16  16  16  16   4
#     4  10  19  31  51  80 118 159 194 241 298 359
#     4  10  21  37  58  90 126 158 202 248 294 363
#     4  10  22  37  56  79 107 150 203 255 310 359
#     4  10  21  38  58  82 111 149 195 246 304 367
#     4  10  20  35  56  82 117 161 204 247 307 364
#     4  11  24  40  63  91 119 162 211 255 305 359
#     4  10  21  36  60  90 122 156 190 235 300 368
#     4  12  26  44  64  82 126 164 206 264 302 354
#
# _framework density 19.447547
#
# number of rings (size 3 to 8) (size 9 to 14) (size 15 to 20)
#    0.000    1.793    2.069    1.862    1.931    4.414 
#    0.000    0.000    0.000    0.000    0.000    0.483 
#    0.000    0.000    0.000    0.000    0.000    0.000 
#
# Total GULP energy -323240.736523 kJ/mol
# GULP energy per Si atom -5573.116147 kJ/mol
# Density = 1.940328 g / cm^3
# Si number density = 19.447547 Si / 1000 Ang^3
#
#
#
# Elastic Constant Matrix: (Units=GPa)
#
#
# Indices 1 2 3 4 5 6 
#
# 1 26.6127 21.6182 11.1160 0.0000 0.0000 0.0000
# 2 21.6182 79.0281 -12.4876 0.0000 0.0000 0.0000
# 3 11.1160 -12.4876 63.7108 0.0000 0.0000 0.0000
# 4 0.0000 0.0000 0.0000 22.4670 0.0000 0.0000
# 5 0.0000 0.0000 0.0000 0.0000 24.1982 0.0000
# 6 0.0000 0.0000 0.0000 0.0000 0.0000 -1.3073
#
#
#
# Elastic Compliance Matrix: (Units=1/GPa)
#
#
# Indices 1 2 3 4 5 6 
#
# 1 0.057875 -0.017984 -0.013623 0.000000 0.000000 0.000000
# 2 -0.017984 0.018647 0.006793 0.000000 0.000000 0.000000
# 3 -0.013623 0.006793 0.019404 0.000000 0.000000 0.000000
# 4 0.000000 0.000000 0.000000 0.044510 0.000000 0.000000
# 5 0.000000 0.000000 0.000000 0.000000 0.041325 0.000000
# 6 0.000000 0.000000 0.000000 0.000000 0.000000 -0.764953
#
#
# Mechanical properties :
#
#
# Convention : Reuss Voigt Hill
#
# Bulk Modulus (GPa) = 21.59967 23.31608 22.45788
# Shear Modulus (GPa) = -9.65009 19.01192 4.68091
#
# Velocity S-wave (km/s) = -2.23000 3.13005 1.55312
# Velocity P-wave (km/s) = 2.12137 5.00781 3.84568
#
# Compressibility (1/GPa) = 0.04629700
#
# Stress axis : x y z
#
# Youngs Moduli (GPa) = 17.27847 53.62864 51.53522
#
# Poissons Ratio (x) = 0.96448 0.70206
# Poissons Ratio (y) = 0.31074 -0.35006
# Poissons Ratio (z) = 0.23538 -0.36428
#
# Static dielectric constant tensor:
#      x y z
#    x 1.716060 0.000000 0.000000 
#    y 0.000000 1.666650 0.000000 
#    z 0.000000 0.000000 1.726100 
# 
# From -- ./inp_files/13186.got.cif
#   From: 2010.05.17/outbox.cif.g08.bks.cpg/sg63_7_cif.got.tgz:13186.got - 2010.06.03 15:47:04.
