data_PCOD9470454
_publ_section_title
;
Structure prediction by ZEFSAII (Michael W. Deem and Ramdas Pophale) SiO2 
 PCOD9470454
Probable space group: C M C M
;
_chemical_formula_sum "Si O2"
_cell_formula_units_Z 88
_cell_length_a 15.821851
_cell_length_b 21.842248
_cell_length_c 10.747284
_cell_angle_alpha 90.000000
_cell_angle_beta 90.000000
_cell_angle_gamma 90.000000
_cell_volume 3714.097920
_symmetry_space_group_name_H-M "C M C M"
_symmetry_group_IT_number 63
_symmetry_cell_setting 'orthorhombic'
loop_
_space_group_symop_operation_xyz
x,y,z
-x,-y,1/2+z
x,-y,-z
-x,y,1/2-z
-x,-y,-z
x,y,1/2-z
-x,y,z
x,-y,1/2+z
1/2+x,1/2+y,z
1/2-x,1/2-y,1/2+z
1/2+x,1/2-y,-z
1/2-x,1/2+y,1/2-z
1/2-x,1/2-y,-z
1/2+x,1/2+y,1/2-z
1/2-x,1/2+y,z
1/2+x,1/2-y,1/2+z
loop_
_atom_site_type_symbol
_atom_site_label
_atom_site_fract_x
_atom_site_fract_y
_atom_site_fract_z
Si Si1 0.807140 0.447225 0.893945
Si Si2 0.597459 0.390674 0.250000
Si Si3 0.597703 0.615260 0.022748
Si Si4 0.683429 0.187993 0.111426
Si Si5 0.864295 0.246826 0.384257
Si Si6 0.598210 0.463413 0.750000
Si Si7 0.500000 0.040677 0.381496
O O1 0.785699 0.466900 0.750000
O O2 0.775890 0.378167 0.919692
O O3 0.908043 0.429800 0.888274
O O4 0.794633 0.500000 0.000000
O O5 0.500000 0.367363 0.250000
O O6 0.635727 0.374094 0.384536
O O7 0.600263 0.464238 0.250000
O O8 0.500000 0.595787 0.996263
O O9 0.597246 0.679931 0.092579
O O10 0.631320 0.563878 0.119349
O O11 0.645857 0.186334 0.250000
O O12 0.763480 0.233715 0.120325
O O13 0.622454 0.210422 0.002683
O O14 0.891131 0.271250 0.250000
O O15 0.500000 0.443656 0.750000
O O16 0.500000 0.005621 0.250000
O O17 0.500000 0.000000 0.500000
#
# Coordination Sequence:
#
# PCOD9470454 Si02
#       7
#    16   8  16  16  16   8   8
#     4   9  17  32  54  79 107 133 163 206 255 305
#     4   9  18  30  48  75 104 136 175 205 254 314
#     4  10  19  32  52  76 105 134 169 219 262 298
#     4   9  20  37  56  74  99 138 176 211 250 303
#     4  10  20  36  55  73 100 139 179 211 253 304
#     4   9  16  30  50  71 100 140 169 205 256 308
#     4   8  14  26  48  74 102 132 158 190 247 306
#
# _framework density 23.693505999999999
#
# number of rings (size 3 to 8) (size 9 to 14) (size 15 to 20)
#    0.000    2.727    0.909    0.545    1.273    2.909 
#    1.636    1.818    0.000    0.000    0.000    0.000 
#    0.000    0.000    0.000    0.000    0.000    0.000 
#
# Total GULP energy -245167.399484 kJ/mol
# GULP energy per Si atom -5571.986352 kJ/mol
# Density = 2.363958 g / cm^3
# Si number density = 23.693506 Si / 1000 Ang^3
#
#
#
# Elastic Constant Matrix: (Units=GPa)
#
#
# Indices 1 2 3 4 5 6 
#
# 1 23.4188 -11.3930 15.0361 0.0000 0.0000 0.0000
# 2 -11.3930 62.1716 48.9071 0.0000 0.0000 0.0000
# 3 15.0361 48.9071 216.0689 0.0000 0.0000 0.0000
# 4 0.0000 0.0000 0.0000 45.0901 0.0000 0.0000
# 5 0.0000 0.0000 0.0000 0.0000 27.9437 0.0000
# 6 0.0000 0.0000 0.0000 0.0000 0.0000 20.4238
#
#
#
# Elastic Compliance Matrix: (Units=1/GPa)
#
#
# Indices 1 2 3 4 5 6 
#
# 1 0.055285 0.016008 -0.007471 0.000000 0.000000 0.000000
# 2 0.016008 0.024204 -0.006592 0.000000 0.000000 0.000000
# 3 -0.007471 -0.006592 0.006640 0.000000 0.000000 0.000000
# 4 0.000000 0.000000 0.000000 0.022178 0.000000 0.000000
# 5 0.000000 0.000000 0.000000 0.000000 0.035786 0.000000
# 6 0.000000 0.000000 0.000000 0.000000 0.000000 0.048962
#
#
# Mechanical properties :
#
#
# Convention : Reuss Voigt Hill
#
# Bulk Modulus (GPa) = 11.10890 45.19552 28.15221
# Shear Modulus (GPa) = 22.81313 35.29881 29.05597
#
# Velocity S-wave (km/s) = 3.10634 3.86399 3.50569
# Velocity P-wave (km/s) = 4.19101 6.24690 5.31922
#
# Compressibility (1/GPa) = 0.09001791
#
# Stress axis : x y z
#
# Youngs Moduli (GPa) = 18.08821 41.31569 150.59721
#
# Poissons Ratio (x) = -0.66136 1.12504
# Poissons Ratio (y) = -0.28955 0.99281
# Poissons Ratio (z) = 0.13513 0.27237
#
# Static dielectric constant tensor:
#      x y z
#    x 2.159420 0.000000 0.000000 
#    y 0.000000 1.854180 0.000000 
#    z 0.000000 0.000000 1.939390 
# 
# From -- ./inp_files/8268.got.cif
#   From: 2010.05.17/outbox.cif.g08.bks.cpg/sg63_5_cif.got.tgz:8268.got - 2010.06.03 15:47:04.
