data_PCOD9470892
_publ_section_title
;
Structure prediction by ZEFSAII (Michael W. Deem and Ramdas Pophale) SiO2 
 PCOD9470892
Probable space group: C M C M
;
_chemical_formula_sum "Si O2"
_cell_formula_units_Z 80
_cell_length_a 18.202441
_cell_length_b 10.191966
_cell_length_c 20.329703
_cell_angle_alpha 90.000000
_cell_angle_beta 90.000000
_cell_angle_gamma 90.000000
_cell_volume 3771.539254
_symmetry_space_group_name_H-M "C M C M"
_symmetry_group_IT_number 63
_symmetry_cell_setting 'orthorhombic'
loop_
_space_group_symop_operation_xyz
x,y,z
-x,-y,1/2+z
x,-y,-z
-x,y,1/2-z
-x,-y,-z
x,y,1/2-z
-x,y,z
x,-y,1/2+z
1/2+x,1/2+y,z
1/2-x,1/2-y,1/2+z
1/2+x,1/2-y,-z
1/2-x,1/2+y,1/2-z
1/2-x,1/2-y,-z
1/2+x,1/2+y,1/2-z
1/2-x,1/2+y,z
1/2+x,1/2-y,1/2+z
loop_
_atom_site_type_symbol
_atom_site_label
_atom_site_fract_x
_atom_site_fract_y
_atom_site_fract_z
Si Si1 0.332407 0.749272 0.750000
Si Si2 0.419863 0.409420 0.632592
Si Si3 0.308981 0.565937 0.250000
Si Si4 0.623465 0.302107 0.112623
Si Si5 0.238654 0.379117 0.043361
Si Si6 0.583171 0.185567 0.526544
O O1 0.306666 0.594330 0.750000
O O2 0.266913 0.854798 0.750000
O O3 0.379497 0.764810 0.683387
O O4 0.500000 0.377565 0.661631
O O5 0.355821 0.392719 0.685707
O O6 0.419252 0.561419 0.612703
O O7 0.410732 0.319530 0.568583
O O8 0.708643 0.349076 0.103717
O O9 0.598593 0.217433 0.050064
O O10 0.266427 0.500000 0.000000
O O11 0.250000 0.250000 0.000000
O O12 0.151855 0.397874 0.054261
O O13 0.500000 0.135636 0.535078
#
# Coordination Sequence:
#
# PCOD9470892 Si02
#       6
#     8  16   8  16  16  16
#     4  10  22  34  54  78 108 142 180 226 274 322
#     4  10  19  33  56  83 111 143 181 227 277 326
#     4  10  21  38  54  82 113 142 182 228 275 326
#     4  10  19  34  53  80 109 141 183 229 272 321
#     4  10  20  34  55  79 107 142 180 223 271 322
#     4  10  20  33  52  79 111 144 179 222 277 334
#
# _framework density 21.211500000000001
#
# number of rings (size 3 to 8) (size 9 to 14) (size 15 to 20)
#    0.000    2.000    0.000    5.100    0.000    6.800 
#    0.000    1.500    0.000    0.000    0.000   12.600 
#    0.000    0.000    0.000    0.000    0.000    0.000 
#
# Total GULP energy -223191.319601 kJ/mol
# GULP energy per Si atom -5579.782990 kJ/mol
# Density = 2.116322 g / cm^3
# Si number density = 21.211500 Si / 1000 Ang^3
#
#
#
# Elastic Constant Matrix: (Units=GPa)
#
#
# Indices 1 2 3 4 5 6 
#
# 1 93.6358 -7.3058 7.4326 0.0000 0.0000 0.0000
# 2 -7.3058 50.0259 1.0912 0.0000 0.0000 0.0000
# 3 7.4326 1.0912 94.2652 0.0000 0.0000 0.0000
# 4 0.0000 0.0000 0.0000 16.2804 0.0000 0.0000
# 5 0.0000 0.0000 0.0000 0.0000 30.6338 0.0000
# 6 0.0000 0.0000 0.0000 0.0000 0.0000 18.9227
#
#
#
# Elastic Compliance Matrix: (Units=1/GPa)
#
#
# Indices 1 2 3 4 5 6 
#
# 1 0.010875 0.001607 -0.000876 0.000000 0.000000 0.000000
# 2 0.001607 0.020232 -0.000361 0.000000 0.000000 0.000000
# 3 -0.000876 -0.000361 0.010682 0.000000 0.000000 0.000000
# 4 0.000000 0.000000 0.000000 0.061424 0.000000 0.000000
# 5 0.000000 0.000000 0.000000 0.000000 0.032644 0.000000
# 6 0.000000 0.000000 0.000000 0.000000 0.000000 0.052846
#
#
# Mechanical properties :
#
#
# Convention : Reuss Voigt Hill
#
# Bulk Modulus (GPa) = 23.51336 26.70699 25.11017
# Shear Modulus (GPa) = 24.73556 28.94797 26.84176
#
# Velocity S-wave (km/s) = 3.41858 3.69823 3.56115
# Velocity P-wave (km/s) = 5.16638 5.55464 5.36403
#
# Compressibility (1/GPa) = 0.04252901
#
# Stress axis : x y z
#
# Youngs Moduli (GPa) = 91.95726 49.42606 93.61880
#
# Poissons Ratio (x) = -0.07944 0.08201
# Poissons Ratio (y) = -0.14780 0.03379
# Poissons Ratio (z) = 0.08056 0.01784
#
# Static dielectric constant tensor:
#      x y z
#    x 1.873260 0.000000 0.000000 
#    y 0.000000 1.740360 0.000000 
#    z 0.000000 0.000000 1.757400 
# 
# From -- ./inp_files/46835.got.cif
#   From: 2010.05.17/outbox.cif.g08.bks.cpg/sg63_24_cif.got.tgz:46835.got - 2010.06.03 15:47:04.
