data_PCOD9470245
_publ_section_title
;
Structure prediction by ZEFSAII (Michael W. Deem and Ramdas Pophale) SiO2 
 PCOD9470245
Probable space group: C M C M
;
_chemical_formula_sum "Si O2"
_cell_formula_units_Z 80
_cell_length_a 26.622115
_cell_length_b 8.463675
_cell_length_c 16.341447
_cell_angle_alpha 90.000000
_cell_angle_beta 90.000000
_cell_angle_gamma 90.000000
_cell_volume 3682.070022
_symmetry_space_group_name_H-M "C M C M"
_symmetry_group_IT_number 63
_symmetry_cell_setting 'orthorhombic'
loop_
_space_group_symop_operation_xyz
x,y,z
-x,-y,1/2+z
x,-y,-z
-x,y,1/2-z
-x,-y,-z
x,y,1/2-z
-x,y,z
x,-y,1/2+z
1/2+x,1/2+y,z
1/2-x,1/2-y,1/2+z
1/2+x,1/2-y,-z
1/2-x,1/2+y,1/2-z
1/2-x,1/2-y,-z
1/2+x,1/2+y,1/2-z
1/2-x,1/2+y,z
1/2+x,1/2-y,1/2+z
loop_
_atom_site_type_symbol
_atom_site_label
_atom_site_fract_x
_atom_site_fract_y
_atom_site_fract_z
Si Si1 0.788502 0.671615 0.436724
Si Si2 0.596483 0.170955 0.422394
Si Si3 0.112660 0.015888 0.400763
Si Si4 0.442436 0.162703 0.898833
Si Si5 0.722487 0.536169 0.842660
O O1 0.750000 0.750000 0.500000
O O2 0.846684 0.666338 0.459157
O O3 0.766575 0.509697 0.404354
O O4 0.786306 0.779643 0.355682
O O5 0.593675 0.339361 0.375119
O O6 0.560722 0.174029 0.501687
O O7 0.585126 0.004048 0.378037
O O8 0.082414 0.170573 0.372518
O O9 0.111820 0.000000 0.500000
O O10 0.170185 0.038927 0.373115
O O11 0.500000 0.154051 0.872372
O O12 0.732846 0.496427 0.750000
#
# Coordination Sequence:
#
# PCOD9470245 Si02
#       5
#    16  16  16  16  16
#     4  11  22  36  58  84 116 160 204 243 297 367
#     4   9  19  31  49  80 115 147 183 243 301 345
#     4   9  19  36  54  80 115 152 195 242 297 358
#     4  10  19  31  54  86 114 146 193 250 308 352
#     4  11  23  37  55  85 119 157 200 246 299 360
#
# _framework density 21.726911000000001
#
# number of rings (size 3 to 8) (size 9 to 14) (size 15 to 20)
#    0.000    2.000    0.000    6.000    8.400    4.400 
#    0.000    0.000    0.000    0.600    0.000    0.000 
#    0.000    7.200    0.000    0.000    0.000    0.000 
#
# Total GULP energy -222893.121227 kJ/mol
# GULP energy per Si atom -5572.328031 kJ/mol
# Density = 2.167746 g / cm^3
# Si number density = 21.726911 Si / 1000 Ang^3
#
#
#
# Elastic Constant Matrix: (Units=GPa)
#
#
# Indices 1 2 3 4 5 6 
#
# 1 97.0511 44.0484 6.5887 0.0000 0.0000 0.0000
# 2 44.0484 173.3915 7.1664 0.0000 0.0000 0.0000
# 3 6.5887 7.1664 37.5708 0.0000 0.0000 0.0000
# 4 0.0000 0.0000 0.0000 14.9602 0.0000 0.0000
# 5 0.0000 0.0000 0.0000 0.0000 5.3933 0.0000
# 6 0.0000 0.0000 0.0000 0.0000 0.0000 26.0033
#
#
#
# Elastic Compliance Matrix: (Units=1/GPa)
#
#
# Indices 1 2 3 4 5 6 
#
# 1 0.011730 -0.002918 -0.001500 0.000000 0.000000 0.000000
# 2 -0.002918 0.006539 -0.000736 0.000000 0.000000 0.000000
# 3 -0.001500 -0.000736 0.027020 0.000000 0.000000 0.000000
# 4 0.000000 0.000000 0.000000 0.066844 0.000000 0.000000
# 5 0.000000 0.000000 0.000000 0.000000 0.185415 0.000000
# 6 0.000000 0.000000 0.000000 0.000000 0.000000 0.038457
#
#
# Mechanical properties :
#
#
# Convention : Reuss Voigt Hill
#
# Bulk Modulus (GPa) = 28.58696 47.06893 37.82795
# Shear Modulus (GPa) = 13.96753 25.95203 19.95978
#
# Velocity S-wave (km/s) = 2.53823 3.45985 3.03424
# Velocity P-wave (km/s) = 4.66649 6.13773 5.45196
#
# Compressibility (1/GPa) = 0.03498098
#
# Stress axis : x y z
#
# Youngs Moduli (GPa) = 85.25114 152.92959 37.00979
#
# Poissons Ratio (x) = 0.44623 0.05553
# Poissons Ratio (y) = 0.24875 0.02722
# Poissons Ratio (z) = 0.12792 0.11249
#
# Static dielectric constant tensor:
#      x y z
#    x 1.779740 0.000000 0.000000 
#    y 0.000000 1.869860 0.000000 
#    z 0.000000 0.000000 1.773720 
# 
# From -- ./inp_files/48739.got.cif
#   From: 2010.05.17/outbox.cif.g08.bks.cpg/sg63_25_cif.got.tgz:48739.got - 2010.06.03 15:47:04.
