data_PCOD9470993
_publ_section_title
;
Structure prediction by ZEFSAII (Michael W. Deem and Ramdas Pophale) SiO2 
 PCOD9470993
Probable space group: C M C M
;
_chemical_formula_sum "Si O2"
_cell_formula_units_Z 72
_cell_length_a 12.291680
_cell_length_b 17.454346
_cell_length_c 19.681508
_cell_angle_alpha 90.000000
_cell_angle_beta 90.000000
_cell_angle_gamma 90.000000
_cell_volume 4222.534409
_symmetry_space_group_name_H-M "C M C M"
_symmetry_group_IT_number 63
_symmetry_cell_setting 'orthorhombic'
loop_
_space_group_symop_operation_xyz
x,y,z
-x,-y,1/2+z
x,-y,-z
-x,y,1/2-z
-x,-y,-z
x,y,1/2-z
-x,y,z
x,-y,1/2+z
1/2+x,1/2+y,z
1/2-x,1/2-y,1/2+z
1/2+x,1/2-y,-z
1/2-x,1/2+y,1/2-z
1/2-x,1/2-y,-z
1/2+x,1/2+y,1/2-z
1/2-x,1/2+y,z
1/2+x,1/2-y,1/2+z
loop_
_atom_site_type_symbol
_atom_site_label
_atom_site_fract_x
_atom_site_fract_y
_atom_site_fract_z
Si Si1 0.631479 0.966014 0.750000
Si Si2 0.369545 0.071278 0.623866
Si Si3 0.739787 0.500000 0.500000
Si Si4 0.631223 0.789114 0.750000
Si Si5 0.871828 0.158759 0.022222
Si Si6 0.762959 0.223974 0.613015
O O1 0.500000 0.963275 0.750000
O O2 0.667778 0.878276 0.750000
O O3 0.663674 0.014868 0.815355
O O4 0.500000 0.075384 0.620203
O O5 0.317873 0.034969 0.556960
O O6 0.318796 0.155247 0.632118
O O7 0.666394 0.429353 0.525143
O O8 0.500000 0.785871 0.750000
O O9 0.675539 0.750991 0.819254
O O10 0.804198 0.207761 0.077137
O O11 0.000000 0.166367 0.033291
O O12 0.840924 0.191569 0.947146
#
# Coordination Sequence:
#
# PCOD9470993 Si02
#       6
#     8  16   8   8  16  16
#     4   9  19  32  50  71  99 133 166 207 263 309
#     4  10  19  34  53  78 106 136 173 220 263 310
#     4  10  20  32  54  78 104 140 180 216 264 320
#     4  11  21  36  55  79 107 137 173 219 262 315
#     4  10  20  36  53  77 108 141 177 221 266 318
#     4  10  21  34  55  79 105 140 180 217 267 320
#
# _framework density 17.051372000000001
#
# number of rings (size 3 to 8) (size 9 to 14) (size 15 to 20)
#    0.000    2.000    0.000    4.000    0.000    0.000 
#    0.000    8.333    0.000    0.000    0.000    0.000 
#    0.000    0.000    0.000    0.000    0.000    0.000 
#
# Total GULP energy -200868.542059 kJ/mol
# GULP energy per Si atom -5579.681724 kJ/mol
# Density = 1.701256 g / cm^3
# Si number density = 17.051372 Si / 1000 Ang^3
#
#
#
# Elastic Constant Matrix: (Units=GPa)
#
#
# Indices 1 2 3 4 5 6 
#
# 1 99.1688 50.9159 41.6184 0.0000 0.0000 0.0000
# 2 50.9159 147.8395 52.6968 0.0000 0.0000 0.0000
# 3 41.6184 52.6968 97.8867 0.0000 0.0000 0.0000
# 4 0.0000 0.0000 0.0000 30.3092 0.0000 0.0000
# 5 0.0000 0.0000 0.0000 0.0000 67.2571 0.0000
# 6 0.0000 0.0000 0.0000 0.0000 0.0000 22.9584
#
#
#
# Elastic Compliance Matrix: (Units=1/GPa)
#
#
# Indices 1 2 3 4 5 6 
#
# 1 0.013392 -0.003196 -0.003973 0.000000 0.000000 0.000000
# 2 -0.003196 0.009133 -0.003558 0.000000 0.000000 0.000000
# 3 -0.003973 -0.003558 0.013821 0.000000 0.000000 0.000000
# 4 0.000000 0.000000 0.000000 0.032993 0.000000 0.000000
# 5 0.000000 0.000000 0.000000 0.000000 0.014868 0.000000
# 6 0.000000 0.000000 0.000000 0.000000 0.000000 0.043557
#
#
# Mechanical properties :
#
#
# Convention : Reuss Voigt Hill
#
# Bulk Modulus (GPa) = 67.15325 70.59526 68.87426
# Shear Modulus (GPa) = 32.42904 37.41586 34.92245
#
# Velocity S-wave (km/s) = 4.36574 4.68942 4.53047
# Velocity P-wave (km/s) = 8.05490 8.41500 8.23692
#
# Compressibility (1/GPa) = 0.01489131
#
# Stress axis : x y z
#
# Youngs Moduli (GPa) = 74.66997 109.49340 72.35560
#
# Poissons Ratio (x) = 0.34994 0.28750
# Poissons Ratio (y) = 0.23864 0.25743
# Poissons Ratio (z) = 0.29670 0.38956
#
# Static dielectric constant tensor:
#      x y z
#    x 1.542200 0.000000 0.000000 
#    y 0.000000 1.572440 0.000000 
#    z 0.000000 0.000000 1.621810 
# 
# From -- ./inp_files/41920.got.cif
#   From: 2010.05.17/outbox.cif.g08.bks.cpg/sg63_21_cif.got.tgz:41920.got - 2010.06.03 15:47:04.
