data_PCOD9470338
_publ_section_title
;
Structure prediction by ZEFSAII (Michael W. Deem and Ramdas Pophale) SiO2 
 PCOD9470338
Probable space group: C M C M
;
_chemical_formula_sum "Si O2"
_cell_formula_units_Z 96
_cell_length_a 8.448109
_cell_length_b 31.015408
_cell_length_c 21.417321
_cell_angle_alpha 90.000000
_cell_angle_beta 90.000000
_cell_angle_gamma 90.000000
_cell_volume 5611.799591
_symmetry_space_group_name_H-M "C M C M"
_symmetry_group_IT_number 63
_symmetry_cell_setting 'orthorhombic'
loop_
_space_group_symop_operation_xyz
x,y,z
-x,-y,1/2+z
x,-y,-z
-x,y,1/2-z
-x,-y,-z
x,y,1/2-z
-x,y,z
x,-y,1/2+z
1/2+x,1/2+y,z
1/2-x,1/2-y,1/2+z
1/2+x,1/2-y,-z
1/2-x,1/2+y,1/2-z
1/2-x,1/2-y,-z
1/2+x,1/2+y,1/2-z
1/2-x,1/2+y,z
1/2+x,1/2-y,1/2+z
loop_
_atom_site_type_symbol
_atom_site_label
_atom_site_fract_x
_atom_site_fract_y
_atom_site_fract_z
Si Si1 0.311382 0.943041 0.682145
Si Si2 0.815900 0.868075 0.990382
Si Si3 0.189116 0.716096 0.551622
Si Si4 0.314716 0.649897 0.344820
Si Si5 0.809009 0.460836 0.956568
Si Si6 0.306742 0.746312 0.317487
O O1 0.248998 0.958409 0.750000
O O2 0.500000 0.950078 0.682329
O O3 0.278019 0.891869 0.678056
O O4 0.249669 0.961571 0.615770
O O5 0.805147 0.849758 0.919821
O O6 0.738064 0.915091 0.986593
O O7 0.000000 0.872828 0.006076
O O8 0.738749 0.832208 0.033961
O O9 0.250000 0.750000 0.500000
O O10 0.248141 0.729572 0.620408
O O11 0.000000 0.719046 0.551393
O O12 0.500000 0.644416 0.327823
O O13 0.258853 0.696144 0.321417
O O14 0.000000 0.462727 0.953954
O O15 0.752571 0.500000 0.000000
O O16 0.257916 0.764166 0.250000
O O17 0.500000 0.746322 0.319214
#
# Coordination Sequence:
#
# PCOD9470338 Si02
#       6
#    16  16  16  16  16  16
#     4   9  17  28  43  67  97 123 149 189 240 290
#     4  10  19  32  50  74  98 126 165 203 243 288
#     4  11  20  32  50  72  99 131 168 205 242 285
#     4   9  16  28  45  66  93 125 159 191 231 288
#     4   9  18  33  52  73  97 126 159 196 244 296
#     4   9  17  29  45  66  94 128 166 205 241 281
#
# _framework density 17.106811
#
# number of rings (size 3 to 8) (size 9 to 14) (size 15 to 20)
#    0.000    2.500    1.667    1.500    0.000    2.000 
#    0.000    0.000    0.000    4.000    0.000    4.667 
#    0.000    0.000    0.000    0.000    0.000    0.000 
#
# Total GULP energy -267461.794666 kJ/mol
# GULP energy per Si atom -5572.120722 kJ/mol
# Density = 1.706788 g / cm^3
# Si number density = 17.106811 Si / 1000 Ang^3
#
#
#
# Elastic Constant Matrix: (Units=GPa)
#
#
# Indices 1 2 3 4 5 6 
#
# 1 12.1240 8.6964 18.0247 0.0000 0.0000 0.0000
# 2 8.6964 89.2514 77.6313 0.0000 0.0000 0.0000
# 3 18.0247 77.6313 158.5880 0.0000 0.0000 0.0000
# 4 0.0000 0.0000 0.0000 17.8189 0.0000 0.0000
# 5 0.0000 0.0000 0.0000 0.0000 9.5621 0.0000
# 6 0.0000 0.0000 0.0000 0.0000 0.0000 20.2540
#
#
#
# Elastic Compliance Matrix: (Units=1/GPa)
#
#
# Indices 1 2 3 4 5 6 
#
# 1 0.099256 0.000246 -0.011402 0.000000 0.000000 0.000000
# 2 0.000246 0.019513 -0.009580 0.000000 0.000000 0.000000
# 3 -0.011402 -0.009580 0.012291 0.000000 0.000000 0.000000
# 4 0.000000 0.000000 0.000000 0.056120 0.000000 0.000000
# 5 0.000000 0.000000 0.000000 0.000000 0.104579 0.000000
# 6 0.000000 0.000000 0.000000 0.000000 0.000000 0.049373
#
#
# Mechanical properties :
#
#
# Convention : Reuss Voigt Hill
#
# Bulk Modulus (GPa) = 11.16213 52.07424 31.61818
# Shear Modulus (GPa) = 12.12221 19.90105 16.01163
#
# Velocity S-wave (km/s) = 2.66488 3.41448 3.06270
# Velocity P-wave (km/s) = 4.00099 6.78613 5.57044
#
# Compressibility (1/GPa) = 0.08958865
#
# Stress axis : x y z
#
# Youngs Moduli (GPa) = 10.07501 51.24799 81.36019
#
# Poissons Ratio (x) = -0.01261 0.92763
# Poissons Ratio (y) = -0.00248 0.77942
# Poissons Ratio (z) = 0.11487 0.49095
#
# Static dielectric constant tensor:
#      x y z
#    x 1.595190 0.000000 0.000000 
#    y 0.000000 1.550550 0.000000 
#    z 0.000000 0.000000 1.635800 
# 
# From -- ./inp_files/60245.got.cif
#   From: 2010.05.17/outbox.cif.g08.bks.cpg/sg63_31_cif.got.tgz:60245.got - 2010.06.03 15:47:04.
