data_PCOD9470188
_publ_section_title
;
Structure prediction by ZEFSAII (Michael W. Deem and Ramdas Pophale) SiO2 
 PCOD9470188
Probable space group: C M C M
;
_chemical_formula_sum "Si O2"
_cell_formula_units_Z 64
_cell_length_a 7.543294
_cell_length_b 14.052973
_cell_length_c 25.680871
_cell_angle_alpha 90.000000
_cell_angle_beta 90.000000
_cell_angle_gamma 90.000000
_cell_volume 2722.318884
_symmetry_space_group_name_H-M "C M C M"
_symmetry_group_IT_number 63
_symmetry_cell_setting 'orthorhombic'
loop_
_space_group_symop_operation_xyz
x,y,z
-x,-y,1/2+z
x,-y,-z
-x,y,1/2-z
-x,-y,-z
x,y,1/2-z
-x,y,z
x,-y,1/2+z
1/2+x,1/2+y,z
1/2-x,1/2-y,1/2+z
1/2+x,1/2-y,-z
1/2-x,1/2+y,1/2-z
1/2-x,1/2-y,-z
1/2+x,1/2+y,1/2-z
1/2-x,1/2+y,z
1/2+x,1/2-y,1/2+z
loop_
_atom_site_type_symbol
_atom_site_label
_atom_site_fract_x
_atom_site_fract_y
_atom_site_fract_z
Si Si1 0.217349 0.784364 0.308456
Si Si2 0.706169 0.447895 0.121128
Si Si3 0.796379 0.339853 0.903321
Si Si4 0.213678 0.390050 0.011827
O O1 0.277119 0.764266 0.250000
O O2 0.268119 0.889000 0.329010
O O3 0.281679 0.712421 0.353214
O O4 0.000000 0.780946 0.308006
O O5 0.500000 0.470372 0.127200
O O6 0.798632 0.547305 0.109416
O O7 0.725104 0.378158 0.070954
O O8 0.000000 0.308315 0.907745
O O9 0.716743 0.331949 0.961735
O O10 0.000000 0.385135 0.011553
O O11 0.264966 0.500000 0.000000
#
# Coordination Sequence:
#
# PCOD9470188 Si02
#       4
#    16  16  16  16
#     4   9  19  35  52  71  98 133 170 203 241 294
#     4  10  19  31  51  78 103 127 159 203 251 292
#     4   9  18  34  54  73  97 133 169 198 238 295
#     4   8  15  29  49  73 101 130 160 196 241 295
#
# _framework density 23.509367999999998
#
# number of rings (size 3 to 8) (size 9 to 14) (size 15 to 20)
#    0.000    3.000    0.000    2.250    0.000    6.500 
#    0.000    2.500    0.000    5.250    0.000    0.000 
#    0.000    0.000    0.000    0.000    0.000    0.000 
#
# Total GULP energy -178619.685849 kJ/mol
# GULP energy per Si atom -5581.865183 kJ/mol
# Density = 2.345586 g / cm^3
# Si number density = 23.509368 Si / 1000 Ang^3
#
#
#
# Elastic Constant Matrix: (Units=GPa)
#
#
# Indices 1 2 3 4 5 6 
#
# 1 59.7807 -1.2145 4.9450 0.0000 0.0000 0.0000
# 2 -1.2145 67.1738 50.2239 0.0000 0.0000 0.0000
# 3 4.9450 50.2239 175.9128 0.0000 0.0000 0.0000
# 4 0.0000 0.0000 0.0000 35.0861 0.0000 0.0000
# 5 0.0000 0.0000 0.0000 0.0000 15.0108 0.0000
# 6 0.0000 0.0000 0.0000 0.0000 0.0000 15.7269
#
#
#
# Elastic Compliance Matrix: (Units=1/GPa)
#
#
# Indices 1 2 3 4 5 6 
#
# 1 0.016804 0.000835 -0.000711 0.000000 0.000000 0.000000
# 2 0.000835 0.018969 -0.005439 0.000000 0.000000 0.000000
# 3 -0.000711 -0.005439 0.007257 0.000000 0.000000 0.000000
# 4 0.000000 0.000000 0.000000 0.028501 0.000000 0.000000
# 5 0.000000 0.000000 0.000000 0.000000 0.066619 0.000000
# 6 0.000000 0.000000 0.000000 0.000000 0.000000 0.063585
#
#
# Mechanical properties :
#
#
# Convention : Reuss Voigt Hill
#
# Bulk Modulus (GPa) = 30.86391 45.64180 38.25286
# Shear Modulus (GPa) = 22.40501 29.75894 26.08198
#
# Velocity S-wave (km/s) = 3.09046 3.56172 3.33442
# Velocity P-wave (km/s) = 5.08836 6.03083 5.57953
#
# Compressibility (1/GPa) = 0.03240030
#
# Stress axis : x y z
#
# Youngs Moduli (GPa) = 59.51116 52.71898 137.78857
#
# Poissons Ratio (x) = -0.04403 0.09794
# Poissons Ratio (y) = -0.04971 0.74944
# Poissons Ratio (z) = 0.04230 0.28674
#
# Static dielectric constant tensor:
#      x y z
#    x 1.833780 0.000000 0.000000 
#    y 0.000000 1.922400 0.000000 
#    z 0.000000 0.000000 1.907530 
# 
# From -- ./inp_files/59057.got.cif
#   From: 2010.05.17/outbox.cif.g08.bks.cpg/sg63_30_cif.got.tgz:59057.got - 2010.06.03 15:47:04.
