data_PCOD9470021
_publ_section_title
;
Structure prediction by ZEFSAII (Michael W. Deem and Ramdas Pophale) SiO2 
 PCOD9470021
Probable space group: C M C M
;
_chemical_formula_sum "Si O2"
_cell_formula_units_Z 104
_cell_length_a 26.950860
_cell_length_b 22.259222
_cell_length_c 7.617758
_cell_angle_alpha 90.000000
_cell_angle_beta 90.000000
_cell_angle_gamma 90.000000
_cell_volume 4569.932452
_symmetry_space_group_name_H-M "C M C M"
_symmetry_group_IT_number 63
_symmetry_cell_setting 'orthorhombic'
loop_
_space_group_symop_operation_xyz
x,y,z
-x,-y,1/2+z
x,-y,-z
-x,y,1/2-z
-x,-y,-z
x,y,1/2-z
-x,y,z
x,-y,1/2+z
1/2+x,1/2+y,z
1/2-x,1/2-y,1/2+z
1/2+x,1/2-y,-z
1/2-x,1/2+y,1/2-z
1/2-x,1/2-y,-z
1/2+x,1/2+y,1/2-z
1/2-x,1/2+y,z
1/2+x,1/2-y,1/2+z
loop_
_atom_site_type_symbol
_atom_site_label
_atom_site_fract_x
_atom_site_fract_y
_atom_site_fract_z
Si Si1 0.893737 0.883648 0.465030
Si Si2 0.137920 0.569129 0.041671
Si Si3 0.293458 0.566124 0.539087
Si Si4 0.863004 0.751887 0.041132
Si Si5 0.000000 0.929410 0.460722
Si Si6 0.219921 0.663104 0.554046
Si Si7 0.055876 0.344308 0.536385
O O1 0.895084 0.883910 0.250000
O O2 0.850502 0.929451 0.519579
O O3 0.874636 0.818328 0.523713
O O4 0.948735 0.900241 0.526623
O O5 0.145151 0.579384 0.250000
O O6 0.083241 0.593256 0.994406
O O7 0.144444 0.500000 0.000000
O O8 0.177186 0.611852 0.947213
O O9 0.272424 0.500000 0.500000
O O10 0.291807 0.571653 0.750000
O O11 0.264087 0.624498 0.467170
O O12 0.868506 0.754272 0.250000
O O13 0.906057 0.707065 0.974840
O O14 0.809123 0.721970 0.011543
O O15 0.000000 0.921815 0.250000
O O16 0.000000 0.000000 0.500000
O O17 0.236302 0.678448 0.750000
O O18 0.053915 0.340298 0.750000
O O19 0.000000 0.338829 0.471040
#
# Coordination Sequence:
#
# PCOD9470021 Si02
#       7
#    16  16  16  16   8  16  16
#     4   9  19  35  56  84 111 140 179 223 270 320
#     4  10  19  31  48  71  99 133 173 220 267 318
#     4  10  21  36  54  78 109 142 180 222 265 317
#     4   9  18  33  54  78 105 136 174 219 264 317
#     4  10  20  36  60  86 114 148 183 224 273 324
#     4  10  20  34  52  74 104 141 177 219 266 316
#     4   8  15  27  45  69  95 125 164 210 257 308
#
# _framework density 22.757448
#
# number of rings (size 3 to 8) (size 9 to 14) (size 15 to 20)
#    0.000    2.615    0.000    2.769    1.077    3.385 
#    0.000    1.538    0.000   11.077    0.000    0.000 
#    0.000    0.000    0.000    0.000    0.000    0.000 
#
# Total GULP energy -290177.386859 kJ/mol
# GULP energy per Si atom -5580.334363 kJ/mol
# Density = 2.270565 g / cm^3
# Si number density = 22.757448 Si / 1000 Ang^3
#
#
#
# Elastic Constant Matrix: (Units=GPa)
#
#
# Indices 1 2 3 4 5 6 
#
# 1 161.6717 55.1751 3.4064 0.0000 0.0000 0.0000
# 2 55.1751 136.3579 -2.9902 0.0000 0.0000 0.0000
# 3 3.4064 -2.9902 48.6299 0.0000 0.0000 0.0000
# 4 0.0000 0.0000 0.0000 16.6150 0.0000 0.0000
# 5 0.0000 0.0000 0.0000 0.0000 10.0421 0.0000
# 6 0.0000 0.0000 0.0000 0.0000 0.0000 26.5484
#
#
#
# Elastic Compliance Matrix: (Units=1/GPa)
#
#
# Indices 1 2 3 4 5 6 
#
# 1 0.007199 -0.002928 -0.000684 0.000000 0.000000 0.000000
# 2 -0.002928 0.008534 0.000730 0.000000 0.000000 0.000000
# 3 -0.000684 0.000730 0.020656 0.000000 0.000000 0.000000
# 4 0.000000 0.000000 0.000000 0.060186 0.000000 0.000000
# 5 0.000000 0.000000 0.000000 0.000000 0.099581 0.000000
# 6 0.000000 0.000000 0.000000 0.000000 0.000000 0.037667
#
#
# Mechanical properties :
#
#
# Convention : Reuss Voigt Hill
#
# Bulk Modulus (GPa) = 32.65320 50.87137 41.76228
# Shear Modulus (GPa) = 20.01620 30.04563 25.03092
#
# Velocity S-wave (km/s) = 2.96893 3.63747 3.32007
# Velocity P-wave (km/s) = 5.11197 6.32802 5.75222
#
# Compressibility (1/GPa) = 0.03062487
#
# Stress axis : x y z
#
# Youngs Moduli (GPa) = 138.90709 117.17266 48.41139
#
# Poissons Ratio (x) = 0.34308 0.03313
# Poissons Ratio (y) = 0.40672 -0.03533
# Poissons Ratio (z) = 0.09506 -0.08552
#
# Static dielectric constant tensor:
#      x y z
#    x 1.861910 0.000000 0.000000 
#    y 0.000000 1.831700 0.000000 
#    z 0.000000 0.000000 1.883810 
# 
# From -- ./inp_files/12491.got.cif
#   From: 2010.05.17/outbox.cif.g08.bks.cpg/sg63_7_cif.got.tgz:12491.got - 2010.06.03 15:47:04.
