data_PCOD9470811
_publ_section_title
;
Structure prediction by ZEFSAII (Michael W. Deem and Ramdas Pophale) SiO2 
 PCOD9470811
Probable space group: C M C M
;
_chemical_formula_sum "Si O2"
_cell_formula_units_Z 96
_cell_length_a 14.849031
_cell_length_b 14.951063
_cell_length_c 20.898929
_cell_angle_alpha 90.000000
_cell_angle_beta 90.000000
_cell_angle_gamma 90.000000
_cell_volume 4639.746106
_symmetry_space_group_name_H-M "C M C M"
_symmetry_group_IT_number 63
_symmetry_cell_setting 'orthorhombic'
loop_
_space_group_symop_operation_xyz
x,y,z
-x,-y,1/2+z
x,-y,-z
-x,y,1/2-z
-x,-y,-z
x,y,1/2-z
-x,y,z
x,-y,1/2+z
1/2+x,1/2+y,z
1/2-x,1/2-y,1/2+z
1/2+x,1/2-y,-z
1/2-x,1/2+y,1/2-z
1/2-x,1/2-y,-z
1/2+x,1/2+y,1/2-z
1/2-x,1/2+y,z
1/2+x,1/2-y,1/2+z
loop_
_atom_site_type_symbol
_atom_site_label
_atom_site_fract_x
_atom_site_fract_y
_atom_site_fract_z
Si Si1 0.833117 0.974633 0.820720
Si Si2 0.643828 0.915151 0.040801
Si Si3 0.156515 0.403300 0.319936
Si Si4 0.246178 0.289523 0.823273
Si Si5 0.138644 0.931406 0.054186
Si Si6 0.399599 0.226245 0.065236
O O1 0.873117 0.985143 0.750000
O O2 0.734046 0.020693 0.818730
O O3 0.882864 0.025564 0.877154
O O4 0.816032 0.870378 0.834684
O O5 0.606361 0.914182 0.112818
O O6 0.752356 0.923491 0.048141
O O7 0.624273 0.828415 0.998572
O O8 0.612433 0.000000 0.000000
O O9 0.110983 0.406035 0.250000
O O10 0.206263 0.306999 0.325190
O O11 0.211668 0.301292 0.750000
O O12 0.170946 0.293036 0.878015
O O13 0.103568 0.831378 0.050024
O O14 0.108372 0.000000 0.000000
O O15 0.500000 0.200878 0.085845
#
# Coordination Sequence:
#
# PCOD9470811 Si02
#       6
#    16  16  16  16  16  16
#     4   9  17  31  54  83 107 131 173 230 282 326
#     4  10  20  36  58  83 110 141 189 240 288 325
#     4   9  17  31  55  82 105 134 181 238 282 318
#     4  10  19  33  54  81 110 141 184 231 278 333
#     4  10  20  34  57  78 104 143 188 237 278 315
#     4  12  24  35  52  80 117 156 183 222 285 351
#
# _framework density 20.690788000000001
#
# number of rings (size 3 to 8) (size 9 to 14) (size 15 to 20)
#    0.000    2.000    3.333    3.500    2.333    1.000 
#    0.000    0.000    0.000    0.500    0.000    0.000 
#    0.000    0.000    0.000    0.000    0.000    0.000 
#
# Total GULP energy -267913.746474 kJ/mol
# GULP energy per Si atom -5581.536385 kJ/mol
# Density = 2.064369 g / cm^3
# Si number density = 20.690788 Si / 1000 Ang^3
#
#
#
# Elastic Constant Matrix: (Units=GPa)
#
#
# Indices 1 2 3 4 5 6 
#
# 1 41.9475 -3.3742 23.5163 0.0000 0.0000 0.0000
# 2 -3.3742 84.3745 54.9518 0.0000 0.0000 0.0000
# 3 23.5163 54.9518 209.8209 0.0000 0.0000 0.0000
# 4 0.0000 0.0000 0.0000 39.0408 0.0000 0.0000
# 5 0.0000 0.0000 0.0000 0.0000 -59.5000 0.0000
# 6 0.0000 0.0000 0.0000 0.0000 0.0000 -18.3086
#
#
#
# Elastic Compliance Matrix: (Units=1/GPa)
#
#
# Indices 1 2 3 4 5 6 
#
# 1 0.026307 0.003583 -0.003887 0.000000 0.000000 0.000000
# 2 0.003583 0.014777 -0.004272 0.000000 0.000000 0.000000
# 3 -0.003887 -0.004272 0.006320 0.000000 0.000000 0.000000
# 4 0.000000 0.000000 0.000000 0.025614 0.000000 0.000000
# 5 0.000000 0.000000 0.000000 0.000000 -0.016807 0.000000
# 6 0.000000 0.000000 0.000000 0.000000 0.000000 -0.054619
#
#
# Mechanical properties :
#
#
# Convention : Reuss Voigt Hill
#
# Bulk Modulus (GPa) = 26.14108 54.03676 40.08892
# Shear Modulus (GPa) = 212.81628 9.64972 111.23300
#
# Velocity S-wave (km/s) = 10.15278 2.16192 7.34005
# Velocity P-wave (km/s) = 12.25153 5.69253 9.55262
#
# Compressibility (1/GPa) = 0.03825397
#
# Stress axis : x y z
#
# Youngs Moduli (GPa) = 38.01323 67.67099 158.21819
#
# Poissons Ratio (x) = -0.24250 0.61498
# Poissons Ratio (y) = -0.13622 0.67588
# Poissons Ratio (z) = 0.14775 0.28908
#
# Static dielectric constant tensor:
#      x y z
#    x 1.702680 0.000000 0.000000 
#    y 0.000000 1.709870 0.000000 
#    z 0.000000 0.000000 1.774830 
# 
# From -- ./inp_files/54192.got.cif
#   From: 2010.05.17/outbox.cif.g08.bks.cpg/sg63_28_cif.got.tgz:54192.got - 2010.06.03 15:47:04.
