data_PCOD9470787
_publ_section_title
;
Structure prediction by ZEFSAII (Michael W. Deem and Ramdas Pophale) SiO2 
 PCOD9470787
Probable space group: C M C M
;
_chemical_formula_sum "Si O2"
_cell_formula_units_Z 112
_cell_length_a 12.935076
_cell_length_b 14.930459
_cell_length_c 32.366677
_cell_angle_alpha 90.000000
_cell_angle_beta 90.000000
_cell_angle_gamma 90.000000
_cell_volume 6250.866990
_symmetry_space_group_name_H-M "C M C M"
_symmetry_group_IT_number 63
_symmetry_cell_setting 'orthorhombic'
loop_
_space_group_symop_operation_xyz
x,y,z
-x,-y,1/2+z
x,-y,-z
-x,y,1/2-z
-x,-y,-z
x,y,1/2-z
-x,y,z
x,-y,1/2+z
1/2+x,1/2+y,z
1/2-x,1/2-y,1/2+z
1/2+x,1/2-y,-z
1/2-x,1/2+y,1/2-z
1/2-x,1/2-y,-z
1/2+x,1/2+y,1/2-z
1/2-x,1/2+y,z
1/2+x,1/2-y,1/2+z
loop_
_atom_site_type_symbol
_atom_site_label
_atom_site_fract_x
_atom_site_fract_y
_atom_site_fract_z
Si Si1 0.622845 0.812050 0.650563
Si Si2 0.275961 0.627886 0.656746
Si Si3 0.619518 0.457665 0.416295
Si Si4 0.385956 0.178736 0.912917
Si Si5 0.233612 0.602055 0.985141
Si Si6 0.120230 0.496825 0.700961
Si Si7 0.271963 0.647427 0.075583
O O1 0.500000 0.795717 0.646330
O O2 0.679946 0.724872 0.670096
O O3 0.677931 0.828644 0.606199
O O4 0.636597 0.902960 0.676919
O O5 0.366702 0.582354 0.629621
O O6 0.192001 0.642414 0.620805
O O7 0.211842 0.565932 0.688318
O O8 0.500000 0.474882 0.425199
O O9 0.668375 0.397822 0.453526
O O10 0.687402 0.547745 0.416870
O O11 0.500000 0.156828 0.900193
O O12 0.359101 0.135966 0.956911
O O13 0.363917 0.283881 0.915337
O O14 0.218762 0.500000 0.000000
O O15 0.245124 0.656399 0.027342
O O16 0.124872 0.482055 0.750000
O O17 0.000000 0.526206 0.691636
#
# Coordination Sequence:
#
# PCOD9470787 Si02
#       7
#    16  16  16  16  16  16  16
#     4  10  21  37  60  88 117 151 192 234 282 342
#     4  10  20  37  57  85 114 149 186 236 278 336
#     4  10  19  33  54  78 109 150 192 237 287 335
#     4  10  20  32  49  73 104 142 187 233 282 332
#     4   9  20  33  46  72 106 142 193 238 281 334
#     4  10  21  39  64  90 115 148 185 225 282 346
#     4  10  19  34  51  77 108 148 191 237 280 333
#
# _framework density 17.917514000000001
#
# number of rings (size 3 to 8) (size 9 to 14) (size 15 to 20)
#    0.000    2.143    1.429    1.714    0.000    4.571 
#    0.000    0.000    0.000    1.286    0.000    0.000 
#    0.000    0.000    0.000    0.000    0.000    0.000 
#
# Total GULP energy -311965.754216 kJ/mol
# GULP energy per Si atom -5570.817040 kJ/mol
# Density = 1.787673 g / cm^3
# Si number density = 17.917514 Si / 1000 Ang^3
#
#
#
# Elastic Constant Matrix: (Units=GPa)
#
#
# Indices 1 2 3 4 5 6 
#
# 1 103.0885 34.5154 26.8568 0.0000 0.0000 0.0000
# 2 34.5154 54.7093 26.6414 0.0000 0.0000 0.0000
# 3 26.8568 26.6414 72.7111 0.0000 0.0000 0.0000
# 4 0.0000 0.0000 0.0000 11.9158 0.0000 0.0000
# 5 0.0000 0.0000 0.0000 0.0000 12.0976 0.0000
# 6 0.0000 0.0000 0.0000 0.0000 0.0000 10.4104
#
#
#
# Elastic Compliance Matrix: (Units=1/GPa)
#
#
# Indices 1 2 3 4 5 6 
#
# 1 0.012559 -0.006895 -0.002113 0.000000 0.000000 0.000000
# 2 -0.006895 0.026033 -0.006992 0.000000 0.000000 0.000000
# 3 -0.002113 -0.006992 0.017095 0.000000 0.000000 0.000000
# 4 0.000000 0.000000 0.000000 0.083922 0.000000 0.000000
# 5 0.000000 0.000000 0.000000 0.000000 0.082661 0.000000
# 6 0.000000 0.000000 0.000000 0.000000 0.000000 0.096057
#
#
# Mechanical properties :
#
#
# Convention : Reuss Voigt Hill
#
# Bulk Modulus (GPa) = 42.21375 45.17069 43.69222
# Shear Modulus (GPa) = 13.95780 16.38447 15.17114
#
# Velocity S-wave (km/s) = 2.79409 3.02725 2.91300
# Velocity P-wave (km/s) = 5.83271 6.12242 5.97932
#
# Compressibility (1/GPa) = 0.02368897
#
# Stress axis : x y z
#
# Youngs Moduli (GPa) = 79.62281 38.41289 58.49582
#
# Poissons Ratio (x) = 0.26484 0.12358
# Poissons Ratio (y) = 0.54897 0.40900
# Poissons Ratio (z) = 0.16822 0.26858
#
# Static dielectric constant tensor:
#      x y z
#    x 1.605790 0.000000 0.000000 
#    y 0.000000 1.678930 0.000000 
#    z 0.000000 0.000000 1.606940 
# 
# From -- ./inp_files/72849.got.cif
#   From: 2010.05.17/outbox.cif.g08.bks.cpg/sg63_37_cif.got.tgz:72849.got - 2010.06.03 15:47:04.
