data_PCOD9470652
_publ_section_title
;
Structure prediction by ZEFSAII (Michael W. Deem and Ramdas Pophale) SiO2 
 PCOD9470652
Probable space group: C M C M
;
_chemical_formula_sum "Si O2"
_cell_formula_units_Z 112
_cell_length_a 23.249902
_cell_length_b 13.359076
_cell_length_c 18.713110
_cell_angle_alpha 90.000000
_cell_angle_beta 90.000000
_cell_angle_gamma 90.000000
_cell_volume 5812.239715
_symmetry_space_group_name_H-M "C M C M"
_symmetry_group_IT_number 63
_symmetry_cell_setting 'orthorhombic'
loop_
_space_group_symop_operation_xyz
x,y,z
-x,-y,1/2+z
x,-y,-z
-x,y,1/2-z
-x,-y,-z
x,y,1/2-z
-x,y,z
x,-y,1/2+z
1/2+x,1/2+y,z
1/2-x,1/2-y,1/2+z
1/2+x,1/2-y,-z
1/2-x,1/2+y,1/2-z
1/2-x,1/2-y,-z
1/2+x,1/2+y,1/2-z
1/2-x,1/2+y,z
1/2+x,1/2-y,1/2+z
loop_
_atom_site_type_symbol
_atom_site_label
_atom_site_fract_x
_atom_site_fract_y
_atom_site_fract_z
Si Si1 0.432340 0.229498 0.568854
Si Si2 0.258285 0.944157 0.667630
Si Si3 0.659464 0.249502 0.331587
Si Si4 0.681160 0.334005 0.564757
Si Si5 0.069811 0.444992 0.169544
Si Si6 0.747788 0.630343 0.921757
Si Si7 0.567230 0.141557 0.416308
O O1 0.500000 0.257819 0.572922
O O2 0.386954 0.318533 0.558465
O O3 0.415637 0.163060 0.637590
O O4 0.426354 0.155049 0.500880
O O5 0.252441 0.976466 0.750000
O O6 0.303152 0.852729 0.665460
O O7 0.200413 0.896678 0.633749
O O8 0.275501 0.033278 0.614152
O O9 0.644875 0.270631 0.250000
O O10 0.699408 0.333264 0.365965
O O11 0.604032 0.227364 0.378759
O O12 0.714205 0.381277 0.496690
O O13 0.707495 0.221357 0.569089
O O14 0.092134 0.461475 0.250000
O O15 0.085798 0.535472 0.116925
O O16 0.000000 0.446539 0.172313
O O17 0.500000 0.153243 0.399756
#
# Coordination Sequence:
#
# PCOD9470652 Si02
#       7
#    16  16  16  16  16  16  16
#     4  10  20  35  55  80 111 147 187 229 275 325
#     4  10  22  38  58  83 110 143 183 232 283 327
#     4  10  20  34  54  84 113 144 186 224 273 332
#     4  10  21  37  58  84 109 144 188 224 273 333
#     4   9  18  31  47  73 109 148 184 217 262 320
#     4  10  20  38  57  80 111 145 181 232 274 326
#     4  10  19  33  51  76 114 150 183 222 267 324
#
# _framework density 19.269680999999999
#
# number of rings (size 3 to 8) (size 9 to 14) (size 15 to 20)
#    0.000    2.143    1.429    1.714    2.000    3.714 
#    0.000    0.000    0.000    2.571    0.000    0.000 
#    0.000    0.000    0.000    0.000    0.000    0.000 
#
# Total GULP energy -312516.877017 kJ/mol
# GULP energy per Si atom -5580.658518 kJ/mol
# Density = 1.922582 g / cm^3
# Si number density = 19.269681 Si / 1000 Ang^3
#
#
#
# Elastic Constant Matrix: (Units=GPa)
#
#
# Indices 1 2 3 4 5 6 
#
# 1 60.0301 4.2012 20.8072 0.0000 0.0000 0.0000
# 2 4.2012 27.1475 9.8988 0.0000 0.0000 0.0000
# 3 20.8072 9.8988 64.5894 0.0000 0.0000 0.0000
# 4 0.0000 0.0000 0.0000 28.1906 0.0000 0.0000
# 5 0.0000 0.0000 0.0000 0.0000 21.2186 0.0000
# 6 0.0000 0.0000 0.0000 0.0000 0.0000 18.1058
#
#
#
# Elastic Compliance Matrix: (Units=1/GPa)
#
#
# Indices 1 2 3 4 5 6 
#
# 1 0.018766 -0.000741 -0.005932 0.000000 0.000000 0.000000
# 2 -0.000741 0.039045 -0.005745 0.000000 0.000000 0.000000
# 3 -0.005932 -0.005745 0.018274 0.000000 0.000000 0.000000
# 4 0.000000 0.000000 0.000000 0.035473 0.000000 0.000000
# 5 0.000000 0.000000 0.000000 0.000000 0.047129 0.000000
# 6 0.000000 0.000000 0.000000 0.000000 0.000000 0.055231
#
#
# Mechanical properties :
#
#
# Convention : Reuss Voigt Hill
#
# Bulk Modulus (GPa) = 19.51264 24.62017 22.06640
# Shear Modulus (GPa) = 19.54367 21.29364 20.41865
#
# Velocity S-wave (km/s) = 3.18813 3.32781 3.25872
# Velocity P-wave (km/s) = 4.86830 5.25073 5.06313
#
# Compressibility (1/GPa) = 0.05124884
#
# Stress axis : x y z
#
# Youngs Moduli (GPa) = 53.28710 25.61123 54.72303
#
# Poissons Ratio (x) = 0.01898 0.32461
# Poissons Ratio (y) = 0.03950 0.31440
# Poissons Ratio (z) = 0.31609 0.14714
#
# Static dielectric constant tensor:
#      x y z
#    x 1.677640 0.000000 0.000000 
#    y 0.000000 1.673480 0.000000 
#    z 0.000000 0.000000 1.691280 
# 
# From -- ./inp_files/57569.got.cif
#   From: 2010.05.17/outbox.cif.g08.bks.cpg/sg63_29_cif.got.tgz:57569.got - 2010.06.03 15:47:04.
