data_PCOD9470900
_publ_section_title
;
Structure prediction by ZEFSAII (Michael W. Deem and Ramdas Pophale) SiO2 
 PCOD9470900
Probable space group: C M C M
;
_chemical_formula_sum "Si O2"
_cell_formula_units_Z 112
_cell_length_a 23.964639
_cell_length_b 14.149550
_cell_length_c 17.111840
_cell_angle_alpha 90.000000
_cell_angle_beta 90.000000
_cell_angle_gamma 90.000000
_cell_volume 5802.434280
_symmetry_space_group_name_H-M "C M C M"
_symmetry_group_IT_number 63
_symmetry_cell_setting 'orthorhombic'
loop_
_space_group_symop_operation_xyz
x,y,z
-x,-y,1/2+z
x,-y,-z
-x,y,1/2-z
-x,-y,-z
x,y,1/2-z
-x,y,z
x,-y,1/2+z
1/2+x,1/2+y,z
1/2-x,1/2-y,1/2+z
1/2+x,1/2-y,-z
1/2-x,1/2+y,1/2-z
1/2-x,1/2-y,-z
1/2+x,1/2+y,1/2-z
1/2-x,1/2+y,z
1/2+x,1/2-y,1/2+z
loop_
_atom_site_type_symbol
_atom_site_label
_atom_site_fract_x
_atom_site_fract_y
_atom_site_fract_z
Si Si1 0.564667 0.482049 0.592233
Si Si2 0.371157 0.868068 0.657652
Si Si3 0.163725 0.348656 0.156861
Si Si4 0.664369 0.630816 0.156550
Si Si5 0.731414 0.018610 0.408193
Si Si6 0.435736 0.035083 0.589225
Si Si7 0.936368 0.186513 0.656167
O O1 0.569052 0.500000 0.500000
O O2 0.500000 0.461791 0.611379
O O3 0.605588 0.400918 0.620732
O O4 0.580363 0.581229 0.632768
O O5 0.357968 0.863442 0.750000
O O6 0.419254 0.945827 0.643170
O O7 0.394501 0.767848 0.629003
O O8 0.317671 0.906946 0.612167
O O9 0.153855 0.356477 0.250000
O O10 0.176874 0.240253 0.137973
O O11 0.212391 0.421572 0.133459
O O12 0.108576 0.384540 0.111615
O O13 0.662437 0.621575 0.250000
O O14 0.711535 0.561872 0.123163
O O15 0.734129 0.000000 0.500000
O O16 0.500000 0.062934 0.599764
O O17 0.427961 0.000000 0.500000
O O18 0.937904 0.193123 0.750000
O O19 0.000000 0.202433 0.627015
#
# Coordination Sequence:
#
# PCOD9470900 Si02
#       7
#    16  16  16  16  16  16  16
#     4  10  22  39  59  85 117 151 188 234 285 337
#     4  10  19  33  56  84 113 147 188 235 287 341
#     4  10  22  39  59  85 116 151 195 243 287 340
#     4  11  24  41  61  84 112 150 194 237 285 343
#     4  11  23  40  61  85 116 150 187 237 291 343
#     4  10  20  34  54  82 117 155 191 231 284 342
#     4   9  18  33  55  84 115 150 195 241 283 333
#
# _framework density 19.302244000000002
#
# number of rings (size 3 to 8) (size 9 to 14) (size 15 to 20)
#    0.000    1.857    0.000    5.571    0.000    7.143 
#    0.000    5.714    0.000    0.000    0.000    0.000 
#    0.000    0.000    0.000    0.000    0.000    0.000 
#
# Total GULP energy -312833.762361 kJ/mol
# GULP energy per Si atom -5586.317185 kJ/mol
# Density = 1.925831 g / cm^3
# Si number density = 19.302244 Si / 1000 Ang^3
#
#
#
# Elastic Constant Matrix: (Units=GPa)
#
#
# Indices 1 2 3 4 5 6 
#
# 1 91.4705 62.2446 36.2210 0.0000 0.0000 0.0000
# 2 62.2446 109.9460 28.8218 0.0000 0.0000 0.0000
# 3 36.2210 28.8218 56.5899 0.0000 0.0000 0.0000
# 4 0.0000 0.0000 0.0000 -27.9700 0.0000 0.0000
# 5 0.0000 0.0000 0.0000 0.0000 29.5664 0.0000
# 6 0.0000 0.0000 0.0000 0.0000 0.0000 33.2642
#
#
#
# Elastic Compliance Matrix: (Units=1/GPa)
#
#
# Indices 1 2 3 4 5 6 
#
# 1 0.020767 -0.009547 -0.008430 0.000000 0.000000 0.000000
# 2 -0.009547 0.014886 -0.001471 0.000000 0.000000 0.000000
# 3 -0.008430 -0.001471 0.023816 0.000000 0.000000 0.000000
# 4 0.000000 0.000000 0.000000 -0.035753 0.000000 0.000000
# 5 0.000000 0.000000 0.000000 0.000000 0.033822 0.000000
# 6 0.000000 0.000000 0.000000 0.000000 0.000000 0.030062
#
#
# Mechanical properties :
#
#
# Convention : Reuss Voigt Hill
#
# Bulk Modulus (GPa) = 48.60674 56.95344 52.78009
# Shear Modulus (GPa) = 37.49396 15.68673 26.59035
#
# Velocity S-wave (km/s) = 4.41212 2.85386 3.71560
# Velocity P-wave (km/s) = 7.15488 6.35842 6.76838
#
# Compressibility (1/GPa) = 0.02057328
#
# Stress axis : x y z
#
# Youngs Moduli (GPa) = 48.15219 67.17699 41.98917
#
# Poissons Ratio (x) = 0.64137 0.35396
# Poissons Ratio (y) = 0.45973 0.06175
# Poissons Ratio (z) = 0.40592 0.09880
#
# Static dielectric constant tensor:
#      x y z
#    x 1.669930 0.000000 0.000000 
#    y 0.000000 1.608880 0.000000 
#    z 0.000000 0.000000 1.663490 
# 
# From -- ./inp_files/36914.got.cif
#   From: 2010.05.17/outbox.cif.g08.bks.cpg/sg63_19_cif.got.tgz:36914.got - 2010.06.03 15:47:04.
