data_PCOD9470593
_publ_section_title
;
Structure prediction by ZEFSAII (Michael W. Deem and Ramdas Pophale) SiO2 
 PCOD9470593
Probable space group: C M C M
;
_chemical_formula_sum "Si O2"
_cell_formula_units_Z 96
_cell_length_a 22.138838
_cell_length_b 12.542561
_cell_length_c 19.268808
_cell_angle_alpha 90.000000
_cell_angle_beta 90.000000
_cell_angle_gamma 90.000000
_cell_volume 5350.518790
_symmetry_space_group_name_H-M "C M C M"
_symmetry_group_IT_number 63
_symmetry_cell_setting 'orthorhombic'
loop_
_space_group_symop_operation_xyz
x,y,z
-x,-y,1/2+z
x,-y,-z
-x,y,1/2-z
-x,-y,-z
x,y,1/2-z
-x,y,z
x,-y,1/2+z
1/2+x,1/2+y,z
1/2-x,1/2-y,1/2+z
1/2+x,1/2-y,-z
1/2-x,1/2+y,1/2-z
1/2-x,1/2-y,-z
1/2+x,1/2+y,1/2-z
1/2-x,1/2+y,z
1/2+x,1/2-y,1/2+z
loop_
_atom_site_type_symbol
_atom_site_label
_atom_site_fract_x
_atom_site_fract_y
_atom_site_fract_z
Si Si1 0.762932 0.977414 0.671366
Si Si2 0.211705 0.796527 0.918996
Si Si3 0.317154 0.354469 0.064717
Si Si4 0.883117 0.464476 0.829926
Si Si5 0.125065 0.398770 0.455692
Si Si6 0.430112 0.226508 0.417697
O O1 0.776885 0.007979 0.750000
O O2 0.792150 0.864093 0.650610
O O3 0.690222 0.967722 0.665045
O O4 0.788363 0.063086 0.617507
O O5 0.280520 0.756978 0.925437
O O6 0.171940 0.690316 0.928642
O O7 0.194480 0.873219 0.983255
O O8 0.386542 0.328639 0.079144
O O9 0.899368 0.485669 0.750000
O O10 0.904737 0.549781 0.887472
O O11 0.908206 0.351373 0.856039
O O12 0.151474 0.500000 0.500000
O O13 0.082378 0.338896 0.510714
O O14 0.500000 0.251796 0.410921
#
# Coordination Sequence:
#
# PCOD9470593 Si02
#       6
#    16  16  16  16  16  16
#     4  11  22  33  51  83 118 146 181 227 283 338
#     4  10  19  32  56  80 107 140 184 229 283 332
#     4  10  20  33  56  79 106 146 183 231 276 329
#     4  10  20  32  50  79 114 147 179 222 279 339
#     4   9  19  34  55  81 109 141 178 231 282 327
#     4  10  21  37  55  79 109 146 190 231 271 327
#
# _framework density 17.942186
#
# number of rings (size 3 to 8) (size 9 to 14) (size 15 to 20)
#    0.000    2.000    3.333    0.500    2.333    5.333 
#    0.000    0.000    0.000    8.000    0.000    0.000 
#    0.000    0.000    0.000    0.000    0.000    0.000 
#
# Total GULP energy -267551.190163 kJ/mol
# GULP energy per Si atom -5573.983128 kJ/mol
# Density = 1.790135 g / cm^3
# Si number density = 17.942186 Si / 1000 Ang^3
#
#
#
# Elastic Constant Matrix: (Units=GPa)
#
#
# Indices 1 2 3 4 5 6 
#
# 1 95.0856 17.1295 13.2534 0.0000 0.0000 0.0000
# 2 17.1295 32.4362 12.2212 0.0000 0.0000 0.0000
# 3 13.2534 12.2212 95.2037 0.0000 0.0000 0.0000
# 4 0.0000 0.0000 0.0000 19.1534 0.0000 0.0000
# 5 0.0000 0.0000 0.0000 0.0000 11.8178 0.0000
# 6 0.0000 0.0000 0.0000 0.0000 0.0000 16.3728
#
#
#
# Elastic Compliance Matrix: (Units=1/GPa)
#
#
# Indices 1 2 3 4 5 6 
#
# 1 0.011692 -0.005844 -0.000877 0.000000 0.000000 0.000000
# 2 -0.005844 0.035318 -0.003720 0.000000 0.000000 0.000000
# 3 -0.000877 -0.003720 0.011103 0.000000 0.000000 0.000000
# 4 0.000000 0.000000 0.000000 0.052210 0.000000 0.000000
# 5 0.000000 0.000000 0.000000 0.000000 0.084618 0.000000
# 6 0.000000 0.000000 0.000000 0.000000 0.000000 0.061077
#
#
# Mechanical properties :
#
#
# Convention : Reuss Voigt Hill
#
# Bulk Modulus (GPa) = 26.86008 34.21487 30.53747
# Shear Modulus (GPa) = 17.28244 21.47690 19.37967
#
# Velocity S-wave (km/s) = 3.10696 3.46353 3.29008
# Velocity P-wave (km/s) = 5.27956 5.92500 5.61157
#
# Compressibility (1/GPa) = 0.03722997
#
# Stress axis : x y z
#
# Youngs Moduli (GPa) = 85.52928 28.31457 90.06170
#
# Poissons Ratio (x) = 0.16547 0.07903
# Poissons Ratio (y) = 0.49982 0.33504
# Poissons Ratio (z) = 0.07505 0.10533
#
# Static dielectric constant tensor:
#      x y z
#    x 1.613970 0.000000 0.000000 
#    y 0.000000 1.642230 0.000000 
#    z 0.000000 0.000000 1.639770 
# 
# From -- ./inp_files/48049.got.cif
#   From: 2010.05.17/outbox.cif.g08.bks.cpg/sg63_25_cif.got.tgz:48049.got - 2010.06.03 15:47:04.
