data_PCOD9470813
_publ_section_title
;
Structure prediction by ZEFSAII (Michael W. Deem and Ramdas Pophale) SiO2 
 PCOD9470813
Probable space group: C M C M
;
_chemical_formula_sum "Si O2"
_cell_formula_units_Z 96
_cell_length_a 22.362230
_cell_length_b 9.892658
_cell_length_c 25.112609
_cell_angle_alpha 90.000000
_cell_angle_beta 90.000000
_cell_angle_gamma 90.000000
_cell_volume 5555.458914
_symmetry_space_group_name_H-M "C M C M"
_symmetry_group_IT_number 63
_symmetry_cell_setting 'orthorhombic'
loop_
_space_group_symop_operation_xyz
x,y,z
-x,-y,1/2+z
x,-y,-z
-x,y,1/2-z
-x,-y,-z
x,y,1/2-z
-x,y,z
x,-y,1/2+z
1/2+x,1/2+y,z
1/2-x,1/2-y,1/2+z
1/2+x,1/2-y,-z
1/2-x,1/2+y,1/2-z
1/2-x,1/2-y,-z
1/2+x,1/2+y,1/2-z
1/2-x,1/2+y,z
1/2+x,1/2-y,1/2+z
loop_
_atom_site_type_symbol
_atom_site_label
_atom_site_fract_x
_atom_site_fract_y
_atom_site_fract_z
Si Si1 0.809328 0.552277 0.187605
Si Si2 0.567580 0.156186 0.359598
Si Si3 0.855450 0.820978 0.550765
Si Si4 0.136337 0.126537 0.925914
Si Si5 0.566989 0.928665 0.449300
Si Si6 0.241471 0.289667 0.371555
O O1 0.801070 0.527975 0.250000
O O2 0.876410 0.611320 0.177114
O O3 0.795692 0.411844 0.156064
O O4 0.763657 0.668917 0.167157
O O5 0.500000 0.171167 0.336885
O O6 0.587523 0.288452 0.393120
O O7 0.564917 0.036695 0.402856
O O8 0.854609 0.821450 0.486477
O O9 0.900496 0.705052 0.568013
O O10 0.794272 0.780168 0.579912
O O11 0.876351 0.968127 0.569247
O O12 0.198583 0.145585 0.895394
O O13 0.500000 0.890624 0.466440
O O14 0.597672 0.000000 0.500000
#
# Coordination Sequence:
#
# PCOD9470813 Si02
#       6
#    16  16  16  16  16  16
#     4  11  23  39  62  83 106 146 191 240 290 335
#     4  10  21  38  58  82 114 145 184 235 280 329
#     4  11  20  34  54  83 116 153 187 219 273 341
#     4  10  22  34  53  83 119 153 185 217 276 342
#     4  10  19  33  54  81 112 147 185 225 274 329
#     4  11  21  39  54  83 117 143 184 234 285 333
#
# _framework density 17.2803
#
# number of rings (size 3 to 8) (size 9 to 14) (size 15 to 20)
#    0.000    1.500    5.000    1.000    0.000    1.000 
#    3.000    1.667    0.000    0.000    0.000    0.000 
#    0.000    0.000    0.000    0.000    0.000    0.000 
#
# Total GULP energy -267503.234291 kJ/mol
# GULP energy per Si atom -5572.984048 kJ/mol
# Density = 1.724097 g / cm^3
# Si number density = 17.280300 Si / 1000 Ang^3
#
#
#
# Elastic Constant Matrix: (Units=GPa)
#
#
# Indices 1 2 3 4 5 6 
#
# 1 78.1878 29.4769 0.0916 0.0000 0.0000 0.0000
# 2 29.4769 102.1516 12.6346 0.0000 0.0000 0.0000
# 3 0.0916 12.6346 25.2518 0.0000 0.0000 0.0000
# 4 0.0000 0.0000 0.0000 20.1321 0.0000 0.0000
# 5 0.0000 0.0000 0.0000 0.0000 19.3438 0.0000
# 6 0.0000 0.0000 0.0000 0.0000 0.0000 45.4665
#
#
#
# Elastic Compliance Matrix: (Units=1/GPa)
#
#
# Indices 1 2 3 4 5 6 
#
# 1 0.014462 -0.004441 0.002170 0.000000 0.000000 0.000000
# 2 -0.004441 0.011799 -0.005888 0.000000 0.000000 0.000000
# 3 0.002170 -0.005888 0.042539 0.000000 0.000000 0.000000
# 4 0.000000 0.000000 0.000000 0.049672 0.000000 0.000000
# 5 0.000000 0.000000 0.000000 0.000000 0.051696 0.000000
# 6 0.000000 0.000000 0.000000 0.000000 0.000000 0.021994
#
#
# Mechanical properties :
#
#
# Convention : Reuss Voigt Hill
#
# Bulk Modulus (GPa) = 19.05435 32.22193 25.63814
# Shear Modulus (GPa) = 22.12641 27.88100 25.00371
#
# Velocity S-wave (km/s) = 3.58221 4.02114 3.80800
# Velocity P-wave (km/s) = 5.30662 6.34402 5.84836
#
# Compressibility (1/GPa) = 0.05248145
#
# Stress axis : x y z
#
# Youngs Moduli (GPa) = 69.14862 84.75160 23.50784
#
# Poissons Ratio (x) = 0.37642 -0.05101
# Poissons Ratio (y) = 0.30712 0.13840
# Poissons Ratio (z) = -0.15004 0.49898
#
# Static dielectric constant tensor:
#      x y z
#    x 1.624990 0.000000 0.000000 
#    y 0.000000 1.584840 0.000000 
#    z 0.000000 0.000000 1.584080 
# 
# From -- ./inp_files/64932.got.cif
#   From: 2010.05.17/outbox.cif.g08.bks.cpg/sg63_33_cif.got.tgz:64932.got - 2010.06.03 15:47:04.
