data_PCOD9470414
_publ_section_title
;
Structure prediction by ZEFSAII (Michael W. Deem and Ramdas Pophale) SiO2 
 PCOD9470414
Probable space group: C M C M
;
_chemical_formula_sum "Si O2"
_cell_formula_units_Z 72
_cell_length_a 28.163745
_cell_length_b 14.482873
_cell_length_c 9.156263
_cell_angle_alpha 90.000000
_cell_angle_beta 90.000000
_cell_angle_gamma 90.000000
_cell_volume 3734.765897
_symmetry_space_group_name_H-M "C M C M"
_symmetry_group_IT_number 63
_symmetry_cell_setting 'orthorhombic'
loop_
_space_group_symop_operation_xyz
x,y,z
-x,-y,1/2+z
x,-y,-z
-x,y,1/2-z
-x,-y,-z
x,y,1/2-z
-x,y,z
x,-y,1/2+z
1/2+x,1/2+y,z
1/2-x,1/2-y,1/2+z
1/2+x,1/2-y,-z
1/2-x,1/2+y,1/2-z
1/2-x,1/2-y,-z
1/2+x,1/2+y,1/2-z
1/2-x,1/2+y,z
1/2+x,1/2-y,1/2+z
loop_
_atom_site_type_symbol
_atom_site_label
_atom_site_fract_x
_atom_site_fract_y
_atom_site_fract_z
Si Si1 0.784668 0.372102 0.584809
Si Si2 0.097353 0.201006 0.425332
Si Si3 0.307304 0.346997 0.084443
Si Si4 0.000000 0.098848 0.074778
Si Si5 0.118807 0.410334 0.423287
O O1 0.788971 0.408662 0.750000
O O2 0.733702 0.391351 0.514158
O O3 0.792062 0.261154 0.593839
O O4 0.827174 0.403685 0.480945
O O5 0.105086 0.193727 0.250000
O O6 0.141418 0.153923 0.508211
O O7 0.047675 0.154285 0.464094
O O8 0.096766 0.310475 0.460682
O O9 0.308817 0.383407 0.250000
O O10 0.000000 0.088058 0.250000
O O11 0.000000 0.000000 0.000000
O O12 0.096741 0.500000 0.500000
O O13 0.117641 0.421591 0.250000
#
# Coordination Sequence:
#
# PCOD9470414 Si02
#       5
#    16  16  16   8  16
#     4   9  16  27  45  71 105 144 183 220 259 306
#     4   9  19  36  57  79 107 143 180 221 274 331
#     4   9  16  27  47  75 105 138 179 224 266 309
#     4  10  22  42  65  86 106 132 171 222 279 332
#     4  10  19  32  51  77 111 149 185 220 261 315
#
# _framework density 19.278317000000001
#
# number of rings (size 3 to 8) (size 9 to 14) (size 15 to 20)
#    0.000    2.667    0.000    2.000    0.000    7.111 
#    0.000    1.667    0.000    2.667    0.000    0.000 
#    0.000    0.000    0.000    0.000    0.000    0.000 
#
# Total GULP energy -200893.243736 kJ/mol
# GULP energy per Si atom -5580.367882 kJ/mol
# Density = 1.923444 g / cm^3
# Si number density = 19.278317 Si / 1000 Ang^3
#
#
#
# Elastic Constant Matrix: (Units=GPa)
#
#
# Indices 1 2 3 4 5 6 
#
# 1 150.8425 58.9653 55.7448 0.0000 0.0000 0.0000
# 2 58.9653 91.8224 35.8852 0.0000 0.0000 0.0000
# 3 55.7448 35.8852 73.0227 0.0000 0.0000 0.0000
# 4 0.0000 0.0000 0.0000 25.3741 0.0000 0.0000
# 5 0.0000 0.0000 0.0000 0.0000 21.2138 0.0000
# 6 0.0000 0.0000 0.0000 0.0000 0.0000 5.3054
#
#
#
# Elastic Compliance Matrix: (Units=1/GPa)
#
#
# Indices 1 2 3 4 5 6 
#
# 1 0.010543 -0.004487 -0.005843 0.000000 0.000000 0.000000
# 2 -0.004487 0.015389 -0.004137 0.000000 0.000000 0.000000
# 3 -0.005843 -0.004137 0.020188 0.000000 0.000000 0.000000
# 4 0.000000 0.000000 0.000000 0.039410 0.000000 0.000000
# 5 0.000000 0.000000 0.000000 0.000000 0.047139 0.000000
# 6 0.000000 0.000000 0.000000 0.000000 0.000000 0.188488
#
#
# Mechanical properties :
#
#
# Convention : Reuss Voigt Hill
#
# Bulk Modulus (GPa) = 58.19000 68.54202 63.36601
# Shear Modulus (GPa) = 14.05203 21.38480 17.71841
#
# Velocity S-wave (km/s) = 2.70275 3.33418 3.03493
# Velocity P-wave (km/s) = 6.32373 7.10306 6.72469
#
# Compressibility (1/GPa) = 0.01718508
#
# Stress axis : x y z
#
# Youngs Moduli (GPa) = 94.85233 64.98312 49.53341
#
# Poissons Ratio (x) = 0.29155 0.28944
# Poissons Ratio (y) = 0.42556 0.20494
# Poissons Ratio (z) = 0.55426 0.26886
#
# Static dielectric constant tensor:
#      x y z
#    x 1.629340 0.000000 0.000000 
#    y 0.000000 1.726240 0.000000 
#    z 0.000000 0.000000 1.661500 
# 
# From -- ./inp_files/11685.got.cif
#   From: 2010.05.17/outbox.cif.g08.bks.cpg/sg63_6_cif.got.tgz:11685.got - 2010.06.03 15:47:04.
