data_PCOD9470391
_publ_section_title
;
Structure prediction by ZEFSAII (Michael W. Deem and Ramdas Pophale) SiO2 
 PCOD9470391
Probable space group: C M C M
;
_chemical_formula_sum "Si O2"
_cell_formula_units_Z 112
_cell_length_a 18.738625
_cell_length_b 19.723321
_cell_length_c 18.148324
_cell_angle_alpha 90.000000
_cell_angle_beta 90.000000
_cell_angle_gamma 90.000000
_cell_volume 6707.401246
_symmetry_space_group_name_H-M "C M C M"
_symmetry_group_IT_number 63
_symmetry_cell_setting 'orthorhombic'
loop_
_space_group_symop_operation_xyz
x,y,z
-x,-y,1/2+z
x,-y,-z
-x,y,1/2-z
-x,-y,-z
x,y,1/2-z
-x,y,z
x,-y,1/2+z
1/2+x,1/2+y,z
1/2-x,1/2-y,1/2+z
1/2+x,1/2-y,-z
1/2-x,1/2+y,1/2-z
1/2-x,1/2-y,-z
1/2+x,1/2+y,1/2-z
1/2-x,1/2+y,z
1/2+x,1/2-y,1/2+z
loop_
_atom_site_type_symbol
_atom_site_label
_atom_site_fract_x
_atom_site_fract_y
_atom_site_fract_z
Si Si1 0.918956 0.201193 0.916757
Si Si2 0.651669 0.153640 0.833334
Si Si3 0.284416 0.111289 0.064879
Si Si4 0.580153 0.832510 0.015959
Si Si5 0.759791 0.517614 0.835703
Si Si6 0.656261 0.566963 0.542729
Si Si7 0.283191 0.243068 0.164420
O O1 0.899746 0.126677 0.945749
O O2 0.858079 0.222940 0.858885
O O3 0.000000 0.203986 0.888196
O O4 0.913291 0.257133 0.981710
O O5 0.625233 0.164447 0.750000
O O6 0.596055 0.167747 0.897505
O O7 0.682042 0.077481 0.839223
O O8 0.719909 0.202688 0.844975
O O9 0.269993 0.179291 0.111377
O O10 0.286255 0.048152 0.120397
O O11 0.358778 0.122795 0.022726
O O12 0.222243 0.096348 0.005856
O O13 0.500000 0.856642 0.000438
O O14 0.745119 0.503446 0.750000
O O15 0.690340 0.544038 0.879602
O O16 0.629845 0.500000 0.500000
O O17 0.285284 0.222537 0.250000
#
# Coordination Sequence:
#
# PCOD9470391 Si02
#       7
#    16  16  16  16  16  16  16
#     4  10  20  33  50  75 105 135 167 207 252 298
#     4  10  19  32  52  74 100 130 168 211 253 297
#     4  10  19  33  52  75 101 132 172 212 252 299
#     4  10  20  34  52  73 101 136 171 209 251 297
#     4  10  19  32  51  75 102 129 163 211 257 298
#     4  10  19  32  54  76 101 134 170 207 254 303
#     4  10  19  32  52  76 100 134 173 212 253 297
#
# _framework density 16.697972
#
# number of rings (size 3 to 8) (size 9 to 14) (size 15 to 20)
#    0.000    2.000    2.857    1.286    0.000    3.143 
#    0.000    1.429    0.000    2.143    0.000    0.000 
#    0.000    0.000    0.000    0.000    0.000    0.000 
#
# Total GULP energy -312387.315838 kJ/mol
# GULP energy per Si atom -5578.344926 kJ/mol
# Density = 1.665997 g / cm^3
# Si number density = 16.697972 Si / 1000 Ang^3
#
#
#
# Elastic Constant Matrix: (Units=GPa)
#
#
# Indices 1 2 3 4 5 6 
#
# 1 37.6228 21.8433 17.3686 0.0000 0.0000 0.0000
# 2 21.8433 74.6518 26.1019 0.0000 0.0000 0.0000
# 3 17.3686 26.1019 89.5112 0.0000 0.0000 0.0000
# 4 0.0000 0.0000 0.0000 18.2860 0.0000 0.0000
# 5 0.0000 0.0000 0.0000 0.0000 13.9305 0.0000
# 6 0.0000 0.0000 0.0000 0.0000 0.0000 19.1102
#
#
#
# Elastic Compliance Matrix: (Units=1/GPa)
#
#
# Indices 1 2 3 4 5 6 
#
# 1 0.033274 -0.008328 -0.004028 0.000000 0.000000 0.000000
# 2 -0.008328 0.017001 -0.003342 0.000000 0.000000 0.000000
# 3 -0.004028 -0.003342 0.012928 0.000000 0.000000 0.000000
# 4 0.000000 0.000000 0.000000 0.054687 0.000000 0.000000
# 5 0.000000 0.000000 0.000000 0.000000 0.071785 0.000000
# 6 0.000000 0.000000 0.000000 0.000000 0.000000 0.052328
#
#
# Mechanical properties :
#
#
# Convention : Reuss Voigt Hill
#
# Bulk Modulus (GPa) = 31.43872 36.93483 34.18678
# Shear Modulus (GPa) = 17.60566 19.36346 18.48456
#
# Velocity S-wave (km/s) = 3.25061 3.40903 3.33076
# Velocity P-wave (km/s) = 5.74085 6.13699 5.94222
#
# Compressibility (1/GPa) = 0.03180791
#
# Stress axis : x y z
#
# Youngs Moduli (GPa) = 30.05332 58.82141 77.35271
#
# Poissons Ratio (x) = 0.48985 0.31158
# Poissons Ratio (y) = 0.25028 0.25848
# Poissons Ratio (z) = 0.12106 0.19656
#
# Static dielectric constant tensor:
#      x y z
#    x 1.537090 0.000000 0.000000 
#    y 0.000000 1.559620 0.000000 
#    z 0.000000 0.000000 1.563570 
# 
# From -- ./inp_files/46056.got.cif
#   From: 2010.05.17/outbox.cif.g08.bks.cpg/sg63_24_cif.got.tgz:46056.got - 2010.06.03 15:47:04.
