data_PCOD9470055
_publ_section_title
;
Structure prediction by ZEFSAII (Michael W. Deem and Ramdas Pophale) SiO2 
 PCOD9470055
Probable space group: C M C M
;
_chemical_formula_sum "Si O2"
_cell_formula_units_Z 96
_cell_length_a 7.366114
_cell_length_b 20.429296
_cell_length_c 30.185953
_cell_angle_alpha 90.000000
_cell_angle_beta 90.000000
_cell_angle_gamma 90.000000
_cell_volume 4542.518747
_symmetry_space_group_name_H-M "C M C M"
_symmetry_group_IT_number 63
_symmetry_cell_setting 'orthorhombic'
loop_
_space_group_symop_operation_xyz
x,y,z
-x,-y,1/2+z
x,-y,-z
-x,y,1/2-z
-x,-y,-z
x,y,1/2-z
-x,y,z
x,-y,1/2+z
1/2+x,1/2+y,z
1/2-x,1/2-y,1/2+z
1/2+x,1/2-y,-z
1/2-x,1/2+y,1/2-z
1/2-x,1/2-y,-z
1/2+x,1/2+y,1/2-z
1/2-x,1/2+y,z
1/2+x,1/2-y,1/2+z
loop_
_atom_site_type_symbol
_atom_site_label
_atom_site_fract_x
_atom_site_fract_y
_atom_site_fract_z
Si Si1 0.213831 0.901153 0.620944
Si Si2 0.278555 0.495336 0.800954
Si Si3 0.277807 0.431369 0.978596
Si Si4 0.280671 0.747323 0.627054
Si Si5 0.716021 0.308157 0.034077
Si Si6 0.279081 0.644321 0.699516
O O1 0.285439 0.944152 0.661990
O O2 0.284818 0.919339 0.571911
O O3 0.232631 0.823671 0.629038
O O4 0.000000 0.915927 0.619146
O O5 0.221574 0.481844 0.750000
O O6 0.500000 0.493735 0.800276
O O7 0.225566 0.570040 0.812734
O O8 0.500000 0.429262 0.977568
O O9 0.225184 0.500000 0.000000
O O10 0.214718 0.373660 0.011036
O O11 0.500000 0.745519 0.626706
O O12 0.213470 0.714635 0.581534
O O13 0.217596 0.701590 0.667155
O O14 0.500000 0.316946 0.039401
O O15 0.750000 0.250000 0.000000
O O16 0.222617 0.655902 0.750000
O O17 0.500000 0.644558 0.698776
#
# Coordination Sequence:
#
# PCOD9470055 Si02
#       6
#    16  16  16  16  16  16
#     4  10  19  31  49  71  96 124 155 193 238 280
#     4   8  15  28  47  71  95 119 153 198 239 273
#     4   9  18  30  46  70  94 118 154 197 233 270
#     4  10  20  31  48  72  97 126 158 192 231 280
#     4  10  19  32  49  69  96 126 156 191 233 279
#     4   8  15  29  48  71  97 123 156 197 238 278
#
# _framework density 21.133649999999999
#
# number of rings (size 3 to 8) (size 9 to 14) (size 15 to 20)
#    0.000    2.833    1.667    1.000    2.333    0.667 
#    0.000    0.000    0.000    3.000    0.000    2.333 
#    0.000    0.000    0.000    0.000    0.000    0.000 
#
# Total GULP energy -267934.778730 kJ/mol
# GULP energy per Si atom -5581.974557 kJ/mol
# Density = 2.108555 g / cm^3
# Si number density = 21.133650 Si / 1000 Ang^3
#
#
#
# Elastic Constant Matrix: (Units=GPa)
#
#
# Indices 1 2 3 4 5 6 
#
# 1 73.6587 -7.8317 -0.3264 0.0000 0.0000 0.0000
# 2 -7.8317 216.0540 146.9942 0.0000 0.0000 0.0000
# 3 -0.3264 146.9942 190.7280 0.0000 0.0000 0.0000
# 4 0.0000 0.0000 0.0000 47.2855 0.0000 0.0000
# 5 0.0000 0.0000 0.0000 0.0000 -2.7545 0.0000
# 6 0.0000 0.0000 0.0000 0.0000 0.0000 11.9643
#
#
#
# Elastic Compliance Matrix: (Units=1/GPa)
#
#
# Indices 1 2 3 4 5 6 
#
# 1 0.013680 0.001009 -0.000754 0.000000 0.000000 0.000000
# 2 0.001009 0.009805 -0.007555 0.000000 0.000000 0.000000
# 3 -0.000754 -0.007555 0.011065 0.000000 0.000000 0.000000
# 4 0.000000 0.000000 0.000000 0.021148 0.000000 0.000000
# 5 0.000000 0.000000 0.000000 0.000000 -0.363045 0.000000
# 6 0.000000 0.000000 0.000000 0.000000 0.000000 0.083582
#
#
# Mechanical properties :
#
#
# Convention : Reuss Voigt Hill
#
# Bulk Modulus (GPa) = 50.12757 84.23476 67.18117
# Shear Modulus (GPa) = -24.68960 34.07270 4.69155
#
# Velocity S-wave (km/s) = -3.42169 4.01964 1.49156
# Velocity P-wave (km/s) = 2.85661 7.84143 5.90119
#
# Compressibility (1/GPa) = 0.01994910
#
# Stress axis : x y z
#
# Youngs Moduli (GPa) = 73.09902 101.98541 90.37826
#
# Poissons Ratio (x) = -0.10291 0.06817
# Poissons Ratio (y) = -0.07376 0.68283
# Poissons Ratio (z) = 0.05514 0.77052
#
# Static dielectric constant tensor:
#      x y z
#    x 1.848380 0.000000 0.000000 
#    y 0.000000 1.721110 0.000000 
#    z 0.000000 0.000000 1.722030 
# 
# From -- ./inp_files/61446.got.cif
#   From: 2010.05.17/outbox.cif.g08.bks.cpg/sg63_31_cif.got.tgz:61446.got - 2010.06.03 15:47:04.
