data_PCOD9470215
_publ_section_title
;
Structure prediction by ZEFSAII (Michael W. Deem and Ramdas Pophale) SiO2 
 PCOD9470215
Probable space group: C M C M
;
_chemical_formula_sum "Si O2"
_cell_formula_units_Z 96
_cell_length_a 23.409408
_cell_length_b 15.508474
_cell_length_c 14.067465
_cell_angle_alpha 90.000000
_cell_angle_beta 90.000000
_cell_angle_gamma 90.000000
_cell_volume 5107.111511
_symmetry_space_group_name_H-M "C M C M"
_symmetry_group_IT_number 63
_symmetry_cell_setting 'orthorhombic'
loop_
_space_group_symop_operation_xyz
x,y,z
-x,-y,1/2+z
x,-y,-z
-x,y,1/2-z
-x,-y,-z
x,y,1/2-z
-x,y,z
x,-y,1/2+z
1/2+x,1/2+y,z
1/2-x,1/2-y,1/2+z
1/2+x,1/2-y,-z
1/2-x,1/2+y,1/2-z
1/2-x,1/2-y,-z
1/2+x,1/2+y,1/2-z
1/2-x,1/2+y,z
1/2+x,1/2-y,1/2+z
loop_
_atom_site_type_symbol
_atom_site_label
_atom_site_fract_x
_atom_site_fract_y
_atom_site_fract_z
Si Si1 0.500000 0.050176 0.101270
Si Si2 0.000000 0.245774 0.865045
Si Si3 0.678717 0.714265 0.363846
Si Si4 0.124244 0.440274 0.907949
Si Si5 0.883956 0.761804 0.456852
Si Si6 0.253468 0.543006 0.358691
Si Si7 0.725203 0.647508 0.634971
O O1 0.500000 0.154254 0.100438
O O2 0.563949 0.032398 0.141213
O O3 0.500000 0.000000 0.000000
O O4 0.942512 0.206605 0.909089
O O5 0.000000 0.244294 0.750000
O O6 0.668147 0.713680 0.250000
O O7 0.623697 0.720218 0.431150
O O8 0.715568 0.629725 0.392782
O O9 0.718525 0.796551 0.387277
O O10 0.119461 0.340416 0.937470
O O11 0.185010 0.448503 0.857563
O O12 0.128841 0.500000 0.000000
O O13 0.830108 0.806182 0.406445
O O14 0.273258 0.536970 0.250000
O O15 0.268519 0.450159 0.401873
O O16 0.721146 0.648092 0.750000
#
# Coordination Sequence:
#
# PCOD9470215 Si02
#       7
#     8   8  16  16  16  16  16
#     4   8  18  34  50  76 112 154 188 228 278 337
#     4  10  22  38  61  89 112 146 199 247 291 344
#     4  10  21  36  53  80 117 153 193 240 292 351
#     4  10  19  31  52  76 110 149 192 229 278 344
#     4  11  21  36  58  82 114 153 190 241 297 342
#     4  10  21  33  50  80 114 148 189 239 292 353
#     4  10  20  34  55  84 116 150 191 241 295 347
#
# _framework density 18.797319000000002
#
# number of rings (size 3 to 8) (size 9 to 14) (size 15 to 20)
#    0.000    2.000    1.667    2.000    2.333    2.667 
#    0.000    0.417    0.000   10.000    0.000    3.500 
#    0.000    0.000    0.000    0.000    0.000    0.000 
#
# Total GULP energy -267458.796412 kJ/mol
# GULP energy per Si atom -5572.058259 kJ/mol
# Density = 1.875454 g / cm^3
# Si number density = 18.797319 Si / 1000 Ang^3
#
#
#
# Elastic Constant Matrix: (Units=GPa)
#
#
# Indices 1 2 3 4 5 6 
#
# 1 105.1110 23.6246 48.2184 0.0000 0.0000 0.0000
# 2 23.6246 94.8400 30.2996 0.0000 0.0000 0.0000
# 3 48.2184 30.2996 85.0399 0.0000 0.0000 0.0000
# 4 0.0000 0.0000 0.0000 4.5567 0.0000 0.0000
# 5 0.0000 0.0000 0.0000 0.0000 17.0997 0.0000
# 6 0.0000 0.0000 0.0000 0.0000 0.0000 30.8149
#
#
#
# Elastic Compliance Matrix: (Units=1/GPa)
#
#
# Indices 1 2 3 4 5 6 
#
# 1 0.012941 -0.000992 -0.006984 0.000000 0.000000 0.000000
# 2 -0.000992 0.011975 -0.003704 0.000000 0.000000 0.000000
# 3 -0.006984 -0.003704 0.017039 0.000000 0.000000 0.000000
# 4 0.000000 0.000000 0.000000 0.219458 0.000000 0.000000
# 5 0.000000 0.000000 0.000000 0.000000 0.058481 0.000000
# 6 0.000000 0.000000 0.000000 0.000000 0.000000 0.032452
#
#
# Mechanical properties :
#
#
# Convention : Reuss Voigt Hill
#
# Bulk Modulus (GPa) = 53.78121 54.36399 54.07260
# Shear Modulus (GPa) = 13.09237 22.68415 17.88826
#
# Velocity S-wave (km/s) = 2.64200 3.47764 3.08821
# Velocity P-wave (km/s) = 6.16280 6.71634 6.44551
#
# Compressibility (1/GPa) = 0.01859385
#
# Stress axis : x y z
#
# Youngs Moduli (GPa) = 77.27655 83.51033 58.68963
#
# Poissons Ratio (x) = 0.08286 0.40988
# Poissons Ratio (y) = 0.07668 0.21738
# Poissons Ratio (z) = 0.53969 0.30931
#
# Static dielectric constant tensor:
#      x y z
#    x 1.674120 0.000000 0.000000 
#    y 0.000000 1.663540 0.000000 
#    z 0.000000 0.000000 1.680170 
# 
# From -- ./inp_files/35403.got.cif
#   From: 2010.05.17/outbox.cif.g08.bks.cpg/sg63_18_cif.got.tgz:35403.got - 2010.06.03 15:47:04.
