data_PCOD9470111
_publ_section_title
;
Structure prediction by ZEFSAII (Michael W. Deem and Ramdas Pophale) SiO2 
 PCOD9470111
Probable space group: C M C M
;
_chemical_formula_sum "Si O2"
_cell_formula_units_Z 96
_cell_length_a 8.117611
_cell_length_b 21.338527
_cell_length_c 25.868443
_cell_angle_alpha 90.000000
_cell_angle_beta 90.000000
_cell_angle_gamma 90.000000
_cell_volume 4480.876377
_symmetry_space_group_name_H-M "C M C M"
_symmetry_group_IT_number 63
_symmetry_cell_setting 'orthorhombic'
loop_
_space_group_symop_operation_xyz
x,y,z
-x,-y,1/2+z
x,-y,-z
-x,y,1/2-z
-x,-y,-z
x,y,1/2-z
-x,y,z
x,-y,1/2+z
1/2+x,1/2+y,z
1/2-x,1/2-y,1/2+z
1/2+x,1/2-y,-z
1/2-x,1/2+y,1/2-z
1/2-x,1/2-y,-z
1/2+x,1/2+y,1/2-z
1/2-x,1/2+y,z
1/2+x,1/2-y,1/2+z
loop_
_atom_site_type_symbol
_atom_site_label
_atom_site_fract_x
_atom_site_fract_y
_atom_site_fract_z
Si Si1 0.693772 0.340224 0.382299
Si Si2 0.298759 0.549335 0.692448
Si Si3 0.184213 0.673220 0.503463
Si Si4 0.187778 0.462054 0.952264
Si Si5 0.187837 0.077691 0.348230
Si Si6 0.693338 0.706727 0.394153
O O1 0.500000 0.335509 0.372174
O O2 0.757616 0.400712 0.350899
O O3 0.720935 0.343772 0.444059
O O4 0.772528 0.273157 0.367559
O O5 0.259397 0.572528 0.750000
O O6 0.500000 0.545546 0.688237
O O7 0.236813 0.477356 0.686812
O O8 0.500000 0.806559 0.481831
O O9 0.172773 0.607466 0.473689
O O10 0.245573 0.713747 0.454052
O O11 0.303196 0.458441 0.903127
O O12 0.000000 0.484617 0.939843
O O13 0.256805 0.500000 0.000000
O O14 0.262770 0.146240 0.362390
O O15 0.000000 0.088523 0.330737
O O16 0.500000 0.693958 0.398216
#
# Coordination Sequence:
#
# PCOD9470111 Si02
#       6
#    16  16  16  16  16  16
#     4  11  21  33  53  79 107 141 178 217 261 309
#     4   9  19  37  59  80 101 130 174 224 269 313
#     4  10  19  31  49  75 109 146 179 211 251 306
#     4   9  17  28  44  70 104 138 167 200 250 306
#     4   9  18  33  54  76  97 128 170 213 254 297
#     4  10  20  34  52  78 112 143 173 211 256 312
#
# _framework density 21.424381
#
# number of rings (size 3 to 8) (size 9 to 14) (size 15 to 20)
#    0.000    2.333    0.000    3.000    0.000    1.667 
#    0.000    1.667    0.000    5.500    0.000    0.000 
#    0.000    0.000    0.000    0.000    0.000    0.000 
#
# Total GULP energy -267213.874588 kJ/mol
# GULP energy per Si atom -5566.955721 kJ/mol
# Density = 2.137562 g / cm^3
# Si number density = 21.424381 Si / 1000 Ang^3
#
#
#
# Elastic Constant Matrix: (Units=GPa)
#
#
# Indices 1 2 3 4 5 6 
#
# 1 10.4068 -7.5371 -2.4209 0.0000 0.0000 0.0000
# 2 -7.5371 103.0096 50.2876 0.0000 0.0000 0.0000
# 3 -2.4209 50.2876 66.7260 0.0000 0.0000 0.0000
# 4 0.0000 0.0000 0.0000 25.0311 0.0000 0.0000
# 5 0.0000 0.0000 0.0000 0.0000 -4.3183 0.0000
# 6 0.0000 0.0000 0.0000 0.0000 0.0000 18.7475
#
#
#
# Elastic Compliance Matrix: (Units=1/GPa)
#
#
# Indices 1 2 3 4 5 6 
#
# 1 0.101856 0.008936 -0.003039 0.000000 0.000000 0.000000
# 2 0.008936 0.016142 -0.011841 0.000000 0.000000 0.000000
# 3 -0.003039 -0.011841 0.023801 0.000000 0.000000 0.000000
# 4 0.000000 0.000000 0.000000 0.039950 0.000000 0.000000
# 5 0.000000 0.000000 0.000000 0.000000 -0.231571 0.000000
# 6 0.000000 0.000000 0.000000 0.000000 0.000000 0.053340
#
#
# Mechanical properties :
#
#
# Convention : Reuss Voigt Hill
#
# Bulk Modulus (GPa) = 7.69764 28.97797 18.33781
# Shear Modulus (GPa) = 85.16267 17.21291 51.18779
#
# Velocity S-wave (km/s) = 6.31163 2.83755 4.89328
# Velocity P-wave (km/s) = 7.53102 4.92856 6.36423
#
# Compressibility (1/GPa) = 0.12990998
#
# Stress axis : x y z
#
# Youngs Moduli (GPa) = 9.81780 61.94831 42.01574
#
# Poissons Ratio (x) = -0.55360 0.12770
# Poissons Ratio (y) = -0.08774 0.49753
# Poissons Ratio (z) = 0.02984 0.73356
#
# Static dielectric constant tensor:
#      x y z
#    x 1.840150 0.000000 0.000000 
#    y 0.000000 1.938500 0.000000 
#    z 0.000000 0.000000 1.784020 
# 
# From -- ./inp_files/59964.got.cif
#   From: 2010.05.17/outbox.cif.g08.bks.cpg/sg63_30_cif.got.tgz:59964.got - 2010.06.03 15:47:04.
