data_PCOD9470596
_publ_section_title
;
Structure prediction by ZEFSAII (Michael W. Deem and Ramdas Pophale) SiO2 
 PCOD9470596
Probable space group: C M C M
;
_chemical_formula_sum "Si O2"
_cell_formula_units_Z 96
_cell_length_a 20.501503
_cell_length_b 29.833713
_cell_length_c 8.471545
_cell_angle_alpha 90.000000
_cell_angle_beta 90.000000
_cell_angle_gamma 90.000000
_cell_volume 5181.501530
_symmetry_space_group_name_H-M "C M C M"
_symmetry_group_IT_number 63
_symmetry_cell_setting 'orthorhombic'
loop_
_space_group_symop_operation_xyz
x,y,z
-x,-y,1/2+z
x,-y,-z
-x,y,1/2-z
-x,-y,-z
x,y,1/2-z
-x,y,z
x,-y,1/2+z
1/2+x,1/2+y,z
1/2-x,1/2-y,1/2+z
1/2+x,1/2-y,-z
1/2-x,1/2+y,1/2-z
1/2-x,1/2-y,-z
1/2+x,1/2+y,1/2-z
1/2-x,1/2+y,z
1/2+x,1/2-y,1/2+z
loop_
_atom_site_type_symbol
_atom_site_label
_atom_site_fract_x
_atom_site_fract_y
_atom_site_fract_z
Si Si1 0.157996 0.210698 0.439532
Si Si2 0.575808 0.624181 0.058545
Si Si3 0.308701 0.896552 0.435083
Si Si4 0.192792 0.699808 0.063724
Si Si5 0.072045 0.550385 0.062285
Si Si6 0.322677 0.551256 0.939549
O O1 0.157955 0.208543 0.250000
O O2 0.110925 0.170655 0.494669
O O3 0.146903 0.262080 0.489378
O O4 0.232231 0.202883 0.497769
O O5 0.577767 0.623419 0.250000
O O6 0.500000 0.622853 0.010090
O O7 0.617158 0.581834 0.997578
O O8 0.299941 0.886661 0.250000
O O9 0.324068 0.850914 0.525970
O O10 0.370786 0.927052 0.465596
O O11 0.243434 0.922544 0.491182
O O12 0.193917 0.707663 0.250000
O O13 0.085833 0.551226 0.250000
O O14 0.000000 0.570868 0.037884
O O15 0.068916 0.500000 0.000000
O O16 0.322732 0.549807 0.750000
O O17 0.324303 0.500000 0.000000
#
# Coordination Sequence:
#
# PCOD9470596 Si02
#       6
#    16  16  16  16  16  16
#     4   9  18  34  55  82 112 144 183 229 279 337
#     4  10  21  39  62  85 113 151 193 239 294 350
#     4  11  22  36  57  86 116 151 191 236 286 339
#     4  10  19  32  56  84 112 146 183 230 281 332
#     4  10  21  37  57  81 111 148 188 229 278 338
#     4  11  24  39  58  84 115 150 194 244 292 343
#
# _framework density 18.527448
#
# number of rings (size 3 to 8) (size 9 to 14) (size 15 to 20)
#    0.000    1.833    1.667    2.500    0.000    6.333 
#    0.000    0.833    0.000    3.000    0.000    0.000 
#    0.000    0.000    0.000    0.000    0.000    0.000 
#
# Total GULP energy -267704.056730 kJ/mol
# GULP energy per Si atom -5577.167849 kJ/mol
# Density = 1.848528 g / cm^3
# Si number density = 18.527448 Si / 1000 Ang^3
#
#
#
# Elastic Constant Matrix: (Units=GPa)
#
#
# Indices 1 2 3 4 5 6 
#
# 1 74.2797 42.7771 6.4788 0.0000 0.0000 0.0000
# 2 42.7771 128.5376 4.5641 0.0000 0.0000 0.0000
# 3 6.4788 4.5641 17.4318 0.0000 0.0000 0.0000
# 4 0.0000 0.0000 0.0000 26.2167 0.0000 0.0000
# 5 0.0000 0.0000 0.0000 0.0000 10.5450 0.0000
# 6 0.0000 0.0000 0.0000 0.0000 0.0000 35.3070
#
#
#
# Elastic Compliance Matrix: (Units=1/GPa)
#
#
# Indices 1 2 3 4 5 6 
#
# 1 0.017059 -0.005503 -0.004899 0.000000 0.000000 0.000000
# 2 -0.005503 0.009628 -0.000475 0.000000 0.000000 0.000000
# 3 -0.004899 -0.000475 0.059312 0.000000 0.000000 0.000000
# 4 0.000000 0.000000 0.000000 0.038144 0.000000 0.000000
# 5 0.000000 0.000000 0.000000 0.000000 0.094832 0.000000
# 6 0.000000 0.000000 0.000000 0.000000 0.000000 0.028323
#
#
# Mechanical properties :
#
#
# Convention : Reuss Voigt Hill
#
# Bulk Modulus (GPa) = 15.56593 36.43213 25.99903
# Shear Modulus (GPa) = 17.21356 25.50901 21.36128
#
# Velocity S-wave (km/s) = 3.05140 3.71458 3.39920
# Velocity P-wave (km/s) = 4.56448 6.17285 5.42856
#
# Compressibility (1/GPa) = 0.06424288
#
# Stress axis : x y z
#
# Youngs Moduli (GPa) = 58.61902 103.86144 16.85999
#
# Poissons Ratio (x) = 0.57159 0.08261
# Poissons Ratio (y) = 0.32260 0.00802
# Poissons Ratio (z) = 0.28720 0.04939
#
# Static dielectric constant tensor:
#      x y z
#    x 1.647780 0.000000 0.000000 
#    y 0.000000 1.640870 0.000000 
#    z 0.000000 0.000000 1.641020 
# 
# From -- ./inp_files/8586.got.cif
#   From: 2010.05.17/outbox.cif.g08.bks.cpg/sg63_5_cif.got.tgz:8586.got - 2010.06.03 15:47:04.
