data_PCOD9470690
_publ_section_title
;
Structure prediction by ZEFSAII (Michael W. Deem and Ramdas Pophale) SiO2 
 PCOD9470690
Probable space group: C M C M
;
_chemical_formula_sum "Si O2"
_cell_formula_units_Z 96
_cell_length_a 23.260901
_cell_length_b 26.391846
_cell_length_c 8.740512
_cell_angle_alpha 90.000000
_cell_angle_beta 90.000000
_cell_angle_gamma 90.000000
_cell_volume 5365.783859
_symmetry_space_group_name_H-M "C M C M"
_symmetry_group_IT_number 63
_symmetry_cell_setting 'orthorhombic'
loop_
_space_group_symop_operation_xyz
x,y,z
-x,-y,1/2+z
x,-y,-z
-x,y,1/2-z
-x,-y,-z
x,y,1/2-z
-x,y,z
x,-y,1/2+z
1/2+x,1/2+y,z
1/2-x,1/2-y,1/2+z
1/2+x,1/2-y,-z
1/2-x,1/2+y,1/2-z
1/2-x,1/2-y,-z
1/2+x,1/2+y,1/2-z
1/2-x,1/2+y,z
1/2+x,1/2-y,1/2+z
loop_
_atom_site_type_symbol
_atom_site_label
_atom_site_fract_x
_atom_site_fract_y
_atom_site_fract_z
Si Si1 0.638560 0.850306 0.923286
Si Si2 0.764217 0.803002 0.575532
Si Si3 0.067008 0.257290 0.067474
Si Si4 0.672888 0.555181 0.564983
Si Si5 0.193072 0.444827 0.066969
Si Si6 0.624041 0.657406 0.570117
O O1 0.617780 0.858608 0.750000
O O2 0.704261 0.831481 0.916683
O O3 0.602706 0.804351 0.997750
O O4 0.647152 0.903090 0.011690
O O5 0.787171 0.798700 0.750000
O O6 0.750000 0.750000 0.500000
O O7 0.810315 0.827211 0.463379
O O8 0.073669 0.258708 0.250000
O O9 0.000000 0.263346 0.028355
O O10 0.088002 0.202056 0.009247
O O11 0.658555 0.500000 0.500000
O O12 0.672345 0.554307 0.750000
O O13 0.739876 0.565824 0.518109
O O14 0.627578 0.598827 0.515906
O O15 0.193171 0.446109 0.250000
O O16 0.179304 0.500000 0.000000
O O17 0.610830 0.658499 0.750000
#
# Coordination Sequence:
#
# PCOD9470690 Si02
#       6
#    16  16  16  16  16  16
#     4  11  22  35  55  82 112 148 185 224 275 331
#     4  11  21  31  49  79 113 146 180 219 271 334
#     4  11  25  42  59  80 106 142 187 235 285 332
#     4   9  19  32  50  78 113 149 182 217 264 320
#     4  10  19  33  52  79 117 153 186 223 266 324
#     4  11  21  35  55  81 112 147 183 224 276 331
#
# _framework density 17.891141000000001
#
# number of rings (size 3 to 8) (size 9 to 14) (size 15 to 20)
#    0.000    1.500    3.333    2.500    0.000    4.667 
#    0.000    0.000    0.000    1.000    0.000    0.000 
#    0.000    0.000    0.000    0.000    0.000    0.000 
#
# Total GULP energy -267499.241473 kJ/mol
# GULP energy per Si atom -5572.900864 kJ/mol
# Density = 1.785042 g / cm^3
# Si number density = 17.891141 Si / 1000 Ang^3
#
#
#
# Elastic Constant Matrix: (Units=GPa)
#
#
# Indices 1 2 3 4 5 6 
#
# 1 54.4246 26.0692 20.3400 0.0000 0.0000 0.0000
# 2 26.0692 134.5681 41.6890 0.0000 0.0000 0.0000
# 3 20.3400 41.6890 48.9263 0.0000 0.0000 0.0000
# 4 0.0000 0.0000 0.0000 28.4076 0.0000 0.0000
# 5 0.0000 0.0000 0.0000 0.0000 18.8532 0.0000
# 6 0.0000 0.0000 0.0000 0.0000 0.0000 7.6629
#
#
#
# Elastic Compliance Matrix: (Units=1/GPa)
#
#
# Indices 1 2 3 4 5 6 
#
# 1 0.022125 -0.001952 -0.007535 0.000000 0.000000 0.000000
# 2 -0.001952 0.010269 -0.007938 0.000000 0.000000 0.000000
# 3 -0.007535 -0.007938 0.030335 0.000000 0.000000 0.000000
# 4 0.000000 0.000000 0.000000 0.035202 0.000000 0.000000
# 5 0.000000 0.000000 0.000000 0.000000 0.053041 0.000000
# 6 0.000000 0.000000 0.000000 0.000000 0.000000 0.130500
#
#
# Mechanical properties :
#
#
# Convention : Reuss Voigt Hill
#
# Bulk Modulus (GPa) = 35.86915 46.01282 40.94099
# Shear Modulus (GPa) = 15.35559 20.97278 18.16419
#
# Velocity S-wave (km/s) = 2.93282 3.42752 3.18977
# Velocity P-wave (km/s) = 5.61789 6.43723 6.04146
#
# Compressibility (1/GPa) = 0.02787911
#
# Stress axis : x y z
#
# Youngs Moduli (GPa) = 45.19785 97.38485 32.96493
#
# Poissons Ratio (x) = 0.19008 0.24838
# Poissons Ratio (y) = 0.08822 0.26168
# Poissons Ratio (z) = 0.34056 0.77306
#
# Static dielectric constant tensor:
#      x y z
#    x 1.603850 0.000000 0.000000 
#    y 0.000000 1.667180 0.000000 
#    z 0.000000 0.000000 1.810630 
# 
# From -- ./inp_files/8557.got.cif
#   From: 2010.05.17/outbox.cif.g08.bks.cpg/sg63_5_cif.got.tgz:8557.got - 2010.06.03 15:47:04.
