data_PCOD9470314
_publ_section_title
;
Structure prediction by ZEFSAII (Michael W. Deem and Ramdas Pophale) SiO2 
 PCOD9470314
Probable space group: C M C M
;
_chemical_formula_sum "Si O2"
_cell_formula_units_Z 96
_cell_length_a 7.855291
_cell_length_b 31.516264
_cell_length_c 21.319895
_cell_angle_alpha 90.000000
_cell_angle_beta 90.000000
_cell_angle_gamma 90.000000
_cell_volume 5278.154145
_symmetry_space_group_name_H-M "C M C M"
_symmetry_group_IT_number 63
_symmetry_cell_setting 'orthorhombic'
loop_
_space_group_symop_operation_xyz
x,y,z
-x,-y,1/2+z
x,-y,-z
-x,y,1/2-z
-x,-y,-z
x,y,1/2-z
-x,y,z
x,-y,1/2+z
1/2+x,1/2+y,z
1/2-x,1/2-y,1/2+z
1/2+x,1/2-y,-z
1/2-x,1/2+y,1/2-z
1/2-x,1/2-y,-z
1/2+x,1/2+y,1/2-z
1/2-x,1/2+y,z
1/2+x,1/2-y,1/2+z
loop_
_atom_site_type_symbol
_atom_site_label
_atom_site_fract_x
_atom_site_fract_y
_atom_site_fract_z
Si Si1 0.302003 0.881076 0.995111
Si Si2 0.203284 0.534520 0.949474
Si Si3 0.297932 0.789812 0.957571
Si Si4 0.795521 0.191903 0.182084
Si Si5 0.794442 0.994732 0.817777
Si Si6 0.206587 0.098356 0.357046
O O1 0.500000 0.875327 0.012996
O O2 0.224835 0.834004 0.986354
O O3 0.288290 0.900836 0.925637
O O4 0.226556 0.918024 0.038661
O O5 0.232460 0.518616 0.879341
O O6 0.000000 0.537063 0.960385
O O7 0.271071 0.500000 0.000000
O O8 0.500000 0.794051 0.958646
O O9 0.251499 0.786484 0.883912
O O10 0.250000 0.750000 0.000000
O O11 0.732941 0.208312 0.250000
O O12 0.743201 0.142424 0.175487
O O13 0.000000 0.192721 0.184053
O O14 0.735864 0.011218 0.750000
O O15 0.000000 0.996292 0.818836
O O16 0.745996 0.945149 0.823663
O O17 0.000000 0.098943 0.363143
#
# Coordination Sequence:
#
# PCOD9470314 Si02
#       6
#    16  16  16  16  16  16
#     4   9  18  32  49  71  97 126 161 203 244 285
#     4  10  19  32  50  70  96 129 167 203 237 284
#     4  10  20  34  53  75 101 129 163 206 252 299
#     4   9  17  30  49  73 102 133 162 195 241 298
#     4  10  20  31  44  67 100 134 168 206 245 286
#     4   9  16  27  45  69  98 131 163 193 234 289
#
# _framework density 18.188178000000001
#
# number of rings (size 3 to 8) (size 9 to 14) (size 15 to 20)
#    0.000    2.500    1.667    1.000    0.000    4.333 
#    0.000    0.000    0.000    4.000    0.000    2.333 
#    0.000    0.000    0.000    0.000    0.000    0.000 
#
# Total GULP energy -267412.543681 kJ/mol
# GULP energy per Si atom -5571.094660 kJ/mol
# Density = 1.814678 g / cm^3
# Si number density = 18.188178 Si / 1000 Ang^3
#
#
#
# Elastic Constant Matrix: (Units=GPa)
#
#
# Indices 1 2 3 4 5 6 
#
# 1 18.8117 8.7479 4.2107 0.0000 0.0000 0.0000
# 2 8.7479 99.5880 81.0852 0.0000 0.0000 0.0000
# 3 4.2107 81.0852 144.8825 0.0000 0.0000 0.0000
# 4 0.0000 0.0000 0.0000 20.1981 0.0000 0.0000
# 5 0.0000 0.0000 0.0000 0.0000 26.6558 0.0000
# 6 0.0000 0.0000 0.0000 0.0000 0.0000 12.3329
#
#
#
# Elastic Compliance Matrix: (Units=1/GPa)
#
#
# Indices 1 2 3 4 5 6 
#
# 1 0.055755 -0.006574 0.002059 0.000000 0.000000 0.000000
# 2 -0.006574 0.019223 -0.010567 0.000000 0.000000 0.000000
# 3 0.002059 -0.010567 0.012756 0.000000 0.000000 0.000000
# 4 0.000000 0.000000 0.000000 0.049510 0.000000 0.000000
# 5 0.000000 0.000000 0.000000 0.000000 0.037515 0.000000
# 6 0.000000 0.000000 0.000000 0.000000 0.000000 0.081084
#
#
# Mechanical properties :
#
#
# Convention : Reuss Voigt Hill
#
# Bulk Modulus (GPa) = 17.37041 50.15220 33.76131
# Shear Modulus (GPa) = 16.38289 23.11992 19.75140
#
# Velocity S-wave (km/s) = 3.00450 3.56919 3.29895
# Velocity P-wave (km/s) = 4.64834 6.67978 5.75441
#
# Compressibility (1/GPa) = 0.05756915
#
# Stress axis : x y z
#
# Youngs Moduli (GPa) = 17.93576 52.02202 78.39245
#
# Poissons Ratio (x) = 0.34198 -0.16138
# Poissons Ratio (y) = 0.11790 0.82838
# Poissons Ratio (z) = -0.03692 0.54972
#
# Static dielectric constant tensor:
#      x y z
#    x 1.675050 0.000000 0.000000 
#    y 0.000000 1.680980 0.000000 
#    z 0.000000 0.000000 1.609940 
# 
# From -- ./inp_files/51308.got.cif
#   From: 2010.05.17/outbox.cif.g08.bks.cpg/sg63_26_cif.got.tgz:51308.got - 2010.06.03 15:47:04.
