data_PCOD9470156
_publ_section_title
;
Structure prediction by ZEFSAII (Michael W. Deem and Ramdas Pophale) SiO2 
 PCOD9470156
Probable space group: C M C M
;
_chemical_formula_sum "Si O2"
_cell_formula_units_Z 104
_cell_length_a 27.370642
_cell_length_b 24.426575
_cell_length_c 9.413154
_cell_angle_alpha 90.000000
_cell_angle_beta 90.000000
_cell_angle_gamma 90.000000
_cell_volume 6293.362156
_symmetry_space_group_name_H-M "C M C M"
_symmetry_group_IT_number 63
_symmetry_cell_setting 'orthorhombic'
loop_
_space_group_symop_operation_xyz
x,y,z
-x,-y,1/2+z
x,-y,-z
-x,y,1/2-z
-x,-y,-z
x,y,1/2-z
-x,y,z
x,-y,1/2+z
1/2+x,1/2+y,z
1/2-x,1/2-y,1/2+z
1/2+x,1/2-y,-z
1/2-x,1/2+y,1/2-z
1/2-x,1/2-y,-z
1/2+x,1/2+y,1/2-z
1/2-x,1/2+y,z
1/2+x,1/2-y,1/2+z
loop_
_atom_site_type_symbol
_atom_site_label
_atom_site_fract_x
_atom_site_fract_y
_atom_site_fract_z
Si Si1 0.691494 0.812137 0.083210
Si Si2 0.120868 0.857281 0.082567
Si Si3 0.916971 0.647676 0.579962
Si Si4 0.790396 0.818050 0.915524
Si Si5 0.443385 0.443494 0.915320
Si Si6 0.053988 0.247145 0.587573
Si Si7 0.500000 0.940828 0.077351
O O1 0.701863 0.824865 0.250000
O O2 0.640886 0.843210 0.043276
O O3 0.690963 0.745446 0.075506
O O4 0.736249 0.824986 0.978832
O O5 0.122078 0.869597 0.250000
O O6 0.094023 0.798948 0.064196
O O7 0.173737 0.852547 0.013730
O O8 0.089833 0.900422 0.995079
O O9 0.918858 0.649818 0.750000
O O10 0.941094 0.701732 0.514930
O O11 0.951211 0.595511 0.539340
O O12 0.792297 0.833202 0.750000
O O13 0.430083 0.450118 0.750000
O O14 0.500000 0.425779 0.920900
O O15 0.439701 0.500000 0.000000
O O16 0.059085 0.267069 0.750000
O O17 0.000000 0.222154 0.573198
O O18 0.500000 0.947805 0.250000
O O19 0.500000 0.000000 0.000000
#
# Coordination Sequence:
#
# PCOD9470156 Si02
#       7
#    16  16  16  16  16  16   8
#     4   9  18  32  50  74 106 141 176 218 267 322
#     4  11  21  33  51  76 110 145 179 221 268 318
#     4  10  19  34  55  77 104 139 176 215 264 323
#     4  10  19  31  50  76 107 141 180 220 266 323
#     4  10  21  37  56  77 103 140 184 225 266 313
#     4  10  20  31  46  74 109 141 172 212 265 318
#     4  10  22  38  58  82 108 142 183 224 267 320
#
# _framework density 16.525348000000001
#
# number of rings (size 3 to 8) (size 9 to 14) (size 15 to 20)
#    0.000    2.000    2.308    1.846    0.000    4.000 
#    0.000    0.000    0.000    0.923    0.000    4.308 
#    0.000    0.000    0.000    0.000    0.000    0.000 
#
# Total GULP energy -289680.422298 kJ/mol
# GULP energy per Si atom -5570.777352 kJ/mol
# Density = 1.648774 g / cm^3
# Si number density = 16.525348 Si / 1000 Ang^3
#
#
#
# Elastic Constant Matrix: (Units=GPa)
#
#
# Indices 1 2 3 4 5 6 
#
# 1 112.3224 48.7195 69.5505 0.0000 0.0000 0.0000
# 2 48.7195 50.3000 39.6355 0.0000 0.0000 0.0000
# 3 69.5505 39.6355 87.8929 0.0000 0.0000 0.0000
# 4 0.0000 0.0000 0.0000 26.9421 0.0000 0.0000
# 5 0.0000 0.0000 0.0000 0.0000 29.7132 0.0000
# 6 0.0000 0.0000 0.0000 0.0000 0.0000 24.2541
#
#
#
# Elastic Compliance Matrix: (Units=1/GPa)
#
#
# Indices 1 2 3 4 5 6 
#
# 1 0.020835 -0.011151 -0.011458 0.000000 0.000000 0.000000
# 2 -0.011151 0.036808 -0.007774 0.000000 0.000000 0.000000
# 3 -0.011458 -0.007774 0.023950 0.000000 0.000000 0.000000
# 4 0.000000 0.000000 0.000000 0.037117 0.000000 0.000000
# 5 0.000000 0.000000 0.000000 0.000000 0.033655 0.000000
# 6 0.000000 0.000000 0.000000 0.000000 0.000000 0.041230
#
#
# Mechanical properties :
#
#
# Convention : Reuss Voigt Hill
#
# Bulk Modulus (GPa) = 48.01871 62.92515 55.47193
# Shear Modulus (GPa) = 19.13487 22.35587 20.74537
#
# Velocity S-wave (km/s) = 3.40650 3.68206 3.54696
# Velocity P-wave (km/s) = 6.67780 7.49916 7.10037
#
# Compressibility (1/GPa) = 0.02082522
#
# Stress axis : x y z
#
# Youngs Moduli (GPa) = 47.99723 27.16819 41.75351
#
# Poissons Ratio (x) = 0.30296 0.47841
# Poissons Ratio (y) = 0.53523 0.32461
# Poissons Ratio (z) = 0.54995 0.21122
#
# Static dielectric constant tensor:
#      x y z
#    x 1.595550 0.000000 0.000000 
#    y 0.000000 1.548510 0.000000 
#    z 0.000000 0.000000 1.546940 
# 
# From -- ./inp_files/12864.got.cif
#   From: 2010.05.17/outbox.cif.g08.bks.cpg/sg63_7_cif.got.tgz:12864.got - 2010.06.03 15:47:04.
