data_PCOD9470473
_publ_section_title
;
Structure prediction by ZEFSAII (Michael W. Deem and Ramdas Pophale) SiO2 
 PCOD9470473
Probable space group: C M C M
;
_chemical_formula_sum "Si O2"
_cell_formula_units_Z 80
_cell_length_a 26.343660
_cell_length_b 17.020493
_cell_length_c 9.399636
_cell_angle_alpha 90.000000
_cell_angle_beta 90.000000
_cell_angle_gamma 90.000000
_cell_volume 4214.628347
_symmetry_space_group_name_H-M "C M C M"
_symmetry_group_IT_number 63
_symmetry_cell_setting 'orthorhombic'
loop_
_space_group_symop_operation_xyz
x,y,z
-x,-y,1/2+z
x,-y,-z
-x,y,1/2-z
-x,-y,-z
x,y,1/2-z
-x,y,z
x,-y,1/2+z
1/2+x,1/2+y,z
1/2-x,1/2-y,1/2+z
1/2+x,1/2-y,-z
1/2-x,1/2+y,1/2-z
1/2-x,1/2-y,-z
1/2+x,1/2+y,1/2-z
1/2-x,1/2+y,z
1/2+x,1/2-y,1/2+z
loop_
_atom_site_type_symbol
_atom_site_label
_atom_site_fract_x
_atom_site_fract_y
_atom_site_fract_z
Si Si1 0.055467 0.805637 0.085393
Si Si2 0.057292 0.385589 0.914355
Si Si3 0.242342 0.923601 0.579244
Si Si4 0.153649 0.807409 0.585745
Si Si5 0.656119 0.118092 0.915640
O O1 0.058106 0.829045 0.250000
O O2 0.056699 0.710083 0.082957
O O3 0.000000 0.829152 0.027333
O O4 0.104994 0.833564 0.003760
O O5 0.067403 0.408620 0.750000
O O6 0.000000 0.410607 0.952921
O O7 0.102213 0.408800 0.020114
O O8 0.245133 0.932977 0.750000
O O9 0.205651 0.850388 0.544847
O O10 0.297785 0.910876 0.512452
O O11 0.220712 0.000000 0.500000
O O12 0.144111 0.826851 0.750000
O O13 0.158013 0.713216 0.575772
O O14 0.661736 0.095378 0.750000
#
# Coordination Sequence:
#
# PCOD9470473 Si02
#       5
#    16  16  16  16  16
#     4   8  14  25  44  72 103 132 162 198 242 291
#     4   8  14  26  45  71 103 135 164 197 240 288
#     4  11  23  38  53  71  98 132 170 210 253 299
#     4   9  19  33  51  76 103 131 165 206 249 294
#     4  10  19  32  52  78 104 131 165 204 248 296
#
# _framework density 18.981508999999999
#
# number of rings (size 3 to 8) (size 9 to 14) (size 15 to 20)
#    0.000    2.800    0.000    3.000    0.000    3.200 
#    0.000    4.000    0.000    1.200    0.000    0.000 
#    0.000    0.000    0.000    0.000    0.000    0.000 
#
# Total GULP energy -223068.190417 kJ/mol
# GULP energy per Si atom -5576.704760 kJ/mol
# Density = 1.893831 g / cm^3
# Si number density = 18.981509 Si / 1000 Ang^3
#
#
#
# Elastic Constant Matrix: (Units=GPa)
#
#
# Indices 1 2 3 4 5 6 
#
# 1 131.9402 29.5169 71.7706 0.0000 0.0000 0.0000
# 2 29.5169 34.1595 30.7375 0.0000 0.0000 0.0000
# 3 71.7706 30.7375 86.0773 0.0000 0.0000 0.0000
# 4 0.0000 0.0000 0.0000 16.7819 0.0000 0.0000
# 5 0.0000 0.0000 0.0000 0.0000 38.8483 0.0000
# 6 0.0000 0.0000 0.0000 0.0000 0.0000 -15.4945
#
#
#
# Elastic Compliance Matrix: (Units=1/GPa)
#
#
# Indices 1 2 3 4 5 6 
#
# 1 0.013997 -0.002347 -0.010832 0.000000 0.000000 0.000000
# 2 -0.002347 0.043528 -0.013586 0.000000 0.000000 0.000000
# 3 -0.010832 -0.013586 0.025501 0.000000 0.000000 0.000000
# 4 0.000000 0.000000 0.000000 0.059588 0.000000 0.000000
# 5 0.000000 0.000000 0.000000 0.000000 0.025741 0.000000
# 6 0.000000 0.000000 0.000000 0.000000 0.000000 -0.064539
#
#
# Mechanical properties :
#
#
# Convention : Reuss Voigt Hill
#
# Bulk Modulus (GPa) = 33.90529 57.35856 45.63193
# Shear Modulus (GPa) = 29.90830 16.03729 22.97279
#
# Velocity S-wave (km/s) = 3.97376 2.90985 3.48267
# Velocity P-wave (km/s) = 6.24142 6.44774 6.34542
#
# Compressibility (1/GPa) = 0.02949392
#
# Stress axis : x y z
#
# Youngs Moduli (GPa) = 71.44640 22.97368 39.21480
#
# Poissons Ratio (x) = 0.05393 0.42477
# Poissons Ratio (y) = 0.16772 0.53278
# Poissons Ratio (z) = 0.77390 0.31213
#
# Static dielectric constant tensor:
#      x y z
#    x 1.661300 0.000000 0.000000 
#    y 0.000000 1.688870 0.000000 
#    z 0.000000 0.000000 1.637110 
# 
# From -- ./inp_files/12030.got.cif
#   From: 2010.05.17/outbox.cif.g08.bks.cpg/sg63_7_cif.got.tgz:12030.got - 2010.06.03 15:47:04.
