data_PCOD9470503
_publ_section_title
;
Structure prediction by ZEFSAII (Michael W. Deem and Ramdas Pophale) SiO2 
 PCOD9470503
Probable space group: C M C M
;
_chemical_formula_sum "Si O2"
_cell_formula_units_Z 96
_cell_length_a 28.245663
_cell_length_b 9.042122
_cell_length_c 20.633430
_cell_angle_alpha 90.000000
_cell_angle_beta 90.000000
_cell_angle_gamma 90.000000
_cell_volume 5269.793101
_symmetry_space_group_name_H-M "C M C M"
_symmetry_group_IT_number 63
_symmetry_cell_setting 'orthorhombic'
loop_
_space_group_symop_operation_xyz
x,y,z
-x,-y,1/2+z
x,-y,-z
-x,y,1/2-z
-x,-y,-z
x,y,1/2-z
-x,y,z
x,-y,1/2+z
1/2+x,1/2+y,z
1/2-x,1/2-y,1/2+z
1/2+x,1/2-y,-z
1/2-x,1/2+y,1/2-z
1/2-x,1/2-y,-z
1/2+x,1/2+y,1/2-z
1/2-x,1/2+y,z
1/2+x,1/2-y,1/2+z
loop_
_atom_site_type_symbol
_atom_site_label
_atom_site_fract_x
_atom_site_fract_y
_atom_site_fract_z
Si Si1 0.180862 0.475761 0.569182
Si Si2 0.094288 0.090103 0.671461
Si Si3 0.254313 0.715846 0.610173
Si Si4 0.000000 0.413272 0.171542
Si Si5 0.000000 0.072863 0.329268
Si Si6 0.808479 0.034836 0.325264
Si Si7 0.399325 0.061364 0.171786
O O1 0.156373 0.500000 0.500000
O O2 0.223369 0.596302 0.571243
O O3 0.205406 0.314285 0.575574
O O4 0.144644 0.497128 0.629058
O O5 0.095131 0.080709 0.750000
O O6 0.139622 0.999763 0.647684
O O7 0.097631 0.263500 0.657486
O O8 0.046297 0.014634 0.648962
O O9 0.279559 0.617154 0.665008
O O10 0.218338 0.834895 0.638963
O O11 0.000000 0.243023 0.150173
O O12 0.049782 0.490544 0.153699
O O13 0.000000 0.415930 0.250000
O O14 0.000000 0.072592 0.250000
O O15 0.811621 0.072156 0.250000
O O16 0.391833 0.041090 0.250000
#
# Coordination Sequence:
#
# PCOD9470503 Si02
#       7
#    16  16  16   8   8  16  16
#     4  11  23  40  59  82 113 154 196 236 284 339
#     4   9  17  30  49  75 110 144 177 221 275 332
#     4  10  22  36  54  77 111 152 194 231 278 340
#     4   9  19  33  54  85 117 145 179 229 285 337
#     4   9  17  29  49  77 110 144 177 219 278 340
#     4  10  19  32  52  83 115 144 182 232 285 333
#     4  10  20  36  58  85 114 146 186 233 284 339
#
# _framework density 18.217034000000002
#
# number of rings (size 3 to 8) (size 9 to 14) (size 15 to 20)
#    0.000    2.167    1.667    1.500    2.333    5.333 
#    0.000    0.417    0.000    0.000    0.000    1.167 
#    0.000    0.000    0.000    0.000    0.000    0.000 
#
# Total GULP energy -267506.636411 kJ/mol
# GULP energy per Si atom -5573.054925 kJ/mol
# Density = 1.817557 g / cm^3
# Si number density = 18.217034 Si / 1000 Ang^3
#
#
#
# Elastic Constant Matrix: (Units=GPa)
#
#
# Indices 1 2 3 4 5 6 
#
# 1 106.6517 23.2797 15.9794 0.0000 0.0000 0.0000
# 2 23.2797 61.0904 0.0153 0.0000 0.0000 0.0000
# 3 15.9794 0.0153 35.8473 0.0000 0.0000 0.0000
# 4 0.0000 0.0000 0.0000 2.6406 0.0000 0.0000
# 5 0.0000 0.0000 0.0000 0.0000 6.1156 0.0000
# 6 0.0000 0.0000 0.0000 0.0000 0.0000 25.7748
#
#
#
# Elastic Compliance Matrix: (Units=1/GPa)
#
#
# Indices 1 2 3 4 5 6 
#
# 1 0.011030 -0.004202 -0.004915 0.000000 0.000000 0.000000
# 2 -0.004202 0.017970 0.001865 0.000000 0.000000 0.000000
# 3 -0.004915 0.001865 0.030086 0.000000 0.000000 0.000000
# 4 0.000000 0.000000 0.000000 0.378705 0.000000 0.000000
# 5 0.000000 0.000000 0.000000 0.000000 0.163516 0.000000
# 6 0.000000 0.000000 0.000000 0.000000 0.000000 0.038798
#
#
# Mechanical properties :
#
#
# Convention : Reuss Voigt Hill
#
# Bulk Modulus (GPa) = 22.43003 31.34870 26.88936
# Shear Modulus (GPa) = 7.46861 17.86053 12.66457
#
# Velocity S-wave (km/s) = 2.02699 3.13458 2.63953
# Velocity P-wave (km/s) = 4.22110 5.50877 4.90735
#
# Compressibility (1/GPa) = 0.04458309
#
# Stress axis : x y z
#
# Youngs Moduli (GPa) = 90.66264 55.64845 33.23785
#
# Poissons Ratio (x) = 0.23383 0.16336
# Poissons Ratio (y) = 0.38096 -0.06200
# Poissons Ratio (z) = 0.44560 -0.10381
#
# Static dielectric constant tensor:
#      x y z
#    x 1.640920 0.000000 0.000000 
#    y 0.000000 1.618980 0.000000 
#    z 0.000000 0.000000 1.622870 
# 
# From -- ./inp_files/65402.got.cif
#   From: 2010.05.17/outbox.cif.g08.bks.cpg/sg63_33_cif.got.tgz:65402.got - 2010.06.03 15:47:04.
