data_PCOD9470359
_publ_section_title
;
Structure prediction by ZEFSAII (Michael W. Deem and Ramdas Pophale) SiO2 
 PCOD9470359
Probable space group: C M C M
;
_chemical_formula_sum "Si O2"
_cell_formula_units_Z 80
_cell_length_a 7.294168
_cell_length_b 20.576738
_cell_length_c 23.395912
_cell_angle_alpha 90.000000
_cell_angle_beta 90.000000
_cell_angle_gamma 90.000000
_cell_volume 3511.496734
_symmetry_space_group_name_H-M "C M C M"
_symmetry_group_IT_number 63
_symmetry_cell_setting 'orthorhombic'
loop_
_space_group_symop_operation_xyz
x,y,z
-x,-y,1/2+z
x,-y,-z
-x,y,1/2-z
-x,-y,-z
x,y,1/2-z
-x,y,z
x,-y,1/2+z
1/2+x,1/2+y,z
1/2-x,1/2-y,1/2+z
1/2+x,1/2-y,-z
1/2-x,1/2+y,1/2-z
1/2-x,1/2-y,-z
1/2+x,1/2+y,1/2-z
1/2-x,1/2+y,z
1/2+x,1/2-y,1/2+z
loop_
_atom_site_type_symbol
_atom_site_label
_atom_site_fract_x
_atom_site_fract_y
_atom_site_fract_z
Si Si1 0.223455 0.526762 0.625208
Si Si2 0.778566 0.772490 0.630652
Si Si3 0.723270 0.941352 0.250000
Si Si4 0.777066 0.654157 0.945230
Si Si5 0.723332 0.790210 0.250000
Si Si6 0.211581 0.601711 0.434678
O O1 0.282451 0.525674 0.691067
O O2 0.273235 0.595285 0.596920
O O3 0.289584 0.466050 0.587813
O O4 0.000000 0.524511 0.625356
O O5 0.715406 0.722153 0.581569
O O6 0.718660 0.745804 0.692167
O O7 0.718635 0.844595 0.614778
O O8 0.000000 0.772277 0.630787
O O9 0.500000 0.941505 0.250000
O O10 0.778958 0.865613 0.250000
O O11 0.000000 0.657637 0.946405
O O12 0.710709 0.634844 0.008217
O O13 0.500000 0.790600 0.250000
O O14 0.000000 0.587358 0.449106
#
# Coordination Sequence:
#
# PCOD9470359 Si02
#       6
#    16  16   8  16   8  16
#     4   9  16  27  46  71  96 122 157 202 242 275
#     4  10  19  32  51  71  93 126 165 199 231 275
#     4   9  14  25  46  71  93 116 159 208 238 268
#     4   9  16  29  49  70  94 127 164 197 229 275
#     4   9  16  29  49  71  91 118 163 208 234 264
#     4  10  20  31  46  74 106 127 148 190 248 292
#
# _framework density 22.782308
#
# number of rings (size 3 to 8) (size 9 to 14) (size 15 to 20)
#    0.000    2.600    2.000    1.200    0.000    3.200 
#    0.000    1.500    0.000    3.600    0.000    0.000 
#    0.000    0.000    0.000    0.000    0.000    0.000 
#
# Total GULP energy -223565.086945 kJ/mol
# GULP energy per Si atom -5589.127174 kJ/mol
# Density = 2.273045 g / cm^3
# Si number density = 22.782308 Si / 1000 Ang^3
#
#
#
# Elastic Constant Matrix: (Units=GPa)
#
#
# Indices 1 2 3 4 5 6 
#
# 1 93.8723 -12.4854 -6.6503 0.0000 0.0000 0.0000
# 2 -12.4854 54.8835 -27.3714 0.0000 0.0000 0.0000
# 3 -6.6503 -27.3714 72.6599 0.0000 0.0000 0.0000
# 4 0.0000 0.0000 0.0000 14.4091 0.0000 0.0000
# 5 0.0000 0.0000 0.0000 0.0000 -8.9280 0.0000
# 6 0.0000 0.0000 0.0000 0.0000 0.0000 0.3423
#
#
#
# Elastic Compliance Matrix: (Units=1/GPa)
#
#
# Indices 1 2 3 4 5 6 
#
# 1 0.011335 0.003812 0.002474 0.000000 0.000000 0.000000
# 2 0.003812 0.023717 0.009283 0.000000 0.000000 0.000000
# 3 0.002474 0.009283 0.017486 0.000000 0.000000 0.000000
# 4 0.000000 0.000000 0.000000 0.069401 0.000000 0.000000
# 5 0.000000 0.000000 0.000000 0.000000 -0.112008 0.000000
# 6 0.000000 0.000000 0.000000 0.000000 0.000000 2.921168
#
#
# Mechanical properties :
#
#
# Convention : Reuss Voigt Hill
#
# Bulk Modulus (GPa) = 11.95071 14.26683 13.10877
# Shear Modulus (GPa) = 1.70774 19.02621 10.36697
#
# Velocity S-wave (km/s) = 0.86673 2.89300 2.13549
# Velocity P-wave (km/s) = 2.50172 4.17553 3.44193
#
# Compressibility (1/GPa) = 0.08367702
#
# Stress axis : x y z
#
# Youngs Moduli (GPa) = 88.22197 42.16306 57.18779
#
# Poissons Ratio (x) = -0.16073 -0.14146
# Poissons Ratio (y) = -0.33632 -0.53090
# Poissons Ratio (z) = -0.21822 -0.39142
#
# Static dielectric constant tensor:
#      x y z
#    x 1.943520 0.000000 0.000000 
#    y 0.000000 1.769620 0.000000 
#    z 0.000000 0.000000 1.823710 
# 
# From -- ./inp_files/50899.got.cif
#   From: 2010.05.17/outbox.cif.g08.bks.cpg/sg63_26_cif.got.tgz:50899.got - 2010.06.03 15:47:04.
