data_PCOD9470289
_publ_section_title
;
Structure prediction by ZEFSAII (Michael W. Deem and Ramdas Pophale) SiO2 
 PCOD9470289
Probable space group: C M C M
;
_chemical_formula_sum "Si O2"
_cell_formula_units_Z 112
_cell_length_a 13.344594
_cell_length_b 29.926294
_cell_length_c 14.111574
_cell_angle_alpha 90.000000
_cell_angle_beta 90.000000
_cell_angle_gamma 90.000000
_cell_volume 5635.516957
_symmetry_space_group_name_H-M "C M C M"
_symmetry_group_IT_number 63
_symmetry_cell_setting 'orthorhombic'
loop_
_space_group_symop_operation_xyz
x,y,z
-x,-y,1/2+z
x,-y,-z
-x,y,1/2-z
-x,-y,-z
x,y,1/2-z
-x,y,z
x,-y,1/2+z
1/2+x,1/2+y,z
1/2-x,1/2-y,1/2+z
1/2+x,1/2-y,-z
1/2-x,1/2+y,1/2-z
1/2-x,1/2-y,-z
1/2+x,1/2+y,1/2-z
1/2-x,1/2+y,z
1/2+x,1/2-y,1/2+z
loop_
_atom_site_type_symbol
_atom_site_label
_atom_site_fract_x
_atom_site_fract_y
_atom_site_fract_z
Si Si1 0.610121 0.018335 0.893103
Si Si2 0.170137 0.985507 0.644897
Si Si3 0.613784 0.698061 0.135276
Si Si4 0.112284 0.081208 0.865429
Si Si5 0.379566 0.205147 0.858376
Si Si6 0.734448 0.608131 0.363330
Si Si7 0.817650 0.613111 0.947164
O O1 0.500000 0.007958 0.853824
O O2 0.625828 0.071904 0.896688
O O3 0.710668 0.997010 0.850630
O O4 0.611325 0.000000 0.000000
O O5 0.126551 0.984032 0.750000
O O6 0.165830 0.934809 0.610632
O O7 0.123394 0.029581 0.599548
O O8 0.608734 0.701669 0.250000
O O9 0.500000 0.691548 0.100441
O O10 0.654988 0.746383 0.103692
O O11 0.679739 0.654789 0.116594
O O12 0.126645 0.081334 0.750000
O O13 0.202458 0.107894 0.912983
O O14 0.000000 0.097226 0.884952
O O15 0.343106 0.198661 0.750000
O O16 0.500000 0.208977 0.854505
O O17 0.353618 0.161706 0.917850
O O18 0.756783 0.605278 0.250000
O O19 0.823494 0.606001 0.439527
#
# Coordination Sequence:
#
# PCOD9470289 Si02
#       7
#    16  16  16  16  16  16  16
#     4  10  19  32  49  70  99 131 169 214 257 298
#     4   9  18  33  50  70 100 137 175 212 250 302
#     4   8  16  32  52  74 101 130 165 214 264 304
#     4   9  19  34  51  75 106 136 168 211 260 306
#     4   9  18  34  56  81 104 126 161 214 270 314
#     4  10  20  33  49  71 103 138 173 210 248 298
#     4  11  20  32  54  77 103 136 176 210 255 308
#
# _framework density 19.873951999999999
#
# number of rings (size 3 to 8) (size 9 to 14) (size 15 to 20)
#    0.000    2.571    1.429    1.714    0.000    2.571 
#    0.000    3.571    0.000    1.714    0.000    1.000 
#    0.000    8.000    0.000    0.000    0.000    0.000 
#
# Total GULP energy -311955.843016 kJ/mol
# GULP energy per Si atom -5570.640054 kJ/mol
# Density = 1.982872 g / cm^3
# Si number density = 19.873952 Si / 1000 Ang^3
#
#
#
# Elastic Constant Matrix: (Units=GPa)
#
#
# Indices 1 2 3 4 5 6 
#
# 1 62.2778 4.2343 2.1374 0.0000 0.0000 0.0000
# 2 4.2343 133.3386 10.9742 0.0000 0.0000 0.0000
# 3 2.1374 10.9742 64.1600 0.0000 0.0000 0.0000
# 4 0.0000 0.0000 0.0000 26.6298 0.0000 0.0000
# 5 0.0000 0.0000 0.0000 0.0000 9.7773 0.0000
# 6 0.0000 0.0000 0.0000 0.0000 0.0000 10.4347
#
#
#
# Elastic Compliance Matrix: (Units=1/GPa)
#
#
# Indices 1 2 3 4 5 6 
#
# 1 0.016105 -0.000474 -0.000455 0.000000 0.000000 0.000000
# 2 -0.000474 0.007621 -0.001288 0.000000 0.000000 0.000000
# 3 -0.000455 -0.001288 0.015821 0.000000 0.000000 0.000000
# 4 0.000000 0.000000 0.000000 0.037552 0.000000 0.000000
# 5 0.000000 0.000000 0.000000 0.000000 0.102277 0.000000
# 6 0.000000 0.000000 0.000000 0.000000 0.000000 0.095834
#
#
# Mechanical properties :
#
#
# Convention : Reuss Voigt Hill
#
# Bulk Modulus (GPa) = 28.47952 32.71871 30.59912
# Shear Modulus (GPa) = 17.16156 25.53040 21.34598
#
# Velocity S-wave (km/s) = 2.94176 3.58804 3.28085
# Velocity P-wave (km/s) = 5.08918 5.80209 5.45729
#
# Compressibility (1/GPa) = 0.03511295
#
# Stress axis : x y z
#
# Youngs Moduli (GPa) = 62.09272 131.22093 63.20533
#
# Poissons Ratio (x) = 0.06219 0.02879
# Poissons Ratio (y) = 0.02943 0.08139
# Poissons Ratio (z) = 0.02828 0.16897
#
# Static dielectric constant tensor:
#      x y z
#    x 1.699830 0.000000 0.000000 
#    y 0.000000 1.712520 0.000000 
#    z 0.000000 0.000000 1.746360 
# 
# From -- ./inp_files/32582.got.cif
#   From: 2010.05.17/outbox.cif.g08.bks.cpg/sg63_17_cif.got.tgz:32582.got - 2010.06.03 15:47:04.
