data_PCOD9470304
_publ_section_title
;
Structure prediction by ZEFSAII (Michael W. Deem and Ramdas Pophale) SiO2 
 PCOD9470304
Probable space group: C M C M
;
_chemical_formula_sum "Si O2"
_cell_formula_units_Z 116
_cell_length_a 8.838175
_cell_length_b 26.980340
_cell_length_c 28.058469
_cell_angle_alpha 90.000000
_cell_angle_beta 90.000000
_cell_angle_gamma 90.000000
_cell_volume 6690.737402
_symmetry_space_group_name_H-M "C M C M"
_symmetry_group_IT_number 63
_symmetry_cell_setting 'orthorhombic'
loop_
_space_group_symop_operation_xyz
x,y,z
-x,-y,1/2+z
x,-y,-z
-x,y,1/2-z
-x,-y,-z
x,y,1/2-z
-x,y,z
x,-y,1/2+z
1/2+x,1/2+y,z
1/2-x,1/2-y,1/2+z
1/2+x,1/2-y,-z
1/2-x,1/2+y,1/2-z
1/2-x,1/2-y,-z
1/2+x,1/2+y,1/2-z
1/2-x,1/2+y,z
1/2+x,1/2-y,1/2+z
loop_
_atom_site_type_symbol
_atom_site_label
_atom_site_fract_x
_atom_site_fract_y
_atom_site_fract_z
Si Si1 0.679319 0.070177 0.096441
Si Si2 0.167629 0.370810 0.348596
Si Si3 0.171170 0.567841 0.517265
Si Si4 0.319917 0.724123 0.894662
Si Si5 0.177797 0.031975 0.891637
Si Si6 0.000000 0.370911 0.250000
Si Si7 0.675354 0.183247 0.511356
Si Si8 0.180662 0.175409 0.093452
O O1 0.500000 0.073634 0.104660
O O2 0.757524 0.122021 0.110336
O O3 0.748280 0.021136 0.120053
O O4 0.700230 0.063966 0.039056
O O5 0.261122 0.322631 0.364358
O O6 0.245615 0.421869 0.364567
O O7 0.129521 0.370917 0.292672
O O8 0.000000 0.367570 0.372236
O O9 0.286961 0.541957 0.552466
O O10 0.175429 0.626178 0.527965
O O11 0.000000 0.549564 0.527306
O O12 0.500000 0.727447 0.893428
O O13 0.263365 0.713372 0.948619
O O14 0.245947 0.776440 0.879634
O O15 0.000000 0.031067 0.883115
O O16 0.500000 0.199344 0.506619
O O17 0.756287 0.181514 0.460409
O O18 0.000000 0.175912 0.093674
#
# Coordination Sequence:
#
# PCOD9470304 Si02
#       8
#    16  16  16  16  16   4  16  16
#     4  10  21  36  51  73 114 162 207 242 275 316
#     4  10  21  41  63  87 110 140 183 233 299 358
#     4   9  18  31  48  71 108 158 203 243 276 319
#     4  12  22  34  55  83 113 149 196 238 285 346
#     4  12  22  32  53  84 115 149 194 237 285 344
#     4   8  24  44  70  88 114 136 182 236 314 374
#     4  10  19  32  49  73 111 160 203 246 279 324
#     4  11  22  35  50  75 117 161 204 243 279 318
#
# _framework density 17.337401
#
# number of rings (size 3 to 8) (size 9 to 14) (size 15 to 20)
#    0.414    1.103    1.379    6.621    0.000    4.414 
#    0.000    1.379    0.000    0.000    0.000    0.966 
#    0.000    0.000    0.000    0.000    0.000    0.000 
#
# Total GULP energy -323186.323625 kJ/mol
# GULP energy per Si atom -5572.177994 kJ/mol
# Density = 1.729794 g / cm^3
# Si number density = 17.337401 Si / 1000 Ang^3
#
#
#
# Elastic Constant Matrix: (Units=GPa)
#
#
# Indices 1 2 3 4 5 6 
#
# 1 156.6488 83.6228 24.6353 0.0000 0.0000 0.0000
# 2 83.6228 168.2798 33.5313 0.0000 0.0000 0.0000
# 3 24.6353 33.5313 32.4052 0.0000 0.0000 0.0000
# 4 0.0000 0.0000 0.0000 2.1542 0.0000 0.0000
# 5 0.0000 0.0000 0.0000 0.0000 12.0316 0.0000
# 6 0.0000 0.0000 0.0000 0.0000 0.0000 31.2340
#
#
#
# Elastic Compliance Matrix: (Units=1/GPa)
#
#
# Indices 1 2 3 4 5 6 
#
# 1 0.008879 -0.003864 -0.002752 0.000000 0.000000 0.000000
# 2 -0.003864 0.009167 -0.006549 0.000000 0.000000 0.000000
# 3 -0.002752 -0.006549 0.039727 0.000000 0.000000 0.000000
# 4 0.000000 0.000000 0.000000 0.464218 0.000000 0.000000
# 5 0.000000 0.000000 0.000000 0.000000 0.083114 0.000000
# 6 0.000000 0.000000 0.000000 0.000000 0.000000 0.032016
#
#
# Mechanical properties :
#
#
# Convention : Reuss Voigt Hill
#
# Bulk Modulus (GPa) = 31.80139 71.21251 51.50695
# Shear Modulus (GPa) = 7.41914 23.45360 15.43637
#
# Velocity S-wave (km/s) = 2.07088 3.68200 2.98711
# Velocity P-wave (km/s) = 4.90923 7.69674 6.45524
#
# Compressibility (1/GPa) = 0.03144517
#
# Stress axis : x y z
#
# Youngs Moduli (GPa) = 112.62338 109.08179 25.17154
#
# Poissons Ratio (x) = 0.42149 0.06927
# Poissons Ratio (y) = 0.43517 0.16484
# Poissons Ratio (z) = 0.30993 0.71432
#
# Static dielectric constant tensor:
#      x y z
#    x 1.583650 0.000000 0.000000 
#    y 0.000000 1.651010 0.000000 
#    z 0.000000 0.000000 1.556940 
# 
# From -- ./inp_files/72201.got.cif
#   From: 2010.05.17/outbox.cif.g08.bks.cpg/sg63_37_cif.got.tgz:72201.got - 2010.06.03 15:47:04.
