data_PCOD9470113
_publ_section_title
;
Structure prediction by ZEFSAII (Michael W. Deem and Ramdas Pophale) SiO2 
 PCOD9470113
Probable space group: C M C M
;
_chemical_formula_sum "Si O2"
_cell_formula_units_Z 72
_cell_length_a 13.165004
_cell_length_b 31.635722
_cell_length_c 8.816834
_cell_angle_alpha 90.000000
_cell_angle_beta 90.000000
_cell_angle_gamma 90.000000
_cell_volume 3672.073877
_symmetry_space_group_name_H-M "C M C M"
_symmetry_group_IT_number 63
_symmetry_cell_setting 'orthorhombic'
loop_
_space_group_symop_operation_xyz
x,y,z
-x,-y,1/2+z
x,-y,-z
-x,y,1/2-z
-x,-y,-z
x,y,1/2-z
-x,y,z
x,-y,1/2+z
1/2+x,1/2+y,z
1/2-x,1/2-y,1/2+z
1/2+x,1/2-y,-z
1/2-x,1/2+y,1/2-z
1/2-x,1/2-y,-z
1/2+x,1/2+y,1/2-z
1/2-x,1/2+y,z
1/2+x,1/2-y,1/2+z
loop_
_atom_site_type_symbol
_atom_site_label
_atom_site_fract_x
_atom_site_fract_y
_atom_site_fract_z
Si Si1 0.123460 0.228929 0.424471
Si Si2 0.882646 0.862059 0.432635
Si Si3 0.500000 0.953487 0.570011
Si Si4 0.820044 0.600586 0.927600
Si Si5 0.378306 0.185103 0.419841
O O1 0.154980 0.234317 0.250000
O O2 0.146502 0.182386 0.488897
O O3 0.155702 0.268610 0.527160
O O4 0.000000 0.230371 0.425387
O O5 0.877571 0.856041 0.250000
O O6 0.799235 0.897672 0.472194
O O7 0.000000 0.871924 0.471637
O O8 0.500000 0.955547 0.750000
O O9 0.600924 0.928612 0.516001
O O10 0.500000 0.000000 0.500000
O O11 0.828485 0.590748 0.750000
O O12 0.852772 0.648778 0.961028
O O13 0.341591 0.174213 0.250000
O O14 0.500000 0.186441 0.411892
#
# Coordination Sequence:
#
# PCOD9470113 Si02
#       5
#    16  16   8  16  16
#     4   9  17  29  47  73 108 153 203 253 296 338
#     4   9  19  36  56  81 116 158 202 243 286 339
#     4  12  26  46  70  96 124 150 182 232 294 362
#     4  11  22  37  61  89 117 151 191 239 293 351
#     4  10  19  31  49  75 111 154 199 248 298 350
#
# _framework density 19.607448000000002
#
# number of rings (size 3 to 8) (size 9 to 14) (size 15 to 20)
#    0.000    2.000    1.111    3.000    0.000    6.222 
#    0.000    0.000    0.000    0.667    0.000    0.000 
#    0.000    0.000    0.000    0.000    0.000    0.000 
#
# Total GULP energy -201073.680970 kJ/mol
# GULP energy per Si atom -5585.380027 kJ/mol
# Density = 1.956282 g / cm^3
# Si number density = 19.607448 Si / 1000 Ang^3
#
#
#
# Elastic Constant Matrix: (Units=GPa)
#
#
# Indices 1 2 3 4 5 6 
#
# 1 116.7978 55.7351 39.1534 0.0000 0.0000 0.0000
# 2 55.7351 82.9994 32.4323 0.0000 0.0000 0.0000
# 3 39.1534 32.4323 80.1189 0.0000 0.0000 0.0000
# 4 0.0000 0.0000 0.0000 28.4292 0.0000 0.0000
# 5 0.0000 0.0000 0.0000 0.0000 19.5063 0.0000
# 6 0.0000 0.0000 0.0000 0.0000 0.0000 17.4185
#
#
#
# Elastic Compliance Matrix: (Units=1/GPa)
#
#
# Indices 1 2 3 4 5 6 
#
# 1 0.013352 -0.007622 -0.003440 0.000000 0.000000 0.000000
# 2 -0.007622 0.018663 -0.003830 0.000000 0.000000 0.000000
# 3 -0.003440 -0.003830 0.015713 0.000000 0.000000 0.000000
# 4 0.000000 0.000000 0.000000 0.035175 0.000000 0.000000
# 5 0.000000 0.000000 0.000000 0.000000 0.051266 0.000000
# 6 0.000000 0.000000 0.000000 0.000000 0.000000 0.057410
#
#
# Mechanical properties :
#
#
# Convention : Reuss Voigt Hill
#
# Bulk Modulus (GPa) = 55.72714 59.39528 57.56121
# Shear Modulus (GPa) = 21.99314 23.24382 22.61848
#
# Velocity S-wave (km/s) = 3.35277 3.44678 3.40010
# Velocity P-wave (km/s) = 6.59327 6.79694 6.69588
#
# Compressibility (1/GPa) = 0.01794458
#
# Stress axis : x y z
#
# Youngs Moduli (GPa) = 74.89512 53.58151 63.64248
#
# Poissons Ratio (x) = 0.40840 0.21890
# Poissons Ratio (y) = 0.57085 0.24376
# Poissons Ratio (z) = 0.25761 0.20522
#
# Static dielectric constant tensor:
#      x y z
#    x 1.814720 0.000000 0.000000 
#    y 0.000000 1.623120 0.000000 
#    z 0.000000 0.000000 1.662960 
# 
# From -- ./inp_files/4622.got.cif
#   From: 2010.05.17/outbox.cif.g08.bks.cpg/sg63_3_cif.got.tgz:4622.got - 2010.06.03 15:47:04.
