data_PCOD9470202
_publ_section_title
;
Structure prediction by ZEFSAII (Michael W. Deem and Ramdas Pophale) SiO2 
 PCOD9470202
Probable space group: C M C M
;
_chemical_formula_sum "Si O2"
_cell_formula_units_Z 96
_cell_length_a 7.608003
_cell_length_b 30.391580
_cell_length_c 19.119434
_cell_angle_alpha 90.000000
_cell_angle_beta 90.000000
_cell_angle_gamma 90.000000
_cell_volume 4420.780842
_symmetry_space_group_name_H-M "C M C M"
_symmetry_group_IT_number 63
_symmetry_cell_setting 'orthorhombic'
loop_
_space_group_symop_operation_xyz
x,y,z
-x,-y,1/2+z
x,-y,-z
-x,y,1/2-z
-x,-y,-z
x,y,1/2-z
-x,y,z
x,-y,1/2+z
1/2+x,1/2+y,z
1/2-x,1/2-y,1/2+z
1/2+x,1/2-y,-z
1/2-x,1/2+y,1/2-z
1/2-x,1/2-y,-z
1/2+x,1/2+y,1/2-z
1/2-x,1/2+y,z
1/2+x,1/2-y,1/2+z
loop_
_atom_site_type_symbol
_atom_site_label
_atom_site_fract_x
_atom_site_fract_y
_atom_site_fract_z
Si Si1 0.704658 0.692845 0.562677
Si Si2 0.792313 0.160467 0.413997
Si Si3 0.714030 0.966519 0.402880
Si Si4 0.205706 0.261051 0.672809
Si Si5 0.288391 0.939398 0.559365
Si Si6 0.786662 0.381382 0.327559
O O1 0.500000 0.703524 0.550024
O O2 0.781562 0.680333 0.487235
O O3 0.783933 0.732049 0.609477
O O4 0.717233 0.650480 0.612574
O O5 0.716862 0.188364 0.350215
O O6 0.764234 0.108264 0.413807
O O7 0.000000 0.167614 0.412772
O O8 0.500000 0.967221 0.402662
O O9 0.767924 0.947455 0.478859
O O10 0.767625 0.931311 0.345115
O O11 0.772307 0.017156 0.398804
O O12 0.282161 0.253344 0.750000
O O13 0.000000 0.248815 0.676566
O O14 0.500000 0.940049 0.558804
O O15 0.729934 0.367927 0.250000
O O16 0.000000 0.379316 0.330031
#
# Coordination Sequence:
#
# PCOD9470202 Si02
#       6
#    16  16  16  16  16  16
#     4  10  21  37  56  80 109 142 179 218 266 327
#     4  11  22  35  55  85 113 139 175 224 276 321
#     4   8  15  29  50  76 104 139 182 223 261 307
#     4  10  22  40  59  77 102 142 186 223 265 322
#     4   9  16  31  55  76 102 142 183 222 261 307
#     4  10  19  31  51  80 111 141 177 225 277 322
#
# _framework density 21.715620999999999
#
# number of rings (size 3 to 8) (size 9 to 14) (size 15 to 20)
#    0.000    2.333    1.667    2.500    0.000    2.667 
#    0.000    3.333    0.000    3.000    0.000    0.000 
#    0.000    0.000    0.000    0.000    0.000    0.000 
#
# Total GULP energy -267936.150909 kJ/mol
# GULP energy per Si atom -5582.003144 kJ/mol
# Density = 2.166619 g / cm^3
# Si number density = 21.715621 Si / 1000 Ang^3
#
#
#
# Elastic Constant Matrix: (Units=GPa)
#
#
# Indices 1 2 3 4 5 6 
#
# 1 46.9931 -7.0943 -3.6166 0.0000 0.0000 0.0000
# 2 -7.0943 117.4679 16.3550 0.0000 0.0000 0.0000
# 3 -3.6166 16.3550 40.8536 0.0000 0.0000 0.0000
# 4 0.0000 0.0000 0.0000 11.2827 0.0000 0.0000
# 5 0.0000 0.0000 0.0000 0.0000 3.6300 0.0000
# 6 0.0000 0.0000 0.0000 0.0000 0.0000 11.5114
#
#
#
# Elastic Compliance Matrix: (Units=1/GPa)
#
#
# Indices 1 2 3 4 5 6 
#
# 1 0.021558 0.001097 0.001469 0.000000 0.000000 0.000000
# 2 0.001097 0.009071 -0.003534 0.000000 0.000000 0.000000
# 3 0.001469 -0.003534 0.026023 0.000000 0.000000 0.000000
# 4 0.000000 0.000000 0.000000 0.088632 0.000000 0.000000
# 5 0.000000 0.000000 0.000000 0.000000 0.275482 0.000000
# 6 0.000000 0.000000 0.000000 0.000000 0.000000 0.086870
#
#
# Mechanical properties :
#
#
# Convention : Reuss Voigt Hill
#
# Bulk Modulus (GPa) = 18.27592 24.06697 21.17144
# Shear Modulus (GPa) = 9.47309 18.59619 14.03464
#
# Velocity S-wave (km/s) = 2.09089 2.92952 2.54499
# Velocity P-wave (km/s) = 3.77669 4.74865 4.29028
#
# Compressibility (1/GPa) = 0.05471681
#
# Stress axis : x y z
#
# Youngs Moduli (GPa) = 46.38553 110.23737 38.42809
#
# Poissons Ratio (x) = -0.12098 -0.05646
# Poissons Ratio (y) = -0.05091 0.13582
# Poissons Ratio (z) = -0.06815 0.38962
#
# Static dielectric constant tensor:
#      x y z
#    x 1.826670 0.000000 0.000000 
#    y 0.000000 1.808830 0.000000 
#    z 0.000000 0.000000 1.775010 
# 
# From -- ./inp_files/51297.got.cif
#   From: 2010.05.17/outbox.cif.g08.bks.cpg/sg63_26_cif.got.tgz:51297.got - 2010.06.03 15:47:04.
