data_PCOD9470263
_publ_section_title
;
Structure prediction by ZEFSAII (Michael W. Deem and Ramdas Pophale) SiO2 
 PCOD9470263
Probable space group: C M C M
;
_chemical_formula_sum "Si O2"
_cell_formula_units_Z 96
_cell_length_a 12.792845
_cell_length_b 23.936204
_cell_length_c 19.141706
_cell_angle_alpha 90.000000
_cell_angle_beta 90.000000
_cell_angle_gamma 90.000000
_cell_volume 5861.422904
_symmetry_space_group_name_H-M "C M C M"
_symmetry_group_IT_number 63
_symmetry_cell_setting 'orthorhombic'
loop_
_space_group_symop_operation_xyz
x,y,z
-x,-y,1/2+z
x,-y,-z
-x,y,1/2-z
-x,-y,-z
x,y,1/2-z
-x,y,z
x,-y,1/2+z
1/2+x,1/2+y,z
1/2-x,1/2-y,1/2+z
1/2+x,1/2-y,-z
1/2-x,1/2+y,1/2-z
1/2-x,1/2-y,-z
1/2+x,1/2+y,1/2-z
1/2-x,1/2+y,z
1/2+x,1/2-y,1/2+z
loop_
_atom_site_type_symbol
_atom_site_label
_atom_site_fract_x
_atom_site_fract_y
_atom_site_fract_z
Si Si1 0.881900 0.739891 0.168879
Si Si2 0.379559 0.306174 0.550337
Si Si3 0.880963 0.466356 0.665337
Si Si4 0.125118 0.404132 0.330889
Si Si5 0.763497 0.866825 0.668429
Si Si6 0.272743 0.810221 0.424924
O O1 0.882067 0.756493 0.250000
O O2 0.828396 0.679447 0.165297
O O3 0.812788 0.781942 0.125154
O O4 0.000000 0.737528 0.142883
O O5 0.500000 0.313825 0.529289
O O6 0.354023 0.341000 0.620498
O O7 0.355207 0.239954 0.560743
O O8 0.291588 0.324932 0.494592
O O9 0.884666 0.461312 0.750000
O O10 0.855965 0.530968 0.650472
O O11 0.791119 0.423692 0.642311
O O12 0.000000 0.453719 0.640542
O O13 0.159376 0.394641 0.250000
O O14 0.176627 0.361820 0.384908
O O15 0.000000 0.396392 0.331842
O O16 0.794792 0.872606 0.750000
#
# Coordination Sequence:
#
# PCOD9470263 Si02
#       6
#    16  16  16  16  16  16
#     4   9  16  26  44  70  95 120 152 189 228 273
#     4  10  21  34  48  67  92 126 162 197 239 280
#     4   8  14  27  49  75  99 121 147 185 234 282
#     4   9  17  30  51  77 101 124 150 185 231 280
#     4   9  17  30  49  71  93 120 156 197 238 279
#     4  10  19  32  48  67  96 127 157 191 233 285
#
# _framework density 16.378274999999999
#
# number of rings (size 3 to 8) (size 9 to 14) (size 15 to 20)
#    0.000    2.833    0.000    3.000    0.000    3.000 
#    0.000    3.333    0.000    5.000    0.000    4.667 
#    0.000    0.000    0.000    0.000    0.000    0.000 
#
# Total GULP energy -267342.567318 kJ/mol
# GULP energy per Si atom -5569.636819 kJ/mol
# Density = 1.634100 g / cm^3
# Si number density = 16.378275 Si / 1000 Ang^3
#
#
#
# Elastic Constant Matrix: (Units=GPa)
#
#
# Indices 1 2 3 4 5 6 
#
# 1 50.9445 23.3987 23.0149 0.0000 0.0000 0.0000
# 2 23.3987 58.6656 38.6662 0.0000 0.0000 0.0000
# 3 23.0149 38.6662 54.0172 0.0000 0.0000 0.0000
# 4 0.0000 0.0000 0.0000 13.4418 0.0000 0.0000
# 5 0.0000 0.0000 0.0000 0.0000 17.0091 0.0000
# 6 0.0000 0.0000 0.0000 0.0000 0.0000 9.5610
#
#
#
# Elastic Compliance Matrix: (Units=1/GPa)
#
#
# Indices 1 2 3 4 5 6 
#
# 1 0.025258 -0.005644 -0.006722 0.000000 0.000000 0.000000
# 2 -0.005644 0.033532 -0.021598 0.000000 0.000000 0.000000
# 3 -0.006722 -0.021598 0.036836 0.000000 0.000000 0.000000
# 4 0.000000 0.000000 0.000000 0.074395 0.000000 0.000000
# 5 0.000000 0.000000 0.000000 0.000000 0.058792 0.000000
# 6 0.000000 0.000000 0.000000 0.000000 0.000000 0.104592
#
#
# Mechanical properties :
#
#
# Convention : Reuss Voigt Hill
#
# Bulk Modulus (GPa) = 36.10161 37.08745 36.59453
# Shear Modulus (GPa) = 12.17834 13.23887 12.70861
#
# Velocity S-wave (km/s) = 2.72980 2.84618 2.78860
# Velocity P-wave (km/s) = 5.65915 5.78744 5.72365
#
# Compressibility (1/GPa) = 0.02769960
#
# Stress axis : x y z
#
# Youngs Moduli (GPa) = 39.59132 29.82239 27.14707
#
# Poissons Ratio (x) = 0.16832 0.18247
# Poissons Ratio (y) = 0.22345 0.58632
# Poissons Ratio (z) = 0.26612 0.64410
#
# Static dielectric constant tensor:
#      x y z
#    x 1.531540 0.000000 0.000000 
#    y 0.000000 1.544110 0.000000 
#    z 0.000000 0.000000 1.586720 
# 
# From -- ./inp_files/52858.got.cif
#   From: 2010.05.17/outbox.cif.g08.bks.cpg/sg63_27_cif.got.tgz:52858.got - 2010.06.03 15:47:04.
