data_PCOD9470943
_publ_section_title
;
Structure prediction by ZEFSAII (Michael W. Deem and Ramdas Pophale) SiO2 
 PCOD9470943
Probable space group: C M C M
;
_chemical_formula_sum "Si O2"
_cell_formula_units_Z 80
_cell_length_a 13.951425
_cell_length_b 16.931137
_cell_length_c 14.985010
_cell_angle_alpha 90.000000
_cell_angle_beta 90.000000
_cell_angle_gamma 90.000000
_cell_volume 3539.661480
_symmetry_space_group_name_H-M "C M C M"
_symmetry_group_IT_number 63
_symmetry_cell_setting 'orthorhombic'
loop_
_space_group_symop_operation_xyz
x,y,z
-x,-y,1/2+z
x,-y,-z
-x,y,1/2-z
-x,-y,-z
x,y,1/2-z
-x,y,z
x,-y,1/2+z
1/2+x,1/2+y,z
1/2-x,1/2-y,1/2+z
1/2+x,1/2-y,-z
1/2-x,1/2+y,1/2-z
1/2-x,1/2-y,-z
1/2+x,1/2+y,1/2-z
1/2-x,1/2+y,z
1/2+x,1/2-y,1/2+z
loop_
_atom_site_type_symbol
_atom_site_label
_atom_site_fract_x
_atom_site_fract_y
_atom_site_fract_z
Si Si1 0.115485 0.104721 0.352234
Si Si2 0.109270 0.508730 0.606823
Si Si3 0.884950 0.201395 0.517322
Si Si4 0.384007 0.829408 0.652595
Si Si5 0.693190 0.567760 0.853309
O O1 0.143356 0.119874 0.250000
O O2 0.145891 0.173875 0.419128
O O3 0.158141 0.020089 0.379947
O O4 0.000000 0.097658 0.355393
O O5 0.110985 0.500000 0.500000
O O6 0.135067 0.422386 0.644961
O O7 0.191817 0.567978 0.636612
O O8 0.000000 0.529105 0.633041
O O9 0.851248 0.281311 0.565591
O O10 0.000000 0.205965 0.513002
O O11 0.854902 0.131724 0.584074
O O12 0.350923 0.799443 0.750000
O O13 0.500000 0.823010 0.652762
O O14 0.666193 0.579352 0.750000
#
# Coordination Sequence:
#
# PCOD9470943 Si02
#       5
#    16  16  16  16  16
#     4   9  18  32  51  78 115 156 189 221 273 341
#     4  10  21  38  59  80 106 146 195 239 279 328
#     4  10  19  33  57  88 118 145 180 231 285 335
#     4   9  18  34  57  84 113 146 185 231 281 328
#     4  11  21  33  53  82 115 150 189 231 279 335
#
# _framework density 22.601032
#
# number of rings (size 3 to 8) (size 9 to 14) (size 15 to 20)
#    0.000    2.200    0.000    3.600    0.000    4.800 
#    0.000    4.000    0.000    4.800    0.000   15.400 
#    0.000    4.800    0.000    0.000    0.000    0.000 
#
# Total GULP energy -223648.908191 kJ/mol
# GULP energy per Si atom -5591.222705 kJ/mol
# Density = 2.254959 g / cm^3
# Si number density = 22.601032 Si / 1000 Ang^3
#
#
#
# Elastic Constant Matrix: (Units=GPa)
#
#
# Indices 1 2 3 4 5 6 
#
# 1 81.8760 7.7372 -11.7690 0.0000 0.0000 0.0000
# 2 7.7372 1.8028 3.0228 0.0000 0.0000 0.0000
# 3 -11.7690 3.0228 74.4566 0.0000 0.0000 0.0000
# 4 0.0000 0.0000 0.0000 26.6490 0.0000 0.0000
# 5 0.0000 0.0000 0.0000 0.0000 2.9702 0.0000
# 6 0.0000 0.0000 0.0000 0.0000 0.0000 22.8556
#
#
#
# Elastic Compliance Matrix: (Units=1/GPa)
#
#
# Indices 1 2 3 4 5 6 
#
# 1 0.025095 -0.122705 0.008948 0.000000 0.000000 0.000000
# 2 -0.122705 1.195174 -0.067917 0.000000 0.000000 0.000000
# 3 0.008948 -0.067917 0.017602 0.000000 0.000000 0.000000
# 4 0.000000 0.000000 0.000000 0.037525 0.000000 0.000000
# 5 0.000000 0.000000 0.000000 0.000000 0.336682 0.000000
# 6 0.000000 0.000000 0.000000 0.000000 0.000000 0.043753
#
#
# Mechanical properties :
#
#
# Convention : Reuss Voigt Hill
#
# Bulk Modulus (GPa) = 1.14348 17.34637 9.24492
# Shear Modulus (GPa) = 2.16386 21.10458 11.63422
#
# Velocity S-wave (km/s) = 0.97954 3.05911 2.27130
# Velocity P-wave (km/s) = 1.33655 4.49102 3.31328
#
# Compressibility (1/GPa) = 0.87452429
#
# Stress axis : x y z
#
# Youngs Moduli (GPa) = 39.84799 0.83670 56.81071
#
# Poissons Ratio (x) = 0.10267 -0.50836
# Poissons Ratio (y) = 4.88956 3.85840
# Poissons Ratio (z) = -0.35657 0.05683
#
# Static dielectric constant tensor:
#      x y z
#    x 1.853700 0.000000 0.000000 
#    y 0.000000 1.808000 0.000000 
#    z 0.000000 0.000000 1.847310 
# 
# From -- ./inp_files/31641.got.cif
#   From: 2010.05.17/outbox.cif.g08.bks.cpg/sg63_16_cif.got.tgz:31641.got - 2010.06.03 15:47:04.
