data_PCOD9470767
_publ_section_title
;
Structure prediction by ZEFSAII (Michael W. Deem and Ramdas Pophale) SiO2 
 PCOD9470767
Probable space group: C M C M
;
_chemical_formula_sum "Si O2"
_cell_formula_units_Z 112
_cell_length_a 24.182246
_cell_length_b 25.815422
_cell_length_c 7.449812
_cell_angle_alpha 90.000000
_cell_angle_beta 90.000000
_cell_angle_gamma 90.000000
_cell_volume 4650.730533
_symmetry_space_group_name_H-M "C M C M"
_symmetry_group_IT_number 63
_symmetry_cell_setting 'orthorhombic'
loop_
_space_group_symop_operation_xyz
x,y,z
-x,-y,1/2+z
x,-y,-z
-x,y,1/2-z
-x,-y,-z
x,y,1/2-z
-x,y,z
x,-y,1/2+z
1/2+x,1/2+y,z
1/2-x,1/2-y,1/2+z
1/2+x,1/2-y,-z
1/2-x,1/2+y,1/2-z
1/2-x,1/2-y,-z
1/2+x,1/2+y,1/2-z
1/2-x,1/2+y,z
1/2+x,1/2-y,1/2+z
loop_
_atom_site_type_symbol
_atom_site_label
_atom_site_fract_x
_atom_site_fract_y
_atom_site_fract_z
Si Si1 0.938950 0.137249 0.969109
Si Si2 0.178111 0.556516 0.965238
Si Si3 0.440683 0.079448 0.968550
Si Si4 0.939083 0.700475 0.964069
Si Si5 0.144871 0.940669 0.037070
Si Si6 0.761741 0.859274 0.468905
Si Si7 0.847446 0.780320 0.463611
O O1 0.940590 0.139603 0.750000
O O2 0.913787 0.082028 0.024217
O O3 0.894839 0.179808 0.027939
O O4 0.000000 0.146502 0.036240
O O5 0.177056 0.560929 0.750000
O O6 0.115640 0.554709 0.036265
O O7 0.207166 0.609792 0.029764
O O8 0.205248 0.500000 0.000000
O O9 0.440661 0.076347 0.750000
O O10 0.500000 0.059214 0.032501
O O11 0.437912 0.140330 0.015034
O O12 0.942260 0.703280 0.750000
O O13 0.000000 0.721726 0.031421
O O14 0.879748 0.726623 0.006632
O O15 0.145897 0.934696 0.250000
O O16 0.192167 0.901645 0.975426
O O17 0.154026 0.000000 0.000000
O O18 0.757546 0.856217 0.250000
O O19 0.788333 0.803976 0.530087
O O20 0.843241 0.784906 0.250000
#
# Coordination Sequence:
#
# PCOD9470767 Si02
#       7
#    16  16  16  16  16  16  16
#     4   8  14  24  37  53  75 105 140 177 219 269
#     4  10  19  33  54  75  97 128 165 202 242 290
#     4   8  16  32  52  73  99 132 164 192 234 299
#     4   9  17  30  48  70  97 128 162 200 243 291
#     4   9  16  26  39  54  75 104 139 179 222 268
#     4   8  16  30  46  66  92 122 155 192 236 286
#     4   9  16  28  47  68  90 120 160 198 233 280
#
# _framework density 24.082238
#
# number of rings (size 3 to 8) (size 9 to 14) (size 15 to 20)
#    0.000    3.286    0.000    3.429    0.000    1.429 
#    0.000    5.000    0.000    1.714    0.000    0.000 
#    0.000    0.000    0.000    0.000    0.000    0.000 
#
# Total GULP energy -311865.413703 kJ/mol
# GULP energy per Si atom -5569.025245 kJ/mol
# Density = 2.402743 g / cm^3
# Si number density = 24.082238 Si / 1000 Ang^3
#
#
#
# Elastic Constant Matrix: (Units=GPa)
#
#
# Indices 1 2 3 4 5 6 
#
# 1 112.9273 41.8532 5.2846 0.0000 0.0000 0.0000
# 2 41.8532 95.7659 -6.9207 0.0000 0.0000 0.0000
# 3 5.2846 -6.9207 68.8087 0.0000 0.0000 0.0000
# 4 0.0000 0.0000 0.0000 -4.0008 0.0000 0.0000
# 5 0.0000 0.0000 0.0000 0.0000 -0.8895 0.0000
# 6 0.0000 0.0000 0.0000 0.0000 0.0000 8.9859
#
#
#
# Elastic Compliance Matrix: (Units=1/GPa)
#
#
# Indices 1 2 3 4 5 6 
#
# 1 0.010681 -0.004762 -0.001299 0.000000 0.000000 0.000000
# 2 -0.004762 0.012642 0.001637 0.000000 0.000000 0.000000
# 3 -0.001299 0.001637 0.014797 0.000000 0.000000 0.000000
# 4 0.000000 0.000000 0.000000 -0.249951 0.000000 0.000000
# 5 0.000000 0.000000 0.000000 0.000000 -1.124278 0.000000
# 6 0.000000 0.000000 0.000000 0.000000 0.000000 0.111286
#
#
# Mechanical properties :
#
#
# Convention : Reuss Voigt Hill
#
# Bulk Modulus (GPa) = 34.16217 39.77067 36.96642
# Shear Modulus (GPa) = -4.14519 16.63811 6.24646
#
# Velocity S-wave (km/s) = -1.31339 2.63133 1.61228
# Velocity P-wave (km/s) = 3.45202 5.07762 4.34158
#
# Compressibility (1/GPa) = 0.02927214
#
# Stress axis : x y z
#
# Youngs Moduli (GPa) = 93.62515 79.10426 67.57905
#
# Poissons Ratio (x) = 0.37668 0.08780
# Poissons Ratio (y) = 0.44583 -0.11064
# Poissons Ratio (z) = 0.12164 -0.12951
#
# Static dielectric constant tensor:
#      x y z
#    x 1.993180 0.000000 0.000000 
#    y 0.000000 2.005720 0.000000 
#    z 0.000000 0.000000 1.748000 
# 
# From -- ./inp_files/24193.got.cif
#   From: 2010.05.17/outbox.cif.g08.bks.cpg/sg63_13_cif.got.tgz:24193.got - 2010.06.03 15:47:04.
