data_PCOD9470166
_publ_section_title
;
Structure prediction by ZEFSAII (Michael W. Deem and Ramdas Pophale) SiO2 
 PCOD9470166
Probable space group: C M C M
;
_chemical_formula_sum "Si O2"
_cell_formula_units_Z 72
_cell_length_a 29.662749
_cell_length_b 14.286846
_cell_length_c 8.741166
_cell_angle_alpha 90.000000
_cell_angle_beta 90.000000
_cell_angle_gamma 90.000000
_cell_volume 3704.393625
_symmetry_space_group_name_H-M "C M C M"
_symmetry_group_IT_number 63
_symmetry_cell_setting 'orthorhombic'
loop_
_space_group_symop_operation_xyz
x,y,z
-x,-y,1/2+z
x,-y,-z
-x,y,1/2-z
-x,-y,-z
x,y,1/2-z
-x,y,z
x,-y,1/2+z
1/2+x,1/2+y,z
1/2-x,1/2-y,1/2+z
1/2+x,1/2-y,-z
1/2-x,1/2+y,1/2-z
1/2-x,1/2-y,-z
1/2+x,1/2+y,1/2-z
1/2-x,1/2+y,z
1/2+x,1/2-y,1/2+z
loop_
_atom_site_type_symbol
_atom_site_label
_atom_site_fract_x
_atom_site_fract_y
_atom_site_fract_z
Si Si1 0.769899 0.894172 0.566435
Si Si2 0.585640 0.210906 0.934505
Si Si3 0.000000 0.395694 0.931794
Si Si4 0.678206 0.104635 0.567121
Si Si5 0.370830 0.396651 0.565996
O O1 0.765876 0.895190 0.750000
O O2 0.724535 0.850969 0.496727
O O3 0.820211 0.860482 0.526218
O O4 0.769872 0.000000 0.500000
O O5 0.580033 0.207553 0.750000
O O6 0.632521 0.158742 0.971310
O O7 0.593116 0.318803 0.981500
O O8 0.544013 0.159665 0.011381
O O9 0.000000 0.402225 0.750000
O O10 0.000000 0.500000 0.000000
O O11 0.682163 0.100197 0.750000
O O12 0.674414 0.000000 0.500000
O O13 0.377538 0.500000 0.500000
O O14 0.371743 0.403189 0.750000
#
# Coordination Sequence:
#
# PCOD9470166 Si02
#       5
#    16  16   8  16  16
#     4   9  16  28  48  75 110 150 188 227 273 323
#     4  10  22  40  60  83 113 148 187 233 285 336
#     4  12  26  44  67  92 115 142 179 224 280 340
#     4  10  19  31  50  77 110 148 188 230 277 331
#     4   9  19  36  57  82 114 152 191 232 278 327
#
# _framework density 19.436378000000001
#
# number of rings (size 3 to 8) (size 9 to 14) (size 15 to 20)
#    0.000    2.222    0.000    4.333    0.000    6.222 
#    0.000    0.556    0.000    0.000    0.000    0.000 
#    0.000    0.000    0.000    0.000    0.000    0.000 
#
# Total GULP energy -200958.141160 kJ/mol
# GULP energy per Si atom -5582.170588 kJ/mol
# Density = 1.939214 g / cm^3
# Si number density = 19.436378 Si / 1000 Ang^3
#
#
#
# Elastic Constant Matrix: (Units=GPa)
#
#
# Indices 1 2 3 4 5 6 
#
# 1 153.3250 95.1761 63.3834 0.0000 0.0000 0.0000
# 2 95.1761 133.6660 46.4933 0.0000 0.0000 0.0000
# 3 63.3834 46.4933 57.0137 0.0000 0.0000 0.0000
# 4 0.0000 0.0000 0.0000 14.3761 0.0000 0.0000
# 5 0.0000 0.0000 0.0000 0.0000 28.5438 0.0000
# 6 0.0000 0.0000 0.0000 0.0000 0.0000 35.7995
#
#
#
# Elastic Compliance Matrix: (Units=1/GPa)
#
#
# Indices 1 2 3 4 5 6 
#
# 1 0.015846 -0.007197 -0.011747 0.000000 0.000000 0.000000
# 2 -0.007197 0.013712 -0.003181 0.000000 0.000000 0.000000
# 3 -0.011747 -0.003181 0.033193 0.000000 0.000000 0.000000
# 4 0.000000 0.000000 0.000000 0.069560 0.000000 0.000000
# 5 0.000000 0.000000 0.000000 0.000000 0.035034 0.000000
# 6 0.000000 0.000000 0.000000 0.000000 0.000000 0.027933
#
#
# Mechanical properties :
#
#
# Convention : Reuss Voigt Hill
#
# Bulk Modulus (GPa) = 54.05103 83.79005 68.92054
# Shear Modulus (GPa) = 20.35038 25.00735 22.67887
#
# Velocity S-wave (km/s) = 3.23929 3.59085 3.41959
# Velocity P-wave (km/s) = 6.46995 7.77147 7.15038
#
# Compressibility (1/GPa) = 0.01850104
#
# Stress axis : x y z
#
# Youngs Moduli (GPa) = 63.10879 72.92735 30.12642
#
# Poissons Ratio (x) = 0.52484 0.35390
# Poissons Ratio (y) = 0.45418 0.09584
# Poissons Ratio (z) = 0.74135 0.23200
#
# Static dielectric constant tensor:
#      x y z
#    x 1.687610 0.000000 0.000000 
#    y 0.000000 1.645320 0.000000 
#    z 0.000000 0.000000 1.651590 
# 
# From -- ./inp_files/11736.got.cif
#   From: 2010.05.17/outbox.cif.g08.bks.cpg/sg63_6_cif.got.tgz:11736.got - 2010.06.03 15:47:04.
