data_PCOD9470638
_publ_section_title
;
Structure prediction by ZEFSAII (Michael W. Deem and Ramdas Pophale) SiO2 
 PCOD9470638
Probable space group: C M C M
;
_chemical_formula_sum "Si O2"
_cell_formula_units_Z 96
_cell_length_a 7.614354
_cell_length_b 26.359446
_cell_length_c 24.203815
_cell_angle_alpha 90.000000
_cell_angle_beta 90.000000
_cell_angle_gamma 90.000000
_cell_volume 4857.951414
_symmetry_space_group_name_H-M "C M C M"
_symmetry_group_IT_number 63
_symmetry_cell_setting 'orthorhombic'
loop_
_space_group_symop_operation_xyz
x,y,z
-x,-y,1/2+z
x,-y,-z
-x,y,1/2-z
-x,-y,-z
x,y,1/2-z
-x,y,z
x,-y,1/2+z
1/2+x,1/2+y,z
1/2-x,1/2-y,1/2+z
1/2+x,1/2-y,-z
1/2-x,1/2+y,1/2-z
1/2-x,1/2-y,-z
1/2+x,1/2+y,1/2-z
1/2-x,1/2+y,z
1/2+x,1/2-y,1/2+z
loop_
_atom_site_type_symbol
_atom_site_label
_atom_site_fract_x
_atom_site_fract_y
_atom_site_fract_z
Si Si1 0.290858 0.937973 0.750000
Si Si2 0.708901 0.405249 0.871268
Si Si3 0.212871 0.995678 0.063465
Si Si4 0.216025 0.445009 0.250000
Si Si5 0.290150 0.309066 0.562545
Si Si6 0.707337 0.898084 0.135475
Si Si7 0.712480 0.805461 0.435414
O O1 0.500000 0.940637 0.750000
O O2 0.236173 0.910397 0.806112
O O3 0.225065 0.996293 0.750000
O O4 0.500000 0.405044 0.881392
O O5 0.777064 0.455977 0.901357
O O6 0.780121 0.353934 0.898893
O O7 0.271027 0.944057 0.092502
O O8 0.000000 0.995570 0.064009
O O9 0.269884 0.000000 0.000000
O O10 0.276868 0.416910 0.194489
O O11 0.000000 0.445829 0.250000
O O12 0.500000 0.306556 0.570659
O O13 0.221947 0.252085 0.573284
O O14 0.258215 0.320856 0.498101
O O15 0.500000 0.889608 0.143766
O O16 0.779560 0.846878 0.108011
O O17 0.500000 0.804619 0.432457
#
# Coordination Sequence:
#
# PCOD9470638 Si02
#       7
#     8  16  16   8  16  16  16
#     4  11  21  35  54  73  99 137 175 209 254 301
#     4  10  20  34  52  74 103 135 170 209 250 301
#     4  10  20  32  48  73 102 131 163 202 250 300
#     4   9  18  33  50  69  97 133 165 203 250 293
#     4   9  18  34  54  76 104 136 168 206 254 304
#     4  10  19  33  51  73 101 130 166 207 249 297
#     4   9  18  32  53  79 103 132 170 209 252 302
#
# _framework density 19.761417000000002
#
# number of rings (size 3 to 8) (size 9 to 14) (size 15 to 20)
#    0.000    2.333    1.667    1.250    0.000    3.000 
#    0.000    1.250    0.000    4.000    0.000    0.000 
#    0.000    0.000    0.000    0.000    0.000    0.000 
#
# Total GULP energy -267962.047251 kJ/mol
# GULP energy per Si atom -5582.542651 kJ/mol
# Density = 1.971644 g / cm^3
# Si number density = 19.761417 Si / 1000 Ang^3
#
#
#
# Elastic Constant Matrix: (Units=GPa)
#
#
# Indices 1 2 3 4 5 6 
#
# 1 33.4637 5.4796 -6.3658 0.0000 0.0000 0.0000
# 2 5.4796 117.6501 53.7175 0.0000 0.0000 0.0000
# 3 -6.3658 53.7175 90.7280 0.0000 0.0000 0.0000
# 4 0.0000 0.0000 0.0000 32.9580 0.0000 0.0000
# 5 0.0000 0.0000 0.0000 0.0000 15.2436 0.0000
# 6 0.0000 0.0000 0.0000 0.0000 0.0000 12.0925
#
#
#
# Elastic Compliance Matrix: (Units=1/GPa)
#
#
# Indices 1 2 3 4 5 6 
#
# 1 0.031230 -0.003365 0.004183 0.000000 0.000000 0.000000
# 2 -0.003365 0.012011 -0.007348 0.000000 0.000000 0.000000
# 3 0.004183 -0.007348 0.015666 0.000000 0.000000 0.000000
# 4 0.000000 0.000000 0.000000 0.030342 0.000000 0.000000
# 5 0.000000 0.000000 0.000000 0.000000 0.065601 0.000000
# 6 0.000000 0.000000 0.000000 0.000000 0.000000 0.082696
#
#
# Mechanical properties :
#
#
# Convention : Reuss Voigt Hill
#
# Bulk Modulus (GPa) = 21.81072 38.61163 30.21117
# Shear Modulus (GPa) = 18.80501 24.65952 21.73226
#
# Velocity S-wave (km/s) = 3.08815 3.53634 3.31982
# Velocity P-wave (km/s) = 4.87612 6.02126 5.47869
#
# Compressibility (1/GPa) = 0.04584902
#
# Stress axis : x y z
#
# Youngs Moduli (GPa) = 32.02069 83.25481 63.83335
#
# Poissons Ratio (x) = 0.28012 -0.26703
# Poissons Ratio (y) = 0.10774 0.46902
# Poissons Ratio (z) = -0.13395 0.61173
#
# Static dielectric constant tensor:
#      x y z
#    x 1.741540 0.000000 0.000000 
#    y 0.000000 1.700540 0.000000 
#    z 0.000000 0.000000 1.609840 
# 
# From -- ./inp_files/59987.got.cif
#   From: 2010.05.17/outbox.cif.g08.bks.cpg/sg63_30_cif.got.tgz:59987.got - 2010.06.03 15:47:04.
