data_PCOD9470235
_publ_section_title
;
Structure prediction by ZEFSAII (Michael W. Deem and Ramdas Pophale) SiO2 
 PCOD9470235
Probable space group: C M C M
;
_chemical_formula_sum "Si O2"
_cell_formula_units_Z 112
_cell_length_a 15.056385
_cell_length_b 22.171256
_cell_length_c 16.560803
_cell_angle_alpha 90.000000
_cell_angle_beta 90.000000
_cell_angle_gamma 90.000000
_cell_volume 5528.310138
_symmetry_space_group_name_H-M "C M C M"
_symmetry_group_IT_number 63
_symmetry_cell_setting 'orthorhombic'
loop_
_space_group_symop_operation_xyz
x,y,z
-x,-y,1/2+z
x,-y,-z
-x,y,1/2-z
-x,-y,-z
x,y,1/2-z
-x,y,z
x,-y,1/2+z
1/2+x,1/2+y,z
1/2-x,1/2-y,1/2+z
1/2+x,1/2-y,-z
1/2-x,1/2+y,1/2-z
1/2-x,1/2-y,-z
1/2+x,1/2+y,1/2-z
1/2-x,1/2+y,z
1/2+x,1/2-y,1/2+z
loop_
_atom_site_type_symbol
_atom_site_label
_atom_site_fract_x
_atom_site_fract_y
_atom_site_fract_z
Si Si1 0.646384 0.858977 0.841180
Si Si2 0.401108 0.480147 0.342770
Si Si3 0.151953 0.113522 0.125847
Si Si4 0.905966 0.755301 0.844426
Si Si5 0.599189 0.072632 0.501161
Si Si6 0.289526 0.391874 0.058065
Si Si7 0.208023 0.773034 0.152476
O O1 0.609858 0.864069 0.750000
O O2 0.749246 0.879673 0.838305
O O3 0.603012 0.899077 0.910905
O O4 0.652989 0.787973 0.865316
O O5 0.389910 0.460880 0.250000
O O6 0.500000 0.462342 0.370190
O O7 0.391939 0.551878 0.347170
O O8 0.326810 0.450602 0.397857
O O9 0.098455 0.172443 0.150538
O O10 0.167799 0.112582 0.030040
O O11 0.905835 0.737827 0.750000
O O12 0.810110 0.735990 0.877191
O O13 0.000000 0.734299 0.880808
O O14 0.500000 0.084019 0.534570
O O15 0.683071 0.101594 0.547525
O O16 0.612196 0.000000 0.500000
O O17 0.320181 0.334093 0.109485
O O18 0.207712 0.778726 0.250000
#
# Coordination Sequence:
#
# PCOD9470235 Si02
#       7
#    16  16  16  16  16  16  16
#     4   9  18  35  60  85 110 149 195 235 280 335
#     4  11  23  38  58  83 111 146 186 227 277 341
#     4  10  19  31  53  82 112 143 180 227 283 343
#     4   9  17  30  50  77 107 139 179 228 275 320
#     4  10  22  39  58  84 116 150 195 249 297 339
#     4  11  22  37  56  81 116 154 185 228 287 339
#     4   9  19  36  56  78 108 148 192 231 272 334
#
# _framework density 20.259354999999999
#
# number of rings (size 3 to 8) (size 9 to 14) (size 15 to 20)
#    0.000    2.143    0.000    5.143    0.000    8.857 
#    0.000    1.429    0.000    3.857    0.000    0.000 
#    0.000    0.000    0.000    0.000    0.000    0.000 
#
# Total GULP energy -312453.989086 kJ/mol
# GULP energy per Si atom -5579.535519 kJ/mol
# Density = 2.021324 g / cm^3
# Si number density = 20.259355 Si / 1000 Ang^3
#
#
#
# Elastic Constant Matrix: (Units=GPa)
#
#
# Indices 1 2 3 4 5 6 
#
# 1 60.5242 -4.0575 13.7763 0.0000 0.0000 0.0000
# 2 -4.0575 79.4665 32.3417 0.0000 0.0000 0.0000
# 3 13.7763 32.3417 53.1197 0.0000 0.0000 0.0000
# 4 0.0000 0.0000 0.0000 34.6389 0.0000 0.0000
# 5 0.0000 0.0000 0.0000 0.0000 -0.7596 0.0000
# 6 0.0000 0.0000 0.0000 0.0000 0.0000 -52.5066
#
#
#
# Elastic Compliance Matrix: (Units=1/GPa)
#
#
# Indices 1 2 3 4 5 6 
#
# 1 0.018396 0.003830 -0.007103 0.000000 0.000000 0.000000
# 2 0.003830 0.017527 -0.011664 0.000000 0.000000 0.000000
# 3 -0.007103 -0.011664 0.027769 0.000000 0.000000 0.000000
# 4 0.000000 0.000000 0.000000 0.028869 0.000000 0.000000
# 5 0.000000 0.000000 0.000000 0.000000 -1.316507 0.000000
# 6 0.000000 0.000000 0.000000 0.000000 0.000000 -0.019045
#
#
# Mechanical properties :
#
#
# Convention : Reuss Voigt Hill
#
# Bulk Modulus (GPa) = 29.57045 30.80350 30.18698
# Shear Modulus (GPa) = -4.16027 6.34453 1.09213
#
# Velocity S-wave (km/s) = -1.43456 1.77157 0.73501
# Velocity P-wave (km/s) = 3.44727 4.40706 3.95638
#
# Compressibility (1/GPa) = 0.03381754
#
# Stress axis : x y z
#
# Youngs Moduli (GPa) = 54.36032 57.05594 36.01111
#
# Poissons Ratio (x) = -0.21852 0.25578
# Poissons Ratio (y) = -0.20820 0.42004
# Poissons Ratio (z) = 0.38611 0.66552
#
# Static dielectric constant tensor:
#      x y z
#    x 1.748640 0.000000 0.000000 
#    y 0.000000 1.697900 0.000000 
#    z 0.000000 0.000000 1.721830 
# 
# From -- ./inp_files/32296.got.cif
#   From: 2010.05.17/outbox.cif.g08.bks.cpg/sg63_17_cif.got.tgz:32296.got - 2010.06.03 15:47:04.
