data_PCOD9470133
_publ_section_title
;
Structure prediction by ZEFSAII (Michael W. Deem and Ramdas Pophale) SiO2 
 PCOD9470133
Probable space group: C M C M
;
_chemical_formula_sum "Si O2"
_cell_formula_units_Z 80
_cell_length_a 8.327434
_cell_length_b 20.063607
_cell_length_c 26.929007
_cell_angle_alpha 90.000000
_cell_angle_beta 90.000000
_cell_angle_gamma 90.000000
_cell_volume 4499.254409
_symmetry_space_group_name_H-M "C M C M"
_symmetry_group_IT_number 63
_symmetry_cell_setting 'orthorhombic'
loop_
_space_group_symop_operation_xyz
x,y,z
-x,-y,1/2+z
x,-y,-z
-x,y,1/2-z
-x,-y,-z
x,y,1/2-z
-x,y,z
x,-y,1/2+z
1/2+x,1/2+y,z
1/2-x,1/2-y,1/2+z
1/2+x,1/2-y,-z
1/2-x,1/2+y,1/2-z
1/2-x,1/2-y,-z
1/2+x,1/2+y,1/2-z
1/2-x,1/2+y,z
1/2+x,1/2-y,1/2+z
loop_
_atom_site_type_symbol
_atom_site_label
_atom_site_fract_x
_atom_site_fract_y
_atom_site_fract_z
Si Si1 0.306110 0.926784 0.806324
Si Si2 0.807505 0.324877 0.109078
Si Si3 0.806399 0.326607 0.000599
Si Si4 0.692044 0.575957 0.806399
Si Si5 0.805418 0.327895 0.892078
O O1 0.250191 0.911829 0.750000
O O2 0.500000 0.924138 0.806051
O O3 0.247684 0.874626 0.847444
O O4 0.255669 0.002131 0.818398
O O5 0.747872 0.370474 0.153642
O O6 0.748971 0.248572 0.113890
O O7 0.000000 0.324379 0.109358
O O8 0.752575 0.352202 0.054644
O O9 0.752801 0.353676 0.946906
O O10 0.000000 0.329033 0.000576
O O11 0.750000 0.250000 0.000000
O O12 0.746905 0.592089 0.750000
O O13 0.500000 0.574047 0.806240
O O14 0.000000 0.328093 0.891397
#
# Coordination Sequence:
#
# PCOD9470133 Si02
#       5
#    16  16  16  16  16
#     4   9  18  33  52  72  95 125 160 198 241 287
#     4  10  19  31  50  75 100 127 162 202 240 282
#     4   8  15  28  46  69  97 129 161 193 235 283
#     4  10  21  36  52  69  93 127 163 199 243 293
#     4   9  17  31  51  74 101 131 162 198 239 285
#
# _framework density 17.780722999999998
#
# number of rings (size 3 to 8) (size 9 to 14) (size 15 to 20)
#    0.000    2.800    0.000    1.200    0.000    3.600 
#    0.000    3.000    0.000    6.000    0.000    0.000 
#    0.000    0.000    0.000    0.000    0.000    0.000 
#
# Total GULP energy -222750.364509 kJ/mol
# GULP energy per Si atom -5568.759113 kJ/mol
# Density = 1.774025 g / cm^3
# Si number density = 17.780723 Si / 1000 Ang^3
#
#
#
# Elastic Constant Matrix: (Units=GPa)
#
#
# Indices 1 2 3 4 5 6 
#
# 1 6.5093 9.4793 19.4716 0.0000 0.0000 0.0000
# 2 9.4793 82.1766 103.2939 0.0000 0.0000 0.0000
# 3 19.4716 103.2939 184.6029 0.0000 0.0000 0.0000
# 4 0.0000 0.0000 0.0000 -23.1924 0.0000 0.0000
# 5 0.0000 0.0000 0.0000 0.0000 17.3835 0.0000
# 6 0.0000 0.0000 0.0000 0.0000 0.0000 24.5749
#
#
#
# Elastic Compliance Matrix: (Units=1/GPa)
#
#
# Indices 1 2 3 4 5 6 
#
# 1 0.228667 0.013282 -0.031552 0.000000 0.000000 0.000000
# 2 0.013282 0.041791 -0.024785 0.000000 0.000000 0.000000
# 3 -0.031552 -0.024785 0.022613 0.000000 0.000000 0.000000
# 4 0.000000 0.000000 0.000000 -0.043118 0.000000 0.000000
# 5 0.000000 0.000000 0.000000 0.000000 0.057526 0.000000
# 6 0.000000 0.000000 0.000000 0.000000 0.000000 0.040692
#
#
# Mechanical properties :
#
#
# Convention : Reuss Voigt Hill
#
# Bulk Modulus (GPa) = 4.83178 59.75316 32.29247
# Shear Modulus (GPa) = 9.93507 13.15611 11.54559
#
# Velocity S-wave (km/s) = 2.36636 2.72308 2.55096
# Velocity P-wave (km/s) = 3.19211 6.60041 5.18435
#
# Compressibility (1/GPa) = 0.20696304
#
# Stress axis : x y z
#
# Youngs Moduli (GPa) = 4.37316 23.92876 44.22172
#
# Poissons Ratio (x) = -0.31783 1.39526
# Poissons Ratio (y) = -0.05809 1.09603
# Poissons Ratio (z) = 0.13798 0.59307
#
# Static dielectric constant tensor:
#      x y z
#    x 1.612380 0.000000 0.000000 
#    y 0.000000 1.549080 0.000000 
#    z 0.000000 0.000000 1.671090 
# 
# From -- ./inp_files/66570.got.cif
#   From: 2010.05.17/outbox.cif.g08.bks.cpg/sg63_34_cif.got.tgz:66570.got - 2010.06.03 15:47:04.
