data_PCOD9470387
_publ_section_title
;
Structure prediction by ZEFSAII (Michael W. Deem and Ramdas Pophale) SiO2 
 PCOD9470387
Probable space group: C M C M
;
_chemical_formula_sum "Si O2"
_cell_formula_units_Z 96
_cell_length_a 16.772059
_cell_length_b 17.186657
_cell_length_c 19.222932
_cell_angle_alpha 90.000000
_cell_angle_beta 90.000000
_cell_angle_gamma 90.000000
_cell_volume 5541.118282
_symmetry_space_group_name_H-M "C M C M"
_symmetry_group_IT_number 63
_symmetry_cell_setting 'orthorhombic'
loop_
_space_group_symop_operation_xyz
x,y,z
-x,-y,1/2+z
x,-y,-z
-x,y,1/2-z
-x,-y,-z
x,y,1/2-z
-x,y,z
x,-y,1/2+z
1/2+x,1/2+y,z
1/2-x,1/2-y,1/2+z
1/2+x,1/2-y,-z
1/2-x,1/2+y,1/2-z
1/2-x,1/2-y,-z
1/2+x,1/2+y,1/2-z
1/2-x,1/2+y,z
1/2+x,1/2-y,1/2+z
loop_
_atom_site_type_symbol
_atom_site_label
_atom_site_fract_x
_atom_site_fract_y
_atom_site_fract_z
Si Si1 0.410805 0.432984 0.331170
Si Si2 0.763195 0.688296 0.060954
Si Si3 0.177591 0.473512 0.166628
Si Si4 0.908167 0.565783 0.058704
Si Si5 0.736783 0.678209 0.667746
Si Si6 0.824037 0.038742 0.075758
O O1 0.397172 0.455345 0.250000
O O2 0.500000 0.401583 0.336562
O O3 0.344246 0.369146 0.349536
O O4 0.399378 0.505020 0.383319
O O5 0.842869 0.634932 0.052814
O O6 0.764727 0.740452 0.129578
O O7 0.688853 0.629449 0.064189
O O8 0.750000 0.750000 0.000000
O O9 0.180301 0.482011 0.250000
O O10 0.104987 0.518411 0.130815
O O11 0.191149 0.381840 0.149836
O O12 0.252694 0.513437 0.128010
O O13 0.000000 0.591917 0.052202
O O14 0.891968 0.500000 0.000000
O O15 0.738676 0.689238 0.750000
O O16 0.816311 0.000000 0.000000
#
# Coordination Sequence:
#
# PCOD9470387 Si02
#       6
#    16  16  16  16  16  16
#     4   9  18  34  53  72  99 133 166 203 249 300
#     4  11  20  32  51  74 102 133 165 207 255 304
#     4   9  17  33  54  73  97 129 167 205 244 299
#     4  10  21  36  53  73 100 135 173 213 254 296
#     4   9  18  31  50  75  99 127 160 200 253 304
#     4  10  19  32  51  74  98 131 174 210 242 291
#
# _framework density 17.325023000000002
#
# number of rings (size 3 to 8) (size 9 to 14) (size 15 to 20)
#    0.000    2.333    0.000    6.500    0.000    4.667 
#    0.000    0.833    0.000    1.000    0.000    0.000 
#    0.000    0.000    0.000    0.000    0.000    0.000 
#
# Total GULP energy -267226.149341 kJ/mol
# GULP energy per Si atom -5567.211445 kJ/mol
# Density = 1.728559 g / cm^3
# Si number density = 17.325023 Si / 1000 Ang^3
#
#
#
# Elastic Constant Matrix: (Units=GPa)
#
#
# Indices 1 2 3 4 5 6 
#
# 1 50.9823 29.0692 14.6379 0.0000 0.0000 0.0000
# 2 29.0692 121.0882 46.0150 0.0000 0.0000 0.0000
# 3 14.6379 46.0150 75.6867 0.0000 0.0000 0.0000
# 4 0.0000 0.0000 0.0000 39.0402 0.0000 0.0000
# 5 0.0000 0.0000 0.0000 0.0000 15.8385 0.0000
# 6 0.0000 0.0000 0.0000 0.0000 0.0000 18.8931
#
#
#
# Elastic Compliance Matrix: (Units=1/GPa)
#
#
# Indices 1 2 3 4 5 6 
#
# 1 0.022840 -0.004948 -0.001409 0.000000 0.000000 0.000000
# 2 -0.004948 0.011811 -0.006224 0.000000 0.000000 0.000000
# 3 -0.001409 -0.006224 0.017269 0.000000 0.000000 0.000000
# 4 0.000000 0.000000 0.000000 0.025615 0.000000 0.000000
# 5 0.000000 0.000000 0.000000 0.000000 0.063137 0.000000
# 6 0.000000 0.000000 0.000000 0.000000 0.000000 0.052929
#
#
# Mechanical properties :
#
#
# Convention : Reuss Voigt Hill
#
# Bulk Modulus (GPa) = 37.37114 47.46682 42.41898
# Shear Modulus (GPa) = 21.96028 25.29001 23.62515
#
# Velocity S-wave (km/s) = 3.56412 3.82480 3.69676
# Velocity P-wave (km/s) = 6.20925 6.85294 6.53902
#
# Compressibility (1/GPa) = 0.02675861
#
# Stress axis : x y z
#
# Youngs Moduli (GPa) = 43.78213 84.66377 57.90730
#
# Poissons Ratio (x) = 0.41888 0.08161
# Poissons Ratio (y) = 0.21662 0.36042
# Poissons Ratio (z) = 0.06171 0.52695
#
# Static dielectric constant tensor:
#      x y z
#    x 1.642800 0.000000 0.000000 
#    y 0.000000 1.600390 0.000000 
#    z 0.000000 0.000000 1.507400 
# 
# From -- ./inp_files/45725.got.cif
#   From: 2010.05.17/outbox.cif.g08.bks.cpg/sg63_23_cif.got.tgz:45725.got - 2010.06.03 15:47:04.
