data_PCOD9470782
_publ_section_title
;
Structure prediction by ZEFSAII (Michael W. Deem and Ramdas Pophale) SiO2 
 PCOD9470782
Probable space group: C M C M
;
_chemical_formula_sum "Si O2"
_cell_formula_units_Z 96
_cell_length_a 7.394037
_cell_length_b 20.071200
_cell_length_c 24.309603
_cell_angle_alpha 90.000000
_cell_angle_beta 90.000000
_cell_angle_gamma 90.000000
_cell_volume 3607.720003
_symmetry_space_group_name_H-M "C M C M"
_symmetry_group_IT_number 63
_symmetry_cell_setting 'orthorhombic'
loop_
_space_group_symop_operation_xyz
x,y,z
-x,-y,1/2+z
x,-y,-z
-x,y,1/2-z
-x,-y,-z
x,y,1/2-z
-x,y,z
x,-y,1/2+z
1/2+x,1/2+y,z
1/2-x,1/2-y,1/2+z
1/2+x,1/2-y,-z
1/2-x,1/2+y,1/2-z
1/2-x,1/2-y,-z
1/2+x,1/2+y,1/2-z
1/2-x,1/2+y,z
1/2+x,1/2-y,1/2+z
loop_
_atom_site_type_symbol
_atom_site_label
_atom_site_fract_x
_atom_site_fract_y
_atom_site_fract_z
Si Si1 0.704400 0.397100 0.310444
Si Si2 0.219480 0.689518 0.308598
Si Si3 0.705367 0.424366 0.956565
Si Si4 0.718634 0.774098 0.573626
Si Si5 0.221993 0.128258 0.566267
Si Si6 0.293741 0.041606 0.163976
O O1 0.782378 0.379890 0.250000
O O2 0.500000 0.368636 0.311088
O O3 0.784340 0.382031 0.371001
O O4 0.695325 0.477330 0.313700
O O5 0.280286 0.715532 0.250000
O O6 0.269848 0.730452 0.361865
O O7 0.278953 0.612987 0.316650
O O8 0.000000 0.687371 0.308784
O O9 0.500000 0.448875 0.956099
O O10 0.703930 0.344602 0.944693
O O11 0.793782 0.455277 0.902575
O O12 0.779465 0.424104 0.019026
O O13 0.500000 0.779050 0.569695
O O14 0.776209 0.703535 0.549045
O O15 0.000000 0.125486 0.566597
O O16 0.500000 0.036166 0.182870
#
# Coordination Sequence:
#
# PCOD9470782 Si02
#       6
#    16  16  16  16  16  16
#     4  10  21  37  56  78 105 138 175 212 254 310
#     4   8  14  25  45  72  97 124 162 209 256 300
#     4  10  19  33  54  78 105 136 173 218 267 314
#     4   9  17  31  51  76 106 138 174 214 259 314
#     4   9  19  34  52  76 107 142 174 209 259 318
#     4  10  20  35  54  76 104 136 175 222 268 313
#
# _framework density 26.609603
#
# number of rings (size 3 to 8) (size 9 to 14) (size 15 to 20)
#    0.000    2.667    0.000    3.000    0.000    2.333 
#    0.000   10.000    0.000    4.500    0.000    0.000 
#    0.000    0.000    0.000    0.000    0.000    0.000 
#
# Total GULP energy -268281.220899 kJ/mol
# GULP energy per Si atom -5589.192102 kJ/mol
# Density = 2.654904 g / cm^3
# Si number density = 26.609603 Si / 1000 Ang^3
#
#
#
# Elastic Constant Matrix: (Units=GPa)
#
#
# Indices 1 2 3 4 5 6 
#
# 1 97.8113 -3.7775 0.7861 0.0000 0.0000 0.0000
# 2 -3.7775 81.2131 12.0449 0.0000 0.0000 0.0000
# 3 0.7861 12.0449 189.4386 0.0000 0.0000 0.0000
# 4 0.0000 0.0000 0.0000 20.0824 0.0000 0.0000
# 5 0.0000 0.0000 0.0000 0.0000 -7.9140 0.0000
# 6 0.0000 0.0000 0.0000 0.0000 0.0000 9.2847
#
#
#
# Elastic Compliance Matrix: (Units=1/GPa)
#
#
# Indices 1 2 3 4 5 6 
#
# 1 0.010243 0.000487 -0.000073 0.000000 0.000000 0.000000
# 2 0.000487 0.012454 -0.000794 0.000000 0.000000 0.000000
# 3 -0.000073 -0.000794 0.005330 0.000000 0.000000 0.000000
# 4 0.000000 0.000000 0.000000 0.049795 0.000000 0.000000
# 5 0.000000 0.000000 0.000000 0.000000 -0.126359 0.000000
# 6 0.000000 0.000000 0.000000 0.000000 0.000000 0.107704
#
#
# Mechanical properties :
#
#
# Convention : Reuss Voigt Hill
#
# Bulk Modulus (GPa) = 36.67518 42.95223 39.81370
# Shear Modulus (GPa) = 72.44802 28.25127 50.34965
#
# Velocity S-wave (km/s) = 5.22354 3.26190 4.35462
# Velocity P-wave (km/s) = 7.08471 5.51029 6.34651
#
# Compressibility (1/GPa) = 0.02726640
#
# Stress axis : x y z
#
# Youngs Moduli (GPa) = 97.62596 80.29752 187.63359
#
# Poissons Ratio (x) = -0.03913 0.01379
# Poissons Ratio (y) = -0.04758 0.14895
# Poissons Ratio (z) = 0.00717 0.06374
#
# Static dielectric constant tensor:
#      x y z
#    x 2.030020 0.000000 0.000000 
#    y 0.000000 2.034730 0.000000 
#    z 0.000000 0.000000 2.143940 
# 
# From -- ./inp_files/59943.got.cif
#   From: 2010.05.17/outbox.cif.g08.bks.cpg/sg63_30_cif.got.tgz:59943.got - 2010.06.03 15:47:04.
