data_PCOD9470187
_publ_section_title
;
Structure prediction by ZEFSAII (Michael W. Deem and Ramdas Pophale) SiO2 
 PCOD9470187
Probable space group: C M C M
;
_chemical_formula_sum "Si O2"
_cell_formula_units_Z 112
_cell_length_a 13.484894
_cell_length_b 19.114328
_cell_length_c 25.741153
_cell_angle_alpha 90.000000
_cell_angle_beta 90.000000
_cell_angle_gamma 90.000000
_cell_volume 6634.902834
_symmetry_space_group_name_H-M "C M C M"
_symmetry_group_IT_number 63
_symmetry_cell_setting 'orthorhombic'
loop_
_space_group_symop_operation_xyz
x,y,z
-x,-y,1/2+z
x,-y,-z
-x,y,1/2-z
-x,-y,-z
x,y,1/2-z
-x,y,z
x,-y,1/2+z
1/2+x,1/2+y,z
1/2-x,1/2-y,1/2+z
1/2+x,1/2-y,-z
1/2-x,1/2+y,1/2-z
1/2-x,1/2-y,-z
1/2+x,1/2+y,1/2-z
1/2-x,1/2+y,z
1/2+x,1/2-y,1/2+z
loop_
_atom_site_type_symbol
_atom_site_label
_atom_site_fract_x
_atom_site_fract_y
_atom_site_fract_z
Si Si1 0.733507 0.044495 0.882797
Si Si2 0.112158 0.444237 0.952636
Si Si3 0.112918 0.770966 0.952664
Si Si4 0.382501 0.153256 0.689580
Si Si5 0.884657 0.191396 0.334530
Si Si6 0.247067 0.856225 0.477845
Si Si7 0.618614 0.462974 0.809522
O O1 0.675147 0.100002 0.847177
O O2 0.770175 0.085176 0.934430
O O3 0.658840 0.984874 0.904006
O O4 0.820994 0.009769 0.849817
O O5 0.000000 0.419054 0.942825
O O6 0.106362 0.500000 0.000000
O O7 0.187035 0.386377 0.974680
O O8 0.119132 0.808153 0.896928
O O9 0.186642 0.705308 0.953087
O O10 0.000000 0.747233 0.960035
O O11 0.149213 0.822673 0.997708
O O12 0.374218 0.133424 0.750000
O O13 0.500000 0.153110 0.675243
O O14 0.344430 0.233300 0.683265
O O15 0.845110 0.117760 0.314278
O O16 0.000000 0.192575 0.317622
O O17 0.633366 0.486229 0.750000
O O18 0.500000 0.464097 0.820298
#
# Coordination Sequence:
#
# PCOD9470187 Si02
#       7
#    16  16  16  16  16  16  16
#     4  11  20  33  51  76 105 135 174 217 259 306
#     4   9  18  31  49  72 103 139 171 204 252 317
#     4  10  19  32  51  75 105 134 169 217 262 304
#     4  10  19  31  51  78 102 126 164 217 272 312
#     4   9  17  32  53  74  98 129 166 210 260 306
#     4  10  20  32  49  75 104 139 174 206 254 318
#     4  10  21  36  53  74 103 141 180 216 259 312
#
# _framework density 16.880427000000001
#
# number of rings (size 3 to 8) (size 9 to 14) (size 15 to 20)
#    0.000    2.143    1.429    2.571    0.000    3.429 
#    0.000    0.000    0.000    5.143    0.000    0.000 
#    0.000    4.571    0.000    0.000    0.000    0.000 
#
# Total GULP energy -312184.435079 kJ/mol
# GULP energy per Si atom -5574.722055 kJ/mol
# Density = 1.684201 g / cm^3
# Si number density = 16.880427 Si / 1000 Ang^3
#
#
#
# Elastic Constant Matrix: (Units=GPa)
#
#
# Indices 1 2 3 4 5 6 
#
# 1 43.8259 16.0516 37.0422 0.0000 0.0000 0.0000
# 2 16.0516 65.1869 38.0293 0.0000 0.0000 0.0000
# 3 37.0422 38.0293 84.3045 0.0000 0.0000 0.0000
# 4 0.0000 0.0000 0.0000 19.6287 0.0000 0.0000
# 5 0.0000 0.0000 0.0000 0.0000 19.8417 0.0000
# 6 0.0000 0.0000 0.0000 0.0000 0.0000 18.6294
#
#
#
# Elastic Compliance Matrix: (Units=1/GPa)
#
#
# Indices 1 2 3 4 5 6 
#
# 1 0.036309 0.000497 -0.016178 0.000000 0.000000 0.000000
# 2 0.000497 0.020826 -0.009613 0.000000 0.000000 0.000000
# 3 -0.016178 -0.009613 0.023307 0.000000 0.000000 0.000000
# 4 0.000000 0.000000 0.000000 0.050946 0.000000 0.000000
# 5 0.000000 0.000000 0.000000 0.000000 0.050399 0.000000
# 6 0.000000 0.000000 0.000000 0.000000 0.000000 0.053678
#
#
# Mechanical properties :
#
#
# Convention : Reuss Voigt Hill
#
# Bulk Modulus (GPa) = 33.49592 41.72925 37.61259
# Shear Modulus (GPa) = 16.89163 18.43293 17.66228
#
# Velocity S-wave (km/s) = 3.16676 3.30808 3.23819
# Velocity P-wave (km/s) = 5.76691 6.27418 6.02589
#
# Compressibility (1/GPa) = 0.02985438
#
# Stress axis : x y z
#
# Youngs Moduli (GPa) = 27.54108 48.01643 42.90629
#
# Poissons Ratio (x) = -0.02388 0.69414
# Poissons Ratio (y) = -0.01370 0.41246
# Poissons Ratio (z) = 0.44556 0.46159
#
# Static dielectric constant tensor:
#      x y z
#    x 1.556740 0.000000 0.000000 
#    y 0.000000 1.585720 0.000000 
#    z 0.000000 0.000000 1.576260 
# 
# From -- ./inp_files/61780.got.cif
#   From: 2010.05.17/outbox.cif.g08.bks.cpg/sg63_31_cif.got.tgz:61780.got - 2010.06.03 15:47:04.
