data_PCOD9470142
_publ_section_title
;
Structure prediction by ZEFSAII (Michael W. Deem and Ramdas Pophale) SiO2 
 PCOD9470142
Probable space group: C M C M
;
_chemical_formula_sum "Si O2"
_cell_formula_units_Z 72
_cell_length_a 16.519089
_cell_length_b 27.526045
_cell_length_c 9.205584
_cell_angle_alpha 90.000000
_cell_angle_beta 90.000000
_cell_angle_gamma 90.000000
_cell_volume 4185.826796
_symmetry_space_group_name_H-M "C M C M"
_symmetry_group_IT_number 63
_symmetry_cell_setting 'orthorhombic'
loop_
_space_group_symop_operation_xyz
x,y,z
-x,-y,1/2+z
x,-y,-z
-x,y,1/2-z
-x,-y,-z
x,y,1/2-z
-x,y,z
x,-y,1/2+z
1/2+x,1/2+y,z
1/2-x,1/2-y,1/2+z
1/2+x,1/2-y,-z
1/2-x,1/2+y,1/2-z
1/2-x,1/2-y,-z
1/2+x,1/2+y,1/2-z
1/2-x,1/2+y,z
1/2+x,1/2-y,1/2+z
loop_
_atom_site_type_symbol
_atom_site_label
_atom_site_fract_x
_atom_site_fract_y
_atom_site_fract_z
Si Si1 0.406463 0.851642 0.919536
Si Si2 0.170804 0.101333 0.575527
Si Si3 0.500000 0.447269 0.075316
Si Si4 0.181064 0.451379 0.580053
Si Si5 0.760574 0.301308 0.422743
O O1 0.391076 0.838463 0.750000
O O2 0.500000 0.842729 0.951883
O O3 0.384200 0.908404 0.933460
O O4 0.345304 0.823348 0.022499
O O5 0.181219 0.096056 0.750000
O O6 0.236863 0.068470 0.493967
O O7 0.193256 0.157370 0.539818
O O8 0.081013 0.083038 0.537955
O O9 0.500000 0.454212 0.250000
O O10 0.500000 0.500000 0.000000
O O11 0.155073 0.500000 0.500000
O O12 0.195489 0.460568 0.750000
O O13 0.759751 0.295141 0.250000
O O14 0.750000 0.250000 0.500000
#
# Coordination Sequence:
#
# PCOD9470142 Si02
#       5
#    16  16   8  16  16
#     4   9  19  36  55  76 103 136 174 215 260 311
#     4   9  19  35  53  74 102 137 177 217 258 314
#     4  10  20  34  52  76 106 138 176 216 261 312
#     4  10  19  31  50  75 104 138 174 211 255 308
#     4  10  20  36  57  79 105 137 175 218 267 319
#
# _framework density 17.200903
#
# number of rings (size 3 to 8) (size 9 to 14) (size 15 to 20)
#    0.000    2.444    0.000    2.000    0.000    5.333 
#    2.000    0.000    0.000    0.000    0.000    0.000 
#    0.000    0.000    0.000    0.000    0.000    0.000 
#
# Total GULP energy -200801.719275 kJ/mol
# GULP energy per Si atom -5577.825535 kJ/mol
# Density = 1.716175 g / cm^3
# Si number density = 17.200903 Si / 1000 Ang^3
#
#
#
# Elastic Constant Matrix: (Units=GPa)
#
#
# Indices 1 2 3 4 5 6 
#
# 1 92.4683 42.7134 34.8502 0.0000 0.0000 0.0000
# 2 42.7134 117.8519 60.0320 0.0000 0.0000 0.0000
# 3 34.8502 60.0320 55.3928 0.0000 0.0000 0.0000
# 4 0.0000 0.0000 0.0000 37.6347 0.0000 0.0000
# 5 0.0000 0.0000 0.0000 0.0000 22.6739 0.0000
# 6 0.0000 0.0000 0.0000 0.0000 0.0000 8.0934
#
#
#
# Elastic Compliance Matrix: (Units=1/GPa)
#
#
# Indices 1 2 3 4 5 6 
#
# 1 0.014270 -0.001336 -0.007529 0.000000 0.000000 0.000000
# 2 -0.001336 0.019067 -0.019823 0.000000 0.000000 0.000000
# 3 -0.007529 -0.019823 0.044274 0.000000 0.000000 0.000000
# 4 0.000000 0.000000 0.000000 0.026571 0.000000 0.000000
# 5 0.000000 0.000000 0.000000 0.000000 0.044104 0.000000
# 6 0.000000 0.000000 0.000000 0.000000 0.000000 0.123557
#
#
# Mechanical properties :
#
#
# Convention : Reuss Voigt Hill
#
# Bulk Modulus (GPa) = 49.42619 60.10045 54.76332
# Shear Modulus (GPa) = 14.88252 22.22158 18.55205
#
# Velocity S-wave (km/s) = 2.94465 3.59818 3.28769
# Velocity P-wave (km/s) = 6.35282 7.23040 6.80577
#
# Compressibility (1/GPa) = 0.02023219
#
# Stress axis : x y z
#
# Youngs Moduli (GPa) = 70.07936 52.44552 22.58681
#
# Poissons Ratio (x) = 0.07009 0.17006
# Poissons Ratio (y) = 0.09366 0.44775
# Poissons Ratio (z) = 0.52764 1.03965
#
# Static dielectric constant tensor:
#      x y z
#    x 1.560670 0.000000 0.000000 
#    y 0.000000 1.576340 0.000000 
#    z 0.000000 0.000000 1.574800 
# 
# From -- ./inp_files/4633.got.cif
#   From: 2010.05.17/outbox.cif.g08.bks.cpg/sg63_3_cif.got.tgz:4633.got - 2010.06.03 15:47:04.
