data_PCOD9470956
_publ_section_title
;
Structure prediction by ZEFSAII (Michael W. Deem and Ramdas Pophale) SiO2 
 PCOD9470956
Probable space group: C M C M
;
_chemical_formula_sum "Si O2"
_cell_formula_units_Z 104
_cell_length_a 17.295632
_cell_length_b 21.645378
_cell_length_c 12.232796
_cell_angle_alpha 90.000000
_cell_angle_beta 90.000000
_cell_angle_gamma 90.000000
_cell_volume 4579.597862
_symmetry_space_group_name_H-M "C M C M"
_symmetry_group_IT_number 63
_symmetry_cell_setting 'orthorhombic'
loop_
_space_group_symop_operation_xyz
x,y,z
-x,-y,1/2+z
x,-y,-z
-x,y,1/2-z
-x,-y,-z
x,y,1/2-z
-x,y,z
x,-y,1/2+z
1/2+x,1/2+y,z
1/2-x,1/2-y,1/2+z
1/2+x,1/2-y,-z
1/2-x,1/2+y,1/2-z
1/2-x,1/2-y,-z
1/2+x,1/2+y,1/2-z
1/2-x,1/2+y,z
1/2+x,1/2-y,1/2+z
loop_
_atom_site_type_symbol
_atom_site_label
_atom_site_fract_x
_atom_site_fract_y
_atom_site_fract_z
Si Si1 0.412764 0.861431 0.922933
Si Si2 0.206497 0.932483 0.967292
Si Si3 0.315151 0.148772 0.880568
Si Si4 0.749138 0.011976 0.250000
Si Si5 0.087646 0.063972 0.750000
Si Si6 0.415468 0.028502 0.250000
Si Si7 0.692067 0.750188 0.622569
Si Si8 0.913826 0.850751 0.468027
O O1 0.500000 0.835367 0.904068
O O2 0.413357 0.925371 0.855446
O O3 0.338973 0.820215 0.884271
O O4 0.393521 0.863376 0.052194
O O5 0.256902 0.901828 0.064362
O O6 0.136991 0.886707 0.944917
O O7 0.250510 0.946209 0.857296
O O8 0.176505 0.000000 0.000000
O O9 0.320410 0.145773 0.750000
O O10 0.273629 0.215861 0.907425
O O11 0.660977 0.985994 0.250000
O O12 0.831638 0.974970 0.250000
O O13 0.089015 0.106923 0.858083
O O14 0.000000 0.033998 0.750000
O O15 0.500000 0.997483 0.250000
O O16 0.685497 0.733971 0.750000
O O17 0.626523 0.712489 0.560170
O O18 0.000000 0.842404 0.503704
#
# Coordination Sequence:
#
# PCOD9470956 Si02
#       8
#    16  16  16   8   8   8  16  16
#     4  11  21  37  62  90 117 152 201 255 314 365
#     4  11  23  36  59  88 114 158 205 246 309 363
#     4  10  23  40  59  87 122 157 198 251 303 379
#     4  12  22  40  62  86 122 162 204 266 308 364
#     4  10  20  33  58  93 127 168 209 245 295 363
#     4  10  22  39  62  91 119 150 203 271 325 363
#     4  10  19  33  59  90 120 159 202 247 299 360
#     4  10  20  34  52  86 130 163 204 251 292 351
#
# _framework density 22.709416000000001
#
# number of rings (size 3 to 8) (size 9 to 14) (size 15 to 20)
#    0.000    1.538    4.615    0.923    2.154    1.846 
#    0.000    0.000    0.000    1.846    0.000    0.000 
#    0.000    0.000    0.000    0.000    0.000    0.000 
#
# Total GULP energy -289854.778161 kJ/mol
# GULP energy per Si atom -5574.130349 kJ/mol
# Density = 2.265773 g / cm^3
# Si number density = 22.709416 Si / 1000 Ang^3
#
#
#
# Elastic Constant Matrix: (Units=GPa)
#
#
# Indices 1 2 3 4 5 6 
#
# 1 138.1507 16.0401 5.3888 0.0000 0.0000 0.0000
# 2 16.0401 61.0561 -7.1406 0.0000 0.0000 0.0000
# 3 5.3888 -7.1406 62.1147 0.0000 0.0000 0.0000
# 4 0.0000 0.0000 0.0000 12.6051 0.0000 0.0000
# 5 0.0000 0.0000 0.0000 0.0000 22.8151 0.0000
# 6 0.0000 0.0000 0.0000 0.0000 0.0000 34.0983
#
#
#
# Elastic Compliance Matrix: (Units=1/GPa)
#
#
# Indices 1 2 3 4 5 6 
#
# 1 0.007515 -0.002078 -0.000891 0.000000 0.000000 0.000000
# 2 -0.002078 0.017176 0.002155 0.000000 0.000000 0.000000
# 3 -0.000891 0.002155 0.016424 0.000000 0.000000 0.000000
# 4 0.000000 0.000000 0.000000 0.079333 0.000000 0.000000
# 5 0.000000 0.000000 0.000000 0.000000 0.043831 0.000000
# 6 0.000000 0.000000 0.000000 0.000000 0.000000 0.029327
#
#
# Mechanical properties :
#
#
# Convention : Reuss Voigt Hill
#
# Bulk Modulus (GPa) = 25.32507 32.21092 28.76799
# Shear Modulus (GPa) = 23.99275 30.37258 27.18266
#
# Velocity S-wave (km/s) = 3.25393 3.66108 3.46349
# Velocity P-wave (km/s) = 5.02925 5.66445 5.35628
#
# Compressibility (1/GPa) = 0.03948656
#
# Stress axis : x y z
#
# Youngs Moduli (GPa) = 133.07553 58.21943 60.88554
#
# Poissons Ratio (x) = 0.12100 0.05424
# Poissons Ratio (y) = 0.27658 -0.13120
# Poissons Ratio (z) = 0.11855 -0.12546
#
# Static dielectric constant tensor:
#      x y z
#    x 1.870800 0.000000 0.000000 
#    y 0.000000 1.874860 0.000000 
#    z 0.000000 0.000000 1.884130 
# 
# From -- ./inp_files/21636.got.cif
#   From: 2010.05.17/outbox.cif.g08.bks.cpg/sg63_11_cif.got.tgz:21636.got - 2010.06.03 15:47:04.
