data_PCOD9470146
_publ_section_title
;
Structure prediction by ZEFSAII (Michael W. Deem and Ramdas Pophale) SiO2 
 PCOD9470146
Probable space group: C M C M
;
_chemical_formula_sum "Si O2"
_cell_formula_units_Z 80
_cell_length_a 8.875670
_cell_length_b 27.778519
_cell_length_c 19.018961
_cell_angle_alpha 90.000000
_cell_angle_beta 90.000000
_cell_angle_gamma 90.000000
_cell_volume 4689.181278
_symmetry_space_group_name_H-M "C M C M"
_symmetry_group_IT_number 63
_symmetry_cell_setting 'orthorhombic'
loop_
_space_group_symop_operation_xyz
x,y,z
-x,-y,1/2+z
x,-y,-z
-x,y,1/2-z
-x,-y,-z
x,y,1/2-z
-x,y,z
x,-y,1/2+z
1/2+x,1/2+y,z
1/2-x,1/2-y,1/2+z
1/2+x,1/2-y,-z
1/2-x,1/2+y,1/2-z
1/2-x,1/2-y,-z
1/2+x,1/2+y,1/2-z
1/2-x,1/2+y,z
1/2+x,1/2-y,1/2+z
loop_
_atom_site_type_symbol
_atom_site_label
_atom_site_fract_x
_atom_site_fract_y
_atom_site_fract_z
Si Si1 0.179949 0.321514 0.039934
Si Si2 0.681457 0.523326 0.109682
Si Si3 0.680695 0.066536 0.250000
Si Si4 0.181189 0.924911 0.464823
Si Si5 0.818352 0.729210 0.393673
Si Si6 0.183517 0.321972 0.750000
O O1 0.243422 0.374487 0.052570
O O2 0.247993 0.281258 0.091370
O O3 0.000000 0.321414 0.045061
O O4 0.221660 0.304175 0.960691
O O5 0.500000 0.525039 0.116974
O O6 0.758085 0.540853 0.180415
O O7 0.722095 0.468962 0.086746
O O8 0.722228 0.557404 0.043544
O O9 0.500000 0.065665 0.250000
O O10 0.731102 0.122419 0.250000
O O11 0.000000 0.919966 0.462864
O O12 0.768199 0.705150 0.320900
O O13 0.000000 0.733545 0.392614
O O14 0.000000 0.321901 0.750000
#
# Coordination Sequence:
#
# PCOD9470146 Si02
#       6
#    16  16   8  16  16   8
#     4  10  19  31  50  76 103 129 162 207 253 296
#     4   9  19  35  53  75 102 133 171 208 243 295
#     4  11  21  33  52  79 108 133 160 203 256 301
#     4   9  18  34  55  75  98 132 172 210 247 292
#     4   9  18  33  51  71  98 132 168 202 241 296
#     4   9  18  33  52  73  98 129 164 201 244 295
#
# _framework density 17.060548000000001
#
# number of rings (size 3 to 8) (size 9 to 14) (size 15 to 20)
#    0.000    2.600    0.000    3.300    0.000    4.000 
#    0.000    5.500    0.000    2.400    0.000    0.000 
#    0.000    0.000    0.000    0.000    0.000    0.000 
#
# Total GULP energy -223152.466020 kJ/mol
# GULP energy per Si atom -5578.811651 kJ/mol
# Density = 1.702172 g / cm^3
# Si number density = 17.060548 Si / 1000 Ang^3
#
#
#
# Elastic Constant Matrix: (Units=GPa)
#
#
# Indices 1 2 3 4 5 6 
#
# 1 22.2853 44.0718 38.6702 0.0000 0.0000 0.0000
# 2 44.0718 165.9582 90.5633 0.0000 0.0000 0.0000
# 3 38.6702 90.5633 144.5338 0.0000 0.0000 0.0000
# 4 0.0000 0.0000 0.0000 15.1881 0.0000 0.0000
# 5 0.0000 0.0000 0.0000 0.0000 18.5693 0.0000
# 6 0.0000 0.0000 0.0000 0.0000 0.0000 25.6785
#
#
#
# Elastic Compliance Matrix: (Units=1/GPa)
#
#
# Indices 1 2 3 4 5 6 
#
# 1 0.119986 -0.021799 -0.018444 0.000000 0.000000 0.000000
# 2 -0.021799 0.013117 -0.002387 0.000000 0.000000 0.000000
# 3 -0.018444 -0.002387 0.013349 0.000000 0.000000 0.000000
# 4 0.000000 0.000000 0.000000 0.065841 0.000000 0.000000
# 5 0.000000 0.000000 0.000000 0.000000 0.053852 0.000000
# 6 0.000000 0.000000 0.000000 0.000000 0.000000 0.038943
#
#
# Mechanical properties :
#
#
# Convention : Reuss Voigt Hill
#
# Bulk Modulus (GPa) = 16.34146 75.48753 45.91449
# Shear Modulus (GPa) = 12.17301 22.51864 17.34582
#
# Velocity S-wave (km/s) = 2.67407 3.63702 3.19207
# Velocity P-wave (km/s) = 4.37419 7.87274 6.36842
#
# Compressibility (1/GPa) = 0.06119405
#
# Stress axis : x y z
#
# Youngs Moduli (GPa) = 8.33427 76.23784 74.91307
#
# Poissons Ratio (x) = 1.66190 1.38167
# Poissons Ratio (y) = 0.18168 0.17878
# Poissons Ratio (z) = 0.15371 0.18195
#
# Static dielectric constant tensor:
#      x y z
#    x 1.568240 0.000000 0.000000 
#    y 0.000000 1.555580 0.000000 
#    z 0.000000 0.000000 1.560720 
# 
# From -- ./inp_files/40582.got.cif
#   From: 2010.05.17/outbox.cif.g08.bks.cpg/sg63_21_cif.got.tgz:40582.got - 2010.06.03 15:47:04.
