data_PCOD9470546
_publ_section_title
;
Structure prediction by ZEFSAII (Michael W. Deem and Ramdas Pophale) SiO2 
 PCOD9470546
Probable space group: C M C M
;
_chemical_formula_sum "Si O2"
_cell_formula_units_Z 96
_cell_length_a 19.120852
_cell_length_b 14.962946
_cell_length_c 15.066718
_cell_angle_alpha 90.000000
_cell_angle_beta 90.000000
_cell_angle_gamma 90.000000
_cell_volume 4310.652444
_symmetry_space_group_name_H-M "C M C M"
_symmetry_group_IT_number 63
_symmetry_cell_setting 'orthorhombic'
loop_
_space_group_symop_operation_xyz
x,y,z
-x,-y,1/2+z
x,-y,-z
-x,y,1/2-z
-x,-y,-z
x,y,1/2-z
-x,y,z
x,-y,1/2+z
1/2+x,1/2+y,z
1/2-x,1/2-y,1/2+z
1/2+x,1/2-y,-z
1/2-x,1/2+y,1/2-z
1/2-x,1/2-y,-z
1/2+x,1/2+y,1/2-z
1/2-x,1/2+y,z
1/2+x,1/2-y,1/2+z
loop_
_atom_site_type_symbol
_atom_site_label
_atom_site_fract_x
_atom_site_fract_y
_atom_site_fract_z
Si Si1 0.919033 0.584908 0.918426
Si Si2 0.083027 0.913296 0.750000
Si Si3 0.418241 0.788848 0.250000
Si Si4 0.260237 0.690480 0.854299
Si Si5 0.847598 0.926020 0.926344
Si Si6 0.356031 0.241358 0.002977
Si Si7 0.287569 0.987754 0.646428
O O1 0.905125 0.648825 0.833417
O O2 0.905894 0.655618 0.997500
O O3 0.860476 0.508902 0.903378
O O4 0.000000 0.555276 0.916386
O O5 0.111917 0.810407 0.750000
O O6 0.114206 0.955417 0.662463
O O7 0.000000 0.916526 0.750000
O O8 0.500000 0.770900 0.250000
O O9 0.249667 0.715624 0.750000
O O10 0.204364 0.717409 0.930507
O O11 0.254604 0.582433 0.855577
O O12 0.329093 0.732736 0.899149
O O13 0.882213 0.834629 0.961007
O O14 0.764457 0.918725 0.902367
O O15 0.853995 0.000000 0.000000
O O16 0.298746 0.964398 0.750000
#
# Coordination Sequence:
#
# PCOD9470546 Si02
#       7
#    16   8   8  16  16  16  16
#     4  10  19  33  57  88 117 148 194 255 308 342
#     4  11  24  39  56  82 119 157 195 242 301 360
#     4   9  16  29  52  80 108 141 183 240 302 344
#     4   9  19  34  54  81 114 145 191 250 293 339
#     4  12  23  36  55  84 121 161 197 233 291 361
#     4  10  20  33  55  87 113 148 193 236 299 354
#     4  10  19  32  53  83 117 152 195 244 289 351
#
# _framework density 22.270409999999998
#
# number of rings (size 3 to 8) (size 9 to 14) (size 15 to 20)
#    0.000    1.833    5.000    0.000    2.333    0.333 
#    0.000    0.000    0.000    1.000    0.000    0.000 
#    0.000    0.000    0.333    0.000    0.000    0.000 
#
# Total GULP energy -267883.846998 kJ/mol
# GULP energy per Si atom -5580.913479 kJ/mol
# Density = 2.221972 g / cm^3
# Si number density = 22.270410 Si / 1000 Ang^3
#
#
#
# Elastic Constant Matrix: (Units=GPa)
#
#
# Indices 1 2 3 4 5 6 
#
# 1 109.5960 27.0874 35.2840 0.0000 0.0000 0.0000
# 2 27.0874 66.1985 38.8887 0.0000 0.0000 0.0000
# 3 35.2840 38.8887 148.8014 0.0000 0.0000 0.0000
# 4 0.0000 0.0000 0.0000 24.8149 0.0000 0.0000
# 5 0.0000 0.0000 0.0000 0.0000 10.4423 0.0000
# 6 0.0000 0.0000 0.0000 0.0000 0.0000 17.5093
#
#
#
# Elastic Compliance Matrix: (Units=1/GPa)
#
#
# Indices 1 2 3 4 5 6 
#
# 1 0.010468 -0.003337 -0.001610 0.000000 0.000000 0.000000
# 2 -0.003337 0.018910 -0.004151 0.000000 0.000000 0.000000
# 3 -0.001610 -0.004151 0.008187 0.000000 0.000000 0.000000
# 4 0.000000 0.000000 0.000000 0.040298 0.000000 0.000000
# 5 0.000000 0.000000 0.000000 0.000000 0.095764 0.000000
# 6 0.000000 0.000000 0.000000 0.000000 0.000000 0.057113
#
#
# Mechanical properties :
#
#
# Convention : Reuss Voigt Hill
#
# Bulk Modulus (GPa) = 51.63020 58.56845 55.09932
# Shear Modulus (GPa) = 19.57777 25.44237 22.51007
#
# Velocity S-wave (km/s) = 2.96817 3.38365 3.18270
# Velocity P-wave (km/s) = 5.91442 6.45146 6.18877
#
# Compressibility (1/GPa) = 0.01936851
#
# Stress axis : x y z
#
# Youngs Moduli (GPa) = 95.53308 52.88188 122.14688
#
# Poissons Ratio (x) = 0.17649 0.19664
# Poissons Ratio (y) = 0.31884 0.50699
# Poissons Ratio (z) = 0.15379 0.21950
#
# Static dielectric constant tensor:
#      x y z
#    x 1.870500 0.000000 0.000000 
#    y 0.000000 1.849000 0.000000 
#    z 0.000000 0.000000 1.852080 
# 
# From -- ./inp_files/35408.got.cif
#   From: 2010.05.17/outbox.cif.g08.bks.cpg/sg63_18_cif.got.tgz:35408.got - 2010.06.03 15:47:04.
