data_PCOD9470398
_publ_section_title
;
Structure prediction by ZEFSAII (Michael W. Deem and Ramdas Pophale) SiO2 
 PCOD9470398
Probable space group: C M C M
;
_chemical_formula_sum "Si O2"
_cell_formula_units_Z 80
_cell_length_a 7.380566
_cell_length_b 19.848239
_cell_length_c 25.057511
_cell_angle_alpha 90.000000
_cell_angle_beta 90.000000
_cell_angle_gamma 90.000000
_cell_volume 3670.705806
_symmetry_space_group_name_H-M "C M C M"
_symmetry_group_IT_number 63
_symmetry_cell_setting 'orthorhombic'
loop_
_space_group_symop_operation_xyz
x,y,z
-x,-y,1/2+z
x,-y,-z
-x,y,1/2-z
-x,-y,-z
x,y,1/2-z
-x,y,z
x,-y,1/2+z
1/2+x,1/2+y,z
1/2-x,1/2-y,1/2+z
1/2+x,1/2-y,-z
1/2-x,1/2+y,1/2-z
1/2-x,1/2-y,-z
1/2+x,1/2+y,1/2-z
1/2-x,1/2+y,z
1/2+x,1/2-y,1/2+z
loop_
_atom_site_type_symbol
_atom_site_label
_atom_site_fract_x
_atom_site_fract_y
_atom_site_fract_z
Si Si1 0.220836 0.351712 0.250000
Si Si2 0.284694 0.807728 0.042288
Si Si3 0.713263 0.096040 0.351292
Si Si4 0.277761 0.008606 0.250000
Si Si5 0.721510 0.930424 0.972322
Si Si6 0.781150 0.746125 0.654950
O O1 0.277969 0.429943 0.250000
O O2 0.278109 0.306718 0.199664
O O3 0.000000 0.353605 0.250000
O O4 0.500000 0.817573 0.049785
O O5 0.213129 0.782123 0.098568
O O6 0.250000 0.750000 0.000000
O O7 0.213695 0.873799 0.013417
O O8 0.500000 0.081226 0.354129
O O9 0.784567 0.081519 0.411307
O O10 0.731781 0.175444 0.337989
O O11 0.782975 0.049105 0.303106
O O12 0.500000 0.009535 0.250000
O O13 0.500000 0.926994 0.970377
O O14 0.771048 0.000000 0.000000
O O15 0.000000 0.745803 0.654932
#
# Coordination Sequence:
#
# PCOD9470398 Si02
#       6
#     8  16  16   8  16  16
#     4   9  19  34  51  77 104 129 166 214 256 291
#     4  10  19  32  51  76 102 131 165 204 248 297
#     4  10  19  33  53  75 100 131 166 208 250 293
#     4   9  19  32  51  77 100 125 166 214 252 287
#     4   9  18  30  48  74 101 128 162 204 249 292
#     4  10  20  33  53  75 101 135 168 203 248 302
#
# _framework density 21.794173000000001
#
# number of rings (size 3 to 8) (size 9 to 14) (size 15 to 20)
#    0.000    2.400    2.000    0.600    2.800    0.000 
#    0.000    0.000    0.000    4.800    0.000    0.000 
#    0.000    0.000    0.000    0.000    0.000    0.000 
#
# Total GULP energy -223301.691045 kJ/mol
# GULP energy per Si atom -5582.542276 kJ/mol
# Density = 2.174457 g / cm^3
# Si number density = 21.794173 Si / 1000 Ang^3
#
#
#
# Elastic Constant Matrix: (Units=GPa)
#
#
# Indices 1 2 3 4 5 6 
#
# 1 73.8347 -13.6472 -2.4239 0.0000 0.0000 0.0000
# 2 -13.6472 228.0834 122.8993 0.0000 0.0000 0.0000
# 3 -2.4239 122.8993 202.8680 0.0000 0.0000 0.0000
# 4 0.0000 0.0000 0.0000 37.6251 0.0000 0.0000
# 5 0.0000 0.0000 0.0000 0.0000 6.9540 0.0000
# 6 0.0000 0.0000 0.0000 0.0000 0.0000 16.5366
#
#
#
# Elastic Compliance Matrix: (Units=1/GPa)
#
#
# Indices 1 2 3 4 5 6 
#
# 1 0.013729 0.001088 -0.000495 0.000000 0.000000 0.000000
# 2 0.001088 0.006595 -0.003983 0.000000 0.000000 0.000000
# 3 -0.000495 -0.003983 0.007336 0.000000 0.000000 0.000000
# 4 0.000000 0.000000 0.000000 0.026578 0.000000 0.000000
# 5 0.000000 0.000000 0.000000 0.000000 0.143803 0.000000
# 6 0.000000 0.000000 0.000000 0.000000 0.000000 0.060472
#
#
# Mechanical properties :
#
#
# Convention : Reuss Voigt Hill
#
# Bulk Modulus (GPa) = 47.89017 79.82694 63.85855
# Shear Modulus (GPa) = 18.36532 38.75366 28.55949
#
# Velocity S-wave (km/s) = 2.90603 4.22141 3.62390
# Velocity P-wave (km/s) = 5.76902 7.77609 6.84650
#
# Compressibility (1/GPa) = 0.02088111
#
# Stress axis : x y z
#
# Youngs Moduli (GPa) = 72.84025 151.62026 136.31273
#
# Poissons Ratio (x) = -0.16501 0.06751
# Poissons Ratio (y) = -0.07927 0.54287
# Poissons Ratio (z) = 0.03608 0.60384
#
# Static dielectric constant tensor:
#      x y z
#    x 1.880050 0.000000 0.000000 
#    y 0.000000 1.647220 0.000000 
#    z 0.000000 0.000000 1.771540 
# 
# From -- ./inp_files/61170.got.cif
#   From: 2010.05.17/outbox.cif.g08.bks.cpg/sg63_31_cif.got.tgz:61170.got - 2010.06.03 15:47:04.
