data_PCOD9470090
_publ_section_title
;
Structure prediction by ZEFSAII (Michael W. Deem and Ramdas Pophale) SiO2 
 PCOD9470090
Probable space group: C M C M
;
_chemical_formula_sum "Si O2"
_cell_formula_units_Z 96
_cell_length_a 9.338938
_cell_length_b 32.787866
_cell_length_c 15.621449
_cell_angle_alpha 90.000000
_cell_angle_beta 90.000000
_cell_angle_gamma 90.000000
_cell_volume 4783.347791
_symmetry_space_group_name_H-M "C M C M"
_symmetry_group_IT_number 63
_symmetry_cell_setting 'orthorhombic'
loop_
_space_group_symop_operation_xyz
x,y,z
-x,-y,1/2+z
x,-y,-z
-x,y,1/2-z
-x,-y,-z
x,y,1/2-z
-x,y,z
x,-y,1/2+z
1/2+x,1/2+y,z
1/2-x,1/2-y,1/2+z
1/2+x,1/2-y,-z
1/2-x,1/2+y,1/2-z
1/2-x,1/2-y,-z
1/2+x,1/2+y,1/2-z
1/2-x,1/2+y,z
1/2+x,1/2-y,1/2+z
loop_
_atom_site_type_symbol
_atom_site_label
_atom_site_fract_x
_atom_site_fract_y
_atom_site_fract_z
Si Si1 0.670680 0.250392 0.908557
Si Si2 0.670948 0.162355 0.898017
Si Si3 0.663512 0.994635 0.144798
Si Si4 0.161902 0.927419 0.647326
Si Si5 0.171139 0.838421 0.578549
Si Si6 0.340623 0.417258 0.350664
O O1 0.500000 0.247550 0.923371
O O2 0.708259 0.207761 0.862699
O O3 0.697338 0.295652 0.871480
O O4 0.750000 0.250000 0.000000
O O5 0.500000 0.156635 0.892747
O O6 0.752090 0.124273 0.857946
O O7 0.729332 0.162598 0.995159
O O8 0.663954 0.994295 0.250000
O O9 0.500000 0.990846 0.117455
O O10 0.732649 0.037291 0.116532
O O11 0.755573 0.956062 0.113771
O O12 0.159168 0.930144 0.750000
O O13 0.200483 0.881081 0.624404
O O14 0.000000 0.935357 0.616190
O O15 0.000000 0.838265 0.556633
O O16 0.355677 0.425544 0.250000
O O17 0.500000 0.412839 0.388257
#
# Coordination Sequence:
#
# PCOD9470090 Si02
#       6
#    16  16  16  16  16  16
#     4   8  15  28  46  68  93 125 162 195 231 277
#     4  10  19  31  49  73  99 126 159 200 243 284
#     4   9  17  30  49  71  95 124 157 193 235 284
#     4   9  17  30  49  72  97 126 160 196 234 279
#     4   9  17  31  50  71  97 129 164 199 235 280
#     4  10  20  34  52  72  95 125 160 196 236 285
#
# _framework density 20.069624999999998
#
# number of rings (size 3 to 8) (size 9 to 14) (size 15 to 20)
#    0.000    2.833    0.000    1.500    0.000    4.333 
#    0.000    1.667    0.000    8.000    0.000    2.333 
#    0.000    0.000    0.000    0.000    0.000    0.000 
#
# Total GULP energy -267341.123692 kJ/mol
# GULP energy per Si atom -5569.606744 kJ/mol
# Density = 2.002395 g / cm^3
# Si number density = 20.069625 Si / 1000 Ang^3
#
#
#
# Elastic Constant Matrix: (Units=GPa)
#
#
# Indices 1 2 3 4 5 6 
#
# 1 104.0003 97.4266 10.4875 0.0000 0.0000 0.0000
# 2 97.4266 211.5941 7.7415 0.0000 0.0000 0.0000
# 3 10.4875 7.7415 13.1155 0.0000 0.0000 0.0000
# 4 0.0000 0.0000 0.0000 25.1497 0.0000 0.0000
# 5 0.0000 0.0000 0.0000 0.0000 12.9377 0.0000
# 6 0.0000 0.0000 0.0000 0.0000 0.0000 33.3996
#
#
#
# Elastic Compliance Matrix: (Units=1/GPa)
#
#
# Indices 1 2 3 4 5 6 
#
# 1 0.018049 -0.007954 -0.009737 0.000000 0.000000 0.000000
# 2 -0.007954 0.008336 0.001440 0.000000 0.000000 0.000000
# 3 -0.009737 0.001440 0.083182 0.000000 0.000000 0.000000
# 4 0.000000 0.000000 0.000000 0.039762 0.000000 0.000000
# 5 0.000000 0.000000 0.000000 0.000000 0.077294 0.000000
# 6 0.000000 0.000000 0.000000 0.000000 0.000000 0.029940
#
#
# Mechanical properties :
#
#
# Convention : Reuss Voigt Hill
#
# Bulk Modulus (GPa) = 12.97627 62.22457 37.60042
# Shear Modulus (GPa) = 15.88551 28.50102 22.19326
#
# Velocity S-wave (km/s) = 2.81645 3.77252 3.32899
# Velocity P-wave (km/s) = 4.12991 7.07443 5.79240
#
# Compressibility (1/GPa) = 0.07706373
#
# Stress axis : x y z
#
# Youngs Moduli (GPa) = 55.40618 119.96590 12.02186
#
# Poissons Ratio (x) = 0.95421 0.11706
# Poissons Ratio (y) = 0.44070 -0.01731
# Poissons Ratio (z) = 0.53950 -0.17275
#
# Static dielectric constant tensor:
#      x y z
#    x 1.695700 0.000000 0.000000 
#    y 0.000000 1.754440 0.000000 
#    z 0.000000 0.000000 1.730430 
# 
# From -- ./inp_files/51396.got.cif
#   From: 2010.05.17/outbox.cif.g08.bks.cpg/sg63_26_cif.got.tgz:51396.got - 2010.06.03 15:47:04.
