data_PCOD9470561
_publ_section_title
;
Structure prediction by ZEFSAII (Michael W. Deem and Ramdas Pophale) SiO2 
 PCOD9470561
Probable space group: C M C M
;
_chemical_formula_sum "Si O2"
_cell_formula_units_Z 80
_cell_length_a 8.688067
_cell_length_b 18.551386
_cell_length_c 27.379781
_cell_angle_alpha 90.000000
_cell_angle_beta 90.000000
_cell_angle_gamma 90.000000
_cell_volume 4412.954944
_symmetry_space_group_name_H-M "C M C M"
_symmetry_group_IT_number 63
_symmetry_cell_setting 'orthorhombic'
loop_
_space_group_symop_operation_xyz
x,y,z
-x,-y,1/2+z
x,-y,-z
-x,y,1/2-z
-x,-y,-z
x,y,1/2-z
-x,y,z
x,-y,1/2+z
1/2+x,1/2+y,z
1/2-x,1/2-y,1/2+z
1/2+x,1/2-y,-z
1/2-x,1/2+y,1/2-z
1/2-x,1/2-y,-z
1/2+x,1/2+y,1/2-z
1/2-x,1/2+y,z
1/2+x,1/2-y,1/2+z
loop_
_atom_site_type_symbol
_atom_site_label
_atom_site_fract_x
_atom_site_fract_y
_atom_site_fract_z
Si Si1 0.816407 0.921973 0.094911
Si Si2 0.816822 0.589731 0.197664
Si Si3 0.682234 0.915283 0.196503
Si Si4 0.314571 0.083026 0.091353
Si Si5 0.315533 0.669956 0.500126
O O1 0.767405 0.890900 0.147694
O O2 0.771391 0.870968 0.050096
O O3 0.000000 0.932090 0.094148
O O4 0.737494 0.999823 0.088259
O O5 0.751855 0.615660 0.250000
O O6 0.801189 0.502575 0.197363
O O7 0.758852 0.612959 0.144402
O O8 0.000000 0.604717 0.198382
O O9 0.735632 0.888882 0.250000
O O10 0.500000 0.900615 0.192275
O O11 0.500000 0.085627 0.090738
O O12 0.247819 0.126615 0.046246
O O13 0.500000 0.671708 0.497960
O O14 0.250000 0.750000 0.500000
#
# Coordination Sequence:
#
# PCOD9470561 Si02
#       5
#    16  16  16  16  16
#     4  10  20  33  51  77 106 134 168 211 255 299
#     4   7  11  22  42  70 101 128 156 193 236 284
#     4   8  14  26  46  73 103 133 165 202 246 296
#     4  10  19  32  54  80 104 134 171 208 251 304
#     4  11  24  39  53  71  99 134 172 216 262 307
#
# _framework density 18.128442
#
# number of rings (size 3 to 8) (size 9 to 14) (size 15 to 20)
#    0.000    2.800    0.000    4.800    0.000    6.000 
#    0.000    0.000    0.000    3.000    0.000    2.800 
#    0.000    0.000    0.000    0.000    0.000    0.000 
#
# Total GULP energy -222791.513380 kJ/mol
# GULP energy per Si atom -5569.787834 kJ/mol
# Density = 1.808718 g / cm^3
# Si number density = 18.128442 Si / 1000 Ang^3
#
#
#
# Elastic Constant Matrix: (Units=GPa)
#
#
# Indices 1 2 3 4 5 6 
#
# 1 34.3219 20.6728 51.1091 0.0000 0.0000 0.0000
# 2 20.6728 52.2400 68.1615 0.0000 0.0000 0.0000
# 3 51.1091 68.1615 233.0106 0.0000 0.0000 0.0000
# 4 0.0000 0.0000 0.0000 -5.5475 0.0000 0.0000
# 5 0.0000 0.0000 0.0000 0.0000 26.0043 0.0000
# 6 0.0000 0.0000 0.0000 0.0000 0.0000 19.4681
#
#
#
# Elastic Compliance Matrix: (Units=1/GPa)
#
#
# Indices 1 2 3 4 5 6 
#
# 1 0.045253 -0.008017 -0.007581 0.000000 0.000000 0.000000
# 2 -0.008017 0.032379 -0.007713 0.000000 0.000000 0.000000
# 3 -0.007581 -0.007713 0.008211 0.000000 0.000000 0.000000
# 4 0.000000 0.000000 0.000000 -0.180262 0.000000 0.000000
# 5 0.000000 0.000000 0.000000 0.000000 0.038455 0.000000
# 6 0.000000 0.000000 0.000000 0.000000 0.000000 0.051366
#
#
# Mechanical properties :
#
#
# Convention : Reuss Voigt Hill
#
# Bulk Modulus (GPa) = 25.49629 66.60658 46.05144
# Shear Modulus (GPa) = 90.74798 19.96025 55.35412
#
# Velocity S-wave (km/s) = 7.08287 3.32180 5.53179
# Velocity P-wave (km/s) = 8.99912 7.17870 8.13996
#
# Compressibility (1/GPa) = 0.03922139
#
# Stress axis : x y z
#
# Youngs Moduli (GPa) = 22.09787 30.88430 121.79108
#
# Poissons Ratio (x) = 0.24759 0.92328
# Poissons Ratio (y) = 0.17715 0.93941
# Poissons Ratio (z) = 0.16752 0.23822
#
# Static dielectric constant tensor:
#      x y z
#    x 1.583520 0.000000 0.000000 
#    y 0.000000 1.578770 0.000000 
#    z 0.000000 0.000000 1.688810 
# 
# From -- ./inp_files/66621.got.cif
#   From: 2010.05.17/outbox.cif.g08.bks.cpg/sg63_34_cif.got.tgz:66621.got - 2010.06.03 15:47:04.
