data_PCOD9470766
_publ_section_title
;
Structure prediction by ZEFSAII (Michael W. Deem and Ramdas Pophale) SiO2 
 PCOD9470766
Probable space group: C M C M
;
_chemical_formula_sum "Si O2"
_cell_formula_units_Z 80
_cell_length_a 14.972032
_cell_length_b 25.065364
_cell_length_c 11.790691
_cell_angle_alpha 90.000000
_cell_angle_beta 90.000000
_cell_angle_gamma 90.000000
_cell_volume 4424.803820
_symmetry_space_group_name_H-M "C M C M"
_symmetry_group_IT_number 63
_symmetry_cell_setting 'orthorhombic'
loop_
_space_group_symop_operation_xyz
x,y,z
-x,-y,1/2+z
x,-y,-z
-x,y,1/2-z
-x,-y,-z
x,y,1/2-z
-x,y,z
x,-y,1/2+z
1/2+x,1/2+y,z
1/2-x,1/2-y,1/2+z
1/2+x,1/2-y,-z
1/2-x,1/2+y,1/2-z
1/2-x,1/2-y,-z
1/2+x,1/2+y,1/2-z
1/2-x,1/2+y,z
1/2+x,1/2-y,1/2+z
loop_
_atom_site_type_symbol
_atom_site_label
_atom_site_fract_x
_atom_site_fract_y
_atom_site_fract_z
Si Si1 0.249700 0.618431 0.985945
Si Si2 0.599768 0.987648 0.250000
Si Si3 0.103124 0.687406 0.115070
Si Si4 0.607107 0.294971 0.514790
Si Si5 0.397592 0.249144 0.750000
Si Si6 0.695709 0.000000 0.000000
Si Si7 0.655235 0.130362 0.750000
O O1 0.250759 0.555031 0.003074
O O2 0.216169 0.628760 0.859704
O O3 0.173271 0.645783 0.063763
O O4 0.341524 0.650100 0.998613
O O5 0.500000 0.010691 0.250000
O O6 0.598095 0.923281 0.250000
O O7 0.643575 0.000468 0.375702
O O8 0.104730 0.684593 0.250000
O O9 0.000000 0.676777 0.075902
O O10 0.125828 0.747442 0.074125
O O11 0.500000 0.302183 0.515196
O O12 0.641677 0.271642 0.634714
O O13 0.500000 0.266987 0.750000
O O14 0.396246 0.185685 0.750000
#
# Coordination Sequence:
#
# PCOD9470766 Si02
#       7
#    16   8  16  16   8   8   8
#     4  11  23  39  59  79 116 152 191 237 282 329
#     4  10  21  39  59  82 115 155 193 235 283 336
#     4  10  22  36  56  88 119 147 182 224 284 354
#     4  10  22  37  57  85 113 147 189 236 287 339
#     4  10  19  33  53  84 115 139 183 230 277 345
#     4  10  25  40  55  86 112 154 200 240 274 340
#     4  10  21  34  57  84 110 150 190 221 282 341
#
# _framework density 18.079898
#
# number of rings (size 3 to 8) (size 9 to 14) (size 15 to 20)
#    0.000    1.800    2.000    1.200    4.200    4.000 
#    0.000    0.500    0.000    0.000    0.000    1.400 
#    0.000    0.000    0.000    0.000    0.000    0.000 
#
# Total GULP energy -222916.027013 kJ/mol
# GULP energy per Si atom -5572.900675 kJ/mol
# Density = 1.803875 g / cm^3
# Si number density = 18.079898 Si / 1000 Ang^3
#
#
#
# Elastic Constant Matrix: (Units=GPa)
#
#
# Indices 1 2 3 4 5 6 
#
# 1 61.7554 51.2445 24.2501 0.0000 0.0000 0.0000
# 2 51.2445 127.1879 31.0945 0.0000 0.0000 0.0000
# 3 24.2501 31.0945 103.5551 0.0000 0.0000 0.0000
# 4 0.0000 0.0000 0.0000 18.9200 0.0000 0.0000
# 5 0.0000 0.0000 0.0000 0.0000 96.7673 0.0000
# 6 0.0000 0.0000 0.0000 0.0000 0.0000 -1.3398
#
#
#
# Elastic Compliance Matrix: (Units=1/GPa)
#
#
# Indices 1 2 3 4 5 6 
#
# 1 0.025204 -0.009402 -0.003079 0.000000 0.000000 0.000000
# 2 -0.009402 0.011993 -0.001399 0.000000 0.000000 0.000000
# 3 -0.003079 -0.001399 0.010798 0.000000 0.000000 0.000000
# 4 0.000000 0.000000 0.000000 0.052854 0.000000 0.000000
# 5 0.000000 0.000000 0.000000 0.000000 0.010334 0.000000
# 6 0.000000 0.000000 0.000000 0.000000 0.000000 -0.746402
#
#
# Mechanical properties :
#
#
# Convention : Reuss Voigt Hill
#
# Bulk Modulus (GPa) = 49.42251 56.18631 52.80441
# Shear Modulus (GPa) = -8.32342 35.26347 13.47002
#
# Velocity S-wave (km/s) = -2.14795 4.42115 2.73248
# Velocity P-wave (km/s) = 4.60905 7.56348 6.26297
#
# Compressibility (1/GPa) = 0.02023370
#
# Stress axis : x y z
#
# Youngs Moduli (GPa) = 39.67678 83.38510 92.61075
#
# Poissons Ratio (x) = 0.78398 0.28515
# Poissons Ratio (y) = 0.37304 0.12959
# Poissons Ratio (z) = 0.12216 0.11668
#
# Static dielectric constant tensor:
#      x y z
#    x 1.698190 0.000000 0.000000 
#    y 0.000000 1.602280 0.000000 
#    z 0.000000 0.000000 1.659600 
# 
# From -- ./inp_files/19482.got.cif
#   From: 2010.05.17/outbox.cif.g08.bks.cpg/sg63_10_cif.got.tgz:19482.got - 2010.06.03 15:47:04.
