data_PCOD9470526
_publ_section_title
;
Structure prediction by ZEFSAII (Michael W. Deem and Ramdas Pophale) SiO2 
 PCOD9470526
Probable space group: C M C M
;
_chemical_formula_sum "Si O2"
_cell_formula_units_Z 104
_cell_length_a 32.565586
_cell_length_b 20.231141
_cell_length_c 8.825655
_cell_angle_alpha 90.000000
_cell_angle_beta 90.000000
_cell_angle_gamma 90.000000
_cell_volume 5814.685380
_symmetry_space_group_name_H-M "C M C M"
_symmetry_group_IT_number 63
_symmetry_cell_setting 'orthorhombic'
loop_
_space_group_symop_operation_xyz
x,y,z
-x,-y,1/2+z
x,-y,-z
-x,y,1/2-z
-x,-y,-z
x,y,1/2-z
-x,y,z
x,-y,1/2+z
1/2+x,1/2+y,z
1/2-x,1/2-y,1/2+z
1/2+x,1/2-y,-z
1/2-x,1/2+y,1/2-z
1/2-x,1/2-y,-z
1/2+x,1/2+y,1/2-z
1/2-x,1/2+y,z
1/2+x,1/2-y,1/2+z
loop_
_atom_site_type_symbol
_atom_site_label
_atom_site_fract_x
_atom_site_fract_y
_atom_site_fract_z
Si Si1 0.808484 0.713158 0.931418
Si Si2 0.500000 0.426201 0.566190
Si Si3 0.344573 0.429354 0.930874
Si Si4 0.403244 0.807572 0.067401
Si Si5 0.548054 0.929900 0.930969
Si Si6 0.078956 0.840200 0.934149
Si Si7 0.224726 0.848614 0.070561
O O1 0.806915 0.727392 0.750000
O O2 0.854654 0.692404 0.968049
O O3 0.773069 0.659541 0.964268
O O4 0.795704 0.779541 0.018228
O O5 0.500000 0.500000 0.500000
O O6 0.500000 0.430680 0.750000
O O7 0.459811 0.384402 0.518975
O O8 0.345354 0.432872 0.750000
O O9 0.378856 0.376025 0.980373
O O10 0.355006 0.500000 0.000000
O O11 0.300192 0.405334 0.986248
O O12 0.407380 0.811666 0.250000
O O13 0.421038 0.736173 0.017193
O O14 0.426302 0.868660 0.993504
O O15 0.550961 0.932888 0.750000
O O16 0.500000 0.921059 0.972810
O O17 0.561734 0.000000 0.000000
O O18 0.078768 0.838994 0.750000
O O19 0.220047 0.856951 0.250000
#
# Coordination Sequence:
#
# PCOD9470526 Si02
#       7
#    16   8  16  16  16  16  16
#     4   9  18  34  55  79 110 143 179 223 273 328
#     4  10  20  36  54  76 105 146 189 228 273 328
#     4  11  21  36  54  77 110 148 190 236 280 327
#     4  10  19  35  59  86 113 146 183 227 276 329
#     4  10  22  40  60  85 115 146 181 223 273 333
#     4   9  19  34  55  79 108 144 186 226 272 328
#     4  10  19  32  53  80 107 142 184 226 275 329
#
# _framework density 17.885748
#
# number of rings (size 3 to 8) (size 9 to 14) (size 15 to 20)
#    0.000    2.154    1.538    1.846    1.077    2.154 
#    0.000    2.308    0.000    0.000    0.000    0.000 
#    0.000    0.000    0.000    0.000    0.000    0.000 
#
# Total GULP energy -290182.603198 kJ/mol
# GULP energy per Si atom -5580.434677 kJ/mol
# Density = 1.784504 g / cm^3
# Si number density = 17.885748 Si / 1000 Ang^3
#
#
#
# Elastic Constant Matrix: (Units=GPa)
#
#
# Indices 1 2 3 4 5 6 
#
# 1 105.6832 73.0226 33.3334 0.0000 0.0000 0.0000
# 2 73.0226 149.5401 37.4099 0.0000 0.0000 0.0000
# 3 33.3334 37.4099 28.7891 0.0000 0.0000 0.0000
# 4 0.0000 0.0000 0.0000 34.9422 0.0000 0.0000
# 5 0.0000 0.0000 0.0000 0.0000 22.0001 0.0000
# 6 0.0000 0.0000 0.0000 0.0000 0.0000 24.4577
#
#
#
# Elastic Compliance Matrix: (Units=1/GPa)
#
#
# Indices 1 2 3 4 5 6 
#
# 1 0.017140 -0.005045 -0.013289 0.000000 0.000000 0.000000
# 2 -0.005045 0.011393 -0.008963 0.000000 0.000000 0.000000
# 3 -0.013289 -0.008963 0.061770 0.000000 0.000000 0.000000
# 4 0.000000 0.000000 0.000000 0.028619 0.000000 0.000000
# 5 0.000000 0.000000 0.000000 0.000000 0.045454 0.000000
# 6 0.000000 0.000000 0.000000 0.000000 0.000000 0.040887
#
#
# Mechanical properties :
#
#
# Convention : Reuss Voigt Hill
#
# Bulk Modulus (GPa) = 28.00564 63.50491 45.75527
# Shear Modulus (GPa) = 18.39855 25.62977 22.01416
#
# Velocity S-wave (km/s) = 3.21077 3.78957 3.51211
# Velocity P-wave (km/s) = 5.42563 7.39802 6.48723
#
# Compressibility (1/GPa) = 0.03570710
#
# Stress axis : x y z
#
# Youngs Moduli (GPa) = 58.34396 87.77296 16.18911
#
# Poissons Ratio (x) = 0.44281 0.21515
# Poissons Ratio (y) = 0.29435 0.14511
# Poissons Ratio (z) = 0.77536 0.78674
#
# Static dielectric constant tensor:
#      x y z
#    x 1.621360 0.000000 0.000000 
#    y 0.000000 1.588710 0.000000 
#    z 0.000000 0.000000 1.606870 
# 
# From -- ./inp_files/14449.got.cif
#   From: 2010.05.17/outbox.cif.g08.bks.cpg/sg63_8_cif.got.tgz:14449.got - 2010.06.03 15:47:04.
