data_PCOD9470104
_publ_section_title
;
Structure prediction by ZEFSAII (Michael W. Deem and Ramdas Pophale) SiO2 
 PCOD9470104
Probable space group: C M C M
;
_chemical_formula_sum "Si O2"
_cell_formula_units_Z 104
_cell_length_a 26.625608
_cell_length_b 22.245925
_cell_length_c 8.155476
_cell_angle_alpha 90.000000
_cell_angle_beta 90.000000
_cell_angle_gamma 90.000000
_cell_volume 4830.580418
_symmetry_space_group_name_H-M "C M C M"
_symmetry_group_IT_number 63
_symmetry_cell_setting 'orthorhombic'
loop_
_space_group_symop_operation_xyz
x,y,z
-x,-y,1/2+z
x,-y,-z
-x,y,1/2-z
-x,-y,-z
x,y,1/2-z
-x,y,z
x,-y,1/2+z
1/2+x,1/2+y,z
1/2-x,1/2-y,1/2+z
1/2+x,1/2-y,-z
1/2-x,1/2+y,1/2-z
1/2-x,1/2-y,-z
1/2+x,1/2+y,1/2-z
1/2-x,1/2+y,z
1/2+x,1/2-y,1/2+z
loop_
_atom_site_type_symbol
_atom_site_label
_atom_site_fract_x
_atom_site_fract_y
_atom_site_fract_z
Si Si1 0.218542 0.159596 0.058084
Si Si2 0.705574 0.935498 0.555120
Si Si3 0.357064 0.245654 0.945707
Si Si4 0.056819 0.835854 0.446634
Si Si5 0.106970 0.382813 0.054074
Si Si6 0.364849 0.568203 0.944670
Si Si7 0.500000 0.930734 0.555974
O O1 0.228687 0.171201 0.250000
O O2 0.265909 0.123639 0.984600
O O3 0.192569 0.219918 0.986583
O O4 0.175070 0.109179 0.040391
O O5 0.710255 0.933336 0.750000
O O6 0.647670 0.930836 0.505361
O O7 0.726815 0.000000 0.500000
O O8 0.349803 0.240312 0.750000
O O9 0.372628 0.180954 0.013204
O O10 0.404636 0.288661 0.976589
O O11 0.057056 0.826099 0.250000
O O12 0.081073 0.901254 0.475203
O O13 0.000000 0.830223 0.506574
O O14 0.108097 0.380836 0.250000
O O15 0.050677 0.398407 0.003199
O O16 0.354077 0.573141 0.750000
O O17 0.362844 0.500000 0.000000
O O18 0.500000 0.070058 0.250000
O O19 0.500000 0.000000 0.500000
#
# Coordination Sequence:
#
# PCOD9470104 Si02
#       7
#    16  16  16  16  16  16   8
#     4   9  19  37  59  84 116 154 195 240 289 345
#     4  11  23  39  61  89 121 157 200 245 295 352
#     4   9  20  38  59  85 117 153 194 239 290 349
#     4   9  19  34  51  74 106 144 188 242 295 347
#     4  11  24  42  64  92 125 158 196 243 298 356
#     4  10  19  31  49  74 106 145 191 240 293 351
#     4  12  26  46  70  94 124 160 201 248 301 356
#
# _framework density 21.529502000000001
#
# number of rings (size 3 to 8) (size 9 to 14) (size 15 to 20)
#    0.000    2.000    0.000    3.000    1.077    5.538 
#    0.000    0.000    0.000    0.000    0.000    0.000 
#    0.000    0.000    0.000    0.000    0.000    0.000 
#
# Total GULP energy -290385.957516 kJ/mol
# GULP energy per Si atom -5584.345337 kJ/mol
# Density = 2.148050 g / cm^3
# Si number density = 21.529502 Si / 1000 Ang^3
#
#
#
# Elastic Constant Matrix: (Units=GPa)
#
#
# Indices 1 2 3 4 5 6 
#
# 1 130.3577 39.5141 2.7555 0.0000 0.0000 0.0000
# 2 39.5141 124.7848 2.3471 0.0000 0.0000 0.0000
# 3 2.7555 2.3471 33.1583 0.0000 0.0000 0.0000
# 4 0.0000 0.0000 0.0000 22.7478 0.0000 0.0000
# 5 0.0000 0.0000 0.0000 0.0000 19.1540 0.0000
# 6 0.0000 0.0000 0.0000 0.0000 0.0000 25.1974
#
#
#
# Elastic Compliance Matrix: (Units=1/GPa)
#
#
# Indices 1 2 3 4 5 6 
#
# 1 0.008495 -0.002680 -0.000516 0.000000 0.000000 0.000000
# 2 -0.002680 0.008870 -0.000405 0.000000 0.000000 0.000000
# 3 -0.000516 -0.000405 0.030230 0.000000 0.000000 0.000000
# 4 0.000000 0.000000 0.000000 0.043960 0.000000 0.000000
# 5 0.000000 0.000000 0.000000 0.000000 0.052208 0.000000
# 6 0.000000 0.000000 0.000000 0.000000 0.000000 0.039687
#
#
# Mechanical properties :
#
#
# Convention : Reuss Voigt Hill
#
# Bulk Modulus (GPa) = 24.75765 41.94827 33.35296
# Shear Modulus (GPa) = 24.49580 29.66546 27.08063
#
# Velocity S-wave (km/s) = 3.37676 3.71603 3.55045
# Velocity P-wave (km/s) = 5.16988 6.15940 5.68621
#
# Compressibility (1/GPa) = 0.04039156
#
# Stress axis : x y z
#
# Youngs Moduli (GPa) = 117.72300 112.73821 33.07981
#
# Poissons Ratio (x) = 0.30216 0.01708
# Poissons Ratio (y) = 0.31552 0.01340
# Poissons Ratio (z) = 0.06077 0.04568
#
# Static dielectric constant tensor:
#      x y z
#    x 1.757270 0.000000 0.000000 
#    y 0.000000 1.798830 0.000000 
#    z 0.000000 0.000000 1.768270 
# 
# From -- ./inp_files/12519.got.cif
#   From: 2010.05.17/outbox.cif.g08.bks.cpg/sg63_7_cif.got.tgz:12519.got - 2010.06.03 15:47:04.
