data_PCOD9470300
_publ_section_title
;
Structure prediction by ZEFSAII (Michael W. Deem and Ramdas Pophale) SiO2 
 PCOD9470300
Probable space group: C M C M
;
_chemical_formula_sum "Si O2"
_cell_formula_units_Z 88
_cell_length_a 27.667338
_cell_length_b 17.865867
_cell_length_c 9.613688
_cell_angle_alpha 90.000000
_cell_angle_beta 90.000000
_cell_angle_gamma 90.000000
_cell_volume 4752.055409
_symmetry_space_group_name_H-M "C M C M"
_symmetry_group_IT_number 63
_symmetry_cell_setting 'orthorhombic'
loop_
_space_group_symop_operation_xyz
x,y,z
-x,-y,1/2+z
x,-y,-z
-x,y,1/2-z
-x,-y,-z
x,y,1/2-z
-x,y,z
x,-y,1/2+z
1/2+x,1/2+y,z
1/2-x,1/2-y,1/2+z
1/2+x,1/2-y,-z
1/2-x,1/2+y,1/2-z
1/2-x,1/2-y,-z
1/2+x,1/2+y,1/2-z
1/2-x,1/2+y,z
1/2+x,1/2-y,1/2+z
loop_
_atom_site_type_symbol
_atom_site_label
_atom_site_fract_x
_atom_site_fract_y
_atom_site_fract_z
Si Si1 0.338551 0.875746 0.089392
Si Si2 0.553806 0.840876 0.084594
Si Si3 0.080848 0.194339 0.913911
Si Si4 0.000000 0.927231 0.089588
Si Si5 0.751128 0.429650 0.585517
Si Si6 0.672609 0.696820 0.091063
O O1 0.330435 0.899597 0.250000
O O2 0.395818 0.884295 0.056879
O O3 0.324490 0.787126 0.082826
O O4 0.303621 0.915584 0.981278
O O5 0.555808 0.823522 0.250000
O O6 0.500000 0.873640 0.057192
O O7 0.559506 0.765412 0.995908
O O8 0.083475 0.211180 0.750000
O O9 0.046031 0.124720 0.935988
O O10 0.132582 0.176339 0.978594
O O11 0.000000 0.948958 0.250000
O O12 0.000000 0.000000 0.000000
O O13 0.729712 0.500000 0.500000
O O14 0.753257 0.445384 0.750000
O O15 0.719841 0.353573 0.567365
O O16 0.656287 0.680697 0.250000
#
# Coordination Sequence:
#
# PCOD9470300 Si02
#       6
#    16  16  16   8  16  16
#     4   9  18  34  56  83 111 138 176 221 264 319
#     4   9  17  31  54  81 108 138 169 208 262 317
#     4  10  19  32  49  73 103 131 170 221 264 306
#     4  10  22  34  44  64  96 136 177 216 259 308
#     4  11  23  38  56  78 108 144 181 222 271 325
#     4   9  20  37  56  79 105 138 180 221 267 322
#
# _framework density 18.518303
#
# number of rings (size 3 to 8) (size 9 to 14) (size 15 to 20)
#    0.000    2.364    0.909    2.727    0.000    6.545 
#    0.000    3.636    0.000    0.545    0.000    0.000 
#    0.000    0.000    0.000    0.000    0.000    0.000 
#
# Total GULP energy -245227.502093 kJ/mol
# GULP energy per Si atom -5573.352320 kJ/mol
# Density = 1.847615 g / cm^3
# Si number density = 18.518303 Si / 1000 Ang^3
#
#
#
# Elastic Constant Matrix: (Units=GPa)
#
#
# Indices 1 2 3 4 5 6 
#
# 1 94.2396 11.5946 29.4057 0.0000 0.0000 0.0000
# 2 11.5946 21.8063 13.5793 0.0000 0.0000 0.0000
# 3 29.4057 13.5793 45.8584 0.0000 0.0000 0.0000
# 4 0.0000 0.0000 0.0000 26.2883 0.0000 0.0000
# 5 0.0000 0.0000 0.0000 0.0000 27.1033 0.0000
# 6 0.0000 0.0000 0.0000 0.0000 0.0000 52.3799
#
#
#
# Elastic Compliance Matrix: (Units=1/GPa)
#
#
# Indices 1 2 3 4 5 6 
#
# 1 0.013348 -0.002167 -0.007918 0.000000 0.000000 0.000000
# 2 -0.002167 0.056578 -0.015364 0.000000 0.000000 0.000000
# 3 -0.007918 -0.015364 0.031433 0.000000 0.000000 0.000000
# 4 0.000000 0.000000 0.000000 0.038040 0.000000 0.000000
# 5 0.000000 0.000000 0.000000 0.000000 0.036896 0.000000
# 6 0.000000 0.000000 0.000000 0.000000 0.000000 0.019091
#
#
# Mechanical properties :
#
#
# Convention : Reuss Voigt Hill
#
# Bulk Modulus (GPa) = 19.81690 30.11815 24.96752
# Shear Modulus (GPa) = 19.00387 28.30928 23.65657
#
# Velocity S-wave (km/s) = 3.20694 3.91413 3.57805
# Velocity P-wave (km/s) = 4.94339 6.06024 5.53008
#
# Compressibility (1/GPa) = 0.05046199
#
# Stress axis : x y z
#
# Youngs Moduli (GPa) = 74.91520 17.67468 31.81389
#
# Poissons Ratio (x) = 0.03830 0.25189
# Poissons Ratio (y) = 0.16234 0.48879
# Poissons Ratio (z) = 0.59316 0.27155
#
# Static dielectric constant tensor:
#      x y z
#    x 1.664910 0.000000 0.000000 
#    y 0.000000 1.627940 0.000000 
#    z 0.000000 0.000000 1.578550 
# 
# From -- ./inp_files/14174.got.cif
#   From: 2010.05.17/outbox.cif.g08.bks.cpg/sg63_8_cif.got.tgz:14174.got - 2010.06.03 15:47:04.
