data_PCOD9470151
_publ_section_title
;
Structure prediction by ZEFSAII (Michael W. Deem and Ramdas Pophale) SiO2 
 PCOD9470151
Probable space group: C M C M
;
_chemical_formula_sum "Si O2"
_cell_formula_units_Z 80
_cell_length_a 21.078341
_cell_length_b 20.428497
_cell_length_c 8.054488
_cell_angle_alpha 90.000000
_cell_angle_beta 90.000000
_cell_angle_gamma 90.000000
_cell_volume 3468.253076
_symmetry_space_group_name_H-M "C M C M"
_symmetry_group_IT_number 63
_symmetry_cell_setting 'orthorhombic'
loop_
_space_group_symop_operation_xyz
x,y,z
-x,-y,1/2+z
x,-y,-z
-x,y,1/2-z
-x,-y,-z
x,y,1/2-z
-x,y,z
x,-y,1/2+z
1/2+x,1/2+y,z
1/2-x,1/2-y,1/2+z
1/2+x,1/2-y,-z
1/2-x,1/2+y,1/2-z
1/2-x,1/2-y,-z
1/2+x,1/2+y,1/2-z
1/2-x,1/2+y,z
1/2+x,1/2-y,1/2+z
loop_
_atom_site_type_symbol
_atom_site_label
_atom_site_fract_x
_atom_site_fract_y
_atom_site_fract_z
Si Si1 0.848606 0.752984 0.433412
Si Si2 0.931653 0.075564 0.949943
Si Si3 0.073778 0.585990 0.750000
Si Si4 0.792236 0.884692 0.055665
Si Si5 0.159511 0.595002 0.065558
Si Si6 0.929326 0.744964 0.750000
O O1 0.875948 0.768084 0.250000
O O2 0.791347 0.804952 0.450688
O O3 0.839998 0.674838 0.437263
O O4 0.894349 0.766655 0.585139
O O5 0.930341 0.081769 0.750000
O O6 0.862375 0.098646 0.008498
O O7 0.000000 0.104376 0.006179
O O8 0.933787 0.000000 0.000000
O O9 0.114482 0.570747 0.583607
O O10 0.070488 0.665498 0.750000
O O11 0.000000 0.562446 0.750000
O O12 0.786631 0.902321 0.250000
O O13 0.733774 0.918728 0.964745
O O14 0.138851 0.574296 0.250000
O O15 0.000000 0.768235 0.750000
#
# Coordination Sequence:
#
# PCOD9470151 Si02
#       6
#    16  16   8  16  16   8
#     4   9  19  31  45  69 100 134 172 215 264 312
#     4   9  19  36  55  74 101 140 182 227 277 321
#     4   9  18  34  50  68 102 139 169 207 251 302
#     4  10  19  32  51  73  99 136 176 219 268 320
#     4  10  19  31  50  76 104 138 174 217 259 311
#     4   9  18  30  44  64  93 131 173 211 254 306
#
# _framework density 23.066368000000001
#
# number of rings (size 3 to 8) (size 9 to 14) (size 15 to 20)
#    0.000    2.600    1.000    0.600    1.400    2.400 
#    0.000    6.000    0.000    0.000    0.000    0.000 
#    0.000    0.800    0.400    0.000    0.000    0.000 
#
# Total GULP energy -223082.062797 kJ/mol
# GULP energy per Si atom -5577.051570 kJ/mol
# Density = 2.301387 g / cm^3
# Si number density = 23.066368 Si / 1000 Ang^3
#
#
#
# Elastic Constant Matrix: (Units=GPa)
#
#
# Indices 1 2 3 4 5 6 
#
# 1 167.9077 12.6232 96.8596 0.0000 0.0000 0.0000
# 2 12.6232 61.1873 14.0670 0.0000 0.0000 0.0000
# 3 96.8596 14.0670 154.9835 0.0000 0.0000 0.0000
# 4 0.0000 0.0000 0.0000 23.1794 0.0000 0.0000
# 5 0.0000 0.0000 0.0000 0.0000 42.3847 0.0000
# 6 0.0000 0.0000 0.0000 0.0000 0.0000 13.0935
#
#
#
# Elastic Compliance Matrix: (Units=1/GPa)
#
#
# Indices 1 2 3 4 5 6 
#
# 1 0.009335 -0.000597 -0.005780 0.000000 0.000000 0.000000
# 2 -0.000597 0.016730 -0.001145 0.000000 0.000000 0.000000
# 3 -0.005780 -0.001145 0.010168 0.000000 0.000000 0.000000
# 4 0.000000 0.000000 0.000000 0.043142 0.000000 0.000000
# 5 0.000000 0.000000 0.000000 0.000000 0.023593 0.000000
# 6 0.000000 0.000000 0.000000 0.000000 0.000000 0.076374
#
#
# Mechanical properties :
#
#
# Convention : Reuss Voigt Hill
#
# Bulk Modulus (GPa) = 47.19505 70.13092 58.66299
# Shear Modulus (GPa) = 24.82026 33.10011 28.96019
#
# Velocity S-wave (km/s) = 3.28386 3.79224 3.54717
# Velocity P-wave (km/s) = 5.90621 7.04590 6.50108
#
# Compressibility (1/GPa) = 0.02118866
#
# Stress axis : x y z
#
# Youngs Moduli (GPa) = 107.12857 59.77381 98.34461
#
# Poissons Ratio (x) = 0.03569 0.56839
# Poissons Ratio (y) = 0.06396 0.11264
# Poissons Ratio (z) = 0.61916 0.06846
#
# Static dielectric constant tensor:
#      x y z
#    x 1.874040 0.000000 0.000000 
#    y 0.000000 1.897930 0.000000 
#    z 0.000000 0.000000 1.819230 
# 
# From -- ./inp_files/6715.got.cif
#   From: 2010.05.17/outbox.cif.g08.bks.cpg/sg63_4_cif.got.tgz:6715.got - 2010.06.03 15:47:04.
