data_PCOD9470569
_publ_section_title
;
Structure prediction by ZEFSAII (Michael W. Deem and Ramdas Pophale) SiO2 
 PCOD9470569
Probable space group: C M C M
;
_chemical_formula_sum "Si O2"
_cell_formula_units_Z 96
_cell_length_a 20.910070
_cell_length_b 14.996550
_cell_length_c 14.886108
_cell_angle_alpha 90.000000
_cell_angle_beta 90.000000
_cell_angle_gamma 90.000000
_cell_volume 4667.969525
_symmetry_space_group_name_H-M "C M C M"
_symmetry_group_IT_number 63
_symmetry_cell_setting 'orthorhombic'
loop_
_space_group_symop_operation_xyz
x,y,z
-x,-y,1/2+z
x,-y,-z
-x,y,1/2-z
-x,-y,-z
x,y,1/2-z
-x,y,z
x,-y,1/2+z
1/2+x,1/2+y,z
1/2-x,1/2-y,1/2+z
1/2+x,1/2-y,-z
1/2-x,1/2+y,1/2-z
1/2-x,1/2-y,-z
1/2+x,1/2+y,1/2-z
1/2-x,1/2+y,z
1/2+x,1/2-y,1/2+z
loop_
_atom_site_type_symbol
_atom_site_label
_atom_site_fract_x
_atom_site_fract_y
_atom_site_fract_z
Si Si1 0.735908 0.929868 0.640432
Si Si2 0.315273 0.256427 0.357620
Si Si3 0.926340 0.890472 0.099384
Si Si4 0.929464 0.273905 0.147154
Si Si5 0.194697 0.373188 0.139695
Si Si6 0.384368 0.581323 0.395638
O O1 0.742170 0.929419 0.750000
O O2 0.693771 0.845162 0.611806
O O3 0.807558 0.919831 0.602783
O O4 0.706241 0.024588 0.614489
O O5 0.309848 0.253738 0.250000
O O6 0.379822 0.309297 0.377613
O O7 0.255109 0.314636 0.391036
O O8 0.000000 0.872136 0.118913
O O9 0.905861 0.985458 0.142381
O O10 0.914687 0.907359 0.993959
O O11 0.934686 0.305265 0.250000
O O12 0.871167 0.329724 0.106030
O O13 0.908470 0.170732 0.151358
O O14 0.000000 0.281508 0.104840
O O15 0.194298 0.369248 0.250000
#
# Coordination Sequence:
#
# PCOD9470569 Si02
#       6
#    16  16  16  16  16  16
#     4  10  19  34  58  85 110 138 178 224 267 316
#     4  10  20  36  57  80 106 140 182 224 265 317
#     4  11  24  38  52  77 113 148 180 219 272 327
#     4  10  19  32  54  82 107 137 178 221 269 319
#     4   9  17  32  53  80 111 137 170 221 268 313
#     4  11  20  35  56  77 111 142 176 223 275 317
#
# _framework density 20.565687
#
# number of rings (size 3 to 8) (size 9 to 14) (size 15 to 20)
#    0.000    1.833    3.333    2.500    0.000    1.667 
#    0.000    0.833    0.000    3.000    0.000    2.333 
#    0.000    0.000    0.000    0.000    0.000    0.000 
#
# Total GULP energy -268055.599858 kJ/mol
# GULP energy per Si atom -5584.491664 kJ/mol
# Density = 2.051888 g / cm^3
# Si number density = 20.565687 Si / 1000 Ang^3
#
#
#
# Elastic Constant Matrix: (Units=GPa)
#
#
# Indices 1 2 3 4 5 6 
#
# 1 193.1230 98.7101 -0.2602 0.0000 0.0000 0.0000
# 2 98.7101 162.5130 4.2467 0.0000 0.0000 0.0000
# 3 -0.2602 4.2467 27.8512 0.0000 0.0000 0.0000
# 4 0.0000 0.0000 0.0000 107.0131 0.0000 0.0000
# 5 0.0000 0.0000 0.0000 0.0000 36.6651 0.0000
# 6 0.0000 0.0000 0.0000 0.0000 0.0000 17.7159
#
#
#
# Elastic Compliance Matrix: (Units=1/GPa)
#
#
# Indices 1 2 3 4 5 6 
#
# 1 0.007526 -0.004591 0.000770 0.000000 0.000000 0.000000
# 2 -0.004591 0.008979 -0.001412 0.000000 0.000000 0.000000
# 3 0.000770 -0.001412 0.036128 0.000000 0.000000 0.000000
# 4 0.000000 0.000000 0.000000 0.009345 0.000000 0.000000
# 5 0.000000 0.000000 0.000000 0.000000 0.027274 0.000000
# 6 0.000000 0.000000 0.000000 0.000000 0.000000 0.056446
#
#
# Mechanical properties :
#
#
# Convention : Reuss Voigt Hill
#
# Bulk Modulus (GPa) = 23.71548 65.43116 44.57332
# Shear Modulus (GPa) = 29.37398 50.99819 40.18608
#
# Velocity S-wave (km/s) = 3.78339 4.98513 4.42524
# Velocity P-wave (km/s) = 5.53552 8.06351 6.91600
#
# Compressibility (1/GPa) = 0.04216656
#
# Stress axis : x y z
#
# Youngs Moduli (GPa) = 132.87597 111.37099 27.67970
#
# Poissons Ratio (x) = 0.51134 -0.02132
# Poissons Ratio (y) = 0.61007 0.03908
# Poissons Ratio (z) = -0.10236 0.15725
#
# Static dielectric constant tensor:
#      x y z
#    x 1.713450 0.000000 0.000000 
#    y 0.000000 1.735260 0.000000 
#    z 0.000000 0.000000 1.850490 
# 
# From -- ./inp_files/35315.got.cif
#   From: 2010.05.17/outbox.cif.g08.bks.cpg/sg63_18_cif.got.tgz:35315.got - 2010.06.03 15:47:04.
