data_PCOD9470597
_publ_section_title
;
Structure prediction by ZEFSAII (Michael W. Deem and Ramdas Pophale) SiO2 
 PCOD9470597
Probable space group: C M C M
;
_chemical_formula_sum "Si O2"
_cell_formula_units_Z 112
_cell_length_a 24.223262
_cell_length_b 14.331112
_cell_length_c 14.731826
_cell_angle_alpha 90.000000
_cell_angle_beta 90.000000
_cell_angle_gamma 90.000000
_cell_volume 5114.098604
_symmetry_space_group_name_H-M "C M C M"
_symmetry_group_IT_number 63
_symmetry_cell_setting 'orthorhombic'
loop_
_space_group_symop_operation_xyz
x,y,z
-x,-y,1/2+z
x,-y,-z
-x,y,1/2-z
-x,-y,-z
x,y,1/2-z
-x,y,z
x,-y,1/2+z
1/2+x,1/2+y,z
1/2-x,1/2-y,1/2+z
1/2+x,1/2-y,-z
1/2-x,1/2+y,1/2-z
1/2-x,1/2-y,-z
1/2+x,1/2+y,1/2-z
1/2-x,1/2+y,z
1/2+x,1/2-y,1/2+z
loop_
_atom_site_type_symbol
_atom_site_label
_atom_site_fract_x
_atom_site_fract_y
_atom_site_fract_z
Si Si1 0.065939 0.232538 0.524766
Si Si2 0.114995 0.855147 0.647985
Si Si3 0.882401 0.067645 0.644262
Si Si4 0.325979 0.007555 0.888989
Si Si5 0.764587 0.142713 0.603885
Si Si6 0.756854 0.846985 0.614733
Si Si7 0.938674 0.559319 0.407314
O O1 0.092533 0.216749 0.426006
O O2 0.089649 0.149290 0.586565
O O3 0.078210 0.334695 0.566093
O O4 0.000000 0.225433 0.518162
O O5 0.093565 0.840311 0.750000
O O6 0.181315 0.851025 0.650755
O O7 0.101621 0.961930 0.617792
O O8 0.896247 0.078704 0.750000
O O9 0.816339 0.080595 0.633013
O O10 0.294525 0.102574 0.866353
O O11 0.284052 0.928080 0.856768
O O12 0.387670 0.988728 0.856643
O O13 0.327718 0.000000 0.000000
O O14 0.763917 0.144637 0.494468
O O15 0.770429 0.247963 0.636185
O O16 0.943880 0.500000 0.500000
O O17 0.000000 0.561225 0.365253
#
# Coordination Sequence:
#
# PCOD9470597 Si02
#       7
#    16  16  16  16  16  16  16
#     4  11  24  42  67  92 121 169 215 255 314 374
#     4  11  24  39  60  90 126 164 207 258 316 375
#     4  11  23  40  62  92 130 164 204 262 318 374
#     4   9  17  28  52  88 116 158 202 242 300 365
#     4  10  19  32  57  88 119 165 205 247 310 377
#     4  10  19  32  56  85 120 162 203 250 305 368
#     4   9  19  36  60  95 128 159 210 261 305 366
#
# _framework density 21.900241000000001
#
# number of rings (size 3 to 8) (size 9 to 14) (size 15 to 20)
#    0.000    1.857    2.857    1.286    6.000    2.286 
#    0.000    1.429    0.000    0.857    0.000    4.000 
#    0.000    0.000    0.000    0.000    0.000    0.000 
#
# Total GULP energy -312956.511851 kJ/mol
# GULP energy per Si atom -5588.509140 kJ/mol
# Density = 2.185040 g / cm^3
# Si number density = 21.900241 Si / 1000 Ang^3
#
#
#
# Elastic Constant Matrix: (Units=GPa)
#
#
# Indices 1 2 3 4 5 6 
#
# 1 103.3431 10.9279 12.3119 0.0000 0.0000 0.0000
# 2 10.9279 50.7307 7.3068 0.0000 0.0000 0.0000
# 3 12.3119 7.3068 73.2341 0.0000 0.0000 0.0000
# 4 0.0000 0.0000 0.0000 -9.0795 0.0000 0.0000
# 5 0.0000 0.0000 0.0000 0.0000 -26.0855 0.0000
# 6 0.0000 0.0000 0.0000 0.0000 0.0000 35.1687
#
#
#
# Elastic Compliance Matrix: (Units=1/GPa)
#
#
# Indices 1 2 3 4 5 6 
#
# 1 0.010061 -0.001952 -0.001497 0.000000 0.000000 0.000000
# 2 -0.001952 0.020378 -0.001705 0.000000 0.000000 0.000000
# 3 -0.001497 -0.001705 0.014077 0.000000 0.000000 0.000000
# 4 0.000000 0.000000 0.000000 -0.110139 0.000000 0.000000
# 5 0.000000 0.000000 0.000000 0.000000 -0.038335 0.000000
# 6 0.000000 0.000000 0.000000 0.000000 0.000000 0.028434
#
#
# Mechanical properties :
#
#
# Convention : Reuss Voigt Hill
#
# Bulk Modulus (GPa) = 29.23230 32.04455 30.63842
# Shear Modulus (GPa) = -92.91263 13.11816 -39.89724
#
# Velocity S-wave (km/s) = -6.52054 2.45009 -4.27285
# Velocity P-wave (km/s) = 6.58127 4.76107 3.21289
#
# Compressibility (1/GPa) = 0.03420874
#
# Stress axis : x y z
#
# Youngs Moduli (GPa) = 99.39171 49.07267 71.04001
#
# Poissons Ratio (x) = 0.09578 0.10633
# Poissons Ratio (y) = 0.19398 0.12113
# Poissons Ratio (z) = 0.14876 0.08367
#
# Static dielectric constant tensor:
#      x y z
#    x 1.794360 0.000000 0.000000 
#    y 0.000000 1.792950 0.000000 
#    z 0.000000 0.000000 1.845320 
# 
# From -- ./inp_files/37937.got.cif
#   From: 2010.05.17/outbox.cif.g08.bks.cpg/sg63_19_cif.got.tgz:37937.got - 2010.06.03 15:47:04.
