data_PCOD9470495
_publ_section_title
;
Structure prediction by ZEFSAII (Michael W. Deem and Ramdas Pophale) SiO2 
 PCOD9470495
Probable space group: C M C M
;
_chemical_formula_sum "Si O2"
_cell_formula_units_Z 120
_cell_length_a 19.997512
_cell_length_b 14.012391
_cell_length_c 22.267057
_cell_angle_alpha 90.000000
_cell_angle_beta 90.000000
_cell_angle_gamma 90.000000
_cell_volume 6239.517889
_symmetry_space_group_name_H-M "C M C M"
_symmetry_group_IT_number 63
_symmetry_cell_setting 'orthorhombic'
loop_
_space_group_symop_operation_xyz
x,y,z
-x,-y,1/2+z
x,-y,-z
-x,y,1/2-z
-x,-y,-z
x,y,1/2-z
-x,y,z
x,-y,1/2+z
1/2+x,1/2+y,z
1/2-x,1/2-y,1/2+z
1/2+x,1/2-y,-z
1/2-x,1/2+y,1/2-z
1/2-x,1/2-y,-z
1/2+x,1/2+y,1/2-z
1/2-x,1/2+y,z
1/2+x,1/2-y,1/2+z
loop_
_atom_site_type_symbol
_atom_site_label
_atom_site_fract_x
_atom_site_fract_y
_atom_site_fract_z
Si Si1 0.857823 0.500000 0.500000
Si Si2 0.267854 0.141145 0.074024
Si Si3 0.126389 0.195611 0.578258
Si Si4 0.421017 0.098653 0.613338
Si Si5 0.384828 0.698100 0.059168
Si Si6 0.926158 0.995675 0.072407
Si Si7 0.180583 0.473564 0.817654
Si Si8 0.927809 0.693516 0.314534
O O1 0.809628 0.585307 0.477300
O O2 0.903565 0.533562 0.555126
O O3 0.307135 0.240728 0.084245
O O4 0.193498 0.170834 0.057181
O O5 0.270012 0.067418 0.130706
O O6 0.096639 0.209445 0.511330
O O7 0.129391 0.082209 0.589139
O O8 0.080001 0.238423 0.629546
O O9 0.500000 0.090336 0.629163
O O10 0.403978 0.206562 0.593841
O O11 0.365538 0.062077 0.661112
O O12 0.416935 0.605121 0.089855
O O13 0.000000 0.961581 0.090557
O O14 0.924119 0.000000 0.000000
O O15 0.207673 0.487377 0.750000
O O16 0.127809 0.386743 0.815960
O O17 0.922552 0.744433 0.250000
O O18 0.000000 0.645499 0.317364
#
# Coordination Sequence:
#
# PCOD9470495 Si02
#       8
#     8  16  16  16  16  16  16  16
#     4  10  21  36  54  82 115 150 186 242 290 352
#     4  10  21  35  58  84 111 146 189 235 294 344
#     4  10  19  32  52  80 110 148 187 238 292 344
#     4  11  22  35  55  85 119 151 186 235 295 355
#     4  11  22  35  53  82 116 155 190 237 287 354
#     4   9  19  33  50  75 106 147 189 227 274 334
#     4   9  20  39  59  82 110 148 191 237 290 351
#     4   9  17  31  53  81 110 144 191 241 289 342
#
# _framework density 19.232254000000001
#
# number of rings (size 3 to 8) (size 9 to 14) (size 15 to 20)
#    0.000    2.133    1.333    1.800    2.800    3.467 
#    0.000    0.667    0.000    4.800    0.000    0.000 
#    0.000    0.000    0.000    0.000    0.000    0.000 
#
# Total GULP energy -334245.024675 kJ/mol
# GULP energy per Si atom -5570.750411 kJ/mol
# Density = 1.918848 g / cm^3
# Si number density = 19.232254 Si / 1000 Ang^3
#
#
#
# Elastic Constant Matrix: (Units=GPa)
#
#
# Indices 1 2 3 4 5 6 
#
# 1 55.9665 18.6626 4.3811 0.0000 0.0000 0.0000
# 2 18.6626 107.7959 21.7483 0.0000 0.0000 0.0000
# 3 4.3811 21.7483 75.4707 0.0000 0.0000 0.0000
# 4 0.0000 0.0000 0.0000 16.9746 0.0000 0.0000
# 5 0.0000 0.0000 0.0000 0.0000 10.5428 0.0000
# 6 0.0000 0.0000 0.0000 0.0000 0.0000 22.2356
#
#
#
# Elastic Compliance Matrix: (Units=1/GPa)
#
#
# Indices 1 2 3 4 5 6 
#
# 1 0.018965 -0.003250 -0.000164 0.000000 0.000000 0.000000
# 2 -0.003250 0.010406 -0.002810 0.000000 0.000000 0.000000
# 3 -0.000164 -0.002810 0.014070 0.000000 0.000000 0.000000
# 4 0.000000 0.000000 0.000000 0.058912 0.000000 0.000000
# 5 0.000000 0.000000 0.000000 0.000000 0.094851 0.000000
# 6 0.000000 0.000000 0.000000 0.000000 0.000000 0.044973
#
#
# Mechanical properties :
#
#
# Convention : Reuss Voigt Hill
#
# Bulk Modulus (GPa) = 32.26716 36.53523 34.40119
# Shear Modulus (GPa) = 18.87107 22.91334 20.89221
#
# Velocity S-wave (km/s) = 3.13584 3.45541 3.29950
# Velocity P-wave (km/s) = 5.47041 5.91252 5.69576
#
# Compressibility (1/GPa) = 0.03099127
#
# Stress axis : x y z
#
# Youngs Moduli (GPa) = 52.73009 96.09422 71.07566
#
# Poissons Ratio (x) = 0.31232 0.01168
# Poissons Ratio (y) = 0.17138 0.19973
# Poissons Ratio (z) = 0.00866 0.27004
#
# Static dielectric constant tensor:
#      x y z
#    x 1.684010 0.000000 0.000000 
#    y 0.000000 1.701230 0.000000 
#    z 0.000000 0.000000 1.703220 
# 
# From -- ./inp_files/64701.got.cif
#   From: 2010.05.17/outbox.cif.g08.bks.cpg/sg63_33_cif.got.tgz:64701.got - 2010.06.03 15:47:04.
