data_PCOD9470777
_publ_section_title
;
Structure prediction by ZEFSAII (Michael W. Deem and Ramdas Pophale) SiO2 
 PCOD9470777
Probable space group: C M C M
;
_chemical_formula_sum "Si O2"
_cell_formula_units_Z 96
_cell_length_a 7.543199
_cell_length_b 21.302236
_cell_length_c 29.048609
_cell_angle_alpha 90.000000
_cell_angle_beta 90.000000
_cell_angle_gamma 90.000000
_cell_volume 4667.733988
_symmetry_space_group_name_H-M "C M C M"
_symmetry_group_IT_number 63
_symmetry_cell_setting 'orthorhombic'
loop_
_space_group_symop_operation_xyz
x,y,z
-x,-y,1/2+z
x,-y,-z
-x,y,1/2-z
-x,-y,-z
x,y,1/2-z
-x,y,z
x,-y,1/2+z
1/2+x,1/2+y,z
1/2-x,1/2-y,1/2+z
1/2+x,1/2-y,-z
1/2-x,1/2+y,1/2-z
1/2-x,1/2-y,-z
1/2+x,1/2+y,1/2-z
1/2-x,1/2+y,z
1/2+x,1/2-y,1/2+z
loop_
_atom_site_type_symbol
_atom_site_label
_atom_site_fract_x
_atom_site_fract_y
_atom_site_fract_z
Si Si1 0.283404 0.568717 0.698232
Si Si2 0.286498 0.245196 0.054108
Si Si3 0.707991 0.633299 0.607445
Si Si4 0.291051 0.118698 0.399053
Si Si5 0.786386 0.923821 0.698649
Si Si6 0.714727 0.007604 0.553015
O O1 0.230623 0.586969 0.750000
O O2 0.500000 0.568381 0.697174
O O3 0.217998 0.612540 0.657068
O O4 0.228141 0.496168 0.690606
O O5 0.500000 0.245074 0.058766
O O6 0.217236 0.305811 0.081831
O O7 0.218041 0.180328 0.076050
O O8 0.250000 0.250000 0.000000
O O9 0.500000 0.645866 0.615021
O O10 0.722831 0.572405 0.575044
O O11 0.500000 0.117480 0.409586
O O12 0.270580 0.118125 0.344120
O O13 0.219253 0.052887 0.418643
O O14 0.726701 0.905150 0.750000
O O15 0.000000 0.924309 0.699043
O O16 0.500000 0.009241 0.554756
O O17 0.767519 0.000000 0.500000
#
# Coordination Sequence:
#
# PCOD9470777 Si02
#       6
#    16  16  16  16  16  16
#     4   8  14  27  49  76 103 128 158 205 259 301
#     4  10  22  38  54  75 104 141 179 214 259 313
#     4  10  19  33  54  78 101 128 171 218 252 296
#     4  10  20  34  51  75 107 139 172 211 259 314
#     4   9  17  31  53  79 105 135 171 210 257 310
#     4  10  20  33  50  72 101 136 170 209 258 308
#
# _framework density 20.566724000000001
#
# number of rings (size 3 to 8) (size 9 to 14) (size 15 to 20)
#    0.000    2.500    1.667    2.000    0.000    3.333 
#    0.000    0.833    0.000    3.500    0.000    0.000 
#    0.000    0.000    0.000    0.000    0.000    0.000 
#
# Total GULP energy -267935.672036 kJ/mol
# GULP energy per Si atom -5581.993167 kJ/mol
# Density = 2.051991 g / cm^3
# Si number density = 20.566724 Si / 1000 Ang^3
#
#
#
# Elastic Constant Matrix: (Units=GPa)
#
#
# Indices 1 2 3 4 5 6 
#
# 1 47.5680 -1.4955 -11.6704 0.0000 0.0000 0.0000
# 2 -1.4955 103.8529 45.8355 0.0000 0.0000 0.0000
# 3 -11.6704 45.8355 132.2983 0.0000 0.0000 0.0000
# 4 0.0000 0.0000 0.0000 37.6128 0.0000 0.0000
# 5 0.0000 0.0000 0.0000 0.0000 15.0350 0.0000
# 6 0.0000 0.0000 0.0000 0.0000 0.0000 7.7970
#
#
#
# Elastic Compliance Matrix: (Units=1/GPa)
#
#
# Indices 1 2 3 4 5 6 
#
# 1 0.021522 -0.000623 0.002114 0.000000 0.000000 0.000000
# 2 -0.000623 0.011385 -0.003999 0.000000 0.000000 0.000000
# 3 0.002114 -0.003999 0.009131 0.000000 0.000000 0.000000
# 4 0.000000 0.000000 0.000000 0.026587 0.000000 0.000000
# 5 0.000000 0.000000 0.000000 0.000000 0.066512 0.000000
# 6 0.000000 0.000000 0.000000 0.000000 0.000000 0.128255
#
#
# Mechanical properties :
#
#
# Convention : Reuss Voigt Hill
#
# Bulk Modulus (GPa) = 27.01161 38.78427 32.89794
# Shear Modulus (GPa) = 17.80958 28.82560 23.31759
#
# Velocity S-wave (km/s) = 2.94588 3.74781 3.37078
# Velocity P-wave (km/s) = 4.97324 6.13407 5.58390
#
# Compressibility (1/GPa) = 0.03702112
#
# Stress axis : x y z
#
# Youngs Moduli (GPa) = 46.46470 87.83346 109.51904
#
# Poissons Ratio (x) = 0.05475 -0.23157
# Poissons Ratio (y) = 0.02896 0.43802
# Poissons Ratio (z) = -0.09825 0.35129
#
# Static dielectric constant tensor:
#      x y z
#    x 1.799500 0.000000 0.000000 
#    y 0.000000 1.714030 0.000000 
#    z 0.000000 0.000000 1.726000 
# 
# From -- ./inp_files/61697.got.cif
#   From: 2010.05.17/outbox.cif.g08.bks.cpg/sg63_31_cif.got.tgz:61697.got - 2010.06.03 15:47:04.
