data_PCOD9470095
_publ_section_title
;
Structure prediction by ZEFSAII (Michael W. Deem and Ramdas Pophale) SiO2 
 PCOD9470095
Probable space group: C M C M
;
_chemical_formula_sum "Si O2"
_cell_formula_units_Z 88
_cell_length_a 17.682176
_cell_length_b 33.016955
_cell_length_c 9.033170
_cell_angle_alpha 90.000000
_cell_angle_beta 90.000000
_cell_angle_gamma 90.000000
_cell_volume 5273.669515
_symmetry_space_group_name_H-M "C M C M"
_symmetry_group_IT_number 63
_symmetry_cell_setting 'orthorhombic'
loop_
_space_group_symop_operation_xyz
x,y,z
-x,-y,1/2+z
x,-y,-z
-x,y,1/2-z
-x,-y,-z
x,y,1/2-z
-x,y,z
x,-y,1/2+z
1/2+x,1/2+y,z
1/2-x,1/2-y,1/2+z
1/2+x,1/2-y,-z
1/2-x,1/2+y,1/2-z
1/2-x,1/2-y,-z
1/2+x,1/2+y,1/2-z
1/2-x,1/2+y,z
1/2+x,1/2-y,1/2+z
loop_
_atom_site_type_symbol
_atom_site_label
_atom_site_fract_x
_atom_site_fract_y
_atom_site_fract_z
Si Si1 0.242267 0.384862 0.427586
Si Si2 0.500000 0.544089 0.073223
Si Si3 0.917290 0.347460 0.427361
Si Si4 0.666539 0.544640 0.428136
Si Si5 0.805156 0.193149 0.419097
Si Si6 0.136431 0.267947 0.918754
O O1 0.246944 0.387703 0.250000
O O2 0.155489 0.374095 0.470127
O O3 0.272228 0.425304 0.503794
O O4 0.292340 0.347204 0.486087
O O5 0.500000 0.539299 0.250000
O O6 0.417968 0.562010 0.034880
O O7 0.500000 0.500000 0.000000
O O8 0.913035 0.342481 0.250000
O O9 0.908859 0.303421 0.500545
O O10 0.000000 0.364619 0.464906
O O11 0.672182 0.500000 0.500000
O O12 0.673407 0.541942 0.250000
O O13 0.826524 0.183680 0.250000
O O14 0.860339 0.225817 0.493571
O O15 0.722707 0.214895 0.414894
O O16 0.111474 0.262260 0.750000
#
# Coordination Sequence:
#
# PCOD9470095 Si02
#       6
#    16   8  16  16  16  16
#     4  10  19  31  49  74 101 130 166 208 251 294
#     4   8  16  30  50  74  98 124 152 184 226 282
#     4   9  18  32  49  69  96 132 172 211 251 295
#     4  10  19  33  53  77 103 130 161 197 241 295
#     4   9  16  27  44  66  92 123 157 194 240 293
#     4   9  16  26  43  67  92 119 155 200 245 289
#
# _framework density 16.686672000000002
#
# number of rings (size 3 to 8) (size 9 to 14) (size 15 to 20)
#    0.000    2.727    0.000    2.182    0.000    6.182 
#    0.000    0.000    2.000    0.545    0.000    0.000 
#    0.000    0.000    0.000    0.000    0.000    0.000 
#
# Total GULP energy -245034.603675 kJ/mol
# GULP energy per Si atom -5568.968265 kJ/mol
# Density = 1.664869 g / cm^3
# Si number density = 16.686672 Si / 1000 Ang^3
#
#
#
# Elastic Constant Matrix: (Units=GPa)
#
#
# Indices 1 2 3 4 5 6 
#
# 1 97.5917 55.3845 41.8694 0.0000 0.0000 0.0000
# 2 55.3845 87.7625 45.0544 0.0000 0.0000 0.0000
# 3 41.8694 45.0544 64.9561 0.0000 0.0000 0.0000
# 4 0.0000 0.0000 0.0000 30.2485 0.0000 0.0000
# 5 0.0000 0.0000 0.0000 0.0000 15.3574 0.0000
# 6 0.0000 0.0000 0.0000 0.0000 0.0000 16.2452
#
#
#
# Elastic Compliance Matrix: (Units=1/GPa)
#
#
# Indices 1 2 3 4 5 6 
#
# 1 0.017146 -0.007993 -0.005508 0.000000 0.000000 0.000000
# 2 -0.007993 0.021421 -0.009706 0.000000 0.000000 0.000000
# 3 -0.005508 -0.009706 0.025678 0.000000 0.000000 0.000000
# 4 0.000000 0.000000 0.000000 0.033060 0.000000 0.000000
# 5 0.000000 0.000000 0.000000 0.000000 0.065115 0.000000
# 6 0.000000 0.000000 0.000000 0.000000 0.000000 0.061557
#
#
# Mechanical properties :
#
#
# Convention : Reuss Voigt Hill
#
# Bulk Modulus (GPa) = 56.08190 59.43632 57.75911
# Shear Modulus (GPa) = 18.09410 19.57034 18.83222
#
# Velocity S-wave (km/s) = 3.29651 3.42835 3.36308
# Velocity P-wave (km/s) = 6.94054 7.16713 7.05475
#
# Compressibility (1/GPa) = 0.01783106
#
# Stress axis : x y z
#
# Youngs Moduli (GPa) = 58.32342 46.68310 38.94439
#
# Poissons Ratio (x) = 0.37312 0.21451
# Poissons Ratio (y) = 0.46615 0.37800
# Poissons Ratio (z) = 0.32125 0.45311
#
# Static dielectric constant tensor:
#      x y z
#    x 1.595930 0.000000 0.000000 
#    y 0.000000 1.529300 0.000000 
#    z 0.000000 0.000000 1.562810 
# 
# From -- ./inp_files/6885.got.cif
#   From: 2010.05.17/outbox.cif.g08.bks.cpg/sg63_4_cif.got.tgz:6885.got - 2010.06.03 15:47:04.
