data_PCOD9470384
_publ_section_title
;
Structure prediction by ZEFSAII (Michael W. Deem and Ramdas Pophale) SiO2 
 PCOD9470384
Probable space group: C M C M
;
_chemical_formula_sum "Si O2"
_cell_formula_units_Z 112
_cell_length_a 15.245894
_cell_length_b 16.130693
_cell_length_c 24.392459
_cell_angle_alpha 90.000000
_cell_angle_beta 90.000000
_cell_angle_gamma 90.000000
_cell_volume 5998.760255
_symmetry_space_group_name_H-M "C M C M"
_symmetry_group_IT_number 63
_symmetry_cell_setting 'orthorhombic'
loop_
_space_group_symop_operation_xyz
x,y,z
-x,-y,1/2+z
x,-y,-z
-x,y,1/2-z
-x,-y,-z
x,y,1/2-z
-x,y,z
x,-y,1/2+z
1/2+x,1/2+y,z
1/2-x,1/2-y,1/2+z
1/2+x,1/2-y,-z
1/2-x,1/2+y,1/2-z
1/2-x,1/2-y,-z
1/2+x,1/2+y,1/2-z
1/2-x,1/2+y,z
1/2+x,1/2-y,1/2+z
loop_
_atom_site_type_symbol
_atom_site_label
_atom_site_fract_x
_atom_site_fract_y
_atom_site_fract_z
Si Si1 0.719914 0.459912 0.107239
Si Si2 0.599849 0.984449 0.565336
Si Si3 0.207903 0.186333 0.686726
Si Si4 0.404752 0.247155 0.688330
Si Si5 0.095811 0.864856 0.029092
Si Si6 0.151757 0.140616 0.408584
Si Si7 0.842189 0.297177 0.911919
O O1 0.823951 0.465339 0.096367
O O2 0.692362 0.400935 0.157001
O O3 0.672600 0.420335 0.054397
O O4 0.685732 0.552767 0.113211
O O5 0.500000 0.008062 0.579143
O O6 0.611790 0.000000 0.500000
O O7 0.614581 0.887145 0.580022
O O8 0.181081 0.189816 0.750000
O O9 0.313798 0.197410 0.684218
O O10 0.162215 0.257446 0.649355
O O11 0.402547 0.284072 0.750000
O O12 0.500000 0.203639 0.683534
O O13 0.397630 0.312794 0.639681
O O14 0.113360 0.771326 0.049683
O O15 0.000000 0.892090 0.049448
O O16 0.098620 0.869905 0.963996
O O17 0.239346 0.191429 0.425617
#
# Coordination Sequence:
#
# PCOD9470384 Si02
#       7
#    16  16  16  16  16  16  16
#     4  10  21  35  52  77 110 140 175 223 266 317
#     4  10  20  35  56  82 114 148 178 216 275 337
#     4   9  19  36  57  76  99 141 185 224 273 317
#     4   9  18  32  50  74 102 132 172 218 259 308
#     4  11  21  33  53  78 106 142 180 217 262 318
#     4  10  19  32  51  74 105 141 173 214 270 322
#     4   9  19  36  55  77 106 138 181 230 266 317
#
# _framework density 18.670525000000001
#
# number of rings (size 3 to 8) (size 9 to 14) (size 15 to 20)
#    0.000    2.286    0.000    3.429    0.000    5.143 
#    0.000    3.571    0.000   11.571    0.000    0.000 
#    0.000    0.000    0.000    0.000    0.000    0.000 
#
# Total GULP energy -312148.249130 kJ/mol
# GULP energy per Si atom -5574.075877 kJ/mol
# Density = 1.862803 g / cm^3
# Si number density = 18.670525 Si / 1000 Ang^3
#
#
#
# Elastic Constant Matrix: (Units=GPa)
#
#
# Indices 1 2 3 4 5 6 
#
# 1 76.4850 16.2741 18.7747 0.0000 0.0000 0.0000
# 2 16.2741 40.7182 25.0007 0.0000 0.0000 0.0000
# 3 18.7747 25.0007 84.7961 0.0000 0.0000 0.0000
# 4 0.0000 0.0000 0.0000 9.5279 0.0000 0.0000
# 5 0.0000 0.0000 0.0000 0.0000 8.6382 0.0000
# 6 0.0000 0.0000 0.0000 0.0000 0.0000 6.6477
#
#
#
# Elastic Compliance Matrix: (Units=1/GPa)
#
#
# Indices 1 2 3 4 5 6 
#
# 1 0.014520 -0.004676 -0.001836 0.000000 0.000000 0.000000
# 2 -0.004676 0.031493 -0.008250 0.000000 0.000000 0.000000
# 3 -0.001836 -0.008250 0.014632 0.000000 0.000000 0.000000
# 4 0.000000 0.000000 0.000000 0.104955 0.000000 0.000000
# 5 0.000000 0.000000 0.000000 0.000000 0.115765 0.000000
# 6 0.000000 0.000000 0.000000 0.000000 0.000000 0.150427
#
#
# Mechanical properties :
#
#
# Convention : Reuss Voigt Hill
#
# Bulk Modulus (GPa) = 32.13257 35.78870 33.96064
# Shear Modulus (GPa) = 10.60017 14.42608 12.51313
#
# Velocity S-wave (km/s) = 2.38533 2.78270 2.59165
# Velocity P-wave (km/s) = 4.98338 5.43459 5.21387
#
# Compressibility (1/GPa) = 0.03112107
#
# Stress axis : x y z
#
# Youngs Moduli (GPa) = 68.86999 31.75273 68.34354
#
# Poissons Ratio (x) = 0.14847 0.12550
# Poissons Ratio (y) = 0.32203 0.56384
# Poissons Ratio (z) = 0.12647 0.26196
#
# Static dielectric constant tensor:
#      x y z
#    x 1.678950 0.000000 0.000000 
#    y 0.000000 1.640400 0.000000 
#    z 0.000000 0.000000 1.629280 
# 
# From -- ./inp_files/62978.got.cif
#   From: 2010.05.17/outbox.cif.g08.bks.cpg/sg63_32_cif.got.tgz:62978.got - 2010.06.03 15:47:04.
