data_PCOD9470557
_publ_section_title
;
Structure prediction by ZEFSAII (Michael W. Deem and Ramdas Pophale) SiO2 
 PCOD9470557
Probable space group: C M C M
;
_chemical_formula_sum "Si O2"
_cell_formula_units_Z 88
_cell_length_a 14.946396
_cell_length_b 11.351939
_cell_length_c 22.055958
_cell_angle_alpha 90.000000
_cell_angle_beta 90.000000
_cell_angle_gamma 90.000000
_cell_volume 3742.247091
_symmetry_space_group_name_H-M "C M C M"
_symmetry_group_IT_number 63
_symmetry_cell_setting 'orthorhombic'
loop_
_space_group_symop_operation_xyz
x,y,z
-x,-y,1/2+z
x,-y,-z
-x,y,1/2-z
-x,-y,-z
x,y,1/2-z
-x,y,z
x,-y,1/2+z
1/2+x,1/2+y,z
1/2-x,1/2-y,1/2+z
1/2+x,1/2-y,-z
1/2-x,1/2+y,1/2-z
1/2-x,1/2-y,-z
1/2+x,1/2+y,1/2-z
1/2-x,1/2+y,z
1/2+x,1/2-y,1/2+z
loop_
_atom_site_type_symbol
_atom_site_label
_atom_site_fract_x
_atom_site_fract_y
_atom_site_fract_z
Si Si1 0.895588 0.087465 0.582686
Si Si2 0.099281 0.336788 0.518619
Si Si3 0.595005 0.793622 0.178361
Si Si4 0.287142 0.276382 0.318221
Si Si5 0.904340 0.429761 0.845155
Si Si6 0.755538 0.000000 0.500000
O O1 0.894005 0.199867 0.536436
O O2 0.853371 0.141086 0.643751
O O3 0.824569 0.994581 0.556243
O O4 0.000000 0.051454 0.588066
O O5 0.099522 0.406776 0.582926
O O6 0.187650 0.390675 0.488467
O O7 0.000000 0.356760 0.490425
O O8 0.594800 0.762768 0.250000
O O9 0.500000 0.750757 0.152403
O O10 0.689990 0.759032 0.151791
O O11 0.597047 0.934784 0.171682
O O12 0.276936 0.323365 0.250000
O O13 0.328141 0.147067 0.316451
O O14 0.000000 0.379715 0.824867
#
# Coordination Sequence:
#
# PCOD9470557 Si02
#       6
#    16  16  16  16  16   8
#     4  10  22  37  52  76 108 139 174 216 261 312
#     4   9  19  34  53  79 105 129 168 217 255 298
#     4   9  17  29  47  73 102 131 166 207 253 308
#     4  10  19  32  54  79 102 134 176 219 261 305
#     4   9  17  31  51  75 103 133 166 207 255 303
#     4  12  20  34  58  78 104 144 174 206 262 318
#
# _framework density 23.515281999999999
#
# number of rings (size 3 to 8) (size 9 to 14) (size 15 to 20)
#    0.000    2.364    0.000    4.364    0.000    2.182 
#    0.000    0.909    0.000   15.273    0.000   10.182 
#    0.000    0.000    0.000    0.000    0.000    0.000 
#
# Total GULP energy -245547.835502 kJ/mol
# GULP energy per Si atom -5580.632625 kJ/mol
# Density = 2.346176 g / cm^3
# Si number density = 23.515282 Si / 1000 Ang^3
#
#
#
# Elastic Constant Matrix: (Units=GPa)
#
#
# Indices 1 2 3 4 5 6 
#
# 1 242.3768 30.1317 29.8184 0.0000 0.0000 0.0000
# 2 30.1317 28.8940 3.1841 0.0000 0.0000 0.0000
# 3 29.8184 3.1841 45.0556 0.0000 0.0000 0.0000
# 4 0.0000 0.0000 0.0000 14.7066 0.0000 0.0000
# 5 0.0000 0.0000 0.0000 0.0000 22.1734 0.0000
# 6 0.0000 0.0000 0.0000 0.0000 0.0000 21.7140
#
#
#
# Elastic Compliance Matrix: (Units=1/GPa)
#
#
# Indices 1 2 3 4 5 6 
#
# 1 0.005122 -0.005007 -0.003036 0.000000 0.000000 0.000000
# 2 -0.005007 0.039775 0.000502 0.000000 0.000000 0.000000
# 3 -0.003036 0.000502 0.024168 0.000000 0.000000 0.000000
# 4 0.000000 0.000000 0.000000 0.067997 0.000000 0.000000
# 5 0.000000 0.000000 0.000000 0.000000 0.045099 0.000000
# 6 0.000000 0.000000 0.000000 0.000000 0.000000 0.046053
#
#
# Mechanical properties :
#
#
# Convention : Reuss Voigt Hill
#
# Bulk Modulus (GPa) = 18.52358 49.17719 33.85039
# Shear Modulus (GPa) = 19.13591 28.59828 23.86710
#
# Velocity S-wave (km/s) = 2.85575 3.49113 3.18930
# Velocity P-wave (km/s) = 4.33222 6.09991 5.29042
#
# Compressibility (1/GPa) = 0.05398523
#
# Stress axis : x y z
#
# Youngs Moduli (GPa) = 195.24830 25.14152 41.37634
#
# Poissons Ratio (x) = 0.12587 0.12561
# Poissons Ratio (y) = 0.97752 -0.02079
# Poissons Ratio (z) = 0.59273 -0.01263
#
# Static dielectric constant tensor:
#      x y z
#    x 1.972820 0.000000 0.000000 
#    y 0.000000 1.877790 0.000000 
#    z 0.000000 0.000000 1.993000 
# 
# From -- ./inp_files/61239.got.cif
#   From: 2010.05.17/outbox.cif.g08.bks.cpg/sg63_31_cif.got.tgz:61239.got - 2010.06.03 15:47:04.
