data_PCOD9470708
_publ_section_title
;
Structure prediction by ZEFSAII (Michael W. Deem and Ramdas Pophale) SiO2 
 PCOD9470708
Probable space group: C M C M
;
_chemical_formula_sum "Si O2"
_cell_formula_units_Z 88
_cell_length_a 18.817582
_cell_length_b 12.668354
_cell_length_c 21.421372
_cell_angle_alpha 90.000000
_cell_angle_beta 90.000000
_cell_angle_gamma 90.000000
_cell_volume 5106.593534
_symmetry_space_group_name_H-M "C M C M"
_symmetry_group_IT_number 63
_symmetry_cell_setting 'orthorhombic'
loop_
_space_group_symop_operation_xyz
x,y,z
-x,-y,1/2+z
x,-y,-z
-x,y,1/2-z
-x,-y,-z
x,y,1/2-z
-x,y,z
x,-y,1/2+z
1/2+x,1/2+y,z
1/2-x,1/2-y,1/2+z
1/2+x,1/2-y,-z
1/2-x,1/2+y,1/2-z
1/2-x,1/2-y,-z
1/2+x,1/2+y,1/2-z
1/2-x,1/2+y,z
1/2+x,1/2-y,1/2+z
loop_
_atom_site_type_symbol
_atom_site_label
_atom_site_fract_x
_atom_site_fract_y
_atom_site_fract_z
Si Si1 0.786540 0.549827 0.821775
Si Si2 0.000000 0.111724 0.823858
Si Si3 0.693976 0.500000 0.500000
Si Si4 0.000000 0.140605 0.175912
Si Si5 0.851455 0.774149 0.823157
Si Si6 0.223301 0.639499 0.093829
Si Si7 0.148182 0.858109 0.109806
O O1 0.781638 0.515281 0.750000
O O2 0.839164 0.649132 0.825865
O O3 0.810680 0.456211 0.866944
O O4 0.709556 0.594061 0.844506
O O5 0.072680 0.149890 0.856176
O O6 0.000000 0.136747 0.750000
O O7 0.000000 0.984695 0.830660
O O8 0.744719 0.411719 0.531409
O O9 0.648329 0.440418 0.447564
O O10 0.072628 0.189793 0.151425
O O11 0.000000 0.164920 0.250000
O O12 0.844718 0.805861 0.750000
O O13 0.790124 0.826668 0.863555
O O14 0.175078 0.742930 0.087578
#
# Coordination Sequence:
#
# PCOD9470708 Si02
#       7
#    16   8   8   8  16  16  16
#     4   9  17  30  50  75 100 132 175 216 258 312
#     4  11  22  35  54  81 110 135 161 206 269 326
#     4  10  20  35  56  75  98 136 184 224 252 297
#     4   9  16  28  46  70 102 132 160 200 249 303
#     4   9  17  29  48  74 102 134 172 215 265 315
#     4  10  19  33  53  75 102 136 175 221 263 303
#     4  10  21  35  52  76 106 137 173 215 262 311
#
# _framework density 17.232621999999999
#
# number of rings (size 3 to 8) (size 9 to 14) (size 15 to 20)
#    0.000    2.364    0.000    3.818    0.000    4.000 
#    0.000    1.818    0.000    1.636    0.000    0.000 
#    0.000    0.000    0.000    0.000    0.000    0.000 
#
# Total GULP energy -245364.548833 kJ/mol
# GULP energy per Si atom -5576.467019 kJ/mol
# Density = 1.719340 g / cm^3
# Si number density = 17.232622 Si / 1000 Ang^3
#
#
#
# Elastic Constant Matrix: (Units=GPa)
#
#
# Indices 1 2 3 4 5 6 
#
# 1 94.5669 38.1245 28.8396 0.0000 0.0000 0.0000
# 2 38.1245 71.0532 26.3108 0.0000 0.0000 0.0000
# 3 28.8396 26.3108 67.8059 0.0000 0.0000 0.0000
# 4 0.0000 0.0000 0.0000 29.2305 0.0000 0.0000
# 5 0.0000 0.0000 0.0000 0.0000 13.3067 0.0000
# 6 0.0000 0.0000 0.0000 0.0000 0.0000 16.4939
#
#
#
# Elastic Compliance Matrix: (Units=1/GPa)
#
#
# Indices 1 2 3 4 5 6 
#
# 1 0.014209 -0.006290 -0.003603 0.000000 0.000000 0.000000
# 2 -0.006290 0.019220 -0.004783 0.000000 0.000000 0.000000
# 3 -0.003603 -0.004783 0.018136 0.000000 0.000000 0.000000
# 4 0.000000 0.000000 0.000000 0.034211 0.000000 0.000000
# 5 0.000000 0.000000 0.000000 0.000000 0.075150 0.000000
# 6 0.000000 0.000000 0.000000 0.000000 0.000000 0.060629
#
#
# Mechanical properties :
#
#
# Convention : Reuss Voigt Hill
#
# Bulk Modulus (GPa) = 45.01592 46.66398 45.83995
# Shear Modulus (GPa) = 19.35656 21.14961 20.25308
#
# Velocity S-wave (km/s) = 3.35513 3.50709 3.43195
# Velocity P-wave (km/s) = 6.41782 6.59827 6.50867
#
# Compressibility (1/GPa) = 0.02221436
#
# Stress axis : x y z
#
# Youngs Moduli (GPa) = 70.37782 52.02945 55.13846
#
# Poissons Ratio (x) = 0.32726 0.19865
# Poissons Ratio (y) = 0.44267 0.26371
# Poissons Ratio (z) = 0.25356 0.24884
#
# Static dielectric constant tensor:
#      x y z
#    x 1.564530 0.000000 0.000000 
#    y 0.000000 1.601280 0.000000 
#    z 0.000000 0.000000 1.600210 
# 
# From -- ./inp_files/55440.got.cif
#   From: 2010.05.17/outbox.cif.g08.bks.cpg/sg63_28_cif.got.tgz:55440.got - 2010.06.03 15:47:04.
