data_PCOD9470068
_publ_section_title
;
Structure prediction by ZEFSAII (Michael W. Deem and Ramdas Pophale) SiO2 
 PCOD9470068
Probable space group: C M C M
;
_chemical_formula_sum "Si O2"
_cell_formula_units_Z 80
_cell_length_a 18.390888
_cell_length_b 28.026585
_cell_length_c 7.595319
_cell_angle_alpha 90.000000
_cell_angle_beta 90.000000
_cell_angle_gamma 90.000000
_cell_volume 3914.884026
_symmetry_space_group_name_H-M "C M C M"
_symmetry_group_IT_number 63
_symmetry_cell_setting 'orthorhombic'
loop_
_space_group_symop_operation_xyz
x,y,z
-x,-y,1/2+z
x,-y,-z
-x,y,1/2-z
-x,-y,-z
x,y,1/2-z
-x,y,z
x,-y,1/2+z
1/2+x,1/2+y,z
1/2-x,1/2-y,1/2+z
1/2+x,1/2-y,-z
1/2-x,1/2+y,1/2-z
1/2-x,1/2-y,-z
1/2+x,1/2+y,1/2-z
1/2-x,1/2+y,z
1/2+x,1/2-y,1/2+z
loop_
_atom_site_type_symbol
_atom_site_label
_atom_site_fract_x
_atom_site_fract_y
_atom_site_fract_z
Si Si1 0.736537 0.551868 0.459089
Si Si2 0.381641 0.317250 0.952566
Si Si3 0.919107 0.712271 0.965886
Si Si4 0.778536 0.344085 0.045229
Si Si5 0.421629 0.421597 0.965533
O O1 0.767840 0.500000 0.500000
O O2 0.734448 0.557950 0.250000
O O3 0.776489 0.598631 0.530348
O O4 0.652701 0.553740 0.526040
O O5 0.405911 0.316231 0.750000
O O6 0.404646 0.266503 0.027814
O O7 0.413869 0.366426 0.025566
O O8 0.294550 0.323892 0.957301
O O9 0.917747 0.712270 0.750000
O O10 0.852680 0.678946 0.023781
O O11 0.000000 0.697116 0.019203
O O12 0.771668 0.331105 0.250000
O O13 0.420804 0.422259 0.750000
O O14 0.500000 0.440736 0.023090
#
# Coordination Sequence:
#
# PCOD9470068 Si02
#       5
#    16  16  16  16  16
#     4  10  20  34  52  71  92 121 159 202 245 290
#     4   9  16  28  48  71  98 133 167 195 224 269
#     4   9  17  29  48  74 100 128 163 200 238 280
#     4  10  19  31  49  72  99 128 159 198 239 284
#     4   8  14  25  43  68  96 125 156 189 225 267
#
# _framework density 20.434833000000001
#
# number of rings (size 3 to 8) (size 9 to 14) (size 15 to 20)
#    0.000    2.800    0.000    3.600    0.000    2.800 
#    0.000    1.000    0.000   25.200    0.000    0.000 
#    0.000    0.000    0.000    0.000    0.000    0.000 
#
# Total GULP energy -223171.877912 kJ/mol
# GULP energy per Si atom -5579.296948 kJ/mol
# Density = 2.038832 g / cm^3
# Si number density = 20.434833 Si / 1000 Ang^3
#
#
#
# Elastic Constant Matrix: (Units=GPa)
#
#
# Indices 1 2 3 4 5 6 
#
# 1 94.5012 39.9493 -6.8831 0.0000 0.0000 0.0000
# 2 39.9493 88.5577 -11.1111 0.0000 0.0000 0.0000
# 3 -6.8831 -11.1111 47.6878 0.0000 0.0000 0.0000
# 4 0.0000 0.0000 0.0000 10.6774 0.0000 0.0000
# 5 0.0000 0.0000 0.0000 0.0000 9.5825 0.0000
# 6 0.0000 0.0000 0.0000 0.0000 0.0000 -2.5610
#
#
#
# Elastic Compliance Matrix: (Units=1/GPa)
#
#
# Indices 1 2 3 4 5 6 
#
# 1 0.013088 -0.005838 0.000529 0.000000 0.000000 0.000000
# 2 -0.005838 0.014236 0.002474 0.000000 0.000000 0.000000
# 3 0.000529 0.002474 0.021623 0.000000 0.000000 0.000000
# 4 0.000000 0.000000 0.000000 0.093655 0.000000 0.000000
# 5 0.000000 0.000000 0.000000 0.000000 0.104356 0.000000
# 6 0.000000 0.000000 0.000000 0.000000 0.000000 -0.390480
#
#
# Mechanical properties :
#
#
# Convention : Reuss Voigt Hill
#
# Bulk Modulus (GPa) = 23.10664 30.51743 26.81204
# Shear Modulus (GPa) = -40.51021 17.45924 -11.52548
#
# Velocity S-wave (km/s) = -4.45726 2.92616 -2.37747
# Velocity P-wave (km/s) = 3.89326 5.13644 2.36913
#
# Compressibility (1/GPa) = 0.04327761
#
# Stress axis : x y z
#
# Youngs Moduli (GPa) = 76.40408 70.24414 46.24794
#
# Poissons Ratio (x) = 0.41008 -0.02446
# Poissons Ratio (y) = 0.44604 -0.11443
# Poissons Ratio (z) = -0.04041 -0.17381
#
# Static dielectric constant tensor:
#      x y z
#    x 1.720860 0.000000 0.000000 
#    y 0.000000 1.728730 0.000000 
#    z 0.000000 0.000000 1.787610 
# 
# From -- ./inp_files/6420.got.cif
#   From: 2010.05.17/outbox.cif.g08.bks.cpg/sg63_4_cif.got.tgz:6420.got - 2010.06.03 15:47:04.
