data_PCOD9470576
_publ_section_title
;
Structure prediction by ZEFSAII (Michael W. Deem and Ramdas Pophale) SiO2 
 PCOD9470576
Probable space group: C M C M
;
_chemical_formula_sum "Si O2"
_cell_formula_units_Z 96
_cell_length_a 7.877864
_cell_length_b 24.907655
_cell_length_c 22.751745
_cell_angle_alpha 90.000000
_cell_angle_beta 90.000000
_cell_angle_gamma 90.000000
_cell_volume 4464.327352
_symmetry_space_group_name_H-M "C M C M"
_symmetry_group_IT_number 63
_symmetry_cell_setting 'orthorhombic'
loop_
_space_group_symop_operation_xyz
x,y,z
-x,-y,1/2+z
x,-y,-z
-x,y,1/2-z
-x,-y,-z
x,y,1/2-z
-x,y,z
x,-y,1/2+z
1/2+x,1/2+y,z
1/2-x,1/2-y,1/2+z
1/2+x,1/2-y,-z
1/2-x,1/2+y,1/2-z
1/2-x,1/2-y,-z
1/2+x,1/2+y,1/2-z
1/2-x,1/2+y,z
1/2+x,1/2-y,1/2+z
loop_
_atom_site_type_symbol
_atom_site_label
_atom_site_fract_x
_atom_site_fract_y
_atom_site_fract_z
Si Si1 0.293058 0.379315 0.583541
Si Si2 0.705350 0.681635 0.844610
Si Si3 0.295830 0.563699 0.685768
Si Si4 0.295974 0.691277 0.976853
Si Si5 0.796445 0.801553 0.687071
Si Si6 0.196926 0.499458 0.932342
O O1 0.500000 0.381837 0.584622
O O2 0.237203 0.353970 0.521765
O O3 0.234143 0.337642 0.633398
O O4 0.223718 0.438704 0.589502
O O5 0.500000 0.680633 0.843628
O O6 0.763169 0.625779 0.816942
O O7 0.756653 0.738679 0.818368
O O8 0.768385 0.682754 0.911611
O O9 0.237220 0.540908 0.750000
O O10 0.500000 0.563561 0.688126
O O11 0.257061 0.536000 0.622759
O O12 0.500000 0.688263 0.975059
O O13 0.250000 0.750000 0.000000
O O14 0.732113 0.821284 0.750000
O O15 0.000000 0.806384 0.686227
O O16 0.000000 0.512911 0.939339
O O17 0.272053 0.500000 0.000000
#
# Coordination Sequence:
#
# PCOD9470576 Si02
#       6
#    16  16  16  16  16  16
#     4  10  21  38  59  84 115 153 196 240 292 354
#     4  10  20  35  58  87 118 153 194 240 291 351
#     4  10  22  41  65  91 120 160 209 257 307 367
#     4  10  19  32  54  84 116 150 189 233 285 345
#     4  10  21  36  55  82 116 153 191 232 284 346
#     4  11  25  43  63  90 122 157 201 257 314 366
#
# _framework density 21.503798
#
# number of rings (size 3 to 8) (size 9 to 14) (size 15 to 20)
#    0.000    1.833    1.667    2.000    0.000    6.667 
#    0.000    1.667    0.000    0.000    0.000    0.000 
#    0.000    0.000    0.000    0.000    0.000    0.000 
#
# Total GULP energy -267820.491014 kJ/mol
# GULP energy per Si atom -5579.593563 kJ/mol
# Density = 2.145485 g / cm^3
# Si number density = 21.503798 Si / 1000 Ang^3
#
#
#
# Elastic Constant Matrix: (Units=GPa)
#
#
# Indices 1 2 3 4 5 6 
#
# 1 20.0107 -6.9588 16.8718 0.0000 0.0000 0.0000
# 2 -6.9588 99.3661 49.6281 0.0000 0.0000 0.0000
# 3 16.8718 49.6281 184.7812 0.0000 0.0000 0.0000
# 4 0.0000 0.0000 0.0000 13.1962 0.0000 0.0000
# 5 0.0000 0.0000 0.0000 0.0000 15.0092 0.0000
# 6 0.0000 0.0000 0.0000 0.0000 0.0000 23.1010
#
#
#
# Elastic Compliance Matrix: (Units=1/GPa)
#
#
# Indices 1 2 3 4 5 6 
#
# 1 0.059047 0.007886 -0.007509 0.000000 0.000000 0.000000
# 2 0.007886 0.012676 -0.004125 0.000000 0.000000 0.000000
# 3 -0.007509 -0.004125 0.007205 0.000000 0.000000 0.000000
# 4 0.000000 0.000000 0.000000 0.075779 0.000000 0.000000
# 5 0.000000 0.000000 0.000000 0.000000 0.066626 0.000000
# 6 0.000000 0.000000 0.000000 0.000000 0.000000 0.043288
#
#
# Mechanical properties :
#
#
# Convention : Reuss Voigt Hill
#
# Bulk Modulus (GPa) = 13.99938 47.02669 30.51304
# Shear Modulus (GPa) = 16.89600 26.56909 21.73254
#
# Velocity S-wave (km/s) = 2.80611 3.51886 3.18250
# Velocity P-wave (km/s) = 4.12594 6.19889 5.26544
#
# Compressibility (1/GPa) = 0.07143173
#
# Stress axis : x y z
#
# Youngs Moduli (GPa) = 16.93572 78.88921 138.78861
#
# Poissons Ratio (x) = -0.62209 1.04220
# Poissons Ratio (y) = -0.13355 0.57243
# Poissons Ratio (z) = 0.12717 0.32538
#
# Static dielectric constant tensor:
#      x y z
#    x 1.793760 0.000000 0.000000 
#    y 0.000000 1.743040 0.000000 
#    z 0.000000 0.000000 1.834390 
# 
# From -- ./inp_files/59911.got.cif
#   From: 2010.05.17/outbox.cif.g08.bks.cpg/sg63_30_cif.got.tgz:59911.got - 2010.06.03 15:47:04.
