data_PCOD9470447
_publ_section_title
;
Structure prediction by ZEFSAII (Michael W. Deem and Ramdas Pophale) SiO2 
 PCOD9470447
Probable space group: C M C M
;
_chemical_formula_sum "Si O2"
_cell_formula_units_Z 96
_cell_length_a 7.972946
_cell_length_b 32.293201
_cell_length_c 18.770870
_cell_angle_alpha 90.000000
_cell_angle_beta 90.000000
_cell_angle_gamma 90.000000
_cell_volume 4832.972460
_symmetry_space_group_name_H-M "C M C M"
_symmetry_group_IT_number 63
_symmetry_cell_setting 'orthorhombic'
loop_
_space_group_symop_operation_xyz
x,y,z
-x,-y,1/2+z
x,-y,-z
-x,y,1/2-z
-x,-y,-z
x,y,1/2-z
-x,y,z
x,-y,1/2+z
1/2+x,1/2+y,z
1/2-x,1/2-y,1/2+z
1/2+x,1/2-y,-z
1/2-x,1/2+y,1/2-z
1/2-x,1/2-y,-z
1/2+x,1/2+y,1/2-z
1/2-x,1/2+y,z
1/2+x,1/2-y,1/2+z
loop_
_atom_site_type_symbol
_atom_site_label
_atom_site_fract_x
_atom_site_fract_y
_atom_site_fract_z
Si Si1 0.702774 0.580279 0.168474
Si Si2 0.297652 0.001202 0.581085
Si Si3 0.200176 0.251401 0.083314
Si Si4 0.705293 0.660945 0.082709
Si Si5 0.302147 0.341196 0.418091
Si Si6 0.800063 0.579692 0.669752
O O1 0.762411 0.577591 0.250000
O O2 0.500000 0.581686 0.169788
O O3 0.754212 0.540289 0.123539
O O4 0.761229 0.622271 0.129616
O O5 0.500000 0.004123 0.577786
O O6 0.232845 0.041474 0.623143
O O7 0.234271 0.000000 0.500000
O O8 0.256830 0.206395 0.111255
O O9 0.270026 0.294848 0.110842
O O10 0.000000 0.253361 0.089203
O O11 0.250000 0.250000 0.000000
O O12 0.500000 0.661052 0.081702
O O13 0.761362 0.656522 0.000172
O O14 0.500000 0.347797 0.421250
O O15 0.227993 0.377082 0.369845
O O16 0.731007 0.579878 0.750000
O O17 0.000000 0.573619 0.674820
#
# Coordination Sequence:
#
# PCOD9470447 Si02
#       6
#    16  16  16  16  16  16
#     4  10  20  34  53  77 105 137 172 210 254 305
#     4  10  21  37  57  80 104 133 171 214 261 312
#     4   9  16  29  50  75 104 137 175 219 263 305
#     4   8  16  31  50  74 103 135 172 212 253 300
#     4  10  19  32  52  76 102 134 174 220 265 307
#     4  10  21  36  52  72 102 137 169 206 257 316
#
# _framework density 19.863551000000001
#
# number of rings (size 3 to 8) (size 9 to 14) (size 15 to 20)
#    0.000    2.500    0.000    3.500    0.000    2.333 
#    0.000    5.000    0.000    3.000    0.000    0.000 
#    0.000    0.000    0.000    0.000    0.000    0.000 
#
# Total GULP energy -267768.071687 kJ/mol
# GULP energy per Si atom -5578.501493 kJ/mol
# Density = 1.981834 g / cm^3
# Si number density = 19.863551 Si / 1000 Ang^3
#
#
#
# Elastic Constant Matrix: (Units=GPa)
#
#
# Indices 1 2 3 4 5 6 
#
# 1 12.5364 -7.8718 7.4543 0.0000 0.0000 0.0000
# 2 -7.8718 201.6980 104.1568 0.0000 0.0000 0.0000
# 3 7.4543 104.1568 142.4428 0.0000 0.0000 0.0000
# 4 0.0000 0.0000 0.0000 -17.6621 0.0000 0.0000
# 5 0.0000 0.0000 0.0000 0.0000 12.8432 0.0000
# 6 0.0000 0.0000 0.0000 0.0000 0.0000 21.7799
#
#
#
# Elastic Compliance Matrix: (Units=1/GPa)
#
#
# Indices 1 2 3 4 5 6 
#
# 1 0.093176 0.009888 -0.012106 0.000000 0.000000 0.000000
# 2 0.009888 0.009015 -0.007110 0.000000 0.000000 0.000000
# 3 -0.012106 -0.007110 0.012853 0.000000 0.000000 0.000000
# 4 0.000000 0.000000 0.000000 -0.056619 0.000000 0.000000
# 5 0.000000 0.000000 0.000000 0.000000 0.077862 0.000000
# 6 0.000000 0.000000 0.000000 0.000000 0.000000 0.045914
#
#
# Mechanical properties :
#
#
# Convention : Reuss Voigt Hill
#
# Bulk Modulus (GPa) = 10.37477 62.68396 36.52937
# Shear Modulus (GPa) = 21.46054 20.25473 20.85764
#
# Velocity S-wave (km/s) = 3.29051 3.19673 3.24396
# Velocity P-wave (km/s) = 4.43519 6.72690 5.69746
#
# Compressibility (1/GPa) = 0.09638769
#
# Stress axis : x y z
#
# Youngs Moduli (GPa) = 10.73243 110.92407 77.80570
#
# Poissons Ratio (x) = -1.09684 0.94195
# Poissons Ratio (y) = -0.10612 0.55316
# Poissons Ratio (z) = 0.12993 0.78862
#
# Static dielectric constant tensor:
#      x y z
#    x 1.714370 0.000000 0.000000 
#    y 0.000000 1.696340 0.000000 
#    z 0.000000 0.000000 1.683460 
# 
# From -- ./inp_files/51356.got.cif
#   From: 2010.05.17/outbox.cif.g08.bks.cpg/sg63_26_cif.got.tgz:51356.got - 2010.06.03 15:47:04.
