data_PCOD9470936
_publ_section_title
;
Structure prediction by ZEFSAII (Michael W. Deem and Ramdas Pophale) SiO2 
 PCOD9470936
Probable space group: C M C M
;
_chemical_formula_sum "Si O2"
_cell_formula_units_Z 104
_cell_length_a 28.102128
_cell_length_b 23.115462
_cell_length_c 7.430110
_cell_angle_alpha 90.000000
_cell_angle_beta 90.000000
_cell_angle_gamma 90.000000
_cell_volume 4826.552438
_symmetry_space_group_name_H-M "C M C M"
_symmetry_group_IT_number 63
_symmetry_cell_setting 'orthorhombic'
loop_
_space_group_symop_operation_xyz
x,y,z
-x,-y,1/2+z
x,-y,-z
-x,y,1/2-z
-x,-y,-z
x,y,1/2-z
-x,y,z
x,-y,1/2+z
1/2+x,1/2+y,z
1/2-x,1/2-y,1/2+z
1/2+x,1/2-y,-z
1/2-x,1/2+y,1/2-z
1/2-x,1/2-y,-z
1/2+x,1/2+y,1/2-z
1/2-x,1/2+y,z
1/2+x,1/2-y,1/2+z
loop_
_atom_site_type_symbol
_atom_site_label
_atom_site_fract_x
_atom_site_fract_y
_atom_site_fract_z
Si Si1 0.403829 0.373948 0.470934
Si Si2 0.633363 0.170091 0.965833
Si Si3 0.700051 0.933914 0.034669
Si Si4 0.945549 0.247028 0.535932
Si Si5 0.000000 0.932890 0.036283
Si Si6 0.694956 0.405722 0.048514
Si Si7 0.698368 0.274436 0.963854
O O1 0.400505 0.374378 0.250000
O O2 0.412496 0.306910 0.528969
O O3 0.451807 0.404683 0.531357
O O4 0.357632 0.410023 0.535669
O O5 0.636956 0.168394 0.750000
O O6 0.660470 0.112216 0.031196
O O7 0.663635 0.224776 0.032851
O O8 0.579718 0.191002 0.004805
O O9 0.703679 0.925048 0.250000
O O10 0.754399 0.924196 0.964839
O O11 0.686135 0.000000 0.000000
O O12 0.948434 0.238974 0.750000
O O13 0.000000 0.243773 0.467106
O O14 0.000000 0.921978 0.250000
O O15 0.000000 0.000000 0.000000
O O16 0.693659 0.431503 0.250000
O O17 0.696204 0.336054 0.056716
O O18 0.691290 0.282946 0.750000
O O19 0.750000 0.250000 0.000000
#
# Coordination Sequence:
#
# PCOD9470936 Si02
#       7
#    16  16  16  16   8  16  16
#     4   9  17  31  54  77 105 144 181 222 273 319
#     4  10  21  36  54  80 113 144 175 222 280 333
#     4  10  22  39  55  76 108 145 187 225 267 327
#     4  10  19  33  57  87 111 138 180 224 272 337
#     4  10  20  36  52  72 102 146 195 232 267 314
#     4  10  19  34  54  78 108 144 179 222 275 322
#     4  11  20  31  50  79 111 141 175 217 266 321
#
# _framework density 21.547473
#
# number of rings (size 3 to 8) (size 9 to 14) (size 15 to 20)
#    0.000    2.000    3.846    0.462    0.000    2.769 
#    0.000    1.538    0.000    0.462    0.000    0.000 
#    0.000    0.000    0.000    0.000    0.000    0.000 
#
# Total GULP energy -289946.906485 kJ/mol
# GULP energy per Si atom -5575.902048 kJ/mol
# Density = 2.149843 g / cm^3
# Si number density = 21.547473 Si / 1000 Ang^3
#
#
#
# Elastic Constant Matrix: (Units=GPa)
#
#
# Indices 1 2 3 4 5 6 
#
# 1 107.2807 41.0112 -1.8824 0.0000 0.0000 0.0000
# 2 41.0112 108.6671 -7.6935 0.0000 0.0000 0.0000
# 3 -1.8824 -7.6935 77.7000 0.0000 0.0000 0.0000
# 4 0.0000 0.0000 0.0000 14.1830 0.0000 0.0000
# 5 0.0000 0.0000 0.0000 0.0000 1.0028 0.0000
# 6 0.0000 0.0000 0.0000 0.0000 0.0000 21.8797
#
#
#
# Elastic Compliance Matrix: (Units=1/GPa)
#
#
# Indices 1 2 3 4 5 6 
#
# 1 0.010894 -0.004122 -0.000144 0.000000 0.000000 0.000000
# 2 -0.004122 0.010827 0.000972 0.000000 0.000000 0.000000
# 3 -0.000144 0.000972 0.012963 0.000000 0.000000 0.000000
# 4 0.000000 0.000000 0.000000 0.070507 0.000000 0.000000
# 5 0.000000 0.000000 0.000000 0.000000 0.997240 0.000000
# 6 0.000000 0.000000 0.000000 0.000000 0.000000 0.045704
#
#
# Mechanical properties :
#
#
# Convention : Reuss Voigt Hill
#
# Bulk Modulus (GPa) = 35.59173 39.61317 37.60245
# Shear Modulus (GPa) = 4.29521 24.89392 14.59456
#
# Velocity S-wave (km/s) = 1.41340 3.40267 2.60536
# Velocity P-wave (km/s) = 4.38375 5.81907 5.15164
#
# Compressibility (1/GPa) = 0.02809642
#
# Stress axis : x y z
#
# Youngs Moduli (GPa) = 91.78951 92.36317 77.14395
#
# Poissons Ratio (x) = 0.38070 0.01112
# Poissons Ratio (y) = 0.37834 -0.07500
# Poissons Ratio (z) = 0.01324 -0.08979
#
# Static dielectric constant tensor:
#      x y z
#    x 1.792040 0.000000 0.000000 
#    y 0.000000 1.731520 0.000000 
#    z 0.000000 0.000000 1.854850 
# 
# From -- ./inp_files/12884.got.cif
#   From: 2010.05.17/outbox.cif.g08.bks.cpg/sg63_7_cif.got.tgz:12884.got - 2010.06.03 15:47:04.
