data_PCOD9470030
_publ_section_title
;
Structure prediction by ZEFSAII (Michael W. Deem and Ramdas Pophale) SiO2 
 PCOD9470030
Probable space group: C M C M
;
_chemical_formula_sum "Si O2"
_cell_formula_units_Z 104
_cell_length_a 26.434551
_cell_length_b 24.645556
_cell_length_c 9.437364
_cell_angle_alpha 90.000000
_cell_angle_beta 90.000000
_cell_angle_gamma 90.000000
_cell_volume 6148.387975
_symmetry_space_group_name_H-M "C M C M"
_symmetry_group_IT_number 63
_symmetry_cell_setting 'orthorhombic'
loop_
_space_group_symop_operation_xyz
x,y,z
-x,-y,1/2+z
x,-y,-z
-x,y,1/2-z
-x,-y,-z
x,y,1/2-z
-x,y,z
x,-y,1/2+z
1/2+x,1/2+y,z
1/2-x,1/2-y,1/2+z
1/2+x,1/2-y,-z
1/2-x,1/2+y,1/2-z
1/2-x,1/2-y,-z
1/2+x,1/2+y,1/2-z
1/2-x,1/2+y,z
1/2+x,1/2-y,1/2+z
loop_
_atom_site_type_symbol
_atom_site_label
_atom_site_fract_x
_atom_site_fract_y
_atom_site_fract_z
Si Si1 0.000000 0.441567 0.422187
Si Si2 0.060966 0.052085 0.411369
Si Si3 0.091963 0.360202 0.415222
Si Si4 0.941499 0.238083 0.094139
Si Si5 0.811170 0.684998 0.419625
Si Si6 0.896086 0.850462 0.088915
Si Si7 0.712712 0.689112 0.913134
O O1 0.000000 0.500000 0.500000
O O2 0.949016 0.406403 0.458058
O O3 0.000000 0.447824 0.250000
O O4 0.078059 0.048414 0.250000
O O5 0.080864 0.105473 0.486012
O O6 0.000000 0.053427 0.412316
O O7 0.077568 0.000000 0.500000
O O8 0.106015 0.370331 0.250000
O O9 0.063010 0.302538 0.418987
O O10 0.142439 0.347210 0.506856
O O11 0.919893 0.223099 0.250000
O O12 0.000000 0.222185 0.093223
O O13 0.914788 0.207483 0.967303
O O14 0.813923 0.678804 0.250000
O O15 0.757154 0.668652 0.485870
O O16 0.808145 0.750303 0.451201
O O17 0.912597 0.859592 0.250000
O O18 0.835643 0.849479 0.083030
O O19 0.731339 0.693105 0.750000
#
# Coordination Sequence:
#
# PCOD9470030 Si02
#       7
#     8  16  16  16  16  16  16
#     4  10  22  40  60  84 110 146 189 228 273 328
#     4  10  21  37  55  75 101 138 182 221 260 309
#     4  10  19  34  55  77 107 142 176 217 269 323
#     4  10  19  31  48  73 105 141 177 213 259 320
#     4  10  19  32  51  77 107 141 180 218 262 318
#     4  11  21  33  50  76 109 141 175 220 267 314
#     4   9  19  33  48  73 109 144 178 215 262 319
#
# _framework density 16.915002999999999
#
# number of rings (size 3 to 8) (size 9 to 14) (size 15 to 20)
#    0.000    2.000    2.308    1.846    0.000    5.538 
#    0.000    0.000    0.000    0.923    0.000    4.308 
#    0.000    0.000    0.000    0.000    0.000    0.000 
#
# Total GULP energy -289735.732515 kJ/mol
# GULP energy per Si atom -5571.841010 kJ/mol
# Density = 1.687650 g / cm^3
# Si number density = 16.915003 Si / 1000 Ang^3
#
#
#
# Elastic Constant Matrix: (Units=GPa)
#
#
# Indices 1 2 3 4 5 6 
#
# 1 75.3198 27.8859 52.6595 0.0000 0.0000 0.0000
# 2 27.8859 71.0636 43.3928 0.0000 0.0000 0.0000
# 3 52.6595 43.3928 106.7198 0.0000 0.0000 0.0000
# 4 0.0000 0.0000 0.0000 22.7693 0.0000 0.0000
# 5 0.0000 0.0000 0.0000 0.0000 53.4518 0.0000
# 6 0.0000 0.0000 0.0000 0.0000 0.0000 -10.7149
#
#
#
# Elastic Compliance Matrix: (Units=1/GPa)
#
#
# Indices 1 2 3 4 5 6 
#
# 1 0.020597 -0.002496 -0.009148 0.000000 0.000000 0.000000
# 2 -0.002496 0.019022 -0.006503 0.000000 0.000000 0.000000
# 3 -0.009148 -0.006503 0.016528 0.000000 0.000000 0.000000
# 4 0.000000 0.000000 0.000000 0.043919 0.000000 0.000000
# 5 0.000000 0.000000 0.000000 0.000000 0.018708 0.000000
# 6 0.000000 0.000000 0.000000 0.000000 0.000000 -0.093328
#
#
# Mechanical properties :
#
#
# Convention : Reuss Voigt Hill
#
# Bulk Modulus (GPa) = 50.37036 55.66441 53.01739
# Shear Modulus (GPa) = 73.14340 21.71224 47.42782
#
# Velocity S-wave (km/s) = 6.58298 3.58664 5.30092
# Velocity P-wave (km/s) = 9.36077 7.08037 8.29927
#
# Compressibility (1/GPa) = 0.01985294
#
# Stress axis : x y z
#
# Youngs Moduli (GPa) = 48.55101 52.57018 60.50167
#
# Poissons Ratio (x) = 0.13123 0.55348
# Poissons Ratio (y) = 0.12120 0.39343
# Poissons Ratio (z) = 0.44416 0.34185
#
# Static dielectric constant tensor:
#      x y z
#    x 1.582820 0.000000 0.000000 
#    y 0.000000 1.572090 0.000000 
#    z 0.000000 0.000000 1.587500 
# 
# From -- ./inp_files/12846.got.cif
#   From: 2010.05.17/outbox.cif.g08.bks.cpg/sg63_7_cif.got.tgz:12846.got - 2010.06.03 15:47:04.
