data_PCOD9470799
_publ_section_title
;
Structure prediction by ZEFSAII (Michael W. Deem and Ramdas Pophale) SiO2 
 PCOD9470799
Probable space group: C M C M
;
_chemical_formula_sum "Si O2"
_cell_formula_units_Z 72
_cell_length_a 24.443268
_cell_length_b 18.043707
_cell_length_c 8.441449
_cell_angle_alpha 90.000000
_cell_angle_beta 90.000000
_cell_angle_gamma 90.000000
_cell_volume 3723.077158
_symmetry_space_group_name_H-M "C M C M"
_symmetry_group_IT_number 63
_symmetry_cell_setting 'orthorhombic'
loop_
_space_group_symop_operation_xyz
x,y,z
-x,-y,1/2+z
x,-y,-z
-x,y,1/2-z
-x,-y,-z
x,y,1/2-z
-x,y,z
x,-y,1/2+z
1/2+x,1/2+y,z
1/2-x,1/2-y,1/2+z
1/2+x,1/2-y,-z
1/2-x,1/2+y,1/2-z
1/2-x,1/2-y,-z
1/2+x,1/2+y,1/2-z
1/2-x,1/2+y,z
1/2+x,1/2-y,1/2+z
loop_
_atom_site_type_symbol
_atom_site_label
_atom_site_fract_x
_atom_site_fract_y
_atom_site_fract_z
Si Si1 0.379140 0.914874 0.560218
Si Si2 0.000000 0.584567 0.441034
Si Si3 0.941766 0.914805 0.558955
Si Si4 0.675640 0.416236 0.940900
Si Si5 0.724264 0.825862 0.064855
O O1 0.378805 0.918821 0.750000
O O2 0.439941 0.887324 0.506856
O O3 0.331187 0.859527 0.507854
O O4 0.370589 0.000000 0.500000
O O5 0.000000 0.500000 0.500000
O O6 0.000000 0.587042 0.250000
O O7 0.941556 0.916653 0.750000
O O8 0.883306 0.880584 0.513106
O O9 0.000000 0.881095 0.506113
O O10 0.942184 0.000000 0.500000
O O11 0.682156 0.412102 0.750000
O O12 0.671920 0.500000 0.000000
O O13 0.727449 0.382902 0.026646
O O14 0.714829 0.817079 0.250000
O O15 0.750000 0.750000 0.000000
#
# Coordination Sequence:
#
# PCOD9470799 Si02
#       5
#    16   8  16  16  16
#     4  10  19  35  59  89 119 149 185 228 277 332
#     4   8  16  30  54  86 118 146 177 222 275 330
#     4   8  14  25  44  71 101 131 164 206 253 299
#     4  10  19  33  54  80 108 139 178 222 269 319
#     4  12  25  40  56  76 106 145 187 230 279 332
#
# _framework density 19.338842
#
# number of rings (size 3 to 8) (size 9 to 14) (size 15 to 20)
#    0.000    2.222    0.000    4.000    0.000    1.778 
#    0.000    0.000    2.444    0.000    0.000    0.000 
#    0.000    0.000    0.000    0.000    0.000    0.000 
#
# Total GULP energy -200442.074335 kJ/mol
# GULP energy per Si atom -5567.835398 kJ/mol
# Density = 1.929483 g / cm^3
# Si number density = 19.338842 Si / 1000 Ang^3
#
#
#
# Elastic Constant Matrix: (Units=GPa)
#
#
# Indices 1 2 3 4 5 6 
#
# 1 212.8926 54.0726 30.2479 0.0000 0.0000 0.0000
# 2 54.0726 47.2685 15.9201 0.0000 0.0000 0.0000
# 3 30.2479 15.9201 56.9052 0.0000 0.0000 0.0000
# 4 0.0000 0.0000 0.0000 24.6178 0.0000 0.0000
# 5 0.0000 0.0000 0.0000 0.0000 11.8935 0.0000
# 6 0.0000 0.0000 0.0000 0.0000 0.0000 2.9528
#
#
#
# Elastic Compliance Matrix: (Units=1/GPa)
#
#
# Indices 1 2 3 4 5 6 
#
# 1 0.006746 -0.007187 -0.001575 0.000000 0.000000 0.000000
# 2 -0.007187 0.031013 -0.004856 0.000000 0.000000 0.000000
# 3 -0.001575 -0.004856 0.019769 0.000000 0.000000 0.000000
# 4 0.000000 0.000000 0.000000 0.040621 0.000000 0.000000
# 5 0.000000 0.000000 0.000000 0.000000 0.084080 0.000000
# 6 0.000000 0.000000 0.000000 0.000000 0.000000 0.338659
#
#
# Mechanical properties :
#
#
# Convention : Reuss Voigt Hill
#
# Bulk Modulus (GPa) = 33.01266 57.50529 45.25898
# Shear Modulus (GPa) = 8.95701 22.34787 15.65244
#
# Velocity S-wave (km/s) = 2.15445 3.40309 2.84804
# Velocity P-wave (km/s) = 4.82666 6.72619 5.85398
#
# Compressibility (1/GPa) = 0.03029141
#
# Stress axis : x y z
#
# Youngs Moduli (GPa) = 148.22576 32.24475 50.58419
#
# Poissons Ratio (x) = 0.23174 0.07969
# Poissons Ratio (y) = 1.06530 0.24564
# Poissons Ratio (z) = 0.23352 0.15658
#
# Static dielectric constant tensor:
#      x y z
#    x 1.821910 0.000000 0.000000 
#    y 0.000000 1.656900 0.000000 
#    z 0.000000 0.000000 1.652480 
# 
# From -- ./inp_files/9883.got.cif
#   From: 2010.05.17/outbox.cif.g08.bks.cpg/sg63_5_cif.got.tgz:9883.got - 2010.06.03 15:47:04.
