data_PCOD9470991
_publ_section_title
;
Structure prediction by ZEFSAII (Michael W. Deem and Ramdas Pophale) SiO2 
 PCOD9470991
Probable space group: C M C M
;
_chemical_formula_sum "Si O2"
_cell_formula_units_Z 96
_cell_length_a 30.116904
_cell_length_b 20.211858
_cell_length_c 9.156991
_cell_angle_alpha 90.000000
_cell_angle_beta 90.000000
_cell_angle_gamma 90.000000
_cell_volume 5574.030623
_symmetry_space_group_name_H-M "C M C M"
_symmetry_group_IT_number 63
_symmetry_cell_setting 'orthorhombic'
loop_
_space_group_symop_operation_xyz
x,y,z
-x,-y,1/2+z
x,-y,-z
-x,y,1/2-z
-x,-y,-z
x,y,1/2-z
-x,y,z
x,-y,1/2+z
1/2+x,1/2+y,z
1/2-x,1/2-y,1/2+z
1/2+x,1/2-y,-z
1/2-x,1/2+y,1/2-z
1/2-x,1/2-y,-z
1/2+x,1/2+y,1/2-z
1/2-x,1/2+y,z
1/2+x,1/2-y,1/2+z
loop_
_atom_site_type_symbol
_atom_site_label
_atom_site_fract_x
_atom_site_fract_y
_atom_site_fract_z
Si Si1 0.448409 0.289164 0.573609
Si Si2 0.375589 0.795203 0.922962
Si Si3 0.554187 0.434861 0.917744
Si Si4 0.271894 0.430881 0.924223
Si Si5 0.334523 0.067186 0.076844
Si Si6 0.288277 0.705971 0.923617
O O1 0.446230 0.289737 0.750000
O O2 0.500000 0.280288 0.533127
O O3 0.417149 0.233936 0.507769
O O4 0.433289 0.362695 0.522540
O O5 0.385254 0.798901 0.750000
O O6 0.359855 0.867435 0.974435
O O7 0.333978 0.745947 0.940848
O O8 0.568309 0.439058 0.750000
O O9 0.500000 0.435320 0.919418
O O10 0.569920 0.500000 0.000000
O O11 0.280565 0.431994 0.750000
O O12 0.218440 0.424662 0.945877
O O13 0.285646 0.500000 0.000000
O O14 0.291348 0.365646 0.000457
O O15 0.341018 0.061187 0.250000
O O16 0.348905 0.000000 0.000000
O O17 0.278924 0.699296 0.750000
O O18 0.250000 0.750000 0.000000
#
# Coordination Sequence:
#
# PCOD9470991 Si02
#       6
#    16  16  16  16  16  16
#     4   9  19  35  53  76 105 136 175 221 267 317
#     4  10  21  36  53  78 109 137 174 219 263 315
#     4   8  14  26  45  69  96 124 159 205 251 298
#     4  10  19  34  53  77 108 144 182 221 265 317
#     4   9  18  33  51  76 106 134 169 215 258 308
#     4  11  21  35  53  77 109 143 177 220 266 316
#
# _framework density 17.222726000000002
#
# number of rings (size 3 to 8) (size 9 to 14) (size 15 to 20)
#    0.000    2.500    1.667    2.000    0.000    3.667 
#    0.000    2.500    0.000    2.500    0.000    0.000 
#    0.000    0.000    0.000    0.000    0.000    0.000 
#
# Total GULP energy -267682.332152 kJ/mol
# GULP energy per Si atom -5576.715253 kJ/mol
# Density = 1.718353 g / cm^3
# Si number density = 17.222726 Si / 1000 Ang^3
#
#
#
# Elastic Constant Matrix: (Units=GPa)
#
#
# Indices 1 2 3 4 5 6 
#
# 1 35.2611 37.6731 29.4063 0.0000 0.0000 0.0000
# 2 37.6731 171.3065 60.2420 0.0000 0.0000 0.0000
# 3 29.4063 60.2420 53.1390 0.0000 0.0000 0.0000
# 4 0.0000 0.0000 0.0000 36.7684 0.0000 0.0000
# 5 0.0000 0.0000 0.0000 0.0000 22.2835 0.0000
# 6 0.0000 0.0000 0.0000 0.0000 0.0000 19.8734
#
#
#
# Elastic Compliance Matrix: (Units=1/GPa)
#
#
# Indices 1 2 3 4 5 6 
#
# 1 0.053176 -0.002238 -0.026889 0.000000 0.000000 0.000000
# 2 -0.002238 0.009802 -0.009873 0.000000 0.000000 0.000000
# 3 -0.026889 -0.009873 0.044892 0.000000 0.000000 0.000000
# 4 0.000000 0.000000 0.000000 0.027197 0.000000 0.000000
# 5 0.000000 0.000000 0.000000 0.000000 0.044876 0.000000
# 6 0.000000 0.000000 0.000000 0.000000 0.000000 0.050318
#
#
# Mechanical properties :
#
#
# Convention : Reuss Voigt Hill
#
# Bulk Modulus (GPa) = 33.48102 57.14993 45.31548
# Shear Modulus (GPa) = 15.71249 24.61076 20.16163
#
# Velocity S-wave (km/s) = 3.02373 3.78427 3.42517
# Velocity P-wave (km/s) = 5.62786 7.23527 6.48159
#
# Compressibility (1/GPa) = 0.02986766
#
# Stress axis : x y z
#
# Youngs Moduli (GPa) = 18.80564 102.02173 22.27587
#
# Poissons Ratio (x) = 0.22836 0.59897
# Poissons Ratio (y) = 0.04209 0.21994
# Poissons Ratio (z) = 0.50566 1.00730
#
# Static dielectric constant tensor:
#      x y z
#    x 1.573250 0.000000 0.000000 
#    y 0.000000 1.588240 0.000000 
#    z 0.000000 0.000000 1.578000 
# 
# From -- ./inp_files/12429.got.cif
#   From: 2010.05.17/outbox.cif.g08.bks.cpg/sg63_7_cif.got.tgz:12429.got - 2010.06.03 15:47:04.
