data_PCOD9470711
_publ_section_title
;
Structure prediction by ZEFSAII (Michael W. Deem and Ramdas Pophale) SiO2 
 PCOD9470711
Probable space group: C M C M
;
_chemical_formula_sum "Si O2"
_cell_formula_units_Z 80
_cell_length_a 12.759085
_cell_length_b 29.382313
_cell_length_c 11.299452
_cell_angle_alpha 90.000000
_cell_angle_beta 90.000000
_cell_angle_gamma 90.000000
_cell_volume 4236.067708
_symmetry_space_group_name_H-M "C M C M"
_symmetry_group_IT_number 63
_symmetry_cell_setting 'orthorhombic'
loop_
_space_group_symop_operation_xyz
x,y,z
-x,-y,1/2+z
x,-y,-z
-x,y,1/2-z
-x,-y,-z
x,y,1/2-z
-x,y,z
x,-y,1/2+z
1/2+x,1/2+y,z
1/2-x,1/2-y,1/2+z
1/2+x,1/2-y,-z
1/2-x,1/2+y,1/2-z
1/2-x,1/2-y,-z
1/2+x,1/2+y,1/2-z
1/2-x,1/2+y,z
1/2+x,1/2-y,1/2+z
loop_
_atom_site_type_symbol
_atom_site_label
_atom_site_fract_x
_atom_site_fract_y
_atom_site_fract_z
Si Si1 0.115261 0.294759 0.550943
Si Si2 0.653686 0.712063 0.122105
Si Si3 0.381726 0.883051 0.113747
Si Si4 0.500000 0.370243 0.886322
Si Si5 0.233586 0.969252 0.113782
Si Si6 0.000000 0.933826 0.116969
O O1 0.221653 0.293215 0.623473
O O2 0.120219 0.248575 0.474438
O O3 0.126935 0.339024 0.467878
O O4 0.000000 0.297231 0.607757
O O5 0.618729 0.729150 0.250000
O O6 0.599267 0.663516 0.102883
O O7 0.372795 0.868096 0.250000
O O8 0.500000 0.902278 0.097445
O O9 0.294336 0.921480 0.095209
O O10 0.500000 0.389217 0.750000
O O11 0.500000 0.403362 0.998366
O O12 0.260609 0.984763 0.250000
O O13 0.108197 0.961751 0.112816
O O14 0.260999 0.000000 0.000000
O O15 0.000000 0.911059 0.250000
#
# Coordination Sequence:
#
# PCOD9470711 Si02
#       6
#    16  16  16   8  16   8
#     4  10  19  33  53  75 104 140 184 226 268 321
#     4  10  20  33  51  75 107 145 183 227 273 321
#     4   9  18  33  55  79 102 135 178 223 268 319
#     4  10  20  35  55  82 115 150 187 225 273 330
#     4  10  21  37  57  82 110 139 177 225 277 333
#     4  10  21  37  57  82 112 144 182 227 269 322
#
# _framework density 18.885439000000002
#
# number of rings (size 3 to 8) (size 9 to 14) (size 15 to 20)
#    0.000    2.200    1.000    2.100    0.000    2.400 
#    0.000    5.000    0.000    1.200    0.000    0.000 
#    0.000    0.000    0.000    0.000    0.000    0.000 
#
# Total GULP energy -222789.921719 kJ/mol
# GULP energy per Si atom -5569.748043 kJ/mol
# Density = 1.884246 g / cm^3
# Si number density = 18.885439 Si / 1000 Ang^3
#
#
#
# Elastic Constant Matrix: (Units=GPa)
#
#
# Indices 1 2 3 4 5 6 
#
# 1 112.9884 6.4584 14.5125 0.0000 0.0000 0.0000
# 2 6.4584 36.1993 44.0793 0.0000 0.0000 0.0000
# 3 14.5125 44.0793 121.8552 0.0000 0.0000 0.0000
# 4 0.0000 0.0000 0.0000 -26.2396 0.0000 0.0000
# 5 0.0000 0.0000 0.0000 0.0000 22.9649 0.0000
# 6 0.0000 0.0000 0.0000 0.0000 0.0000 25.3075
#
#
#
# Elastic Compliance Matrix: (Units=1/GPa)
#
#
# Indices 1 2 3 4 5 6 
#
# 1 0.008994 -0.000537 -0.000877 0.000000 0.000000 0.000000
# 2 -0.000537 0.049404 -0.017807 0.000000 0.000000 0.000000
# 3 -0.000877 -0.017807 0.014752 0.000000 0.000000 0.000000
# 4 0.000000 0.000000 0.000000 -0.038110 0.000000 0.000000
# 5 0.000000 0.000000 0.000000 0.000000 0.043545 0.000000
# 6 0.000000 0.000000 0.000000 0.000000 0.000000 0.039514
#
#
# Mechanical properties :
#
#
# Convention : Reuss Voigt Hill
#
# Bulk Modulus (GPa) = 28.81144 44.57150 36.69147
# Shear Modulus (GPa) = 29.74233 18.13940 23.94086
#
# Velocity S-wave (km/s) = 3.97278 3.10255 3.56432
# Velocity P-wave (km/s) = 6.02769 6.04042 6.03406
#
# Compressibility (1/GPa) = 0.03470843
#
# Stress axis : x y z
#
# Youngs Moduli (GPa) = 111.18792 20.24115 67.78533
#
# Poissons Ratio (x) = 0.01086 0.05945
# Poissons Ratio (y) = 0.05968 1.20708
# Poissons Ratio (z) = 0.09751 0.36044
#
# Static dielectric constant tensor:
#      x y z
#    x 1.683320 0.000000 0.000000 
#    y 0.000000 1.618720 0.000000 
#    z 0.000000 0.000000 1.664080 
# 
# From -- ./inp_files/17883.got.cif
#   From: 2010.05.17/outbox.cif.g08.bks.cpg/sg63_9_cif.got.tgz:17883.got - 2010.06.03 15:47:04.
