data_PCOD9470144
_publ_section_title
;
Structure prediction by ZEFSAII (Michael W. Deem and Ramdas Pophale) SiO2 
 PCOD9470144
Probable space group: C M C M
;
_chemical_formula_sum "Si O2"
_cell_formula_units_Z 80
_cell_length_a 26.923360
_cell_length_b 20.049773
_cell_length_c 8.381535
_cell_angle_alpha 90.000000
_cell_angle_beta 90.000000
_cell_angle_gamma 90.000000
_cell_volume 4524.413413
_symmetry_space_group_name_H-M "C M C M"
_symmetry_group_IT_number 63
_symmetry_cell_setting 'orthorhombic'
loop_
_space_group_symop_operation_xyz
x,y,z
-x,-y,1/2+z
x,-y,-z
-x,y,1/2-z
-x,-y,-z
x,y,1/2-z
-x,y,z
x,-y,1/2+z
1/2+x,1/2+y,z
1/2-x,1/2-y,1/2+z
1/2+x,1/2-y,-z
1/2-x,1/2+y,1/2-z
1/2-x,1/2-y,-z
1/2+x,1/2+y,1/2-z
1/2-x,1/2+y,z
1/2+x,1/2-y,1/2+z
loop_
_atom_site_type_symbol
_atom_site_label
_atom_site_fract_x
_atom_site_fract_y
_atom_site_fract_z
Si Si1 0.141925 0.325745 0.556641
Si Si2 0.250445 0.326436 0.557692
Si Si3 0.141031 0.826751 0.558786
Si Si4 0.056464 0.074435 0.559152
Si Si5 0.443628 0.925285 0.557149
O O1 0.141105 0.324648 0.750000
O O2 0.196490 0.352909 0.505379
O O3 0.136163 0.249626 0.499389
O O4 0.097287 0.372651 0.500466
O O5 0.250599 0.328130 0.750000
O O6 0.250000 0.250000 0.500000
O O7 0.304226 0.353156 0.504272
O O8 0.140518 0.826513 0.750000
O O9 0.096613 0.872550 0.498677
O O10 0.056284 0.074232 0.750000
O O11 0.000000 0.089907 0.503606
O O12 0.068624 0.000000 0.500000
O O13 0.443121 0.924947 0.750000
O O14 0.500000 0.908762 0.505175
O O15 0.432397 0.000000 0.500000
#
# Coordination Sequence:
#
# PCOD9470144 Si02
#       5
#    16  16  16  16  16
#     4   9  17  31  50  71  98 131 166 203 241 283
#     4   8  15  28  46  68  96 129 161 195 237 283
#     4  10  19  31  50  76 102 127 160 200 241 288
#     4  10  21  37  55  73  96 128 163 199 243 294
#     4   9  18  32  49  68  92 124 160 198 241 286
#
# _framework density 17.681850000000001
#
# number of rings (size 3 to 8) (size 9 to 14) (size 15 to 20)
#    0.000    2.800    0.000    1.200    0.000    3.600 
#    0.000    3.000    0.000    2.400    0.000    0.000 
#    0.000    0.000    0.000    0.000    0.000    0.000 
#
# Total GULP energy -222752.007698 kJ/mol
# GULP energy per Si atom -5568.800192 kJ/mol
# Density = 1.764161 g / cm^3
# Si number density = 17.681850 Si / 1000 Ang^3
#
#
#
# Elastic Constant Matrix: (Units=GPa)
#
#
# Indices 1 2 3 4 5 6 
#
# 1 192.8879 107.6482 27.3952 0.0000 0.0000 0.0000
# 2 107.6482 84.1452 15.1160 0.0000 0.0000 0.0000
# 3 27.3952 15.1160 12.9505 0.0000 0.0000 0.0000
# 4 0.0000 0.0000 0.0000 27.5745 0.0000 0.0000
# 5 0.0000 0.0000 0.0000 0.0000 -23.3613 0.0000
# 6 0.0000 0.0000 0.0000 0.0000 0.0000 -33.9875
#
#
#
# Elastic Compliance Matrix: (Units=1/GPa)
#
#
# Indices 1 2 3 4 5 6 
#
# 1 0.020479 -0.023304 -0.016122 0.000000 0.000000 0.000000
# 2 -0.023304 0.041554 0.000793 0.000000 0.000000 0.000000
# 3 -0.016122 0.000793 0.110395 0.000000 0.000000 0.000000
# 4 0.000000 0.000000 0.000000 0.036265 0.000000 0.000000
# 5 0.000000 0.000000 0.000000 0.000000 -0.042806 0.000000
# 6 0.000000 0.000000 0.000000 0.000000 0.000000 -0.029423
#
#
# Mechanical properties :
#
#
# Convention : Reuss Voigt Hill
#
# Bulk Modulus (GPa) = 10.50814 65.58918 38.04866
# Shear Modulus (GPa) = 20.37062 3.36675 11.86869
#
# Velocity S-wave (km/s) = 3.39789 1.38138 2.59363
# Velocity P-wave (km/s) = 4.62061 6.30229 5.52580
#
# Compressibility (1/GPa) = 0.09516434
#
# Stress axis : x y z
#
# Youngs Moduli (GPa) = 48.82935 24.06483 9.05840
#
# Poissons Ratio (x) = 0.56080 0.14604
# Poissons Ratio (y) = 1.13790 -0.00718
# Poissons Ratio (z) = 0.78721 -0.01908
#
# Static dielectric constant tensor:
#      x y z
#    x 1.665510 0.000000 0.000000 
#    y 0.000000 1.544430 0.000000 
#    z 0.000000 0.000000 1.603440 
# 
# From -- ./inp_files/11974.got.cif
#   From: 2010.05.17/outbox.cif.g08.bks.cpg/sg63_6_cif.got.tgz:11974.got - 2010.06.03 15:47:04.
