data_PCOD9470862
_publ_section_title
;
Structure prediction by ZEFSAII (Michael W. Deem and Ramdas Pophale) SiO2 
 PCOD9470862
Probable space group: C M C M
;
_chemical_formula_sum "Si O2"
_cell_formula_units_Z 80
_cell_length_a 24.584951
_cell_length_b 10.553123
_cell_length_c 18.132257
_cell_angle_alpha 90.000000
_cell_angle_beta 90.000000
_cell_angle_gamma 90.000000
_cell_volume 4704.378029
_symmetry_space_group_name_H-M "C M C M"
_symmetry_group_IT_number 63
_symmetry_cell_setting 'orthorhombic'
loop_
_space_group_symop_operation_xyz
x,y,z
-x,-y,1/2+z
x,-y,-z
-x,y,1/2-z
-x,-y,-z
x,y,1/2-z
-x,y,z
x,-y,1/2+z
1/2+x,1/2+y,z
1/2-x,1/2-y,1/2+z
1/2+x,1/2-y,-z
1/2-x,1/2+y,1/2-z
1/2-x,1/2-y,-z
1/2+x,1/2+y,1/2-z
1/2-x,1/2+y,z
1/2+x,1/2-y,1/2+z
loop_
_atom_site_type_symbol
_atom_site_label
_atom_site_fract_x
_atom_site_fract_y
_atom_site_fract_z
Si Si1 0.724267 0.010680 0.664928
Si Si2 0.500000 0.352404 0.986578
Si Si3 0.602942 0.198776 0.462976
Si Si4 0.896500 0.442424 0.382864
Si Si5 0.000000 0.286327 0.332355
Si Si6 0.222112 0.755044 0.419881
O O1 0.740694 0.999294 0.750000
O O2 0.732851 0.877692 0.622444
O O3 0.659860 0.042918 0.660213
O O4 0.755528 0.125068 0.624848
O O5 0.500000 0.312319 0.900213
O O6 0.500000 0.500000 0.000000
O O7 0.446873 0.291049 0.023271
O O8 0.616403 0.135952 0.542385
O O9 0.657233 0.262147 0.431881
O O10 0.586541 0.082166 0.410241
O O11 0.946138 0.372523 0.343181
O O12 0.000000 0.231524 0.250000
O O13 0.250000 0.750000 0.500000
#
# Coordination Sequence:
#
# PCOD9470862 Si02
#       6
#    16   8  16  16   8  16
#     4  11  22  36  55  84 117 145 181 236 289 331
#     4  10  21  35  55  79 113 146 185 230 265 324
#     4   9  18  34  56  82 103 142 189 227 268 318
#     4   9  17  33  57  81 108 136 180 230 273 326
#     4  10  19  33  55  83 108 138 175 224 284 329
#     4  11  21  37  58  80 110 150 194 228 273 340
#
# _framework density 17.005436
#
# number of rings (size 3 to 8) (size 9 to 14) (size 15 to 20)
#    0.000    2.000    2.000    2.400    0.000    4.000 
#    0.000    0.000    0.000    7.200    0.000    0.000 
#    0.000    0.000    0.000    0.000    0.000    0.000 
#
# Total GULP energy -223190.512740 kJ/mol
# GULP energy per Si atom -5579.762818 kJ/mol
# Density = 1.696673 g / cm^3
# Si number density = 17.005436 Si / 1000 Ang^3
#
#
#
# Elastic Constant Matrix: (Units=GPa)
#
#
# Indices 1 2 3 4 5 6 
#
# 1 92.5544 81.4992 60.0490 0.0000 0.0000 0.0000
# 2 81.4992 136.0882 76.4406 0.0000 0.0000 0.0000
# 3 60.0490 76.4406 124.1702 0.0000 0.0000 0.0000
# 4 0.0000 0.0000 0.0000 17.8761 0.0000 0.0000
# 5 0.0000 0.0000 0.0000 0.0000 15.6560 0.0000
# 6 0.0000 0.0000 0.0000 0.0000 0.0000 27.8022
#
#
#
# Elastic Compliance Matrix: (Units=1/GPa)
#
#
# Indices 1 2 3 4 5 6 
#
# 1 0.024248 -0.012129 -0.004260 0.000000 0.000000 0.000000
# 2 -0.012129 0.017299 -0.004784 0.000000 0.000000 0.000000
# 3 -0.004260 -0.004784 0.013059 0.000000 0.000000 0.000000
# 4 0.000000 0.000000 0.000000 0.055941 0.000000 0.000000
# 5 0.000000 0.000000 0.000000 0.000000 0.063873 0.000000
# 6 0.000000 0.000000 0.000000 0.000000 0.000000 0.035968
#
#
# Mechanical properties :
#
#
# Convention : Reuss Voigt Hill
#
# Bulk Modulus (GPa) = 81.56213 87.64339 84.60276
# Shear Modulus (GPa) = 19.46885 21.25511 20.36198
#
# Velocity S-wave (km/s) = 3.38725 3.53923 3.46407
# Velocity P-wave (km/s) = 7.96018 8.26752 8.11530
#
# Compressibility (1/GPa) = 0.01226059
#
# Stress axis : x y z
#
# Youngs Moduli (GPa) = 41.23983 57.80729 76.57807
#
# Poissons Ratio (x) = 0.70114 0.32622
# Poissons Ratio (y) = 0.50019 0.36634
# Poissons Ratio (z) = 0.17568 0.27654
#
# Static dielectric constant tensor:
#      x y z
#    x 1.565620 0.000000 0.000000 
#    y 0.000000 1.543330 0.000000 
#    z 0.000000 0.000000 1.579170 
# 
# From -- ./inp_files/57267.got.cif
#   From: 2010.05.17/outbox.cif.g08.bks.cpg/sg63_29_cif.got.tgz:57267.got - 2010.06.03 15:47:04.
