data_PCOD9470748
_publ_section_title
;
Structure prediction by ZEFSAII (Michael W. Deem and Ramdas Pophale) SiO2 
 PCOD9470748
Probable space group: C M C M
;
_chemical_formula_sum "Si O2"
_cell_formula_units_Z 64
_cell_length_a 10.477310
_cell_length_b 19.413945
_cell_length_c 18.491016
_cell_angle_alpha 90.000000
_cell_angle_beta 90.000000
_cell_angle_gamma 90.000000
_cell_volume 3761.182123
_symmetry_space_group_name_H-M "C M C M"
_symmetry_group_IT_number 63
_symmetry_cell_setting 'orthorhombic'
loop_
_space_group_symop_operation_xyz
x,y,z
-x,-y,1/2+z
x,-y,-z
-x,y,1/2-z
-x,-y,-z
x,y,1/2-z
-x,y,z
x,-y,1/2+z
1/2+x,1/2+y,z
1/2-x,1/2-y,1/2+z
1/2+x,1/2-y,-z
1/2-x,1/2+y,1/2-z
1/2-x,1/2-y,-z
1/2+x,1/2+y,1/2-z
1/2-x,1/2+y,z
1/2+x,1/2-y,1/2+z
loop_
_atom_site_type_symbol
_atom_site_label
_atom_site_fract_x
_atom_site_fract_y
_atom_site_fract_z
Si Si1 0.500000 0.496828 0.666275
Si Si2 0.000000 0.079848 0.530558
Si Si3 0.753210 0.900953 0.667900
Si Si4 0.253600 0.669362 0.016811
Si Si5 0.500000 0.974632 0.876154
Si Si6 0.500000 0.100099 0.532385
O O1 0.500000 0.516227 0.750000
O O2 0.500000 0.562957 0.615425
O O3 0.375735 0.449269 0.653085
O O4 0.876687 0.124615 0.507946
O O5 0.000000 0.000000 0.500000
O O6 0.764678 0.873561 0.750000
O O7 0.742817 0.845975 0.603051
O O8 0.626666 0.947722 0.662268
O O9 0.250000 0.750000 0.000000
O O10 0.130554 0.641129 0.974630
O O11 0.500000 0.054688 0.895430
O O12 0.500000 0.942163 0.956735
#
# Coordination Sequence:
#
# PCOD9470748 Si02
#       6
#     8   8  16  16   8   8
#     4  10  20  34  56  87 112 140 187 240 283 325
#     4  12  21  37  62  84 112 147 194 235 279 329
#     4  10  19  33  53  78 108 143 185 230 281 336
#     4  11  22  36  55  84 115 149 189 230 278 339
#     4   9  17  30  51  78 101 133 175 226 271 317
#     4   9  19  31  53  77 110 135 177 225 274 316
#
# _framework density 17.015927000000001
#
# number of rings (size 3 to 8) (size 9 to 14) (size 15 to 20)
#    0.000    1.750    2.500    2.625    3.500    0.000 
#    0.000    1.250    0.000    3.000    0.000    0.000 
#    0.000    0.000    0.000    0.000    0.000    0.000 
#
# Total GULP energy -178264.701649 kJ/mol
# GULP energy per Si atom -5570.771927 kJ/mol
# Density = 1.697720 g / cm^3
# Si number density = 17.015927 Si / 1000 Ang^3
#
#
#
# Elastic Constant Matrix: (Units=GPa)
#
#
# Indices 1 2 3 4 5 6 
#
# 1 159.8750 65.6569 30.8440 0.0000 0.0000 0.0000
# 2 65.6569 123.0432 62.2156 0.0000 0.0000 0.0000
# 3 30.8440 62.2156 113.6309 0.0000 0.0000 0.0000
# 4 0.0000 0.0000 0.0000 21.1973 0.0000 0.0000
# 5 0.0000 0.0000 0.0000 0.0000 14.3973 0.0000
# 6 0.0000 0.0000 0.0000 0.0000 0.0000 165.0398
#
#
#
# Elastic Compliance Matrix: (Units=1/GPa)
#
#
# Indices 1 2 3 4 5 6 
#
# 1 0.008015 -0.004393 0.000230 0.000000 0.000000 0.000000
# 2 -0.004393 0.013646 -0.006279 0.000000 0.000000 0.000000
# 3 0.000230 -0.006279 0.012176 0.000000 0.000000 0.000000
# 4 0.000000 0.000000 0.000000 0.047176 0.000000 0.000000
# 5 0.000000 0.000000 0.000000 0.000000 0.069457 0.000000
# 6 0.000000 0.000000 0.000000 0.000000 0.000000 0.006059
#
#
# Mechanical properties :
#
#
# Convention : Reuss Voigt Hill
#
# Bulk Modulus (GPa) = 77.20683 79.33136 78.26910
# Shear Modulus (GPa) = 27.51308 55.98238 41.74773
#
# Velocity S-wave (km/s) = 4.02543 5.74207 4.95861
# Velocity P-wave (km/s) = 8.19007 9.52286 8.88150
#
# Compressibility (1/GPa) = 0.01295222
#
# Stress axis : x y z
#
# Youngs Moduli (GPa) = 124.77247 73.27984 82.12778
#
# Poissons Ratio (x) = 0.32190 -0.01886
# Poissons Ratio (y) = 0.54810 0.51571
# Poissons Ratio (z) = -0.02866 0.46015
#
# Static dielectric constant tensor:
#      x y z
#    x 1.577800 0.000000 0.000000 
#    y 0.000000 1.675130 0.000000 
#    z 0.000000 0.000000 1.610000 
# 
# From -- ./inp_files/39921.got.cif
#   From: 2010.05.17/outbox.cif.g08.bks.cpg/sg63_20_cif.got.tgz:39921.got - 2010.06.03 15:47:04.
