data_PCOD9470179
_publ_section_title
;
Structure prediction by ZEFSAII (Michael W. Deem and Ramdas Pophale) SiO2 
 PCOD9470179
Probable space group: C M C M
;
_chemical_formula_sum "Si O2"
_cell_formula_units_Z 80
_cell_length_a 7.607915
_cell_length_b 17.597674
_cell_length_c 28.057914
_cell_angle_alpha 90.000000
_cell_angle_beta 90.000000
_cell_angle_gamma 90.000000
_cell_volume 3756.438643
_symmetry_space_group_name_H-M "C M C M"
_symmetry_group_IT_number 63
_symmetry_cell_setting 'orthorhombic'
loop_
_space_group_symop_operation_xyz
x,y,z
-x,-y,1/2+z
x,-y,-z
-x,y,1/2-z
-x,-y,-z
x,y,1/2-z
-x,y,z
x,-y,1/2+z
1/2+x,1/2+y,z
1/2-x,1/2-y,1/2+z
1/2+x,1/2-y,-z
1/2-x,1/2+y,1/2-z
1/2-x,1/2-y,-z
1/2+x,1/2+y,1/2-z
1/2-x,1/2+y,z
1/2+x,1/2-y,1/2+z
loop_
_atom_site_type_symbol
_atom_site_label
_atom_site_fract_x
_atom_site_fract_y
_atom_site_fract_z
Si Si1 0.798284 0.593951 0.596536
Si Si2 0.793784 0.079385 0.098157
Si Si3 0.790749 0.661544 0.000937
Si Si4 0.205689 0.103607 0.198755
Si Si5 0.713955 0.076132 0.801405
O O1 0.796577 0.502437 0.593356
O O2 0.717490 0.625471 0.547996
O O3 0.722868 0.612365 0.648992
O O4 0.000000 0.621477 0.597356
O O5 0.777793 0.124821 0.049440
O O6 0.726163 0.122856 0.145762
O O7 0.000000 0.063587 0.106401
O O8 0.000000 0.648567 0.001677
O O9 0.750000 0.750000 0.000000
O O10 0.282777 0.129119 0.250000
O O11 0.000000 0.124874 0.199883
O O12 0.223601 0.011542 0.198769
O O13 0.765294 0.109776 0.750000
O O14 0.500000 0.074425 0.803119
#
# Coordination Sequence:
#
# PCOD9470179 Si02
#       5
#    16  16  16  16  16
#     4   9  18  32  50  73  99 126 157 194 237 284
#     4  10  19  31  51  77 101 126 159 197 236 283
#     4  11  23  37  51  67  93 129 166 205 247 291
#     4   8  14  25  42  67  98 126 151 184 228 276
#     4   8  13  23  42  68  95 120 148 185 229 277
#
# _framework density 21.296766999999999
#
# number of rings (size 3 to 8) (size 9 to 14) (size 15 to 20)
#    0.000    2.800    0.000    1.800    0.000    4.800 
#    0.000    0.000    0.000    1.200    0.000    5.600 
#    0.000    0.000    0.000    0.000    0.000    0.000 
#
# Total GULP energy -222727.832834 kJ/mol
# GULP energy per Si atom -5568.195821 kJ/mol
# Density = 2.124829 g / cm^3
# Si number density = 21.296767 Si / 1000 Ang^3
#
#
#
# Elastic Constant Matrix: (Units=GPa)
#
#
# Indices 1 2 3 4 5 6 
#
# 1 57.3062 -10.1699 1.9898 0.0000 0.0000 0.0000
# 2 -10.1699 21.7008 48.4396 0.0000 0.0000 0.0000
# 3 1.9898 48.4396 285.5280 0.0000 0.0000 0.0000
# 4 0.0000 0.0000 0.0000 -10.7285 0.0000 0.0000
# 5 0.0000 0.0000 0.0000 0.0000 14.5100 0.0000
# 6 0.0000 0.0000 0.0000 0.0000 0.0000 11.4515
#
#
#
# Elastic Compliance Matrix: (Units=1/GPa)
#
#
# Indices 1 2 3 4 5 6 
#
# 1 0.020365 0.015871 -0.002834 0.000000 0.000000 0.000000
# 2 0.015871 0.086535 -0.014791 0.000000 0.000000 0.000000
# 3 -0.002834 -0.014791 0.006031 0.000000 0.000000 0.000000
# 4 0.000000 0.000000 0.000000 -0.093210 0.000000 0.000000
# 5 0.000000 0.000000 0.000000 0.000000 0.068918 0.000000
# 6 0.000000 0.000000 0.000000 0.000000 0.000000 0.087325
#
#
# Mechanical properties :
#
#
# Convention : Reuss Voigt Hill
#
# Bulk Modulus (GPa) = 9.13897 49.45046 29.29471
# Shear Modulus (GPa) = 23.15371 24.66497 23.90934
#
# Velocity S-wave (km/s) = 3.30084 3.40686 3.35427
# Velocity P-wave (km/s) = 4.33912 6.22461 5.36534
#
# Compressibility (1/GPa) = 0.10942151
#
# Stress axis : x y z
#
# Youngs Moduli (GPa) = 49.10378 11.55602 165.80037
#
# Poissons Ratio (x) = -0.18340 0.46994
# Poissons Ratio (y) = -0.77931 2.45239
# Poissons Ratio (z) = 0.13918 0.17093
#
# Static dielectric constant tensor:
#      x y z
#    x 1.851690 0.000000 0.000000 
#    y 0.000000 1.682210 0.000000 
#    z 0.000000 0.000000 1.888870 
# 
# From -- ./inp_files/66580.got.cif
#   From: 2010.05.17/outbox.cif.g08.bks.cpg/sg63_34_cif.got.tgz:66580.got - 2010.06.03 15:47:04.
