data_PCOD9470320
_publ_section_title
;
Structure prediction by ZEFSAII (Michael W. Deem and Ramdas Pophale) SiO2 
 PCOD9470320
Probable space group: C M C M
;
_chemical_formula_sum "Si O2"
_cell_formula_units_Z 96
_cell_length_a 8.731551
_cell_length_b 28.110833
_cell_length_c 24.179548
_cell_angle_alpha 90.000000
_cell_angle_beta 90.000000
_cell_angle_gamma 90.000000
_cell_volume 5934.898395
_symmetry_space_group_name_H-M "C M C M"
_symmetry_group_IT_number 63
_symmetry_cell_setting 'orthorhombic'
loop_
_space_group_symop_operation_xyz
x,y,z
-x,-y,1/2+z
x,-y,-z
-x,y,1/2-z
-x,-y,-z
x,y,1/2-z
-x,y,z
x,-y,1/2+z
1/2+x,1/2+y,z
1/2-x,1/2-y,1/2+z
1/2+x,1/2-y,-z
1/2-x,1/2+y,1/2-z
1/2-x,1/2-y,-z
1/2+x,1/2+y,1/2-z
1/2-x,1/2+y,z
1/2+x,1/2-y,1/2+z
loop_
_atom_site_type_symbol
_atom_site_label
_atom_site_fract_x
_atom_site_fract_y
_atom_site_fract_z
Si Si1 0.816235 0.514044 0.583003
Si Si2 0.682984 0.319771 0.185838
Si Si3 0.182565 0.675380 0.022772
Si Si4 0.315963 0.923724 0.313437
Si Si5 0.317345 0.762937 0.085501
Si Si6 0.682246 0.571321 0.019908
O O1 0.774204 0.536361 0.642063
O O2 0.760803 0.550530 0.535541
O O3 0.738994 0.463972 0.568243
O O4 0.000000 0.509256 0.579687
O O5 0.724655 0.310409 0.250000
O O6 0.500000 0.317312 0.180733
O O7 0.738434 0.373362 0.173013
O O8 0.759602 0.283776 0.143164
O O9 0.237733 0.713943 0.067540
O O10 0.264939 0.625098 0.028865
O O11 0.000000 0.668946 0.025885
O O12 0.219460 0.698922 0.963061
O O13 0.276890 0.936088 0.250000
O O14 0.500000 0.917122 0.316594
O O15 0.500000 0.756557 0.085902
O O16 0.500000 0.568151 0.014278
#
# Coordination Sequence:
#
# PCOD9470320 Si02
#       6
#    16  16  16  16  16  16
#     4  10  19  32  50  71  97 128 161 197 241 289
#     4  10  20  32  48  72 101 132 163 196 237 284
#     4  10  20  34  51  72  99 128 159 197 242 291
#     4   9  18  32  50  72  97 126 160 198 239 283
#     4  10  20  33  51  74  98 127 161 198 241 286
#     4  11  21  32  48  71  99 128 161 199 238 284
#
# _framework density 16.175509000000002
#
# number of rings (size 3 to 8) (size 9 to 14) (size 15 to 20)
#    0.000    2.000    0.000    5.500    0.000    8.333 
#    0.000    0.000    0.000    1.000    0.000    2.333 
#    0.000    0.000    0.000    0.000    0.000    0.000 
#
# Total GULP energy -267968.630535 kJ/mol
# GULP energy per Si atom -5582.679803 kJ/mol
# Density = 1.613869 g / cm^3
# Si number density = 16.175509 Si / 1000 Ang^3
#
#
#
# Elastic Constant Matrix: (Units=GPa)
#
#
# Indices 1 2 3 4 5 6 
#
# 1 45.3236 31.8165 21.3782 0.0000 0.0000 0.0000
# 2 31.8165 106.0642 44.8611 0.0000 0.0000 0.0000
# 3 21.3782 44.8611 66.5520 0.0000 0.0000 0.0000
# 4 0.0000 0.0000 0.0000 23.8725 0.0000 0.0000
# 5 0.0000 0.0000 0.0000 0.0000 16.8522 0.0000
# 6 0.0000 0.0000 0.0000 0.0000 0.0000 29.6099
#
#
#
# Elastic Compliance Matrix: (Units=1/GPa)
#
#
# Indices 1 2 3 4 5 6 
#
# 1 0.029019 -0.006661 -0.004831 0.000000 0.000000 0.000000
# 2 -0.006661 0.014718 -0.007781 0.000000 0.000000 0.000000
# 3 -0.004831 -0.007781 0.021823 0.000000 0.000000 0.000000
# 4 0.000000 0.000000 0.000000 0.041889 0.000000 0.000000
# 5 0.000000 0.000000 0.000000 0.000000 0.059339 0.000000
# 6 0.000000 0.000000 0.000000 0.000000 0.000000 0.033772
#
#
# Mechanical properties :
#
#
# Convention : Reuss Voigt Hill
#
# Bulk Modulus (GPa) = 37.02098 46.00571 41.51334
# Shear Modulus (GPa) = 20.15228 22.05919 21.10573
#
# Velocity S-wave (km/s) = 3.53349 3.69689 3.61611
# Velocity P-wave (km/s) = 6.29159 6.83564 6.56925
#
# Compressibility (1/GPa) = 0.02701171
#
# Stress axis : x y z
#
# Youngs Moduli (GPa) = 34.46071 67.94621 45.82395
#
# Poissons Ratio (x) = 0.45262 0.22138
# Poissons Ratio (y) = 0.22956 0.35655
# Poissons Ratio (z) = 0.16649 0.52868
#
# Static dielectric constant tensor:
#      x y z
#    x 1.539750 0.000000 0.000000 
#    y 0.000000 1.514190 0.000000 
#    z 0.000000 0.000000 1.538700 
# 
# From -- ./inp_files/60232.got.cif
#   From: 2010.05.17/outbox.cif.g08.bks.cpg/sg63_31_cif.got.tgz:60232.got - 2010.06.03 15:47:04.
