data_PCOD9470194
_publ_section_title
;
Structure prediction by ZEFSAII (Michael W. Deem and Ramdas Pophale) SiO2 
 PCOD9470194
Probable space group: C M C M
;
_chemical_formula_sum "Si O2"
_cell_formula_units_Z 112
_cell_length_a 24.412231
_cell_length_b 5.130299
_cell_length_c 35.163329
_cell_angle_alpha 90.000000
_cell_angle_beta 90.000000
_cell_angle_gamma 90.000000
_cell_volume 4403.927208
_symmetry_space_group_name_H-M "C M C M"
_symmetry_group_IT_number 63
_symmetry_cell_setting 'orthorhombic'
loop_
_space_group_symop_operation_xyz
x,y,z
-x,-y,1/2+z
x,-y,-z
-x,y,1/2-z
-x,-y,-z
x,y,1/2-z
-x,y,z
x,-y,1/2+z
1/2+x,1/2+y,z
1/2-x,1/2-y,1/2+z
1/2+x,1/2-y,-z
1/2-x,1/2+y,1/2-z
1/2-x,1/2-y,-z
1/2+x,1/2+y,1/2-z
1/2-x,1/2+y,z
1/2+x,1/2-y,1/2+z
loop_
_atom_site_type_symbol
_atom_site_label
_atom_site_fract_x
_atom_site_fract_y
_atom_site_fract_z
Si Si1 0.781738 0.599899 0.877001
Si Si2 0.438212 0.265438 0.523320
Si Si3 0.896998 0.137247 0.709468
Si Si4 0.063156 0.032811 0.368173
Si Si5 0.067322 0.477492 0.902112
Si Si6 0.824522 0.365105 0.207849
Si Si7 0.287568 0.955671 0.541360
O O1 0.729244 0.407356 0.880599
O O2 0.797448 0.563741 0.832632
O O3 0.812123 0.507959 0.916203
O O4 0.410730 0.500000 0.500000
O O5 0.500000 0.365534 0.532026
O O6 0.416612 0.155621 0.562460
O O7 0.442995 0.000000 0.500000
O O8 0.924125 0.081812 0.750000
O O9 0.933259 0.089329 0.673087
O O10 0.873593 0.426759 0.709966
O O11 0.847130 0.929539 0.705754
O O12 0.087909 0.814893 0.396189
O O13 0.000000 0.064225 0.378490
O O14 0.085290 0.326368 0.368520
O O15 0.000000 0.446125 0.903964
O O16 0.795982 0.390616 0.250000
O O17 0.237994 0.167364 0.540249
O O18 0.317262 0.000000 0.500000
#
# Coordination Sequence:
#
# PCOD9470194 Si02
#       7
#    16  16  16  16  16  16  16
#     4  10  19  31  51  79 107 137 175 211 245 293
#     4   9  15  23  37  59  89 122 151 182 230 293
#     4  10  21  37  54  72  97 131 169 208 257 316
#     4  10  19  32  51  73  96 123 161 213 265 311
#     4   9  17  28  43  68  97 119 148 195 249 299
#     4  10  21  36  52  73 104 138 172 211 255 306
#     4   8  14  25  42  68 102 132 160 201 245 282
#
# _framework density 25.431847000000001
#
# number of rings (size 3 to 8) (size 9 to 14) (size 15 to 20)
#    0.000    2.571    0.000    2.571    0.000    4.286 
#    0.000    0.000    0.000    5.143    0.000   10.000 
#    0.000    1.143    0.000    0.000    0.000    0.000 
#
# Total GULP energy -312090.703084 kJ/mol
# GULP energy per Si atom -5573.048269 kJ/mol
# Density = 2.537396 g / cm^3
# Si number density = 25.431847 Si / 1000 Ang^3
#
#
#
# Elastic Constant Matrix: (Units=GPa)
#
#
# Indices 1 2 3 4 5 6 
#
# 1 35.5584 6.7460 21.1905 0.0000 0.0000 0.0000
# 2 6.7460 121.2063 26.2239 0.0000 0.0000 0.0000
# 3 21.1905 26.2239 189.4784 0.0000 0.0000 0.0000
# 4 0.0000 0.0000 0.0000 41.1509 0.0000 0.0000
# 5 0.0000 0.0000 0.0000 0.0000 57.5203 0.0000
# 6 0.0000 0.0000 0.0000 0.0000 0.0000 19.8285
#
#
#
# Elastic Compliance Matrix: (Units=1/GPa)
#
#
# Indices 1 2 3 4 5 6 
#
# 1 0.030244 -0.000981 -0.003247 0.000000 0.000000 0.000000
# 2 -0.000981 0.008537 -0.001072 0.000000 0.000000 0.000000
# 3 -0.003247 -0.001072 0.005789 0.000000 0.000000 0.000000
# 4 0.000000 0.000000 0.000000 0.024301 0.000000 0.000000
# 5 0.000000 0.000000 0.000000 0.000000 0.017385 0.000000
# 6 0.000000 0.000000 0.000000 0.000000 0.000000 0.050432
#
#
# Mechanical properties :
#
#
# Convention : Reuss Voigt Hill
#
# Bulk Modulus (GPa) = 29.43680 50.50709 39.97195
# Shear Modulus (GPa) = 31.52385 43.17212 37.34798
#
# Velocity S-wave (km/s) = 3.52453 4.12462 3.83633
# Velocity P-wave (km/s) = 5.30688 6.52581 5.94765
#
# Compressibility (1/GPa) = 0.03397108
#
# Stress axis : x y z
#
# Youngs Moduli (GPa) = 33.06486 117.13880 172.73934
#
# Poissons Ratio (x) = 0.11489 0.56081
# Poissons Ratio (y) = 0.03243 0.18514
# Poissons Ratio (z) = 0.10735 0.12555
#
# Static dielectric constant tensor:
#      x y z
#    x 2.060630 0.000000 0.000000 
#    y 0.000000 1.932070 0.000000 
#    z 0.000000 0.000000 2.063560 
# 
# From -- ./inp_files/74514.got.cif
#   From: 2010.05.17/outbox.cif.g08.bks.cpg/sg63_38_cif.got.tgz:74514.got - 2010.06.03 15:47:04.
