data_PCOD9470895
_publ_section_title
;
Structure prediction by ZEFSAII (Michael W. Deem and Ramdas Pophale) SiO2 
 PCOD9470895
Probable space group: C M C M
;
_chemical_formula_sum "Si O2"
_cell_formula_units_Z 80
_cell_length_a 27.444485
_cell_length_b 8.804000
_cell_length_c 15.698118
_cell_angle_alpha 90.000000
_cell_angle_beta 90.000000
_cell_angle_gamma 90.000000
_cell_volume 3792.998830
_symmetry_space_group_name_H-M "C M C M"
_symmetry_group_IT_number 63
_symmetry_cell_setting 'orthorhombic'
loop_
_space_group_symop_operation_xyz
x,y,z
-x,-y,1/2+z
x,-y,-z
-x,y,1/2-z
-x,-y,-z
x,y,1/2-z
-x,y,z
x,-y,1/2+z
1/2+x,1/2+y,z
1/2-x,1/2-y,1/2+z
1/2+x,1/2-y,-z
1/2-x,1/2+y,1/2-z
1/2-x,1/2-y,-z
1/2+x,1/2+y,1/2-z
1/2-x,1/2+y,z
1/2+x,1/2-y,1/2+z
loop_
_atom_site_type_symbol
_atom_site_label
_atom_site_fract_x
_atom_site_fract_y
_atom_site_fract_z
Si Si1 0.597887 0.936278 0.903988
Si Si2 0.093057 0.107247 0.654128
Si Si3 0.000000 0.930407 0.905951
Si Si4 0.295699 0.928294 0.904647
Si Si5 0.302202 0.434784 0.404652
Si Si6 0.000000 0.569571 0.596399
O O1 0.590032 0.754779 0.906236
O O2 0.651425 0.966213 0.865160
O O3 0.550144 0.009993 0.862975
O O4 0.600624 0.000000 0.000000
O O5 0.089696 0.167106 0.750000
O O6 0.146404 0.036324 0.640801
O O7 0.048868 0.994073 0.637577
O O8 0.000000 0.749785 0.907704
O O9 0.000000 0.000000 0.000000
O O10 0.293986 0.746185 0.909394
O O11 0.246046 0.990789 0.864402
O O12 0.295612 0.000000 0.000000
O O13 0.307491 0.500000 0.500000
O O14 0.000000 0.500000 0.500000
#
# Coordination Sequence:
#
# PCOD9470895 Si02
#       6
#    16  16   8  16  16   8
#     4   9  18  36  60  87 118 157 204 249 298 361
#     4  11  24  41  59  87 127 164 196 249 315 365
#     4  12  23  38  65  93 116 154 203 246 292 360
#     4   9  17  29  53  85 113 145 195 253 297 341
#     4  10  19  33  56  83 112 153 201 248 297 358
#     4  10  20  34  59  91 115 140 190 248 292 340
#
# _framework density 21.09149
#
# number of rings (size 3 to 8) (size 9 to 14) (size 15 to 20)
#    0.000    2.000    0.000    6.300    0.000    6.400 
#    0.000    6.000    0.000    0.000    0.000    0.000 
#    0.000    0.000    0.000    0.000    0.000    0.000 
#
# Total GULP energy -223208.038927 kJ/mol
# GULP energy per Si atom -5580.200973 kJ/mol
# Density = 2.104348 g / cm^3
# Si number density = 21.091490 Si / 1000 Ang^3
#
#
#
# Elastic Constant Matrix: (Units=GPa)
#
#
# Indices 1 2 3 4 5 6 
#
# 1 240.7680 97.1057 17.5236 0.0000 0.0000 0.0000
# 2 97.1057 113.9927 11.6732 0.0000 0.0000 0.0000
# 3 17.5236 11.6732 38.9183 0.0000 0.0000 0.0000
# 4 0.0000 0.0000 0.0000 4.6542 0.0000 0.0000
# 5 0.0000 0.0000 0.0000 0.0000 243.9816 0.0000
# 6 0.0000 0.0000 0.0000 0.0000 0.0000 33.7032
#
#
#
# Elastic Compliance Matrix: (Units=1/GPa)
#
#
# Indices 1 2 3 4 5 6 
#
# 1 0.006389 -0.005311 -0.001284 0.000000 0.000000 0.000000
# 2 -0.005311 0.013465 -0.001648 0.000000 0.000000 0.000000
# 3 -0.001284 -0.001648 0.026767 0.000000 0.000000 0.000000
# 4 0.000000 0.000000 0.000000 0.214859 0.000000 0.000000
# 5 0.000000 0.000000 0.000000 0.000000 0.004099 0.000000
# 6 0.000000 0.000000 0.000000 0.000000 0.000000 0.029671
#
#
# Mechanical properties :
#
#
# Convention : Reuss Voigt Hill
#
# Bulk Modulus (GPa) = 33.18183 71.80932 52.49558
# Shear Modulus (GPa) = 15.53860 74.29291 44.91575
#
# Velocity S-wave (km/s) = 2.71721 5.94143 4.61973
# Velocity P-wave (km/s) = 5.06071 9.01044 7.30749
#
# Compressibility (1/GPa) = 0.03013697
#
# Stress axis : x y z
#
# Youngs Moduli (GPa) = 156.52476 74.26494 37.35939
#
# Poissons Ratio (x) = 0.39441 0.04796
# Poissons Ratio (y) = 0.83128 0.06155
# Poissons Ratio (z) = 0.20093 0.12235
#
# Static dielectric constant tensor:
#      x y z
#    x 1.850260 0.000000 0.000000 
#    y 0.000000 1.715720 0.000000 
#    z 0.000000 0.000000 1.735520 
# 
# From -- ./inp_files/49452.got.cif
#   From: 2010.05.17/outbox.cif.g08.bks.cpg/sg63_25_cif.got.tgz:49452.got - 2010.06.03 15:47:04.
