data_PCOD9470016
_publ_section_title
;
Structure prediction by ZEFSAII (Michael W. Deem and Ramdas Pophale) SiO2 
 PCOD9470016
Probable space group: C M C M
;
_chemical_formula_sum "Si O2"
_cell_formula_units_Z 96
_cell_length_a 26.059145
_cell_length_b 25.892297
_cell_length_c 8.767486
_cell_angle_alpha 90.000000
_cell_angle_beta 90.000000
_cell_angle_gamma 90.000000
_cell_volume 5915.695665
_symmetry_space_group_name_H-M "C M C M"
_symmetry_group_IT_number 63
_symmetry_cell_setting 'orthorhombic'
loop_
_space_group_symop_operation_xyz
x,y,z
-x,-y,1/2+z
x,-y,-z
-x,y,1/2-z
-x,-y,-z
x,y,1/2-z
-x,y,z
x,-y,1/2+z
1/2+x,1/2+y,z
1/2-x,1/2-y,1/2+z
1/2+x,1/2-y,-z
1/2-x,1/2+y,1/2-z
1/2-x,1/2-y,-z
1/2+x,1/2+y,1/2-z
1/2-x,1/2+y,z
1/2+x,1/2-y,1/2+z
loop_
_atom_site_type_symbol
_atom_site_label
_atom_site_fract_x
_atom_site_fract_y
_atom_site_fract_z
Si Si1 0.672366 0.755885 0.932976
Si Si2 0.745907 0.334553 0.431398
Si Si3 0.124497 0.049417 0.572780
Si Si4 0.263242 0.554020 0.069365
Si Si5 0.443482 0.258152 0.431740
Si Si6 0.058559 0.130537 0.422348
O O1 0.680330 0.761226 0.750000
O O2 0.693756 0.698004 0.972968
O O3 0.612280 0.766175 0.965003
O O4 0.708500 0.796110 0.019900
O O5 0.744372 0.342298 0.250000
O O6 0.754607 0.390220 0.507833
O O7 0.135429 0.041676 0.750000
O O8 0.177213 0.054249 0.480654
O O9 0.091777 0.099778 0.542865
O O10 0.096544 0.000000 0.500000
O O11 0.257743 0.552008 0.250000
O O12 0.241673 0.500000 0.000000
O O13 0.442192 0.270242 0.250000
O O14 0.500000 0.232773 0.459103
O O15 0.442884 0.310054 0.530163
O O16 0.078600 0.123857 0.250000
O O17 0.000000 0.111529 0.425732
#
# Coordination Sequence:
#
# PCOD9470016 Si02
#       6
#    16  16  16  16  16  16
#     4   9  18  31  47  69  97 128 161 198 240 285
#     4  10  19  31  48  71  98 128 162 198 238 284
#     4  11  21  33  47  62  82 110 147 189 233 278
#     4  11  21  34  51  70  94 122 154 191 233 281
#     4   9  17  30  48  68  91 121 156 193 233 278
#     4  10  20  32  45  62  84 112 149 191 234 278
#
# _framework density 16.228014999999999
#
# number of rings (size 3 to 8) (size 9 to 14) (size 15 to 20)
#    0.000    2.000    0.000    6.000    0.000    4.000 
#    0.000    0.000    0.000    0.000    0.000    0.000 
#    0.000    0.667    0.000    1.833    0.000    2.667 
#
# Total GULP energy -267370.599996 kJ/mol
# GULP energy per Si atom -5570.220833 kJ/mol
# Density = 1.619108 g / cm^3
# Si number density = 16.228015 Si / 1000 Ang^3
#
#
#
# Elastic Constant Matrix: (Units=GPa)
#
#
# Indices 1 2 3 4 5 6 
#
# 1 69.2317 16.9221 20.1088 0.0000 0.0000 0.0000
# 2 16.9221 82.8824 39.4322 0.0000 0.0000 0.0000
# 3 20.1088 39.4322 74.5524 0.0000 0.0000 0.0000
# 4 0.0000 0.0000 0.0000 21.7827 0.0000 0.0000
# 5 0.0000 0.0000 0.0000 0.0000 11.3779 0.0000
# 6 0.0000 0.0000 0.0000 0.0000 0.0000 14.3256
#
#
#
# Elastic Compliance Matrix: (Units=1/GPa)
#
#
# Indices 1 2 3 4 5 6 
#
# 1 0.015830 -0.001604 -0.003421 0.000000 0.000000 0.000000
# 2 -0.001604 0.016285 -0.008181 0.000000 0.000000 0.000000
# 3 -0.003421 -0.008181 0.018663 0.000000 0.000000 0.000000
# 4 0.000000 0.000000 0.000000 0.045908 0.000000 0.000000
# 5 0.000000 0.000000 0.000000 0.000000 0.087890 0.000000
# 6 0.000000 0.000000 0.000000 0.000000 0.000000 0.069805
#
#
# Mechanical properties :
#
#
# Convention : Reuss Voigt Hill
#
# Bulk Modulus (GPa) = 41.04145 42.17697 41.60921
# Shear Modulus (GPa) = 17.30609 19.51079 18.40844
#
# Velocity S-wave (km/s) = 3.26917 3.47117 3.37168
# Velocity P-wave (km/s) = 6.29249 6.48937 6.39169
#
# Compressibility (1/GPa) = 0.02436561
#
# Stress axis : x y z
#
# Youngs Moduli (GPa) = 63.17071 61.40663 53.58166
#
# Poissons Ratio (x) = 0.09852 0.18332
# Poissons Ratio (y) = 0.10135 0.43833
# Poissons Ratio (z) = 0.21612 0.50235
#
# Static dielectric constant tensor:
#      x y z
#    x 1.570240 0.000000 0.000000 
#    y 0.000000 1.594910 0.000000 
#    z 0.000000 0.000000 1.529390 
# 
# From -- ./inp_files/12368.got.cif
#   From: 2010.05.17/outbox.cif.g08.bks.cpg/sg63_7_cif.got.tgz:12368.got - 2010.06.03 15:47:04.
