data_PCOD9470286
_publ_section_title
;
Structure prediction by ZEFSAII (Michael W. Deem and Ramdas Pophale) SiO2 
 PCOD9470286
Probable space group: C M C M
;
_chemical_formula_sum "Si O2"
_cell_formula_units_Z 64
_cell_length_a 19.374317
_cell_length_b 13.810141
_cell_length_c 13.846340
_cell_angle_alpha 90.000000
_cell_angle_beta 90.000000
_cell_angle_gamma 90.000000
_cell_volume 3704.755109
_symmetry_space_group_name_H-M "C M C M"
_symmetry_group_IT_number 63
_symmetry_cell_setting 'orthorhombic'
loop_
_space_group_symop_operation_xyz
x,y,z
-x,-y,1/2+z
x,-y,-z
-x,y,1/2-z
-x,-y,-z
x,y,1/2-z
-x,y,z
x,-y,1/2+z
1/2+x,1/2+y,z
1/2-x,1/2-y,1/2+z
1/2+x,1/2-y,-z
1/2-x,1/2+y,1/2-z
1/2-x,1/2-y,-z
1/2+x,1/2+y,1/2-z
1/2-x,1/2+y,z
1/2+x,1/2-y,1/2+z
loop_
_atom_site_type_symbol
_atom_site_label
_atom_site_fract_x
_atom_site_fract_y
_atom_site_fract_z
Si Si1 0.647277 0.010760 0.864389
Si Si2 0.647959 0.224208 0.552472
Si Si3 0.000000 0.513654 0.359100
Si Si4 0.500000 0.221396 0.862640
Si Si5 0.281505 0.815707 0.638947
O O1 0.637390 0.033009 0.750000
O O2 0.659225 0.111476 0.917240
O O3 0.575020 0.961134 0.899499
O O4 0.706081 0.930821 0.872007
O O5 0.570233 0.249890 0.582968
O O6 0.668490 0.233438 0.440248
O O7 0.704285 0.284917 0.612129
O O8 0.000000 0.396522 0.360559
O O9 0.000000 0.551600 0.250000
O O10 0.500000 0.252101 0.750000
O O11 0.297435 0.790728 0.750000
#
# Coordination Sequence:
#
# PCOD9470286 Si02
#       5
#    16  16   8   8  16
#     4   9  16  28  47  70  96 123 151 187 231 279
#     4  10  19  32  49  70  96 124 157 195 235 276
#     4   7  12  23  41  66  93 119 144 175 221 274
#     4   9  16  29  50  70  90 121 157 193 232 272
#     4  10  20  31  45  69  98 127 157 189 233 285
#
# _framework density 17.275096000000001
#
# number of rings (size 3 to 8) (size 9 to 14) (size 15 to 20)
#    0.000    2.750    0.000    4.500    0.000    1.000 
#    0.000    5.625    0.000    0.000    0.000   15.750 
#    0.000   18.000    0.000    0.000    0.000    0.000 
#
# Total GULP energy -178264.816282 kJ/mol
# GULP energy per Si atom -5570.775509 kJ/mol
# Density = 1.723578 g / cm^3
# Si number density = 17.275096 Si / 1000 Ang^3
#
#
#
# Elastic Constant Matrix: (Units=GPa)
#
#
# Indices 1 2 3 4 5 6 
#
# 1 156.2115 48.4127 57.5616 0.0000 0.0000 0.0000
# 2 48.4127 41.8695 12.9239 0.0000 0.0000 0.0000
# 3 57.5616 12.9239 145.3708 0.0000 0.0000 0.0000
# 4 0.0000 0.0000 0.0000 17.1115 0.0000 0.0000
# 5 0.0000 0.0000 0.0000 0.0000 19.0768 0.0000
# 6 0.0000 0.0000 0.0000 0.0000 0.0000 24.4944
#
#
#
# Elastic Compliance Matrix: (Units=1/GPa)
#
#
# Indices 1 2 3 4 5 6 
#
# 1 0.011443 -0.012167 -0.003450 0.000000 0.000000 0.000000
# 2 -0.012167 0.037494 0.001484 0.000000 0.000000 0.000000
# 3 -0.003450 0.001484 0.008113 0.000000 0.000000 0.000000
# 4 0.000000 0.000000 0.000000 0.058440 0.000000 0.000000
# 5 0.000000 0.000000 0.000000 0.000000 0.052420 0.000000
# 6 0.000000 0.000000 0.000000 0.000000 0.000000 0.040826
#
#
# Mechanical properties :
#
#
# Convention : Reuss Voigt Hill
#
# Bulk Modulus (GPa) = 34.73908 64.58312 49.66110
# Shear Modulus (GPa) = 20.27612 27.10679 23.69146
#
# Velocity S-wave (km/s) = 3.42968 3.96552 3.70729
# Velocity P-wave (km/s) = 5.98637 7.64417 6.86549
#
# Compressibility (1/GPa) = 0.02878602
#
# Stress axis : x y z
#
# Youngs Moduli (GPa) = 87.38622 26.67093 123.26083
#
# Poissons Ratio (x) = 0.32451 0.42519
# Poissons Ratio (y) = 1.06323 -0.18297
# Poissons Ratio (z) = 0.30144 -0.03959
#
# Static dielectric constant tensor:
#      x y z
#    x 1.615400 0.000000 0.000000 
#    y 0.000000 1.559040 0.000000 
#    z 0.000000 0.000000 1.665830 
# 
# From -- ./inp_files/33586.got.cif
#   From: 2010.05.17/outbox.cif.g08.bks.cpg/sg63_17_cif.got.tgz:33586.got - 2010.06.03 15:47:04.
