data_PCOD9470409
_publ_section_title
;
Structure prediction by ZEFSAII (Michael W. Deem and Ramdas Pophale) SiO2 
 PCOD9470409
Probable space group: C M C M
;
_chemical_formula_sum "Si O2"
_cell_formula_units_Z 112
_cell_length_a 27.301415
_cell_length_b 13.775392
_cell_length_c 15.169022
_cell_angle_alpha 90.000000
_cell_angle_beta 90.000000
_cell_angle_gamma 90.000000
_cell_volume 5704.882501
_symmetry_space_group_name_H-M "C M C M"
_symmetry_group_IT_number 63
_symmetry_cell_setting 'orthorhombic'
loop_
_space_group_symop_operation_xyz
x,y,z
-x,-y,1/2+z
x,-y,-z
-x,y,1/2-z
-x,-y,-z
x,y,1/2-z
-x,y,z
x,-y,1/2+z
1/2+x,1/2+y,z
1/2-x,1/2-y,1/2+z
1/2+x,1/2-y,-z
1/2-x,1/2+y,1/2-z
1/2-x,1/2-y,-z
1/2+x,1/2+y,1/2-z
1/2-x,1/2+y,z
1/2+x,1/2-y,1/2+z
loop_
_atom_site_type_symbol
_atom_site_label
_atom_site_fract_x
_atom_site_fract_y
_atom_site_fract_z
Si Si1 0.834238 0.048936 0.850513
Si Si2 0.586663 0.387380 0.477873
Si Si3 0.125369 0.840813 0.847037
Si Si4 0.055146 0.722108 0.352492
Si Si5 0.295973 0.779560 0.061667
Si Si6 0.274050 0.020208 0.852536
Si Si7 0.364048 0.909263 0.943832
O O1 0.829186 0.092064 0.750000
O O2 0.859725 0.108605 0.928916
O O3 0.781994 0.007719 0.881336
O O4 0.868905 0.956310 0.840438
O O5 0.572294 0.500000 0.500000
O O6 0.589123 0.330092 0.570521
O O7 0.557513 0.321517 0.408997
O O8 0.112413 0.801846 0.750000
O O9 0.177901 0.800489 0.878470
O O10 0.064635 0.744973 0.250000
O O11 0.095398 0.644714 0.385721
O O12 0.000000 0.682255 0.360380
O O13 0.281312 0.866822 0.126292
O O14 0.250000 0.750000 0.000000
O O15 0.338964 0.827030 0.003336
O O16 0.276083 0.999261 0.750000
O O17 0.316719 0.957761 0.896507
O O18 0.385168 0.000000 0.000000
#
# Coordination Sequence:
#
# PCOD9470409 Si02
#       7
#    16  16  16  16  16  16  16
#     4   9  18  32  51  81 120 159 198 241 296 371
#     4  10  20  37  62  88 122 161 201 256 322 387
#     4  10  19  32  51  76 110 153 196 239 294 365
#     4  11  24  43  68  97 124 161 218 275 326 381
#     4  11  20  32  52  81 116 157 204 245 299 366
#     4  10  20  33  50  80 120 159 201 249 302 365
#     4  10  22  39  60  88 121 168 208 263 318 372
#
# _framework density 19.632304999999999
#
# number of rings (size 3 to 8) (size 9 to 14) (size 15 to 20)
#    0.000    1.857    1.429    3.000    0.000    5.143 
#    0.000    1.429    0.000    0.429    0.000    0.000 
#    0.000    0.000    0.000    0.000    0.000    0.000 
#
# Total GULP energy -311826.514093 kJ/mol
# GULP energy per Si atom -5568.330609 kJ/mol
# Density = 1.958762 g / cm^3
# Si number density = 19.632305 Si / 1000 Ang^3
#
#
#
# Elastic Constant Matrix: (Units=GPa)
#
#
# Indices 1 2 3 4 5 6 
#
# 1 69.1654 18.6343 36.3535 0.0000 0.0000 0.0000
# 2 18.6343 67.3314 27.2788 0.0000 0.0000 0.0000
# 3 36.3535 27.2788 112.9955 0.0000 0.0000 0.0000
# 4 0.0000 0.0000 0.0000 25.1052 0.0000 0.0000
# 5 0.0000 0.0000 0.0000 0.0000 -4.8452 0.0000
# 6 0.0000 0.0000 0.0000 0.0000 0.0000 18.7084
#
#
#
# Elastic Compliance Matrix: (Units=1/GPa)
#
#
# Indices 1 2 3 4 5 6 
#
# 1 0.017899 -0.002905 -0.005057 0.000000 0.000000 0.000000
# 2 -0.002905 0.016933 -0.003153 0.000000 0.000000 0.000000
# 3 -0.005057 -0.003153 0.011238 0.000000 0.000000 0.000000
# 4 0.000000 0.000000 0.000000 0.039832 0.000000 0.000000
# 5 0.000000 0.000000 0.000000 0.000000 -0.206390 0.000000
# 6 0.000000 0.000000 0.000000 0.000000 0.000000 0.053452
#
#
# Mechanical properties :
#
#
# Convention : Reuss Voigt Hill
#
# Bulk Modulus (GPa) = 41.94694 46.00283 43.97488
# Shear Modulus (GPa) = -135.65599 18.94206 -58.35696
#
# Velocity S-wave (km/s) = -8.32156 3.10956 -5.45798
# Velocity P-wave (km/s) = 8.42131 6.03122 4.15589
#
# Compressibility (1/GPa) = 0.02383964
#
# Stress axis : x y z
#
# Youngs Moduli (GPa) = 55.86981 59.05488 88.98175
#
# Poissons Ratio (x) = 0.17153 0.45000
# Poissons Ratio (y) = 0.16228 0.28060
# Poissons Ratio (z) = 0.28255 0.18623
#
# Static dielectric constant tensor:
#      x y z
#    x 1.696840 0.000000 0.000000 
#    y 0.000000 1.706110 0.000000 
#    z 0.000000 0.000000 1.773250 
# 
# From -- ./inp_files/37962.got.cif
#   From: 2010.05.17/outbox.cif.g08.bks.cpg/sg63_19_cif.got.tgz:37962.got - 2010.06.03 15:47:04.
