data_PCOD9470331
_publ_section_title
;
Structure prediction by ZEFSAII (Michael W. Deem and Ramdas Pophale) SiO2 
 PCOD9470331
Probable space group: C M C M
;
_chemical_formula_sum "Si O2"
_cell_formula_units_Z 96
_cell_length_a 7.472752
_cell_length_b 25.477299
_cell_length_c 22.329925
_cell_angle_alpha 90.000000
_cell_angle_beta 90.000000
_cell_angle_gamma 90.000000
_cell_volume 4251.294764
_symmetry_space_group_name_H-M "C M C M"
_symmetry_group_IT_number 63
_symmetry_cell_setting 'orthorhombic'
loop_
_space_group_symop_operation_xyz
x,y,z
-x,-y,1/2+z
x,-y,-z
-x,y,1/2-z
-x,-y,-z
x,y,1/2-z
-x,y,z
x,-y,1/2+z
1/2+x,1/2+y,z
1/2-x,1/2-y,1/2+z
1/2+x,1/2-y,-z
1/2-x,1/2+y,1/2-z
1/2-x,1/2-y,-z
1/2+x,1/2+y,1/2-z
1/2-x,1/2+y,z
1/2+x,1/2-y,1/2+z
loop_
_atom_site_type_symbol
_atom_site_label
_atom_site_fract_x
_atom_site_fract_y
_atom_site_fract_z
Si Si1 0.780957 0.317154 0.683471
Si Si2 0.289915 0.370030 0.420535
Si Si3 0.715902 0.049776 0.815254
Si Si4 0.794823 0.566553 0.338618
Si Si5 0.214588 0.754237 0.428144
Si Si6 0.282532 0.442760 0.975446
O O1 0.732826 0.295425 0.750000
O O2 0.718122 0.377771 0.681259
O O3 0.720261 0.286978 0.622804
O O4 0.000000 0.317775 0.681506
O O5 0.500000 0.362545 0.432122
O O6 0.274012 0.411247 0.366997
O O7 0.217689 0.312146 0.409543
O O8 0.216525 0.398385 0.479303
O O9 0.767092 0.070142 0.750000
O O10 0.500000 0.047183 0.818872
O O11 0.784450 0.989987 0.821332
O O12 0.790713 0.566450 0.410122
O O13 0.000000 0.565840 0.317347
O O14 0.250000 0.750000 0.500000
O O15 0.000000 0.751538 0.423147
O O16 0.500000 0.441834 0.972606
O O17 0.231621 0.500000 0.000000
#
# Coordination Sequence:
#
# PCOD9470331 Si02
#       6
#    16  16  16  16  16  16
#     4   9  18  34  56  81 108 141 183 229 276 326
#     4  10  21  36  53  77 106 139 177 215 261 318
#     4  10  21  35  51  75 106 138 172 214 264 314
#     4  10  19  32  54  80 105 135 175 221 266 318
#     4  10  21  37  59  84 110 142 182 229 277 324
#     4  10  19  32  50  73 107 143 171 208 263 322
#
# _framework density 22.581356
#
# number of rings (size 3 to 8) (size 9 to 14) (size 15 to 20)
#    0.000    2.167    1.667    1.500    0.000    4.667 
#    0.000    1.667    0.000    3.000    0.000    0.000 
#    0.000    0.000    0.000    0.000    0.000    0.000 
#
# Total GULP energy -267935.177032 kJ/mol
# GULP energy per Si atom -5581.982855 kJ/mol
# Density = 2.252996 g / cm^3
# Si number density = 22.581356 Si / 1000 Ang^3
#
#
#
# Elastic Constant Matrix: (Units=GPa)
#
#
# Indices 1 2 3 4 5 6 
#
# 1 62.7606 3.7913 -6.9575 0.0000 0.0000 0.0000
# 2 3.7913 136.3289 61.2116 0.0000 0.0000 0.0000
# 3 -6.9575 61.2116 179.3447 0.0000 0.0000 0.0000
# 4 0.0000 0.0000 0.0000 4.6338 0.0000 0.0000
# 5 0.0000 0.0000 0.0000 0.0000 15.1325 0.0000
# 6 0.0000 0.0000 0.0000 0.0000 0.0000 2.8630
#
#
#
# Elastic Compliance Matrix: (Units=1/GPa)
#
#
# Indices 1 2 3 4 5 6 
#
# 1 0.016087 -0.000859 0.000917 0.000000 0.000000 0.000000
# 2 -0.000859 0.008709 -0.003006 0.000000 0.000000 0.000000
# 3 0.000917 -0.003006 0.006637 0.000000 0.000000 0.000000
# 4 0.000000 0.000000 0.000000 0.215806 0.000000 0.000000
# 5 0.000000 0.000000 0.000000 0.000000 0.066083 0.000000
# 6 0.000000 0.000000 0.000000 0.000000 0.000000 0.349290
#
#
# Mechanical properties :
#
#
# Convention : Reuss Voigt Hill
#
# Bulk Modulus (GPa) = 39.15741 54.94723 47.05232
# Shear Modulus (GPa) = 7.38532 25.88511 16.63521
#
# Velocity S-wave (km/s) = 1.81042 3.38938 2.71713
# Velocity P-wave (km/s) = 4.66352 6.30104 5.54308
#
# Compressibility (1/GPa) = 0.02553795
#
# Stress axis : x y z
#
# Youngs Moduli (GPa) = 62.16136 114.82855 150.66387
#
# Poissons Ratio (x) = 0.09867 -0.13821
# Poissons Ratio (y) = 0.05341 0.45284
# Poissons Ratio (z) = -0.05702 0.34513
#
# Static dielectric constant tensor:
#      x y z
#    x 4.380010 0.000000 0.000000 
#    y 0.000000 1.843180 0.000000 
#    z 0.000000 0.000000 1.817200 
# 
# From -- ./inp_files/51276.got.cif
#   From: 2010.05.17/outbox.cif.g08.bks.cpg/sg63_26_cif.got.tgz:51276.got - 2010.06.03 15:47:04.
