data_PCOD9470904
_publ_section_title
;
Structure prediction by ZEFSAII (Michael W. Deem and Ramdas Pophale) SiO2 
 PCOD9470904
Probable space group: C M C M
;
_chemical_formula_sum "Si O2"
_cell_formula_units_Z 112
_cell_length_a 14.189441
_cell_length_b 26.113626
_cell_length_c 14.230118
_cell_angle_alpha 90.000000
_cell_angle_beta 90.000000
_cell_angle_gamma 90.000000
_cell_volume 5272.795983
_symmetry_space_group_name_H-M "C M C M"
_symmetry_group_IT_number 63
_symmetry_cell_setting 'orthorhombic'
loop_
_space_group_symop_operation_xyz
x,y,z
-x,-y,1/2+z
x,-y,-z
-x,y,1/2-z
-x,-y,-z
x,y,1/2-z
-x,y,z
x,-y,1/2+z
1/2+x,1/2+y,z
1/2-x,1/2-y,1/2+z
1/2+x,1/2-y,-z
1/2-x,1/2+y,1/2-z
1/2-x,1/2-y,-z
1/2+x,1/2+y,1/2-z
1/2-x,1/2+y,z
1/2+x,1/2-y,1/2+z
loop_
_atom_site_type_symbol
_atom_site_label
_atom_site_fract_x
_atom_site_fract_y
_atom_site_fract_z
Si Si1 0.708055 0.708437 0.362179
Si Si2 0.105864 0.690375 0.639924
Si Si3 0.893853 0.417354 0.031722
Si Si4 0.612798 0.537852 0.353696
Si Si5 0.608031 0.854671 0.640619
Si Si6 0.387669 0.627503 0.003688
Si Si7 0.218302 0.067368 0.859822
O O1 0.685439 0.700222 0.250000
O O2 0.683952 0.767354 0.382338
O O3 0.815021 0.689383 0.376603
O O4 0.645420 0.674682 0.432644
O O5 0.114187 0.676891 0.750000
O O6 0.110138 0.639048 0.579973
O O7 0.000000 0.712867 0.627046
O O8 0.813710 0.447286 0.085803
O O9 0.000000 0.437412 0.041501
O O10 0.872313 0.403885 0.923968
O O11 0.645838 0.555267 0.250000
O O12 0.500000 0.536271 0.352562
O O13 0.638375 0.578021 0.433000
O O14 0.649392 0.480913 0.369179
O O15 0.613303 0.867920 0.750000
O O16 0.500000 0.838528 0.619402
O O17 0.500000 0.629011 0.987586
O O18 0.329837 0.616630 0.908756
O O19 0.236135 0.076405 0.750000
#
# Coordination Sequence:
#
# PCOD9470904 Si02
#       7
#    16  16  16  16  16  16  16
#     4  10  19  33  56  85 113 142 182 233 279 321
#     4   9  18  32  52  81 113 144 181 227 274 319
#     4  10  20  37  60  81 105 146 193 230 271 324
#     4   9  19  36  59  85 113 145 180 221 273 334
#     4   9  18  34  55  79 108 142 182 228 278 330
#     4  11  21  35  56  83 113 147 184 223 274 335
#     4  11  22  36  54  79 109 145 188 230 270 318
#
# _framework density 21.241101
#
# number of rings (size 3 to 8) (size 9 to 14) (size 15 to 20)
#    0.000    2.143    1.429    2.143    0.000    4.857 
#    0.000    0.000    0.000    3.429    0.000    6.000 
#    0.000    0.000    0.000    0.000    0.000    0.000 
#
# Total GULP energy -312871.792877 kJ/mol
# GULP energy per Si atom -5586.996301 kJ/mol
# Density = 2.119276 g / cm^3
# Si number density = 21.241101 Si / 1000 Ang^3
#
#
#
# Elastic Constant Matrix: (Units=GPa)
#
#
# Indices 1 2 3 4 5 6 
#
# 1 65.9042 -11.3654 18.3215 0.0000 0.0000 0.0000
# 2 -11.3654 24.9115 7.5393 0.0000 0.0000 0.0000
# 3 18.3215 7.5393 71.9013 0.0000 0.0000 0.0000
# 4 0.0000 0.0000 0.0000 13.8291 0.0000 0.0000
# 5 0.0000 0.0000 0.0000 0.0000 28.0329 0.0000
# 6 0.0000 0.0000 0.0000 0.0000 0.0000 6.3488
#
#
#
# Elastic Compliance Matrix: (Units=1/GPa)
#
#
# Indices 1 2 3 4 5 6 
#
# 1 0.018547 0.010216 -0.005797 0.000000 0.000000 0.000000
# 2 0.010216 0.047085 -0.007540 0.000000 0.000000 0.000000
# 3 -0.005797 -0.007540 0.016176 0.000000 0.000000 0.000000
# 4 0.000000 0.000000 0.000000 0.072312 0.000000 0.000000
# 5 0.000000 0.000000 0.000000 0.000000 0.035672 0.000000
# 6 0.000000 0.000000 0.000000 0.000000 0.000000 0.157510
#
#
# Mechanical properties :
#
#
# Convention : Reuss Voigt Hill
#
# Bulk Modulus (GPa) = 13.23363 21.30088 17.26725
# Shear Modulus (GPa) = 13.20190 19.52359 16.36274
#
# Velocity S-wave (km/s) = 2.49575 3.03502 2.77850
# Velocity P-wave (km/s) = 3.81428 4.72565 4.29421
#
# Compressibility (1/GPa) = 0.07556508
#
# Stress axis : x y z
#
# Youngs Moduli (GPa) = 53.91693 21.23811 61.82046
#
# Poissons Ratio (x) = -0.21697 0.35839
# Poissons Ratio (y) = -0.55083 0.46616
# Poissons Ratio (z) = 0.31257 0.16015
#
# Static dielectric constant tensor:
#      x y z
#    x 1.786830 0.000000 0.000000 
#    y 0.000000 1.738450 0.000000 
#    z 0.000000 0.000000 1.828870 
# 
# From -- ./inp_files/32301.got.cif
#   From: 2010.05.17/outbox.cif.g08.bks.cpg/sg63_17_cif.got.tgz:32301.got - 2010.06.03 15:47:04.
