data_PCOD9470870
_publ_section_title
;
Structure prediction by ZEFSAII (Michael W. Deem and Ramdas Pophale) SiO2 
 PCOD9470870
Probable space group: C M C M
;
_chemical_formula_sum "Si O2"
_cell_formula_units_Z 80
_cell_length_a 23.454839
_cell_length_b 25.648081
_cell_length_c 7.826212
_cell_angle_alpha 90.000000
_cell_angle_beta 90.000000
_cell_angle_gamma 90.000000
_cell_volume 4708.026957
_symmetry_space_group_name_H-M "C M C M"
_symmetry_group_IT_number 63
_symmetry_cell_setting 'orthorhombic'
loop_
_space_group_symop_operation_xyz
x,y,z
-x,-y,1/2+z
x,-y,-z
-x,y,1/2-z
-x,-y,-z
x,y,1/2-z
-x,y,z
x,-y,1/2+z
1/2+x,1/2+y,z
1/2-x,1/2-y,1/2+z
1/2+x,1/2-y,-z
1/2-x,1/2+y,1/2-z
1/2-x,1/2-y,-z
1/2+x,1/2+y,1/2-z
1/2-x,1/2+y,z
1/2+x,1/2-y,1/2+z
loop_
_atom_site_type_symbol
_atom_site_label
_atom_site_fract_x
_atom_site_fract_y
_atom_site_fract_z
Si Si1 0.744279 0.170610 0.454794
Si Si2 0.653518 0.743666 0.447477
Si Si3 0.063715 0.881092 0.250000
Si Si4 0.110728 0.943064 0.940470
Si Si5 0.065539 0.757180 0.250000
Si Si6 0.738574 0.554690 0.548575
O O1 0.739317 0.175838 0.250000
O O2 0.698347 0.208648 0.540076
O O3 0.807468 0.193242 0.498909
O O4 0.734832 0.110734 0.506236
O O5 0.634991 0.737057 0.250000
O O6 0.602970 0.754889 0.580852
O O7 0.093278 0.901665 0.419557
O O8 0.061712 0.819521 0.250000
O O9 0.000000 0.902854 0.250000
O O10 0.091000 0.931076 0.750000
O O11 0.179248 0.945732 0.945577
O O12 0.089900 0.000000 0.000000
O O13 0.000000 0.736815 0.250000
O O14 0.768822 0.500000 0.500000
O O15 0.726098 0.553443 0.750000
#
# Coordination Sequence:
#
# PCOD9470870 Si02
#       6
#    16  16   8  16   8  16
#     4  10  19  33  55  84 112 141 179 224 272 324
#     4  10  21  36  57  83 107 141 184 226 274 322
#     4  11  24  38  52  71  92 128 176 226 276 312
#     4  11  20  36  52  70  96 132 177 218 265 319
#     4  11  24  40  56  75 108 144 179 226 274 326
#     4  11  20  31  49  75 109 144 172 204 258 324
#
# _framework density 16.992256000000001
#
# number of rings (size 3 to 8) (size 9 to 14) (size 15 to 20)
#    0.000    1.400    3.000    4.800    2.800    3.600 
#    0.000    2.000    0.000    0.000    0.000    0.000 
#    0.000    0.800    0.400    0.000    0.000    0.000 
#
# Total GULP energy -223210.138387 kJ/mol
# GULP energy per Si atom -5580.253460 kJ/mol
# Density = 1.695358 g / cm^3
# Si number density = 16.992256 Si / 1000 Ang^3
#
#
#
# Elastic Constant Matrix: (Units=GPa)
#
#
# Indices 1 2 3 4 5 6 
#
# 1 64.5891 12.4860 33.6571 0.0000 0.0000 0.0000
# 2 12.4860 90.4719 10.0602 0.0000 0.0000 0.0000
# 3 33.6571 10.0602 124.9531 0.0000 0.0000 0.0000
# 4 0.0000 0.0000 0.0000 29.3155 0.0000 0.0000
# 5 0.0000 0.0000 0.0000 0.0000 -2.8787 0.0000
# 6 0.0000 0.0000 0.0000 0.0000 0.0000 14.4035
#
#
#
# Elastic Compliance Matrix: (Units=1/GPa)
#
#
# Indices 1 2 3 4 5 6 
#
# 1 0.018363 -0.002002 -0.004785 0.000000 0.000000 0.000000
# 2 -0.002002 0.011371 -0.000376 0.000000 0.000000 0.000000
# 3 -0.004785 -0.000376 0.009322 0.000000 0.000000 0.000000
# 4 0.000000 0.000000 0.000000 0.034112 0.000000 0.000000
# 5 0.000000 0.000000 0.000000 0.000000 -0.347377 0.000000
# 6 0.000000 0.000000 0.000000 0.000000 0.000000 0.069428
#
#
# Mechanical properties :
#
#
# Convention : Reuss Voigt Hill
#
# Bulk Modulus (GPa) = 40.43732 43.60229 42.01980
# Shear Modulus (GPa) = -27.44060 23.08878 -2.17591
#
# Velocity S-wave (km/s) = -4.02293 3.69017 -1.13283
# Velocity P-wave (km/s) = 1.50684 6.62361 4.80327
#
# Compressibility (1/GPa) = 0.02472963
#
# Stress axis : x y z
#
# Youngs Moduli (GPa) = 54.45739 87.94064 107.27117
#
# Poissons Ratio (x) = 0.17607 0.51329
# Poissons Ratio (y) = 0.10903 0.04036
# Poissons Ratio (z) = 0.26058 0.03308
#
# Static dielectric constant tensor:
#      x y z
#    x 1.577300 0.000000 0.000000 
#    y 0.000000 1.611830 0.000000 
#    z 0.000000 0.000000 0.739670 
# 
# From -- ./inp_files/10379.got.cif
#   From: 2010.05.17/outbox.cif.g08.bks.cpg/sg63_6_cif.got.tgz:10379.got - 2010.06.03 15:47:04.
