data_PCOD9470814
_publ_section_title
;
Structure prediction by ZEFSAII (Michael W. Deem and Ramdas Pophale) SiO2 
 PCOD9470814
Probable space group: C M C M
;
_chemical_formula_sum "Si O2"
_cell_formula_units_Z 96
_cell_length_a 23.829193
_cell_length_b 14.011929
_cell_length_c 15.886547
_cell_angle_alpha 90.000000
_cell_angle_beta 90.000000
_cell_angle_gamma 90.000000
_cell_volume 5304.406209
_symmetry_space_group_name_H-M "C M C M"
_symmetry_group_IT_number 63
_symmetry_cell_setting 'orthorhombic'
loop_
_space_group_symop_operation_xyz
x,y,z
-x,-y,1/2+z
x,-y,-z
-x,y,1/2-z
-x,-y,-z
x,y,1/2-z
-x,y,z
x,-y,1/2+z
1/2+x,1/2+y,z
1/2-x,1/2-y,1/2+z
1/2+x,1/2-y,-z
1/2-x,1/2+y,1/2-z
1/2-x,1/2-y,-z
1/2+x,1/2+y,1/2-z
1/2-x,1/2+y,z
1/2+x,1/2-y,1/2+z
loop_
_atom_site_type_symbol
_atom_site_label
_atom_site_fract_x
_atom_site_fract_y
_atom_site_fract_z
Si Si1 0.500000 0.746071 0.652205
Si Si2 0.500000 0.484366 0.349023
Si Si3 0.287388 0.408936 0.843785
Si Si4 0.886913 0.754950 0.065009
Si Si5 0.894267 0.080501 0.438356
Si Si6 0.794979 0.385891 0.503291
Si Si7 0.783750 0.139205 0.846297
O O1 0.500000 0.768504 0.750000
O O2 0.500000 0.630114 0.643411
O O3 0.558231 0.781338 0.612798
O O4 0.500000 0.507208 0.250000
O O5 0.445975 0.529065 0.394105
O O6 0.272082 0.378281 0.750000
O O7 0.349744 0.381704 0.871344
O O8 0.245333 0.373598 0.915475
O O9 0.289724 0.524331 0.844256
O O10 0.851040 0.673038 0.020095
O O11 0.841855 0.810840 0.124648
O O12 0.909069 0.831729 0.997643
O O13 0.866952 0.000000 0.500000
O O14 0.804749 0.500000 0.500000
O O15 0.762583 0.348474 0.420035
O O16 0.769556 0.167670 0.750000
#
# Coordination Sequence:
#
# PCOD9470814 Si02
#       7
#     8   8  16  16  16  16  16
#     4  11  23  37  56  87 118 147 189 234 286 350
#     4  11  22  36  54  82 119 155 184 223 286 353
#     4  10  19  33  54  81 117 155 189 229 283 343
#     4  12  22  36  58  83 113 156 192 239 287 342
#     4  12  19  33  53  80 116 152 188 225 282 346
#     4  10  22  41  57  82 116 154 197 243 288 337
#     4  10  19  34  57  86 117 148 186 235 292 349
#
# _framework density 18.098161999999999
#
# number of rings (size 3 to 8) (size 9 to 14) (size 15 to 20)
#    0.000    1.167    5.000    2.750    0.000    4.000 
#    0.000    1.250    0.000    0.000    0.000    1.167 
#    0.000    0.000    0.000    0.000    0.000    0.000 
#
# Total GULP energy -268046.664168 kJ/mol
# GULP energy per Si atom -5584.305504 kJ/mol
# Density = 1.805697 g / cm^3
# Si number density = 18.098162 Si / 1000 Ang^3
#
#
#
# Elastic Constant Matrix: (Units=GPa)
#
#
# Indices 1 2 3 4 5 6 
#
# 1 99.1670 9.0474 56.6286 0.0000 0.0000 0.0000
# 2 9.0474 41.2420 19.5689 0.0000 0.0000 0.0000
# 3 56.6286 19.5689 150.9224 0.0000 0.0000 0.0000
# 4 0.0000 0.0000 0.0000 3.9938 0.0000 0.0000
# 5 0.0000 0.0000 0.0000 0.0000 -31.5953 0.0000
# 6 0.0000 0.0000 0.0000 0.0000 0.0000 32.1628
#
#
#
# Elastic Compliance Matrix: (Units=1/GPa)
#
#
# Indices 1 2 3 4 5 6 
#
# 1 0.012846 -0.000566 -0.004747 0.000000 0.000000 0.000000
# 2 -0.000566 0.025862 -0.003141 0.000000 0.000000 0.000000
# 3 -0.004747 -0.003141 0.008814 0.000000 0.000000 0.000000
# 4 0.000000 0.000000 0.000000 0.250390 0.000000 0.000000
# 5 0.000000 0.000000 0.000000 0.000000 -0.031650 0.000000
# 6 0.000000 0.000000 0.000000 0.000000 0.000000 0.031092
#
#
# Mechanical properties :
#
#
# Convention : Reuss Voigt Hill
#
# Bulk Modulus (GPa) = 32.66373 51.31347 41.98860
# Shear Modulus (GPa) = 15.40993 14.65135 15.03064
#
# Velocity S-wave (km/s) = 2.92115 2.84834 2.88498
# Velocity P-wave (km/s) = 5.42815 6.26353 5.86074
#
# Compressibility (1/GPa) = 0.03061500
#
# Stress axis : x y z
#
# Youngs Moduli (GPa) = 77.84391 38.66730 113.45273
#
# Poissons Ratio (x) = 0.02188 0.53853
# Poissons Ratio (y) = 0.04405 0.35635
# Poissons Ratio (z) = 0.36951 0.12145
#
# Static dielectric constant tensor:
#      x y z
#    x 1.606230 0.000000 0.000000 
#    y 0.000000 1.627260 0.000000 
#    z 0.000000 0.000000 1.652760 
# 
# From -- ./inp_files/36826.got.cif
#   From: 2010.05.17/outbox.cif.g08.bks.cpg/sg63_19_cif.got.tgz:36826.got - 2010.06.03 15:47:04.
