data_PCOD9470749
_publ_section_title
;
Structure prediction by ZEFSAII (Michael W. Deem and Ramdas Pophale) SiO2 
 PCOD9470749
Probable space group: C M C M
;
_chemical_formula_sum "Si O2"
_cell_formula_units_Z 64
_cell_length_a 13.836087
_cell_length_b 27.209580
_cell_length_c 9.818431
_cell_angle_alpha 90.000000
_cell_angle_beta 90.000000
_cell_angle_gamma 90.000000
_cell_volume 3696.385132
_symmetry_space_group_name_H-M "C M C M"
_symmetry_group_IT_number 63
_symmetry_cell_setting 'orthorhombic'
loop_
_space_group_symop_operation_xyz
x,y,z
-x,-y,1/2+z
x,-y,-z
-x,y,1/2-z
-x,-y,-z
x,y,1/2-z
-x,y,z
x,-y,1/2+z
1/2+x,1/2+y,z
1/2-x,1/2-y,1/2+z
1/2+x,1/2-y,-z
1/2-x,1/2+y,1/2-z
1/2-x,1/2-y,-z
1/2+x,1/2+y,1/2-z
1/2-x,1/2+y,z
1/2+x,1/2-y,1/2+z
loop_
_atom_site_type_symbol
_atom_site_label
_atom_site_fract_x
_atom_site_fract_y
_atom_site_fract_z
Si Si1 0.214545 0.549496 0.588605
Si Si2 0.615423 0.196315 0.750000
Si Si3 0.771347 0.845070 0.039634
Si Si4 0.500000 0.951987 0.090588
Si Si5 0.611071 0.714083 0.750000
Si Si6 0.725792 0.295124 0.750000
O O1 0.228321 0.500000 0.500000
O O2 0.223004 0.538376 0.750000
O O3 0.279358 0.596259 0.552851
O O4 0.104935 0.570120 0.563417
O O5 0.500000 0.186202 0.750000
O O6 0.674698 0.173726 0.878981
O O7 0.639540 0.254584 0.750000
O O8 0.857126 0.818087 0.120313
O O9 0.773048 0.827245 0.885583
O O10 0.500000 0.964527 0.250000
O O11 0.500000 0.000000 0.000000
O O12 0.500000 0.726424 0.750000
O O13 0.677990 0.761890 0.750000
#
# Coordination Sequence:
#
# PCOD9470749 Si02
#       6
#    16   8  16   8   8   8
#     4  10  19  33  53  78 108 145 182 217 273 322
#     4  10  20  36  61  77 109 150 185 225 276 332
#     4  10  21  36  55  85 113 144 185 226 275 331
#     4   8  16  28  46  68 102 136 170 210 248 318
#     4  10  20  40  61  77 108 148 188 232 276 327
#     4  10  22  36  52  86 117 138 183 233 272 329
#
# _framework density 17.314212000000001
#
# number of rings (size 3 to 8) (size 9 to 14) (size 15 to 20)
#    0.000    2.500    2.500    3.000    3.500    4.000 
#    0.000    0.000    0.000    0.750    0.000    0.000 
#    0.000    0.000    0.000    0.000    0.000    0.000 
#
# Total GULP energy -178173.289371 kJ/mol
# GULP energy per Si atom -5567.915293 kJ/mol
# Density = 1.727480 g / cm^3
# Si number density = 17.314212 Si / 1000 Ang^3
#
#
#
# Elastic Constant Matrix: (Units=GPa)
#
#
# Indices 1 2 3 4 5 6 
#
# 1 44.2729 -3.9594 2.8470 0.0000 0.0000 0.0000
# 2 -3.9594 90.9471 50.3413 0.0000 0.0000 0.0000
# 3 2.8470 50.3413 115.7992 0.0000 0.0000 0.0000
# 4 0.0000 0.0000 0.0000 33.6621 0.0000 0.0000
# 5 0.0000 0.0000 0.0000 0.0000 12.8014 0.0000
# 6 0.0000 0.0000 0.0000 0.0000 0.0000 8.7160
#
#
#
# Elastic Compliance Matrix: (Units=1/GPa)
#
#
# Indices 1 2 3 4 5 6 
#
# 1 0.022825 0.001718 -0.001308 0.000000 0.000000 0.000000
# 2 0.001718 0.014609 -0.006393 0.000000 0.000000 0.000000
# 3 -0.001308 -0.006393 0.011447 0.000000 0.000000 0.000000
# 4 0.000000 0.000000 0.000000 0.029707 0.000000 0.000000
# 5 0.000000 0.000000 0.000000 0.000000 0.078117 0.000000
# 6 0.000000 0.000000 0.000000 0.000000 0.000000 0.114732
#
#
# Mechanical properties :
#
#
# Convention : Reuss Voigt Hill
#
# Bulk Modulus (GPa) = 27.08990 38.83076 32.96033
# Shear Modulus (GPa) = 16.90859 24.48857 20.69858
#
# Velocity S-wave (km/s) = 3.12841 3.76488 3.46130
# Velocity P-wave (km/s) = 5.35997 6.43233 5.92048
#
# Compressibility (1/GPa) = 0.03691413
#
# Stress axis : x y z
#
# Youngs Moduli (GPa) = 43.81178 68.45117 87.35841
#
# Poissons Ratio (x) = -0.11757 0.11425
# Poissons Ratio (y) = -0.07525 0.55850
# Poissons Ratio (z) = 0.05730 0.43762
#
# Static dielectric constant tensor:
#      x y z
#    x 1.612810 0.000000 0.000000 
#    y 0.000000 1.579850 0.000000 
#    z 0.000000 0.000000 1.583460 
# 
# From -- ./inp_files/4546.got.cif
#   From: 2010.05.17/outbox.cif.g08.bks.cpg/sg63_3_cif.got.tgz:4546.got - 2010.06.03 15:47:04.
