data_PCOD9470962
_publ_section_title
;
Structure prediction by ZEFSAII (Michael W. Deem and Ramdas Pophale) SiO2 
 PCOD9470962
Probable space group: C M C M
;
_chemical_formula_sum "Si O2"
_cell_formula_units_Z 80
_cell_length_a 19.622516
_cell_length_b 25.177523
_cell_length_c 10.139305
_cell_angle_alpha 90.000000
_cell_angle_beta 90.000000
_cell_angle_gamma 90.000000
_cell_volume 5009.286606
_symmetry_space_group_name_H-M "C M C M"
_symmetry_group_IT_number 63
_symmetry_cell_setting 'orthorhombic'
loop_
_space_group_symop_operation_xyz
x,y,z
-x,-y,1/2+z
x,-y,-z
-x,y,1/2-z
-x,-y,-z
x,y,1/2-z
-x,y,z
x,-y,1/2+z
1/2+x,1/2+y,z
1/2-x,1/2-y,1/2+z
1/2+x,1/2-y,-z
1/2-x,1/2+y,1/2-z
1/2-x,1/2-y,-z
1/2+x,1/2+y,1/2-z
1/2-x,1/2+y,z
1/2+x,1/2-y,1/2+z
loop_
_atom_site_type_symbol
_atom_site_label
_atom_site_fract_x
_atom_site_fract_y
_atom_site_fract_z
Si Si1 0.627064 0.058198 0.250000
Si Si2 0.852586 0.735942 0.093485
Si Si3 0.500000 0.147343 0.750000
Si Si4 0.720695 0.940823 0.494503
Si Si5 0.000000 0.365817 0.750000
Si Si6 0.000000 0.284076 0.513490
Si Si7 0.882231 0.559786 0.750000
Si Si8 0.255371 0.169377 0.906695
O O1 0.676580 0.064273 0.374048
O O2 0.567784 0.100148 0.250000
O O3 0.590685 0.000485 0.250000
O O4 0.853836 0.720705 0.250000
O O5 0.929047 0.745827 0.041520
O O6 0.805627 0.788222 0.082806
O O7 0.816637 0.692096 0.998721
O O8 0.500000 0.186093 0.625199
O O9 0.435846 0.107158 0.750000
O O10 0.665761 0.938648 0.377107
O O11 0.764535 0.888518 0.463479
O O12 0.753008 0.000000 0.500000
O O13 0.000000 0.330179 0.621624
O O14 0.273684 0.166238 0.750000
#
# Coordination Sequence:
#
# PCOD9470962 Si02
#       8
#     8  16   4  16   4   8   8  16
#     4  10  21  30  47  68  97 136 168 215 250 286
#     4  10  21  37  53  77 103 136 173 219 261 313
#     4  12  23  32  50  68  98 144 179 212 246 298
#     4  10  20  33  49  72  98 129 171 216 258 302
#     4  12  19  32  46  64  98 132 175 202 242 304
#     4  12  24  34  49  74 103 134 175 212 257 306
#     4  10  19  34  45  66  99 130 178 211 246 294
#     4  10  20  35  57  76 103 134 174 215 265 313
#
# _framework density 15.970338
#
# number of rings (size 3 to 8) (size 9 to 14) (size 15 to 20)
#    0.000    1.600    2.000    3.900    2.800    0.000 
#    0.000    4.000    0.000    0.000    0.000    0.700 
#    0.000    0.000    0.000    0.000    0.000    0.000 
#
# Total GULP energy -222992.025032 kJ/mol
# GULP energy per Si atom -5574.800626 kJ/mol
# Density = 1.593399 g / cm^3
# Si number density = 15.970338 Si / 1000 Ang^3
#
#
#
# Elastic Constant Matrix: (Units=GPa)
#
#
# Indices 1 2 3 4 5 6 
#
# 1 63.3664 27.0183 25.4589 0.0000 0.0000 0.0000
# 2 27.0183 94.1389 33.0097 0.0000 0.0000 0.0000
# 3 25.4589 33.0097 131.0606 0.0000 0.0000 0.0000
# 4 0.0000 0.0000 0.0000 29.0760 0.0000 0.0000
# 5 0.0000 0.0000 0.0000 0.0000 18.0157 0.0000
# 6 0.0000 0.0000 0.0000 0.0000 0.0000 16.9341
#
#
#
# Elastic Compliance Matrix: (Units=1/GPa)
#
#
# Indices 1 2 3 4 5 6 
#
# 1 0.018701 -0.004490 -0.002502 0.000000 0.000000 0.000000
# 2 -0.004490 0.012730 -0.002334 0.000000 0.000000 0.000000
# 3 -0.002502 -0.002334 0.008704 0.000000 0.000000 0.000000
# 4 0.000000 0.000000 0.000000 0.034393 0.000000 0.000000
# 5 0.000000 0.000000 0.000000 0.000000 0.055507 0.000000
# 6 0.000000 0.000000 0.000000 0.000000 0.000000 0.059052
#
#
# Mechanical properties :
#
#
# Convention : Reuss Voigt Hill
#
# Bulk Modulus (GPa) = 46.54878 51.05998 48.80438
# Shear Modulus (GPa) = 23.26674 26.34376 24.80525
#
# Velocity S-wave (km/s) = 3.82104 4.06586 3.94535
# Velocity P-wave (km/s) = 6.97692 7.35410 7.16799
#
# Compressibility (1/GPa) = 0.02148284
#
# Stress axis : x y z
#
# Youngs Moduli (GPa) = 53.47356 78.55679 114.89118
#
# Poissons Ratio (x) = 0.35272 0.28744
# Poissons Ratio (y) = 0.24009 0.26815
# Poissons Ratio (z) = 0.13378 0.18335
#
# Static dielectric constant tensor:
#      x y z
#    x 1.527700 0.000000 0.000000 
#    y 0.000000 1.591460 0.000000 
#    z 0.000000 0.000000 1.530810 
# 
# From -- ./inp_files/8500.got.cif
#   From: 2010.05.17/outbox.cif.g08.bks.cpg/sg63_5_cif.got.tgz:8500.got - 2010.06.03 15:47:04.
