data_PCOD9470509
_publ_section_title
;
Structure prediction by ZEFSAII (Michael W. Deem and Ramdas Pophale) SiO2 
 PCOD9470509
Probable space group: C M C M
;
_chemical_formula_sum "Si O2"
_cell_formula_units_Z 96
_cell_length_a 14.997708
_cell_length_b 13.029166
_cell_length_c 21.637873
_cell_angle_alpha 90.000000
_cell_angle_beta 90.000000
_cell_angle_gamma 90.000000
_cell_volume 4228.205420
_symmetry_space_group_name_H-M "C M C M"
_symmetry_group_IT_number 63
_symmetry_cell_setting 'orthorhombic'
loop_
_space_group_symop_operation_xyz
x,y,z
-x,-y,1/2+z
x,-y,-z
-x,y,1/2-z
-x,-y,-z
x,y,1/2-z
-x,y,z
x,-y,1/2+z
1/2+x,1/2+y,z
1/2-x,1/2-y,1/2+z
1/2+x,1/2-y,-z
1/2-x,1/2+y,1/2-z
1/2-x,1/2-y,-z
1/2+x,1/2+y,1/2-z
1/2-x,1/2+y,z
1/2+x,1/2-y,1/2+z
loop_
_atom_site_type_symbol
_atom_site_label
_atom_site_fract_x
_atom_site_fract_y
_atom_site_fract_z
Si Si1 0.856295 0.172488 0.478501
Si Si2 0.898775 0.914830 0.850522
Si Si3 0.390397 0.254583 0.750000
Si Si4 0.109628 0.480787 0.250000
Si Si5 0.849633 0.616145 0.479029
Si Si6 0.891922 0.133503 0.623547
Si Si7 0.898750 0.650506 0.342877
O O1 0.902349 0.114215 0.422733
O O2 0.880431 0.293282 0.475289
O O3 0.752502 0.148784 0.466903
O O4 0.873591 0.139781 0.549570
O O5 0.861269 0.822265 0.809458
O O6 0.000000 0.927771 0.827835
O O7 0.855850 0.027512 0.848641
O O8 0.500000 0.248501 0.750000
O O9 0.358989 0.136690 0.750000
O O10 0.138922 0.552643 0.192699
O O11 0.000000 0.474184 0.250000
O O12 0.854736 0.500000 0.500000
O O13 0.900228 0.625836 0.415055
O O14 0.857103 0.235539 0.657974
O O15 0.000000 0.134006 0.628297
O O16 0.000000 0.662073 0.320161
#
# Coordination Sequence:
#
# PCOD9470509 Si02
#       7
#    16  16   8   8  16  16  16
#     4  10  20  34  52  77 107 137 170 210 260 312
#     4  10  19  32  53  77 106 138 170 212 255 302
#     4   9  20  33  48  77 105 136 176 208 255 310
#     4   9  18  35  54  71 103 138 170 216 261 304
#     4  10  21  34  51  76 104 136 171 210 258 307
#     4   9  17  31  53  81 106 132 173 214 257 308
#     4   9  19  34  53  77 101 134 176 216 256 303
#
# _framework density 22.704668000000002
#
# number of rings (size 3 to 8) (size 9 to 14) (size 15 to 20)
#    0.000    2.500    0.000    2.000    2.333    3.000 
#    0.000    4.167    0.000    0.000    0.000    0.000 
#    0.000    0.000    0.000    0.000    0.000    0.000 
#
# Total GULP energy -267631.742584 kJ/mol
# GULP energy per Si atom -5575.661304 kJ/mol
# Density = 2.265299 g / cm^3
# Si number density = 22.704668 Si / 1000 Ang^3
#
#
#
# Elastic Constant Matrix: (Units=GPa)
#
#
# Indices 1 2 3 4 5 6 
#
# 1 38.7466 7.1041 5.9774 0.0000 0.0000 0.0000
# 2 7.1041 279.0116 80.2322 0.0000 0.0000 0.0000
# 3 5.9774 80.2322 63.4412 0.0000 0.0000 0.0000
# 4 0.0000 0.0000 0.0000 28.1778 0.0000 0.0000
# 5 0.0000 0.0000 0.0000 0.0000 54.0067 0.0000
# 6 0.0000 0.0000 0.0000 0.0000 0.0000 12.0709
#
#
#
# Elastic Compliance Matrix: (Units=1/GPa)
#
#
# Indices 1 2 3 4 5 6 
#
# 1 0.026190 0.000067 -0.002553 0.000000 0.000000 0.000000
# 2 0.000067 0.005633 -0.007130 0.000000 0.000000 0.000000
# 3 -0.002553 -0.007130 0.025020 0.000000 0.000000 0.000000
# 4 0.000000 0.000000 0.000000 0.035489 0.000000 0.000000
# 5 0.000000 0.000000 0.000000 0.000000 0.018516 0.000000
# 6 0.000000 0.000000 0.000000 0.000000 0.000000 0.082844
#
#
# Mechanical properties :
#
#
# Convention : Reuss Voigt Hill
#
# Bulk Modulus (GPa) = 26.58695 63.09187 44.83941
# Shear Modulus (GPa) = 22.17694 38.04345 30.11019
#
# Velocity S-wave (km/s) = 3.12870 4.09782 3.64561
# Velocity P-wave (km/s) = 4.97866 7.08787 6.12474
#
# Compressibility (1/GPa) = 0.03761244
#
# Stress axis : x y z
#
# Youngs Moduli (GPa) = 38.18227 177.53875 39.96828
#
# Poissons Ratio (x) = -0.01192 0.10202
# Poissons Ratio (y) = -0.00256 0.28496
# Poissons Ratio (z) = 0.09746 1.26579
#
# Static dielectric constant tensor:
#      x y z
#    x 1.887520 0.000000 0.000000 
#    y 0.000000 1.891360 0.000000 
#    z 0.000000 0.000000 1.819170 
# 
# From -- ./inp_files/56608.got.cif
#   From: 2010.05.17/outbox.cif.g08.bks.cpg/sg63_29_cif.got.tgz:56608.got - 2010.06.03 15:47:04.
