data_PCOD9470287
_publ_section_title
;
Structure prediction by ZEFSAII (Michael W. Deem and Ramdas Pophale) SiO2 
 PCOD9470287
Probable space group: C M C M
;
_chemical_formula_sum "Si O2"
_cell_formula_units_Z 104
_cell_length_a 27.740087
_cell_length_b 24.552279
_cell_length_c 9.205640
_cell_angle_alpha 90.000000
_cell_angle_beta 90.000000
_cell_angle_gamma 90.000000
_cell_volume 6269.798975
_symmetry_space_group_name_H-M "C M C M"
_symmetry_group_IT_number 63
_symmetry_cell_setting 'orthorhombic'
loop_
_space_group_symop_operation_xyz
x,y,z
-x,-y,1/2+z
x,-y,-z
-x,y,1/2-z
-x,-y,-z
x,y,1/2-z
-x,y,z
x,-y,1/2+z
1/2+x,1/2+y,z
1/2-x,1/2-y,1/2+z
1/2+x,1/2-y,-z
1/2-x,1/2+y,1/2-z
1/2-x,1/2-y,-z
1/2+x,1/2+y,1/2-z
1/2-x,1/2+y,z
1/2+x,1/2-y,1/2+z
loop_
_atom_site_type_symbol
_atom_site_label
_atom_site_fract_x
_atom_site_fract_y
_atom_site_fract_z
Si Si1 0.107812 0.558752 0.423915
Si Si2 0.610600 0.332889 0.925916
Si Si3 0.442989 0.236685 0.079907
Si Si4 0.000000 0.557557 0.077552
Si Si5 0.629491 0.159895 0.581867
Si Si6 0.799105 0.238090 0.082682
Si Si7 0.555945 0.442369 0.575930
O O1 0.113673 0.500000 0.500000
O O2 0.113254 0.554217 0.250000
O O3 0.052911 0.579830 0.456882
O O4 0.140894 0.605115 0.493814
O O5 0.606785 0.325830 0.750000
O O6 0.663882 0.309963 0.967467
O O7 0.593559 0.394187 0.960881
O O8 0.573551 0.292903 0.006469
O O9 0.429143 0.235251 0.250000
O O10 0.500000 0.229574 0.070420
O O11 0.415154 0.190398 0.992662
O O12 0.000000 0.550464 0.250000
O O13 0.000000 0.500000 0.000000
O O14 0.619704 0.146622 0.750000
O O15 0.670550 0.205904 0.576546
O O16 0.787629 0.225859 0.250000
O O17 0.750000 0.250000 0.000000
O O18 0.566324 0.500000 0.500000
O O19 0.557610 0.449480 0.750000
O O20 0.500000 0.427070 0.538956
#
# Coordination Sequence:
#
# PCOD9470287 Si02
#       7
#    16  16  16   8  16  16  16
#     4  10  19  32  49  70  98 132 167 205 243 286
#     4   9  18  33  51  72  99 132 168 204 246 300
#     4  10  20  31  45  69 100 131 164 204 247 292
#     4   8  16  28  42  62  90 124 162 196 227 266
#     4  10  21  35  50  72  98 128 166 204 246 301
#     4   9  19  35  55  76  97 121 159 208 257 309
#     4   9  17  29  47  72 104 141 174 202 235 282
#
# _framework density 16.587454000000001
#
# number of rings (size 3 to 8) (size 9 to 14) (size 15 to 20)
#    0.000    2.615    0.000    2.769    1.077    6.154 
#    0.000    1.538    0.000    0.923    0.000    4.308 
#    0.000    0.000    0.000    0.000    0.000    0.000 
#
# Total GULP energy -289496.415419 kJ/mol
# GULP energy per Si atom -5567.238758 kJ/mol
# Density = 1.654970 g / cm^3
# Si number density = 16.587454 Si / 1000 Ang^3
#
#
#
# Elastic Constant Matrix: (Units=GPa)
#
#
# Indices 1 2 3 4 5 6 
#
# 1 71.4689 40.0215 39.5430 0.0000 0.0000 0.0000
# 2 40.0215 118.6666 49.3498 0.0000 0.0000 0.0000
# 3 39.5430 49.3498 59.9765 0.0000 0.0000 0.0000
# 4 0.0000 0.0000 0.0000 27.7842 0.0000 0.0000
# 5 0.0000 0.0000 0.0000 0.0000 24.8166 0.0000
# 6 0.0000 0.0000 0.0000 0.0000 0.0000 13.6784
#
#
#
# Elastic Compliance Matrix: (Units=1/GPa)
#
#
# Indices 1 2 3 4 5 6 
#
# 1 0.022381 -0.002146 -0.012990 0.000000 0.000000 0.000000
# 2 -0.002146 0.013016 -0.009295 0.000000 0.000000 0.000000
# 3 -0.012990 -0.009295 0.032886 0.000000 0.000000 0.000000
# 4 0.000000 0.000000 0.000000 0.035992 0.000000 0.000000
# 5 0.000000 0.000000 0.000000 0.000000 0.040296 0.000000
# 6 0.000000 0.000000 0.000000 0.000000 0.000000 0.073108
#
#
# Mechanical properties :
#
#
# Convention : Reuss Voigt Hill
#
# Bulk Modulus (GPa) = 51.49184 56.43784 53.96484
# Shear Modulus (GPa) = 18.31397 21.33568 19.82482
#
# Velocity S-wave (km/s) = 3.32638 3.59033 3.46087
# Velocity P-wave (km/s) = 6.77223 7.16139 6.96953
#
# Compressibility (1/GPa) = 0.01942055
#
# Stress axis : x y z
#
# Youngs Moduli (GPa) = 44.68020 76.82668 30.40803
#
# Poissons Ratio (x) = 0.16487 0.39501
# Poissons Ratio (y) = 0.09588 0.28265
# Poissons Ratio (z) = 0.58041 0.71412
#
# Static dielectric constant tensor:
#      x y z
#    x 1.572040 0.000000 0.000000 
#    y 0.000000 1.564900 0.000000 
#    z 0.000000 0.000000 1.554870 
# 
# From -- ./inp_files/13098.got.cif
#   From: 2010.05.17/outbox.cif.g08.bks.cpg/sg63_7_cif.got.tgz:13098.got - 2010.06.03 15:47:04.
