data_PCOD9470046
_publ_section_title
;
Structure prediction by ZEFSAII (Michael W. Deem and Ramdas Pophale) SiO2 
 PCOD9470046
Probable space group: C M C M
;
_chemical_formula_sum "Si O2"
_cell_formula_units_Z 96
_cell_length_a 24.344520
_cell_length_b 30.197208
_cell_length_c 8.696207
_cell_angle_alpha 90.000000
_cell_angle_beta 90.000000
_cell_angle_gamma 90.000000
_cell_volume 6392.899474
_symmetry_space_group_name_H-M "C M C M"
_symmetry_group_IT_number 63
_symmetry_cell_setting 'orthorhombic'
loop_
_space_group_symop_operation_xyz
x,y,z
-x,-y,1/2+z
x,-y,-z
-x,y,1/2-z
-x,-y,-z
x,y,1/2-z
-x,y,z
x,-y,1/2+z
1/2+x,1/2+y,z
1/2-x,1/2-y,1/2+z
1/2+x,1/2-y,-z
1/2-x,1/2+y,1/2-z
1/2-x,1/2-y,-z
1/2+x,1/2+y,1/2-z
1/2-x,1/2+y,z
1/2+x,1/2-y,1/2+z
loop_
_atom_site_type_symbol
_atom_site_label
_atom_site_fract_x
_atom_site_fract_y
_atom_site_fract_z
Si Si1 0.000000 0.703262 0.926152
Si Si2 0.706957 0.285208 0.065943
Si Si3 0.290370 0.047087 0.926523
Si Si4 0.922028 0.453798 0.072601
Si Si5 0.120457 0.714157 0.065320
Si Si6 0.500000 0.112671 0.073751
Si Si7 0.716740 0.855631 0.933943
O O1 0.000000 0.717190 0.750000
O O2 0.941265 0.715176 0.001546
O O3 0.000000 0.650678 0.948694
O O4 0.710921 0.288023 0.250000
O O5 0.649648 0.261135 0.027968
O O6 0.750000 0.250000 0.000000
O O7 0.728765 0.330446 0.993533
O O8 0.271242 0.049295 0.750000
O O9 0.356586 0.045925 0.926804
O O10 0.279433 0.093710 0.010544
O O11 0.271971 0.000000 0.000000
O O12 0.939545 0.448563 0.250000
O O13 0.940048 0.500000 0.000000
O O14 0.946907 0.416657 0.962794
O O15 0.117607 0.709938 0.250000
O O16 0.162186 0.673615 0.013531
O O17 0.500000 0.128633 0.250000
O O18 0.715147 0.854340 0.750000
#
# Coordination Sequence:
#
# PCOD9470046 Si02
#       7
#     8  16  16  16  16   8  16
#     4  12  24  33  45  64  86 114 146 183 224 264
#     4   9  17  30  49  70  90 114 145 182 223 266
#     4  10  20  32  46  63  85 113 144 180 221 266
#     4  10  20  33  46  59  76 101 137 180 223 263
#     4   9  19  34  49  66  90 119 149 182 224 272
#     4  12  23  33  44  56  75 104 140 181 221 262
#     4  10  19  31  49  70  91 117 149 186 226 268
#
# _framework density 15.01666
#
# number of rings (size 3 to 8) (size 9 to 14) (size 15 to 20)
#    0.000    2.000    0.000    5.750    0.000    8.667 
#    0.000    0.000    0.000    0.000    0.000    0.000 
#    0.000    0.000    0.000    0.750    0.000    9.833 
#
# Total GULP energy -267250.607405 kJ/mol
# GULP energy per Si atom -5567.720988 kJ/mol
# Density = 1.498248 g / cm^3
# Si number density = 15.016660 Si / 1000 Ang^3
#
#
#
# Elastic Constant Matrix: (Units=GPa)
#
#
# Indices 1 2 3 4 5 6 
#
# 1 68.2699 48.5822 22.9368 0.0000 0.0000 0.0000
# 2 48.5822 102.3153 35.9518 0.0000 0.0000 0.0000
# 3 22.9368 35.9518 59.6119 0.0000 0.0000 0.0000
# 4 0.0000 0.0000 0.0000 26.0523 0.0000 0.0000
# 5 0.0000 0.0000 0.0000 0.0000 21.5277 0.0000
# 6 0.0000 0.0000 0.0000 0.0000 0.0000 -51.9630
#
#
#
# Elastic Compliance Matrix: (Units=1/GPa)
#
#
# Indices 1 2 3 4 5 6 
#
# 1 0.022487 -0.009691 -0.002808 0.000000 0.000000 0.000000
# 2 -0.009691 0.016578 -0.006270 0.000000 0.000000 0.000000
# 3 -0.002808 -0.006270 0.021637 0.000000 0.000000 0.000000
# 4 0.000000 0.000000 0.000000 0.038384 0.000000 0.000000
# 5 0.000000 0.000000 0.000000 0.000000 0.046452 0.000000
# 6 0.000000 0.000000 0.000000 0.000000 0.000000 -0.019244
#
#
# Mechanical properties :
#
#
# Convention : Reuss Voigt Hill
#
# Bulk Modulus (GPa) = 43.16739 49.45984 46.31361
# Shear Modulus (GPa) = 29.14555 7.30514 18.22534
#
# Velocity S-wave (km/s) = 4.41032 2.20800 3.48756
# Velocity P-wave (km/s) = 7.39887 6.28558 6.86483
#
# Compressibility (1/GPa) = 0.02316564
#
# Stress axis : x y z
#
# Youngs Moduli (GPa) = 44.46930 60.31983 46.21781
#
# Poissons Ratio (x) = 0.58456 0.12977
# Poissons Ratio (y) = 0.43095 0.28976
# Poissons Ratio (z) = 0.12486 0.37818
#
# Static dielectric constant tensor:
#      x y z
#    x 1.510990 0.000000 0.000000 
#    y 0.000000 1.524900 0.000000 
#    z 0.000000 0.000000 1.521410 
# 
# From -- ./inp_files/10743.got.cif
#   From: 2010.05.17/outbox.cif.g08.bks.cpg/sg63_6_cif.got.tgz:10743.got - 2010.06.03 15:47:04.
