data_PCOD9470734
_publ_section_title
;
Structure prediction by ZEFSAII (Michael W. Deem and Ramdas Pophale) SiO2 
 PCOD9470734
Probable space group: C M C M
;
_chemical_formula_sum "Si O2"
_cell_formula_units_Z 80
_cell_length_a 27.222691
_cell_length_b 19.087020
_cell_length_c 8.568812
_cell_angle_alpha 90.000000
_cell_angle_beta 90.000000
_cell_angle_gamma 90.000000
_cell_volume 4452.355123
_symmetry_space_group_name_H-M "C M C M"
_symmetry_group_IT_number 63
_symmetry_cell_setting 'orthorhombic'
loop_
_space_group_symop_operation_xyz
x,y,z
-x,-y,1/2+z
x,-y,-z
-x,y,1/2-z
-x,-y,-z
x,y,1/2-z
-x,y,z
x,-y,1/2+z
1/2+x,1/2+y,z
1/2-x,1/2-y,1/2+z
1/2+x,1/2-y,-z
1/2-x,1/2+y,1/2-z
1/2-x,1/2-y,-z
1/2+x,1/2+y,1/2-z
1/2-x,1/2+y,z
1/2+x,1/2-y,1/2+z
loop_
_atom_site_type_symbol
_atom_site_label
_atom_site_fract_x
_atom_site_fract_y
_atom_site_fract_z
Si Si1 0.056894 0.573454 0.437753
Si Si2 0.844405 0.923553 0.436072
Si Si3 0.944686 0.138567 0.437145
Si Si4 0.700040 0.716740 0.063347
Si Si5 0.900342 0.278283 0.561970
O O1 0.077219 0.500000 0.500000
O O2 0.057431 0.571285 0.250000
O O3 0.084322 0.643863 0.486830
O O4 0.000000 0.578626 0.489310
O O5 0.841271 0.921550 0.250000
O O6 0.900380 0.904958 0.486719
O O7 0.810103 0.862683 0.506864
O O8 0.831777 0.000000 0.500000
O O9 0.939982 0.134023 0.250000
O O10 0.935377 0.218689 0.489939
O O11 0.000000 0.116811 0.481458
O O12 0.699129 0.718656 0.250000
O O13 0.750000 0.750000 0.000000
O O14 0.654032 0.759783 0.995025
O O15 0.902965 0.273095 0.750000
#
# Coordination Sequence:
#
# PCOD9470734 Si02
#       5
#    16  16  16  16  16
#     4   9  18  31  48  72 104 141 178 216 260 311
#     4  11  22  38  59  83 112 145 179 219 268 318
#     4  10  20  33  51  78 110 145 184 222 262 313
#     4  11  22  39  61  84 108 137 177 221 269 322
#     4  10  19  33  53  77 105 138 178 223 271 321
#
# _framework density 17.968018000000001
#
# number of rings (size 3 to 8) (size 9 to 14) (size 15 to 20)
#    0.000    1.800    0.000    7.800    0.000    4.400 
#    0.000    3.000    0.000    2.400    0.000    0.000 
#    0.000    0.000    0.000    0.000    0.000    0.000 
#
# Total GULP energy -223385.767457 kJ/mol
# GULP energy per Si atom -5584.644186 kJ/mol
# Density = 1.792712 g / cm^3
# Si number density = 17.968018 Si / 1000 Ang^3
#
#
#
# Elastic Constant Matrix: (Units=GPa)
#
#
# Indices 1 2 3 4 5 6 
#
# 1 75.9925 33.5113 6.4636 0.0000 0.0000 0.0000
# 2 33.5113 133.1922 9.8379 0.0000 0.0000 0.0000
# 3 6.4636 9.8379 57.5823 0.0000 0.0000 0.0000
# 4 0.0000 0.0000 0.0000 33.7685 0.0000 0.0000
# 5 0.0000 0.0000 0.0000 0.0000 28.0257 0.0000
# 6 0.0000 0.0000 0.0000 0.0000 0.0000 7.5047
#
#
#
# Elastic Compliance Matrix: (Units=1/GPa)
#
#
# Indices 1 2 3 4 5 6 
#
# 1 0.014863 -0.003663 -0.001043 0.000000 0.000000 0.000000
# 2 -0.003663 0.008506 -0.001042 0.000000 0.000000 0.000000
# 3 -0.001043 -0.001042 0.017662 0.000000 0.000000 0.000000
# 4 0.000000 0.000000 0.000000 0.029613 0.000000 0.000000
# 5 0.000000 0.000000 0.000000 0.000000 0.035682 0.000000
# 6 0.000000 0.000000 0.000000 0.000000 0.000000 0.133249
#
#
# Mechanical properties :
#
#
# Convention : Reuss Voigt Hill
#
# Bulk Modulus (GPa) = 33.85671 40.71030 37.28350
# Shear Modulus (GPa) = 19.16331 28.32339 23.74335
#
# Velocity S-wave (km/s) = 3.26931 3.97460 3.63908
# Velocity P-wave (km/s) = 5.75629 6.61586 6.20098
#
# Compressibility (1/GPa) = 0.02953624
#
# Stress axis : x y z
#
# Youngs Moduli (GPa) = 67.28126 117.55819 56.62016
#
# Poissons Ratio (x) = 0.43056 0.05903
# Poissons Ratio (y) = 0.24642 0.05901
# Poissons Ratio (z) = 0.07015 0.12252
#
# Static dielectric constant tensor:
#      x y z
#    x 1.605440 0.000000 0.000000 
#    y 0.000000 1.612750 0.000000 
#    z 0.000000 0.000000 1.603020 
# 
# From -- ./inp_files/12023.got.cif
#   From: 2010.05.17/outbox.cif.g08.bks.cpg/sg63_7_cif.got.tgz:12023.got - 2010.06.03 15:47:04.
