data_PCOD9470656
_publ_section_title
;
Structure prediction by ZEFSAII (Michael W. Deem and Ramdas Pophale) SiO2 
 PCOD9470656
Probable space group: C M C M
;
_chemical_formula_sum "Si O2"
_cell_formula_units_Z 88
_cell_length_a 28.822147
_cell_length_b 5.092177
_cell_length_c 31.683032
_cell_angle_alpha 90.000000
_cell_angle_beta 90.000000
_cell_angle_gamma 90.000000
_cell_volume 4650.038577
_symmetry_space_group_name_H-M "C M C M"
_symmetry_group_IT_number 63
_symmetry_cell_setting 'orthorhombic'
loop_
_space_group_symop_operation_xyz
x,y,z
-x,-y,1/2+z
x,-y,-z
-x,y,1/2-z
-x,-y,-z
x,y,1/2-z
-x,y,z
x,-y,1/2+z
1/2+x,1/2+y,z
1/2-x,1/2-y,1/2+z
1/2+x,1/2-y,-z
1/2-x,1/2+y,1/2-z
1/2-x,1/2-y,-z
1/2+x,1/2+y,1/2-z
1/2-x,1/2+y,z
1/2+x,1/2-y,1/2+z
loop_
_atom_site_type_symbol
_atom_site_label
_atom_site_fract_x
_atom_site_fract_y
_atom_site_fract_z
Si Si1 0.719390 0.007548 0.549015
Si Si2 0.947331 0.153100 0.311364
Si Si3 0.000000 0.753476 0.529297
Si Si4 0.919118 0.784666 0.904134
Si Si5 0.859525 0.282649 0.889845
Si Si6 0.615171 0.161378 0.295996
O O1 0.762400 0.804395 0.554079
O O2 0.682561 0.900356 0.582841
O O3 0.702497 0.000000 0.500000
O O4 0.946622 0.139485 0.361998
O O5 0.911894 0.385613 0.299613
O O6 0.000000 0.195591 0.297210
O O7 0.924579 0.883229 0.296532
O O8 0.000000 0.500000 0.500000
O O9 0.954051 0.775201 0.557473
O O10 0.000000 0.000000 0.500000
O O11 0.900118 0.492320 0.897889
O O12 0.877273 0.997788 0.905548
O O13 0.854511 0.287023 0.838496
O O14 0.639142 0.172558 0.250000
#
# Coordination Sequence:
#
# PCOD9470656 Si02
#       6
#    16  16   8  16  16  16
#     4  10  21  38  61  88 111 133 172 229 283 338
#     4  10  19  33  52  70 103 147 186 234 275 311
#     4  12  24  36  52  76 109 148 191 238 272 304
#     4  10  21  37  52  76 108 149 192 223 265 330
#     4  10  21  37  60  79 109 150 178 222 285 335
#     4  10  21  33  50  79 108 141 185 227 273 326
#
# _framework density 18.924575000000001
#
# number of rings (size 3 to 8) (size 9 to 14) (size 15 to 20)
#    0.000    1.818    0.909    3.273    0.000    4.364 
#    0.000    0.000    0.000    1.091    0.000    0.000 
#    0.000    0.000    0.000    0.000    0.000    0.000 
#
# Total GULP energy -245355.322480 kJ/mol
# GULP energy per Si atom -5576.257329 kJ/mol
# Density = 1.888150 g / cm^3
# Si number density = 18.924575 Si / 1000 Ang^3
#
#
#
# Elastic Constant Matrix: (Units=GPa)
#
#
# Indices 1 2 3 4 5 6 
#
# 1 36.6178 -13.5120 40.7127 0.0000 0.0000 0.0000
# 2 -13.5120 87.5419 14.1154 0.0000 0.0000 0.0000
# 3 40.7127 14.1154 162.4988 0.0000 0.0000 0.0000
# 4 0.0000 0.0000 0.0000 139.1277 0.0000 0.0000
# 5 0.0000 0.0000 0.0000 0.0000 22.4599 0.0000
# 6 0.0000 0.0000 0.0000 0.0000 0.0000 18.3671
#
#
#
# Elastic Compliance Matrix: (Units=1/GPa)
#
#
# Indices 1 2 3 4 5 6 
#
# 1 0.043383 0.008569 -0.011614 0.000000 0.000000 0.000000
# 2 0.008569 0.013278 -0.003300 0.000000 0.000000 0.000000
# 3 -0.011614 -0.003300 0.009350 0.000000 0.000000 0.000000
# 4 0.000000 0.000000 0.000000 0.007188 0.000000 0.000000
# 5 0.000000 0.000000 0.000000 0.000000 0.044524 0.000000
# 6 0.000000 0.000000 0.000000 0.000000 0.000000 0.054445
#
#
# Mechanical properties :
#
#
# Convention : Reuss Voigt Hill
#
# Bulk Modulus (GPa) = 18.75421 41.03230 29.89325
# Shear Modulus (GPa) = 24.67524 52.34709 38.51117
#
# Velocity S-wave (km/s) = 3.61484 5.26507 4.51597
# Velocity P-wave (km/s) = 5.23012 7.66096 6.55914
#
# Compressibility (1/GPa) = 0.05332136
#
# Stress axis : x y z
#
# Youngs Moduli (GPa) = 23.05027 75.31360 106.94882
#
# Poissons Ratio (x) = -0.64535 1.24207
# Poissons Ratio (y) = -0.19751 0.35295
# Poissons Ratio (z) = 0.26770 0.24855
#
# Static dielectric constant tensor:
#      x y z
#    x 1.630080 0.000000 0.000000 
#    y 0.000000 1.634520 0.000000 
#    z 0.000000 0.000000 1.698610 
# 
# From -- ./inp_files/74233.got.cif
#   From: 2010.05.17/outbox.cif.g08.bks.cpg/sg63_38_cif.got.tgz:74233.got - 2010.06.03 15:47:04.
