data_PCOD9470874
_publ_section_title
;
Structure prediction by ZEFSAII (Michael W. Deem and Ramdas Pophale) SiO2 
 PCOD9470874
Probable space group: C M C M
;
_chemical_formula_sum "Si O2"
_cell_formula_units_Z 96
_cell_length_a 24.285312
_cell_length_b 11.677342
_cell_length_c 17.706085
_cell_angle_alpha 90.000000
_cell_angle_beta 90.000000
_cell_angle_gamma 90.000000
_cell_volume 5021.231353
_symmetry_space_group_name_H-M "C M C M"
_symmetry_group_IT_number 63
_symmetry_cell_setting 'orthorhombic'
loop_
_space_group_symop_operation_xyz
x,y,z
-x,-y,1/2+z
x,-y,-z
-x,y,1/2-z
-x,-y,-z
x,y,1/2-z
-x,y,z
x,-y,1/2+z
1/2+x,1/2+y,z
1/2-x,1/2-y,1/2+z
1/2+x,1/2-y,-z
1/2-x,1/2+y,1/2-z
1/2-x,1/2-y,-z
1/2+x,1/2+y,1/2-z
1/2-x,1/2+y,z
1/2+x,1/2-y,1/2+z
loop_
_atom_site_type_symbol
_atom_site_label
_atom_site_fract_x
_atom_site_fract_y
_atom_site_fract_z
Si Si1 0.788393 0.137592 0.515867
Si Si2 0.564562 0.077030 0.661580
Si Si3 0.851437 0.126094 0.834312
Si Si4 0.397678 0.247515 0.951305
Si Si5 0.059809 0.971237 0.589246
Si Si6 0.563551 0.812522 0.880667
O O1 0.750000 0.250000 0.500000
O O2 0.803894 0.139938 0.604237
O O3 0.843830 0.176750 0.471101
O O4 0.774402 0.000000 0.500000
O O5 0.574319 0.100180 0.750000
O O6 0.500000 0.104810 0.644526
O O7 0.606050 0.142616 0.605925
O O8 0.570004 0.942628 0.644652
O O9 0.831647 0.106691 0.750000
O O10 0.892013 0.234922 0.838648
O O11 0.891367 0.025723 0.863790
O O12 0.437273 0.335687 0.908813
O O13 0.423104 0.205402 0.030470
O O14 0.000000 0.013701 0.614121
O O15 0.065501 0.000000 0.500000
O O16 0.500000 0.779852 0.866706
#
# Coordination Sequence:
#
# PCOD9470874 Si02
#       6
#    16  16  16  16  16  16
#     4  11  24  47  70  91 117 160 216 276 333 389
#     4  10  21  34  50  83 129 169 206 252 309 377
#     4  11  22  38  61  92 126 159 203 260 325 383
#     4  11  20  37  60  86 118 160 215 257 314 379
#     4  11  19  33  59  91 129 166 202 243 299 385
#     4  10  19  33  55  84 126 172 211 248 295 376
#
# _framework density 19.118815999999999
#
# number of rings (size 3 to 8) (size 9 to 14) (size 15 to 20)
#    0.000    1.333    5.000    3.000    0.000    6.667 
#    0.000    1.667    0.000    0.000    0.000    0.000 
#    0.000    0.000    0.000    0.000    0.000    0.000 
#
# Total GULP energy -267503.165478 kJ/mol
# GULP energy per Si atom -5572.982614 kJ/mol
# Density = 1.907530 g / cm^3
# Si number density = 19.118816 Si / 1000 Ang^3
#
#
#
# Elastic Constant Matrix: (Units=GPa)
#
#
# Indices 1 2 3 4 5 6 
#
# 1 56.2649 23.7076 29.2488 0.0000 0.0000 0.0000
# 2 23.7076 64.6547 40.5958 0.0000 0.0000 0.0000
# 3 29.2488 40.5958 111.5612 0.0000 0.0000 0.0000
# 4 0.0000 0.0000 0.0000 -170.3913 0.0000 0.0000
# 5 0.0000 0.0000 0.0000 0.0000 8.8956 0.0000
# 6 0.0000 0.0000 0.0000 0.0000 0.0000 33.4261
#
#
#
# Elastic Compliance Matrix: (Units=1/GPa)
#
#
# Indices 1 2 3 4 5 6 
#
# 1 0.022136 -0.005798 -0.003694 0.000000 0.000000 0.000000
# 2 -0.005798 0.021566 -0.006327 0.000000 0.000000 0.000000
# 3 -0.003694 -0.006327 0.012235 0.000000 0.000000 0.000000
# 4 0.000000 0.000000 0.000000 -0.005869 0.000000 0.000000
# 5 0.000000 0.000000 0.000000 0.000000 0.112415 0.000000
# 6 0.000000 0.000000 0.000000 0.000000 0.000000 0.029917
#
#
# Mechanical properties :
#
#
# Convention : Reuss Voigt Hill
#
# Bulk Modulus (GPa) = 41.15485 46.62060 43.88772
# Shear Modulus (GPa) = 21.53902 -16.35200 2.59351
#
# Velocity S-wave (km/s) = 3.36011 -2.92769 1.16596
# Velocity P-wave (km/s) = 6.05197 3.60681 4.98174
#
# Compressibility (1/GPa) = 0.02429847
#
# Stress axis : x y z
#
# Youngs Moduli (GPa) = 45.17500 46.37024 81.73509
#
# Poissons Ratio (x) = 0.26883 0.30192
# Poissons Ratio (y) = 0.26190 0.51718
# Poissons Ratio (z) = 0.16687 0.29341
#
# Static dielectric constant tensor:
#      x y z
#    x 1.694010 0.000000 0.000000 
#    y 0.000000 1.746080 0.000000 
#    z 0.000000 0.000000 1.663360 
# 
# From -- ./inp_files/48005.got.cif
#   From: 2010.05.17/outbox.cif.g08.bks.cpg/sg63_25_cif.got.tgz:48005.got - 2010.06.03 15:47:04.
