data_PCOD9470198
_publ_section_title
;
Structure prediction by ZEFSAII (Michael W. Deem and Ramdas Pophale) SiO2 
 PCOD9470198
Probable space group: C M C M
;
_chemical_formula_sum "Si O2"
_cell_formula_units_Z 104
_cell_length_a 20.983794
_cell_length_b 29.290442
_cell_length_c 8.823104
_cell_angle_alpha 90.000000
_cell_angle_beta 90.000000
_cell_angle_gamma 90.000000
_cell_volume 5422.896776
_symmetry_space_group_name_H-M "C M C M"
_symmetry_group_IT_number 63
_symmetry_cell_setting 'orthorhombic'
loop_
_space_group_symop_operation_xyz
x,y,z
-x,-y,1/2+z
x,-y,-z
-x,y,1/2-z
-x,-y,-z
x,y,1/2-z
-x,y,z
x,-y,1/2+z
1/2+x,1/2+y,z
1/2-x,1/2-y,1/2+z
1/2+x,1/2-y,-z
1/2-x,1/2+y,1/2-z
1/2-x,1/2-y,-z
1/2+x,1/2+y,1/2-z
1/2-x,1/2+y,z
1/2+x,1/2-y,1/2+z
loop_
_atom_site_type_symbol
_atom_site_label
_atom_site_fract_x
_atom_site_fract_y
_atom_site_fract_z
Si Si1 0.572696 0.684472 0.920765
Si Si2 0.766474 0.950321 0.072125
Si Si3 0.679328 0.369087 0.925398
Si Si4 0.570718 0.205462 0.428143
Si Si5 0.136195 0.551329 0.067880
Si Si6 0.214168 0.294611 0.567233
Si Si7 0.000000 0.448673 0.932281
O O1 0.596334 0.674307 0.750000
O O2 0.500000 0.668759 0.933744
O O3 0.571763 0.739251 0.934619
O O4 0.617656 0.661077 0.041190
O O5 0.759362 0.955546 0.250000
O O6 0.819610 0.914181 0.026463
O O7 0.700687 0.930280 0.002573
O O8 0.776993 0.000000 0.000000
O O9 0.683804 0.382278 0.750000
O O10 0.738965 0.336579 0.962761
O O11 0.570292 0.191561 0.250000
O O12 0.500000 0.191220 0.489466
O O13 0.641876 0.194410 0.488704
O O14 0.141898 0.550095 0.250000
O O15 0.067881 0.573528 0.027107
O O16 0.133055 0.500000 0.000000
O O17 0.209649 0.287935 0.750000
O O18 0.250000 0.250000 0.500000
O O19 0.000000 0.453203 0.750000
O O20 0.000000 0.500000 0.000000
#
# Coordination Sequence:
#
# PCOD9470198 Si02
#       7
#    16  16  16  16  16  16   8
#     4   9  17  31  53  80 109 143 183 223 261 314
#     4  11  22  37  56  76 100 135 177 229 281 331
#     4  11  22  34  52  81 113 145 179 224 273 327
#     4   8  14  27  49  75 105 143 184 221 259 307
#     4   9  15  26  44  68  95 121 155 201 254 312
#     4  10  19  31  51  79 111 144 180 223 266 314
#     4   8  14  22  38  64  92 120 150 194 250 308
#
# _framework density 19.177941000000001
#
# number of rings (size 3 to 8) (size 9 to 14) (size 15 to 20)
#    0.000    2.462    1.538    4.154    0.000    1.538 
#    0.000    0.000    1.692    0.923    0.000    0.000 
#    0.000    0.000    0.000    0.000    0.000    0.000 
#
# Total GULP energy -289678.308474 kJ/mol
# GULP energy per Si atom -5570.736701 kJ/mol
# Density = 1.913429 g / cm^3
# Si number density = 19.177941 Si / 1000 Ang^3
#
#
#
# Elastic Constant Matrix: (Units=GPa)
#
#
# Indices 1 2 3 4 5 6 
#
# 1 74.9753 6.9589 11.5767 0.0000 0.0000 0.0000
# 2 6.9589 30.2027 23.8414 0.0000 0.0000 0.0000
# 3 11.5767 23.8414 51.5551 0.0000 0.0000 0.0000
# 4 0.0000 0.0000 0.0000 14.3009 0.0000 0.0000
# 5 0.0000 0.0000 0.0000 0.0000 26.8573 0.0000
# 6 0.0000 0.0000 0.0000 0.0000 0.0000 9.0008
#
#
#
# Elastic Compliance Matrix: (Units=1/GPa)
#
#
# Indices 1 2 3 4 5 6 
#
# 1 0.013842 -0.001159 -0.002572 0.000000 0.000000 0.000000
# 2 -0.001159 0.052242 -0.023899 0.000000 0.000000 0.000000
# 3 -0.002572 -0.023899 0.031026 0.000000 0.000000 0.000000
# 4 0.000000 0.000000 0.000000 0.069926 0.000000 0.000000
# 5 0.000000 0.000000 0.000000 0.000000 0.037234 0.000000
# 6 0.000000 0.000000 0.000000 0.000000 0.000000 0.111101
#
#
# Mechanical properties :
#
#
# Convention : Reuss Voigt Hill
#
# Bulk Modulus (GPa) = 23.89456 26.83191 25.36324
# Shear Modulus (GPa) = 13.00117 17.65554 15.32836
#
# Velocity S-wave (km/s) = 2.60652 3.03746 2.83020
# Velocity P-wave (km/s) = 4.64166 5.13059 4.89224
#
# Compressibility (1/GPa) = 0.04185053
#
# Stress axis : x y z
#
# Youngs Moduli (GPa) = 72.24138 19.14182 32.23088
#
# Poissons Ratio (x) = 0.02218 0.08291
# Poissons Ratio (y) = 0.08371 0.77027
# Poissons Ratio (z) = 0.18584 0.45746
#
# Static dielectric constant tensor:
#      x y z
#    x 1.749490 0.000000 0.000000 
#    y 0.000000 1.592070 0.000000 
#    z 0.000000 0.000000 1.720290 
# 
# From -- ./inp_files/9160.got.cif
#   From: 2010.05.17/outbox.cif.g08.bks.cpg/sg63_5_cif.got.tgz:9160.got - 2010.06.03 15:47:04.
