data_PCOD9470354
_publ_section_title
;
Structure prediction by ZEFSAII (Michael W. Deem and Ramdas Pophale) SiO2 
 PCOD9470354
Probable space group: C M C M
;
_chemical_formula_sum "Si O2"
_cell_formula_units_Z 96
_cell_length_a 25.205322
_cell_length_b 9.345543
_cell_length_c 23.669018
_cell_angle_alpha 90.000000
_cell_angle_beta 90.000000
_cell_angle_gamma 90.000000
_cell_volume 5575.412828
_symmetry_space_group_name_H-M "C M C M"
_symmetry_group_IT_number 63
_symmetry_cell_setting 'orthorhombic'
loop_
_space_group_symop_operation_xyz
x,y,z
-x,-y,1/2+z
x,-y,-z
-x,y,1/2-z
-x,-y,-z
x,y,1/2-z
-x,y,z
x,-y,1/2+z
1/2+x,1/2+y,z
1/2-x,1/2-y,1/2+z
1/2+x,1/2-y,-z
1/2-x,1/2+y,1/2-z
1/2-x,1/2-y,-z
1/2+x,1/2+y,1/2-z
1/2-x,1/2+y,z
1/2+x,1/2-y,1/2+z
loop_
_atom_site_type_symbol
_atom_site_label
_atom_site_fract_x
_atom_site_fract_y
_atom_site_fract_z
Si Si1 0.063261 0.444525 0.684199
Si Si2 0.310523 0.778323 0.480225
Si Si3 0.285755 0.018223 0.875010
Si Si4 0.364058 0.213387 0.685786
Si Si5 0.363206 0.784231 0.597337
Si Si6 0.663648 0.462009 0.605030
O O1 0.077558 0.402960 0.750000
O O2 0.088030 0.602520 0.675673
O O3 0.088920 0.350148 0.633976
O O4 0.000000 0.444468 0.680518
O O5 0.250000 0.750000 0.500000
O O6 0.304518 0.900517 0.432555
O O7 0.350501 0.815552 0.531126
O O8 0.329499 0.630840 0.451680
O O9 0.311496 0.119295 0.827792
O O10 0.312391 0.861928 0.873689
O O11 0.223278 0.999094 0.874626
O O12 0.364404 0.258572 0.750000
O O13 0.364219 0.351835 0.647011
O O14 0.364282 0.613721 0.600366
#
# Coordination Sequence:
#
# PCOD9470354 Si02
#       6
#    16  16  16  16  16  16
#     4   9  20  42  65  79  98 137 190 243 291 338
#     4  11  19  31  51  76 117 157 191 216 250 326
#     4  10  19  32  50  77 113 155 191 214 257 328
#     4   9  20  36  53  75 106 143 186 228 281 336
#     4  11  20  30  55  86 112 140 188 235 271 321
#     4  11  20  31  49  81 117 151 180 221 271 327
#
# _framework density 17.218456
#
# number of rings (size 3 to 8) (size 9 to 14) (size 15 to 20)
#    0.000    1.833    3.333    2.000    0.000    1.333 
#    0.000    4.167    0.000   22.000    0.000    0.000 
#    0.000    0.000    0.000    0.000    0.000    0.000 
#
# Total GULP energy -267398.816760 kJ/mol
# GULP energy per Si atom -5570.808682 kJ/mol
# Density = 1.717927 g / cm^3
# Si number density = 17.218456 Si / 1000 Ang^3
#
#
#
# Elastic Constant Matrix: (Units=GPa)
#
#
# Indices 1 2 3 4 5 6 
#
# 1 72.1758 18.9522 46.6983 0.0000 0.0000 0.0000
# 2 18.9522 108.4681 51.0868 0.0000 0.0000 0.0000
# 3 46.6983 51.0868 91.9011 0.0000 0.0000 0.0000
# 4 0.0000 0.0000 0.0000 23.1977 0.0000 0.0000
# 5 0.0000 0.0000 0.0000 0.0000 23.8993 0.0000
# 6 0.0000 0.0000 0.0000 0.0000 0.0000 6.9007
#
#
#
# Elastic Compliance Matrix: (Units=1/GPa)
#
#
# Indices 1 2 3 4 5 6 
#
# 1 0.020906 0.001829 -0.011640 0.000000 0.000000 0.000000
# 2 0.001829 0.012649 -0.007961 0.000000 0.000000 0.000000
# 3 -0.011640 -0.007961 0.021221 0.000000 0.000000 0.000000
# 4 0.000000 0.000000 0.000000 0.043108 0.000000 0.000000
# 5 0.000000 0.000000 0.000000 0.000000 0.041842 0.000000
# 6 0.000000 0.000000 0.000000 0.000000 0.000000 0.144913
#
#
# Mechanical properties :
#
#
# Convention : Reuss Voigt Hill
#
# Bulk Modulus (GPa) = 51.99359 56.22440 54.10900
# Shear Modulus (GPa) = 15.30951 21.18672 18.24811
#
# Velocity S-wave (km/s) = 2.98507 3.51160 3.25899
# Velocity P-wave (km/s) = 6.49175 7.01187 6.75682
#
# Compressibility (1/GPa) = 0.01923314
#
# Stress axis : x y z
#
# Youngs Moduli (GPa) = 47.83361 79.05619 47.12212
#
# Poissons Ratio (x) = -0.14463 0.54850
# Poissons Ratio (y) = -0.08751 0.37515
# Poissons Ratio (z) = 0.55678 0.62938
#
# Static dielectric constant tensor:
#      x y z
#    x 1.556060 0.000000 0.000000 
#    y 0.000000 1.608870 0.000000 
#    z 0.000000 0.000000 1.592730 
# 
# From -- ./inp_files/64991.got.cif
#   From: 2010.05.17/outbox.cif.g08.bks.cpg/sg63_33_cif.got.tgz:64991.got - 2010.06.03 15:47:04.
