data_PCOD9470121
_publ_section_title
;
Structure prediction by ZEFSAII (Michael W. Deem and Ramdas Pophale) SiO2 
 PCOD9470121
Probable space group: C M C M
;
_chemical_formula_sum "Si O2"
_cell_formula_units_Z 96
_cell_length_a 24.396457
_cell_length_b 13.804017
_cell_length_c 16.146087
_cell_angle_alpha 90.000000
_cell_angle_beta 90.000000
_cell_angle_gamma 90.000000
_cell_volume 5437.503303
_symmetry_space_group_name_H-M "C M C M"
_symmetry_group_IT_number 63
_symmetry_cell_setting 'orthorhombic'
loop_
_space_group_symop_operation_xyz
x,y,z
-x,-y,1/2+z
x,-y,-z
-x,y,1/2-z
-x,-y,-z
x,y,1/2-z
-x,y,z
x,-y,1/2+z
1/2+x,1/2+y,z
1/2-x,1/2-y,1/2+z
1/2+x,1/2-y,-z
1/2-x,1/2+y,1/2-z
1/2-x,1/2-y,-z
1/2+x,1/2+y,1/2-z
1/2-x,1/2+y,z
1/2+x,1/2-y,1/2+z
loop_
_atom_site_type_symbol
_atom_site_label
_atom_site_fract_x
_atom_site_fract_y
_atom_site_fract_z
Si Si1 0.672134 0.706461 0.076296
Si Si2 0.670358 0.903070 0.655537
Si Si3 0.716135 0.519682 0.152653
Si Si4 0.062739 0.290760 0.348268
Si Si5 0.558855 0.977413 0.849265
Si Si6 0.286180 0.298125 0.387937
O O1 0.677002 0.596044 0.107995
O O2 0.612514 0.746405 0.099430
O O3 0.721498 0.770045 0.117376
O O4 0.690037 0.707516 0.980813
O O5 0.667337 0.940362 0.750000
O O6 0.723099 0.955833 0.617270
O O7 0.683026 0.789551 0.657044
O O8 0.612434 0.926566 0.614787
O O9 0.715745 0.544217 0.250000
O O10 0.704724 0.406688 0.142658
O O11 0.071210 0.269612 0.250000
O O12 0.064549 0.407187 0.357368
O O13 0.000000 0.260303 0.369389
O O14 0.556710 0.956973 0.750000
O O15 0.500000 0.947094 0.884909
#
# Coordination Sequence:
#
# PCOD9470121 Si02
#       6
#    16  16  16  16  16  16
#     4  10  20  33  49  71 100 130 158 194 247 301
#     4   9  17  29  47  71  96 125 163 201 237 283
#     4  10  19  31  50  72  93 123 164 206 243 283
#     4   9  17  31  53  77  98 125 166 213 252 285
#     4   8  14  26  46  71  97 124 154 192 236 278
#     4  10  20  32  47  70 102 133 157 191 243 300
#
# _framework density 17.655162000000001
#
# number of rings (size 3 to 8) (size 9 to 14) (size 15 to 20)
#    0.000    2.667    0.000    3.500    0.000    3.333 
#    0.000    3.333    0.000    5.000    0.000    2.333 
#    0.000    0.000    0.000    0.000    0.000    0.000 
#
# Total GULP energy -267359.299695 kJ/mol
# GULP energy per Si atom -5569.985410 kJ/mol
# Density = 1.761498 g / cm^3
# Si number density = 17.655162 Si / 1000 Ang^3
#
#
#
# Elastic Constant Matrix: (Units=GPa)
#
#
# Indices 1 2 3 4 5 6 
#
# 1 141.9885 36.9981 20.9248 0.0000 0.0000 0.0000
# 2 36.9981 55.2794 -1.6069 0.0000 0.0000 0.0000
# 3 20.9248 -1.6069 24.4025 0.0000 0.0000 0.0000
# 4 0.0000 0.0000 0.0000 17.5906 0.0000 0.0000
# 5 0.0000 0.0000 0.0000 0.0000 16.4522 0.0000
# 6 0.0000 0.0000 0.0000 0.0000 0.0000 18.7498
#
#
#
# Elastic Compliance Matrix: (Units=1/GPa)
#
#
# Indices 1 2 3 4 5 6 
#
# 1 0.010272 -0.007145 -0.009278 0.000000 0.000000 0.000000
# 2 -0.007145 0.023094 0.007647 0.000000 0.000000 0.000000
# 3 -0.009278 0.007647 0.049439 0.000000 0.000000 0.000000
# 4 0.000000 0.000000 0.000000 0.056848 0.000000 0.000000
# 5 0.000000 0.000000 0.000000 0.000000 0.060782 0.000000
# 6 0.000000 0.000000 0.000000 0.000000 0.000000 0.053334
#
#
# Mechanical properties :
#
#
# Convention : Reuss Voigt Hill
#
# Bulk Modulus (GPa) = 15.32495 37.14472 26.23484
# Shear Modulus (GPa) = 17.06063 21.58215 19.32139
#
# Velocity S-wave (km/s) = 3.11195 3.50012 3.31172
# Velocity P-wave (km/s) = 4.64880 6.11712 5.43279
#
# Compressibility (1/GPa) = 0.06525307
#
# Stress axis : x y z
#
# Youngs Moduli (GPa) = 97.35339 43.30125 20.22694
#
# Poissons Ratio (x) = 0.30937 0.18767
# Poissons Ratio (y) = 0.69555 -0.15468
# Poissons Ratio (z) = 0.90329 -0.33113
#
# Static dielectric constant tensor:
#      x y z
#    x 1.649500 0.000000 0.000000 
#    y 0.000000 1.575310 0.000000 
#    z 0.000000 0.000000 1.632780 
# 
# From -- ./inp_files/48036.got.cif
#   From: 2010.05.17/outbox.cif.g08.bks.cpg/sg63_25_cif.got.tgz:48036.got - 2010.06.03 15:47:04.
