data_PCOD9470285
_publ_section_title
;
Structure prediction by ZEFSAII (Michael W. Deem and Ramdas Pophale) SiO2 
 PCOD9470285
Probable space group: C M C M
;
_chemical_formula_sum "Si O2"
_cell_formula_units_Z 96
_cell_length_a 21.172456
_cell_length_b 29.833739
_cell_length_c 7.459686
_cell_angle_alpha 90.000000
_cell_angle_beta 90.000000
_cell_angle_gamma 90.000000
_cell_volume 4711.936967
_symmetry_space_group_name_H-M "C M C M"
_symmetry_group_IT_number 63
_symmetry_cell_setting 'orthorhombic'
loop_
_space_group_symop_operation_xyz
x,y,z
-x,-y,1/2+z
x,-y,-z
-x,y,1/2-z
-x,-y,-z
x,y,1/2-z
-x,y,z
x,-y,1/2+z
1/2+x,1/2+y,z
1/2-x,1/2-y,1/2+z
1/2+x,1/2-y,-z
1/2-x,1/2+y,1/2-z
1/2-x,1/2-y,-z
1/2+x,1/2+y,1/2-z
1/2-x,1/2+y,z
1/2+x,1/2-y,1/2+z
loop_
_atom_site_type_symbol
_atom_site_label
_atom_site_fract_x
_atom_site_fract_y
_atom_site_fract_z
Si Si1 0.567018 0.947422 0.035829
Si Si2 0.158141 0.787351 0.461357
Si Si3 0.330640 0.447191 0.464445
Si Si4 0.700293 0.195232 0.534292
Si Si5 0.072879 0.130137 0.969517
Si Si6 0.196704 0.592993 0.969427
O O1 0.567812 0.939864 0.250000
O O2 0.500000 0.928269 0.967938
O O3 0.633531 0.930667 0.965182
O O4 0.565379 0.000000 0.000000
O O5 0.161808 0.796515 0.250000
O O6 0.228803 0.794776 0.535888
O O7 0.150772 0.733895 0.482183
O O8 0.107960 0.823793 0.528823
O O9 0.340439 0.500000 0.500000
O O10 0.329606 0.442450 0.250000
O O11 0.385196 0.412800 0.527200
O O12 0.262133 0.429753 0.530380
O O13 0.702048 0.195979 0.750000
O O14 0.688986 0.144611 0.478204
O O15 0.071984 0.130043 0.750000
O O16 0.000000 0.128061 0.027631
O O17 0.198610 0.591336 0.750000
#
# Coordination Sequence:
#
# PCOD9470285 Si02
#       6
#    16  16  16  16  16  16
#     4   9  17  29  45  64  87 118 153 185 221 269
#     4   9  16  29  48  70  91 116 152 189 224 267
#     4  10  19  32  49  70  94 122 159 200 238 276
#     4   9  16  28  48  70  92 118 148 185 228 273
#     4   9  17  31  51  70  92 127 165 194 228 282
#     4   9  16  29  48  68  92 123 154 186 227 279
#
# _framework density 20.373787
#
# number of rings (size 3 to 8) (size 9 to 14) (size 15 to 20)
#    0.000    2.833    1.667    0.500    0.000    0.333 
#    0.000    3.333    0.000    2.500    0.000    0.000 
#    0.000    0.000    0.000    0.000    0.000    0.000 
#
# Total GULP energy -267418.679523 kJ/mol
# GULP energy per Si atom -5571.222490 kJ/mol
# Density = 2.032742 g / cm^3
# Si number density = 20.373787 Si / 1000 Ang^3
#
#
#
# Elastic Constant Matrix: (Units=GPa)
#
#
# Indices 1 2 3 4 5 6 
#
# 1 193.1089 113.4627 9.4502 0.0000 0.0000 0.0000
# 2 113.4627 166.3513 -3.2735 0.0000 0.0000 0.0000
# 3 9.4502 -3.2735 58.9088 0.0000 0.0000 0.0000
# 4 0.0000 0.0000 0.0000 20.9076 0.0000 0.0000
# 5 0.0000 0.0000 0.0000 0.0000 -11.5917 0.0000
# 6 0.0000 0.0000 0.0000 0.0000 0.0000 31.6236
#
#
#
# Elastic Compliance Matrix: (Units=1/GPa)
#
#
# Indices 1 2 3 4 5 6 
#
# 1 0.008818 -0.006049 -0.001751 0.000000 0.000000 0.000000
# 2 -0.006049 0.010167 0.001535 0.000000 0.000000 0.000000
# 3 -0.001751 0.001535 0.017342 0.000000 0.000000 0.000000
# 4 0.000000 0.000000 0.000000 0.047829 0.000000 0.000000
# 5 0.000000 0.000000 0.000000 0.000000 -0.086268 0.000000
# 6 0.000000 0.000000 0.000000 0.000000 0.000000 0.031622
#
#
# Mechanical properties :
#
#
# Convention : Reuss Voigt Hill
#
# Bulk Modulus (GPa) = 42.01969 73.07197 57.54583
# Shear Modulus (GPa) = 100.05595 28.10322 64.07959
#
# Velocity S-wave (km/s) = 7.01547 3.71803 5.61429
# Velocity P-wave (km/s) = 9.28932 7.37396 8.38650
#
# Compressibility (1/GPa) = 0.02379836
#
# Stress axis : x y z
#
# Youngs Moduli (GPa) = 113.40026 98.35260 57.66490
#
# Poissons Ratio (x) = 0.59495 0.10096
# Poissons Ratio (y) = 0.68597 -0.08854
# Poissons Ratio (z) = 0.19854 -0.15101
#
# Static dielectric constant tensor:
#      x y z
#    x 1.725390 0.000000 0.000000 
#    y 0.000000 1.746630 0.000000 
#    z 0.000000 0.000000 1.791400 
# 
# From -- ./inp_files/21538.got.cif
#   From: 2010.05.17/outbox.cif.g08.bks.cpg/sg63_11_cif.got.tgz:21538.got - 2010.06.03 15:47:04.
