data_PCOD9470219
_publ_section_title
;
Structure prediction by ZEFSAII (Michael W. Deem and Ramdas Pophale) SiO2 
 PCOD9470219
Probable space group: C M C M
;
_chemical_formula_sum "Si O2"
_cell_formula_units_Z 80
_cell_length_a 8.978256
_cell_length_b 19.958087
_cell_length_c 26.202707
_cell_angle_alpha 90.000000
_cell_angle_beta 90.000000
_cell_angle_gamma 90.000000
_cell_volume 4695.232000
_symmetry_space_group_name_H-M "C M C M"
_symmetry_group_IT_number 63
_symmetry_cell_setting 'orthorhombic'
loop_
_space_group_symop_operation_xyz
x,y,z
-x,-y,1/2+z
x,-y,-z
-x,y,1/2-z
-x,-y,-z
x,y,1/2-z
-x,y,z
x,-y,1/2+z
1/2+x,1/2+y,z
1/2-x,1/2-y,1/2+z
1/2+x,1/2-y,-z
1/2-x,1/2+y,1/2-z
1/2-x,1/2-y,-z
1/2+x,1/2+y,1/2-z
1/2-x,1/2+y,z
1/2+x,1/2-y,1/2+z
loop_
_atom_site_type_symbol
_atom_site_label
_atom_site_fract_x
_atom_site_fract_y
_atom_site_fract_z
Si Si1 0.322448 0.675408 0.690338
Si Si2 0.821903 0.180799 0.308934
Si Si3 0.670974 0.081301 0.496583
Si Si4 0.179271 0.575755 0.890276
Si Si5 0.677650 0.570771 0.107059
O O1 0.289604 0.660780 0.750000
O O2 0.500000 0.672405 0.683369
O O3 0.262877 0.750213 0.680090
O O4 0.242606 0.623270 0.653311
O O5 0.791167 0.161744 0.250000
O O6 0.781643 0.122449 0.348281
O O7 0.000000 0.192564 0.313275
O O8 0.500000 0.102510 0.487950
O O9 0.721123 0.102862 0.553013
O O10 0.770208 0.098551 0.447985
O O11 0.670630 0.000000 0.500000
O O12 0.244545 0.500998 0.885028
O O13 0.000000 0.572502 0.888928
O O14 0.500000 0.561442 0.107135
#
# Coordination Sequence:
#
# PCOD9470219 Si02
#       5
#    16  16  16  16  16
#     4  10  21  36  54  76 101 130 167 211 255 299
#     4   9  19  36  54  72 100 136 168 202 250 304
#     4   8  16  31  49  71 101 135 168 205 250 298
#     4  10  20  34  53  76 103 136 171 206 249 301
#     4  10  19  31  52  80 105 132 169 211 253 297
#
# _framework density 17.038561999999999
#
# number of rings (size 3 to 8) (size 9 to 14) (size 15 to 20)
#    0.000    2.600    0.000    3.000    0.000    8.000 
#    0.000    3.000    0.000    0.000    0.000    0.000 
#    0.000    0.000    0.000    0.000    0.000    0.000 
#
# Total GULP energy -223017.851342 kJ/mol
# GULP energy per Si atom -5575.446284 kJ/mol
# Density = 1.699978 g / cm^3
# Si number density = 17.038562 Si / 1000 Ang^3
#
#
#
# Elastic Constant Matrix: (Units=GPa)
#
#
# Indices 1 2 3 4 5 6 
#
# 1 61.5317 52.5112 73.1197 0.0000 0.0000 0.0000
# 2 52.5112 83.0557 94.7739 0.0000 0.0000 0.0000
# 3 73.1197 94.7739 152.0487 0.0000 0.0000 0.0000
# 4 0.0000 0.0000 0.0000 -30.2533 0.0000 0.0000
# 5 0.0000 0.0000 0.0000 0.0000 31.1445 0.0000
# 6 0.0000 0.0000 0.0000 0.0000 0.0000 26.0551
#
#
#
# Elastic Compliance Matrix: (Units=1/GPa)
#
#
# Indices 1 2 3 4 5 6 
#
# 1 0.041045 -0.011869 -0.012340 0.000000 0.000000 0.000000
# 2 -0.011869 0.045130 -0.022423 0.000000 0.000000 0.000000
# 3 -0.012340 -0.022423 0.026488 0.000000 0.000000 0.000000
# 4 0.000000 0.000000 0.000000 -0.033054 0.000000 0.000000
# 5 0.000000 0.000000 0.000000 0.000000 0.032108 0.000000
# 6 0.000000 0.000000 0.000000 0.000000 0.000000 0.038380
#
#
# Mechanical properties :
#
#
# Convention : Reuss Voigt Hill
#
# Bulk Modulus (GPa) = 51.54846 81.93840 66.74343
# Shear Modulus (GPa) = 20.01378 10.47132 15.24255
#
# Velocity S-wave (km/s) = 3.43099 2.48173 2.99422
# Velocity P-wave (km/s) = 6.78345 7.51042 7.15617
#
# Compressibility (1/GPa) = 0.01939922
#
# Stress axis : x y z
#
# Youngs Moduli (GPa) = 24.36338 22.15806 37.75352
#
# Poissons Ratio (x) = 0.26299 0.46590
# Poissons Ratio (y) = 0.28917 0.84653
# Poissons Ratio (z) = 0.30065 0.49684
#
# Static dielectric constant tensor:
#      x y z
#    x 1.569150 0.000000 0.000000 
#    y 0.000000 1.539200 0.000000 
#    z 0.000000 0.000000 1.593260 
# 
# From -- ./inp_files/71568.got.cif
#   From: 2010.05.17/outbox.cif.g08.bks.cpg/sg63_36_cif.got.tgz:71568.got - 2010.06.03 15:47:04.
