data_PCOD9470757
_publ_section_title
;
Structure prediction by ZEFSAII (Michael W. Deem and Ramdas Pophale) SiO2 
 PCOD9470757
Probable space group: C M C M
;
_chemical_formula_sum "Si O2"
_cell_formula_units_Z 96
_cell_length_a 7.842854
_cell_length_b 31.439304
_cell_length_c 21.867972
_cell_angle_alpha 90.000000
_cell_angle_beta 90.000000
_cell_angle_gamma 90.000000
_cell_volume 5392.070510
_symmetry_space_group_name_H-M "C M C M"
_symmetry_group_IT_number 63
_symmetry_cell_setting 'orthorhombic'
loop_
_space_group_symop_operation_xyz
x,y,z
-x,-y,1/2+z
x,-y,-z
-x,y,1/2-z
-x,-y,-z
x,y,1/2-z
-x,y,z
x,-y,1/2+z
1/2+x,1/2+y,z
1/2-x,1/2-y,1/2+z
1/2+x,1/2-y,-z
1/2-x,1/2+y,1/2-z
1/2-x,1/2-y,-z
1/2+x,1/2+y,1/2-z
1/2-x,1/2+y,z
1/2+x,1/2-y,1/2+z
loop_
_atom_site_type_symbol
_atom_site_label
_atom_site_fract_x
_atom_site_fract_y
_atom_site_fract_z
Si Si1 0.500000 0.469505 0.939968
Si Si2 0.808416 0.584513 0.484743
Si Si3 0.199628 0.243047 0.586805
Si Si4 0.297913 0.914199 0.129449
Si Si5 0.500000 0.471865 0.320571
Si Si6 0.198028 0.179538 0.480937
Si Si7 0.295008 0.822889 0.180565
O O1 0.332943 0.440388 0.947066
O O2 0.500000 0.493838 0.875510
O O3 0.500000 0.500000 0.000000
O O4 0.777178 0.577214 0.557231
O O5 0.792593 0.635159 0.474584
O O6 0.000000 0.570248 0.470472
O O7 0.265985 0.208579 0.536936
O O8 0.287073 0.288215 0.575952
O O9 0.224198 0.219711 0.650593
O O10 0.000000 0.249251 0.574416
O O11 0.500000 0.919582 0.144696
O O12 0.250128 0.865118 0.142598
O O13 0.168996 0.943405 0.167187
O O14 0.500000 0.486879 0.250000
O O15 0.000000 0.169586 0.493141
O O16 0.237842 0.828698 0.250000
O O17 0.500000 0.819862 0.179671
#
# Coordination Sequence:
#
# PCOD9470757 Si02
#       7
#     8  16  16  16   8  16  16
#     4  12  24  42  62  90 124 150 200 256 302 364
#     4  11  21  36  63  90 121 158 192 244 307 358
#     4  10  20  30  49  78 112 150 193 236 276 332
#     4  10  21  37  59  88 122 159 195 238 298 369
#     4  12  26  42  64  88 120 160 202 246 302 370
#     4  10  19  33  53  79 115 150 187 236 289 337
#     4  10  20  33  49  74 114 157 193 232 287 349
#
# _framework density 17.803922
#
# number of rings (size 3 to 8) (size 9 to 14) (size 15 to 20)
#    0.000    1.500    4.167    1.500    1.167    3.667 
#    0.000    0.000    0.000    1.000    0.000    0.000 
#    0.000    0.000    0.000    0.000    0.000    0.000 
#
# Total GULP energy -267984.319544 kJ/mol
# GULP energy per Si atom -5583.006657 kJ/mol
# Density = 1.776340 g / cm^3
# Si number density = 17.803922 Si / 1000 Ang^3
#
#
#
# Elastic Constant Matrix: (Units=GPa)
#
#
# Indices 1 2 3 4 5 6 
#
# 1 75.4857 29.4412 31.3600 0.0000 0.0000 0.0000
# 2 29.4412 66.5051 32.2941 0.0000 0.0000 0.0000
# 3 31.3600 32.2941 75.3992 0.0000 0.0000 0.0000
# 4 0.0000 0.0000 0.0000 22.4723 0.0000 0.0000
# 5 0.0000 0.0000 0.0000 0.0000 14.9528 0.0000
# 6 0.0000 0.0000 0.0000 0.0000 0.0000 23.2149
#
#
#
# Elastic Compliance Matrix: (Units=1/GPa)
#
#
# Indices 1 2 3 4 5 6 
#
# 1 0.017368 -0.005279 -0.004963 0.000000 0.000000 0.000000
# 2 -0.005279 0.020589 -0.006623 0.000000 0.000000 0.000000
# 3 -0.004963 -0.006623 0.018164 0.000000 0.000000 0.000000
# 4 0.000000 0.000000 0.000000 0.044499 0.000000 0.000000
# 5 0.000000 0.000000 0.000000 0.000000 0.066877 0.000000
# 6 0.000000 0.000000 0.000000 0.000000 0.000000 0.043076
#
#
# Mechanical properties :
#
#
# Convention : Reuss Voigt Hill
#
# Bulk Modulus (GPa) = 44.65924 44.84230 44.75077
# Shear Modulus (GPa) = 19.85967 20.41432 20.13700
#
# Velocity S-wave (km/s) = 3.34348 3.38985 3.36675
# Velocity P-wave (km/s) = 6.32800 6.36890 6.34848
#
# Compressibility (1/GPa) = 0.02239178
#
# Stress axis : x y z
#
# Youngs Moduli (GPa) = 57.57660 48.56867 55.05520
#
# Poissons Ratio (x) = 0.25639 0.27323
# Poissons Ratio (y) = 0.30394 0.36463
# Poissons Ratio (z) = 0.28574 0.32167
#
# Static dielectric constant tensor:
#      x y z
#    x 1.503690 0.000000 0.000000 
#    y 0.000000 1.600350 0.000000 
#    z 0.000000 0.000000 1.611400 
# 
# From -- ./inp_files/60287.got.cif
#   From: 2010.05.17/outbox.cif.g08.bks.cpg/sg63_31_cif.got.tgz:60287.got - 2010.06.03 15:47:04.
