data_PCOD9470002
_publ_section_title
;
Structure prediction by ZEFSAII (Michael W. Deem and Ramdas Pophale) SiO2 
 PCOD9470002
Probable space group: C M C M
;
_chemical_formula_sum "Si O2"
_cell_formula_units_Z 80
_cell_length_a 28.259407
_cell_length_b 7.354631
_cell_length_c 15.979737
_cell_angle_alpha 90.000000
_cell_angle_beta 90.000000
_cell_angle_gamma 90.000000
_cell_volume 3321.188761
_symmetry_space_group_name_H-M "C M C M"
_symmetry_group_IT_number 63
_symmetry_cell_setting 'orthorhombic'
loop_
_space_group_symop_operation_xyz
x,y,z
-x,-y,1/2+z
x,-y,-z
-x,y,1/2-z
-x,-y,-z
x,y,1/2-z
-x,y,z
x,-y,1/2+z
1/2+x,1/2+y,z
1/2-x,1/2-y,1/2+z
1/2+x,1/2-y,-z
1/2-x,1/2+y,1/2-z
1/2-x,1/2-y,-z
1/2+x,1/2+y,1/2-z
1/2-x,1/2+y,z
1/2+x,1/2-y,1/2+z
loop_
_atom_site_type_symbol
_atom_site_label
_atom_site_fract_x
_atom_site_fract_y
_atom_site_fract_z
Si Si1 0.403269 0.915332 0.907357
Si Si2 0.000000 0.370789 0.849034
Si Si3 0.295988 0.710738 0.344612
Si Si4 0.000000 0.194514 0.351919
Si Si5 0.898107 0.818547 0.847047
Si Si6 0.698003 0.091570 0.091125
O O1 0.450283 0.805460 0.885879
O O2 0.401354 0.097137 0.850239
O O3 0.353033 0.813236 0.899241
O O4 0.406985 0.000000 0.000000
O O5 0.000000 0.588190 0.868445
O O6 0.000000 0.342701 0.750000
O O7 0.290387 0.640221 0.250000
O O8 0.345770 0.638128 0.382558
O O9 0.302133 0.926829 0.343592
O O10 0.247756 0.686732 0.395414
O O11 0.949120 0.122644 0.383113
O O12 0.000000 0.174171 0.250000
O O13 0.896535 0.875322 0.750000
O O14 0.697207 0.000000 0.000000
#
# Coordination Sequence:
#
# PCOD9470002 Si02
#       6
#    16   8  16   8  16  16
#     4   9  16  25  39  60  86 115 148 185 226 275
#     4   9  15  23  37  57  84 115 144 179 226 274
#     4  10  19  31  48  70  94 121 157 197 234 280
#     4   7  10  19  35  55  79 105 133 173 224 264
#     4   8  14  24  39  60  85 111 142 184 231 272
#     4  10  20  33  48  68  96 128 159 194 239 285
#
# _framework density 24.087759999999999
#
# number of rings (size 3 to 8) (size 9 to 14) (size 15 to 20)
#    0.000    3.000    0.000    3.300    0.000    2.400 
#    0.000    0.000    0.000    0.000    0.000    2.100 
#    0.000    1.600    0.000    0.000    0.000    0.000 
#
# Total GULP energy -222753.740366 kJ/mol
# GULP energy per Si atom -5568.843509 kJ/mol
# Density = 2.403294 g / cm^3
# Si number density = 24.087760 Si / 1000 Ang^3
#
#
#
# Elastic Constant Matrix: (Units=GPa)
#
#
# Indices 1 2 3 4 5 6 
#
# 1 311.3398 11.8867 38.3518 0.0000 0.0000 0.0000
# 2 11.8867 42.4559 -3.5427 0.0000 0.0000 0.0000
# 3 38.3518 -3.5427 57.0180 0.0000 0.0000 0.0000
# 4 0.0000 0.0000 0.0000 -0.8918 0.0000 0.0000
# 5 0.0000 0.0000 0.0000 0.0000 360.5709 0.0000
# 6 0.0000 0.0000 0.0000 0.0000 0.0000 0.9774
#
#
#
# Elastic Compliance Matrix: (Units=1/GPa)
#
#
# Indices 1 2 3 4 5 6 
#
# 1 0.003562 -0.001204 -0.002471 0.000000 0.000000 0.000000
# 2 -0.001204 0.024083 0.002306 0.000000 0.000000 0.000000
# 3 -0.002471 0.002306 0.019344 0.000000 0.000000 0.000000
# 4 0.000000 0.000000 0.000000 -1.121378 0.000000 0.000000
# 5 0.000000 0.000000 0.000000 0.000000 0.002773 0.000000
# 6 0.000000 0.000000 0.000000 0.000000 0.000000 1.023105
#
#
# Mechanical properties :
#
#
# Convention : Reuss Voigt Hill
#
# Bulk Modulus (GPa) = 22.59784 56.02281 39.31033
# Shear Modulus (GPa) = -161.16924 96.40585 -32.38170
#
# Velocity S-wave (km/s) = -8.18868 6.33322 -3.67048
# Velocity P-wave (km/s) = 8.94450 8.76287 1.26813
#
# Compressibility (1/GPa) = 0.04425202
#
# Stress axis : x y z
#
# Youngs Moduli (GPa) = 280.72245 41.52267 51.69690
#
# Poissons Ratio (x) = 0.04997 0.12773
# Poissons Ratio (y) = 0.33786 -0.11921
# Poissons Ratio (z) = 0.69362 -0.09575
#
# Static dielectric constant tensor:
#      x y z
#    x 2.073080 0.000000 0.000000 
#    y 0.000000 1.972370 0.000000 
#    z 0.000000 0.000000 1.926180 
# 
# From -- ./inp_files/37726.got.cif
#   From: 2010.05.17/outbox.cif.g08.bks.cpg/sg63_19_cif.got.tgz:37726.got - 2010.06.03 15:47:04.
