data_PCOD9470602
_publ_section_title
;
Structure prediction by ZEFSAII (Michael W. Deem and Ramdas Pophale) SiO2 
 PCOD9470602
Probable space group: C M C M
;
_chemical_formula_sum "Si O2"
_cell_formula_units_Z 88
_cell_length_a 13.802933
_cell_length_b 21.943082
_cell_length_c 15.640969
_cell_angle_alpha 90.000000
_cell_angle_beta 90.000000
_cell_angle_gamma 90.000000
_cell_volume 4737.319340
_symmetry_space_group_name_H-M "C M C M"
_symmetry_group_IT_number 63
_symmetry_cell_setting 'orthorhombic'
loop_
_space_group_symop_operation_xyz
x,y,z
-x,-y,1/2+z
x,-y,-z
-x,y,1/2-z
-x,-y,-z
x,y,1/2-z
-x,y,z
x,-y,1/2+z
1/2+x,1/2+y,z
1/2-x,1/2-y,1/2+z
1/2+x,1/2-y,-z
1/2-x,1/2+y,1/2-z
1/2-x,1/2-y,-z
1/2+x,1/2+y,1/2-z
1/2-x,1/2+y,z
1/2+x,1/2-y,1/2+z
loop_
_atom_site_type_symbol
_atom_site_label
_atom_site_fract_x
_atom_site_fract_y
_atom_site_fract_z
Si Si1 0.729338 0.969645 0.415506
Si Si2 0.386338 0.365970 0.434024
Si Si3 0.118100 0.584993 0.750000
Si Si4 0.103958 0.189976 0.750000
Si Si5 0.111105 0.799391 0.591336
Si Si6 0.106173 0.059807 0.148448
Si Si7 0.691320 0.774310 0.250000
O O1 0.802879 0.915845 0.445207
O O2 0.662039 0.946469 0.336828
O O3 0.680636 0.000000 0.500000
O O4 0.804618 0.020003 0.381587
O O5 0.500000 0.381776 0.455477
O O6 0.387956 0.350615 0.334323
O O7 0.358404 0.307525 0.492496
O O8 0.156632 0.655197 0.750000
O O9 0.000000 0.583515 0.750000
O O10 0.194003 0.233278 0.750000
O O11 0.000000 0.221092 0.750000
O O12 0.116147 0.869649 0.622774
O O13 0.157835 0.757492 0.662680
O O14 0.000000 0.779593 0.589482
O O15 0.104181 0.056836 0.250000
O O16 0.000000 0.037205 0.117436
#
# Coordination Sequence:
#
# PCOD9470602 Si02
#       7
#    16  16   8   8  16  16   8
#     4  12  22  38  65  93 125 162 197 242 319 377
#     4  10  20  36  58  94 130 155 192 244 307 373
#     4  12  28  47  61  85 119 160 218 263 295 351
#     4  10  22  40  58  83 122 162 202 247 302 361
#     4  10  20  34  59  94 124 155 198 251 300 354
#     4  10  19  32  56  94 132 158 190 241 308 378
#     4  12  22  41  67  84 117 168 208 252 303 352
#
# _framework density 18.575907000000001
#
# number of rings (size 3 to 8) (size 9 to 14) (size 15 to 20)
#    0.000    1.273    5.455    1.364    0.000    1.818 
#    0.000    0.000    0.000    2.182    0.000    0.000 
#    0.000    0.000    0.000    0.000    0.000    0.000 
#
# Total GULP energy -245115.536640 kJ/mol
# GULP energy per Si atom -5570.807651 kJ/mol
# Density = 1.853363 g / cm^3
# Si number density = 18.575907 Si / 1000 Ang^3
#
#
#
# Elastic Constant Matrix: (Units=GPa)
#
#
# Indices 1 2 3 4 5 6 
#
# 1 86.7490 30.1153 51.2364 0.0000 0.0000 0.0000
# 2 30.1153 55.7029 50.3207 0.0000 0.0000 0.0000
# 3 51.2364 50.3207 157.4602 0.0000 0.0000 0.0000
# 4 0.0000 0.0000 0.0000 33.6693 0.0000 0.0000
# 5 0.0000 0.0000 0.0000 0.0000 -7.4456 0.0000
# 6 0.0000 0.0000 0.0000 0.0000 0.0000 27.6719
#
#
#
# Elastic Compliance Matrix: (Units=1/GPa)
#
#
# Indices 1 2 3 4 5 6 
#
# 1 0.015311 -0.005310 -0.003285 0.000000 0.000000 0.000000
# 2 -0.005310 0.027080 -0.006926 0.000000 0.000000 0.000000
# 3 -0.003285 -0.006926 0.009633 0.000000 0.000000 0.000000
# 4 0.000000 0.000000 0.000000 0.029701 0.000000 0.000000
# 5 0.000000 0.000000 0.000000 0.000000 -0.134307 0.000000
# 6 0.000000 0.000000 0.000000 0.000000 0.000000 0.036138
#
#
# Mechanical properties :
#
#
# Convention : Reuss Voigt Hill
#
# Bulk Modulus (GPa) = 47.66097 62.58409 55.12253
# Shear Modulus (GPa) = 231.55140 21.99512 126.77326
#
# Velocity S-wave (km/s) = 11.17685 3.44476 8.27008
# Velocity P-wave (km/s) = 13.86636 7.04173 10.99686
#
# Compressibility (1/GPa) = 0.02098153
#
# Stress axis : x y z
#
# Youngs Moduli (GPa) = 65.31143 36.92709 103.80671
#
# Poissons Ratio (x) = 0.19609 0.34102
# Poissons Ratio (y) = 0.34681 0.71900
# Poissons Ratio (z) = 0.21456 0.25577
#
# Static dielectric constant tensor:
#      x y z
#    x 1.671310 0.000000 0.000000 
#    y 0.000000 1.643710 0.000000 
#    z 0.000000 0.000000 1.776450 
# 
# From -- ./inp_files/31818.got.cif
#   From: 2010.05.17/outbox.cif.g08.bks.cpg/sg63_16_cif.got.tgz:31818.got - 2010.06.03 15:47:04.
