data_PCOD9470746
_publ_section_title
;
Structure prediction by ZEFSAII (Michael W. Deem and Ramdas Pophale) SiO2 
 PCOD9470746
Probable space group: C M C M
;
_chemical_formula_sum "Si O2"
_cell_formula_units_Z 96
_cell_length_a 12.672740
_cell_length_b 17.765816
_cell_length_c 24.484482
_cell_angle_alpha 90.000000
_cell_angle_beta 90.000000
_cell_angle_gamma 90.000000
_cell_volume 5512.474646
_symmetry_space_group_name_H-M "C M C M"
_symmetry_group_IT_number 63
_symmetry_cell_setting 'orthorhombic'
loop_
_space_group_symop_operation_xyz
x,y,z
-x,-y,1/2+z
x,-y,-z
-x,y,1/2-z
-x,-y,-z
x,y,1/2-z
-x,y,z
x,-y,1/2+z
1/2+x,1/2+y,z
1/2-x,1/2-y,1/2+z
1/2+x,1/2-y,-z
1/2-x,1/2+y,1/2-z
1/2-x,1/2-y,-z
1/2+x,1/2+y,1/2-z
1/2-x,1/2+y,z
1/2+x,1/2-y,1/2+z
loop_
_atom_site_type_symbol
_atom_site_label
_atom_site_fract_x
_atom_site_fract_y
_atom_site_fract_z
Si Si1 0.747347 0.265269 0.854524
Si Si2 0.877298 0.332233 0.545676
Si Si3 0.871952 0.204380 0.750000
Si Si4 0.232442 0.514056 0.438355
Si Si5 0.873500 0.356032 0.079500
Si Si6 0.373819 0.419809 0.847791
Si Si7 0.627392 0.529016 0.750000
O O1 0.813519 0.286156 0.909068
O O2 0.821952 0.241093 0.804439
O O3 0.669933 0.198914 0.874024
O O4 0.680624 0.339280 0.838607
O O5 0.855049 0.420088 0.558875
O O6 0.848032 0.323639 0.481588
O O7 0.000000 0.314432 0.550860
O O8 0.840655 0.115846 0.750000
O O9 0.000000 0.210680 0.750000
O O10 0.267858 0.500000 0.500000
O O11 0.182605 0.437025 0.416395
O O12 0.328327 0.546449 0.403567
O O13 0.000000 0.364073 0.081968
O O14 0.500000 0.412205 0.847972
O O15 0.340556 0.480324 0.802221
O O16 0.500000 0.530341 0.750000
#
# Coordination Sequence:
#
# PCOD9470746 Si02
#       7
#    16  16   8  16  16  16   8
#     4  11  21  34  53  79 108 137 174 217 268 322
#     4   9  18  33  53  76 105 141 177 216 264 318
#     4  11  23  38  57  79 103 133 173 221 262 305
#     4   9  18  32  52  77 105 140 180 217 257 310
#     4  10  19  33  53  78 108 139 175 220 266 312
#     4  10  20  35  54  76 105 140 175 212 259 314
#     4   9  19  36  54  69  91 129 172 209 251 303
#
# _framework density 17.415046
#
# number of rings (size 3 to 8) (size 9 to 14) (size 15 to 20)
#    0.000    2.167    0.000    3.500    0.000    2.333 
#    0.000    2.083    0.000    1.000    0.000    0.000 
#    0.000    0.000    0.000    0.000    0.000    0.000 
#
# Total GULP energy -267659.458380 kJ/mol
# GULP energy per Si atom -5576.238716 kJ/mol
# Density = 1.737541 g / cm^3
# Si number density = 17.415046 Si / 1000 Ang^3
#
#
#
# Elastic Constant Matrix: (Units=GPa)
#
#
# Indices 1 2 3 4 5 6 
#
# 1 83.6928 51.1388 45.1761 0.0000 0.0000 0.0000
# 2 51.1388 121.2810 59.4884 0.0000 0.0000 0.0000
# 3 45.1761 59.4884 75.4732 0.0000 0.0000 0.0000
# 4 0.0000 0.0000 0.0000 31.9852 0.0000 0.0000
# 5 0.0000 0.0000 0.0000 0.0000 25.2282 0.0000
# 6 0.0000 0.0000 0.0000 0.0000 0.0000 18.6515
#
#
#
# Elastic Compliance Matrix: (Units=1/GPa)
#
#
# Indices 1 2 3 4 5 6 
#
# 1 0.018723 -0.003909 -0.008126 0.000000 0.000000 0.000000
# 2 -0.003909 0.014258 -0.008899 0.000000 0.000000 0.000000
# 3 -0.008126 -0.008899 0.025128 0.000000 0.000000 0.000000
# 4 0.000000 0.000000 0.000000 0.031264 0.000000 0.000000
# 5 0.000000 0.000000 0.000000 0.000000 0.039638 0.000000
# 6 0.000000 0.000000 0.000000 0.000000 0.000000 0.053615
#
#
# Mechanical properties :
#
#
# Convention : Reuss Voigt Hill
#
# Bulk Modulus (GPa) = 61.56942 65.78372 63.67657
# Shear Modulus (GPa) = 21.74774 23.48258 22.61516
#
# Velocity S-wave (km/s) = 3.53766 3.67605 3.60752
# Velocity P-wave (km/s) = 7.21925 7.47488 7.34818
#
# Compressibility (1/GPa) = 0.01624183
#
# Stress axis : x y z
#
# Youngs Moduli (GPa) = 53.40942 70.13431 39.79629
#
# Poissons Ratio (x) = 0.27414 0.32339
# Poissons Ratio (y) = 0.20877 0.35414
# Poissons Ratio (z) = 0.43402 0.62411
#
# Static dielectric constant tensor:
#      x y z
#    x 1.559320 0.000000 0.000000 
#    y 0.000000 1.585980 0.000000 
#    z 0.000000 0.000000 1.601500 
# 
# From -- ./inp_files/61502.got.cif
#   From: 2010.05.17/outbox.cif.g08.bks.cpg/sg63_31_cif.got.tgz:61502.got - 2010.06.03 15:47:04.
