data_PCOD9470264
_publ_section_title
;
Structure prediction by ZEFSAII (Michael W. Deem and Ramdas Pophale) SiO2 
 PCOD9470264
Probable space group: C M C M
;
_chemical_formula_sum "Si O2"
_cell_formula_units_Z 128
_cell_length_a 24.148072
_cell_length_b 18.302710
_cell_length_c 18.755262
_cell_angle_alpha 90.000000
_cell_angle_beta 90.000000
_cell_angle_gamma 90.000000
_cell_volume 8289.359902
_symmetry_space_group_name_H-M "C M C M"
_symmetry_group_IT_number 63
_symmetry_cell_setting 'orthorhombic'
loop_
_space_group_symop_operation_xyz
x,y,z
-x,-y,1/2+z
x,-y,-z
-x,y,1/2-z
-x,-y,-z
x,y,1/2-z
-x,y,z
x,-y,1/2+z
1/2+x,1/2+y,z
1/2-x,1/2-y,1/2+z
1/2+x,1/2-y,-z
1/2-x,1/2+y,1/2-z
1/2-x,1/2-y,-z
1/2+x,1/2+y,1/2-z
1/2-x,1/2+y,z
1/2+x,1/2-y,1/2+z
loop_
_atom_site_type_symbol
_atom_site_label
_atom_site_fract_x
_atom_site_fract_y
_atom_site_fract_z
Si Si1 0.262089 0.035356 0.921915
Si Si2 0.566140 0.117136 0.434755
Si Si3 0.302330 0.678968 0.576041
Si Si4 0.363809 0.209873 0.165937
Si Si5 0.254331 0.111258 0.166038
Si Si6 0.066356 0.513448 0.829565
Si Si7 0.188304 0.227339 0.081135
Si Si8 0.625677 0.130023 0.912277
O O1 0.213284 0.094752 0.914688
O O2 0.318709 0.080978 0.913475
O O3 0.257945 0.968752 0.867359
O O4 0.261100 0.000000 0.000000
O O5 0.500000 0.116419 0.445660
O O6 0.585841 0.181358 0.382015
O O7 0.582584 0.043743 0.391308
O O8 0.597181 0.123650 0.510028
O O9 0.341441 0.713375 0.635948
O O10 0.244370 0.723808 0.577899
O O11 0.325047 0.696800 0.497369
O O12 0.375686 0.211097 0.250000
O O13 0.312561 0.153558 0.152782
O O14 0.246233 0.107975 0.250000
O O15 0.205852 0.159842 0.130537
O O16 0.087053 0.493278 0.750000
O O17 0.087314 0.592358 0.853458
O O18 0.000000 0.511956 0.827352
O O19 0.142125 0.286211 0.103027
#
# Coordination Sequence:
#
# PCOD9470264 Si02
#       8
#    16  16  16  16  16  16  16  16
#     4  11  19  28  48  70  95 127 159 193 236 284
#     4  11  21  33  49  70  95 127 168 209 240 277
#     4   9  17  30  46  66  91 122 157 190 235 282
#     4  10  19  32  48  67  96 130 161 195 240 287
#     4  10  20  32  47  71  99 127 161 200 238 285
#     4  10  21  34  45  63  95 129 161 202 246 278
#     4   9  17  31  48  66  91 123 157 198 234 282
#     4  11  20  31  51  70  92 125 172 201 234 282
#
# _framework density 15.441482000000001
#
# number of rings (size 3 to 8) (size 9 to 14) (size 15 to 20)
#    0.000    1.875    2.500    3.375    0.000    4.250 
#    0.000    2.500    0.000    0.000    0.000    0.000 
#    0.000    5.500    0.000    1.500    0.000    0.000 
#
# Total GULP energy -356907.771196 kJ/mol
# GULP energy per Si atom -5576.683925 kJ/mol
# Density = 1.540634 g / cm^3
# Si number density = 15.441482 Si / 1000 Ang^3
#
#
#
# Elastic Constant Matrix: (Units=GPa)
#
#
# Indices 1 2 3 4 5 6 
#
# 1 24.3435 18.2842 13.2664 0.0000 0.0000 0.0000
# 2 18.2842 83.0682 27.5482 0.0000 0.0000 0.0000
# 3 13.2664 27.5482 51.4889 0.0000 0.0000 0.0000
# 4 0.0000 0.0000 0.0000 23.9150 0.0000 0.0000
# 5 0.0000 0.0000 0.0000 0.0000 15.4569 0.0000
# 6 0.0000 0.0000 0.0000 0.0000 0.0000 24.9296
#
#
#
# Elastic Compliance Matrix: (Units=1/GPa)
#
#
# Indices 1 2 3 4 5 6 
#
# 1 0.052372 -0.008574 -0.008907 0.000000 0.000000 0.000000
# 2 -0.008574 0.016039 -0.006372 0.000000 0.000000 0.000000
# 3 -0.008907 -0.006372 0.025126 0.000000 0.000000 0.000000
# 4 0.000000 0.000000 0.000000 0.041815 0.000000 0.000000
# 5 0.000000 0.000000 0.000000 0.000000 0.064696 0.000000
# 6 0.000000 0.000000 0.000000 0.000000 0.000000 0.040113
#
#
# Mechanical properties :
#
#
# Convention : Reuss Voigt Hill
#
# Bulk Modulus (GPa) = 21.81910 30.78869 26.30389
# Shear Modulus (GPa) = 16.49384 19.51375 18.00379
#
# Velocity S-wave (km/s) = 3.27180 3.55874 3.41829
# Velocity P-wave (km/s) = 5.33233 6.07194 5.71412
#
# Compressibility (1/GPa) = 0.04583141
#
# Stress axis : x y z
#
# Youngs Moduli (GPa) = 19.09402 62.34914 39.79968
#
# Poissons Ratio (x) = 0.53458 0.35448
# Poissons Ratio (y) = 0.16371 0.25361
# Poissons Ratio (z) = 0.17007 0.39730
#
# Static dielectric constant tensor:
#      x y z
#    x 1.520190 0.000000 0.000000 
#    y 0.000000 1.527780 0.000000 
#    z 0.000000 0.000000 1.517070 
# 
# From -- ./inp_files/48439.got.cif
#   From: 2010.05.17/outbox.cif.g08.bks.cpg/sg63_25_cif.got.tgz:48439.got - 2010.06.03 15:47:04.
