data_PCOD9470223
_publ_section_title
;
Structure prediction by ZEFSAII (Michael W. Deem and Ramdas Pophale) SiO2 
 PCOD9470223
Probable space group: C M C M
;
_chemical_formula_sum "Si O2"
_cell_formula_units_Z 96
_cell_length_a 21.688953
_cell_length_b 10.578784
_cell_length_c 19.966617
_cell_angle_alpha 90.000000
_cell_angle_beta 90.000000
_cell_angle_gamma 90.000000
_cell_volume 4581.195492
_symmetry_space_group_name_H-M "C M C M"
_symmetry_group_IT_number 63
_symmetry_cell_setting 'orthorhombic'
loop_
_space_group_symop_operation_xyz
x,y,z
-x,-y,1/2+z
x,-y,-z
-x,y,1/2-z
-x,-y,-z
x,y,1/2-z
-x,y,z
x,-y,1/2+z
1/2+x,1/2+y,z
1/2-x,1/2-y,1/2+z
1/2+x,1/2-y,-z
1/2-x,1/2+y,1/2-z
1/2-x,1/2-y,-z
1/2+x,1/2+y,1/2-z
1/2-x,1/2+y,z
1/2+x,1/2-y,1/2+z
loop_
_atom_site_type_symbol
_atom_site_label
_atom_site_fract_x
_atom_site_fract_y
_atom_site_fract_z
Si Si1 0.069545 0.748312 0.404366
Si Si2 0.574436 0.626333 0.463677
Si Si3 0.257445 0.100400 0.172046
Si Si4 0.101773 0.512936 0.174710
Si Si5 0.186381 0.141288 0.831764
Si Si6 0.426216 0.282607 0.676777
O O1 0.086006 0.763156 0.482514
O O2 0.071668 0.604999 0.378992
O O3 0.119445 0.824379 0.360745
O O4 0.000000 0.799225 0.395398
O O5 0.597046 0.500000 0.500000
O O6 0.500000 0.616043 0.457517
O O7 0.598444 0.650345 0.389416
O O8 0.240870 0.116435 0.250000
O O9 0.325256 0.036796 0.170034
O O10 0.212205 0.993241 0.144628
O O11 0.268300 0.242765 0.145950
O O12 0.082426 0.553093 0.250000
O O13 0.086179 0.366463 0.168489
O O14 0.184305 0.143957 0.750000
O O15 0.401891 0.322832 0.750000
O O16 0.500000 0.299893 0.678589
#
# Coordination Sequence:
#
# PCOD9470223 Si02
#       6
#    16  16  16  16  16  16
#     4  10  19  31  52  80 110 148 185 225 288 348
#     4   9  19  36  52  71 108 153 188 224 278 343
#     4   8  15  29  48  72 107 147 192 235 279 331
#     4   9  17  30  50  80 114 145 183 234 282 328
#     4   9  17  31  51  79 111 149 194 239 282 334
#     4   9  17  31  53  79 105 137 183 234 282 333
#
# _framework density 20.955228999999999
#
# number of rings (size 3 to 8) (size 9 to 14) (size 15 to 20)
#    0.000    3.000    0.000    2.000    0.000    2.667 
#    3.000    4.167    0.000    7.000    0.000    0.000 
#    0.000    0.000    0.000    0.000    0.000    0.000 
#
# Total GULP energy -267691.203076 kJ/mol
# GULP energy per Si atom -5576.900064 kJ/mol
# Density = 2.090753 g / cm^3
# Si number density = 20.955229 Si / 1000 Ang^3
#
#
#
# Elastic Constant Matrix: (Units=GPa)
#
#
# Indices 1 2 3 4 5 6 
#
# 1 78.1735 42.5166 18.0942 0.0000 0.0000 0.0000
# 2 42.5166 86.8048 77.5871 0.0000 0.0000 0.0000
# 3 18.0942 77.5871 146.7127 0.0000 0.0000 0.0000
# 4 0.0000 0.0000 0.0000 39.7873 0.0000 0.0000
# 5 0.0000 0.0000 0.0000 0.0000 4.3443 0.0000
# 6 0.0000 0.0000 0.0000 0.0000 0.0000 26.1562
#
#
#
# Elastic Compliance Matrix: (Units=1/GPa)
#
#
# Indices 1 2 3 4 5 6 
#
# 1 0.019147 -0.013782 0.004927 0.000000 0.000000 0.000000
# 2 -0.013782 0.031767 -0.015100 0.000000 0.000000 0.000000
# 3 0.004927 -0.015100 0.014194 0.000000 0.000000 0.000000
# 4 0.000000 0.000000 0.000000 0.025134 0.000000 0.000000
# 5 0.000000 0.000000 0.000000 0.000000 0.230186 0.000000
# 6 0.000000 0.000000 0.000000 0.000000 0.000000 0.038232
#
#
# Mechanical properties :
#
#
# Convention : Reuss Voigt Hill
#
# Bulk Modulus (GPa) = 58.14540 65.34297 61.74418
# Shear Modulus (GPa) = 12.12704 25.62377 18.87540
#
# Velocity S-wave (km/s) = 2.40825 3.50063 3.00450
# Velocity P-wave (km/s) = 5.96159 6.89848 6.44708
#
# Compressibility (1/GPa) = 0.01719827
#
# Stress axis : x y z
#
# Youngs Moduli (GPa) = 52.22639 31.47935 70.45384
#
# Poissons Ratio (x) = 0.43385 -0.34713
# Poissons Ratio (y) = 0.71979 1.06383
# Poissons Ratio (z) = -0.25732 0.47533
#
# Static dielectric constant tensor:
#      x y z
#    x 1.771780 0.000000 0.000000 
#    y 0.000000 1.781600 0.000000 
#    z 0.000000 0.000000 1.747380 
# 
# From -- ./inp_files/47973.got.cif
#   From: 2010.05.17/outbox.cif.g08.bks.cpg/sg63_24_cif.got.tgz:47973.got - 2010.06.03 15:47:04.
