data_PCOD9470986
_publ_section_title
;
Structure prediction by ZEFSAII (Michael W. Deem and Ramdas Pophale) SiO2 
 PCOD9470986
Probable space group: C M C M
;
_chemical_formula_sum "Si O2"
_cell_formula_units_Z 88
_cell_length_a 17.792891
_cell_length_b 31.495911
_cell_length_c 9.212177
_cell_angle_alpha 90.000000
_cell_angle_beta 90.000000
_cell_angle_gamma 90.000000
_cell_volume 5162.534496
_symmetry_space_group_name_H-M "C M C M"
_symmetry_group_IT_number 63
_symmetry_cell_setting 'orthorhombic'
loop_
_space_group_symop_operation_xyz
x,y,z
-x,-y,1/2+z
x,-y,-z
-x,y,1/2-z
-x,-y,-z
x,y,1/2-z
-x,y,z
x,-y,1/2+z
1/2+x,1/2+y,z
1/2-x,1/2-y,1/2+z
1/2+x,1/2-y,-z
1/2-x,1/2+y,1/2-z
1/2-x,1/2-y,-z
1/2+x,1/2+y,1/2-z
1/2-x,1/2+y,z
1/2+x,1/2-y,1/2+z
loop_
_atom_site_type_symbol
_atom_site_label
_atom_site_fract_x
_atom_site_fract_y
_atom_site_fract_z
Si Si1 0.768700 0.793554 0.579365
Si Si2 0.912181 0.544916 0.424226
Si Si3 0.782831 0.612618 0.074695
Si Si4 0.413560 0.312983 0.088090
Si Si5 0.368309 0.589452 0.914358
Si Si6 0.500000 0.455751 0.921396
O O1 0.759558 0.788488 0.750000
O O2 0.750000 0.750000 0.500000
O O3 0.722164 0.836658 0.537699
O O4 0.855217 0.800431 0.534620
O O5 0.891085 0.500000 0.500000
O O6 0.908057 0.538991 0.250000
O O7 0.857139 0.584654 0.459393
O O8 0.000000 0.553674 0.461619
O O9 0.770926 0.610031 0.250000
O O10 0.713550 0.592529 0.986247
O O11 0.394062 0.295705 0.250000
O O12 0.500000 0.302591 0.057936
O O13 0.402350 0.363389 0.097942
O O14 0.365907 0.571540 0.750000
O O15 0.425109 0.566444 0.020695
O O16 0.500000 0.458528 0.750000
O O17 0.500000 0.500000 0.000000
#
# Coordination Sequence:
#
# PCOD9470986 Si02
#       6
#    16  16  16  16  16   8
#     4  10  20  34  52  76 107 142 181 225 272 323
#     4   9  18  34  56  80 107 138 176 224 274 329
#     4   9  19  35  54  78 106 142 184 221 268 329
#     4   9  17  32  54  76  99 130 170 213 259 315
#     4  10  19  34  53  75 102 133 172 215 262 313
#     4  12  24  36  50  70 102 140 176 216 262 306
#
# _framework density 17.045891999999998
#
# number of rings (size 3 to 8) (size 9 to 14) (size 15 to 20)
#    0.000    2.364    0.909    1.909    0.000    3.273 
#    0.000    2.727    0.000    3.273    0.000    0.000 
#    0.000    0.000    0.000    0.000    0.000    0.000 
#
# Total GULP energy -244940.697564 kJ/mol
# GULP energy per Si atom -5566.834036 kJ/mol
# Density = 1.700709 g / cm^3
# Si number density = 17.045892 Si / 1000 Ang^3
#
#
#
# Elastic Constant Matrix: (Units=GPa)
#
#
# Indices 1 2 3 4 5 6 
#
# 1 98.9495 69.8275 46.3646 0.0000 0.0000 0.0000
# 2 69.8275 100.5777 58.1903 0.0000 0.0000 0.0000
# 3 46.3646 58.1903 86.4979 0.0000 0.0000 0.0000
# 4 0.0000 0.0000 0.0000 29.7870 0.0000 0.0000
# 5 0.0000 0.0000 0.0000 0.0000 24.0854 0.0000
# 6 0.0000 0.0000 0.0000 0.0000 0.0000 33.9077
#
#
#
# Elastic Compliance Matrix: (Units=1/GPa)
#
#
# Indices 1 2 3 4 5 6 
#
# 1 0.020081 -0.012630 -0.002267 0.000000 0.000000 0.000000
# 2 -0.012630 0.024222 -0.009525 0.000000 0.000000 0.000000
# 3 -0.002267 -0.009525 0.019184 0.000000 0.000000 0.000000
# 4 0.000000 0.000000 0.000000 0.033572 0.000000 0.000000
# 5 0.000000 0.000000 0.000000 0.000000 0.041519 0.000000
# 6 0.000000 0.000000 0.000000 0.000000 0.000000 0.029492
#
#
# Mechanical properties :
#
#
# Convention : Reuss Voigt Hill
#
# Bulk Modulus (GPa) = 68.29347 70.53220 69.41284
# Shear Modulus (GPa) = 22.54326 24.99887 23.77107
#
# Velocity S-wave (km/s) = 3.64057 3.83373 3.73840
# Velocity P-wave (km/s) = 7.60415 7.81436 7.70997
#
# Compressibility (1/GPa) = 0.01464269
#
# Stress axis : x y z
#
# Youngs Moduli (GPa) = 49.79724 41.28489 52.12632
#
# Poissons Ratio (x) = 0.52143 0.11819
# Poissons Ratio (y) = 0.62894 0.49651
# Poissons Ratio (z) = 0.11291 0.39324
#
# Static dielectric constant tensor:
#      x y z
#    x 1.560580 0.000000 0.000000 
#    y 0.000000 1.560090 0.000000 
#    z 0.000000 0.000000 1.304300 
# 
# From -- ./inp_files/6854.got.cif
#   From: 2010.05.17/outbox.cif.g08.bks.cpg/sg63_4_cif.got.tgz:6854.got - 2010.06.03 15:47:04.
