data_PCOD9470494
_publ_section_title
;
Structure prediction by ZEFSAII (Michael W. Deem and Ramdas Pophale) SiO2 
 PCOD9470494
Probable space group: C M C M
;
_chemical_formula_sum "Si O2"
_cell_formula_units_Z 116
_cell_length_a 25.645592
_cell_length_b 9.869014
_cell_length_c 27.283195
_cell_angle_alpha 90.000000
_cell_angle_beta 90.000000
_cell_angle_gamma 90.000000
_cell_volume 6905.286797
_symmetry_space_group_name_H-M "C M C M"
_symmetry_group_IT_number 63
_symmetry_cell_setting 'orthorhombic'
loop_
_space_group_symop_operation_xyz
x,y,z
-x,-y,1/2+z
x,-y,-z
-x,y,1/2-z
-x,-y,-z
x,y,1/2-z
-x,y,z
x,-y,1/2+z
1/2+x,1/2+y,z
1/2-x,1/2-y,1/2+z
1/2+x,1/2-y,-z
1/2-x,1/2+y,1/2-z
1/2-x,1/2-y,-z
1/2+x,1/2+y,1/2-z
1/2-x,1/2+y,z
1/2+x,1/2-y,1/2+z
loop_
_atom_site_type_symbol
_atom_site_label
_atom_site_fract_x
_atom_site_fract_y
_atom_site_fract_z
Si Si1 0.557181 0.841479 0.648996
Si Si2 0.690277 0.630425 0.965579
Si Si3 0.357136 0.617495 0.641278
Si Si4 0.500000 0.856319 0.750000
Si Si5 0.338599 0.663332 0.191638
Si Si6 0.189403 0.366982 0.466702
Si Si7 0.856248 0.436979 0.138066
Si Si8 0.785734 0.658503 0.191404
O O1 0.500000 0.839413 0.624475
O O2 0.590053 0.705056 0.641347
O O3 0.544483 0.854200 0.706592
O O4 0.592912 0.968533 0.634830
O O5 0.662263 0.606138 0.914450
O O6 0.750442 0.669244 0.954326
O O7 0.690582 0.500000 0.000000
O O8 0.666965 0.749875 0.998705
O O9 0.360969 0.470824 0.665954
O O10 0.314962 0.707883 0.671399
O O11 0.346105 0.656351 0.250000
O O12 0.362181 0.801613 0.170124
O O13 0.276067 0.665689 0.181879
O O14 0.189920 0.500000 0.500000
O O15 0.160815 0.393154 0.416048
O O16 0.812014 0.532026 0.163289
O O17 0.793429 0.645503 0.250000
#
# Coordination Sequence:
#
# PCOD9470494 Si02
#       8
#    16  16  16   4  16  16  16  16
#     4   9  22  38  62  77 100 135 187 231 276 334
#     4  10  20  33  52  77 114 148 177 216 267 315
#     4  11  21  35  56  77 106 148 186 224 264 323
#     4   8  20  40  64  78  96 136 194 234 278 340
#     4  11  22  30  47  81 115 141 174 214 268 331
#     4  10  19  32  52  80 108 145 187 221 253 312
#     4  11  21  34  55  78 112 144 180 227 278 322
#     4  10  20  32  48  73 112 153 181 205 254 332
#
# _framework density 16.798722999999999
#
# number of rings (size 3 to 8) (size 9 to 14) (size 15 to 20)
#    0.414    1.379    0.000    5.793    5.793    4.414 
#    0.000    0.690    0.000    5.793    0.000    0.000 
#    0.000    0.000    0.000    0.000    0.000    0.000 
#
# Total GULP energy -323084.624514 kJ/mol
# GULP energy per Si atom -5570.424561 kJ/mol
# Density = 1.676049 g / cm^3
# Si number density = 16.798723 Si / 1000 Ang^3
#
#
#
# Elastic Constant Matrix: (Units=GPa)
#
#
# Indices 1 2 3 4 5 6 
#
# 1 80.5612 19.6897 19.8646 0.0000 0.0000 0.0000
# 2 19.6897 82.9973 1.3319 0.0000 0.0000 0.0000
# 3 19.8646 1.3319 77.3056 0.0000 0.0000 0.0000
# 4 0.0000 0.0000 0.0000 21.4164 0.0000 0.0000
# 5 0.0000 0.0000 0.0000 0.0000 -20.4797 0.0000
# 6 0.0000 0.0000 0.0000 0.0000 0.0000 3.0378
#
#
#
# Elastic Compliance Matrix: (Units=1/GPa)
#
#
# Indices 1 2 3 4 5 6 
#
# 1 0.014095 -0.003287 -0.003565 0.000000 0.000000 0.000000
# 2 -0.003287 0.012818 0.000624 0.000000 0.000000 0.000000
# 3 -0.003565 0.000624 0.013841 0.000000 0.000000 0.000000
# 4 0.000000 0.000000 0.000000 0.046693 0.000000 0.000000
# 5 0.000000 0.000000 0.000000 0.000000 -0.048829 0.000000
# 6 0.000000 0.000000 0.000000 0.000000 0.000000 0.329186
#
#
# Mechanical properties :
#
#
# Convention : Reuss Voigt Hill
#
# Bulk Modulus (GPa) = 35.33805 35.84849 35.59327
# Shear Modulus (GPa) = 12.83058 14.12676 13.47867
#
# Velocity S-wave (km/s) = 2.76666 2.90305 2.83567
# Velocity P-wave (km/s) = 5.59354 5.71168 5.65292
#
# Compressibility (1/GPa) = 0.02829811
#
# Stress axis : x y z
#
# Youngs Moduli (GPa) = 70.94543 78.01355 72.24862
#
# Poissons Ratio (x) = 0.25640 0.25759
# Poissons Ratio (y) = 0.23317 -0.04506
# Poissons Ratio (z) = 0.25294 -0.04866
#
# Static dielectric constant tensor:
#      x y z
#    x 1.583130 0.000000 0.000000 
#    y 0.000000 1.566080 0.000000 
#    z 0.000000 0.000000 1.542460 
# 
# From -- ./inp_files/71105.got.cif
#   From: 2010.05.17/outbox.cif.g08.bks.cpg/sg63_36_cif.got.tgz:71105.got - 2010.06.03 15:47:04.
