data_PCOD9470716
_publ_section_title
;
Structure prediction by ZEFSAII (Michael W. Deem and Ramdas Pophale) SiO2 
 PCOD9470716
Probable space group: C M C M
;
_chemical_formula_sum "Si O2"
_cell_formula_units_Z 96
_cell_length_a 22.987295
_cell_length_b 17.063526
_cell_length_c 15.735100
_cell_angle_alpha 90.000000
_cell_angle_beta 90.000000
_cell_angle_gamma 90.000000
_cell_volume 6172.003378
_symmetry_space_group_name_H-M "C M C M"
_symmetry_group_IT_number 63
_symmetry_cell_setting 'orthorhombic'
loop_
_space_group_symop_operation_xyz
x,y,z
-x,-y,1/2+z
x,-y,-z
-x,y,1/2-z
-x,-y,-z
x,y,1/2-z
-x,y,z
x,-y,1/2+z
1/2+x,1/2+y,z
1/2-x,1/2-y,1/2+z
1/2+x,1/2-y,-z
1/2-x,1/2+y,1/2-z
1/2-x,1/2-y,-z
1/2+x,1/2+y,1/2-z
1/2-x,1/2+y,z
1/2+x,1/2-y,1/2+z
loop_
_atom_site_type_symbol
_atom_site_label
_atom_site_fract_x
_atom_site_fract_y
_atom_site_fract_z
Si Si1 0.792239 0.674822 0.509878
Si Si2 0.122527 0.795613 0.573220
Si Si3 0.615440 0.428497 0.063322
Si Si4 0.768270 0.070852 0.654073
Si Si5 0.236155 0.117805 0.152971
Si Si6 0.000000 0.176541 0.350634
Si Si7 0.000000 0.006023 0.647855
O O1 0.750000 0.750000 0.500000
O O2 0.851800 0.713281 0.541297
O O3 0.768411 0.614619 0.580897
O O4 0.785263 0.638983 0.416233
O O5 0.109897 0.852144 0.494006
O O6 0.174447 0.841301 0.625376
O O7 0.061176 0.787357 0.620162
O O8 0.664981 0.411483 0.131840
O O9 0.556815 0.454702 0.108627
O O10 0.633629 0.500000 0.000000
O O11 0.752323 0.095623 0.750000
O O12 0.766565 0.976433 0.650294
O O13 0.248629 0.141976 0.250000
O O14 0.000000 0.175925 0.250000
O O15 0.000000 0.085224 0.378751
O O16 0.000000 0.010465 0.750000
#
# Coordination Sequence:
#
# PCOD9470716 Si02
#       7
#    16  16  16  16  16   8   8
#     4  10  20  34  48  72 104 135 167 205 258 306
#     4  11  21  33  50  73 102 139 171 207 256 301
#     4  12  18  32  49  67 100 138 174 211 244 287
#     4  11  20  32  52  74  99 133 173 212 255 303
#     4  10  19  33  53  76 101 131 171 214 256 306
#     4  11  21  33  49  71 101 138 175 212 250 291
#     4  11  22  32  46  72  98 134 182 213 239 286
#
# _framework density 15.554107
#
# number of rings (size 3 to 8) (size 9 to 14) (size 15 to 20)
#    0.000    1.167    6.667    2.250    0.000    6.000 
#    0.000    0.000    0.000    0.000    0.000    2.333 
#    0.000    2.667    0.000    0.000    0.000    0.000 
#
# Total GULP energy -267532.650411 kJ/mol
# GULP energy per Si atom -5573.596884 kJ/mol
# Density = 1.551871 g / cm^3
# Si number density = 15.554107 Si / 1000 Ang^3
#
#
#
# Elastic Constant Matrix: (Units=GPa)
#
#
# Indices 1 2 3 4 5 6 
#
# 1 99.2021 38.8330 48.3511 0.0000 0.0000 0.0000
# 2 38.8330 33.2545 38.7474 0.0000 0.0000 0.0000
# 3 48.3511 38.7474 121.2503 0.0000 0.0000 0.0000
# 4 0.0000 0.0000 0.0000 20.6361 0.0000 0.0000
# 5 0.0000 0.0000 0.0000 0.0000 15.4286 0.0000
# 6 0.0000 0.0000 0.0000 0.0000 0.0000 29.8562
#
#
#
# Elastic Compliance Matrix: (Units=1/GPa)
#
#
# Indices 1 2 3 4 5 6 
#
# 1 0.018612 -0.020850 -0.000759 0.000000 0.000000 0.000000
# 2 -0.020850 0.071268 -0.014460 0.000000 0.000000 0.000000
# 3 -0.000759 -0.014460 0.013171 0.000000 0.000000 0.000000
# 4 0.000000 0.000000 0.000000 0.048459 0.000000 0.000000
# 5 0.000000 0.000000 0.000000 0.000000 0.064815 0.000000
# 6 0.000000 0.000000 0.000000 0.000000 0.000000 0.033494
#
#
# Mechanical properties :
#
#
# Convention : Reuss Voigt Hill
#
# Bulk Modulus (GPa) = 32.34970 56.17442 44.26206
# Shear Modulus (GPa) = 15.04841 21.70255 18.37548
#
# Velocity S-wave (km/s) = 3.11382 3.73942 3.44087
# Velocity P-wave (km/s) = 5.81130 7.40528 6.65618
#
# Compressibility (1/GPa) = 0.03091219
#
# Stress axis : x y z
#
# Youngs Moduli (GPa) = 53.72808 14.03161 75.92381
#
# Poissons Ratio (x) = 0.29256 0.05763
# Poissons Ratio (y) = 1.12023 1.09788
# Poissons Ratio (z) = 0.04078 0.20290
#
# Static dielectric constant tensor:
#      x y z
#    x 1.515440 0.000000 0.000000 
#    y 0.000000 1.530420 0.000000 
#    z 0.000000 0.000000 1.549920 
# 
# From -- ./inp_files/37895.got.cif
#   From: 2010.05.17/outbox.cif.g08.bks.cpg/sg63_19_cif.got.tgz:37895.got - 2010.06.03 15:47:04.
