data_PCOD9470120
_publ_section_title
;
Structure prediction by ZEFSAII (Michael W. Deem and Ramdas Pophale) SiO2 
 PCOD9470120
Probable space group: C M C M
;
_chemical_formula_sum "Si O2"
_cell_formula_units_Z 60
_cell_length_a 15.735147
_cell_length_b 21.225429
_cell_length_c 7.314453
_cell_angle_alpha 90.000000
_cell_angle_beta 90.000000
_cell_angle_gamma 90.000000
_cell_volume 2442.919381
_symmetry_space_group_name_H-M "C M C M"
_symmetry_group_IT_number 63
_symmetry_cell_setting 'orthorhombic'
loop_
_space_group_symop_operation_xyz
x,y,z
-x,-y,1/2+z
x,-y,-z
-x,y,1/2-z
-x,-y,-z
x,y,1/2-z
-x,y,z
x,-y,1/2+z
1/2+x,1/2+y,z
1/2-x,1/2-y,1/2+z
1/2+x,1/2-y,-z
1/2-x,1/2+y,1/2-z
1/2-x,1/2-y,-z
1/2+x,1/2+y,1/2-z
1/2-x,1/2+y,z
1/2+x,1/2-y,1/2+z
loop_
_atom_site_type_symbol
_atom_site_label
_atom_site_fract_x
_atom_site_fract_y
_atom_site_fract_z
Si Si1 0.136191 0.395441 0.971701
Si Si2 0.500000 0.426270 0.967882
Si Si3 0.595540 0.250249 0.468874
Si Si4 0.675787 0.375373 0.960134
Si Si5 0.500000 0.944147 0.250000
O O1 0.126955 0.404413 0.750000
O O2 0.111376 0.322479 0.013194
O O3 0.234618 0.399891 0.030059
O O4 0.073970 0.437131 0.090196
O O5 0.500000 0.412655 0.750000
O O6 0.587997 0.399275 0.044673
O O7 0.500000 0.500000 0.000000
O O8 0.596274 0.254432 0.250000
O O9 0.500000 0.267505 0.533593
O O10 0.665211 0.299676 0.536873
O O11 0.676019 0.396023 0.750000
#
# Coordination Sequence:
#
# PCOD9470120 Si02
#       5
#    16   8  16  16   4
#     4  10  22  37  52  83 122 156 202 247 283 348
#     4  10  22  41  62  88 117 156 194 243 311 351
#     4  10  19  31  49  77 118 159 196 240 286 334
#     4  10  21  36  56  80 116 154 195 242 298 356
#     4  12  22  34  60  76 112 156 206 230 294 344
#
# _framework density 24.560776000000001
#
# number of rings (size 3 to 8) (size 9 to 14) (size 15 to 20)
#    0.000    1.867    2.667    1.200    3.733    1.067 
#    0.000    0.000    0.000    0.000    0.000    0.933 
#    0.000    0.000    0.000    0.000    0.000    0.000 
#
# Total GULP energy -167298.743528 kJ/mol
# GULP energy per Si atom -5576.624784 kJ/mol
# Density = 2.450487 g / cm^3
# Si number density = 24.560776 Si / 1000 Ang^3
#
#
#
# Elastic Constant Matrix: (Units=GPa)
#
#
# Indices 1 2 3 4 5 6 
#
# 1 234.0777 36.3842 59.2852 0.0000 0.0000 0.0000
# 2 36.3842 75.8019 17.6713 0.0000 0.0000 0.0000
# 3 59.2852 17.6713 125.3935 0.0000 0.0000 0.0000
# 4 0.0000 0.0000 0.0000 5.4997 0.0000 0.0000
# 5 0.0000 0.0000 0.0000 0.0000 8.3729 0.0000
# 6 0.0000 0.0000 0.0000 0.0000 0.0000 22.0770
#
#
#
# Elastic Compliance Matrix: (Units=1/GPa)
#
#
# Indices 1 2 3 4 5 6 
#
# 1 0.005119 -0.001957 -0.002145 0.000000 0.000000 0.000000
# 2 -0.001957 0.014389 -0.001102 0.000000 0.000000 0.000000
# 3 -0.002145 -0.001102 0.009144 0.000000 0.000000 0.000000
# 4 0.000000 0.000000 0.000000 0.181828 0.000000 0.000000
# 5 0.000000 0.000000 0.000000 0.000000 0.119433 0.000000
# 6 0.000000 0.000000 0.000000 0.000000 0.000000 0.045296
#
#
# Mechanical properties :
#
#
# Convention : Reuss Voigt Hill
#
# Bulk Modulus (GPa) = 54.81298 73.55049 64.18174
# Shear Modulus (GPa) = 12.76488 28.65207 20.70848
#
# Velocity S-wave (km/s) = 2.28222 3.41923 2.90686
# Velocity P-wave (km/s) = 5.41391 6.75274 6.12005
#
# Compressibility (1/GPa) = 0.01824385
#
# Stress axis : x y z
#
# Youngs Moduli (GPa) = 195.33160 69.49866 109.35880
#
# Poissons Ratio (x) = 0.13603 0.23453
# Poissons Ratio (y) = 0.38233 0.12055
# Poissons Ratio (z) = 0.41891 0.07661
#
# Static dielectric constant tensor:
#      x y z
#    x 1.958340 0.000000 0.000000 
#    y 0.000000 1.966540 0.000000 
#    z 0.000000 0.000000 1.929910 
# 
# From -- ./inp_files/4189.got.cif
#   From: 2010.05.17/outbox.cif.g08.bks.cpg/sg63_3_cif.got.tgz:4189.got - 2010.06.03 15:47:04.
