data_PCOD9470755
_publ_section_title
;
Structure prediction by ZEFSAII (Michael W. Deem and Ramdas Pophale) SiO2 
 PCOD9470755
Probable space group: C M C M
;
_chemical_formula_sum "Si O2"
_cell_formula_units_Z 112
_cell_length_a 29.271242
_cell_length_b 15.366865
_cell_length_c 13.738884
_cell_angle_alpha 90.000000
_cell_angle_beta 90.000000
_cell_angle_gamma 90.000000
_cell_volume 6179.849276
_symmetry_space_group_name_H-M "C M C M"
_symmetry_group_IT_number 63
_symmetry_cell_setting 'orthorhombic'
loop_
_space_group_symop_operation_xyz
x,y,z
-x,-y,1/2+z
x,-y,-z
-x,y,1/2-z
-x,-y,-z
x,y,1/2-z
-x,y,z
x,-y,1/2+z
1/2+x,1/2+y,z
1/2-x,1/2-y,1/2+z
1/2+x,1/2-y,-z
1/2-x,1/2+y,1/2-z
1/2-x,1/2-y,-z
1/2+x,1/2+y,1/2-z
1/2-x,1/2+y,z
1/2+x,1/2-y,1/2+z
loop_
_atom_site_type_symbol
_atom_site_label
_atom_site_fract_x
_atom_site_fract_y
_atom_site_fract_z
Si Si1 0.949027 0.298715 0.364636
Si Si2 0.314174 0.166123 0.134263
Si Si3 0.374240 0.092391 0.974250
Si Si4 0.216689 0.524473 0.634077
Si Si5 0.095893 0.931452 0.134556
Si Si6 0.802303 0.136963 0.632631
Si Si7 0.447136 0.605202 0.062707
O O1 0.948317 0.313719 0.250000
O O2 0.908847 0.351429 0.413509
O O3 0.941831 0.197091 0.386006
O O4 0.000000 0.321249 0.401690
O O5 0.323707 0.170211 0.250000
O O6 0.297114 0.261728 0.102631
O O7 0.282790 0.080206 0.118905
O O8 0.358439 0.143253 0.070603
O O9 0.328064 0.065865 0.915735
O O10 0.396160 0.000000 0.000000
O O11 0.212466 0.537043 0.750000
O O12 0.261650 0.574466 0.598353
O O13 0.087347 0.914680 0.250000
O O14 0.147599 0.901433 0.110869
O O15 0.085531 0.032762 0.110896
O O16 0.064477 0.886316 0.052164
O O17 0.799346 0.137181 0.750000
O O18 0.500000 0.577294 0.074663
#
# Coordination Sequence:
#
# PCOD9470755 Si02
#       7
#    16  16  16  16  16  16  16
#     4  10  21  38  59  82 112 144 176 226 286 336
#     4   9  18  34  53  73 105 144 178 224 279 319
#     4  10  20  35  56  81 103 136 185 222 269 338
#     4   9  18  34  52  75 106 139 179 225 273 331
#     4  10  19  33  53  79 110 148 191 234 276 326
#     4   9  18  33  51  74 106 141 181 227 277 324
#     4  10  21  36  53  80 112 148 190 231 280 337
#
# _framework density 18.123418999999998
#
# number of rings (size 3 to 8) (size 9 to 14) (size 15 to 20)
#    0.000    2.429    0.000    2.571    0.000    3.143 
#   10.286    0.000    0.000    1.286    0.000    0.000 
#    0.000    0.000    0.000    0.000    0.000    0.000 
#
# Total GULP energy -312038.042856 kJ/mol
# GULP energy per Si atom -5572.107908 kJ/mol
# Density = 1.808217 g / cm^3
# Si number density = 18.123419 Si / 1000 Ang^3
#
#
#
# Elastic Constant Matrix: (Units=GPa)
#
#
# Indices 1 2 3 4 5 6 
#
# 1 85.2938 77.8693 18.7645 0.0000 0.0000 0.0000
# 2 77.8693 126.0200 22.5450 0.0000 0.0000 0.0000
# 3 18.7645 22.5450 66.2997 0.0000 0.0000 0.0000
# 4 0.0000 0.0000 0.0000 24.1181 0.0000 0.0000
# 5 0.0000 0.0000 0.0000 0.0000 19.8409 0.0000
# 6 0.0000 0.0000 0.0000 0.0000 0.0000 22.8676
#
#
#
# Elastic Compliance Matrix: (Units=1/GPa)
#
#
# Indices 1 2 3 4 5 6 
#
# 1 0.027172 -0.016413 -0.002109 0.000000 0.000000 0.000000
# 2 -0.016413 0.018363 -0.001599 0.000000 0.000000 0.000000
# 3 -0.002109 -0.001599 0.016224 0.000000 0.000000 0.000000
# 4 0.000000 0.000000 0.000000 0.041463 0.000000 0.000000
# 5 0.000000 0.000000 0.000000 0.000000 0.050401 0.000000
# 6 0.000000 0.000000 0.000000 0.000000 0.000000 0.043730
#
#
# Mechanical properties :
#
#
# Convention : Reuss Voigt Hill
#
# Bulk Modulus (GPa) = 46.47538 57.33012 51.90275
# Shear Modulus (GPa) = 20.42759 23.92765 22.17762
#
# Velocity S-wave (km/s) = 3.36093 3.63748 3.50194
# Velocity P-wave (km/s) = 6.38440 7.02450 6.71208
#
# Compressibility (1/GPa) = 0.02151677
#
# Stress axis : x y z
#
# Youngs Moduli (GPa) = 36.80216 54.45745 61.63800
#
# Poissons Ratio (x) = 0.89380 0.13002
# Poissons Ratio (y) = 0.60402 0.09856
# Poissons Ratio (z) = 0.07763 0.08708
#
# Static dielectric constant tensor:
#      x y z
#    x 1.601200 0.000000 0.000000 
#    y 0.000000 1.635670 0.000000 
#    z 0.000000 0.000000 1.636520 
# 
# From -- ./inp_files/37930.got.cif
#   From: 2010.05.17/outbox.cif.g08.bks.cpg/sg63_19_cif.got.tgz:37930.got - 2010.06.03 15:47:04.
