data_PCOD9470379
_publ_section_title
;
Structure prediction by ZEFSAII (Michael W. Deem and Ramdas Pophale) SiO2 
 PCOD9470379
Probable space group: C M C M
;
_chemical_formula_sum "Si O2"
_cell_formula_units_Z 80
_cell_length_a 7.819092
_cell_length_b 21.027325
_cell_length_c 26.061996
_cell_angle_alpha 90.000000
_cell_angle_beta 90.000000
_cell_angle_gamma 90.000000
_cell_volume 4284.972353
_symmetry_space_group_name_H-M "C M C M"
_symmetry_group_IT_number 63
_symmetry_cell_setting 'orthorhombic'
loop_
_space_group_symop_operation_xyz
x,y,z
-x,-y,1/2+z
x,-y,-z
-x,y,1/2-z
-x,-y,-z
x,y,1/2-z
-x,y,z
x,-y,1/2+z
1/2+x,1/2+y,z
1/2-x,1/2-y,1/2+z
1/2+x,1/2-y,-z
1/2-x,1/2+y,1/2-z
1/2-x,1/2-y,-z
1/2+x,1/2+y,1/2-z
1/2-x,1/2+y,z
1/2+x,1/2-y,1/2+z
loop_
_atom_site_type_symbol
_atom_site_label
_atom_site_fract_x
_atom_site_fract_y
_atom_site_fract_z
Si Si1 0.707098 0.360505 0.862111
Si Si2 0.208466 0.501972 0.750000
Si Si3 0.706485 0.939449 0.467181
Si Si4 0.201883 0.813862 0.529510
Si Si5 0.299640 0.646197 0.250000
Si Si6 0.794091 0.510185 0.861043
O O1 0.500000 0.356365 0.860252
O O2 0.771848 0.336043 0.806346
O O3 0.749928 0.435523 0.867762
O O4 0.773337 0.324669 0.912823
O O5 0.280614 0.430401 0.750000
O O6 0.263235 0.531162 0.695745
O O7 0.000000 0.497836 0.750000
O O8 0.500000 0.941953 0.466217
O O9 0.754096 0.874635 0.494876
O O10 0.767202 0.000000 0.500000
O O11 0.770147 0.949456 0.409152
O O12 0.250000 0.750000 0.500000
O O13 0.000000 0.812492 0.536024
O O14 0.500000 0.663714 0.250000
O O15 0.000000 0.513998 0.861471
#
# Coordination Sequence:
#
# PCOD9470379 Si02
#       6
#    16   8  16  16   8  16
#     4   9  17  29  47  71  97 124 157 198 242 290
#     4   8  14  24  40  67  98 125 157 195 237 283
#     4  10  19  32  51  74 101 132 163 198 243 291
#     4  11  23  36  51  72 100 133 168 206 247 294
#     4   8  14  26  44  67  94 121 151 193 243 287
#     4   9  16  27  46  71  99 129 160 198 241 287
#
# _framework density 18.669898
#
# number of rings (size 3 to 8) (size 9 to 14) (size 15 to 20)
#    0.000    2.600    2.000    0.600    0.000    2.000 
#    0.000    0.000    0.000    1.200    0.000    8.400 
#    0.000    0.000    0.000    0.000    0.000    0.000 
#
# Total GULP energy -222765.352595 kJ/mol
# GULP energy per Si atom -5569.133815 kJ/mol
# Density = 1.862740 g / cm^3
# Si number density = 18.669898 Si / 1000 Ang^3
#
#
#
# Elastic Constant Matrix: (Units=GPa)
#
#
# Indices 1 2 3 4 5 6 
#
# 1 19.5652 -0.6953 15.1871 0.0000 0.0000 0.0000
# 2 -0.6953 87.2942 79.7344 0.0000 0.0000 0.0000
# 3 15.1871 79.7344 243.9348 0.0000 0.0000 0.0000
# 4 0.0000 0.0000 0.0000 12.6228 0.0000 0.0000
# 5 0.0000 0.0000 0.0000 0.0000 7.2459 0.0000
# 6 0.0000 0.0000 0.0000 0.0000 0.0000 20.3758
#
#
#
# Elastic Compliance Matrix: (Units=1/GPa)
#
#
# Indices 1 2 3 4 5 6 
#
# 1 0.055259 0.005107 -0.005110 0.000000 0.000000 0.000000
# 2 0.005107 0.016804 -0.005811 0.000000 0.000000 0.000000
# 3 -0.005110 -0.005811 0.006317 0.000000 0.000000 0.000000
# 4 0.000000 0.000000 0.000000 0.079222 0.000000 0.000000
# 5 0.000000 0.000000 0.000000 0.000000 0.138009 0.000000
# 6 0.000000 0.000000 0.000000 0.000000 0.000000 0.049078
#
#
# Mechanical properties :
#
#
# Convention : Reuss Voigt Hill
#
# Bulk Modulus (GPa) = 14.98047 59.91630 37.44839
# Shear Modulus (GPa) = 13.20779 25.15345 19.18062
#
# Velocity S-wave (km/s) = 2.66266 3.67450 3.20872
# Velocity P-wave (km/s) = 4.18261 7.08271 5.81631
#
# Compressibility (1/GPa) = 0.06675357
#
# Stress axis : x y z
#
# Youngs Moduli (GPa) = 18.09662 59.51134 158.30655
#
# Poissons Ratio (x) = -0.30395 0.80892
# Poissons Ratio (y) = -0.09243 0.91984
# Poissons Ratio (z) = 0.09247 0.34579
#
# Static dielectric constant tensor:
#      x y z
#    x 2.018900 0.000000 0.000000 
#    y 0.000000 1.541860 0.000000 
#    z 0.000000 0.000000 1.749820 
# 
# From -- ./inp_files/59509.got.cif
#   From: 2010.05.17/outbox.cif.g08.bks.cpg/sg63_30_cif.got.tgz:59509.got - 2010.06.03 15:47:04.
