data_PCOD9470249
_publ_section_title
;
Structure prediction by ZEFSAII (Michael W. Deem and Ramdas Pophale) SiO2 
 PCOD9470249
Probable space group: C M C M
;
_chemical_formula_sum "Si O2"
_cell_formula_units_Z 116
_cell_length_a 15.258038
_cell_length_b 25.435905
_cell_length_c 14.637420
_cell_angle_alpha 90.000000
_cell_angle_beta 90.000000
_cell_angle_gamma 90.000000
_cell_volume 5680.812051
_symmetry_space_group_name_H-M "C M C M"
_symmetry_group_IT_number 63
_symmetry_cell_setting 'orthorhombic'
loop_
_space_group_symop_operation_xyz
x,y,z
-x,-y,1/2+z
x,-y,-z
-x,y,1/2-z
-x,-y,-z
x,y,1/2-z
-x,y,z
x,-y,1/2+z
1/2+x,1/2+y,z
1/2-x,1/2-y,1/2+z
1/2+x,1/2-y,-z
1/2-x,1/2+y,1/2-z
1/2-x,1/2-y,-z
1/2+x,1/2+y,1/2-z
1/2-x,1/2+y,z
1/2+x,1/2-y,1/2+z
loop_
_atom_site_type_symbol
_atom_site_label
_atom_site_fract_x
_atom_site_fract_y
_atom_site_fract_z
Si Si1 0.100686 0.442261 0.464742
Si Si2 0.746332 0.117117 0.641085
Si Si3 0.095803 0.341751 0.591893
Si Si4 0.898525 0.075208 0.138814
Si Si5 0.855058 0.284807 0.412734
Si Si6 0.899861 0.042850 0.638398
Si Si7 0.000000 0.295120 0.250000
Si Si8 0.789254 0.174808 0.145403
O O1 0.124381 0.500000 0.500000
O O2 0.165824 0.420169 0.388785
O O3 0.102941 0.399747 0.546540
O O4 0.000000 0.443748 0.431039
O O5 0.750060 0.121830 0.750000
O O6 0.724720 0.173960 0.600400
O O7 0.833705 0.087807 0.608042
O O8 0.100596 0.301289 0.507246
O O9 0.184822 0.331676 0.645670
O O10 0.000000 0.337490 0.636458
O O11 0.895890 0.074379 0.250000
O O12 0.834522 0.121651 0.109609
O O13 0.000000 0.085225 0.113697
O O14 0.873985 0.016242 0.108958
O O15 0.923263 0.294178 0.330437
O O16 0.820345 0.225739 0.409023
O O17 0.898795 0.042726 0.750000
O O18 0.000000 0.051820 0.609861
O O19 0.819912 0.182797 0.250000
#
# Coordination Sequence:
#
# PCOD9470249 Si02
#       8
#    16  16  16  16  16  16   4  16
#     4   9  20  36  53  75 107 144 184 226 285 343
#     4  10  19  31  56  82 106 136 185 235 282 335
#     4  10  22  39  57  77 115 159 186 229 289 342
#     4   8  16  29  50  78 108 139 181 233 287 331
#     4  11  22  37  58  89 113 144 189 245 298 333
#     4   8  15  30  49  75 107 141 176 224 280 334
#     4  12  20  36  68  84 118 140 190 252 296 326
#     4  11  22  35  57  86 116 146 195 231 278 350
#
# _framework density 20.419615
#
# number of rings (size 3 to 8) (size 9 to 14) (size 15 to 20)
#    0.000    2.345    2.069    1.241    3.862    0.552 
#    0.000    0.690    0.000    7.862    0.000    0.000 
#    0.000    0.000    0.000    0.000    0.000    0.000 
#
# Total GULP energy -323297.716973 kJ/mol
# GULP energy per Si atom -5574.098568 kJ/mol
# Density = 2.037314 g / cm^3
# Si number density = 20.419615 Si / 1000 Ang^3
#
#
#
# Elastic Constant Matrix: (Units=GPa)
#
#
# Indices 1 2 3 4 5 6 
#
# 1 98.5987 75.2523 12.0831 0.0000 0.0000 0.0000
# 2 75.2523 111.0202 19.6702 0.0000 0.0000 0.0000
# 3 12.0831 19.6702 48.5325 0.0000 0.0000 0.0000
# 4 0.0000 0.0000 0.0000 14.4964 0.0000 0.0000
# 5 0.0000 0.0000 0.0000 0.0000 9.8748 0.0000
# 6 0.0000 0.0000 0.0000 0.0000 0.0000 21.1742
#
#
#
# Elastic Compliance Matrix: (Units=1/GPa)
#
#
# Indices 1 2 3 4 5 6 
#
# 1 0.021028 -0.014357 0.000583 0.000000 0.000000 0.000000
# 2 -0.014357 0.019506 -0.004331 0.000000 0.000000 0.000000
# 3 0.000583 -0.004331 0.022215 0.000000 0.000000 0.000000
# 4 0.000000 0.000000 0.000000 0.068983 0.000000 0.000000
# 5 0.000000 0.000000 0.000000 0.000000 0.101268 0.000000
# 6 0.000000 0.000000 0.000000 0.000000 0.000000 0.047227
#
#
# Mechanical properties :
#
#
# Convention : Reuss Voigt Hill
#
# Bulk Modulus (GPa) = 37.67936 52.46251 45.07094
# Shear Modulus (GPa) = 15.37124 19.18546 17.27835
#
# Velocity S-wave (km/s) = 2.74664 3.06855 2.91205
# Velocity P-wave (km/s) = 5.34334 6.18891 5.78161
#
# Compressibility (1/GPa) = 0.02653973
#
# Stress axis : x y z
#
# Youngs Moduli (GPa) = 47.55619 51.26625 45.01455
#
# Poissons Ratio (x) = 0.73600 -0.02626
# Poissons Ratio (y) = 0.68274 0.19498
# Poissons Ratio (z) = -0.02775 0.22206
#
# Static dielectric constant tensor:
#      x y z
#    x 1.725480 0.000000 0.000000 
#    y 0.000000 1.734250 0.000000 
#    z 0.000000 0.000000 1.753290 
# 
# From -- ./inp_files/42872.got.cif
#   From: 2010.05.17/outbox.cif.g08.bks.cpg/sg63_22_cif.got.tgz:42872.got - 2010.06.03 15:47:04.
