data_PCOD9470695
_publ_section_title
;
Structure prediction by ZEFSAII (Michael W. Deem and Ramdas Pophale) SiO2 
 PCOD9470695
Probable space group: C M C M
;
_chemical_formula_sum "Si O2"
_cell_formula_units_Z 96
_cell_length_a 22.943069
_cell_length_b 7.673391
_cell_length_c 24.791856
_cell_angle_alpha 90.000000
_cell_angle_beta 90.000000
_cell_angle_gamma 90.000000
_cell_volume 4364.634491
_symmetry_space_group_name_H-M "C M C M"
_symmetry_group_IT_number 63
_symmetry_cell_setting 'orthorhombic'
loop_
_space_group_symop_operation_xyz
x,y,z
-x,-y,1/2+z
x,-y,-z
-x,y,1/2-z
-x,-y,-z
x,y,1/2-z
-x,y,z
x,-y,1/2+z
1/2+x,1/2+y,z
1/2-x,1/2-y,1/2+z
1/2+x,1/2-y,-z
1/2-x,1/2+y,1/2-z
1/2-x,1/2-y,-z
1/2+x,1/2+y,1/2-z
1/2-x,1/2+y,z
1/2+x,1/2-y,1/2+z
loop_
_atom_site_type_symbol
_atom_site_label
_atom_site_fract_x
_atom_site_fract_y
_atom_site_fract_z
Si Si1 0.620571 0.622532 0.042638
Si Si2 0.064254 0.482185 0.077526
Si Si3 0.164700 0.946881 0.838192
Si Si4 0.707021 0.825031 0.841406
Si Si5 0.109022 0.596534 0.810074
Si Si6 0.182155 0.343216 0.536710
O O1 0.581855 0.789047 0.058021
O O2 0.645875 0.547186 0.098380
O O3 0.587841 0.500000 0.000000
O O4 0.673871 0.689968 0.005551
O O5 0.067917 0.468716 0.142125
O O6 0.116220 0.603097 0.055867
O O7 0.000000 0.535804 0.060584
O O8 0.226901 0.858410 0.824692
O O9 0.119812 0.805074 0.814294
O O10 0.174832 0.148585 0.822073
O O11 0.712670 0.813381 0.906700
O O12 0.668670 0.991096 0.824078
O O13 0.090226 0.552610 0.750000
O O14 0.204810 0.500000 0.500000
#
# Coordination Sequence:
#
# PCOD9470695 Si02
#       6
#    16  16  16  16  16  16
#     4  10  19  33  52  82 116 151 183 218 272 333
#     4   9  20  38  59  82 109 141 187 243 287 334
#     4  11  22  36  56  83 121 152 190 234 274 333
#     4  11  21  37  55  82 116 153 191 232 274 328
#     4  10  23  41  60  83 109 145 192 239 294 347
#     4   9  19  33  53  79 114 148 188 224 266 329
#
# _framework density 21.994968
#
# number of rings (size 3 to 8) (size 9 to 14) (size 15 to 20)
#    0.000    2.000    3.333    1.000    0.000    6.333 
#    0.000    0.000    0.000    0.000    0.000    4.667 
#    0.000    0.000    0.000    0.000    0.000    0.000 
#
# Total GULP energy -267764.219383 kJ/mol
# GULP energy per Si atom -5578.421237 kJ/mol
# Density = 2.194491 g / cm^3
# Si number density = 21.994968 Si / 1000 Ang^3
#
#
#
# Elastic Constant Matrix: (Units=GPa)
#
#
# Indices 1 2 3 4 5 6 
#
# 1 60.6834 -3.6346 -8.4716 0.0000 0.0000 0.0000
# 2 -3.6346 90.8400 6.2187 0.0000 0.0000 0.0000
# 3 -8.4716 6.2187 127.0046 0.0000 0.0000 0.0000
# 4 0.0000 0.0000 0.0000 11.2668 0.0000 0.0000
# 5 0.0000 0.0000 0.0000 0.0000 -12.5654 0.0000
# 6 0.0000 0.0000 0.0000 0.0000 0.0000 8.6019
#
#
#
# Elastic Compliance Matrix: (Units=1/GPa)
#
#
# Indices 1 2 3 4 5 6 
#
# 1 0.016666 0.000593 0.001083 0.000000 0.000000 0.000000
# 2 0.000593 0.011066 -0.000502 0.000000 0.000000 0.000000
# 3 0.001083 -0.000502 0.007971 0.000000 0.000000 0.000000
# 4 0.000000 0.000000 0.000000 0.088756 0.000000 0.000000
# 5 0.000000 0.000000 0.000000 0.000000 -0.079584 0.000000
# 6 0.000000 0.000000 0.000000 0.000000 0.000000 0.116253
#
#
# Mechanical properties :
#
#
# Convention : Reuss Voigt Hill
#
# Bulk Modulus (GPa) = 26.28216 29.63922 27.96069
# Shear Modulus (GPa) = 29.16039 20.42171 24.79105
#
# Velocity S-wave (km/s) = 3.64507 3.05039 3.36091
# Velocity P-wave (km/s) = 5.44890 5.09031 5.27265
#
# Compressibility (1/GPa) = 0.03804863
#
# Stress axis : x y z
#
# Youngs Moduli (GPa) = 60.00377 90.36311 125.46204
#
# Poissons Ratio (x) = -0.05356 -0.13583
# Poissons Ratio (y) = -0.03556 0.06302
# Poissons Ratio (z) = -0.06496 0.04539
#
# Static dielectric constant tensor:
#      x y z
#    x 1.828700 0.000000 0.000000 
#    y 0.000000 1.920850 0.000000 
#    z 0.000000 0.000000 1.858330 
# 
# From -- ./inp_files/65331.got.cif
#   From: 2010.05.17/outbox.cif.g08.bks.cpg/sg63_33_cif.got.tgz:65331.got - 2010.06.03 15:47:04.
