data_PCOD9470136
_publ_section_title
;
Structure prediction by ZEFSAII (Michael W. Deem and Ramdas Pophale) SiO2 
 PCOD9470136
Probable space group: C M C M
;
_chemical_formula_sum "Si O2"
_cell_formula_units_Z 96
_cell_length_a 7.420286
_cell_length_b 31.537560
_cell_length_c 19.520876
_cell_angle_alpha 90.000000
_cell_angle_beta 90.000000
_cell_angle_gamma 90.000000
_cell_volume 4568.230795
_symmetry_space_group_name_H-M "C M C M"
_symmetry_group_IT_number 63
_symmetry_cell_setting 'orthorhombic'
loop_
_space_group_symop_operation_xyz
x,y,z
-x,-y,1/2+z
x,-y,-z
-x,y,1/2-z
-x,-y,-z
x,y,1/2-z
-x,y,z
x,-y,1/2+z
1/2+x,1/2+y,z
1/2-x,1/2-y,1/2+z
1/2+x,1/2-y,-z
1/2-x,1/2+y,1/2-z
1/2-x,1/2-y,-z
1/2+x,1/2+y,1/2-z
1/2-x,1/2+y,z
1/2+x,1/2-y,1/2+z
loop_
_atom_site_type_symbol
_atom_site_label
_atom_site_fract_x
_atom_site_fract_y
_atom_site_fract_z
Si Si1 0.218361 0.133175 0.584091
Si Si2 0.280480 0.286497 0.171022
Si Si3 0.280194 0.191157 0.329101
Si Si4 0.714147 0.977631 0.568922
Si Si5 0.789327 0.383042 0.573630
Si Si6 0.716666 0.552254 0.828004
O O1 0.279461 0.176132 0.621231
O O2 0.276249 0.129588 0.505763
O O3 0.280660 0.092190 0.627089
O O4 0.000000 0.132884 0.584620
O O5 0.226983 0.294452 0.250000
O O6 0.500000 0.286895 0.170480
O O7 0.222957 0.238922 0.151533
O O8 0.229554 0.183797 0.250000
O O9 0.500000 0.191710 0.331292
O O10 0.213785 0.154085 0.378549
O O11 0.500000 0.972524 0.557694
O O12 0.788133 0.930447 0.580527
O O13 0.787124 0.000000 0.500000
O O14 0.739977 0.009153 0.632119
O O15 0.000000 0.386008 0.592638
O O16 0.783292 0.553103 0.750000
O O17 0.500000 0.555554 0.825259
#
# Coordination Sequence:
#
# PCOD9470136 Si02
#       6
#    16  16  16  16  16  16
#     4  10  19  31  50  75 102 131 161 197 245 298
#     4   8  14  27  48  72  98 128 163 202 242 287
#     4   8  15  29  49  72  96 125 164 207 246 286
#     4  10  20  35  52  71  99 135 171 205 248 298
#     4  10  20  33  51  74 100 129 164 206 247 293
#     4  10  21  35  52  76 102 129 166 209 249 294
#
# _framework density 21.014700000000001
#
# number of rings (size 3 to 8) (size 9 to 14) (size 15 to 20)
#    0.000    2.667    1.667    1.500    0.000    4.667 
#    0.000    1.667    0.000    2.000    0.000    2.333 
#    0.000    0.000    0.000    0.000    0.000    0.000 
#
# Total GULP energy -268023.995072 kJ/mol
# GULP energy per Si atom -5583.833231 kJ/mol
# Density = 2.096687 g / cm^3
# Si number density = 21.014700 Si / 1000 Ang^3
#
#
#
# Elastic Constant Matrix: (Units=GPa)
#
#
# Indices 1 2 3 4 5 6 
#
# 1 63.6073 -0.7297 -16.9375 0.0000 0.0000 0.0000
# 2 -0.7297 234.0156 117.8582 0.0000 0.0000 0.0000
# 3 -16.9375 117.8582 118.7068 0.0000 0.0000 0.0000
# 4 0.0000 0.0000 0.0000 44.0384 0.0000 0.0000
# 5 0.0000 0.0000 0.0000 0.0000 23.5376 0.0000
# 6 0.0000 0.0000 0.0000 0.0000 0.0000 -32.5439
#
#
#
# Elastic Compliance Matrix: (Units=1/GPa)
#
#
# Indices 1 2 3 4 5 6 
#
# 1 0.016955 -0.002331 0.004734 0.000000 0.000000 0.000000
# 2 -0.002331 0.008868 -0.009137 0.000000 0.000000 0.000000
# 3 0.004734 -0.009137 0.018171 0.000000 0.000000 0.000000
# 4 0.000000 0.000000 0.000000 0.022707 0.000000 0.000000
# 5 0.000000 0.000000 0.000000 0.000000 0.042485 0.000000
# 6 0.000000 0.000000 0.000000 0.000000 0.000000 -0.030728
#
#
# Mechanical properties :
#
#
# Convention : Reuss Voigt Hill
#
# Bulk Modulus (GPa) = 32.75959 68.52351 50.64155
# Shear Modulus (GPa) = 48.97047 28.08234 38.52641
#
# Velocity S-wave (km/s) = 4.83255 3.65954 4.28636
# Velocity P-wave (km/s) = 6.83819 7.10876 6.97479
#
# Compressibility (1/GPa) = 0.03052542
#
# Stress axis : x y z
#
# Youngs Moduli (GPa) = 58.97874 112.77068 55.03263
#
# Poissons Ratio (x) = 0.26290 -0.26051
# Poissons Ratio (y) = 0.13749 0.50282
# Poissons Ratio (z) = -0.27919 1.03036
#
# Static dielectric constant tensor:
#      x y z
#    x 1.802480 0.000000 0.000000 
#    y 0.000000 1.747740 0.000000 
#    z 0.000000 0.000000 1.696600 
# 
# From -- ./inp_files/42708.got.cif
#   From: 2010.05.17/outbox.cif.g08.bks.cpg/sg63_22_cif.got.tgz:42708.got - 2010.06.03 15:47:04.
