data_PCOD9470631
_publ_section_title
;
Structure prediction by ZEFSAII (Michael W. Deem and Ramdas Pophale) SiO2 
 PCOD9470631
Probable space group: C M C M
;
_chemical_formula_sum "Si O2"
_cell_formula_units_Z 84
_cell_length_a 23.385228
_cell_length_b 7.336552
_cell_length_c 21.940758
_cell_angle_alpha 90.000000
_cell_angle_beta 90.000000
_cell_angle_gamma 90.000000
_cell_volume 3764.308739
_symmetry_space_group_name_H-M "C M C M"
_symmetry_group_IT_number 63
_symmetry_cell_setting 'orthorhombic'
loop_
_space_group_symop_operation_xyz
x,y,z
-x,-y,1/2+z
x,-y,-z
-x,y,1/2-z
-x,-y,-z
x,y,1/2-z
-x,y,z
x,-y,1/2+z
1/2+x,1/2+y,z
1/2-x,1/2-y,1/2+z
1/2+x,1/2-y,-z
1/2-x,1/2+y,1/2-z
1/2-x,1/2-y,-z
1/2+x,1/2+y,1/2-z
1/2-x,1/2+y,z
1/2+x,1/2-y,1/2+z
loop_
_atom_site_type_symbol
_atom_site_label
_atom_site_fract_x
_atom_site_fract_y
_atom_site_fract_z
Si Si1 0.000000 0.816467 0.911455
Si Si2 0.000000 0.500000 0.500000
Si Si3 0.176337 0.749216 0.750000
Si Si4 0.309428 0.316912 0.250000
Si Si5 0.500000 0.742368 0.889381
Si Si6 0.874450 0.775631 0.875992
Si Si7 0.629477 0.288401 0.130189
Si Si8 0.181794 0.217522 0.998339
O O1 0.000000 0.711934 0.974932
O O2 0.942284 0.761963 0.877705
O O3 0.000000 0.036548 0.917770
O O4 0.000000 0.580443 0.431493
O O5 0.241817 0.693178 0.750000
O O6 0.149130 0.690907 0.685905
O O7 0.172897 0.970386 0.750000
O O8 0.333574 0.230045 0.311875
O O9 0.562486 0.748185 0.858021
O O10 0.862152 0.992751 0.874578
O O11 0.847437 0.707495 0.939905
O O12 0.651646 0.216522 0.064336
O O13 0.250000 0.250000 0.000000
O O14 0.173044 0.000000 0.000000
#
# Coordination Sequence:
#
# PCOD9470631 Si02
#       8
#     8   4   8   8   8  16  16  16
#     4  10  21  40  61  88 124 162 195 258 310 353
#     4  12  22  36  60  96 124 160 210 234 300 392
#     4  10  20  37  59  88 116 159 205 245 299 371
#     4  10  20  37  59  88 116 159 205 245 299 371
#     4  10  21  40  61  88 124 162 195 258 310 353
#     4   9  19  36  60  82 115 155 199 241 304 365
#     4   9  19  36  60  82 115 155 199 241 304 365
#     4  10  19  33  50  78 109 147 189 240 293 357
#
# _framework density 22.314855000000001
#
# number of rings (size 3 to 8) (size 9 to 14) (size 15 to 20)
#    0.000    2.286    0.000    2.571    0.000    3.810 
#   10.286    3.810    0.000    1.143    0.000    0.000 
#    0.000    0.000    0.000    0.000    0.000    0.000 
#
# Total GULP energy -233975.290943 kJ/mol
# GULP energy per Si atom -5570.840261 kJ/mol
# Density = 2.226407 g / cm^3
# Si number density = 22.314855 Si / 1000 Ang^3
#
#
#
# Elastic Constant Matrix: (Units=GPa)
#
#
# Indices 1 2 3 4 5 6 
#
# 1 168.2024 1.4432 111.5866 0.0000 0.0000 0.0000
# 2 1.4432 78.7328 9.5324 0.0000 0.0000 0.0000
# 3 111.5866 9.5324 206.2685 0.0000 0.0000 0.0000
# 4 0.0000 0.0000 0.0000 -9.5723 0.0000 0.0000
# 5 0.0000 0.0000 0.0000 0.0000 291.2474 0.0000
# 6 0.0000 0.0000 0.0000 0.0000 0.0000 53.3835
#
#
#
# Elastic Compliance Matrix: (Units=1/GPa)
#
#
# Indices 1 2 3 4 5 6 
#
# 1 0.009288 0.000441 -0.005045 0.000000 0.000000 0.000000
# 2 0.000441 0.012794 -0.000830 0.000000 0.000000 0.000000
# 3 -0.005045 -0.000830 0.007616 0.000000 0.000000 0.000000
# 4 0.000000 0.000000 0.000000 -0.104468 0.000000 0.000000
# 5 0.000000 0.000000 0.000000 0.000000 0.003434 0.000000
# 6 0.000000 0.000000 0.000000 0.000000 0.000000 0.018732
#
#
# Mechanical properties :
#
#
# Convention : Reuss Voigt Hill
#
# Bulk Modulus (GPa) = 53.10863 77.59198 65.35031
# Shear Modulus (GPa) = -141.00466 89.05450 -25.97508
#
# Velocity S-wave (km/s) = -7.95776 6.32414 -3.41548
# Velocity P-wave (km/s) = 7.78352 9.39007 3.71417
#
# Compressibility (1/GPa) = 0.01882933
#
# Stress axis : x y z
#
# Youngs Moduli (GPa) = 107.66042 78.16440 131.30713
#
# Poissons Ratio (x) = -0.03444 0.66247
# Poissons Ratio (y) = -0.04743 0.10893
# Poissons Ratio (z) = 0.54317 0.06484
#
# Static dielectric constant tensor:
#      x y z
#    x 1.780170 0.000000 0.000000 
#    y 0.000000 1.858540 0.000000 
#    z 0.000000 0.000000 1.813050 
# 
# From -- ./inp_files/57309.got.cif
#   From: 2010.05.17/outbox.cif.g08.bks.cpg/sg63_29_cif.got.tgz:57309.got - 2010.06.03 15:47:04.
