data_PCOD9470566
_publ_section_title
;
Structure prediction by ZEFSAII (Michael W. Deem and Ramdas Pophale) SiO2 
 PCOD9470566
Probable space group: C M C M
;
_chemical_formula_sum "Si O2"
_cell_formula_units_Z 112
_cell_length_a 14.421025
_cell_length_b 16.756111
_cell_length_c 24.330280
_cell_angle_alpha 90.000000
_cell_angle_beta 90.000000
_cell_angle_gamma 90.000000
_cell_volume 5879.176052
_symmetry_space_group_name_H-M "C M C M"
_symmetry_group_IT_number 63
_symmetry_cell_setting 'orthorhombic'
loop_
_space_group_symop_operation_xyz
x,y,z
-x,-y,1/2+z
x,-y,-z
-x,y,1/2-z
-x,-y,-z
x,y,1/2-z
-x,y,z
x,-y,1/2+z
1/2+x,1/2+y,z
1/2-x,1/2-y,1/2+z
1/2+x,1/2-y,-z
1/2-x,1/2+y,1/2-z
1/2-x,1/2-y,-z
1/2+x,1/2+y,1/2-z
1/2-x,1/2+y,z
1/2+x,1/2-y,1/2+z
loop_
_atom_site_type_symbol
_atom_site_label
_atom_site_fract_x
_atom_site_fract_y
_atom_site_fract_z
Si Si1 0.201058 0.196932 0.814941
Si Si2 0.206430 0.064324 0.898473
Si Si3 0.608840 0.604990 0.401600
Si Si4 0.101725 0.237545 0.314409
Si Si5 0.610782 0.185733 0.097408
Si Si6 0.108566 0.496893 0.933800
Si Si7 0.611729 0.320489 0.015027
O O1 0.178463 0.200952 0.750000
O O2 0.176599 0.113805 0.844493
O O3 0.311744 0.205110 0.822218
O O4 0.157197 0.268956 0.851001
O O5 0.162865 0.113318 0.948850
O O6 0.165184 0.975974 0.900035
O O7 0.316668 0.055459 0.906826
O O8 0.500000 0.585197 0.408519
O O9 0.619854 0.656676 0.347173
O O10 0.635928 0.662862 0.452059
O O11 0.098357 0.220169 0.250000
O O12 0.000000 0.268210 0.331995
O O13 0.500000 0.192863 0.104610
O O14 0.630060 0.092665 0.088013
O O15 0.635867 0.235696 0.042346
O O16 0.000000 0.514459 0.922269
O O17 0.120138 0.500000 0.000000
O O18 0.500000 0.329447 0.020262
#
# Coordination Sequence:
#
# PCOD9470566 Si02
#       7
#    16  16  16  16  16  16  16
#     4  10  22  38  56  77 102 139 184 227 269 313
#     4  11  21  33  51  77 110 142 173 215 265 317
#     4  10  19  32  54  81 106 134 167 210 269 326
#     4   9  19  36  55  74  98 131 173 218 260 306
#     4   9  19  37  58  80 107 139 179 225 267 315
#     4  10  21  36  54  79 113 149 181 216 264 323
#     4   9  18  33  54  80 108 137 171 212 262 320
#
# _framework density 19.050287999999998
#
# number of rings (size 3 to 8) (size 9 to 14) (size 15 to 20)
#    0.000    2.286    0.000    2.571    0.000    4.286 
#    0.000    7.143    0.000    0.857    0.000    0.000 
#    0.000    0.000    0.000    0.000    0.000    0.000 
#
# Total GULP energy -312442.055863 kJ/mol
# GULP energy per Si atom -5579.322426 kJ/mol
# Density = 1.900693 g / cm^3
# Si number density = 19.050288 Si / 1000 Ang^3
#
#
#
# Elastic Constant Matrix: (Units=GPa)
#
#
# Indices 1 2 3 4 5 6 
#
# 1 41.4307 16.4485 13.3519 0.0000 0.0000 0.0000
# 2 16.4485 29.7620 23.6353 0.0000 0.0000 0.0000
# 3 13.3519 23.6353 32.2668 0.0000 0.0000 0.0000
# 4 0.0000 0.0000 0.0000 13.9347 0.0000 0.0000
# 5 0.0000 0.0000 0.0000 0.0000 22.5041 0.0000
# 6 0.0000 0.0000 0.0000 0.0000 0.0000 27.9366
#
#
#
# Elastic Compliance Matrix: (Units=1/GPa)
#
#
# Indices 1 2 3 4 5 6 
#
# 1 0.030927 -0.016566 -0.000663 0.000000 0.000000 0.000000
# 2 -0.016566 0.089200 -0.058484 0.000000 0.000000 0.000000
# 3 -0.000663 -0.058484 0.074105 0.000000 0.000000 0.000000
# 4 0.000000 0.000000 0.000000 0.071763 0.000000 0.000000
# 5 0.000000 0.000000 0.000000 0.000000 0.044436 0.000000
# 6 0.000000 0.000000 0.000000 0.000000 0.000000 0.035795
#
#
# Mechanical properties :
#
#
# Convention : Reuss Voigt Hill
#
# Bulk Modulus (GPa) = 23.36077 23.37010 23.36544
# Shear Modulus (GPa) = 9.76710 16.21000 12.98855
#
# Velocity S-wave (km/s) = 2.26675 2.92019 2.61397
# Velocity P-wave (km/s) = 4.37495 4.86459 4.62625
#
# Compressibility (1/GPa) = 0.04280681
#
# Stress axis : x y z
#
# Youngs Moduli (GPa) = 32.33386 11.21074 13.49431
#
# Poissons Ratio (x) = 0.18572 0.00895
# Poissons Ratio (y) = 0.53564 0.78920
# Poissons Ratio (z) = 0.02144 0.65565
#
# Static dielectric constant tensor:
#      x y z
#    x 1.711310 0.000000 0.000000 
#    y 0.000000 1.636130 0.000000 
#    z 0.000000 0.000000 1.644470 
# 
# From -- ./inp_files/62968.got.cif
#   From: 2010.05.17/outbox.cif.g08.bks.cpg/sg63_32_cif.got.tgz:62968.got - 2010.06.03 15:47:04.
