data_PCOD9470218
_publ_section_title
;
Structure prediction by ZEFSAII (Michael W. Deem and Ramdas Pophale) SiO2 
 PCOD9470218
Probable space group: C M C M
;
_chemical_formula_sum "Si O2"
_cell_formula_units_Z 80
_cell_length_a 9.071308
_cell_length_b 26.639172
_cell_length_c 19.031017
_cell_angle_alpha 90.000000
_cell_angle_beta 90.000000
_cell_angle_gamma 90.000000
_cell_volume 4598.885872
_symmetry_space_group_name_H-M "C M C M"
_symmetry_group_IT_number 63
_symmetry_cell_setting 'orthorhombic'
loop_
_space_group_symop_operation_xyz
x,y,z
-x,-y,1/2+z
x,-y,-z
-x,y,1/2-z
-x,-y,-z
x,y,1/2-z
-x,y,z
x,-y,1/2+z
1/2+x,1/2+y,z
1/2-x,1/2-y,1/2+z
1/2+x,1/2-y,-z
1/2-x,1/2+y,1/2-z
1/2-x,1/2-y,-z
1/2+x,1/2+y,1/2-z
1/2-x,1/2+y,z
1/2+x,1/2-y,1/2+z
loop_
_atom_site_type_symbol
_atom_site_label
_atom_site_fract_x
_atom_site_fract_y
_atom_site_fract_z
Si Si1 0.177389 0.393182 0.419441
Si Si2 0.824065 0.104868 0.427651
Si Si3 0.172894 0.195438 0.665692
Si Si4 0.830384 0.504230 0.414667
Si Si5 0.675677 0.299528 0.832524
O O1 0.246237 0.388436 0.497061
O O2 0.239292 0.348933 0.371785
O O3 0.217292 0.448836 0.390406
O O4 0.000000 0.391674 0.424332
O O5 0.768148 0.051924 0.396363
O O6 0.786796 0.151702 0.377933
O O7 0.000000 0.103104 0.437051
O O8 0.189288 0.191336 0.750000
O O9 0.237672 0.249698 0.645016
O O10 0.000000 0.192334 0.648299
O O11 0.828433 0.500000 0.500000
O O12 0.000000 0.513213 0.393739
O O13 0.706312 0.308499 0.750000
O O14 0.500000 0.290355 0.839520
#
# Coordination Sequence:
#
# PCOD9470218 Si02
#       5
#    16  16  16  16  16
#     4  10  20  34  53  75 102 136 169 203 247 301
#     4  10  19  31  52  79 103 130 167 211 253 292
#     4  10  21  36  54  76 100 128 166 211 254 295
#     4   8  16  31  49  71 100 133 167 202 245 297
#     4   9  19  36  54  72  99 135 169 201 247 305
#
# _framework density 17.395517999999999
#
# number of rings (size 3 to 8) (size 9 to 14) (size 15 to 20)
#    0.000    2.600    0.000    3.000    0.000    8.000 
#    0.000    1.000    0.000    3.600    0.000    0.000 
#    0.000    0.000    0.000    0.000    0.000    0.000 
#
# Total GULP energy -223045.306705 kJ/mol
# GULP energy per Si atom -5576.132668 kJ/mol
# Density = 1.735592 g / cm^3
# Si number density = 17.395518 Si / 1000 Ang^3
#
#
#
# Elastic Constant Matrix: (Units=GPa)
#
#
# Indices 1 2 3 4 5 6 
#
# 1 76.2703 88.9469 37.1165 0.0000 0.0000 0.0000
# 2 88.9469 191.6540 56.9335 0.0000 0.0000 0.0000
# 3 37.1165 56.9335 28.6269 0.0000 0.0000 0.0000
# 4 0.0000 0.0000 0.0000 -243.8583 0.0000 0.0000
# 5 0.0000 0.0000 0.0000 0.0000 18.3057 0.0000
# 6 0.0000 0.0000 0.0000 0.0000 0.0000 37.2156
#
#
#
# Elastic Compliance Matrix: (Units=1/GPa)
#
#
# Indices 1 2 3 4 5 6 
#
# 1 0.039639 -0.007647 -0.036186 0.000000 0.000000 0.000000
# 2 -0.007647 0.014226 -0.018379 0.000000 0.000000 0.000000
# 3 -0.036186 -0.018379 0.118402 0.000000 0.000000 0.000000
# 4 0.000000 0.000000 0.000000 -0.004101 0.000000 0.000000
# 5 0.000000 0.000000 0.000000 0.000000 0.054628 0.000000
# 6 0.000000 0.000000 0.000000 0.000000 0.000000 0.026870
#
#
# Mechanical properties :
#
#
# Convention : Reuss Voigt Hill
#
# Bulk Modulus (GPa) = 20.90145 73.61613 47.25879
# Shear Modulus (GPa) = 12.81932 -30.09711 -8.63890
#
# Velocity S-wave (km/s) = 2.71759 -4.16404 -2.23091
# Velocity P-wave (km/s) = 4.67853 4.39226 4.53765
#
# Compressibility (1/GPa) = 0.04784358
#
# Stress axis : x y z
#
# Youngs Moduli (GPa) = 25.22779 70.29170 8.44579
#
# Poissons Ratio (x) = 0.53751 0.30562
# Poissons Ratio (y) = 0.19291 0.15523
# Poissons Ratio (z) = 0.91289 1.29190
#
# Static dielectric constant tensor:
#      x y z
#    x 1.579730 0.000000 0.000000 
#    y 0.000000 1.595810 0.000000 
#    z 0.000000 0.000000 1.570380 
# 
# From -- ./inp_files/40485.got.cif
#   From: 2010.05.17/outbox.cif.g08.bks.cpg/sg63_21_cif.got.tgz:40485.got - 2010.06.03 15:47:04.
