data_PCOD9470831
_publ_section_title
;
Structure prediction by ZEFSAII (Michael W. Deem and Ramdas Pophale) SiO2 
 PCOD9470831
Probable space group: C M C M
;
_chemical_formula_sum "Si O2"
_cell_formula_units_Z 80
_cell_length_a 7.441741
_cell_length_b 26.435957
_cell_length_c 17.872642
_cell_angle_alpha 90.000000
_cell_angle_beta 90.000000
_cell_angle_gamma 90.000000
_cell_volume 3516.076730
_symmetry_space_group_name_H-M "C M C M"
_symmetry_group_IT_number 63
_symmetry_cell_setting 'orthorhombic'
loop_
_space_group_symop_operation_xyz
x,y,z
-x,-y,1/2+z
x,-y,-z
-x,y,1/2-z
-x,-y,-z
x,y,1/2-z
-x,y,z
x,-y,1/2+z
1/2+x,1/2+y,z
1/2-x,1/2-y,1/2+z
1/2+x,1/2-y,-z
1/2-x,1/2+y,1/2-z
1/2-x,1/2-y,-z
1/2+x,1/2+y,1/2-z
1/2-x,1/2+y,z
1/2+x,1/2-y,1/2+z
loop_
_atom_site_type_symbol
_atom_site_label
_atom_site_fract_x
_atom_site_fract_y
_atom_site_fract_z
Si Si1 0.782080 0.922226 0.163049
Si Si2 0.205062 0.140502 0.390715
Si Si3 0.220321 0.754300 0.667037
Si Si4 0.206428 0.669659 0.554995
Si Si5 0.283204 0.465585 0.661567
O O1 0.730393 0.914873 0.250000
O O2 0.713818 0.878056 0.110424
O O3 0.000000 0.921063 0.160384
O O4 0.720504 0.978440 0.138729
O O5 0.283157 0.188525 0.347270
O O6 0.202450 0.155625 0.477412
O O7 0.285246 0.084851 0.378769
O O8 0.000000 0.136446 0.362637
O O9 0.272452 0.736756 0.750000
O O10 0.281469 0.717065 0.601394
O O11 0.000000 0.753885 0.664548
O O12 0.000000 0.681000 0.536008
O O13 0.247343 0.460208 0.750000
O O14 0.500000 0.467629 0.651884
#
# Coordination Sequence:
#
# PCOD9470831 Si02
#       5
#    16  16  16  16  16
#     4   9  18  34  55  77 100 128 168 214 253 293
#     4  10  19  33  55  78 100 128 166 212 256 298
#     4   9  18  33  54  77  98 126 168 213 254 298
#     4  11  22  34  49  73 109 143 167 197 243 302
#     4   8  15  30  54  80 100 123 164 217 262 295
#
# _framework density 22.752632999999999
#
# number of rings (size 3 to 8) (size 9 to 14) (size 15 to 20)
#    0.000    2.600    0.000    3.600    0.000    4.400 
#    0.000    6.000    0.000    6.000    0.000    0.000 
#    0.000    0.000    0.000    0.000    0.000    0.000 
#
# Total GULP energy -223419.276985 kJ/mol
# GULP energy per Si atom -5585.481925 kJ/mol
# Density = 2.270085 g / cm^3
# Si number density = 22.752633 Si / 1000 Ang^3
#
#
#
# Elastic Constant Matrix: (Units=GPa)
#
#
# Indices 1 2 3 4 5 6 
#
# 1 69.3983 -5.9865 -9.5868 0.0000 0.0000 0.0000
# 2 -5.9865 94.6185 10.2698 0.0000 0.0000 0.0000
# 3 -9.5868 10.2698 35.6934 0.0000 0.0000 0.0000
# 4 0.0000 0.0000 0.0000 31.1774 0.0000 0.0000
# 5 0.0000 0.0000 0.0000 0.0000 5.9763 0.0000
# 6 0.0000 0.0000 0.0000 0.0000 0.0000 -3.6770
#
#
#
# Elastic Compliance Matrix: (Units=1/GPa)
#
#
# Indices 1 2 3 4 5 6 
#
# 1 0.014990 0.000528 0.003874 0.000000 0.000000 0.000000
# 2 0.000528 0.010928 -0.003002 0.000000 0.000000 0.000000
# 3 0.003874 -0.003002 0.029921 0.000000 0.000000 0.000000
# 4 0.000000 0.000000 0.000000 0.032075 0.000000 0.000000
# 5 0.000000 0.000000 0.000000 0.000000 0.167327 0.000000
# 6 0.000000 0.000000 0.000000 0.000000 0.000000 -0.271960
#
#
# Mechanical properties :
#
#
# Convention : Reuss Voigt Hill
#
# Bulk Modulus (GPa) = 17.05354 21.01145 19.03249
# Shear Modulus (GPa) = 180146.81991 20.36292 90083.59141
#
# Velocity S-wave (km/s) = 281.68802 2.99485 199.19476
# Velocity P-wave (km/s) = 325.27685 4.60582 230.02852
#
# Compressibility (1/GPa) = 0.05863886
#
# Stress axis : x y z
#
# Youngs Moduli (GPa) = 66.70972 91.50767 33.42149
#
# Poissons Ratio (x) = -0.04831 -0.12949
# Poissons Ratio (y) = -0.03522 0.10035
# Poissons Ratio (z) = -0.25846 0.27475
#
# Static dielectric constant tensor:
#      x y z
#    x 1.901480 0.000000 0.000000 
#    y 0.000000 1.851780 0.000000 
#    z 0.000000 0.000000 1.784810 
# 
# From -- ./inp_files/40463.got.cif
#   From: 2010.05.17/outbox.cif.g08.bks.cpg/sg63_21_cif.got.tgz:40463.got - 2010.06.03 15:47:04.
