data_PCOD9470303
_publ_section_title
;
Structure prediction by ZEFSAII (Michael W. Deem and Ramdas Pophale) SiO2 
 PCOD9470303
Probable space group: C M C M
;
_chemical_formula_sum "Si O2"
_cell_formula_units_Z 80
_cell_length_a 18.677117
_cell_length_b 19.087518
_cell_length_c 13.195692
_cell_angle_alpha 90.000000
_cell_angle_beta 90.000000
_cell_angle_gamma 90.000000
_cell_volume 4704.261650
_symmetry_space_group_name_H-M "C M C M"
_symmetry_group_IT_number 63
_symmetry_cell_setting 'orthorhombic'
loop_
_space_group_symop_operation_xyz
x,y,z
-x,-y,1/2+z
x,-y,-z
-x,y,1/2-z
-x,-y,-z
x,y,1/2-z
-x,y,z
x,-y,1/2+z
1/2+x,1/2+y,z
1/2-x,1/2-y,1/2+z
1/2+x,1/2-y,-z
1/2-x,1/2+y,1/2-z
1/2-x,1/2-y,-z
1/2+x,1/2+y,1/2-z
1/2-x,1/2+y,z
1/2+x,1/2-y,1/2+z
loop_
_atom_site_type_symbol
_atom_site_label
_atom_site_fract_x
_atom_site_fract_y
_atom_site_fract_z
Si Si1 0.919107 0.224597 0.628901
Si Si2 0.223562 0.826243 0.035554
Si Si3 0.330899 0.918251 0.364108
Si Si4 0.919397 0.384125 0.558926
Si Si5 0.726592 0.931504 0.637094
O O1 0.906813 0.234497 0.750000
O O2 0.856006 0.179537 0.579598
O O3 0.917807 0.300246 0.573518
O O4 0.000000 0.196245 0.617096
O O5 0.278832 0.852391 0.120760
O O6 0.250000 0.750000 0.000000
O O7 0.234260 0.882140 0.944186
O O8 0.358320 0.923668 0.250000
O O9 0.392178 0.909693 0.448641
O O10 0.280132 0.985754 0.384183
O O11 0.857364 0.410854 0.632342
O O12 0.000000 0.408093 0.579900
O O13 0.755168 0.920492 0.750000
#
# Coordination Sequence:
#
# PCOD9470303 Si02
#       5
#    16  16  16  16  16
#     4  10  20  34  53  79 109 138 173 219 267 313
#     4  11  19  33  56  80 102 133 177 223 259 309
#     4  10  21  35  51  75 108 141 177 215 259 315
#     4  10  19  32  49  73 106 142 178 215 256 306
#     4  10  21  35  52  77 106 141 178 216 264 313
#
# _framework density 17.005856999999999
#
# number of rings (size 3 to 8) (size 9 to 14) (size 15 to 20)
#    0.000    1.800    4.000    3.600    0.000    4.000 
#    0.000    2.000    0.000    3.000    0.000    2.800 
#    0.000    0.000    0.000    0.000    0.000    0.000 
#
# Total GULP energy -222819.433934 kJ/mol
# GULP energy per Si atom -5570.485848 kJ/mol
# Density = 1.696715 g / cm^3
# Si number density = 17.005857 Si / 1000 Ang^3
#
#
#
# Elastic Constant Matrix: (Units=GPa)
#
#
# Indices 1 2 3 4 5 6 
#
# 1 75.6819 27.3649 23.4929 0.0000 0.0000 0.0000
# 2 27.3649 68.7348 23.0128 0.0000 0.0000 0.0000
# 3 23.4929 23.0128 111.7031 0.0000 0.0000 0.0000
# 4 0.0000 0.0000 0.0000 17.2406 0.0000 0.0000
# 5 0.0000 0.0000 0.0000 0.0000 12.7439 0.0000
# 6 0.0000 0.0000 0.0000 0.0000 0.0000 19.7453
#
#
#
# Elastic Compliance Matrix: (Units=1/GPa)
#
#
# Indices 1 2 3 4 5 6 
#
# 1 0.015920 -0.005604 -0.002194 0.000000 0.000000 0.000000
# 2 -0.005604 0.017599 -0.002447 0.000000 0.000000 0.000000
# 3 -0.002194 -0.002447 0.009918 0.000000 0.000000 0.000000
# 4 0.000000 0.000000 0.000000 0.058003 0.000000 0.000000
# 5 0.000000 0.000000 0.000000 0.000000 0.078469 0.000000
# 6 0.000000 0.000000 0.000000 0.000000 0.000000 0.050645
#
#
# Mechanical properties :
#
#
# Convention : Reuss Voigt Hill
#
# Bulk Modulus (GPa) = 43.57726 44.87345 44.22536
# Shear Modulus (GPa) = 19.32795 22.09590 20.71193
#
# Velocity S-wave (km/s) = 3.37493 3.60851 3.49367
# Velocity P-wave (km/s) = 6.39276 6.61862 6.50667
#
# Compressibility (1/GPa) = 0.02294775
#
# Stress axis : x y z
#
# Youngs Moduli (GPa) = 62.81250 56.82148 100.82831
#
# Poissons Ratio (x) = 0.31841 0.22120
# Poissons Ratio (y) = 0.35199 0.24674
# Poissons Ratio (z) = 0.13780 0.13905
#
# Static dielectric constant tensor:
#      x y z
#    x 1.568840 0.000000 0.000000 
#    y 0.000000 1.609550 0.000000 
#    z 0.000000 0.000000 1.701000 
# 
# From -- ./inp_files/35106.got.cif
#   From: 2010.05.17/outbox.cif.g08.bks.cpg/sg63_18_cif.got.tgz:35106.got - 2010.06.03 15:47:04.
