data_PCOD9470325
_publ_section_title
;
Structure prediction by ZEFSAII (Michael W. Deem and Ramdas Pophale) SiO2 
 PCOD9470325
Probable space group: C M C M
;
_chemical_formula_sum "Si O2"
_cell_formula_units_Z 80
_cell_length_a 30.037400
_cell_length_b 16.931948
_cell_length_c 9.295951
_cell_angle_alpha 90.000000
_cell_angle_beta 90.000000
_cell_angle_gamma 90.000000
_cell_volume 4727.843474
_symmetry_space_group_name_H-M "C M C M"
_symmetry_group_IT_number 63
_symmetry_cell_setting 'orthorhombic'
loop_
_space_group_symop_operation_xyz
x,y,z
-x,-y,1/2+z
x,-y,-z
-x,y,1/2-z
-x,-y,-z
x,y,1/2-z
-x,y,z
x,-y,1/2+z
1/2+x,1/2+y,z
1/2-x,1/2-y,1/2+z
1/2+x,1/2-y,-z
1/2-x,1/2+y,1/2-z
1/2-x,1/2-y,-z
1/2+x,1/2+y,1/2-z
1/2-x,1/2+y,z
1/2+x,1/2-y,1/2+z
loop_
_atom_site_type_symbol
_atom_site_label
_atom_site_fract_x
_atom_site_fract_y
_atom_site_fract_z
Si Si1 0.414047 0.141408 0.585029
Si Si2 0.190785 0.078640 0.920397
Si Si3 0.778205 0.620160 0.410303
Si Si4 0.351791 0.000000 0.000000
Si Si5 0.847636 0.247497 0.920240
Si Si6 0.500000 0.085096 0.077207
O O1 0.427313 0.155511 0.750000
O O2 0.384065 0.211362 0.520019
O O3 0.456023 0.127972 0.481818
O O4 0.383849 0.061710 0.580325
O O5 0.192274 0.066154 0.750000
O O6 0.161356 0.156058 0.950220
O O7 0.240438 0.097099 0.977820
O O8 0.174989 0.000000 0.000000
O O9 0.758566 0.622427 0.250000
O O10 0.818199 0.556266 0.412558
O O11 0.801924 0.703272 0.442676
O O12 0.858664 0.257330 0.750000
O O13 0.500000 0.077711 0.250000
O O14 0.500000 0.000000 0.000000
#
# Coordination Sequence:
#
# PCOD9470325 Si02
#       6
#    16  16  16   8  16   8
#     4  11  22  36  57  82 111 145 184 223 268 323
#     4  11  22  35  52  74 103 139 182 233 280 325
#     4  10  19  32  50  72 102 139 183 228 272 322
#     4  10  20  31  50  76 112 146 184 225 266 316
#     4   9  21  38  53  74 105 140 180 227 279 326
#     4  12  24  38  58  84 117 148 181 220 264 318
#
# _framework density 16.921035
#
# number of rings (size 3 to 8) (size 9 to 14) (size 15 to 20)
#    0.000    1.600    2.000    3.300    0.000    6.400 
#    0.000    0.000    0.000    0.000    0.000    0.700 
#    0.000    0.000    0.000    0.000    0.000    0.000 
#
# Total GULP energy -223294.187811 kJ/mol
# GULP energy per Si atom -5582.354695 kJ/mol
# Density = 1.688252 g / cm^3
# Si number density = 16.921035 Si / 1000 Ang^3
#
#
#
# Elastic Constant Matrix: (Units=GPa)
#
#
# Indices 1 2 3 4 5 6 
#
# 1 66.6104 35.7865 49.5403 0.0000 0.0000 0.0000
# 2 35.7865 129.4777 63.6605 0.0000 0.0000 0.0000
# 3 49.5403 63.6605 125.0640 0.0000 0.0000 0.0000
# 4 0.0000 0.0000 0.0000 19.9754 0.0000 0.0000
# 5 0.0000 0.0000 0.0000 0.0000 5.0755 0.0000
# 6 0.0000 0.0000 0.0000 0.0000 0.0000 15.4574
#
#
#
# Elastic Compliance Matrix: (Units=1/GPa)
#
#
# Indices 1 2 3 4 5 6 
#
# 1 0.021817 -0.002375 -0.007433 0.000000 0.000000 0.000000
# 2 -0.002375 0.010560 -0.004434 0.000000 0.000000 0.000000
# 3 -0.007433 -0.004434 0.013197 0.000000 0.000000 0.000000
# 4 0.000000 0.000000 0.000000 0.050062 0.000000 0.000000
# 5 0.000000 0.000000 0.000000 0.000000 0.197023 0.000000
# 6 0.000000 0.000000 0.000000 0.000000 0.000000 0.064694
#
#
# Mechanical properties :
#
#
# Convention : Reuss Voigt Hill
#
# Bulk Modulus (GPa) = 58.51726 68.79185 63.65455
# Shear Modulus (GPa) = 12.77023 19.57931 16.17477
#
# Velocity S-wave (km/s) = 2.75015 3.40531 3.09511
# Velocity P-wave (km/s) = 6.68895 7.49696 7.10445
#
# Compressibility (1/GPa) = 0.01708898
#
# Stress axis : x y z
#
# Youngs Moduli (GPa) = 45.83574 94.69549 75.77204
#
# Poissons Ratio (x) = 0.22494 0.56321
# Poissons Ratio (y) = 0.10888 0.33600
# Poissons Ratio (z) = 0.34070 0.41992
#
# Static dielectric constant tensor:
#      x y z
#    x 1.553440 0.000000 0.000000 
#    y 0.000000 1.585570 0.000000 
#    z 0.000000 0.000000 1.572260 
# 
# From -- ./inp_files/14087.got.cif
#   From: 2010.05.17/outbox.cif.g08.bks.cpg/sg63_8_cif.got.tgz:14087.got - 2010.06.03 15:47:04.
