data_PCOD9470658
_publ_section_title
;
Structure prediction by ZEFSAII (Michael W. Deem and Ramdas Pophale) SiO2 
 PCOD9470658
Probable space group: C M C M
;
_chemical_formula_sum "Si O2"
_cell_formula_units_Z 80
_cell_length_a 17.356025
_cell_length_b 9.029706
_cell_length_c 24.489193
_cell_angle_alpha 90.000000
_cell_angle_beta 90.000000
_cell_angle_gamma 90.000000
_cell_volume 3837.941505
_symmetry_space_group_name_H-M "C M C M"
_symmetry_group_IT_number 63
_symmetry_cell_setting 'orthorhombic'
loop_
_space_group_symop_operation_xyz
x,y,z
-x,-y,1/2+z
x,-y,-z
-x,y,1/2-z
-x,-y,-z
x,y,1/2-z
-x,y,z
x,-y,1/2+z
1/2+x,1/2+y,z
1/2-x,1/2-y,1/2+z
1/2+x,1/2-y,-z
1/2-x,1/2+y,1/2-z
1/2-x,1/2-y,-z
1/2+x,1/2+y,1/2-z
1/2-x,1/2+y,z
1/2+x,1/2-y,1/2+z
loop_
_atom_site_type_symbol
_atom_site_label
_atom_site_fract_x
_atom_site_fract_y
_atom_site_fract_z
Si Si1 0.182967 0.752134 0.455922
Si Si2 0.159290 0.548540 0.812342
Si Si3 0.410581 0.637942 0.452736
Si Si4 0.214020 0.837512 0.637240
Si Si5 0.083279 0.486366 0.077431
O O1 0.250000 0.750000 0.500000
O O2 0.119895 0.860687 0.483730
O O3 0.227799 0.766532 0.398840
O O4 0.146242 0.590722 0.448993
O O5 0.139712 0.517012 0.750000
O O6 0.173509 0.723117 0.822035
O O7 0.235037 0.456028 0.830481
O O8 0.096168 0.506256 0.857626
O O9 0.500000 0.589941 0.446294
O O10 0.347301 0.593002 0.406309
O O11 0.411502 0.816667 0.440261
O O12 0.000000 0.546751 0.062339
#
# Coordination Sequence:
#
# PCOD9470658 Si02
#       5
#    16  16  16  16  16
#     4   9  16  26  42  68 100 130 156 185 231 290
#     4  10  19  33  52  71  94 127 164 204 247 288
#     4   9  16  28  48  73  99 127 158 196 244 293
#     4   9  19  32  49  74  99 124 161 203 240 287
#     4   9  17  28  45  72 101 125 157 204 250 288
#
# _framework density 20.844508999999999
#
# number of rings (size 3 to 8) (size 9 to 14) (size 15 to 20)
#    0.000    2.800    0.000    1.800    0.000    3.600 
#    0.000    3.000    0.000    9.000    0.000    0.000 
#    0.000    0.000    0.000    0.000    0.000    0.000 
#
# Total GULP energy -223023.639880 kJ/mol
# GULP energy per Si atom -5575.590997 kJ/mol
# Density = 2.079707 g / cm^3
# Si number density = 20.844509 Si / 1000 Ang^3
#
#
#
# Elastic Constant Matrix: (Units=GPa)
#
#
# Indices 1 2 3 4 5 6 
#
# 1 90.8383 -0.3437 13.7618 0.0000 0.0000 0.0000
# 2 -0.3437 28.2586 9.2501 0.0000 0.0000 0.0000
# 3 13.7618 9.2501 136.3320 0.0000 0.0000 0.0000
# 4 0.0000 0.0000 0.0000 28.8610 0.0000 0.0000
# 5 0.0000 0.0000 0.0000 0.0000 14.7368 0.0000
# 6 0.0000 0.0000 0.0000 0.0000 0.0000 27.9544
#
#
#
# Elastic Compliance Matrix: (Units=1/GPa)
#
#
# Indices 1 2 3 4 5 6 
#
# 1 0.011187 0.000517 -0.001164 0.000000 0.000000 0.000000
# 2 0.000517 0.036215 -0.002509 0.000000 0.000000 0.000000
# 3 -0.001164 -0.002509 0.007623 0.000000 0.000000 0.000000
# 4 0.000000 0.000000 0.000000 0.034649 0.000000 0.000000
# 5 0.000000 0.000000 0.000000 0.000000 0.067857 0.000000
# 6 0.000000 0.000000 0.000000 0.000000 0.000000 0.035773
#
#
# Mechanical properties :
#
#
# Convention : Reuss Voigt Hill
#
# Bulk Modulus (GPa) = 20.52889 33.41837 26.97363
# Shear Modulus (GPa) = 23.16382 29.82783 26.49583
#
# Velocity S-wave (km/s) = 3.33718 3.78692 3.56914
# Velocity P-wave (km/s) = 4.97182 5.93195 5.47298
#
# Compressibility (1/GPa) = 0.04871183
#
# Stress axis : x y z
#
# Youngs Moduli (GPa) = 89.39009 27.61275 131.18487
#
# Poissons Ratio (x) = -0.01428 0.15274
# Poissons Ratio (y) = -0.04623 0.32919
# Poissons Ratio (z) = 0.10408 0.06929
#
# Static dielectric constant tensor:
#      x y z
#    x 1.761860 0.000000 0.000000 
#    y 0.000000 1.827110 0.000000 
#    z 0.000000 0.000000 1.767880 
# 
# From -- ./inp_files/73742.got.cif
#   From: 2010.05.17/outbox.cif.g08.bks.cpg/sg63_37_cif.got.tgz:73742.got - 2010.06.03 15:47:04.
