data_PCOD9470449
_publ_section_title
;
Structure prediction by ZEFSAII (Michael W. Deem and Ramdas Pophale) SiO2 
 PCOD9470449
Probable space group: C M C M
;
_chemical_formula_sum "Si O2"
_cell_formula_units_Z 96
_cell_length_a 24.348860
_cell_length_b 24.188205
_cell_length_c 8.925013
_cell_angle_alpha 90.000000
_cell_angle_beta 90.000000
_cell_angle_gamma 90.000000
_cell_volume 5256.432970
_symmetry_space_group_name_H-M "C M C M"
_symmetry_group_IT_number 63
_symmetry_cell_setting 'orthorhombic'
loop_
_space_group_symop_operation_xyz
x,y,z
-x,-y,1/2+z
x,-y,-z
-x,y,1/2-z
-x,-y,-z
x,y,1/2-z
-x,y,z
x,-y,1/2+z
1/2+x,1/2+y,z
1/2-x,1/2-y,1/2+z
1/2+x,1/2-y,-z
1/2-x,1/2+y,1/2-z
1/2-x,1/2-y,-z
1/2+x,1/2+y,1/2-z
1/2-x,1/2+y,z
1/2+x,1/2-y,1/2+z
loop_
_atom_site_type_symbol
_atom_site_label
_atom_site_fract_x
_atom_site_fract_y
_atom_site_fract_z
Si Si1 0.766446 0.166948 0.070737
Si Si2 0.671808 0.439547 0.570903
Si Si3 0.060162 0.061654 0.570151
Si Si4 0.436332 0.178248 0.568695
Si Si5 0.837736 0.262165 0.571369
Si Si6 0.066880 0.555931 0.577882
O O1 0.657021 0.240488 0.250000
O O2 0.779987 0.103579 0.035422
O O3 0.810026 0.206565 0.989757
O O4 0.706226 0.189474 0.031500
O O5 0.680098 0.500000 0.500000
O O6 0.727006 0.326035 0.750000
O O7 0.614927 0.414558 0.504348
O O8 0.066446 0.058455 0.750000
O O9 0.000000 0.087344 0.538656
O O10 0.058125 0.000000 0.500000
O O11 0.433799 0.177876 0.750000
O O12 0.500000 0.187153 0.527029
O O13 0.395318 0.222916 0.502690
O O14 0.418865 0.116438 0.514984
O O15 0.666387 0.554935 0.250000
O O16 0.086414 0.500000 0.500000
O O17 0.084408 0.554081 0.750000
O O18 0.000000 0.554997 0.575803
#
# Coordination Sequence:
#
# PCOD9470449 Si02
#       6
#    16  16  16  16  16  16
#     4   9  20  38  56  75 101 134 170 208 254 306
#     4  10  19  32  52  76 103 133 166 206 251 301
#     4   9  16  26  42  66  97 131 165 200 240 290
#     4   9  18  33  52  75 106 140 170 205 256 313
#     4  10  20  35  57  80 100 128 172 219 254 294
#     4   8  14  25  42  65  94 130 168 202 240 291
#
# _framework density 18.263335000000001
#
# number of rings (size 3 to 8) (size 9 to 14) (size 15 to 20)
#    0.000    2.833    0.000    3.500    0.000    4.000 
#    0.000    3.333    0.000    5.000    0.000    0.000 
#    0.000    0.000    0.000    0.000    0.000    0.000 
#
# Total GULP energy -267353.913486 kJ/mol
# GULP energy per Si atom -5569.873198 kJ/mol
# Density = 1.822177 g / cm^3
# Si number density = 18.263335 Si / 1000 Ang^3
#
#
#
# Elastic Constant Matrix: (Units=GPa)
#
#
# Indices 1 2 3 4 5 6 
#
# 1 66.1242 42.0187 25.5394 0.0000 0.0000 0.0000
# 2 42.0187 57.6251 26.2093 0.0000 0.0000 0.0000
# 3 25.5394 26.2093 39.7318 0.0000 0.0000 0.0000
# 4 0.0000 0.0000 0.0000 24.1059 0.0000 0.0000
# 5 0.0000 0.0000 0.0000 0.0000 20.0651 0.0000
# 6 0.0000 0.0000 0.0000 0.0000 0.0000 21.4765
#
#
#
# Elastic Compliance Matrix: (Units=1/GPa)
#
#
# Indices 1 2 3 4 5 6 
#
# 1 0.029412 -0.018355 -0.006798 0.000000 0.000000 0.000000
# 2 -0.018355 0.036246 -0.012112 0.000000 0.000000 0.000000
# 3 -0.006798 -0.012112 0.037528 0.000000 0.000000 0.000000
# 4 0.000000 0.000000 0.000000 0.041484 0.000000 0.000000
# 5 0.000000 0.000000 0.000000 0.000000 0.049838 0.000000
# 6 0.000000 0.000000 0.000000 0.000000 0.000000 0.046563
#
#
# Mechanical properties :
#
#
# Convention : Reuss Voigt Hill
#
# Bulk Modulus (GPa) = 34.89513 39.00178 36.94846
# Shear Modulus (GPa) = 15.37745 17.77708 16.57727
#
# Velocity S-wave (km/s) = 2.90485 3.12328 3.01604
# Velocity P-wave (km/s) = 5.51353 5.86584 5.69241
#
# Compressibility (1/GPa) = 0.02865729
#
# Stress axis : x y z
#
# Youngs Moduli (GPa) = 33.99950 27.58939 26.64664
#
# Poissons Ratio (x) = 0.50639 0.18115
# Poissons Ratio (y) = 0.62404 0.32273
# Poissons Ratio (z) = 0.23114 0.33415
#
# Static dielectric constant tensor:
#      x y z
#    x 1.651100 0.000000 0.000000 
#    y 0.000000 1.643080 0.000000 
#    z 0.000000 0.000000 1.614810 
# 
# From -- ./inp_files/12398.got.cif
#   From: 2010.05.17/outbox.cif.g08.bks.cpg/sg63_7_cif.got.tgz:12398.got - 2010.06.03 15:47:04.
