data_PCOD9470003
_publ_section_title
;
Structure prediction by ZEFSAII (Michael W. Deem and Ramdas Pophale) SiO2 
 PCOD9470003
Probable space group: C M C M
;
_chemical_formula_sum "Si O2"
_cell_formula_units_Z 80
_cell_length_a 7.476645
_cell_length_b 26.969435
_cell_length_c 20.241739
_cell_angle_alpha 90.000000
_cell_angle_beta 90.000000
_cell_angle_gamma 90.000000
_cell_volume 4081.562294
_symmetry_space_group_name_H-M "C M C M"
_symmetry_group_IT_number 63
_symmetry_cell_setting 'orthorhombic'
loop_
_space_group_symop_operation_xyz
x,y,z
-x,-y,1/2+z
x,-y,-z
-x,y,1/2-z
-x,-y,-z
x,y,1/2-z
-x,y,z
x,-y,1/2+z
1/2+x,1/2+y,z
1/2-x,1/2-y,1/2+z
1/2+x,1/2-y,-z
1/2-x,1/2+y,1/2-z
1/2-x,1/2-y,-z
1/2+x,1/2+y,1/2-z
1/2-x,1/2+y,z
1/2+x,1/2-y,1/2+z
loop_
_atom_site_type_symbol
_atom_site_label
_atom_site_fract_x
_atom_site_fract_y
_atom_site_fract_z
Si Si1 0.787008 0.525138 0.432667
Si Si2 0.784563 0.057499 0.824654
Si Si3 0.782824 0.848020 0.093372
Si Si4 0.289814 0.134403 0.438906
Si Si5 0.214003 0.740986 0.422260
O O1 0.715420 0.500000 0.500000
O O2 0.760212 0.488170 0.372123
O O3 0.714032 0.580545 0.421162
O O4 0.000000 0.531083 0.442790
O O5 0.718897 0.051592 0.750000
O O6 0.720882 0.108503 0.858488
O O7 0.000000 0.060458 0.822388
O O8 0.726156 0.860612 0.018458
O O9 0.721497 0.792089 0.110710
O O10 0.000000 0.847725 0.093344
O O11 0.500000 0.134165 0.421882
O O12 0.214401 0.185693 0.408563
O O13 0.250000 0.750000 0.500000
O O14 0.000000 0.739258 0.412762
#
# Coordination Sequence:
#
# PCOD9470003 Si02
#       5
#    16  16  16  16  16
#     4  10  19  31  48  70  95 124 157 194 235 278
#     4  10  21  34  47  66  93 125 159 195 235 280
#     4   9  16  27  44  65  90 118 150 186 228 275
#     4   9  16  27  44  67  94 118 146 187 231 273
#     4   8  14  24  40  63  89 115 141 177 223 269
#
# _framework density 19.600339000000002
#
# number of rings (size 3 to 8) (size 9 to 14) (size 15 to 20)
#    0.000    2.800    2.000    0.000    0.000    1.600 
#    0.000    0.000    0.000    1.200    0.000    5.600 
#    0.000    0.000    0.000    0.000    0.000    0.000 
#
# Total GULP energy -222836.453940 kJ/mol
# GULP energy per Si atom -5570.911349 kJ/mol
# Density = 1.955573 g / cm^3
# Si number density = 19.600339 Si / 1000 Ang^3
#
#
#
# Elastic Constant Matrix: (Units=GPa)
#
#
# Indices 1 2 3 4 5 6 
#
# 1 56.3068 3.1652 -14.0692 0.0000 0.0000 0.0000
# 2 3.1652 263.4559 69.8805 0.0000 0.0000 0.0000
# 3 -14.0692 69.8805 60.4874 0.0000 0.0000 0.0000
# 4 0.0000 0.0000 0.0000 13.8069 0.0000 0.0000
# 5 0.0000 0.0000 0.0000 0.0000 14.8023 0.0000
# 6 0.0000 0.0000 0.0000 0.0000 0.0000 -6.6448
#
#
#
# Elastic Compliance Matrix: (Units=1/GPa)
#
#
# Indices 1 2 3 4 5 6 
#
# 1 0.019619 -0.002085 0.006972 0.000000 0.000000 0.000000
# 2 -0.002085 0.005694 -0.007064 0.000000 0.000000 0.000000
# 3 0.006972 -0.007064 0.026315 0.000000 0.000000 0.000000
# 4 0.000000 0.000000 0.000000 0.072427 0.000000 0.000000
# 5 0.000000 0.000000 0.000000 0.000000 0.067557 0.000000
# 6 0.000000 0.000000 0.000000 0.000000 0.000000 -0.150494
#
#
# Mechanical properties :
#
#
# Convention : Reuss Voigt Hill
#
# Bulk Modulus (GPa) = 21.15274 55.35591 38.25432
# Shear Modulus (GPa) = 81.66048 25.81115 53.73581
#
# Velocity S-wave (km/s) = 6.46167 3.63281 5.24169
# Velocity P-wave (km/s) = 8.15392 6.77496 7.49622
#
# Compressibility (1/GPa) = 0.04727521
#
# Stress axis : x y z
#
# Youngs Moduli (GPa) = 50.97056 175.61312 38.00176
#
# Poissons Ratio (x) = 0.36616 -0.26496
# Poissons Ratio (y) = 0.10628 0.26843
# Poissons Ratio (z) = -0.35538 1.24046
#
# Static dielectric constant tensor:
#      x y z
#    x 1.671940 0.000000 0.000000 
#    y 0.000000 1.767760 0.000000 
#    z 0.000000 0.000000 1.625640 
# 
# From -- ./inp_files/40474.got.cif
#   From: 2010.05.17/outbox.cif.g08.bks.cpg/sg63_21_cif.got.tgz:40474.got - 2010.06.03 15:47:04.
