data_PCOD9470259
_publ_section_title
;
Structure prediction by ZEFSAII (Michael W. Deem and Ramdas Pophale) SiO2 
 PCOD9470259
Probable space group: C M C M
;
_chemical_formula_sum "Si O2"
_cell_formula_units_Z 100
_cell_length_a 19.357753
_cell_length_b 33.720837
_cell_length_c 7.635944
_cell_angle_alpha 90.000000
_cell_angle_beta 90.000000
_cell_angle_gamma 90.000000
_cell_volume 4984.436008
_symmetry_space_group_name_H-M "C M C M"
_symmetry_group_IT_number 63
_symmetry_cell_setting 'orthorhombic'
loop_
_space_group_symop_operation_xyz
x,y,z
-x,-y,1/2+z
x,-y,-z
-x,y,1/2-z
-x,-y,-z
x,y,1/2-z
-x,y,z
x,-y,1/2+z
1/2+x,1/2+y,z
1/2-x,1/2-y,1/2+z
1/2+x,1/2-y,-z
1/2-x,1/2+y,1/2-z
1/2-x,1/2-y,-z
1/2+x,1/2+y,1/2-z
1/2-x,1/2+y,z
1/2+x,1/2-y,1/2+z
loop_
_atom_site_type_symbol
_atom_site_label
_atom_site_fract_x
_atom_site_fract_y
_atom_site_fract_z
Si Si1 0.500000 0.536596 0.250000
Si Si2 0.080021 0.222481 0.538759
Si Si3 0.692250 0.873512 0.963301
Si Si4 0.420290 0.811041 0.535862
Si Si5 0.394201 0.441440 0.058000
Si Si6 0.237168 0.457061 0.541930
Si Si7 0.347931 0.358592 0.545864
O O1 0.559988 0.541309 0.404152
O O2 0.082928 0.221459 0.750000
O O3 0.102504 0.266602 0.482783
O O4 0.121846 0.185054 0.471924
O O5 0.000000 0.218124 0.486738
O O6 0.689704 0.871888 0.750000
O O7 0.631707 0.844907 0.026284
O O8 0.691335 0.919636 0.015708
O O9 0.768752 0.859193 0.016966
O O10 0.420342 0.811293 0.750000
O O11 0.500000 0.816897 0.482111
O O12 0.419570 0.453648 0.250000
O O13 0.313821 0.453456 0.038702
O O14 0.392082 0.393269 0.044566
O O15 0.207737 0.500000 0.500000
O O16 0.246462 0.453682 0.750000
O O17 0.347232 0.370157 0.750000
#
# Coordination Sequence:
#
# PCOD9470259 Si02
#       7
#     4  16  16  16  16  16  16
#     4  12  22  40  54  82 114 148 190 236 280 344
#     4   9  18  29  44  69  99 137 184 232 279 326
#     4   8  16  30  50  74 101 135 174 226 281 329
#     4   8  14  28  49  74 104 136 177 224 276 339
#     4  11  22  37  57  79 109 149 190 235 285 327
#     4  10  19  36  58  80 107 136 177 227 272 332
#     4  10  19  32  46  71 106 141 188 237 276 323
#
# _framework density 20.062449000000001
#
# number of rings (size 3 to 8) (size 9 to 14) (size 15 to 20)
#    0.000    2.560    1.600    3.120    1.120    0.960 
#    0.000    0.400    0.000    5.280    0.000    0.000 
#    0.000    0.000    0.000    0.000    0.000    0.640 
#
# Total GULP energy -278700.627378 kJ/mol
# GULP energy per Si atom -5574.012548 kJ/mol
# Density = 2.001679 g / cm^3
# Si number density = 20.062449 Si / 1000 Ang^3
#
#
#
# Elastic Constant Matrix: (Units=GPa)
#
#
# Indices 1 2 3 4 5 6 
#
# 1 50.0619 63.9151 13.8898 0.0000 0.0000 0.0000
# 2 63.9151 176.4052 14.2525 0.0000 0.0000 0.0000
# 3 13.8898 14.2525 94.9757 0.0000 0.0000 0.0000
# 4 0.0000 0.0000 0.0000 19.0913 0.0000 0.0000
# 5 0.0000 0.0000 0.0000 0.0000 2.4921 0.0000
# 6 0.0000 0.0000 0.0000 0.0000 0.0000 91.6046
#
#
#
# Elastic Compliance Matrix: (Units=1/GPa)
#
#
# Indices 1 2 3 4 5 6 
#
# 1 0.038325 -0.013598 -0.003564 0.000000 0.000000 0.000000
# 2 -0.013598 0.010563 0.000404 0.000000 0.000000 0.000000
# 3 -0.003564 0.000404 0.010990 0.000000 0.000000 0.000000
# 4 0.000000 0.000000 0.000000 0.052380 0.000000 0.000000
# 5 0.000000 0.000000 0.000000 0.000000 0.401270 0.000000
# 6 0.000000 0.000000 0.000000 0.000000 0.000000 0.010916
#
#
# Mechanical properties :
#
#
# Convention : Reuss Voigt Hill
#
# Bulk Modulus (GPa) = 37.93592 56.17307 47.05450
# Shear Modulus (GPa) = 8.82226 37.92994 23.37610
#
# Velocity S-wave (km/s) = 2.09927 4.35281 3.41716
# Velocity P-wave (km/s) = 4.98256 7.30223 6.25094
#
# Compressibility (1/GPa) = 0.02636024
#
# Stress axis : x y z
#
# Youngs Moduli (GPa) = 26.09260 94.67028 90.99411
#
# Poissons Ratio (x) = 1.28732 0.32433
# Poissons Ratio (y) = 0.35481 -0.03672
# Poissons Ratio (z) = 0.09300 -0.03820
#
# Static dielectric constant tensor:
#      x y z
#    x 1.660860 0.000000 0.000000 
#    y 0.000000 1.744260 0.000000 
#    z 0.000000 0.000000 1.752170 
# 
# From -- ./inp_files/9178.got.cif
#   From: 2010.05.17/outbox.cif.g08.bks.cpg/sg63_5_cif.got.tgz:9178.got - 2010.06.03 15:47:04.
