data_PCOD9470786
_publ_section_title
;
Structure prediction by ZEFSAII (Michael W. Deem and Ramdas Pophale) SiO2 
 PCOD9470786
Probable space group: C M C M
;
_chemical_formula_sum "Si O2"
_cell_formula_units_Z 80
_cell_length_a 18.449869
_cell_length_b 27.677794
_cell_length_c 8.970791
_cell_angle_alpha 90.000000
_cell_angle_beta 90.000000
_cell_angle_gamma 90.000000
_cell_volume 4580.949437
_symmetry_space_group_name_H-M "C M C M"
_symmetry_group_IT_number 63
_symmetry_cell_setting 'orthorhombic'
loop_
_space_group_symop_operation_xyz
x,y,z
-x,-y,1/2+z
x,-y,-z
-x,y,1/2-z
-x,-y,-z
x,y,1/2-z
-x,y,z
x,-y,1/2+z
1/2+x,1/2+y,z
1/2-x,1/2-y,1/2+z
1/2+x,1/2-y,-z
1/2-x,1/2+y,1/2-z
1/2-x,1/2-y,-z
1/2+x,1/2+y,1/2-z
1/2-x,1/2+y,z
1/2+x,1/2-y,1/2+z
loop_
_atom_site_type_symbol
_atom_site_label
_atom_site_fract_x
_atom_site_fract_y
_atom_site_fract_z
Si Si1 0.642680 0.807041 0.926916
Si Si2 0.581848 0.913867 0.572929
Si Si3 0.915751 0.790044 0.572196
Si Si4 0.274142 0.048824 0.926923
Si Si5 0.712838 0.346711 0.071361
O O1 0.649570 0.798221 0.750000
O O2 0.597811 0.856704 0.947785
O O3 0.604530 0.762210 0.005463
O O4 0.721406 0.816448 0.998478
O O5 0.588540 0.923567 0.750000
O O6 0.500000 0.925327 0.525514
O O7 0.644628 0.941684 0.486770
O O8 0.904304 0.789713 0.750000
O O9 0.861902 0.827901 0.495554
O O10 0.000000 0.800427 0.542455
O O11 0.275796 0.043736 0.750000
O O12 0.229286 0.097211 0.964334
O O13 0.245383 0.000000 0.000000
O O14 0.714529 0.340790 0.250000
#
# Coordination Sequence:
#
# PCOD9470786 Si02
#       5
#    16  16  16  16  16
#     4  10  19  33  54  78 107 143 179 212 249 297
#     4   9  18  32  50  74 105 140 176 212 250 294
#     4  11  23  36  52  77 108 140 173 211 256 304
#     4  10  21  36  55  77  99 129 169 213 261 309
#     4  10  21  37  56  78 104 135 173 214 256 304
#
# _framework density 17.463629000000001
#
# number of rings (size 3 to 8) (size 9 to 14) (size 15 to 20)
#    0.000    2.000    0.000    3.600    0.000    6.400 
#    0.000    0.000    0.000    0.600    0.000    0.000 
#    0.000    0.000    0.000    0.000    0.000    0.000 
#
# Total GULP energy -223465.869121 kJ/mol
# GULP energy per Si atom -5586.646728 kJ/mol
# Density = 1.742388 g / cm^3
# Si number density = 17.463629 Si / 1000 Ang^3
#
#
#
# Elastic Constant Matrix: (Units=GPa)
#
#
# Indices 1 2 3 4 5 6 
#
# 1 58.8053 6.7969 21.3629 0.0000 0.0000 0.0000
# 2 6.7969 43.2208 14.9382 0.0000 0.0000 0.0000
# 3 21.3629 14.9382 43.0987 0.0000 0.0000 0.0000
# 4 0.0000 0.0000 0.0000 31.0739 0.0000 0.0000
# 5 0.0000 0.0000 0.0000 0.0000 27.7615 0.0000
# 6 0.0000 0.0000 0.0000 0.0000 0.0000 4.1988
#
#
#
# Elastic Compliance Matrix: (Units=1/GPa)
#
#
# Indices 1 2 3 4 5 6 
#
# 1 0.020744 0.000331 -0.010397 0.000000 0.000000 0.000000
# 2 0.000331 0.026291 -0.009277 0.000000 0.000000 0.000000
# 3 -0.010397 -0.009277 0.031571 0.000000 0.000000 0.000000
# 4 0.000000 0.000000 0.000000 0.032181 0.000000 0.000000
# 5 0.000000 0.000000 0.000000 0.000000 0.036021 0.000000
# 6 0.000000 0.000000 0.000000 0.000000 0.000000 0.238162
#
#
# Mechanical properties :
#
#
# Convention : Reuss Voigt Hill
#
# Bulk Modulus (GPa) = 25.04917 25.70229 25.37573
# Shear Modulus (GPa) = 11.44261 19.40864 15.42562
#
# Velocity S-wave (km/s) = 2.56251 3.33735 2.97526
# Velocity P-wave (km/s) = 4.80937 5.44059 5.13469
#
# Compressibility (1/GPa) = 0.03992148
#
# Stress axis : x y z
#
# Youngs Moduli (GPa) = 48.20660 38.03556 31.67415
#
# Poissons Ratio (x) = -0.01260 0.32932
# Poissons Ratio (y) = -0.01597 0.29384
# Poissons Ratio (z) = 0.50121 0.35285
#
# Static dielectric constant tensor:
#      x y z
#    x 1.570260 0.000000 0.000000 
#    y 0.000000 1.598280 0.000000 
#    z 0.000000 0.000000 1.578600 
# 
# From -- ./inp_files/6352.got.cif
#   From: 2010.05.17/outbox.cif.g08.bks.cpg/sg63_4_cif.got.tgz:6352.got - 2010.06.03 15:47:04.
