data_PCOD9470231
_publ_section_title
;
Structure prediction by ZEFSAII (Michael W. Deem and Ramdas Pophale) SiO2 
 PCOD9470231
Probable space group: C M C M
;
_chemical_formula_sum "Si O2"
_cell_formula_units_Z 112
_cell_length_a 20.501784
_cell_length_b 10.716486
_cell_length_c 27.717232
_cell_angle_alpha 90.000000
_cell_angle_beta 90.000000
_cell_angle_gamma 90.000000
_cell_volume 6089.672142
_symmetry_space_group_name_H-M "C M C M"
_symmetry_group_IT_number 63
_symmetry_cell_setting 'orthorhombic'
loop_
_space_group_symop_operation_xyz
x,y,z
-x,-y,1/2+z
x,-y,-z
-x,y,1/2-z
-x,-y,-z
x,y,1/2-z
-x,y,z
x,-y,1/2+z
1/2+x,1/2+y,z
1/2-x,1/2-y,1/2+z
1/2+x,1/2-y,-z
1/2-x,1/2+y,1/2-z
1/2-x,1/2-y,-z
1/2+x,1/2+y,1/2-z
1/2-x,1/2+y,z
1/2+x,1/2-y,1/2+z
loop_
_atom_site_type_symbol
_atom_site_label
_atom_site_fract_x
_atom_site_fract_y
_atom_site_fract_z
Si Si1 0.213708 0.477336 0.196287
Si Si2 0.856473 0.351618 0.871845
Si Si3 0.921770 0.857644 0.305749
Si Si4 0.700278 0.855280 0.481390
Si Si5 0.219660 0.270811 0.123751
Si Si6 0.928245 0.369964 0.971358
Si Si7 0.348867 0.382031 0.695967
O O1 0.194110 0.442829 0.250000
O O2 0.155484 0.537625 0.166015
O O3 0.241268 0.361324 0.166881
O O4 0.273590 0.573105 0.199390
O O5 0.889179 0.237202 0.843181
O O6 0.782744 0.314112 0.888473
O O7 0.900668 0.386382 0.917392
O O8 0.905447 0.821936 0.250000
O O9 0.000000 0.856859 0.310735
O O10 0.893512 0.996996 0.312314
O O11 0.750000 0.750000 0.500000
O O12 0.702925 0.849827 0.423539
O O13 0.630236 0.806010 0.499850
O O14 0.710388 0.000000 0.500000
O O15 0.157159 0.203224 0.148289
O O16 0.000000 0.311315 0.970473
O O17 0.933649 0.500000 0.000000
O O18 0.365863 0.331904 0.750000
#
# Coordination Sequence:
#
# PCOD9470231 Si02
#       7
#    16  16  16  16  16  16  16
#     4  10  19  31  52  83 119 148 184 238 289 342
#     4  11  20  34  57  85 115 151 197 241 295 357
#     4  10  20  35  56  83 120 161 196 231 283 356
#     4  11  23  39  61  88 118 155 203 257 312 369
#     4  11  21  34  58  83 116 151 190 243 302 354
#     4  10  21  39  60  82 113 153 201 253 308 369
#     4   9  19  33  52  82 117 153 191 229 282 349
#
# _framework density 18.391794999999998
#
# number of rings (size 3 to 8) (size 9 to 14) (size 15 to 20)
#    0.000    1.714    2.857    3.000    2.000    1.143 
#    0.000    0.714    0.000    2.143    0.000    2.000 
#    0.000    0.000    0.000    0.000    0.000    0.000 
#
# Total GULP energy -311849.647243 kJ/mol
# GULP energy per Si atom -5568.743701 kJ/mol
# Density = 1.834993 g / cm^3
# Si number density = 18.391795 Si / 1000 Ang^3
#
#
#
# Elastic Constant Matrix: (Units=GPa)
#
#
# Indices 1 2 3 4 5 6 
#
# 1 94.1943 16.7451 35.0173 0.0000 0.0000 0.0000
# 2 16.7451 60.7107 40.5235 0.0000 0.0000 0.0000
# 3 35.0173 40.5235 139.1830 0.0000 0.0000 0.0000
# 4 0.0000 0.0000 0.0000 38.0808 0.0000 0.0000
# 5 0.0000 0.0000 0.0000 0.0000 16.4807 0.0000
# 6 0.0000 0.0000 0.0000 0.0000 0.0000 21.8019
#
#
#
# Elastic Compliance Matrix: (Units=1/GPa)
#
#
# Indices 1 2 3 4 5 6 
#
# 1 0.011833 -0.001585 -0.002516 0.000000 0.000000 0.000000
# 2 -0.001585 0.020657 -0.005616 0.000000 0.000000 0.000000
# 3 -0.002516 -0.005616 0.009453 0.000000 0.000000 0.000000
# 4 0.000000 0.000000 0.000000 0.026260 0.000000 0.000000
# 5 0.000000 0.000000 0.000000 0.000000 0.060677 0.000000
# 6 0.000000 0.000000 0.000000 0.000000 0.000000 0.045868
#
#
# Mechanical properties :
#
#
# Convention : Reuss Voigt Hill
#
# Bulk Modulus (GPa) = 44.42279 53.18439 48.80359
# Shear Modulus (GPa) = 24.79136 28.72616 26.75876
#
# Velocity S-wave (km/s) = 3.67544 3.95638 3.81849
# Velocity P-wave (km/s) = 6.49752 7.06051 6.78486
#
# Compressibility (1/GPa) = 0.02251097
#
# Stress axis : x y z
#
# Youngs Moduli (GPa) = 84.50723 48.40977 105.78924
#
# Poissons Ratio (x) = 0.07671 0.26615
# Poissons Ratio (y) = 0.13391 0.59408
# Poissons Ratio (z) = 0.21260 0.27185
#
# Static dielectric constant tensor:
#      x y z
#    x 1.646220 0.000000 0.000000 
#    y 0.000000 1.697140 0.000000 
#    z 0.000000 0.000000 1.685900 
# 
# From -- ./inp_files/64641.got.cif
#   From: 2010.05.17/outbox.cif.g08.bks.cpg/sg63_33_cif.got.tgz:64641.got - 2010.06.03 15:47:04.
