data_PCOD9470572
_publ_section_title
;
Structure prediction by ZEFSAII (Michael W. Deem and Ramdas Pophale) SiO2 
 PCOD9470572
Probable space group: C M C M
;
_chemical_formula_sum "Si O2"
_cell_formula_units_Z 96
_cell_length_a 7.591589
_cell_length_b 23.725019
_cell_length_c 24.169776
_cell_angle_alpha 90.000000
_cell_angle_beta 90.000000
_cell_angle_gamma 90.000000
_cell_volume 4353.232694
_symmetry_space_group_name_H-M "C M C M"
_symmetry_group_IT_number 63
_symmetry_cell_setting 'orthorhombic'
loop_
_space_group_symop_operation_xyz
x,y,z
-x,-y,1/2+z
x,-y,-z
-x,y,1/2-z
-x,-y,-z
x,y,1/2-z
-x,y,z
x,-y,1/2+z
1/2+x,1/2+y,z
1/2-x,1/2-y,1/2+z
1/2+x,1/2-y,-z
1/2-x,1/2+y,1/2-z
1/2-x,1/2-y,-z
1/2+x,1/2+y,1/2-z
1/2-x,1/2+y,z
1/2+x,1/2-y,1/2+z
loop_
_atom_site_type_symbol
_atom_site_label
_atom_site_fract_x
_atom_site_fract_y
_atom_site_fract_z
Si Si1 0.210248 0.289503 0.051091
Si Si2 0.707360 0.076771 0.098931
Si Si3 0.212845 0.390736 0.250000
Si Si4 0.714362 0.964851 0.355425
Si Si5 0.203767 0.798038 0.864434
Si Si6 0.215700 0.414421 0.026053
Si Si7 0.708555 0.743759 0.750000
O O1 0.284738 0.254439 0.102049
O O2 0.277486 0.350952 0.037442
O O3 0.000000 0.297098 0.059082
O O4 0.250000 0.250000 0.000000
O O5 0.500000 0.065333 0.093667
O O6 0.723543 0.140849 0.119782
O O7 0.771915 0.030463 0.143340
O O8 0.777595 0.069565 0.035841
O O9 0.275615 0.424396 0.305331
O O10 0.254054 0.323747 0.250000
O O11 0.000000 0.393436 0.250000
O O12 0.500000 0.961580 0.351942
O O13 0.765297 0.946023 0.417601
O O14 0.217859 0.777336 0.802314
O O15 0.000000 0.802183 0.880963
O O16 0.000000 0.416918 0.023981
O O17 0.500000 0.749968 0.750000
#
# Coordination Sequence:
#
# PCOD9470572 Si02
#       7
#    16  16   8  16  16  16   8
#     4  10  19  32  54  82 114 151 191 237 291 345
#     4  10  19  33  56  85 118 154 199 247 285 340
#     4  10  20  39  62  83 113 146 190 244 297 356
#     4   9  18  32  55  84 113 154 200 244 292 343
#     4  11  23  39  59  86 121 157 192 238 299 355
#     4   9  16  29  51  81 114 149 194 245 291 337
#     4  12  26  43  64  87 113 148 196 244 289 350
#
# _framework density 22.052576999999999
#
# number of rings (size 3 to 8) (size 9 to 14) (size 15 to 20)
#    0.000    2.000    1.667    2.750    0.000    6.000 
#    0.000    2.500    0.000    3.000    0.000    0.000 
#    0.000    0.000    0.000    0.000    0.000    0.000 
#
# Total GULP energy -267672.892239 kJ/mol
# GULP energy per Si atom -5576.518588 kJ/mol
# Density = 2.200238 g / cm^3
# Si number density = 22.052577 Si / 1000 Ang^3
#
#
#
# Elastic Constant Matrix: (Units=GPa)
#
#
# Indices 1 2 3 4 5 6 
#
# 1 43.1900 -0.6912 -17.6664 0.0000 0.0000 0.0000
# 2 -0.6912 107.7069 44.7170 0.0000 0.0000 0.0000
# 3 -17.6664 44.7170 132.3095 0.0000 0.0000 0.0000
# 4 0.0000 0.0000 0.0000 36.1372 0.0000 0.0000
# 5 0.0000 0.0000 0.0000 0.0000 -2.3468 0.0000
# 6 0.0000 0.0000 0.0000 0.0000 0.0000 16.8087
#
#
#
# Elastic Compliance Matrix: (Units=1/GPa)
#
#
# Indices 1 2 3 4 5 6 
#
# 1 0.024673 -0.001407 0.003770 0.000000 0.000000 0.000000
# 2 -0.001407 0.010880 -0.003865 0.000000 0.000000 0.000000
# 3 0.003770 -0.003865 0.009368 0.000000 0.000000 0.000000
# 4 0.000000 0.000000 0.000000 0.027672 0.000000 0.000000
# 5 0.000000 0.000000 0.000000 0.000000 -0.426110 0.000000
# 6 0.000000 0.000000 0.000000 0.000000 0.000000 0.059493
#
#
# Mechanical properties :
#
#
# Convention : Reuss Voigt Hill
#
# Bulk Modulus (GPa) = 23.85672 37.32502 30.59087
# Shear Modulus (GPa) = -18.04741 27.24295 4.59777
#
# Velocity S-wave (km/s) = -2.86384 3.51859 1.44549
# Velocity P-wave (km/s) = 0.30633 5.78528 4.08507
#
# Compressibility (1/GPa) = 0.04191690
#
# Stress axis : x y z
#
# Youngs Moduli (GPa) = 40.53007 91.91108 106.75010
#
# Poissons Ratio (x) = 0.12930 -0.40244
# Poissons Ratio (y) = 0.05702 0.41259
# Poissons Ratio (z) = -0.15279 0.35524
#
# Static dielectric constant tensor:
#      x y z
#    x 1.857530 0.000000 0.000000 
#    y 0.000000 1.846110 0.000000 
#    z 0.000000 0.000000 1.710730 
# 
# From -- ./inp_files/60104.got.cif
#   From: 2010.05.17/outbox.cif.g08.bks.cpg/sg63_31_cif.got.tgz:60104.got - 2010.06.03 15:47:04.
