data_PCOD9470394
_publ_section_title
;
Structure prediction by ZEFSAII (Michael W. Deem and Ramdas Pophale) SiO2 
 PCOD9470394
Probable space group: C M C M
;
_chemical_formula_sum "Si O2"
_cell_formula_units_Z 80
_cell_length_a 20.445015
_cell_length_b 25.427228
_cell_length_c 9.090065
_cell_angle_alpha 90.000000
_cell_angle_beta 90.000000
_cell_angle_gamma 90.000000
_cell_volume 4725.561717
_symmetry_space_group_name_H-M "C M C M"
_symmetry_group_IT_number 63
_symmetry_cell_setting 'orthorhombic'
loop_
_space_group_symop_operation_xyz
x,y,z
-x,-y,1/2+z
x,-y,-z
-x,y,1/2-z
-x,-y,-z
x,y,1/2-z
-x,y,z
x,-y,1/2+z
1/2+x,1/2+y,z
1/2-x,1/2-y,1/2+z
1/2+x,1/2-y,-z
1/2-x,1/2+y,1/2-z
1/2-x,1/2-y,-z
1/2+x,1/2+y,1/2-z
1/2-x,1/2+y,z
1/2+x,1/2-y,1/2+z
loop_
_atom_site_type_symbol
_atom_site_label
_atom_site_fract_x
_atom_site_fract_y
_atom_site_fract_z
Si Si1 0.352579 0.249597 0.928892
Si Si2 0.500000 0.879199 0.414319
Si Si3 0.252997 0.554337 0.420765
Si Si4 0.244874 0.833694 0.426867
Si Si5 0.595910 0.052514 0.417910
Si Si6 0.500000 0.245626 0.916653
O O1 0.351996 0.254244 0.750000
O O2 0.315742 0.193817 0.961175
O O3 0.427788 0.256855 0.980796
O O4 0.307700 0.293841 0.003186
O O5 0.500000 0.901362 0.250000
O O6 0.563314 0.899479 0.498697
O O7 0.500000 0.817202 0.406157
O O8 0.274872 0.500000 0.500000
O O9 0.274717 0.555767 0.250000
O O10 0.267333 0.608672 0.505458
O O11 0.174010 0.553309 0.421079
O O12 0.239527 0.835851 0.250000
O O13 0.574998 0.051984 0.250000
O O14 0.574332 0.000000 0.500000
O O15 0.500000 0.267924 0.750000
#
# Coordination Sequence:
#
# PCOD9470394 Si02
#       6
#    16   8  16  16  16   8
#     4   9  18  33  52  73  99 132 170 208 248 295
#     4  11  20  30  45  63  88 123 161 200 241 284
#     4  10  20  33  50  71  96 126 161 203 248 294
#     4  10  19  32  51  75 103 133 166 205 250 299
#     4  10  20  32  44  61  87 121 161 201 240 281
#     4   9  18  32  50  71  94 125 164 204 245 290
#
# _framework density 16.929205
#
# number of rings (size 3 to 8) (size 9 to 14) (size 15 to 20)
#    0.000    2.200    0.000    3.600    0.000    4.800 
#    0.000    2.500    0.000    0.000    0.000    0.700 
#    0.000    0.000    0.000    0.000    0.000    0.000 
#
# Total GULP energy -222849.336155 kJ/mol
# GULP energy per Si atom -5571.233404 kJ/mol
# Density = 1.689067 g / cm^3
# Si number density = 16.929205 Si / 1000 Ang^3
#
#
#
# Elastic Constant Matrix: (Units=GPa)
#
#
# Indices 1 2 3 4 5 6 
#
# 1 85.4158 26.7786 20.9781 0.0000 0.0000 0.0000
# 2 26.7786 108.9603 44.3067 0.0000 0.0000 0.0000
# 3 20.9781 44.3067 88.8771 0.0000 0.0000 0.0000
# 4 0.0000 0.0000 0.0000 23.2926 0.0000 0.0000
# 5 0.0000 0.0000 0.0000 0.0000 19.9085 0.0000
# 6 0.0000 0.0000 0.0000 0.0000 0.0000 23.5467
#
#
#
# Elastic Compliance Matrix: (Units=1/GPa)
#
#
# Indices 1 2 3 4 5 6 
#
# 1 0.012920 -0.002427 -0.001840 0.000000 0.000000 0.000000
# 2 -0.002427 0.011967 -0.005393 0.000000 0.000000 0.000000
# 3 -0.001840 -0.005393 0.014374 0.000000 0.000000 0.000000
# 4 0.000000 0.000000 0.000000 0.042932 0.000000 0.000000
# 5 0.000000 0.000000 0.000000 0.000000 0.050230 0.000000
# 6 0.000000 0.000000 0.000000 0.000000 0.000000 0.042469
#
#
# Mechanical properties :
#
#
# Convention : Reuss Voigt Hill
#
# Bulk Modulus (GPa) = 50.14553 51.93112 51.03832
# Shear Modulus (GPa) = 24.89311 26.09556 25.49434
#
# Velocity S-wave (km/s) = 3.83877 3.93039 3.88485
# Velocity P-wave (km/s) = 7.02376 7.16515 7.09481
#
# Compressibility (1/GPa) = 0.01994196
#
# Stress axis : x y z
#
# Youngs Moduli (GPa) = 77.39808 83.56235 69.56947
#
# Poissons Ratio (x) = 0.20283 0.12798
# Poissons Ratio (y) = 0.18787 0.37518
# Poissons Ratio (z) = 0.14238 0.45064
#
# Static dielectric constant tensor:
#      x y z
#    x 1.587750 0.000000 0.000000 
#    y 0.000000 1.564980 0.000000 
#    z 0.000000 0.000000 1.604360 
# 
# From -- ./inp_files/8090.got.cif
#   From: 2010.05.17/outbox.cif.g08.bks.cpg/sg63_5_cif.got.tgz:8090.got - 2010.06.03 15:47:04.
