data_PCOD9470284
_publ_section_title
;
Structure prediction by ZEFSAII (Michael W. Deem and Ramdas Pophale) SiO2 
 PCOD9470284
Probable space group: C M C M
;
_chemical_formula_sum "Si O2"
_cell_formula_units_Z 80
_cell_length_a 23.542844
_cell_length_b 24.923591
_cell_length_c 9.095534
_cell_angle_alpha 90.000000
_cell_angle_beta 90.000000
_cell_angle_gamma 90.000000
_cell_volume 5337.006630
_symmetry_space_group_name_H-M "C M C M"
_symmetry_group_IT_number 63
_symmetry_cell_setting 'orthorhombic'
loop_
_space_group_symop_operation_xyz
x,y,z
-x,-y,1/2+z
x,-y,-z
-x,y,1/2-z
-x,-y,-z
x,y,1/2-z
-x,y,z
x,-y,1/2+z
1/2+x,1/2+y,z
1/2-x,1/2-y,1/2+z
1/2+x,1/2-y,-z
1/2-x,1/2+y,1/2-z
1/2-x,1/2-y,-z
1/2+x,1/2+y,1/2-z
1/2-x,1/2+y,z
1/2+x,1/2-y,1/2+z
loop_
_atom_site_type_symbol
_atom_site_label
_atom_site_fract_x
_atom_site_fract_y
_atom_site_fract_z
Si Si1 0.778444 0.670787 0.925045
Si Si2 0.434318 0.663755 0.423712
Si Si3 0.258016 0.444890 0.425281
Si Si4 0.839786 0.765565 0.076172
Si Si5 0.893497 0.055895 0.925523
O O1 0.790162 0.672764 0.750000
O O2 0.773945 0.609056 0.973616
O O3 0.715947 0.696941 0.945935
O O4 0.822432 0.707952 0.011174
O O5 0.422707 0.657979 0.250000
O O6 0.500000 0.679181 0.442734
O O7 0.391928 0.706906 0.493745
O O8 0.423465 0.606971 0.503167
O O9 0.239410 0.500000 0.500000
O O10 0.251674 0.449385 0.250000
O O11 0.325618 0.438047 0.453430
O O12 0.850571 0.762843 0.250000
O O13 0.902265 0.054328 0.750000
O O14 0.911562 0.000000 0.000000
#
# Coordination Sequence:
#
# PCOD9470284 Si02
#       5
#    16  16  16  16  16
#     4   9  17  31  48  69  96 122 151 190 234 284
#     4  11  23  36  49  66  90 123 162 202 243 283
#     4   9  17  29  45  68  96 123 153 189 230 276
#     4  10  19  32  49  70  92 119 157 195 237 283
#     4  10  19  33  49  67  90 121 161 202 241 279
#
# _framework density 14.989675999999999
#
# number of rings (size 3 to 8) (size 9 to 14) (size 15 to 20)
#    0.000    2.200    2.000    1.800    0.000    4.400 
#    0.000    0.000    0.000    0.000    0.000    0.000 
#    0.000    0.800    0.000    2.600    0.000    3.200 
#
# Total GULP energy -223160.169289 kJ/mol
# GULP energy per Si atom -5579.004232 kJ/mol
# Density = 1.495556 g / cm^3
# Si number density = 14.989676 Si / 1000 Ang^3
#
#
#
# Elastic Constant Matrix: (Units=GPa)
#
#
# Indices 1 2 3 4 5 6 
#
# 1 59.6183 48.4146 53.8078 0.0000 0.0000 0.0000
# 2 48.4146 117.5181 58.3979 0.0000 0.0000 0.0000
# 3 53.8078 58.3979 74.9023 0.0000 0.0000 0.0000
# 4 0.0000 0.0000 0.0000 30.3605 0.0000 0.0000
# 5 0.0000 0.0000 0.0000 0.0000 19.0593 0.0000
# 6 0.0000 0.0000 0.0000 0.0000 0.0000 12.8905
#
#
#
# Elastic Compliance Matrix: (Units=1/GPa)
#
#
# Indices 1 2 3 4 5 6 
#
# 1 0.049058 -0.004404 -0.031808 0.000000 0.000000 0.000000
# 2 -0.004404 0.014287 -0.007975 0.000000 0.000000 0.000000
# 3 -0.031808 -0.007975 0.042418 0.000000 0.000000 0.000000
# 4 0.000000 0.000000 0.000000 0.032938 0.000000 0.000000
# 5 0.000000 0.000000 0.000000 0.000000 0.052468 0.000000
# 6 0.000000 0.000000 0.000000 0.000000 0.000000 0.077577
#
#
# Mechanical properties :
#
#
# Convention : Reuss Voigt Hill
#
# Bulk Modulus (GPa) = 57.50853 63.69768 60.60310
# Shear Modulus (GPa) = 13.77732 18.55661 16.16697
#
# Velocity S-wave (km/s) = 3.03499 3.52228 3.28768
# Velocity P-wave (km/s) = 7.12252 7.68951 7.41144
#
# Compressibility (1/GPa) = 0.01738872
#
# Stress axis : x y z
#
# Youngs Moduli (GPa) = 20.38401 69.99532 23.57477
#
# Poissons Ratio (x) = 0.30829 0.74987
# Poissons Ratio (y) = 0.08978 0.18800
# Poissons Ratio (z) = 0.64838 0.55819
#
# Static dielectric constant tensor:
#      x y z
#    x 1.474430 0.000000 0.000000 
#    y 0.000000 1.493540 0.000000 
#    z 0.000000 0.000000 1.497490 
# 
# From -- ./inp_files/6373.got.cif
#   From: 2010.05.17/outbox.cif.g08.bks.cpg/sg63_4_cif.got.tgz:6373.got - 2010.06.03 15:47:04.
