data_PCOD9470106
_publ_section_title
;
Structure prediction by ZEFSAII (Michael W. Deem and Ramdas Pophale) SiO2 
 PCOD9470106
Probable space group: C M C M
;
_chemical_formula_sum "Si O2"
_cell_formula_units_Z 96
_cell_length_a 20.249479
_cell_length_b 30.612445
_cell_length_c 9.022338
_cell_angle_alpha 90.000000
_cell_angle_beta 90.000000
_cell_angle_gamma 90.000000
_cell_volume 5592.821574
_symmetry_space_group_name_H-M "C M C M"
_symmetry_group_IT_number 63
_symmetry_cell_setting 'orthorhombic'
loop_
_space_group_symop_operation_xyz
x,y,z
-x,-y,1/2+z
x,-y,-z
-x,y,1/2-z
-x,-y,-z
x,y,1/2-z
-x,y,z
x,-y,1/2+z
1/2+x,1/2+y,z
1/2-x,1/2-y,1/2+z
1/2+x,1/2-y,-z
1/2-x,1/2+y,1/2-z
1/2-x,1/2-y,-z
1/2+x,1/2+y,1/2-z
1/2-x,1/2+y,z
1/2+x,1/2-y,1/2+z
loop_
_atom_site_type_symbol
_atom_site_label
_atom_site_fract_x
_atom_site_fract_y
_atom_site_fract_z
Si Si1 0.075817 0.725445 0.422752
Si Si2 0.233277 0.134078 0.577031
Si Si3 0.893369 0.635016 0.923206
Si Si4 0.763257 0.955594 0.920979
Si Si5 0.308784 0.277934 0.926833
Si Si6 0.602349 0.955226 0.921107
O O1 0.096208 0.725110 0.250000
O O2 0.080660 0.676501 0.487282
O O3 0.123971 0.756320 0.515371
O O4 0.000000 0.739871 0.432076
O O5 0.215884 0.137660 0.750000
O O6 0.313259 0.137455 0.566912
O O7 0.215297 0.087117 0.510306
O O8 0.201076 0.172978 0.484419
O O9 0.911256 0.637462 0.750000
O O10 0.915893 0.588977 0.992639
O O11 0.783899 0.953833 0.750000
O O12 0.682809 0.955906 0.922019
O O13 0.785028 0.000000 0.000000
O O14 0.304511 0.275537 0.750000
O O15 0.250000 0.250000 0.000000
O O16 0.581302 0.953844 0.750000
O O17 0.580630 0.000000 0.000000
#
# Coordination Sequence:
#
# PCOD9470106 Si02
#       6
#    16  16  16  16  16  16
#     4  11  24  40  57  77 104 138 176 219 267 319
#     4  10  19  31  49  75 104 136 174 217 261 311
#     4  10  19  31  50  73  99 133 172 215 262 313
#     4   9  16  26  41  65  99 137 171 209 257 310
#     4  12  23  36  56  80 107 139 176 221 267 317
#     4   9  16  26  42  65  95 128 167 213 260 311
#
# _framework density 17.164859
#
# number of rings (size 3 to 8) (size 9 to 14) (size 15 to 20)
#    0.000    1.833    1.667    4.000    0.000    6.667 
#    0.000    0.000    0.000    0.500    0.000    0.000 
#    0.000    0.667    0.000    2.500    0.000    3.833 
#
# Total GULP energy -268158.775525 kJ/mol
# GULP energy per Si atom -5586.641157 kJ/mol
# Density = 1.712579 g / cm^3
# Si number density = 17.164859 Si / 1000 Ang^3
#
#
#
# Elastic Constant Matrix: (Units=GPa)
#
#
# Indices 1 2 3 4 5 6 
#
# 1 39.0790 41.4532 43.6379 0.0000 0.0000 0.0000
# 2 41.4532 145.9069 81.3030 0.0000 0.0000 0.0000
# 3 43.6379 81.3030 180.6007 0.0000 0.0000 0.0000
# 4 0.0000 0.0000 0.0000 38.4725 0.0000 0.0000
# 5 0.0000 0.0000 0.0000 0.0000 10.8967 0.0000
# 6 0.0000 0.0000 0.0000 0.0000 0.0000 -1.4132
#
#
#
# Elastic Compliance Matrix: (Units=1/GPa)
#
#
# Indices 1 2 3 4 5 6 
#
# 1 0.041350 -0.008250 -0.006277 0.000000 0.000000 0.000000
# 2 -0.008250 0.010795 -0.002866 0.000000 0.000000 0.000000
# 3 -0.006277 -0.002866 0.008344 0.000000 0.000000 0.000000
# 4 0.000000 0.000000 0.000000 0.025993 0.000000 0.000000
# 5 0.000000 0.000000 0.000000 0.000000 0.091771 0.000000
# 6 0.000000 0.000000 0.000000 0.000000 0.000000 -0.707616
#
#
# Mechanical properties :
#
#
# Convention : Reuss Voigt Hill
#
# Bulk Modulus (GPa) = 38.90749 77.59718 58.25233
# Shear Modulus (GPa) = -10.28786 22.87070 6.29142
#
# Velocity S-wave (km/s) = -2.45083 3.65418 1.91657
# Velocity P-wave (km/s) = 3.83502 7.94413 6.23765
#
# Compressibility (1/GPa) = 0.02570199
#
# Stress axis : x y z
#
# Youngs Moduli (GPa) = 24.18379 92.63850 119.84508
#
# Poissons Ratio (x) = 0.76427 0.75230
# Poissons Ratio (y) = 0.19952 0.34349
# Poissons Ratio (z) = 0.15181 0.26551
#
# Static dielectric constant tensor:
#      x y z
#    x 1.576830 0.000000 0.000000 
#    y 0.000000 1.566690 0.000000 
#    z 0.000000 0.000000 1.572610 
# 
# From -- ./inp_files/8526.got.cif
#   From: 2010.05.17/outbox.cif.g08.bks.cpg/sg63_5_cif.got.tgz:8526.got - 2010.06.03 15:47:04.
