data_PCOD9470436
_publ_section_title
;
Structure prediction by ZEFSAII (Michael W. Deem and Ramdas Pophale) SiO2 
 PCOD9470436
Probable space group: C M C M
;
_chemical_formula_sum "Si O2"
_cell_formula_units_Z 64
_cell_length_a 27.916260
_cell_length_b 10.598734
_cell_length_c 9.599777
_cell_angle_alpha 90.000000
_cell_angle_beta 90.000000
_cell_angle_gamma 90.000000
_cell_volume 2840.353354
_symmetry_space_group_name_H-M "C M C M"
_symmetry_group_IT_number 63
_symmetry_cell_setting 'orthorhombic'
loop_
_space_group_symop_operation_xyz
x,y,z
-x,-y,1/2+z
x,-y,-z
-x,y,1/2-z
-x,-y,-z
x,y,1/2-z
-x,y,z
x,-y,1/2+z
1/2+x,1/2+y,z
1/2-x,1/2-y,1/2+z
1/2+x,1/2-y,-z
1/2-x,1/2+y,1/2-z
1/2-x,1/2-y,-z
1/2+x,1/2+y,1/2-z
1/2-x,1/2+y,z
1/2+x,1/2-y,1/2+z
loop_
_atom_site_type_symbol
_atom_site_label
_atom_site_fract_x
_atom_site_fract_y
_atom_site_fract_z
Si Si1 0.942168 0.126944 0.585337
Si Si2 0.203263 0.106318 0.902762
Si Si3 0.418452 0.119103 0.911706
Si Si4 0.810255 0.330347 0.101672
O O1 0.927450 0.128083 0.750000
O O2 0.926428 0.251344 0.497996
O O3 0.000000 0.129001 0.586274
O O4 0.928034 0.000000 0.500000
O O5 0.183695 0.098139 0.750000
O O6 0.261065 0.092499 0.896289
O O7 0.193151 0.239869 0.970869
O O8 0.182882 0.000000 0.000000
O O9 0.435976 0.126385 0.750000
O O10 0.360807 0.101697 0.900486
O O11 0.437781 0.000000 0.000000
O O12 0.808922 0.255883 0.250000
#
# Coordination Sequence:
#
# PCOD9470436 Si02
#       4
#    16  16  16  16
#     4  10  22  42  67  93 121 154 193 238 290 349
#     4  10  19  32  52  75 103 142 188 238 288 339
#     4  11  23  39  61  89 122 158 197 243 294 350
#     4   9  20  36  52  75 107 145 189 235 285 339
#
# _framework density 22.532408
#
# number of rings (size 3 to 8) (size 9 to 14) (size 15 to 20)
#    0.000    2.000    0.000    3.000    0.000    6.000 
#    0.000    0.000    0.000    0.000    0.000    0.000 
#    0.000    0.000    0.000    0.000    0.000    0.000 
#
# Total GULP energy -178539.912361 kJ/mol
# GULP energy per Si atom -5579.372261 kJ/mol
# Density = 2.248112 g / cm^3
# Si number density = 22.532408 Si / 1000 Ang^3
#
#
#
# Elastic Constant Matrix: (Units=GPa)
#
#
# Indices 1 2 3 4 5 6 
#
# 1 91.5813 7.6856 17.6098 0.0000 0.0000 0.0000
# 2 7.6856 126.0377 102.5181 0.0000 0.0000 0.0000
# 3 17.6098 102.5181 262.2728 0.0000 0.0000 0.0000
# 4 0.0000 0.0000 0.0000 40.6379 0.0000 0.0000
# 5 0.0000 0.0000 0.0000 0.0000 956.2120 0.0000
# 6 0.0000 0.0000 0.0000 0.0000 0.0000 -16.2141
#
#
#
# Elastic Compliance Matrix: (Units=1/GPa)
#
#
# Indices 1 2 3 4 5 6 
#
# 1 0.011063 -0.000103 -0.000702 0.000000 0.000000 0.000000
# 2 -0.000103 0.011634 -0.004540 0.000000 0.000000 0.000000
# 3 -0.000702 -0.004540 0.005635 0.000000 0.000000 0.000000
# 4 0.000000 0.000000 0.000000 0.024608 0.000000 0.000000
# 5 0.000000 0.000000 0.000000 0.000000 0.001046 0.000000
# 6 0.000000 0.000000 0.000000 0.000000 0.000000 -0.061675
#
#
# Mechanical properties :
#
#
# Convention : Reuss Voigt Hill
#
# Bulk Modulus (GPa) = 56.69224 81.72431 69.20827
# Shear Modulus (GPa) = 562.92917 219.59905 391.26411
#
# Velocity S-wave (km/s) = 15.82319 9.88285 13.19174
# Velocity P-wave (km/s) = 18.94851 12.90644 16.21145
#
# Compressibility (1/GPa) = 0.01763910
#
# Stress axis : x y z
#
# Youngs Moduli (GPa) = 90.39146 85.95793 177.46937
#
# Poissons Ratio (x) = 0.00887 0.12466
# Poissons Ratio (y) = 0.00933 0.80579
# Poissons Ratio (z) = 0.06350 0.39029
#
# Static dielectric constant tensor:
#      x y z
#    x 1.864200 0.000000 0.000000 
#    y 0.000000 1.804360 0.000000 
#    z 0.000000 0.000000 1.850530 
# 
# From -- ./inp_files/13713.got.cif
#   From: 2010.05.17/outbox.cif.g08.bks.cpg/sg63_7_cif.got.tgz:13713.got - 2010.06.03 15:47:04.
