data_PCOD9470276
_publ_section_title
;
Structure prediction by ZEFSAII (Michael W. Deem and Ramdas Pophale) SiO2 
 PCOD9470276
Probable space group: C M C M
;
_chemical_formula_sum "Si O2"
_cell_formula_units_Z 104
_cell_length_a 21.708627
_cell_length_b 30.983351
_cell_length_c 9.115297
_cell_angle_alpha 90.000000
_cell_angle_beta 90.000000
_cell_angle_gamma 90.000000
_cell_volume 6131.003546
_symmetry_space_group_name_H-M "C M C M"
_symmetry_group_IT_number 63
_symmetry_cell_setting 'orthorhombic'
loop_
_space_group_symop_operation_xyz
x,y,z
-x,-y,1/2+z
x,-y,-z
-x,y,1/2-z
-x,-y,-z
x,y,1/2-z
-x,y,z
x,-y,1/2+z
1/2+x,1/2+y,z
1/2-x,1/2-y,1/2+z
1/2+x,1/2-y,-z
1/2-x,1/2+y,1/2-z
1/2-x,1/2-y,-z
1/2+x,1/2+y,1/2-z
1/2-x,1/2+y,z
1/2+x,1/2-y,1/2+z
loop_
_atom_site_type_symbol
_atom_site_label
_atom_site_fract_x
_atom_site_fract_y
_atom_site_fract_z
Si Si1 0.837009 0.714127 0.419210
Si Si2 0.211355 0.885080 0.080941
Si Si3 0.500000 0.546847 0.425332
Si Si4 0.688138 0.299454 0.581719
Si Si5 0.866555 0.046437 0.075567
Si Si6 0.425880 0.954357 0.576198
Si Si7 0.641185 0.873735 0.078053
O O1 0.856883 0.718265 0.250000
O O2 0.762415 0.708077 0.416677
O O3 0.844592 0.757826 0.512122
O O4 0.866654 0.672163 0.495664
O O5 0.194416 0.891350 0.250000
O O6 0.285222 0.881858 0.071907
O O7 0.181418 0.841495 0.017904
O O8 0.187077 0.923983 0.984268
O O9 0.500000 0.500000 0.500000
O O10 0.500000 0.540918 0.250000
O O11 0.566164 0.566840 0.462748
O O12 0.669112 0.306581 0.750000
O O13 0.862579 0.041743 0.250000
O O14 0.863522 0.000000 0.000000
O O15 0.411395 0.955669 0.750000
O O16 0.500000 0.949966 0.560935
O O17 0.393405 0.913438 0.499863
O O18 0.408399 0.000000 0.500000
O O19 0.623737 0.870802 0.250000
#
# Coordination Sequence:
#
# PCOD9470276 Si02
#       7
#    16  16   8  16  16  16  16
#     4   9  16  27  45  69  97 127 159 197 238 283
#     4  10  20  32  46  70 102 133 165 201 244 294
#     4   8  16  30  48  68  88 114 154 198 234 272
#     4   9  16  27  44  67  96 129 162 196 237 285
#     4  10  19  32  49  69  94 125 161 201 243 287
#     4  10  21  37  56  76  98 127 166 210 254 302
#     4  10  20  33  50  73 101 131 164 202 244 293
#
# _framework density 16.962963999999999
#
# number of rings (size 3 to 8) (size 9 to 14) (size 15 to 20)
#    0.000    2.462    0.000    2.769    0.000    7.692 
#    0.000    0.000    0.000    0.000    2.000    0.000 
#    0.000    0.000    0.000    0.000    0.000    0.000 
#
# Total GULP energy -289733.418693 kJ/mol
# GULP energy per Si atom -5571.796513 kJ/mol
# Density = 1.692436 g / cm^3
# Si number density = 16.962964 Si / 1000 Ang^3
#
#
#
# Elastic Constant Matrix: (Units=GPa)
#
#
# Indices 1 2 3 4 5 6 
#
# 1 12.8741 22.2243 25.9183 0.0000 0.0000 0.0000
# 2 22.2243 109.5755 59.0726 0.0000 0.0000 0.0000
# 3 25.9183 59.0726 123.7314 0.0000 0.0000 0.0000
# 4 0.0000 0.0000 0.0000 33.9622 0.0000 0.0000
# 5 0.0000 0.0000 0.0000 0.0000 12.8920 0.0000
# 6 0.0000 0.0000 0.0000 0.0000 0.0000 6.2608
#
#
#
# Elastic Compliance Matrix: (Units=1/GPa)
#
#
# Indices 1 2 3 4 5 6 
#
# 1 0.159934 -0.019360 -0.024259 0.000000 0.000000 0.000000
# 2 -0.019360 0.014633 -0.002931 0.000000 0.000000 0.000000
# 3 -0.024259 -0.002931 0.014563 0.000000 0.000000 0.000000
# 4 0.000000 0.000000 0.000000 0.029444 0.000000 0.000000
# 5 0.000000 0.000000 0.000000 0.000000 0.077568 0.000000
# 6 0.000000 0.000000 0.000000 0.000000 0.000000 0.159724
#
#
# Mechanical properties :
#
#
# Convention : Reuss Voigt Hill
#
# Bulk Modulus (GPa) = 10.41335 51.17904 30.79619
# Shear Modulus (GPa) = 8.60623 19.88739 14.24681
#
# Velocity S-wave (km/s) = 2.25490 3.42775 2.90121
# Velocity P-wave (km/s) = 3.59605 6.77514 5.42375
#
# Compressibility (1/GPa) = 0.09603056
#
# Stress axis : x y z
#
# Youngs Moduli (GPa) = 6.25258 68.34018 68.66865
#
# Poissons Ratio (x) = 1.32307 1.66581
# Poissons Ratio (y) = 0.12105 0.20124
# Poissons Ratio (z) = 0.15168 0.20028
#
# Static dielectric constant tensor:
#      x y z
#    x 1.578350 0.000000 0.000000 
#    y 0.000000 1.560720 0.000000 
#    z 0.000000 0.000000 1.569210 
# 
# From -- ./inp_files/10878.got.cif
#   From: 2010.05.17/outbox.cif.g08.bks.cpg/sg63_6_cif.got.tgz:10878.got - 2010.06.03 15:47:04.
