data_PCOD9470242
_publ_section_title
;
Structure prediction by ZEFSAII (Michael W. Deem and Ramdas Pophale) SiO2 
 PCOD9470242
Probable space group: C M C M
;
_chemical_formula_sum "Si O2"
_cell_formula_units_Z 104
_cell_length_a 21.382965
_cell_length_b 28.665551
_cell_length_c 9.675450
_cell_angle_alpha 90.000000
_cell_angle_beta 90.000000
_cell_angle_gamma 90.000000
_cell_volume 5930.610363
_symmetry_space_group_name_H-M "C M C M"
_symmetry_group_IT_number 63
_symmetry_cell_setting 'orthorhombic'
loop_
_space_group_symop_operation_xyz
x,y,z
-x,-y,1/2+z
x,-y,-z
-x,y,1/2-z
-x,-y,-z
x,y,1/2-z
-x,y,z
x,-y,1/2+z
1/2+x,1/2+y,z
1/2-x,1/2-y,1/2+z
1/2+x,1/2-y,-z
1/2-x,1/2+y,1/2-z
1/2-x,1/2-y,-z
1/2+x,1/2+y,1/2-z
1/2-x,1/2+y,z
1/2+x,1/2-y,1/2+z
loop_
_atom_site_type_symbol
_atom_site_label
_atom_site_fract_x
_atom_site_fract_y
_atom_site_fract_z
Si Si1 0.374903 0.608539 0.915088
Si Si2 0.693120 0.797455 0.091251
Si Si3 0.500000 0.548757 0.584294
Si Si4 0.182881 0.190774 0.085622
Si Si5 0.426332 0.959925 0.901460
Si Si6 0.752932 0.953687 0.410864
Si Si7 0.628583 0.108227 0.905856
O O1 0.374344 0.619508 0.750000
O O2 0.438508 0.580185 0.945737
O O3 0.316162 0.574522 0.943631
O O4 0.361883 0.654810 0.005356
O O5 0.718418 0.798818 0.250000
O O6 0.666730 0.745673 0.068311
O O7 0.641424 0.837292 0.082705
O O8 0.748527 0.810392 0.985939
O O9 0.500000 0.500000 0.500000
O O10 0.500000 0.538823 0.750000
O O11 0.185398 0.180535 0.250000
O O12 0.397402 0.961287 0.750000
O O13 0.500000 0.968542 0.888596
O O14 0.416261 0.911673 0.978553
O O15 0.399834 0.000000 0.000000
O O16 0.755476 0.966920 0.250000
O O17 0.694597 0.918523 0.426885
O O18 0.747458 0.000000 0.500000
O O19 0.606586 0.096906 0.750000
#
# Coordination Sequence:
#
# PCOD9470242 Si02
#       7
#    16  16   8  16  16  16  16
#     4  10  20  37  55  75 107 145 181 221 273 326
#     4   9  18  34  53  78 112 140 169 211 264 319
#     4  10  22  38  60  82 106 148 192 232 283 334
#     4  10  19  31  54  83 106 137 176 215 261 315
#     4  10  21  36  53  74 102 136 174 213 252 302
#     4  10  20  32  48  72 105 137 166 210 261 309
#     4  10  19  33  53  76 103 138 172 211 262 310
#
# _framework density 17.536137
#
# number of rings (size 3 to 8) (size 9 to 14) (size 15 to 20)
#    0.000    2.154    1.538    1.846    0.000    5.231 
#    0.000    0.000    1.692    0.000    0.000    0.000 
#    0.000    0.000    0.000    0.000    0.000    0.000 
#
# Total GULP energy -289956.821898 kJ/mol
# GULP energy per Si atom -5576.092729 kJ/mol
# Density = 1.749622 g / cm^3
# Si number density = 17.536137 Si / 1000 Ang^3
#
#
#
# Elastic Constant Matrix: (Units=GPa)
#
#
# Indices 1 2 3 4 5 6 
#
# 1 46.8026 22.9001 31.1116 0.0000 0.0000 0.0000
# 2 22.9001 117.0748 75.1486 0.0000 0.0000 0.0000
# 3 31.1116 75.1486 106.3077 0.0000 0.0000 0.0000
# 4 0.0000 0.0000 0.0000 32.3260 0.0000 0.0000
# 5 0.0000 0.0000 0.0000 0.0000 19.6666 0.0000
# 6 0.0000 0.0000 0.0000 0.0000 0.0000 24.7167
#
#
#
# Elastic Compliance Matrix: (Units=1/GPa)
#
#
# Indices 1 2 3 4 5 6 
#
# 1 0.026536 -0.000376 -0.007500 0.000000 0.000000 0.000000
# 2 -0.000376 0.015642 -0.010947 0.000000 0.000000 0.000000
# 3 -0.007500 -0.010947 0.019340 0.000000 0.000000 0.000000
# 4 0.000000 0.000000 0.000000 0.030935 0.000000 0.000000
# 5 0.000000 0.000000 0.000000 0.000000 0.050848 0.000000
# 6 0.000000 0.000000 0.000000 0.000000 0.000000 0.040458
#
#
# Mechanical properties :
#
#
# Convention : Reuss Voigt Hill
#
# Bulk Modulus (GPa) = 41.89150 58.72288 50.30719
# Shear Modulus (GPa) = 21.79955 24.74352 23.27153
#
# Velocity S-wave (km/s) = 3.52962 3.76041 3.64684
# Velocity P-wave (km/s) = 6.36800 7.23973 6.81781
#
# Compressibility (1/GPa) = 0.02387119
#
# Stress axis : x y z
#
# Youngs Moduli (GPa) = 37.68473 63.93061 51.70637
#
# Poissons Ratio (x) = 0.02407 0.38779
# Poissons Ratio (y) = 0.01419 0.56603
# Poissons Ratio (z) = 0.28263 0.69985
#
# Static dielectric constant tensor:
#      x y z
#    x 1.601570 0.000000 0.000000 
#    y 0.000000 1.604110 0.000000 
#    z 0.000000 0.000000 1.513020 
# 
# From -- ./inp_files/10818.got.cif
#   From: 2010.05.17/outbox.cif.g08.bks.cpg/sg63_6_cif.got.tgz:10818.got - 2010.06.03 15:47:04.
