data_PCOD9470079
_publ_section_title
;
Structure prediction by ZEFSAII (Michael W. Deem and Ramdas Pophale) SiO2 
 PCOD9470079
Probable space group: C M C M
;
_chemical_formula_sum "Si O2"
_cell_formula_units_Z 96
_cell_length_a 20.517802
_cell_length_b 10.598535
_cell_length_c 23.417550
_cell_angle_alpha 90.000000
_cell_angle_beta 90.000000
_cell_angle_gamma 90.000000
_cell_volume 5092.348636
_symmetry_space_group_name_H-M "C M C M"
_symmetry_group_IT_number 63
_symmetry_cell_setting 'orthorhombic'
loop_
_space_group_symop_operation_xyz
x,y,z
-x,-y,1/2+z
x,-y,-z
-x,y,1/2-z
-x,-y,-z
x,y,1/2-z
-x,y,z
x,-y,1/2+z
1/2+x,1/2+y,z
1/2-x,1/2-y,1/2+z
1/2+x,1/2-y,-z
1/2-x,1/2+y,1/2-z
1/2-x,1/2-y,-z
1/2+x,1/2+y,1/2-z
1/2-x,1/2+y,z
1/2+x,1/2-y,1/2+z
loop_
_atom_site_type_symbol
_atom_site_label
_atom_site_fract_x
_atom_site_fract_y
_atom_site_fract_z
Si Si1 0.925618 0.487855 0.563375
Si Si2 0.256433 0.214367 0.613670
Si Si3 0.572904 0.492947 0.858239
Si Si4 0.395180 0.740839 0.437796
Si Si5 0.779596 0.031563 0.316518
Si Si6 0.384398 0.728882 0.570959
O O1 0.894512 0.500000 0.500000
O O2 0.924739 0.628796 0.586284
O O3 0.893006 0.371201 0.594313
O O4 0.000000 0.447249 0.555683
O O5 0.318907 0.236960 0.574172
O O6 0.254317 0.085567 0.650573
O O7 0.257565 0.336533 0.655029
O O8 0.192157 0.203489 0.575295
O O9 0.500000 0.485374 0.831552
O O10 0.579401 0.379611 0.903988
O O11 0.640915 0.481548 0.822957
O O12 0.579209 0.625266 0.891663
O O13 0.407446 0.725841 0.505261
O O14 0.763205 0.028713 0.250000
#
# Coordination Sequence:
#
# PCOD9470079 Si02
#       6
#    16  16  16  16  16  16
#     4   9  17  28  43  64  92 130 167 192 223 272
#     4  10  20  34  52  76 100 126 166 206 252 308
#     4  10  21  34  50  75 103 135 174 208 246 300
#     4  10  19  31  49  73 104 136 163 198 242 296
#     4  10  21  37  56  74  96 129 170 222 268 297
#     4  10  19  31  49  73 104 136 163 198 242 296
#
# _framework density 18.851811000000001
#
# number of rings (size 3 to 8) (size 9 to 14) (size 15 to 20)
#    0.000    2.167    0.000    3.500    0.000    3.000 
#    0.000    5.000    0.000    0.000    0.000    0.000 
#    0.000   24.000    0.000    0.000    0.000    0.000 
#
# Total GULP energy -267401.206241 kJ/mol
# GULP energy per Si atom -5570.858463 kJ/mol
# Density = 1.880890 g / cm^3
# Si number density = 18.851811 Si / 1000 Ang^3
#
#
#
# Elastic Constant Matrix: (Units=GPa)
#
#
# Indices 1 2 3 4 5 6 
#
# 1 62.6419 -10.3291 -15.4016 0.0000 0.0000 0.0000
# 2 -10.3291 115.2420 11.1590 0.0000 0.0000 0.0000
# 3 -15.4016 11.1590 33.1993 0.0000 0.0000 0.0000
# 4 0.0000 0.0000 0.0000 14.3920 0.0000 0.0000
# 5 0.0000 0.0000 0.0000 0.0000 1.8818 0.0000
# 6 0.0000 0.0000 0.0000 0.0000 0.0000 20.9511
#
#
#
# Elastic Compliance Matrix: (Units=1/GPa)
#
#
# Indices 1 2 3 4 5 6 
#
# 1 0.018097 0.000836 0.008114 0.000000 0.000000 0.000000
# 2 0.000836 0.009008 -0.002640 0.000000 0.000000 0.000000
# 3 0.008114 -0.002640 0.034773 0.000000 0.000000 0.000000
# 4 0.000000 0.000000 0.000000 0.069483 0.000000 0.000000
# 5 0.000000 0.000000 0.000000 0.000000 0.531417 0.000000
# 6 0.000000 0.000000 0.000000 0.000000 0.000000 0.047730
#
#
# Mechanical properties :
#
#
# Convention : Reuss Voigt Hill
#
# Bulk Modulus (GPa) = 13.42305 20.21554 16.81930
# Shear Modulus (GPa) = 6.91832 22.48864 14.70348
#
# Velocity S-wave (km/s) = 1.91776 3.45761 2.79579
# Velocity P-wave (km/s) = 3.46980 5.16592 4.40036
#
# Compressibility (1/GPa) = 0.07449873
#
# Stress axis : x y z
#
# Youngs Moduli (GPa) = 55.25877 111.01285 28.75817
#
# Poissons Ratio (x) = -0.09284 -0.23335
# Poissons Ratio (y) = -0.04621 0.07592
# Poissons Ratio (z) = -0.44838 0.29305
#
# Static dielectric constant tensor:
#      x y z
#    x 1.701730 0.000000 0.000000 
#    y 0.000000 1.680890 0.000000 
#    z 0.000000 0.000000 1.611980 
# 
# From -- ./inp_files/63691.got.cif
#   From: 2010.05.17/outbox.cif.g08.bks.cpg/sg63_32_cif.got.tgz:63691.got - 2010.06.03 15:47:04.
