data_PCOD9470347
_publ_section_title
;
Structure prediction by ZEFSAII (Michael W. Deem and Ramdas Pophale) SiO2 
 PCOD9470347
Probable space group: C M C M
;
_chemical_formula_sum "Si O2"
_cell_formula_units_Z 64
_cell_length_a 24.645496
_cell_length_b 12.230220
_cell_length_c 9.909278
_cell_angle_alpha 90.000000
_cell_angle_beta 90.000000
_cell_angle_gamma 90.000000
_cell_volume 2986.852970
_symmetry_space_group_name_H-M "C M C M"
_symmetry_group_IT_number 63
_symmetry_cell_setting 'orthorhombic'
loop_
_space_group_symop_operation_xyz
x,y,z
-x,-y,1/2+z
x,-y,-z
-x,y,1/2-z
-x,-y,-z
x,y,1/2-z
-x,y,z
x,-y,1/2+z
1/2+x,1/2+y,z
1/2-x,1/2-y,1/2+z
1/2+x,1/2-y,-z
1/2-x,1/2+y,1/2-z
1/2-x,1/2-y,-z
1/2+x,1/2+y,1/2-z
1/2-x,1/2+y,z
1/2+x,1/2-y,1/2+z
loop_
_atom_site_type_symbol
_atom_site_label
_atom_site_fract_x
_atom_site_fract_y
_atom_site_fract_z
Si Si1 0.789776 0.102396 0.089783
Si Si2 0.435357 0.579312 0.750000
Si Si3 0.824416 0.302839 0.903291
Si Si4 0.935894 0.265629 0.536369
Si Si5 0.935579 0.833853 0.750000
O O1 0.802126 0.099573 0.250000
O O2 0.724119 0.111486 0.081553
O O3 0.812566 0.210034 0.014931
O O4 0.808277 0.000000 0.000000
O O5 0.500000 0.568821 0.750000
O O6 0.424305 0.654278 0.620523
O O7 0.412714 0.457245 0.750000
O O8 0.818477 0.257416 0.750000
O O9 0.886604 0.343143 0.917969
O O10 0.925446 0.235313 0.382539
O O11 0.000000 0.294966 0.557607
O O12 0.000000 0.849876 0.750000
#
# Coordination Sequence:
#
# PCOD9470347 Si02
#       5
#    16   8  16  16   8
#     4  10  22  40  61  83 109 144 186 236 285 328
#     4   9  16  28  44  63  97 143 183 215 253 314
#     4  10  21  38  58  84 114 145 187 230 275 333
#     4  10  19  32  50  75 109 147 181 218 269 327
#     4   9  18  28  40  67 105 145 185 217 257 314
#
# _framework density 21.427235
#
# number of rings (size 3 to 8) (size 9 to 14) (size 15 to 20)
#    0.000    2.250    1.250    1.500    1.750    6.000 
#    0.000    0.000    0.000    0.750    0.000    0.000 
#    0.000    0.000    0.000    0.000    0.000    0.000 
#
# Total GULP energy -178320.056962 kJ/mol
# GULP energy per Si atom -5572.501780 kJ/mol
# Density = 2.137847 g / cm^3
# Si number density = 21.427235 Si / 1000 Ang^3
#
#
#
# Elastic Constant Matrix: (Units=GPa)
#
#
# Indices 1 2 3 4 5 6 
#
# 1 156.9268 -0.6630 14.1515 0.0000 0.0000 0.0000
# 2 -0.6630 10.0375 21.6201 0.0000 0.0000 0.0000
# 3 14.1515 21.6201 169.0234 0.0000 0.0000 0.0000
# 4 0.0000 0.0000 0.0000 17.7672 0.0000 0.0000
# 5 0.0000 0.0000 0.0000 0.0000 27.9059 0.0000
# 6 0.0000 0.0000 0.0000 0.0000 0.0000 14.1102
#
#
#
# Elastic Compliance Matrix: (Units=1/GPa)
#
#
# Indices 1 2 3 4 5 6 
#
# 1 0.006456 0.002196 -0.000821 0.000000 0.000000 0.000000
# 2 0.002196 0.138259 -0.017869 0.000000 0.000000 0.000000
# 3 -0.000821 -0.017869 0.008271 0.000000 0.000000 0.000000
# 4 0.000000 0.000000 0.000000 0.056283 0.000000 0.000000
# 5 0.000000 0.000000 0.000000 0.000000 0.035835 0.000000
# 6 0.000000 0.000000 0.000000 0.000000 0.000000 0.070871
#
#
# Mechanical properties :
#
#
# Convention : Reuss Voigt Hill
#
# Bulk Modulus (GPa) = 8.33360 45.13386 26.73373
# Shear Modulus (GPa) = 12.85473 32.01528 22.43500
#
# Velocity S-wave (km/s) = 2.45199 3.86960 3.23930
# Velocity P-wave (km/s) = 3.45168 6.40895 5.14727
#
# Compressibility (1/GPa) = 0.11999618
#
# Stress axis : x y z
#
# Youngs Moduli (GPa) = 154.90086 7.23281 120.90830
#
# Poissons Ratio (x) = -0.01588 0.09931
# Poissons Ratio (y) = -0.34009 2.16048
# Poissons Ratio (z) = 0.12723 0.12924
#
# Static dielectric constant tensor:
#      x y z
#    x 1.867330 0.000000 0.000000 
#    y 0.000000 1.738950 0.000000 
#    z 0.000000 0.000000 1.788150 
# 
# From -- ./inp_files/11616.got.cif
#   From: 2010.05.17/outbox.cif.g08.bks.cpg/sg63_6_cif.got.tgz:11616.got - 2010.06.03 15:47:04.
