data_PCOD9470923
_publ_section_title
;
Structure prediction by ZEFSAII (Michael W. Deem and Ramdas Pophale) SiO2 
 PCOD9470923
Probable space group: C M C M
;
_chemical_formula_sum "Si O2"
_cell_formula_units_Z 100
_cell_length_a 16.667836
_cell_length_b 20.049176
_cell_length_c 14.747874
_cell_angle_alpha 90.000000
_cell_angle_beta 90.000000
_cell_angle_gamma 90.000000
_cell_volume 4928.391109
_symmetry_space_group_name_H-M "C M C M"
_symmetry_group_IT_number 63
_symmetry_cell_setting 'orthorhombic'
loop_
_space_group_symop_operation_xyz
x,y,z
-x,-y,1/2+z
x,-y,-z
-x,y,1/2-z
-x,-y,-z
x,y,1/2-z
-x,y,z
x,-y,1/2+z
1/2+x,1/2+y,z
1/2-x,1/2-y,1/2+z
1/2+x,1/2-y,-z
1/2-x,1/2+y,1/2-z
1/2-x,1/2-y,-z
1/2+x,1/2+y,1/2-z
1/2-x,1/2+y,z
1/2+x,1/2-y,1/2+z
loop_
_atom_site_type_symbol
_atom_site_label
_atom_site_fract_x
_atom_site_fract_y
_atom_site_fract_z
Si Si1 0.406048 0.194762 0.141748
Si Si2 0.903966 0.794695 0.509372
Si Si3 0.707987 0.926351 0.649761
Si Si4 0.879004 0.943896 0.926603
Si Si5 0.408526 0.034884 0.901892
Si Si6 0.500000 0.447933 0.750000
Si Si7 0.597635 0.816889 0.354007
O O1 0.402354 0.203916 0.250000
O O2 0.500000 0.177524 0.119593
O O3 0.346433 0.135065 0.115245
O O4 0.382919 0.260934 0.086427
O O5 0.885477 0.870893 0.528193
O O6 0.871649 0.745294 0.587548
O O7 0.000000 0.790900 0.514434
O O8 0.735929 0.906127 0.750000
O O9 0.784802 0.948899 0.594544
O O10 0.649527 0.989145 0.655057
O O11 0.930345 0.947042 0.832937
O O12 0.903137 0.000000 0.000000
O O13 0.500000 0.032396 0.867912
O O14 0.383173 0.111961 0.898871
O O15 0.407342 0.000000 0.000000
O O16 0.625029 0.815049 0.250000
O O17 0.500000 0.812715 0.352599
#
# Coordination Sequence:
#
# PCOD9470923 Si02
#       7
#    16  16  16  16  16   4  16
#     4   9  19  38  63  99 138 180 220 256 313 395
#     4  10  21  38  64  90 123 162 212 264 328 387
#     4  11  22  38  62  92 134 176 218 269 320 382
#     4  12  27  47  71 100 124 163 222 287 349 406
#     4  10  19  33  56  90 133 179 219 254 310 384
#     4  12  26  52  76  94 122 164 224 286 350 422
#     4   9  18  30  52  86 122 160 207 254 306 379
#
# _framework density 20.290597999999999
#
# number of rings (size 3 to 8) (size 9 to 14) (size 15 to 20)
#    0.000    1.760    1.600    2.640    1.120    4.800 
#    1.440    0.000    0.000    1.920    0.000    0.000 
#    0.000    0.000    0.000    0.000    0.000    0.000 
#
# Total GULP energy -278414.043232 kJ/mol
# GULP energy per Si atom -5568.280865 kJ/mol
# Density = 2.024442 g / cm^3
# Si number density = 20.290598 Si / 1000 Ang^3
#
#
#
# Elastic Constant Matrix: (Units=GPa)
#
#
# Indices 1 2 3 4 5 6 
#
# 1 73.2909 39.9884 48.9353 0.0000 0.0000 0.0000
# 2 39.9884 160.4645 62.1626 0.0000 0.0000 0.0000
# 3 48.9353 62.1626 105.1260 0.0000 0.0000 0.0000
# 4 0.0000 0.0000 0.0000 12.7298 0.0000 0.0000
# 5 0.0000 0.0000 0.0000 0.0000 5.9467 0.0000
# 6 0.0000 0.0000 0.0000 0.0000 0.0000 9.3484
#
#
#
# Elastic Compliance Matrix: (Units=1/GPa)
#
#
# Indices 1 2 3 4 5 6 
#
# 1 0.020192 -0.001804 -0.008333 0.000000 0.000000 0.000000
# 2 -0.001804 0.008245 -0.004036 0.000000 0.000000 0.000000
# 3 -0.008333 -0.004036 0.015777 0.000000 0.000000 0.000000
# 4 0.000000 0.000000 0.000000 0.078556 0.000000 0.000000
# 5 0.000000 0.000000 0.000000 0.000000 0.168162 0.000000
# 6 0.000000 0.000000 0.000000 0.000000 0.000000 0.106970
#
#
# Mechanical properties :
#
#
# Convention : Reuss Voigt Hill
#
# Bulk Modulus (GPa) = 63.01133 71.22821 67.11977
# Shear Modulus (GPa) = 11.58651 18.12463 14.85557
#
# Velocity S-wave (km/s) = 2.39221 2.99198 2.70875
# Velocity P-wave (km/s) = 6.22512 6.86412 6.55241
#
# Compressibility (1/GPa) = 0.01587016
#
# Stress axis : x y z
#
# Youngs Moduli (GPa) = 49.52448 121.28860 63.38187
#
# Poissons Ratio (x) = 0.21880 0.52813
# Poissons Ratio (y) = 0.08934 0.25578
# Poissons Ratio (z) = 0.41266 0.48946
#
# Static dielectric constant tensor:
#      x y z
#    x 1.735140 0.000000 0.000000 
#    y 0.000000 1.715250 0.000000 
#    z 0.000000 0.000000 1.782920 
# 
# From -- ./inp_files/34186.got.cif
#   From: 2010.05.17/outbox.cif.g08.bks.cpg/sg63_18_cif.got.tgz:34186.got - 2010.06.03 15:47:04.
