data_PCOD9470884
_publ_section_title
;
Structure prediction by ZEFSAII (Michael W. Deem and Ramdas Pophale) SiO2 
 PCOD9470884
Probable space group: C M C M
;
_chemical_formula_sum "Si O2"
_cell_formula_units_Z 48
_cell_length_a 7.854055
_cell_length_b 39.197961
_cell_length_c 7.843607
_cell_angle_alpha 90.000000
_cell_angle_beta 90.000000
_cell_angle_gamma 90.000000
_cell_volume 2414.755924
_symmetry_space_group_name_H-M "C M C M"
_symmetry_group_IT_number 63
_symmetry_cell_setting 'orthorhombic'
loop_
_space_group_symop_operation_xyz
x,y,z
-x,-y,1/2+z
x,-y,-z
-x,y,1/2-z
-x,-y,-z
x,y,1/2-z
-x,y,z
x,-y,1/2+z
1/2+x,1/2+y,z
1/2-x,1/2-y,1/2+z
1/2+x,1/2-y,-z
1/2-x,1/2+y,1/2-z
1/2-x,1/2-y,-z
1/2+x,1/2+y,1/2-z
1/2-x,1/2+y,z
1/2+x,1/2-y,1/2+z
loop_
_atom_site_type_symbol
_atom_site_label
_atom_site_fract_x
_atom_site_fract_y
_atom_site_fract_z
Si Si1 0.295092 0.037377 0.558707
Si Si2 0.209159 0.164041 0.250000
Si Si3 0.294827 0.711815 0.558121
Si Si4 0.797656 0.086424 0.250000
O O1 0.232893 0.045111 0.750000
O O2 0.500000 0.035226 0.565940
O O3 0.253097 0.065287 0.417348
O O4 0.232199 0.000000 0.500000
O O5 0.265238 0.184842 0.417310
O O6 0.269175 0.125077 0.250000
O O7 0.000000 0.164112 0.250000
O O8 0.230687 0.705757 0.750000
O O9 0.500000 0.709569 0.562277
O O10 0.250000 0.750000 0.500000
O O11 0.000000 0.088728 0.250000
#
# Coordination Sequence:
#
# PCOD9470884 Si02
#       4
#    16   8  16   8
#     4  10  20  38  62  83 109 151 194 231 279 339
#     4   9  20  37  53  77 116 151 176 217 282 339
#     4  10  19  33  56  81 105 141 185 225 269 322
#     4  11  23  37  57  87 120 149 184 235 286 335
#
# _framework density 19.877786
#
# number of rings (size 3 to 8) (size 9 to 14) (size 15 to 20)
#    0.000    2.000    3.333    0.500    0.000    2.667 
#    0.000    6.667    0.000    0.000    0.000    0.000 
#    0.000    0.000    0.000    0.000    0.000    0.000 
#
# Total GULP energy -134027.156976 kJ/mol
# GULP energy per Si atom -5584.464874 kJ/mol
# Density = 1.983254 g / cm^3
# Si number density = 19.877786 Si / 1000 Ang^3
#
#
#
# Elastic Constant Matrix: (Units=GPa)
#
#
# Indices 1 2 3 4 5 6 
#
# 1 21.3678 4.2657 12.6149 0.0000 0.0000 0.0000
# 2 4.2657 207.9996 136.8314 0.0000 0.0000 0.0000
# 3 12.6149 136.8314 254.2580 0.0000 0.0000 0.0000
# 4 0.0000 0.0000 0.0000 35.8450 0.0000 0.0000
# 5 0.0000 0.0000 0.0000 0.0000 15.2106 0.0000
# 6 0.0000 0.0000 0.0000 0.0000 0.0000 24.6352
#
#
#
# Elastic Compliance Matrix: (Units=1/GPa)
#
#
# Indices 1 2 3 4 5 6 
#
# 1 0.048322 0.000907 -0.002886 0.000000 0.000000 0.000000
# 2 0.000907 0.007460 -0.004059 0.000000 0.000000 0.000000
# 3 -0.002886 -0.004059 0.006261 0.000000 0.000000 0.000000
# 4 0.000000 0.000000 0.000000 0.027898 0.000000 0.000000
# 5 0.000000 0.000000 0.000000 0.000000 0.065743 0.000000
# 6 0.000000 0.000000 0.000000 0.000000 0.000000 0.040592
#
#
# Mechanical properties :
#
#
# Convention : Reuss Voigt Hill
#
# Bulk Modulus (GPa) = 20.01340 87.89440 53.95390
# Shear Modulus (GPa) = 22.22153 37.13240 29.67696
#
# Velocity S-wave (km/s) = 3.34714 4.32677 3.86809
# Velocity P-wave (km/s) = 5.00279 8.32314 6.86668
#
# Compressibility (1/GPa) = 0.04996651
#
# Stress axis : x y z
#
# Youngs Moduli (GPa) = 20.69459 134.05552 159.72309
#
# Poissons Ratio (x) = -0.12164 0.46093
# Poissons Ratio (y) = -0.01878 0.64839
# Poissons Ratio (z) = 0.05972 0.54419
#
# Static dielectric constant tensor:
#      x y z
#    x 1.731700 0.000000 0.000000 
#    y 0.000000 1.663650 0.000000 
#    z 0.000000 0.000000 1.732360 
# 
# From -- ./inp_files/2009.got.cif
#   From: 2010.05.17/outbox.cif.g08.bks.cpg/sg63_2_cif.got.tgz:2009.got - 2010.06.03 15:47:04.
