data_PCOD9470134
_publ_section_title
;
Structure prediction by ZEFSAII (Michael W. Deem and Ramdas Pophale) SiO2 
 PCOD9470134
Probable space group: C M C M
;
_chemical_formula_sum "Si O2"
_cell_formula_units_Z 80
_cell_length_a 13.500133
_cell_length_b 23.735144
_cell_length_c 13.553816
_cell_angle_alpha 90.000000
_cell_angle_beta 90.000000
_cell_angle_gamma 90.000000
_cell_volume 4343.016742
_symmetry_space_group_name_H-M "C M C M"
_symmetry_group_IT_number 63
_symmetry_cell_setting 'orthorhombic'
loop_
_space_group_symop_operation_xyz
x,y,z
-x,-y,1/2+z
x,-y,-z
-x,y,1/2-z
-x,-y,-z
x,y,1/2-z
-x,y,z
x,-y,1/2+z
1/2+x,1/2+y,z
1/2-x,1/2-y,1/2+z
1/2+x,1/2-y,-z
1/2-x,1/2+y,1/2-z
1/2-x,1/2-y,-z
1/2+x,1/2+y,1/2-z
1/2-x,1/2+y,z
1/2+x,1/2-y,1/2+z
loop_
_atom_site_type_symbol
_atom_site_label
_atom_site_fract_x
_atom_site_fract_y
_atom_site_fract_z
Si Si1 0.312627 0.583224 0.437281
Si Si2 0.381415 0.463897 0.359940
Si Si3 0.386130 0.704935 0.434171
Si Si4 0.888605 0.373283 0.633858
Si Si5 0.186969 0.245004 0.861826
O O1 0.350601 0.528659 0.379225
O O2 0.335648 0.571779 0.551567
O O3 0.365724 0.640585 0.402591
O O4 0.196392 0.592894 0.421309
O O5 0.351441 0.446535 0.250000
O O6 0.500000 0.460175 0.368100
O O7 0.500000 0.720460 0.417144
O O8 0.303846 0.744428 0.382587
O O9 0.359689 0.708548 0.550784
O O10 0.883498 0.387561 0.750000
O O11 0.862441 0.306934 0.627263
O O12 0.000000 0.382909 0.598300
O O13 0.170598 0.225176 0.750000
#
# Coordination Sequence:
#
# PCOD9470134 Si02
#       5
#    16  16  16  16  16
#     4  10  19  33  51  73  99 125 163 207 243 287
#     4  10  20  34  51  71  99 132 161 197 249 299
#     4  10  19  31  50  75 100 128 164 203 241 283
#     4   9  17  31  52  75  99 131 166 197 236 285
#     4   9  19  33  48  71 103 134 163 197 238 286
#
# _framework density 18.420376999999998
#
# number of rings (size 3 to 8) (size 9 to 14) (size 15 to 20)
#    0.000    2.400    0.000    3.600    0.000    3.200 
#    0.000    2.000    0.000    1.800    0.000    0.000 
#    0.000    0.000    0.000    0.000    0.000    0.000 
#
# Total GULP energy -223231.169952 kJ/mol
# GULP energy per Si atom -5580.779249 kJ/mol
# Density = 1.837845 g / cm^3
# Si number density = 18.420377 Si / 1000 Ang^3
#
#
#
# Elastic Constant Matrix: (Units=GPa)
#
#
# Indices 1 2 3 4 5 6 
#
# 1 132.6713 5.5566 21.9549 0.0000 0.0000 0.0000
# 2 5.5566 23.7088 -6.5910 0.0000 0.0000 0.0000
# 3 21.9549 -6.5910 55.9804 0.0000 0.0000 0.0000
# 4 0.0000 0.0000 0.0000 -59.7149 0.0000 0.0000
# 5 0.0000 0.0000 0.0000 0.0000 24.5843 0.0000
# 6 0.0000 0.0000 0.0000 0.0000 0.0000 13.2786
#
#
#
# Elastic Compliance Matrix: (Units=1/GPa)
#
#
# Indices 1 2 3 4 5 6 
#
# 1 0.008253 -0.002930 -0.003582 0.000000 0.000000 0.000000
# 2 -0.002930 0.044646 0.006406 0.000000 0.000000 0.000000
# 3 -0.003582 0.006406 0.020022 0.000000 0.000000 0.000000
# 4 0.000000 0.000000 0.000000 -0.016746 0.000000 0.000000
# 5 0.000000 0.000000 0.000000 0.000000 0.040676 0.000000
# 6 0.000000 0.000000 0.000000 0.000000 0.000000 0.075309
#
#
# Mechanical properties :
#
#
# Convention : Reuss Voigt Hill
#
# Bulk Modulus (GPa) = 13.75345 28.24461 20.99903
# Shear Modulus (GPa) = 25.43123 8.39225 16.91174
#
# Velocity S-wave (km/s) = 3.71968 2.13678 3.03330
# Velocity P-wave (km/s) = 5.09221 4.63189 4.86750
#
# Compressibility (1/GPa) = 0.07270904
#
# Stress axis : x y z
#
# Youngs Moduli (GPa) = 121.17047 22.39847 49.94444
#
# Poissons Ratio (x) = 0.06563 0.17888
# Poissons Ratio (y) = 0.35502 -0.31992
# Poissons Ratio (z) = 0.43399 -0.14347
#
# Static dielectric constant tensor:
#      x y z
#    x 1.624620 0.000000 0.000000 
#    y 0.000000 1.628220 0.000000 
#    z 0.000000 0.000000 1.646520 
# 
# From -- ./inp_files/29698.got.cif
#   From: 2010.05.17/outbox.cif.g08.bks.cpg/sg63_15_cif.got.tgz:29698.got - 2010.06.03 15:47:04.
