data_PCOD9470610
_publ_section_title
;
Structure prediction by ZEFSAII (Michael W. Deem and Ramdas Pophale) SiO2 
 PCOD9470610
Probable space group: C M C M
;
_chemical_formula_sum "Si O2"
_cell_formula_units_Z 96
_cell_length_a 26.555919
_cell_length_b 11.834449
_cell_length_c 14.778548
_cell_angle_alpha 90.000000
_cell_angle_beta 90.000000
_cell_angle_gamma 90.000000
_cell_volume 4644.523282
_symmetry_space_group_name_H-M "C M C M"
_symmetry_group_IT_number 63
_symmetry_cell_setting 'orthorhombic'
loop_
_space_group_symop_operation_xyz
x,y,z
-x,-y,1/2+z
x,-y,-z
-x,y,1/2-z
-x,-y,-z
x,y,1/2-z
-x,y,z
x,-y,1/2+z
1/2+x,1/2+y,z
1/2-x,1/2-y,1/2+z
1/2+x,1/2-y,-z
1/2-x,1/2+y,1/2-z
1/2-x,1/2-y,-z
1/2+x,1/2+y,1/2-z
1/2-x,1/2+y,z
1/2+x,1/2-y,1/2+z
loop_
_atom_site_type_symbol
_atom_site_label
_atom_site_fract_x
_atom_site_fract_y
_atom_site_fract_z
Si Si1 0.778239 0.969331 0.355356
Si Si2 0.814486 0.384515 0.024018
Si Si3 0.056798 0.030182 0.105441
Si Si4 0.445381 0.270990 0.146686
Si Si5 0.152850 0.820804 0.644624
Si Si6 0.165262 0.262011 0.855131
O O1 0.762077 0.980034 0.250000
O O2 0.733158 0.927253 0.418072
O O3 0.693822 0.584195 0.383089
O O4 0.819414 0.868922 0.357909
O O5 0.841565 0.289211 0.083289
O O6 0.843804 0.500000 0.000000
O O7 0.801446 0.328075 0.927464
O O8 0.099167 0.117208 0.135232
O O9 0.000000 0.073713 0.119999
O O10 0.060005 0.906851 0.150272
O O11 0.063259 0.000000 0.000000
O O12 0.447537 0.230394 0.250000
O O13 0.500000 0.247178 0.102654
O O14 0.392430 0.225415 0.111197
O O15 0.161825 0.792967 0.750000
O O16 0.170410 0.298278 0.750000
#
# Coordination Sequence:
#
# PCOD9470610 Si02
#       6
#    16  16  16  16  16  16
#     4  10  23  41  63  93 122 156 207 264 325 385
#     4  12  28  42  62  86 122 173 220 262 314 374
#     4  10  19  32  58  97 135 165 198 251 327 400
#     4   9  16  30  56  90 123 153 192 250 320 384
#     4  11  24  42  66  94 129 169 213 270 326 387
#     4  10  21  39  62  91 126 164 205 259 320 387
#
# _framework density 20.669505000000001
#
# number of rings (size 3 to 8) (size 9 to 14) (size 15 to 20)
#    0.000    1.667    1.667    2.500    4.667    2.333 
#    0.000    0.000    0.000    2.000    0.000    2.333 
#    0.000    0.000    0.000    0.000    0.000    0.000 
#
# Total GULP energy -268055.056584 kJ/mol
# GULP energy per Si atom -5584.480346 kJ/mol
# Density = 2.062246 g / cm^3
# Si number density = 20.669505 Si / 1000 Ang^3
#
#
#
# Elastic Constant Matrix: (Units=GPa)
#
#
# Indices 1 2 3 4 5 6 
#
# 1 115.4321 29.3764 37.4952 0.0000 0.0000 0.0000
# 2 29.3764 96.0513 43.4389 0.0000 0.0000 0.0000
# 3 37.4952 43.4389 91.7835 0.0000 0.0000 0.0000
# 4 0.0000 0.0000 0.0000 -12.6160 0.0000 0.0000
# 5 0.0000 0.0000 0.0000 0.0000 21.7711 0.0000
# 6 0.0000 0.0000 0.0000 0.0000 0.0000 18.7124
#
#
#
# Elastic Compliance Matrix: (Units=1/GPa)
#
#
# Indices 1 2 3 4 5 6 
#
# 1 0.010171 -0.001567 -0.003413 0.000000 0.000000 0.000000
# 2 -0.001567 0.013488 -0.005743 0.000000 0.000000 0.000000
# 3 -0.003413 -0.005743 0.015008 0.000000 0.000000 0.000000
# 4 0.000000 0.000000 0.000000 -0.079264 0.000000 0.000000
# 5 0.000000 0.000000 0.000000 0.000000 0.045932 0.000000
# 6 0.000000 0.000000 0.000000 0.000000 0.000000 0.053441
#
#
# Mechanical properties :
#
#
# Convention : Reuss Voigt Hill
#
# Bulk Modulus (GPa) = 58.07520 58.20978 58.14249
# Shear Modulus (GPa) = 58.16542 18.43723 38.30132
#
# Velocity S-wave (km/s) = 5.31054 2.98988 4.30936
# Velocity P-wave (km/s) = 8.10928 6.33581 7.27677
#
# Compressibility (1/GPa) = 0.01721905
#
# Stress axis : x y z
#
# Youngs Moduli (GPa) = 98.32266 74.14148 66.63220
#
# Poissons Ratio (x) = 0.11618 0.22743
# Poissons Ratio (y) = 0.15407 0.38269
# Poissons Ratio (z) = 0.33560 0.42582
#
# Static dielectric constant tensor:
#      x y z
#    x 1.791900 0.000000 0.000000 
#    y 0.000000 1.728840 0.000000 
#    z 0.000000 0.000000 1.739660 
# 
# From -- ./inp_files/35350.got.cif
#   From: 2010.05.17/outbox.cif.g08.bks.cpg/sg63_18_cif.got.tgz:35350.got - 2010.06.03 15:47:04.
