data_PCOD9470309
_publ_section_title
;
Structure prediction by ZEFSAII (Michael W. Deem and Ramdas Pophale) SiO2 
 PCOD9470309
Probable space group: C M C M
;
_chemical_formula_sum "Si O2"
_cell_formula_units_Z 96
_cell_length_a 8.844274
_cell_length_b 23.640160
_cell_length_c 27.787481
_cell_angle_alpha 90.000000
_cell_angle_beta 90.000000
_cell_angle_gamma 90.000000
_cell_volume 5809.807985
_symmetry_space_group_name_H-M "C M C M"
_symmetry_group_IT_number 63
_symmetry_cell_setting 'orthorhombic'
loop_
_space_group_symop_operation_xyz
x,y,z
-x,-y,1/2+z
x,-y,-z
-x,y,1/2-z
-x,-y,-z
x,y,1/2-z
-x,y,z
x,-y,1/2+z
1/2+x,1/2+y,z
1/2-x,1/2-y,1/2+z
1/2+x,1/2-y,-z
1/2-x,1/2+y,1/2-z
1/2-x,1/2-y,-z
1/2+x,1/2+y,1/2-z
1/2-x,1/2+y,z
1/2+x,1/2-y,1/2+z
loop_
_atom_site_type_symbol
_atom_site_label
_atom_site_fract_x
_atom_site_fract_y
_atom_site_fract_z
Si Si1 0.678211 0.143963 0.650660
Si Si2 0.316138 0.480209 0.355420
Si Si3 0.675606 0.721743 0.927389
Si Si4 0.326438 0.647554 0.750000
Si Si5 0.326399 0.510010 0.750000
Si Si6 0.815775 0.961037 0.544873
Si Si7 0.321725 0.331201 0.966423
O O1 0.500000 0.135178 0.653153
O O2 0.757728 0.083868 0.639766
O O3 0.723250 0.188946 0.610615
O O4 0.741372 0.164659 0.701842
O O5 0.500000 0.478607 0.353522
O O6 0.262142 0.504052 0.303124
O O7 0.270569 0.514516 0.403030
O O8 0.500000 0.719315 0.913096
O O9 0.729458 0.785818 0.935568
O O10 0.690929 0.689461 0.978442
O O11 0.500000 0.666245 0.750000
O O12 0.327562 0.578669 0.750000
O O13 0.500000 0.489580 0.750000
O O14 0.769895 0.895833 0.538622
O O15 0.000000 0.961920 0.543746
O O16 0.764751 0.000000 0.500000
O O17 0.500000 0.328219 0.953563
#
# Coordination Sequence:
#
# PCOD9470309 Si02
#       7
#    16  16  16   8   8  16  16
#     4  11  20  30  47  73 101 126 157 198 241 281
#     4   9  16  28  46  67  93 125 158 191 234 288
#     4  10  19  32  50  68  91 126 163 199 243 293
#     4   9  17  31  49  70  97 126 157 194 238 286
#     4   7  12  23  41  64  87 114 149 184 218 268
#     4   9  16  27  46  70  94 122 157 198 242 289
#     4   9  18  32  49  70  94 122 162 206 242 281
#
# _framework density 16.523782000000001
#
# number of rings (size 3 to 8) (size 9 to 14) (size 15 to 20)
#    0.000    2.667    0.000    4.250    0.000    3.333 
#    0.000    0.833    0.000    3.000    0.000    3.500 
#    0.000    0.000    0.000    0.000    0.000    0.000 
#
# Total GULP energy -267415.925705 kJ/mol
# GULP energy per Si atom -5571.165119 kJ/mol
# Density = 1.648617 g / cm^3
# Si number density = 16.523782 Si / 1000 Ang^3
#
#
#
# Elastic Constant Matrix: (Units=GPa)
#
#
# Indices 1 2 3 4 5 6 
#
# 1 37.3182 13.0827 20.3222 0.0000 0.0000 0.0000
# 2 13.0827 94.1204 50.4810 0.0000 0.0000 0.0000
# 3 20.3222 50.4810 94.1683 0.0000 0.0000 0.0000
# 4 0.0000 0.0000 0.0000 16.4598 0.0000 0.0000
# 5 0.0000 0.0000 0.0000 0.0000 16.2736 0.0000
# 6 0.0000 0.0000 0.0000 0.0000 0.0000 19.9922
#
#
#
# Elastic Compliance Matrix: (Units=1/GPa)
#
#
# Indices 1 2 3 4 5 6 
#
# 1 0.030431 -0.000993 -0.006035 0.000000 0.000000 0.000000
# 2 -0.000993 0.014945 -0.007797 0.000000 0.000000 0.000000
# 3 -0.006035 -0.007797 0.016101 0.000000 0.000000 0.000000
# 4 0.000000 0.000000 0.000000 0.060754 0.000000 0.000000
# 5 0.000000 0.000000 0.000000 0.000000 0.061449 0.000000
# 6 0.000000 0.000000 0.000000 0.000000 0.000000 0.050020
#
#
# Mechanical properties :
#
#
# Convention : Reuss Voigt Hill
#
# Bulk Modulus (GPa) = 31.41984 43.70875 37.56429
# Shear Modulus (GPa) = 18.25088 19.99318 19.12203
#
# Velocity S-wave (km/s) = 3.32704 3.48223 3.40552
# Velocity P-wave (km/s) = 5.81508 6.53279 6.18435
#
# Compressibility (1/GPa) = 0.03182703
#
# Stress axis : x y z
#
# Youngs Moduli (GPa) = 32.86112 66.91354 62.10621
#
# Poissons Ratio (x) = 0.06645 0.37480
# Poissons Ratio (y) = 0.03264 0.48425
# Poissons Ratio (z) = 0.19831 0.52173
#
# Static dielectric constant tensor:
#      x y z
#    x 1.554470 0.000000 0.000000 
#    y 0.000000 1.527910 0.000000 
#    z 0.000000 0.000000 1.584760 
# 
# From -- ./inp_files/67274.got.cif
#   From: 2010.05.17/outbox.cif.g08.bks.cpg/sg63_34_cif.got.tgz:67274.got - 2010.06.03 15:47:04.
