data_PCOD9470985
_publ_section_title
;
Structure prediction by ZEFSAII (Michael W. Deem and Ramdas Pophale) SiO2 
 PCOD9470985
Probable space group: C M C M
;
_chemical_formula_sum "Si O2"
_cell_formula_units_Z 96
_cell_length_a 23.934788
_cell_length_b 26.745192
_cell_length_c 7.635327
_cell_angle_alpha 90.000000
_cell_angle_beta 90.000000
_cell_angle_gamma 90.000000
_cell_volume 4887.682048
_symmetry_space_group_name_H-M "C M C M"
_symmetry_group_IT_number 63
_symmetry_cell_setting 'orthorhombic'
loop_
_space_group_symop_operation_xyz
x,y,z
-x,-y,1/2+z
x,-y,-z
-x,y,1/2-z
-x,-y,-z
x,y,1/2-z
-x,y,z
x,-y,1/2+z
1/2+x,1/2+y,z
1/2-x,1/2-y,1/2+z
1/2+x,1/2-y,-z
1/2-x,1/2+y,1/2-z
1/2-x,1/2-y,-z
1/2+x,1/2+y,1/2-z
1/2-x,1/2+y,z
1/2+x,1/2-y,1/2+z
loop_
_atom_site_type_symbol
_atom_site_label
_atom_site_fract_x
_atom_site_fract_y
_atom_site_fract_z
Si Si1 0.870412 0.847661 0.548919
Si Si2 0.813741 0.557572 0.460979
Si Si3 0.131030 0.347722 0.552376
Si Si4 0.250585 0.308161 0.459459
Si Si5 0.314435 0.442486 0.960790
Si Si6 0.936916 0.751406 0.541122
O O1 0.889592 0.853953 0.750000
O O2 0.806653 0.828967 0.543157
O O3 0.860608 0.903086 0.470748
O O4 0.905801 0.801415 0.470608
O O5 0.826765 0.500000 0.500000
O O6 0.812178 0.563364 0.250000
O O7 0.859868 0.597068 0.529608
O O8 0.749634 0.566865 0.525841
O O9 0.110750 0.354378 0.750000
O O10 0.195159 0.329955 0.544525
O O11 0.095798 0.300893 0.482213
O O12 0.250160 0.316519 0.250000
O O13 0.250000 0.250000 0.500000
O O14 0.312678 0.436745 0.750000
O O15 0.327517 0.500000 0.000000
O O16 0.939208 0.758235 0.750000
O O17 0.000000 0.747817 0.472856
#
# Coordination Sequence:
#
# PCOD9470985 Si02
#       6
#    16  16  16  16  16  16
#     4  10  19  34  53  74 106 141 174 217 263 314
#     4   9  18  31  48  74 108 140 172 207 251 312
#     4  11  21  35  54  78 108 141 175 215 264 316
#     4  12  22  31  48  77 109 140 172 210 260 320
#     4   9  17  30  47  72 106 141 173 208 253 308
#     4  10  22  38  56  78 102 136 181 224 270 320
#
# _framework density 19.641210999999998
#
# number of rings (size 3 to 8) (size 9 to 14) (size 15 to 20)
#    0.000    1.833    3.333    2.000    0.000    2.333 
#    0.000    0.000    0.000    1.000    0.000    0.000 
#    0.000    0.000    0.000    0.000    0.000    0.000 
#
# Total GULP energy -267376.570378 kJ/mol
# GULP energy per Si atom -5570.345216 kJ/mol
# Density = 1.959651 g / cm^3
# Si number density = 19.641211 Si / 1000 Ang^3
#
#
#
# Elastic Constant Matrix: (Units=GPa)
#
#
# Indices 1 2 3 4 5 6 
#
# 1 93.9897 64.7735 -3.3203 0.0000 0.0000 0.0000
# 2 64.7735 189.3406 3.2547 0.0000 0.0000 0.0000
# 3 -3.3203 3.2547 58.7373 0.0000 0.0000 0.0000
# 4 0.0000 0.0000 0.0000 21.4191 0.0000 0.0000
# 5 0.0000 0.0000 0.0000 0.0000 7.5542 0.0000
# 6 0.0000 0.0000 0.0000 0.0000 0.0000 9.1649
#
#
#
# Elastic Compliance Matrix: (Units=1/GPa)
#
#
# Indices 1 2 3 4 5 6 
#
# 1 0.013987 -0.004803 0.001057 0.000000 0.000000 0.000000
# 2 -0.004803 0.006936 -0.000656 0.000000 0.000000 0.000000
# 3 0.001057 -0.000656 0.017121 0.000000 0.000000 0.000000
# 4 0.000000 0.000000 0.000000 0.046687 0.000000 0.000000
# 5 0.000000 0.000000 0.000000 0.000000 0.132377 0.000000
# 6 0.000000 0.000000 0.000000 0.000000 0.000000 0.109112
#
#
# Mechanical properties :
#
#
# Convention : Reuss Voigt Hill
#
# Bulk Modulus (GPa) = 34.20026 52.38707 43.29366
# Shear Modulus (GPa) = 14.50239 26.11828 20.31034
#
# Velocity S-wave (km/s) = 2.72024 3.65056 3.21918
# Velocity P-wave (km/s) = 5.22652 6.67073 5.99230
#
# Compressibility (1/GPa) = 0.02923954
#
# Stress axis : x y z
#
# Youngs Moduli (GPa) = 71.49566 144.17743 58.40770
#
# Poissons Ratio (x) = 0.69250 -0.06172
# Poissons Ratio (y) = 0.34340 0.03831
# Poissons Ratio (z) = -0.07556 0.09456
#
# Static dielectric constant tensor:
#      x y z
#    x 1.688840 0.000000 0.000000 
#    y 0.000000 1.829850 0.000000 
#    z 0.000000 0.000000 1.751740 
# 
# From -- ./inp_files/8558.got.cif
#   From: 2010.05.17/outbox.cif.g08.bks.cpg/sg63_5_cif.got.tgz:8558.got - 2010.06.03 15:47:04.
