data_PCOD9470370
_publ_section_title
;
Structure prediction by ZEFSAII (Michael W. Deem and Ramdas Pophale) SiO2 
 PCOD9470370
Probable space group: C M C M
;
_chemical_formula_sum "Si O2"
_cell_formula_units_Z 96
_cell_length_a 9.424718
_cell_length_b 31.879644
_cell_length_c 14.732791
_cell_angle_alpha 90.000000
_cell_angle_beta 90.000000
_cell_angle_gamma 90.000000
_cell_volume 4426.565097
_symmetry_space_group_name_H-M "C M C M"
_symmetry_group_IT_number 63
_symmetry_cell_setting 'orthorhombic'
loop_
_space_group_symop_operation_xyz
x,y,z
-x,-y,1/2+z
x,-y,-z
-x,y,1/2-z
-x,-y,-z
x,y,1/2-z
-x,y,z
x,-y,1/2+z
1/2+x,1/2+y,z
1/2-x,1/2-y,1/2+z
1/2+x,1/2-y,-z
1/2-x,1/2+y,1/2-z
1/2-x,1/2-y,-z
1/2+x,1/2+y,1/2-z
1/2-x,1/2+y,z
1/2+x,1/2-y,1/2+z
loop_
_atom_site_type_symbol
_atom_site_label
_atom_site_fract_x
_atom_site_fract_y
_atom_site_fract_z
Si Si1 0.338563 0.920245 0.609881
Si Si2 0.663121 0.501081 0.888950
Si Si3 0.338783 0.175687 0.641292
Si Si4 0.160085 0.163651 0.141762
Si Si5 0.662417 0.755964 0.638634
Si Si6 0.338318 0.918690 0.392980
O O1 0.500000 0.917440 0.644102
O O2 0.255146 0.961352 0.642228
O O3 0.249001 0.878576 0.628248
O O4 0.347149 0.924044 0.501126
O O5 0.500000 0.498252 0.860080
O O6 0.737529 0.544274 0.859724
O O7 0.662549 0.500000 0.000000
O O8 0.348174 0.180190 0.750000
O O9 0.500000 0.178890 0.604343
O O10 0.238973 0.213143 0.609451
O O11 0.285939 0.128568 0.623657
O O12 0.147500 0.169379 0.250000
O O13 0.247390 0.203822 0.108138
O O14 0.000000 0.160781 0.104122
O O15 0.660390 0.756325 0.750000
O O16 0.500000 0.758240 0.608147
O O17 0.500000 0.921863 0.357078
#
# Coordination Sequence:
#
# PCOD9470370 Si02
#       6
#    16  16  16  16  16  16
#     4  10  19  32  51  73  98 127 161 201 243 289
#     4   9  17  30  49  71  95 127 166 202 239 287
#     4   9  17  31  51  73  98 128 161 197 238 283
#     4  10  20  34  52  73  97 125 159 199 242 289
#     4   9  17  30  49  72  97 126 161 197 235 284
#     4   9  18  32  50  73  99 128 163 202 243 286
#
# _framework density 21.687245000000001
#
# number of rings (size 3 to 8) (size 9 to 14) (size 15 to 20)
#    0.000    2.667    0.000    2.000    0.000    6.333 
#    0.000    1.667    0.000    3.000    0.000    0.000 
#    0.000    0.000    0.000    0.000    0.000    0.000 
#
# Total GULP energy -268151.706906 kJ/mol
# GULP energy per Si atom -5586.493894 kJ/mol
# Density = 2.163788 g / cm^3
# Si number density = 21.687245 Si / 1000 Ang^3
#
#
#
# Elastic Constant Matrix: (Units=GPa)
#
#
# Indices 1 2 3 4 5 6 
#
# 1 214.4782 160.1941 6.0612 0.0000 0.0000 0.0000
# 2 160.1941 245.8434 -1.5797 0.0000 0.0000 0.0000
# 3 6.0612 -1.5797 57.1401 0.0000 0.0000 0.0000
# 4 0.0000 0.0000 0.0000 23.4085 0.0000 0.0000
# 5 0.0000 0.0000 0.0000 0.0000 4.9003 0.0000
# 6 0.0000 0.0000 0.0000 0.0000 0.0000 38.4379
#
#
#
# Elastic Compliance Matrix: (Units=1/GPa)
#
#
# Indices 1 2 3 4 5 6 
#
# 1 0.009156 -0.005974 -0.001136 0.000000 0.000000 0.000000
# 2 -0.005974 0.007966 0.000854 0.000000 0.000000 0.000000
# 3 -0.001136 0.000854 0.017645 0.000000 0.000000 0.000000
# 4 0.000000 0.000000 0.000000 0.042720 0.000000 0.000000
# 5 0.000000 0.000000 0.000000 0.000000 0.204070 0.000000
# 6 0.000000 0.000000 0.000000 0.000000 0.000000 0.026016
#
#
# Mechanical properties :
#
#
# Convention : Reuss Voigt Hill
#
# Bulk Modulus (GPa) = 44.93461 94.09031 69.51246
# Shear Modulus (GPa) = 15.26702 36.86840 26.06771
#
# Velocity S-wave (km/s) = 2.65611 4.12758 3.47072
# Velocity P-wave (km/s) = 5.49281 8.13604 6.94140
#
# Compressibility (1/GPa) = 0.02225456
#
# Stress axis : x y z
#
# Youngs Moduli (GPa) = 109.21396 125.53947 56.67326
#
# Poissons Ratio (x) = 0.74993 0.06441
# Poissons Ratio (y) = 0.65241 -0.04839
# Poissons Ratio (z) = 0.12411 -0.10720
#
# Static dielectric constant tensor:
#      x y z
#    x 1.764690 0.000000 0.000000 
#    y 0.000000 1.742250 0.000000 
#    z 0.000000 0.000000 1.851750 
# 
# From -- ./inp_files/51351.got.cif
#   From: 2010.05.17/outbox.cif.g08.bks.cpg/sg63_26_cif.got.tgz:51351.got - 2010.06.03 15:47:04.
