data_PCOD9470883
_publ_section_title
;
Structure prediction by ZEFSAII (Michael W. Deem and Ramdas Pophale) SiO2 
 PCOD9470883
Probable space group: C M C M
;
_chemical_formula_sum "Si O2"
_cell_formula_units_Z 80
_cell_length_a 27.441035
_cell_length_b 7.401779
_cell_length_c 18.105225
_cell_angle_alpha 90.000000
_cell_angle_beta 90.000000
_cell_angle_gamma 90.000000
_cell_volume 3677.397089
_symmetry_space_group_name_H-M "C M C M"
_symmetry_group_IT_number 63
_symmetry_cell_setting 'orthorhombic'
loop_
_space_group_symop_operation_xyz
x,y,z
-x,-y,1/2+z
x,-y,-z
-x,y,1/2-z
-x,-y,-z
x,y,1/2-z
-x,y,z
x,-y,1/2+z
1/2+x,1/2+y,z
1/2-x,1/2-y,1/2+z
1/2+x,1/2-y,-z
1/2-x,1/2+y,1/2-z
1/2-x,1/2-y,-z
1/2+x,1/2+y,1/2-z
1/2-x,1/2+y,z
1/2+x,1/2-y,1/2+z
loop_
_atom_site_type_symbol
_atom_site_label
_atom_site_fract_x
_atom_site_fract_y
_atom_site_fract_z
Si Si1 0.297408 0.077597 0.166247
Si Si2 0.904997 0.036263 0.585969
Si Si3 0.500000 0.415022 0.337669
Si Si4 0.500000 0.984094 0.910406
Si Si5 0.690392 0.491914 0.834807
Si Si6 0.393387 0.968275 0.586822
O O1 0.293437 0.007471 0.250000
O O2 0.308142 0.290393 0.169235
O O3 0.343119 0.983405 0.127285
O O4 0.243196 0.060971 0.133617
O O5 0.855765 0.944388 0.615118
O O6 0.898797 0.251904 0.595870
O O7 0.951610 0.985801 0.634616
O O8 0.913716 0.000000 0.500000
O O9 0.500000 0.387640 0.250000
O O10 0.500000 0.221771 0.380153
O O11 0.554348 0.052127 0.888181
O O12 0.500000 0.000000 0.000000
O O13 0.685111 0.425583 0.750000
O O14 0.387822 0.000000 0.500000
#
# Coordination Sequence:
#
# PCOD9470883 Si02
#       6
#    16  16   8   8  16  16
#     4   9  18  32  50  71  97 129 168 211 253 299
#     4  10  20  33  51  77 104 132 167 212 259 304
#     4  10  19  33  56  81 103 136 178 216 255 309
#     4   8  16  31  50  75 104 132 162 208 260 303
#     4   9  18  33  50  70  97 130 168 210 253 303
#     4   9  18  32  50  72  99 130 164 204 250 307
#
# _framework density 21.754517
#
# number of rings (size 3 to 8) (size 9 to 14) (size 15 to 20)
#    0.000    2.800    0.000    0.900    0.000    7.200 
#    0.000    4.000    0.000    1.200    0.000   30.800 
#    0.000    0.000    0.000    0.000    0.000    0.000 
#
# Total GULP energy -223000.892438 kJ/mol
# GULP energy per Si atom -5575.022311 kJ/mol
# Density = 2.170500 g / cm^3
# Si number density = 21.754517 Si / 1000 Ang^3
#
#
#
# Elastic Constant Matrix: (Units=GPa)
#
#
# Indices 1 2 3 4 5 6 
#
# 1 199.7136 -12.7212 75.7320 0.0000 0.0000 0.0000
# 2 -12.7212 52.9122 5.0198 0.0000 0.0000 0.0000
# 3 75.7320 5.0198 69.0187 0.0000 0.0000 0.0000
# 4 0.0000 0.0000 0.0000 19.7647 0.0000 0.0000
# 5 0.0000 0.0000 0.0000 0.0000 44.0007 0.0000
# 6 0.0000 0.0000 0.0000 0.0000 0.0000 13.8279
#
#
#
# Elastic Compliance Matrix: (Units=1/GPa)
#
#
# Indices 1 2 3 4 5 6 
#
# 1 0.009067 0.003145 -0.010178 0.000000 0.000000 0.000000
# 2 0.003145 0.020122 -0.004915 0.000000 0.000000 0.000000
# 3 -0.010178 -0.004915 0.026014 0.000000 0.000000 0.000000
# 4 0.000000 0.000000 0.000000 0.050595 0.000000 0.000000
# 5 0.000000 0.000000 0.000000 0.000000 0.022727 0.000000
# 6 0.000000 0.000000 0.000000 0.000000 0.000000 0.072318
#
#
# Mechanical properties :
#
#
# Convention : Reuss Voigt Hill
#
# Bulk Modulus (GPa) = 31.94030 50.85619 41.39825
# Shear Modulus (GPa) = 21.26099 32.42625 26.84362
#
# Velocity S-wave (km/s) = 3.12959 3.86496 3.51655
# Velocity P-wave (km/s) = 5.27002 6.58371 5.96315
#
# Compressibility (1/GPa) = 0.03130841
#
# Stress axis : x y z
#
# Youngs Moduli (GPa) = 110.29136 49.69753 38.44113
#
# Poissons Ratio (x) = -0.15632 0.39124
# Poissons Ratio (y) = -0.34691 0.18893
# Poissons Ratio (z) = 1.12250 0.24426
#
# Static dielectric constant tensor:
#      x y z
#    x 1.865500 0.000000 0.000000 
#    y 0.000000 1.967880 0.000000 
#    z 0.000000 0.000000 1.783970 
# 
# From -- ./inp_files/36531.got.cif
#   From: 2010.05.17/outbox.cif.g08.bks.cpg/sg63_19_cif.got.tgz:36531.got - 2010.06.03 15:47:04.
