data_PCOD9470612
_publ_section_title
;
Structure prediction by ZEFSAII (Michael W. Deem and Ramdas Pophale) SiO2 
 PCOD9470612
Probable space group: C M C M
;
_chemical_formula_sum "Si O2"
_cell_formula_units_Z 96
_cell_length_a 15.690304
_cell_length_b 14.793504
_cell_length_c 20.732227
_cell_angle_alpha 90.000000
_cell_angle_beta 90.000000
_cell_angle_gamma 90.000000
_cell_volume 4812.252059
_symmetry_space_group_name_H-M "C M C M"
_symmetry_group_IT_number 63
_symmetry_cell_setting 'orthorhombic'
loop_
_space_group_symop_operation_xyz
x,y,z
-x,-y,1/2+z
x,-y,-z
-x,y,1/2-z
-x,-y,-z
x,y,1/2-z
-x,y,z
x,-y,1/2+z
1/2+x,1/2+y,z
1/2-x,1/2-y,1/2+z
1/2+x,1/2-y,-z
1/2-x,1/2+y,1/2-z
1/2-x,1/2-y,-z
1/2+x,1/2+y,1/2-z
1/2-x,1/2+y,z
1/2+x,1/2-y,1/2+z
loop_
_atom_site_type_symbol
_atom_site_label
_atom_site_fract_x
_atom_site_fract_y
_atom_site_fract_z
Si Si1 0.403846 0.131443 0.644093
Si Si2 0.618020 0.043917 0.432850
Si Si3 0.707861 0.627634 0.823058
Si Si4 0.597282 0.747860 0.906769
Si Si5 0.099826 0.794305 0.547678
Si Si6 0.818850 0.027565 0.428602
O O1 0.500000 0.152690 0.671029
O O2 0.311000 0.139590 0.677360
O O3 0.392182 0.198570 0.583096
O O4 0.406332 0.027951 0.621386
O O5 0.590953 0.144853 0.417007
O O6 0.719621 0.047453 0.437336
O O7 0.588465 0.000000 0.500000
O O8 0.681327 0.607149 0.750000
O O9 0.659999 0.716033 0.850572
O O10 0.678844 0.549271 0.873696
O O11 0.500000 0.714011 0.896328
O O12 0.634696 0.711365 0.974936
O O13 0.138400 0.876841 0.587522
O O14 0.000000 0.811430 0.540429
O O15 0.853230 0.000000 0.500000
#
# Coordination Sequence:
#
# PCOD9470612 Si02
#       6
#    16  16  16  16  16  16
#     4  10  21  38  61  91 124 157 201 253 305 366
#     4  10  19  32  59  93 128 158 189 244 311 368
#     4  11  25  43  62  87 125 170 210 254 316 381
#     4  11  22  36  60  94 129 162 203 254 311 375
#     4  10  20  34  59  93 123 156 203 262 314 358
#     4  10  20  36  59  90 121 159 209 260 309 363
#
# _framework density 19.949079000000001
#
# number of rings (size 3 to 8) (size 9 to 14) (size 15 to 20)
#    0.000    1.667    3.333    1.500    0.000    3.667 
#    0.000    7.500    0.000    5.000    0.000    0.000 
#    0.000    0.000    0.000    0.000    0.000    0.000 
#
# Total GULP energy -267492.930740 kJ/mol
# GULP energy per Si atom -5572.769390 kJ/mol
# Density = 1.990367 g / cm^3
# Si number density = 19.949079 Si / 1000 Ang^3
#
#
#
# Elastic Constant Matrix: (Units=GPa)
#
#
# Indices 1 2 3 4 5 6 
#
# 1 45.5769 34.7092 36.4318 0.0000 0.0000 0.0000
# 2 34.7092 103.1389 38.2439 0.0000 0.0000 0.0000
# 3 36.4318 38.2439 110.1983 0.0000 0.0000 0.0000
# 4 0.0000 0.0000 0.0000 10.2688 0.0000 0.0000
# 5 0.0000 0.0000 0.0000 0.0000 4.0016 0.0000
# 6 0.0000 0.0000 0.0000 0.0000 0.0000 25.8855
#
#
#
# Elastic Compliance Matrix: (Units=1/GPa)
#
#
# Indices 1 2 3 4 5 6 
#
# 1 0.035569 -0.008734 -0.008728 0.000000 0.000000 0.000000
# 2 -0.008734 0.013272 -0.001719 0.000000 0.000000 0.000000
# 3 -0.008728 -0.001719 0.012557 0.000000 0.000000 0.000000
# 4 0.000000 0.000000 0.000000 0.097382 0.000000 0.000000
# 5 0.000000 0.000000 0.000000 0.000000 0.249901 0.000000
# 6 0.000000 0.000000 0.000000 0.000000 0.000000 0.038632
#
#
# Mechanical properties :
#
#
# Convention : Reuss Voigt Hill
#
# Bulk Modulus (GPa) = 43.40915 53.07599 48.24257
# Shear Modulus (GPa) = 10.13474 17.99978 14.06726
#
# Velocity S-wave (km/s) = 2.25640 3.00707 2.65836
# Velocity P-wave (km/s) = 5.34749 6.22255 5.80154
#
# Compressibility (1/GPa) = 0.02303662
#
# Stress axis : x y z
#
# Youngs Moduli (GPa) = 28.11451 75.34644 79.63948
#
# Poissons Ratio (x) = 0.65804 0.69511
# Poissons Ratio (y) = 0.24554 0.13688
# Poissons Ratio (z) = 0.24539 0.12950
#
# Static dielectric constant tensor:
#      x y z
#    x 1.734510 0.000000 0.000000 
#    y 0.000000 1.706880 0.000000 
#    z 0.000000 0.000000 1.701100 
# 
# From -- ./inp_files/54200.got.cif
#   From: 2010.05.17/outbox.cif.g08.bks.cpg/sg63_28_cif.got.tgz:54200.got - 2010.06.03 15:47:04.
