data_PCOD9470102
_publ_section_title
;
Structure prediction by ZEFSAII (Michael W. Deem and Ramdas Pophale) SiO2 
 PCOD9470102
Probable space group: C M C M
;
_chemical_formula_sum "Si O2"
_cell_formula_units_Z 80
_cell_length_a 18.969306
_cell_length_b 27.079636
_cell_length_c 9.012246
_cell_angle_alpha 90.000000
_cell_angle_beta 90.000000
_cell_angle_gamma 90.000000
_cell_volume 4629.427663
_symmetry_space_group_name_H-M "C M C M"
_symmetry_group_IT_number 63
_symmetry_cell_setting 'orthorhombic'
loop_
_space_group_symop_operation_xyz
x,y,z
-x,-y,1/2+z
x,-y,-z
-x,y,1/2-z
-x,-y,-z
x,y,1/2-z
-x,y,z
x,-y,1/2+z
1/2+x,1/2+y,z
1/2-x,1/2-y,1/2+z
1/2+x,1/2-y,-z
1/2-x,1/2+y,1/2-z
1/2-x,1/2-y,-z
1/2+x,1/2+y,1/2-z
1/2-x,1/2+y,z
1/2+x,1/2-y,1/2+z
loop_
_atom_site_type_symbol
_atom_site_label
_atom_site_fract_x
_atom_site_fract_y
_atom_site_fract_z
Si Si1 0.419397 0.654802 0.571893
Si Si2 0.786421 0.598504 0.425684
Si Si3 0.847901 0.050693 0.927348
Si Si4 0.581162 0.053861 0.573414
Si Si5 0.712620 0.703637 0.425098
O O1 0.414243 0.660581 0.750000
O O2 0.500000 0.663435 0.526758
O O3 0.396501 0.598240 0.538612
O O4 0.363007 0.690447 0.495399
O O5 0.788094 0.587959 0.250000
O O6 0.728488 0.563814 0.504459
O O7 0.861774 0.589056 0.498654
O O8 0.759722 0.654412 0.447167
O O9 0.843038 0.045578 0.750000
O O10 0.873700 0.000000 0.000000
O O11 0.592678 0.050515 0.750000
O O12 0.500000 0.069297 0.548076
O O13 0.589971 0.000000 0.500000
O O14 0.705231 0.711928 0.250000
O O15 0.750000 0.750000 0.500000
#
# Coordination Sequence:
#
# PCOD9470102 Si02
#       5
#    16  16  16  16  16
#     4   9  19  36  56  78 106 139 173 211 256 303
#     4  10  20  34  52  74 100 131 170 213 255 302
#     4  10  19  31  49  74 105 140 175 210 249 296
#     4  10  20  33  50  73 102 136 171 208 253 303
#     4  10  21  37  58  81 103 132 170 213 261 309
#
# _framework density 17.280754000000002
#
# number of rings (size 3 to 8) (size 9 to 14) (size 15 to 20)
#    0.000    2.200    0.000    3.000    0.000    5.200 
#    0.000    1.000    0.000    1.200    0.000    0.000 
#    0.000    0.000    0.000    0.000    0.000    0.000 
#
# Total GULP energy -223302.892128 kJ/mol
# GULP energy per Si atom -5582.572303 kJ/mol
# Density = 1.724142 g / cm^3
# Si number density = 17.280754 Si / 1000 Ang^3
#
#
#
# Elastic Constant Matrix: (Units=GPa)
#
#
# Indices 1 2 3 4 5 6 
#
# 1 153.9438 65.1226 76.5067 0.0000 0.0000 0.0000
# 2 65.1226 88.5290 57.6164 0.0000 0.0000 0.0000
# 3 76.5067 57.6164 82.7746 0.0000 0.0000 0.0000
# 4 0.0000 0.0000 0.0000 32.6930 0.0000 0.0000
# 5 0.0000 0.0000 0.0000 0.0000 29.2546 0.0000
# 6 0.0000 0.0000 0.0000 0.0000 0.0000 10.7745
#
#
#
# Elastic Compliance Matrix: (Units=1/GPa)
#
#
# Indices 1 2 3 4 5 6 
#
# 1 0.012450 -0.003052 -0.009383 0.000000 0.000000 0.000000
# 2 -0.003052 0.021399 -0.012074 0.000000 0.000000 0.000000
# 3 -0.009383 -0.012074 0.029158 0.000000 0.000000 0.000000
# 4 0.000000 0.000000 0.000000 0.030588 0.000000 0.000000
# 5 0.000000 0.000000 0.000000 0.000000 0.034183 0.000000
# 6 0.000000 0.000000 0.000000 0.000000 0.000000 0.092812
#
#
# Mechanical properties :
#
#
# Convention : Reuss Voigt Hill
#
# Bulk Modulus (GPa) = 71.48635 80.41543 75.95089
# Shear Modulus (GPa) = 18.23020 22.94454 20.58737
#
# Velocity S-wave (km/s) = 3.25151 3.64778 3.45533
# Velocity P-wave (km/s) = 7.45345 8.02356 7.74375
#
# Compressibility (1/GPa) = 0.01398868
#
# Stress axis : x y z
#
# Youngs Moduli (GPa) = 80.32115 46.73178 34.29570
#
# Poissons Ratio (x) = 0.14261 0.32180
# Poissons Ratio (y) = 0.24511 0.41410
# Poissons Ratio (z) = 0.75367 0.56426
#
# Static dielectric constant tensor:
#      x y z
#    x 1.577760 0.000000 0.000000 
#    y 0.000000 1.569470 0.000000 
#    z 0.000000 0.000000 1.573760 
# 
# From -- ./inp_files/6363.got.cif
#   From: 2010.05.17/outbox.cif.g08.bks.cpg/sg63_4_cif.got.tgz:6363.got - 2010.06.03 15:47:04.
