data_PCOD9470544
_publ_section_title
;
Structure prediction by ZEFSAII (Michael W. Deem and Ramdas Pophale) SiO2 
 PCOD9470544
Probable space group: C M C M
;
_chemical_formula_sum "Si O2"
_cell_formula_units_Z 128
_cell_length_a 17.802127
_cell_length_b 19.034309
_cell_length_c 18.919717
_cell_angle_alpha 90.000000
_cell_angle_beta 90.000000
_cell_angle_gamma 90.000000
_cell_volume 6410.968548
_symmetry_space_group_name_H-M "C M C M"
_symmetry_group_IT_number 63
_symmetry_cell_setting 'orthorhombic'
loop_
_space_group_symop_operation_xyz
x,y,z
-x,-y,1/2+z
x,-y,-z
-x,y,1/2-z
-x,-y,-z
x,y,1/2-z
-x,y,z
x,-y,1/2+z
1/2+x,1/2+y,z
1/2-x,1/2-y,1/2+z
1/2+x,1/2-y,-z
1/2-x,1/2+y,1/2-z
1/2-x,1/2-y,-z
1/2+x,1/2+y,1/2-z
1/2-x,1/2+y,z
1/2+x,1/2-y,1/2+z
loop_
_atom_site_type_symbol
_atom_site_label
_atom_site_fract_x
_atom_site_fract_y
_atom_site_fract_z
Si Si1 0.082144 0.481190 0.830234
Si Si2 0.086490 0.768340 0.360667
Si Si3 0.311645 0.607113 0.902133
Si Si4 0.154173 0.564192 0.553956
Si Si5 0.083851 0.020115 0.083564
Si Si6 0.085284 0.708970 0.519352
Si Si7 0.694666 0.855055 0.672352
Si Si8 0.830086 0.841126 0.934974
O O1 0.086446 0.509481 0.750000
O O2 0.091506 0.536771 0.892141
O O3 0.149763 0.426916 0.839380
O O4 0.000000 0.446046 0.836959
O O5 0.143182 0.834446 0.358124
O O6 0.081590 0.744931 0.442648
O O7 0.130473 0.704180 0.326193
O O8 0.000000 0.781057 0.337331
O O9 0.224228 0.588468 0.897601
O O10 0.356298 0.535248 0.888531
O O11 0.315750 0.634052 0.984117
O O12 0.174011 0.500000 0.500000
O O13 0.123264 0.632855 0.514475
O O14 0.000000 0.010507 0.112022
O O15 0.112491 0.099315 0.092226
O O16 0.080560 0.000000 0.000000
O O17 0.134570 0.763649 0.564441
O O18 0.000000 0.702780 0.546002
O O19 0.731466 0.857184 0.750000
O O20 0.754968 0.842206 0.611274
#
# Coordination Sequence:
#
# PCOD9470544 Si02
#       8
#    16  16  16  16  16  16  16  16
#     4  10  22  39  56  76 106 143 180 221 271 323
#     4  10  20  35  55  80 110 140 173 219 274 326
#     4  10  19  32  53  83 113 137 168 216 275 330
#     4  12  22  34  55  82 111 143 182 226 270 319
#     4   9  16  28  51  81 109 138 171 207 256 320
#     4  10  21  35  55  83 111 141 177 221 276 329
#     4  11  22  36  56  79 105 143 187 224 262 316
#     4  10  19  35  55  78 111 143 175 221 272 320
#
# _framework density 19.965782000000001
#
# number of rings (size 3 to 8) (size 9 to 14) (size 15 to 20)
#    0.000    1.750    0.000    6.375    0.000    7.750 
#    0.000    2.500    0.000    3.000    0.000    0.000 
#    0.000    0.000    0.000    0.000    0.000    0.000 
#
# Total GULP energy -357049.099068 kJ/mol
# GULP energy per Si atom -5578.892173 kJ/mol
# Density = 1.992034 g / cm^3
# Si number density = 19.965782 Si / 1000 Ang^3
#
#
#
# Elastic Constant Matrix: (Units=GPa)
#
#
# Indices 1 2 3 4 5 6 
#
# 1 112.2352 23.9544 18.9419 0.0000 0.0000 0.0000
# 2 23.9544 97.0142 9.6945 0.0000 0.0000 0.0000
# 3 18.9419 9.6945 38.5935 0.0000 0.0000 0.0000
# 4 0.0000 0.0000 0.0000 7.8349 0.0000 0.0000
# 5 0.0000 0.0000 0.0000 0.0000 3.0686 0.0000
# 6 0.0000 0.0000 0.0000 0.0000 0.0000 -202.6419
#
#
#
# Elastic Compliance Matrix: (Units=1/GPa)
#
#
# Indices 1 2 3 4 5 6 
#
# 1 0.010097 -0.002049 -0.004441 0.000000 0.000000 0.000000
# 2 -0.002049 0.010989 -0.001755 0.000000 0.000000 0.000000
# 3 -0.004441 -0.001755 0.028531 0.000000 0.000000 0.000000
# 4 0.000000 0.000000 0.000000 0.127634 0.000000 0.000000
# 5 0.000000 0.000000 0.000000 0.000000 0.325882 0.000000
# 6 0.000000 0.000000 0.000000 0.000000 0.000000 -0.004935
#
#
# Mechanical properties :
#
#
# Convention : Reuss Voigt Hill
#
# Bulk Modulus (GPa) = 30.18602 39.22493 34.70548
# Shear Modulus (GPa) = 9.51058 -25.33088 -7.91015
#
# Velocity S-wave (km/s) = 2.18490 -3.56577 -1.99260
# Velocity P-wave (km/s) = 4.63861 1.65403 3.48228
#
# Compressibility (1/GPa) = 0.03312792
#
# Stress axis : x y z
#
# Youngs Moduli (GPa) = 99.04219 90.99926 35.04912
#
# Poissons Ratio (x) = 0.18648 0.15564
# Poissons Ratio (y) = 0.20297 0.06150
# Poissons Ratio (z) = 0.43982 0.15967
#
# Static dielectric constant tensor:
#      x y z
#    x 1.719560 0.000000 0.000000 
#    y 0.000000 1.707640 0.000000 
#    z 0.000000 0.000000 1.725820 
# 
# From -- ./inp_files/64057.got.cif
#   From: 2010.05.17/outbox.cif.g08.bks.cpg/sg63_33_cif.got.tgz:64057.got - 2010.06.03 15:47:04.
