data_PCOD9470532
_publ_section_title
;
Structure prediction by ZEFSAII (Michael W. Deem and Ramdas Pophale) SiO2 
 PCOD9470532
Probable space group: C M C M
;
_chemical_formula_sum "Si O2"
_cell_formula_units_Z 64
_cell_length_a 7.397109
_cell_length_b 24.550984
_cell_length_c 15.975979
_cell_angle_alpha 90.000000
_cell_angle_beta 90.000000
_cell_angle_gamma 90.000000
_cell_volume 2901.338510
_symmetry_space_group_name_H-M "C M C M"
_symmetry_group_IT_number 63
_symmetry_cell_setting 'orthorhombic'
loop_
_space_group_symop_operation_xyz
x,y,z
-x,-y,1/2+z
x,-y,-z
-x,y,1/2-z
-x,-y,-z
x,y,1/2-z
-x,y,z
x,-y,1/2+z
1/2+x,1/2+y,z
1/2-x,1/2-y,1/2+z
1/2+x,1/2-y,-z
1/2-x,1/2+y,1/2-z
1/2-x,1/2-y,-z
1/2+x,1/2+y,1/2-z
1/2-x,1/2+y,z
1/2+x,1/2-y,1/2+z
loop_
_atom_site_type_symbol
_atom_site_label
_atom_site_fract_x
_atom_site_fract_y
_atom_site_fract_z
Si Si1 0.284882 0.173170 0.750000
Si Si2 0.720331 0.626598 0.098155
Si Si3 0.721496 0.702654 0.250000
Si Si4 0.786896 0.893740 0.417752
Si Si5 0.779501 0.994351 0.846403
O O1 0.500000 0.175552 0.750000
O O2 0.216728 0.235050 0.750000
O O3 0.232405 0.141025 0.833724
O O4 0.500000 0.628502 0.101404
O O5 0.780551 0.669829 0.167352
O O6 0.775064 0.565373 0.123772
O O7 0.781569 0.634371 0.002439
O O8 0.500000 0.702847 0.250000
O O9 0.714664 0.954551 0.400778
O O10 0.000000 0.901177 0.432102
O O11 0.726209 0.002848 0.750000
O O12 0.000000 0.994714 0.848366
#
# Coordination Sequence:
#
# PCOD9470532 Si02
#       5
#     8  16   8  16  16
#     4  11  23  36  49  67  99 141 178 207 240 288
#     4   9  16  28  50  78 105 129 158 204 256 300
#     4   9  18  32  47  69 101 137 172 203 242 294
#     4  10  19  32  53  81 104 125 161 208 255 299
#     4   9  14  24  47  79 108 126 149 197 255 303
#
# _framework density 22.058782000000001
#
# number of rings (size 3 to 8) (size 9 to 14) (size 15 to 20)
#    0.000    2.500    2.500    1.125    0.000    4.000 
#    0.000    0.000    0.000    4.500    0.000    3.500 
#    0.000    0.000    0.000    0.000    0.000    0.000 
#
# Total GULP energy -178741.417845 kJ/mol
# GULP energy per Si atom -5585.669308 kJ/mol
# Density = 2.200858 g / cm^3
# Si number density = 22.058782 Si / 1000 Ang^3
#
#
#
# Elastic Constant Matrix: (Units=GPa)
#
#
# Indices 1 2 3 4 5 6 
#
# 1 68.4949 -15.6639 -17.2632 0.0000 0.0000 0.0000
# 2 -15.6639 116.4123 23.4746 0.0000 0.0000 0.0000
# 3 -17.2632 23.4746 105.2329 0.0000 0.0000 0.0000
# 4 0.0000 0.0000 0.0000 5.7679 0.0000 0.0000
# 5 0.0000 0.0000 0.0000 0.0000 -15.5572 0.0000
# 6 0.0000 0.0000 0.0000 0.0000 0.0000 1.8908
#
#
#
# Elastic Compliance Matrix: (Units=1/GPa)
#
#
# Indices 1 2 3 4 5 6 
#
# 1 0.015526 0.001650 0.002179 0.000000 0.000000 0.000000
# 2 0.001650 0.009170 -0.001775 0.000000 0.000000 0.000000
# 3 0.002179 -0.001775 0.010256 0.000000 0.000000 0.000000
# 4 0.000000 0.000000 0.000000 0.173372 0.000000 0.000000
# 5 0.000000 0.000000 0.000000 0.000000 -0.064279 0.000000
# 6 0.000000 0.000000 0.000000 0.000000 0.000000 0.528878
#
#
# Mechanical properties :
#
#
# Convention : Reuss Voigt Hill
#
# Bulk Modulus (GPa) = 25.60175 30.13723 27.86949
# Shear Modulus (GPa) = 7.33314 18.39314 12.86314
#
# Velocity S-wave (km/s) = 1.82526 2.89073 2.41743
# Velocity P-wave (km/s) = 4.00917 4.98334 4.52256
#
# Compressibility (1/GPa) = 0.03905982
#
# Stress axis : x y z
#
# Youngs Moduli (GPa) = 64.40774 109.05058 97.50253
#
# Poissons Ratio (x) = -0.17990 -0.21246
# Poissons Ratio (y) = -0.10625 0.17306
# Poissons Ratio (z) = -0.14035 0.19356
#
# Static dielectric constant tensor:
#      x y z
#    x 1.874990 0.000000 0.000000 
#    y 0.000000 1.758680 0.000000 
#    z 0.000000 0.000000 1.734430 
# 
# From -- ./inp_files/27583.got.cif
#   From: 2010.05.17/outbox.cif.g08.bks.cpg/sg63_14_cif.got.tgz:27583.got - 2010.06.03 15:47:04.
