data_PCOD9470430
_publ_section_title
;
Structure prediction by ZEFSAII (Michael W. Deem and Ramdas Pophale) SiO2 
 PCOD9470430
Probable space group: C M C M
;
_chemical_formula_sum "Si O2"
_cell_formula_units_Z 96
_cell_length_a 22.360009
_cell_length_b 8.741069
_cell_length_c 23.010675
_cell_angle_alpha 90.000000
_cell_angle_beta 90.000000
_cell_angle_gamma 90.000000
_cell_volume 4497.445208
_symmetry_space_group_name_H-M "C M C M"
_symmetry_group_IT_number 63
_symmetry_cell_setting 'orthorhombic'
loop_
_space_group_symop_operation_xyz
x,y,z
-x,-y,1/2+z
x,-y,-z
-x,y,1/2-z
-x,-y,-z
x,y,1/2-z
-x,y,z
x,-y,1/2+z
1/2+x,1/2+y,z
1/2-x,1/2-y,1/2+z
1/2+x,1/2-y,-z
1/2-x,1/2+y,1/2-z
1/2-x,1/2-y,-z
1/2+x,1/2+y,1/2-z
1/2-x,1/2+y,z
1/2+x,1/2-y,1/2+z
loop_
_atom_site_type_symbol
_atom_site_label
_atom_site_fract_x
_atom_site_fract_y
_atom_site_fract_z
Si Si1 0.811240 0.880602 0.182125
Si Si2 0.936067 0.181676 0.817311
Si Si3 0.690607 0.725075 0.151288
Si Si4 0.063971 0.818376 0.661003
Si Si5 0.434533 0.324791 0.979851
Si Si6 0.688486 0.172934 0.980113
O O1 0.822215 0.920751 0.250000
O O2 0.869282 0.785647 0.159811
O O3 0.750462 0.786247 0.180137
O O4 0.805621 0.040076 0.147605
O O5 0.937218 0.230732 0.750000
O O6 0.000000 0.231200 0.844368
O O7 0.936540 0.995854 0.819840
O O8 0.626155 0.755095 0.180789
O O9 0.688275 0.804305 0.088932
O O10 0.066254 0.820358 0.590563
O O11 0.000000 0.749855 0.678721
O O12 0.500000 0.261602 0.998167
O O13 0.374109 0.245774 0.001788
O O14 0.432605 0.500000 0.000000
O O15 0.750000 0.250000 0.000000
O O16 0.689864 0.000000 0.000000
#
# Coordination Sequence:
#
# PCOD9470430 Si02
#       6
#    16  16  16  16  16  16
#     4  10  19  32  52  75 100 129 163 206 256 309
#     4   8  14  25  43  68  93 118 153 195 237 284
#     4  10  20  34  51  74 101 132 168 211 257 306
#     4   8  15  29  49  71  96 128 165 205 247 293
#     4   9  18  33  53  76 102 134 174 219 265 315
#     4  11  22  35  52  74 104 142 181 223 267 315
#
# _framework density 21.345451000000001
#
# number of rings (size 3 to 8) (size 9 to 14) (size 15 to 20)
#    0.000    2.667    0.000    2.000    0.000    3.667 
#    0.000    0.000    0.000    1.000    0.000    0.000 
#    0.000    0.000    0.000    0.000    0.000    0.000 
#
# Total GULP energy -267405.813356 kJ/mol
# GULP energy per Si atom -5570.954445 kJ/mol
# Density = 2.129687 g / cm^3
# Si number density = 21.345451 Si / 1000 Ang^3
#
#
#
# Elastic Constant Matrix: (Units=GPa)
#
#
# Indices 1 2 3 4 5 6 
#
# 1 277.1680 57.4659 22.4886 0.0000 0.0000 0.0000
# 2 57.4659 38.3994 2.6801 0.0000 0.0000 0.0000
# 3 22.4886 2.6801 46.4801 0.0000 0.0000 0.0000
# 4 0.0000 0.0000 0.0000 13.8224 0.0000 0.0000
# 5 0.0000 0.0000 0.0000 0.0000 18.0078 0.0000
# 6 0.0000 0.0000 0.0000 0.0000 0.0000 32.9610
#
#
#
# Elastic Compliance Matrix: (Units=1/GPa)
#
#
# Indices 1 2 3 4 5 6 
#
# 1 0.005441 -0.007991 -0.002172 0.000000 0.000000 0.000000
# 2 -0.007991 0.037883 0.001682 0.000000 0.000000 0.000000
# 3 -0.002172 0.001682 0.022468 0.000000 0.000000 0.000000
# 4 0.000000 0.000000 0.000000 0.072346 0.000000 0.000000
# 5 0.000000 0.000000 0.000000 0.000000 0.055531 0.000000
# 6 0.000000 0.000000 0.000000 0.000000 0.000000 0.030339
#
#
# Mechanical properties :
#
#
# Convention : Reuss Voigt Hill
#
# Bulk Modulus (GPa) = 20.47875 58.59073 39.53474
# Shear Modulus (GPa) = 19.43652 31.58577 25.51114
#
# Velocity S-wave (km/s) = 3.02084 3.85092 3.46085
# Velocity P-wave (km/s) = 4.66713 6.87613 5.87636
#
# Compressibility (1/GPa) = 0.04883111
#
# Stress axis : x y z
#
# Youngs Moduli (GPa) = 183.79315 26.39685 44.50700
#
# Poissons Ratio (x) = 0.21093 0.09666
# Poissons Ratio (y) = 1.46867 -0.07486
# Poissons Ratio (z) = 0.39915 -0.04440
#
# Static dielectric constant tensor:
#      x y z
#    x 1.908350 0.000000 0.000000 
#    y 0.000000 1.719510 0.000000 
#    z 0.000000 0.000000 1.836000 
# 
# From -- ./inp_files/70288.got.cif
#   From: 2010.05.17/outbox.cif.g08.bks.cpg/sg63_36_cif.got.tgz:70288.got - 2010.06.03 15:47:04.
