data_PCOD9470751
_publ_section_title
;
Structure prediction by ZEFSAII (Michael W. Deem and Ramdas Pophale) SiO2 
 PCOD9470751
Probable space group: C M C M
;
_chemical_formula_sum "Si O2"
_cell_formula_units_Z 120
_cell_length_a 28.531864
_cell_length_b 28.420619
_cell_length_c 8.644857
_cell_angle_alpha 90.000000
_cell_angle_beta 90.000000
_cell_angle_gamma 90.000000
_cell_volume 7010.056068
_symmetry_space_group_name_H-M "C M C M"
_symmetry_group_IT_number 63
_symmetry_cell_setting 'orthorhombic'
loop_
_space_group_symop_operation_xyz
x,y,z
-x,-y,1/2+z
x,-y,-z
-x,y,1/2-z
-x,-y,-z
x,y,1/2-z
-x,y,z
x,-y,1/2+z
1/2+x,1/2+y,z
1/2-x,1/2-y,1/2+z
1/2+x,1/2-y,-z
1/2-x,1/2+y,1/2-z
1/2-x,1/2-y,-z
1/2+x,1/2+y,1/2-z
1/2-x,1/2+y,z
1/2+x,1/2-y,1/2+z
loop_
_atom_site_type_symbol
_atom_site_label
_atom_site_fract_x
_atom_site_fract_y
_atom_site_fract_z
Si Si1 0.330466 0.949136 0.935547
Si Si2 0.000000 0.552330 0.564115
Si Si3 0.054423 0.285759 0.935178
Si Si4 0.780963 0.707348 0.936029
Si Si5 0.864450 0.768512 0.935794
Si Si6 0.802152 0.146267 0.564233
Si Si7 0.220820 0.949812 0.565092
Si Si8 0.910577 0.615012 0.564171
O O1 0.333353 0.949601 0.750000
O O2 0.275822 0.944469 0.981631
O O3 0.362796 0.907718 0.001254
O O4 0.346863 0.000000 0.000000
O O5 0.000000 0.500000 0.500000
O O6 0.953461 0.580684 0.516940
O O7 0.000000 0.550446 0.750000
O O8 0.057050 0.286783 0.750000
O O9 0.000000 0.283311 0.981753
O O10 0.084607 0.242191 0.998398
O O11 0.076308 0.333806 0.001542
O O12 0.780929 0.707179 0.750000
O O13 0.832774 0.722779 0.984116
O O14 0.750753 0.662502 0.985900
O O15 0.750000 0.750000 0.000000
O O16 0.865115 0.770832 0.750000
O O17 0.838319 0.814881 0.999499
O O18 0.804476 0.146952 0.750000
O O19 0.807920 0.094034 0.500940
O O20 0.218915 0.949885 0.750000
O O21 0.204950 0.000000 0.500000
O O22 0.907976 0.617087 0.750000
#
# Coordination Sequence:
#
# PCOD9470751 Si02
#       8
#    16   8  16  16  16  16  16  16
#     4  10  21  36  52  74 100 133 176 220 266 316
#     4  10  22  36  52  72  92 120 162 218 277 328
#     4  11  24  40  56  76 103 136 175 221 273 329
#     4   8  16  29  46  72 101 132 166 205 251 299
#     4  10  20  35  55  79 105 137 176 218 265 318
#     4  10  19  33  53  78 109 142 176 215 260 313
#     4  10  21  36  53  76 107 143 179 217 259 309
#     4  11  22  37  54  72  96 129 171 219 273 328
#
# _framework density 17.118265999999998
#
# number of rings (size 3 to 8) (size 9 to 14) (size 15 to 20)
#    0.000    2.000    0.667    2.800    1.867    5.600 
#    0.000    0.000    0.000    0.000    0.000    0.000 
#    0.000    0.533    0.000    2.000    0.000    3.067 
#
# Total GULP energy -334811.532606 kJ/mol
# GULP energy per Si atom -5580.192210 kJ/mol
# Density = 1.707930 g / cm^3
# Si number density = 17.118266 Si / 1000 Ang^3
#
#
#
# Elastic Constant Matrix: (Units=GPa)
#
#
# Indices 1 2 3 4 5 6 
#
# 1 74.5463 53.7930 27.1122 0.0000 0.0000 0.0000
# 2 53.7930 125.9733 33.7169 0.0000 0.0000 0.0000
# 3 27.1122 33.7169 37.8314 0.0000 0.0000 0.0000
# 4 0.0000 0.0000 0.0000 27.9874 0.0000 0.0000
# 5 0.0000 0.0000 0.0000 0.0000 20.4460 0.0000
# 6 0.0000 0.0000 0.0000 0.0000 0.0000 26.1165
#
#
#
# Elastic Compliance Matrix: (Units=1/GPa)
#
#
# Indices 1 2 3 4 5 6 
#
# 1 0.021756 -0.006720 -0.009602 0.000000 0.000000 0.000000
# 2 -0.006720 0.012501 -0.006325 0.000000 0.000000 0.000000
# 3 -0.009602 -0.006325 0.038952 0.000000 0.000000 0.000000
# 4 0.000000 0.000000 0.000000 0.035730 0.000000 0.000000
# 5 0.000000 0.000000 0.000000 0.000000 0.048909 0.000000
# 6 0.000000 0.000000 0.000000 0.000000 0.000000 0.038290
#
#
# Mechanical properties :
#
#
# Convention : Reuss Voigt Hill
#
# Bulk Modulus (GPa) = 35.82509 51.95502 43.89006
# Shear Modulus (GPa) = 19.94108 23.15857 21.54983
#
# Velocity S-wave (km/s) = 3.41677 3.68211 3.55192
# Velocity P-wave (km/s) = 6.04476 6.96375 6.52047
#
# Compressibility (1/GPa) = 0.02791340
#
# Stress axis : x y z
#
# Youngs Moduli (GPa) = 45.96392 79.99513 25.67263
#
# Poissons Ratio (x) = 0.53758 0.24652
# Poissons Ratio (y) = 0.30889 0.16238
# Poissons Ratio (z) = 0.44137 0.50598
#
# Static dielectric constant tensor:
#      x y z
#    x 1.590100 0.000000 0.000000 
#    y 0.000000 1.576340 0.000000 
#    z 0.000000 0.000000 1.572370 
# 
# From -- ./inp_files/13153.got.cif
#   From: 2010.05.17/outbox.cif.g08.bks.cpg/sg63_7_cif.got.tgz:13153.got - 2010.06.03 15:47:04.
