data_PCOD9470455
_publ_section_title
;
Structure prediction by ZEFSAII (Michael W. Deem and Ramdas Pophale) SiO2 
 PCOD9470455
Probable space group: C M C M
;
_chemical_formula_sum "Si O2"
_cell_formula_units_Z 96
_cell_length_a 7.656364
_cell_length_b 30.205916
_cell_length_c 20.072996
_cell_angle_alpha 90.000000
_cell_angle_beta 90.000000
_cell_angle_gamma 90.000000
_cell_volume 4642.231359
_symmetry_space_group_name_H-M "C M C M"
_symmetry_group_IT_number 63
_symmetry_cell_setting 'orthorhombic'
loop_
_space_group_symop_operation_xyz
x,y,z
-x,-y,1/2+z
x,-y,-z
-x,y,1/2-z
-x,-y,-z
x,y,1/2-z
-x,y,z
x,-y,1/2+z
1/2+x,1/2+y,z
1/2-x,1/2-y,1/2+z
1/2+x,1/2-y,-z
1/2-x,1/2+y,1/2-z
1/2-x,1/2-y,-z
1/2+x,1/2+y,1/2-z
1/2-x,1/2+y,z
1/2+x,1/2-y,1/2+z
loop_
_atom_site_type_symbol
_atom_site_label
_atom_site_fract_x
_atom_site_fract_y
_atom_site_fract_z
Si Si1 0.711848 0.393032 0.675897
Si Si2 0.210887 0.934226 0.044925
Si Si3 0.295749 0.810291 0.587833
Si Si4 0.712489 0.524671 0.402234
Si Si5 0.204791 0.727383 0.825055
Si Si6 0.292666 0.832042 0.442612
O O1 0.770093 0.380824 0.750000
O O2 0.500000 0.391760 0.674656
O O3 0.774836 0.358158 0.621568
O O4 0.767782 0.442615 0.656235
O O5 0.271476 0.884842 0.058876
O O6 0.000000 0.933058 0.045576
O O7 0.270174 0.973724 0.094114
O O8 0.263039 0.951154 0.971347
O O9 0.500000 0.799518 0.583608
O O10 0.215554 0.774258 0.637169
O O11 0.221457 0.813040 0.512816
O O12 0.500000 0.523514 0.401624
O O13 0.278957 0.728739 0.750000
O O14 0.281274 0.691865 0.877219
O O15 0.000000 0.716765 0.818028
O O16 0.500000 0.822927 0.444355
#
# Coordination Sequence:
#
# PCOD9470455 Si02
#       6
#    16  16  16  16  16  16
#     4  10  19  32  52  76 105 142 179 213 255 312
#     4   9  16  30  54  77 101 134 172 214 254 296
#     4  11  22  35  53  79 108 134 166 217 268 309
#     4   8  15  29  49  75 103 133 172 212 250 295
#     4  10  22  40  58  74  99 138 178 213 254 312
#     4  10  21  36  54  80 107 133 171 216 261 308
#
# _framework density 20.679711000000001
#
# number of rings (size 3 to 8) (size 9 to 14) (size 15 to 20)
#    0.000    2.333    1.667    2.500    0.000    4.000 
#    0.000    3.333    0.000    1.000    0.000    0.000 
#    0.000    0.000    0.000    0.000    0.000    0.000 
#
# Total GULP energy -267809.030553 kJ/mol
# GULP energy per Si atom -5579.354803 kJ/mol
# Density = 2.063264 g / cm^3
# Si number density = 20.679711 Si / 1000 Ang^3
#
#
#
# Elastic Constant Matrix: (Units=GPa)
#
#
# Indices 1 2 3 4 5 6 
#
# 1 37.4615 -12.3676 12.3195 0.0000 0.0000 0.0000
# 2 -12.3676 90.4340 80.5806 0.0000 0.0000 0.0000
# 3 12.3195 80.5806 152.2078 0.0000 0.0000 0.0000
# 4 0.0000 0.0000 0.0000 24.0512 0.0000 0.0000
# 5 0.0000 0.0000 0.0000 0.0000 8.7903 0.0000
# 6 0.0000 0.0000 0.0000 0.0000 0.0000 15.1940
#
#
#
# Elastic Compliance Matrix: (Units=1/GPa)
#
#
# Indices 1 2 3 4 5 6 
#
# 1 0.034488 0.013637 -0.010011 0.000000 0.000000 0.000000
# 2 0.013637 0.026324 -0.015040 0.000000 0.000000 0.000000
# 3 -0.010011 -0.015040 0.015343 0.000000 0.000000 0.000000
# 4 0.000000 0.000000 0.000000 0.041578 0.000000 0.000000
# 5 0.000000 0.000000 0.000000 0.000000 0.113762 0.000000
# 6 0.000000 0.000000 0.000000 0.000000 0.000000 0.065816
#
#
# Mechanical properties :
#
#
# Convention : Reuss Voigt Hill
#
# Bulk Modulus (GPa) = 18.75246 49.01874 33.88560
# Shear Modulus (GPa) = 14.79666 22.91181 18.85424
#
# Velocity S-wave (km/s) = 2.67782 3.33218 3.02276
# Velocity P-wave (km/s) = 4.31841 6.20965 5.34829
#
# Compressibility (1/GPa) = 0.05332633
#
# Stress axis : x y z
#
# Youngs Moduli (GPa) = 28.99545 37.98826 65.17820
#
# Poissons Ratio (x) = -0.51803 0.65249
# Poissons Ratio (y) = -0.39540 0.98028
# Poissons Ratio (z) = 0.29027 0.57134
#
# Static dielectric constant tensor:
#      x y z
#    x 1.794680 0.000000 0.000000 
#    y 0.000000 1.723940 0.000000 
#    z 0.000000 0.000000 1.755220 
# 
# From -- ./inp_files/51290.got.cif
#   From: 2010.05.17/outbox.cif.g08.bks.cpg/sg63_26_cif.got.tgz:51290.got - 2010.06.03 15:47:04.
