data_PCOD9470026
_publ_section_title
;
Structure prediction by ZEFSAII (Michael W. Deem and Ramdas Pophale) SiO2 
 PCOD9470026
Probable space group: C M C M
;
_chemical_formula_sum "Si O2"
_cell_formula_units_Z 96
_cell_length_a 23.793676
_cell_length_b 13.182070
_cell_length_c 19.127933
_cell_angle_alpha 90.000000
_cell_angle_beta 90.000000
_cell_angle_gamma 90.000000
_cell_volume 5999.474322
_symmetry_space_group_name_H-M "C M C M"
_symmetry_group_IT_number 63
_symmetry_cell_setting 'orthorhombic'
loop_
_space_group_symop_operation_xyz
x,y,z
-x,-y,1/2+z
x,-y,-z
-x,y,1/2-z
-x,-y,-z
x,y,1/2-z
-x,y,z
x,-y,1/2+z
1/2+x,1/2+y,z
1/2-x,1/2-y,1/2+z
1/2+x,1/2-y,-z
1/2-x,1/2+y,1/2-z
1/2-x,1/2-y,-z
1/2+x,1/2+y,1/2-z
1/2-x,1/2+y,z
1/2+x,1/2-y,1/2+z
loop_
_atom_site_type_symbol
_atom_site_label
_atom_site_fract_x
_atom_site_fract_y
_atom_site_fract_z
Si Si1 0.669796 0.662480 0.671133
Si Si2 0.284874 0.956034 0.331786
Si Si3 0.435657 0.341936 0.953544
Si Si4 0.936128 0.938134 0.108579
Si Si5 0.173704 0.287114 0.429266
Si Si6 0.284734 0.841463 0.921463
O O1 0.673374 0.702858 0.750000
O O2 0.720459 0.582496 0.662341
O O3 0.611112 0.607962 0.657491
O O4 0.680767 0.751986 0.616507
O O5 0.297261 0.973222 0.250000
O O6 0.320686 0.863956 0.364712
O O7 0.291492 0.056118 0.378143
O O8 0.500000 0.305894 0.943575
O O9 0.427564 0.442552 0.906369
O O10 0.387492 0.260902 0.938427
O O11 0.431082 0.382304 0.033274
O O12 0.000000 0.923438 0.133574
O O13 0.220017 0.197235 0.421579
O O14 0.193567 0.346519 0.499130
#
# Coordination Sequence:
#
# PCOD9470026 Si02
#       6
#    16  16  16  16  16  16
#     4  10  19  31  48  72 103 135 164 200 251 302
#     4  10  21  34  49  72 103 135 165 204 255 301
#     4   9  17  31  52  75 100 128 163 208 252 290
#     4   9  17  30  49  74 103 132 161 199 249 301
#     4  10  19  32  53  78  97 129 170 209 244 297
#     4  10  19  32  50  75 102 129 165 209 248 296
#
# _framework density 16.001401999999999
#
# number of rings (size 3 to 8) (size 9 to 14) (size 15 to 20)
#    0.000    2.333    1.667    3.000    0.000    1.000 
#    0.000    0.833    0.000    4.500    0.000    0.000 
#    0.000    0.000    0.000    0.000    0.000    0.000 
#
# Total GULP energy -267655.784332 kJ/mol
# GULP energy per Si atom -5576.162174 kJ/mol
# Density = 1.596498 g / cm^3
# Si number density = 16.001402 Si / 1000 Ang^3
#
#
#
# Elastic Constant Matrix: (Units=GPa)
#
#
# Indices 1 2 3 4 5 6 
#
# 1 95.8951 46.2470 25.8151 0.0000 0.0000 0.0000
# 2 46.2470 63.4178 24.9186 0.0000 0.0000 0.0000
# 3 25.8151 24.9186 53.0099 0.0000 0.0000 0.0000
# 4 0.0000 0.0000 0.0000 21.1972 0.0000 0.0000
# 5 0.0000 0.0000 0.0000 0.0000 18.2403 0.0000
# 6 0.0000 0.0000 0.0000 0.0000 0.0000 15.4649
#
#
#
# Elastic Compliance Matrix: (Units=1/GPa)
#
#
# Indices 1 2 3 4 5 6 
#
# 1 0.016442 -0.010848 -0.002908 0.000000 0.000000 0.000000
# 2 -0.010848 0.026498 -0.007173 0.000000 0.000000 0.000000
# 3 -0.002908 -0.007173 0.023652 0.000000 0.000000 0.000000
# 4 0.000000 0.000000 0.000000 0.047176 0.000000 0.000000
# 5 0.000000 0.000000 0.000000 0.000000 0.054824 0.000000
# 6 0.000000 0.000000 0.000000 0.000000 0.000000 0.064662
#
#
# Mechanical properties :
#
#
# Convention : Reuss Voigt Hill
#
# Bulk Modulus (GPa) = 40.42910 45.14270 42.78590
# Shear Modulus (GPa) = 17.64555 18.66997 18.15776
#
# Velocity S-wave (km/s) = 3.32437 3.41951 3.37228
# Velocity P-wave (km/s) = 6.32899 6.62297 6.47764
#
# Compressibility (1/GPa) = 0.02473466
#
# Stress axis : x y z
#
# Youngs Moduli (GPa) = 60.81814 37.73907 42.27900
#
# Poissons Ratio (x) = 0.40939 0.12294
# Poissons Ratio (y) = 0.65975 0.30327
# Poissons Ratio (z) = 0.17685 0.27071
#
# Static dielectric constant tensor:
#      x y z
#    x 1.521230 0.000000 0.000000 
#    y 0.000000 1.511810 0.000000 
#    z 0.000000 0.000000 1.540460 
# 
# From -- ./inp_files/47994.got.cif
#   From: 2010.05.17/outbox.cif.g08.bks.cpg/sg63_24_cif.got.tgz:47994.got - 2010.06.03 15:47:04.
