data_PCOD9470273
_publ_section_title
;
Structure prediction by ZEFSAII (Michael W. Deem and Ramdas Pophale) SiO2 
 PCOD9470273
Probable space group: C M C M
;
_chemical_formula_sum "Si O2"
_cell_formula_units_Z 104
_cell_length_a 21.166807
_cell_length_b 32.593654
_cell_length_c 8.735249
_cell_angle_alpha 90.000000
_cell_angle_beta 90.000000
_cell_angle_gamma 90.000000
_cell_volume 6026.479589
_symmetry_space_group_name_H-M "C M C M"
_symmetry_group_IT_number 63
_symmetry_cell_setting 'orthorhombic'
loop_
_space_group_symop_operation_xyz
x,y,z
-x,-y,1/2+z
x,-y,-z
-x,y,1/2-z
-x,-y,-z
x,y,1/2-z
-x,y,z
x,-y,1/2+z
1/2+x,1/2+y,z
1/2-x,1/2-y,1/2+z
1/2+x,1/2-y,-z
1/2-x,1/2+y,1/2-z
1/2-x,1/2-y,-z
1/2+x,1/2+y,1/2-z
1/2-x,1/2+y,z
1/2+x,1/2-y,1/2+z
loop_
_atom_site_type_symbol
_atom_site_label
_atom_site_fract_x
_atom_site_fract_y
_atom_site_fract_z
Si Si1 0.500000 0.545460 0.068294
Si Si2 0.928823 0.226571 0.563412
Si Si3 0.694622 0.868360 0.934550
Si Si4 0.429546 0.822037 0.563567
Si Si5 0.370984 0.425977 0.427488
Si Si6 0.243254 0.457120 0.566867
Si Si7 0.319485 0.333688 0.428223
O O1 0.500000 0.543857 0.250000
O O2 0.500000 0.500000 0.000000
O O3 0.562717 0.567166 0.007668
O O4 0.928656 0.224158 0.750000
O O5 0.920375 0.274272 0.521467
O O6 0.870386 0.198905 0.509549
O O7 0.000000 0.213638 0.514900
O O8 0.694416 0.868569 0.750000
O O9 0.628271 0.849952 0.989761
O O10 0.707461 0.915408 0.984307
O O11 0.753013 0.840042 0.987660
O O12 0.429346 0.823140 0.750000
O O13 0.500000 0.834733 0.513642
O O14 0.374457 0.438758 0.250000
O O15 0.314984 0.450544 0.509881
O O16 0.352470 0.378212 0.433414
O O17 0.218811 0.500000 0.500000
O O18 0.241912 0.458918 0.750000
O O19 0.306703 0.323789 0.250000
#
# Coordination Sequence:
#
# PCOD9470273 Si02
#       7
#     8  16  16  16  16  16  16
#     4  12  24  36  48  64  88 120 160 202 246 290
#     4   8  14  25  44  69  96 126 163 201 230 266
#     4   9  18  31  48  71  98 123 153 196 241 282
#     4   8  14  27  48  73  97 124 158 193 231 278
#     4  10  20  33  48  67  92 123 158 198 239 281
#     4  10  19  32  49  68  92 121 154 193 238 287
#     4   9  18  30  47  70  96 126 161 196 234 277
#
# _framework density 17.257173999999999
#
# number of rings (size 3 to 8) (size 9 to 14) (size 15 to 20)
#    0.000    2.769    0.000    3.000    1.077    1.846 
#    0.000    0.000    0.000    0.923    0.000    2.154 
#    0.000    0.000    0.000    0.000    0.000    0.462 
#
# Total GULP energy -289820.939048 kJ/mol
# GULP energy per Si atom -5573.479597 kJ/mol
# Density = 1.721790 g / cm^3
# Si number density = 17.257174 Si / 1000 Ang^3
#
#
#
# Elastic Constant Matrix: (Units=GPa)
#
#
# Indices 1 2 3 4 5 6 
#
# 1 147.5237 79.7387 24.7847 0.0000 0.0000 0.0000
# 2 79.7387 82.6813 18.9436 0.0000 0.0000 0.0000
# 3 24.7847 18.9436 31.6887 0.0000 0.0000 0.0000
# 4 0.0000 0.0000 0.0000 12.0914 0.0000 0.0000
# 5 0.0000 0.0000 0.0000 0.0000 17.9774 0.0000
# 6 0.0000 0.0000 0.0000 0.0000 0.0000 87.5503
#
#
#
# Elastic Compliance Matrix: (Units=1/GPa)
#
#
# Indices 1 2 3 4 5 6 
#
# 1 0.014478 -0.013172 -0.003449 0.000000 0.000000 0.000000
# 2 -0.013172 0.025999 -0.005240 0.000000 0.000000 0.000000
# 3 -0.003449 -0.005240 0.037387 0.000000 0.000000 0.000000
# 4 0.000000 0.000000 0.000000 0.082703 0.000000 0.000000
# 5 0.000000 0.000000 0.000000 0.000000 0.055625 0.000000
# 6 0.000000 0.000000 0.000000 0.000000 0.000000 0.011422
#
#
# Mechanical properties :
#
#
# Convention : Reuss Voigt Hill
#
# Bulk Modulus (GPa) = 29.29001 56.53640 42.91320
# Shear Modulus (GPa) = 17.68554 32.75227 25.21890
#
# Velocity S-wave (km/s) = 3.20476 4.36121 3.82692
# Velocity P-wave (km/s) = 5.54107 7.62839 6.66693
#
# Compressibility (1/GPa) = 0.03414134
#
# Stress axis : x y z
#
# Youngs Moduli (GPa) = 69.07070 38.46343 26.74733
#
# Poissons Ratio (x) = 0.50666 0.09225
# Poissons Ratio (y) = 0.90983 0.14014
# Poissons Ratio (z) = 0.23823 0.20153
#
# Static dielectric constant tensor:
#      x y z
#    x 1.570590 0.000000 0.000000 
#    y 0.000000 1.590500 0.000000 
#    z 0.000000 0.000000 1.591220 
# 
# From -- ./inp_files/9180.got.cif
#   From: 2010.05.17/outbox.cif.g08.bks.cpg/sg63_5_cif.got.tgz:9180.got - 2010.06.03 15:47:04.
