data_PCOD9470189
_publ_section_title
;
Structure prediction by ZEFSAII (Michael W. Deem and Ramdas Pophale) SiO2 
 PCOD9470189
Probable space group: C M C M
;
_chemical_formula_sum "Si O2"
_cell_formula_units_Z 80
_cell_length_a 8.517099
_cell_length_b 28.222165
_cell_length_c 18.814562
_cell_angle_alpha 90.000000
_cell_angle_beta 90.000000
_cell_angle_gamma 90.000000
_cell_volume 4522.474580
_symmetry_space_group_name_H-M "C M C M"
_symmetry_group_IT_number 63
_symmetry_cell_setting 'orthorhombic'
loop_
_space_group_symop_operation_xyz
x,y,z
-x,-y,1/2+z
x,-y,-z
-x,y,1/2-z
-x,-y,-z
x,y,1/2-z
-x,y,z
x,-y,1/2+z
1/2+x,1/2+y,z
1/2-x,1/2-y,1/2+z
1/2+x,1/2-y,-z
1/2-x,1/2+y,1/2-z
1/2-x,1/2-y,-z
1/2+x,1/2+y,1/2-z
1/2-x,1/2+y,z
1/2+x,1/2-y,1/2+z
loop_
_atom_site_type_symbol
_atom_site_label
_atom_site_fract_x
_atom_site_fract_y
_atom_site_fract_z
Si Si1 0.689763 0.959157 0.831390
Si Si2 0.809223 0.154439 0.671182
Si Si3 0.811804 0.604118 0.460057
Si Si4 0.311805 0.699914 0.973620
Si Si5 0.811710 0.944342 0.400565
O O1 0.744613 0.954664 0.750000
O O2 0.500000 0.960124 0.830701
O O3 0.738117 0.916705 0.883980
O O4 0.748308 0.007824 0.866454
O O5 0.751283 0.165859 0.750000
O O6 0.756835 0.187961 0.606835
O O7 0.768644 0.100756 0.648719
O O8 0.000000 0.156463 0.672556
O O9 0.744046 0.655565 0.478960
O O10 0.755345 0.568132 0.521804
O O11 0.000000 0.606636 0.462248
O O12 0.500000 0.700307 0.973671
O O13 0.250000 0.750000 0.000000
O O14 0.000000 0.946401 0.405488
#
# Coordination Sequence:
#
# PCOD9470189 Si02
#       5
#    16  16  16  16  16
#     4  10  21  35  50  72 104 141 179 215 251 294
#     4   8  15  29  49  74 100 125 159 203 248 295
#     4  10  20  35  54  74 100 135 173 214 257 303
#     4  10  20  35  56  78 100 129 166 210 259 311
#     4  10  19  31  51  78 106 136 170 209 256 310
#
# _framework density 17.689429000000001
#
# number of rings (size 3 to 8) (size 9 to 14) (size 15 to 20)
#    0.000    2.400    0.000    4.200    0.000    5.200 
#    0.000    1.000    0.000   18.000    0.000    0.000 
#    0.000    0.000    0.000    0.000    0.000    0.000 
#
# Total GULP energy -223172.300380 kJ/mol
# GULP energy per Si atom -5579.307510 kJ/mol
# Density = 1.764917 g / cm^3
# Si number density = 17.689429 Si / 1000 Ang^3
#
#
#
# Elastic Constant Matrix: (Units=GPa)
#
#
# Indices 1 2 3 4 5 6 
#
# 1 28.3423 29.5827 36.8386 0.0000 0.0000 0.0000
# 2 29.5827 128.7365 108.4877 0.0000 0.0000 0.0000
# 3 36.8386 108.4877 160.1841 0.0000 0.0000 0.0000
# 4 0.0000 0.0000 0.0000 15.1640 0.0000 0.0000
# 5 0.0000 0.0000 0.0000 0.0000 19.3347 0.0000
# 6 0.0000 0.0000 0.0000 0.0000 0.0000 30.9262
#
#
#
# Elastic Compliance Matrix: (Units=1/GPa)
#
#
# Indices 1 2 3 4 5 6 
#
# 1 0.051330 -0.004303 -0.008890 0.000000 0.000000 0.000000
# 2 -0.004303 0.018457 -0.011510 0.000000 0.000000 0.000000
# 3 -0.008890 -0.011510 0.016083 0.000000 0.000000 0.000000
# 4 0.000000 0.000000 0.000000 0.065946 0.000000 0.000000
# 5 0.000000 0.000000 0.000000 0.000000 0.051720 0.000000
# 6 0.000000 0.000000 0.000000 0.000000 0.000000 0.032335
#
#
# Mechanical properties :
#
#
# Convention : Reuss Voigt Hill
#
# Bulk Modulus (GPa) = 27.42609 74.12009 50.77309
# Shear Modulus (GPa) = 16.81053 22.57525 19.69289
#
# Velocity S-wave (km/s) = 3.08606 3.57627 3.34017
# Velocity P-wave (km/s) = 5.31378 7.68405 6.60609
#
# Compressibility (1/GPa) = 0.03646163
#
# Stress axis : x y z
#
# Youngs Moduli (GPa) = 19.48181 54.18087 62.17753
#
# Poissons Ratio (x) = 0.23317 0.55276
# Poissons Ratio (y) = 0.08384 0.71569
# Poissons Ratio (z) = 0.17319 0.62365
#
# Static dielectric constant tensor:
#      x y z
#    x 1.606880 0.000000 0.000000 
#    y 0.000000 1.568800 0.000000 
#    z 0.000000 0.000000 1.624540 
# 
# From -- ./inp_files/40465.got.cif
#   From: 2010.05.17/outbox.cif.g08.bks.cpg/sg63_21_cif.got.tgz:40465.got - 2010.06.03 15:47:04.
