data_PCOD9470107
_publ_section_title
;
Structure prediction by ZEFSAII (Michael W. Deem and Ramdas Pophale) SiO2 
 PCOD9470107
Probable space group: C M C M
;
_chemical_formula_sum "Si O2"
_cell_formula_units_Z 72
_cell_length_a 30.452271
_cell_length_b 14.138123
_cell_length_c 7.534777
_cell_angle_alpha 90.000000
_cell_angle_beta 90.000000
_cell_angle_gamma 90.000000
_cell_volume 3244.007466
_symmetry_space_group_name_H-M "C M C M"
_symmetry_group_IT_number 63
_symmetry_cell_setting 'orthorhombic'
loop_
_space_group_symop_operation_xyz
x,y,z
-x,-y,1/2+z
x,-y,-z
-x,y,1/2-z
-x,-y,-z
x,y,1/2-z
-x,y,z
x,-y,1/2+z
1/2+x,1/2+y,z
1/2-x,1/2-y,1/2+z
1/2+x,1/2-y,-z
1/2-x,1/2+y,1/2-z
1/2-x,1/2-y,-z
1/2+x,1/2+y,1/2-z
1/2-x,1/2+y,z
1/2+x,1/2-y,1/2+z
loop_
_atom_site_type_symbol
_atom_site_label
_atom_site_fract_x
_atom_site_fract_y
_atom_site_fract_z
Si Si1 0.000000 0.611105 0.963736
Si Si2 0.232996 0.112826 0.037703
Si Si3 0.415579 0.778803 0.455243
Si Si4 0.362841 0.389455 0.536355
Si Si5 0.672127 0.887830 0.538169
O O1 0.956182 0.663098 0.032742
O O2 0.000000 0.617168 0.750000
O O3 0.000000 0.500000 0.000000
O O4 0.233296 0.125779 0.250000
O O5 0.185325 0.143097 0.967694
O O6 0.280169 0.148744 0.969830
O O7 0.233575 0.000000 0.000000
O O8 0.427285 0.761510 0.250000
O O9 0.401013 0.678165 0.534065
O O10 0.370783 0.839224 0.460553
O O11 0.368848 0.500000 0.500000
O O12 0.361352 0.379068 0.750000
O O13 0.670804 0.875118 0.750000
O O14 0.670237 0.000000 0.500000
#
# Coordination Sequence:
#
# PCOD9470107 Si02
#       5
#     8  16  16  16  16
#     4  10  22  40  59  78 102 132 165 206 257 308
#     4   8  15  28  46  70 101 136 170 204 246 296
#     4  10  21  36  54  76 102 134 172 213 259 307
#     4   9  18  34  54  75 103 138 173 209 250 298
#     4  10  19  31  49  75 106 137 171 211 254 303
#
# _framework density 22.194769000000001
#
# number of rings (size 3 to 8) (size 9 to 14) (size 15 to 20)
#    0.000    2.667    0.000    1.333    0.000    5.333 
#    0.000    0.556    0.000    0.000    0.000    0.000 
#    0.000    0.000    0.000    0.000    0.000    0.000 
#
# Total GULP energy -200919.818236 kJ/mol
# GULP energy per Si atom -5581.106062 kJ/mol
# Density = 2.214425 g / cm^3
# Si number density = 22.194769 Si / 1000 Ang^3
#
#
#
# Elastic Constant Matrix: (Units=GPa)
#
#
# Indices 1 2 3 4 5 6 
#
# 1 193.6551 96.5459 4.7702 0.0000 0.0000 0.0000
# 2 96.5459 131.3700 -5.5121 0.0000 0.0000 0.0000
# 3 4.7702 -5.5121 70.5236 0.0000 0.0000 0.0000
# 4 0.0000 0.0000 0.0000 17.9361 0.0000 0.0000
# 5 0.0000 0.0000 0.0000 0.0000 13.3851 0.0000
# 6 0.0000 0.0000 0.0000 0.0000 0.0000 41.7895
#
#
#
# Elastic Compliance Matrix: (Units=1/GPa)
#
#
# Indices 1 2 3 4 5 6 
#
# 1 0.008224 -0.006087 -0.001032 0.000000 0.000000 0.000000
# 2 -0.006087 0.012143 0.001361 0.000000 0.000000 0.000000
# 3 -0.001032 0.001361 0.014356 0.000000 0.000000 0.000000
# 4 0.000000 0.000000 0.000000 0.055754 0.000000 0.000000
# 5 0.000000 0.000000 0.000000 0.000000 0.074710 0.000000
# 6 0.000000 0.000000 0.000000 0.000000 0.000000 0.023929
#
#
# Mechanical properties :
#
#
# Convention : Reuss Voigt Hill
#
# Bulk Modulus (GPa) = 43.09293 65.23965 54.16629
# Shear Modulus (GPa) = 23.99602 34.60510 29.30056
#
# Velocity S-wave (km/s) = 3.29166 3.95290 3.63734
# Velocity P-wave (km/s) = 5.82277 7.09167 6.48832
#
# Compressibility (1/GPa) = 0.02320566
#
# Stress axis : x y z
#
# Youngs Moduli (GPa) = 121.59499 82.35322 69.65813
#
# Poissons Ratio (x) = 0.50131 0.07189
# Poissons Ratio (y) = 0.74018 -0.09479
# Poissons Ratio (z) = 0.12549 -0.11207
#
# Static dielectric constant tensor:
#      x y z
#    x 1.843530 0.000000 0.000000 
#    y 0.000000 1.832880 0.000000 
#    z 0.000000 0.000000 1.847480 
# 
# From -- ./inp_files/11715.got.cif
#   From: 2010.05.17/outbox.cif.g08.bks.cpg/sg63_6_cif.got.tgz:11715.got - 2010.06.03 15:47:04.
