data_PCOD9470528
_publ_section_title
;
Structure prediction by ZEFSAII (Michael W. Deem and Ramdas Pophale) SiO2 
 PCOD9470528
Probable space group: C M C M
;
_chemical_formula_sum "Si O2"
_cell_formula_units_Z 88
_cell_length_a 19.427326
_cell_length_b 27.940156
_cell_length_c 9.040327
_cell_angle_alpha 90.000000
_cell_angle_beta 90.000000
_cell_angle_gamma 90.000000
_cell_volume 4907.112269
_symmetry_space_group_name_H-M "C M C M"
_symmetry_group_IT_number 63
_symmetry_cell_setting 'orthorhombic'
loop_
_space_group_symop_operation_xyz
x,y,z
-x,-y,1/2+z
x,-y,-z
-x,y,1/2-z
-x,-y,-z
x,y,1/2-z
-x,y,z
x,-y,1/2+z
1/2+x,1/2+y,z
1/2-x,1/2-y,1/2+z
1/2+x,1/2-y,-z
1/2-x,1/2+y,1/2-z
1/2-x,1/2-y,-z
1/2+x,1/2+y,1/2-z
1/2-x,1/2+y,z
1/2+x,1/2-y,1/2+z
loop_
_atom_site_type_symbol
_atom_site_label
_atom_site_fract_x
_atom_site_fract_y
_atom_site_fract_z
Si Si1 0.578046 0.769360 0.429452
Si Si2 0.190211 0.807521 0.920947
Si Si3 0.178532 0.649215 0.573223
Si Si4 0.000000 0.051017 0.922574
Si Si5 0.281845 0.049900 0.427182
Si Si6 0.869081 0.085959 0.417212
O O1 0.576175 0.764655 0.250000
O O2 0.500000 0.762233 0.483446
O O3 0.635010 0.730741 0.479307
O O4 0.609093 0.821628 0.461892
O O5 0.209073 0.795194 0.750000
O O6 0.152539 0.858749 0.916450
O O7 0.258376 0.817486 0.015926
O O8 0.184287 0.643478 0.750000
O O9 0.184015 0.597616 0.495466
O O10 0.000000 0.044771 0.750000
O O11 0.931537 0.077572 0.974689
O O12 0.000000 0.000000 0.000000
O O13 0.291102 0.049347 0.250000
O O14 0.199992 0.057009 0.456249
O O15 0.304523 0.000000 0.500000
O O16 0.889937 0.072317 0.250000
#
# Coordination Sequence:
#
# PCOD9470528 Si02
#       6
#    16  16  16   8  16  16
#     4   9  18  32  53  80 107 140 181 219 260 311
#     4   9  18  33  55  77 101 139 180 219 258 306
#     4  10  19  32  53  80 110 140 172 217 264 312
#     4  12  24  34  46  64  94 134 172 214 261 306
#     4  10  20  35  56  79 102 131 170 215 262 314
#     4   9  19  33  50  72  97 129 170 212 255 304
#
# _framework density 17.933153999999998
#
# number of rings (size 3 to 8) (size 9 to 14) (size 15 to 20)
#    0.000    2.364    0.000    4.091    1.273    5.091 
#    0.000    0.909    0.000    4.909    0.000    0.000 
#    0.000    0.000    0.000    0.000    0.000    0.000 
#
# Total GULP energy -245416.477524 kJ/mol
# GULP energy per Si atom -5577.647216 kJ/mol
# Density = 1.789234 g / cm^3
# Si number density = 17.933154 Si / 1000 Ang^3
#
#
#
# Elastic Constant Matrix: (Units=GPa)
#
#
# Indices 1 2 3 4 5 6 
#
# 1 49.8140 39.1159 14.9295 0.0000 0.0000 0.0000
# 2 39.1159 98.2647 16.5932 0.0000 0.0000 0.0000
# 3 14.9295 16.5932 34.4671 0.0000 0.0000 0.0000
# 4 0.0000 0.0000 0.0000 21.9825 0.0000 0.0000
# 5 0.0000 0.0000 0.0000 0.0000 18.0197 0.0000
# 6 0.0000 0.0000 0.0000 0.0000 0.0000 4.4758
#
#
#
# Elastic Compliance Matrix: (Units=1/GPa)
#
#
# Indices 1 2 3 4 5 6 
#
# 1 0.031196 -0.011033 -0.008201 0.000000 0.000000 0.000000
# 2 -0.011033 0.014979 -0.002432 0.000000 0.000000 0.000000
# 3 -0.008201 -0.002432 0.033736 0.000000 0.000000 0.000000
# 4 0.000000 0.000000 0.000000 0.045491 0.000000 0.000000
# 5 0.000000 0.000000 0.000000 0.000000 0.055495 0.000000
# 6 0.000000 0.000000 0.000000 0.000000 0.000000 0.223421
#
#
# Mechanical properties :
#
#
# Convention : Reuss Voigt Hill
#
# Bulk Modulus (GPa) = 27.33826 35.98031 31.65929
# Shear Modulus (GPa) = 10.87321 16.35609 13.61465
#
# Velocity S-wave (km/s) = 2.46503 3.02331 2.75833
# Velocity P-wave (km/s) = 4.83523 5.68281 5.27607
#
# Compressibility (1/GPa) = 0.03657877
#
# Stress axis : x y z
#
# Youngs Moduli (GPa) = 32.05491 66.75868 29.64152
#
# Poissons Ratio (x) = 0.73658 0.24309
# Poissons Ratio (y) = 0.35367 0.07209
# Poissons Ratio (z) = 0.26289 0.16237
#
# Static dielectric constant tensor:
#      x y z
#    x 1.580520 0.000000 0.000000 
#    y 0.000000 1.627990 0.000000 
#    z 0.000000 0.000000 1.619340 
# 
# From -- ./inp_files/6777.got.cif
#   From: 2010.05.17/outbox.cif.g08.bks.cpg/sg63_4_cif.got.tgz:6777.got - 2010.06.03 15:47:04.
