data_PCOD9470809
_publ_section_title
;
Structure prediction by ZEFSAII (Michael W. Deem and Ramdas Pophale) SiO2 
 PCOD9470809
Probable space group: C M C M
;
_chemical_formula_sum "Si O2"
_cell_formula_units_Z 72
_cell_length_a 15.250117
_cell_length_b 26.443923
_cell_length_c 8.919860
_cell_angle_alpha 90.000000
_cell_angle_beta 90.000000
_cell_angle_gamma 90.000000
_cell_volume 3597.137985
_symmetry_space_group_name_H-M "C M C M"
_symmetry_group_IT_number 63
_symmetry_cell_setting 'orthorhombic'
loop_
_space_group_symop_operation_xyz
x,y,z
-x,-y,1/2+z
x,-y,-z
-x,y,1/2-z
-x,-y,-z
x,y,1/2-z
-x,y,z
x,-y,1/2+z
1/2+x,1/2+y,z
1/2-x,1/2-y,1/2+z
1/2+x,1/2-y,-z
1/2-x,1/2+y,1/2-z
1/2-x,1/2-y,-z
1/2+x,1/2+y,1/2-z
1/2-x,1/2+y,z
1/2+x,1/2-y,1/2+z
loop_
_atom_site_type_symbol
_atom_site_label
_atom_site_fract_x
_atom_site_fract_y
_atom_site_fract_z
Si Si1 0.102931 0.547963 0.083423
Si Si2 0.500000 0.556487 0.567232
Si Si3 0.639959 0.639658 0.931028
Si Si4 0.154768 0.352180 0.071795
Si Si5 0.348071 0.249765 0.430450
O O1 0.140231 0.556022 0.250000
O O2 0.000000 0.537251 0.101499
O O3 0.144480 0.500000 0.000000
O O4 0.109559 0.597267 0.982777
O O5 0.500000 0.500000 0.500000
O O6 0.500000 0.552539 0.750000
O O7 0.417046 0.591738 0.519135
O O8 0.635383 0.638388 0.750000
O O9 0.742654 0.639196 0.971562
O O10 0.608963 0.696486 0.974281
O O11 0.150994 0.345449 0.250000
O O12 0.115166 0.302619 0.993067
O O13 0.343540 0.247962 0.250000
O O14 0.250000 0.250000 0.500000
#
# Coordination Sequence:
#
# PCOD9470809 Si02
#       5
#    16   8  16  16  16
#     4  10  21  37  55  76 104 139 176 216 263 319
#     4  10  20  38  56  74 104 142 183 228 269 312
#     4   8  17  33  54  76 103 140 180 219 265 317
#     4  10  19  33  54  81 109 140 177 220 270 327
#     4   9  16  30  51  77 104 136 175 219 270 322
#
# _framework density 20.015912
#
# number of rings (size 3 to 8) (size 9 to 14) (size 15 to 20)
#    0.000    2.667    0.000    3.333    0.000    2.222 
#    2.000    8.889    0.000    0.000    0.000    0.000 
#    0.000    0.000    0.000    0.000    0.000    0.000 
#
# Total GULP energy -200510.150478 kJ/mol
# GULP energy per Si atom -5569.726402 kJ/mol
# Density = 1.997036 g / cm^3
# Si number density = 20.015912 Si / 1000 Ang^3
#
#
#
# Elastic Constant Matrix: (Units=GPa)
#
#
# Indices 1 2 3 4 5 6 
#
# 1 39.9259 29.9197 18.5215 0.0000 0.0000 0.0000
# 2 29.9197 187.6042 47.9029 0.0000 0.0000 0.0000
# 3 18.5215 47.9029 68.4932 0.0000 0.0000 0.0000
# 4 0.0000 0.0000 0.0000 35.2474 0.0000 0.0000
# 5 0.0000 0.0000 0.0000 0.0000 12.8181 0.0000
# 6 0.0000 0.0000 0.0000 0.0000 0.0000 20.4153
#
#
#
# Elastic Compliance Matrix: (Units=1/GPa)
#
#
# Indices 1 2 3 4 5 6 
#
# 1 0.030258 -0.003331 -0.005852 0.000000 0.000000 0.000000
# 2 -0.003331 0.006856 -0.003894 0.000000 0.000000 0.000000
# 3 -0.005852 -0.003894 0.018906 0.000000 0.000000 0.000000
# 4 0.000000 0.000000 0.000000 0.028371 0.000000 0.000000
# 5 0.000000 0.000000 0.000000 0.000000 0.078015 0.000000
# 6 0.000000 0.000000 0.000000 0.000000 0.000000 0.048983
#
#
# Mechanical properties :
#
#
# Convention : Reuss Voigt Hill
#
# Bulk Modulus (GPa) = 33.48478 54.30127 43.89303
# Shear Modulus (GPa) = 20.20221 27.00813 23.60517
#
# Velocity S-wave (km/s) = 3.18041 3.67731 3.43785
# Velocity P-wave (km/s) = 5.50019 6.72444 6.14289
#
# Compressibility (1/GPa) = 0.02986431
#
# Stress axis : x y z
#
# Youngs Moduli (GPa) = 33.04959 145.85808 52.89331
#
# Poissons Ratio (x) = 0.48589 0.30954
# Poissons Ratio (y) = 0.11010 0.20597
# Poissons Ratio (z) = 0.19341 0.56799
#
# Static dielectric constant tensor:
#      x y z
#    x 1.788190 0.000000 0.000000 
#    y 0.000000 1.775320 0.000000 
#    z 0.000000 0.000000 1.711260 
# 
# From -- ./inp_files/6130.got.cif
#   From: 2010.05.17/outbox.cif.g08.bks.cpg/sg63_4_cif.got.tgz:6130.got - 2010.06.03 15:47:04.
