data_PCOD9470135
_publ_section_title
;
Structure prediction by ZEFSAII (Michael W. Deem and Ramdas Pophale) SiO2 
 PCOD9470135
Probable space group: C M C M
;
_chemical_formula_sum "Si O2"
_cell_formula_units_Z 80
_cell_length_a 15.207690
_cell_length_b 26.419055
_cell_length_c 9.501205
_cell_angle_alpha 90.000000
_cell_angle_beta 90.000000
_cell_angle_gamma 90.000000
_cell_volume 3817.325722
_symmetry_space_group_name_H-M "C M C M"
_symmetry_group_IT_number 63
_symmetry_cell_setting 'orthorhombic'
loop_
_space_group_symop_operation_xyz
x,y,z
-x,-y,1/2+z
x,-y,-z
-x,y,1/2-z
-x,-y,-z
x,y,1/2-z
-x,y,z
x,-y,1/2+z
1/2+x,1/2+y,z
1/2-x,1/2-y,1/2+z
1/2+x,1/2-y,-z
1/2-x,1/2+y,1/2-z
1/2-x,1/2-y,-z
1/2+x,1/2+y,1/2-z
1/2-x,1/2+y,z
1/2+x,1/2-y,1/2+z
loop_
_atom_site_type_symbol
_atom_site_label
_atom_site_fract_x
_atom_site_fract_y
_atom_site_fract_z
Si Si1 0.362754 0.356443 0.409397
Si Si2 0.152909 0.354062 0.409518
Si Si3 0.353710 0.049592 0.412524
Si Si4 0.103878 0.258680 0.909905
Si Si5 0.861496 0.048867 0.410924
O O1 0.397424 0.362355 0.250000
O O2 0.257587 0.362048 0.400711
O O3 0.381445 0.299163 0.455898
O O4 0.393133 0.400126 0.513518
O O5 0.117735 0.354780 0.250000
O O6 0.117515 0.399643 0.506221
O O7 0.140239 0.300448 0.485124
O O8 0.382722 0.048479 0.250000
O O9 0.246193 0.049523 0.410067
O O10 0.380784 0.000000 0.500000
O O11 0.140650 0.263880 0.750000
O O12 0.000000 0.267038 0.902258
O O13 0.889983 0.045553 0.250000
O O14 0.888047 0.000000 0.500000
#
# Coordination Sequence:
#
# PCOD9470135 Si02
#       5
#    16  16  16  16  16
#     4   9  18  32  50  73 100 129 163 203 245 289
#     4  10  19  31  50  75 101 129 163 203 244 288
#     4   9  16  27  45  71 102 131 160 196 240 289
#     4  10  21  36  52  70  96 131 167 204 248 294
#     4   9  16  26  44  71 101 130 159 196 242 289
#
# _framework density 20.957079
#
# number of rings (size 3 to 8) (size 9 to 14) (size 15 to 20)
#    0.000    2.600    0.000    2.400    0.000    6.800 
#    0.000    0.000    0.000    1.200    0.000    0.000 
#    0.000    0.000    0.000    0.000    0.000    0.000 
#
# Total GULP energy -223370.986549 kJ/mol
# GULP energy per Si atom -5584.274664 kJ/mol
# Density = 2.090938 g / cm^3
# Si number density = 20.957079 Si / 1000 Ang^3
#
#
#
# Elastic Constant Matrix: (Units=GPa)
#
#
# Indices 1 2 3 4 5 6 
#
# 1 29.6809 3.5371 10.4530 0.0000 0.0000 0.0000
# 2 3.5371 193.4538 155.6042 0.0000 0.0000 0.0000
# 3 10.4530 155.6042 206.3561 0.0000 0.0000 0.0000
# 4 0.0000 0.0000 0.0000 35.1739 0.0000 0.0000
# 5 0.0000 0.0000 0.0000 0.0000 -12.1966 0.0000
# 6 0.0000 0.0000 0.0000 0.0000 0.0000 -50.3064
#
#
#
# Elastic Compliance Matrix: (Units=1/GPa)
#
#
# Indices 1 2 3 4 5 6 
#
# 1 0.034598 0.001975 -0.003242 0.000000 0.000000 0.000000
# 2 0.001975 0.013250 -0.010091 0.000000 0.000000 0.000000
# 3 -0.003242 -0.010091 0.012620 0.000000 0.000000 0.000000
# 4 0.000000 0.000000 0.000000 0.028430 0.000000 0.000000
# 5 0.000000 0.000000 0.000000 0.000000 -0.081990 0.000000
# 6 0.000000 0.000000 0.000000 0.000000 0.000000 -0.019878
#
#
# Mechanical properties :
#
#
# Convention : Reuss Voigt Hill
#
# Bulk Modulus (GPa) = 26.48913 85.40880 55.94897
# Shear Modulus (GPa) = 223.92076 11.86063 117.89070
#
# Velocity S-wave (km/s) = 10.34791 2.38155 7.50836
# Velocity P-wave (km/s) = 12.46754 6.95737 10.09565
#
# Compressibility (1/GPa) = 0.03775133
#
# Stress axis : x y z
#
# Youngs Moduli (GPa) = 28.90342 75.47184 79.24186
#
# Poissons Ratio (x) = -0.14905 0.25688
# Poissons Ratio (y) = -0.05708 0.79965
# Poissons Ratio (z) = 0.09370 0.76161
#
# Static dielectric constant tensor:
#      x y z
#    x 1.764110 0.000000 0.000000 
#    y 0.000000 1.710660 0.000000 
#    z 0.000000 0.000000 1.722460 
# 
# From -- ./inp_files/6348.got.cif
#   From: 2010.05.17/outbox.cif.g08.bks.cpg/sg63_4_cif.got.tgz:6348.got - 2010.06.03 15:47:04.
