data_PCOD9470094
_publ_section_title
;
Structure prediction by ZEFSAII (Michael W. Deem and Ramdas Pophale) SiO2 
 PCOD9470094
Probable space group: C M C M
;
_chemical_formula_sum "Si O2"
_cell_formula_units_Z 112
_cell_length_a 14.837554
_cell_length_b 27.311793
_cell_length_c 16.095473
_cell_angle_alpha 90.000000
_cell_angle_beta 90.000000
_cell_angle_gamma 90.000000
_cell_volume 6522.532754
_symmetry_space_group_name_H-M "C M C M"
_symmetry_group_IT_number 63
_symmetry_cell_setting 'orthorhombic'
loop_
_space_group_symop_operation_xyz
x,y,z
-x,-y,1/2+z
x,-y,-z
-x,y,1/2-z
-x,-y,-z
x,y,1/2-z
-x,y,z
x,-y,1/2+z
1/2+x,1/2+y,z
1/2-x,1/2-y,1/2+z
1/2+x,1/2-y,-z
1/2-x,1/2+y,1/2-z
1/2-x,1/2-y,-z
1/2+x,1/2+y,1/2-z
1/2-x,1/2+y,z
1/2+x,1/2-y,1/2+z
loop_
_atom_site_type_symbol
_atom_site_label
_atom_site_fract_x
_atom_site_fract_y
_atom_site_fract_z
Si Si1 0.099581 0.162563 0.538226
Si Si2 0.715953 0.976079 0.090967
Si Si3 0.392527 0.113942 0.980044
Si Si4 0.100993 0.259178 0.846617
Si Si5 0.273917 0.804203 0.968072
Si Si6 0.393361 0.065140 0.158324
Si Si7 0.898826 0.066976 0.847196
O O1 0.105049 0.209322 0.599916
O O2 0.181011 0.166138 0.473495
O O3 0.107878 0.114768 0.595044
O O4 0.000000 0.163174 0.499617
O O5 0.813901 0.965930 0.128741
O O6 0.660844 0.014958 0.145258
O O7 0.658369 0.926296 0.076420
O O8 0.726190 0.000000 0.000000
O O9 0.500000 0.114707 0.965197
O O10 0.344706 0.166659 0.973811
O O11 0.376367 0.097680 0.076394
O O12 0.111891 0.248350 0.750000
O O13 0.176388 0.295308 0.881314
O O14 0.000000 0.280334 0.859251
O O15 0.250000 0.750000 0.000000
O O16 0.373179 0.086422 0.250000
O O17 0.500000 0.054345 0.155948
O O18 0.892466 0.080415 0.750000
O O19 0.000000 0.045807 0.860092
#
# Coordination Sequence:
#
# PCOD9470094 Si02
#       7
#    16  16  16  16  16  16  16
#     4   9  17  31  49  70  95 126 166 207 251 297
#     4  10  19  32  50  73 104 138 168 203 253 313
#     4  10  19  32  50  74 103 136 171 210 254 304
#     4   9  17  29  47  73 101 125 156 205 257 301
#     4  10  19  31  49  74 100 133 171 208 254 304
#     4   9  18  32  51  76 104 133 167 207 252 303
#     4  10  19  31  50  74  97 125 164 210 254 294
#
# _framework density 17.171244000000002
#
# number of rings (size 3 to 8) (size 9 to 14) (size 15 to 20)
#    0.000    2.429    1.429    1.714    0.000    4.857 
#    0.000    1.429    0.000    0.429    0.000    0.000 
#    0.000    0.000    0.000    0.000    0.000    0.000 
#
# Total GULP energy -311900.916536 kJ/mol
# GULP energy per Si atom -5569.659224 kJ/mol
# Density = 1.713216 g / cm^3
# Si number density = 17.171244 Si / 1000 Ang^3
#
#
#
# Elastic Constant Matrix: (Units=GPa)
#
#
# Indices 1 2 3 4 5 6 
#
# 1 100.0199 27.4425 23.0464 0.0000 0.0000 0.0000
# 2 27.4425 52.2885 -4.4576 0.0000 0.0000 0.0000
# 3 23.0464 -4.4576 37.6909 0.0000 0.0000 0.0000
# 4 0.0000 0.0000 0.0000 10.3276 0.0000 0.0000
# 5 0.0000 0.0000 0.0000 0.0000 24.2971 0.0000
# 6 0.0000 0.0000 0.0000 0.0000 0.0000 25.8747
#
#
#
# Elastic Compliance Matrix: (Units=1/GPa)
#
#
# Indices 1 2 3 4 5 6 
#
# 1 0.014632 -0.008528 -0.009955 0.000000 0.000000 0.000000
# 2 -0.008528 0.024290 0.008087 0.000000 0.000000 0.000000
# 3 -0.009955 0.008087 0.033575 0.000000 0.000000 0.000000
# 4 0.000000 0.000000 0.000000 0.096828 0.000000 0.000000
# 5 0.000000 0.000000 0.000000 0.000000 0.041157 0.000000
# 6 0.000000 0.000000 0.000000 0.000000 0.000000 0.038648
#
#
# Mechanical properties :
#
#
# Convention : Reuss Voigt Hill
#
# Bulk Modulus (GPa) = 19.34060 31.34022 25.34041
# Shear Modulus (GPa) = 17.41212 21.69773 19.55493
#
# Velocity S-wave (km/s) = 3.18783 3.55858 3.37830
# Velocity P-wave (km/s) = 4.98373 5.93093 5.47784
#
# Compressibility (1/GPa) = 0.05170469
#
# Stress axis : x y z
#
# Youngs Moduli (GPa) = 68.34499 41.16971 29.78386
#
# Poissons Ratio (x) = 0.35109 0.29650
# Poissons Ratio (y) = 0.58283 -0.24086
# Poissons Ratio (z) = 0.68039 -0.33294
#
# Static dielectric constant tensor:
#      x y z
#    x 1.607190 0.000000 0.000000 
#    y 0.000000 1.612430 0.000000 
#    z 0.000000 0.000000 1.567250 
# 
# From -- ./inp_files/32802.got.cif
#   From: 2010.05.17/outbox.cif.g08.bks.cpg/sg63_17_cif.got.tgz:32802.got - 2010.06.03 15:47:04.
