data_PCOD9470595
_publ_section_title
;
Structure prediction by ZEFSAII (Michael W. Deem and Ramdas Pophale) SiO2 
 PCOD9470595
Probable space group: C M C M
;
_chemical_formula_sum "Si O2"
_cell_formula_units_Z 112
_cell_length_a 15.277410
_cell_length_b 12.078515
_cell_length_c 27.378375
_cell_angle_alpha 90.000000
_cell_angle_beta 90.000000
_cell_angle_gamma 90.000000
_cell_volume 5052.088441
_symmetry_space_group_name_H-M "C M C M"
_symmetry_group_IT_number 63
_symmetry_cell_setting 'orthorhombic'
loop_
_space_group_symop_operation_xyz
x,y,z
-x,-y,1/2+z
x,-y,-z
-x,y,1/2-z
-x,-y,-z
x,y,1/2-z
-x,y,z
x,-y,1/2+z
1/2+x,1/2+y,z
1/2-x,1/2-y,1/2+z
1/2+x,1/2-y,-z
1/2-x,1/2+y,1/2-z
1/2-x,1/2-y,-z
1/2+x,1/2+y,1/2-z
1/2-x,1/2+y,z
1/2+x,1/2-y,1/2+z
loop_
_atom_site_type_symbol
_atom_site_label
_atom_site_fract_x
_atom_site_fract_y
_atom_site_fract_z
Si Si1 0.101538 0.000246 0.103001
Si Si2 0.144330 0.793279 0.039705
Si Si3 0.901849 0.601236 0.637332
Si Si4 0.897685 0.606003 0.191520
Si Si5 0.402660 0.056296 0.045050
Si Si6 0.393233 0.351149 0.193858
Si Si7 0.670115 0.276692 0.569188
O O1 0.168370 0.094697 0.085194
O O2 0.000000 0.041935 0.106170
O O3 0.102641 0.898355 0.065049
O O4 0.128601 0.944634 0.154492
O O5 0.127010 0.674149 0.063778
O O6 0.247940 0.795167 0.049781
O O7 0.118075 0.783017 0.982726
O O8 0.858429 0.509965 0.672703
O O9 0.906795 0.531866 0.587293
O O10 0.860710 0.713965 0.618001
O O11 0.000000 0.626169 0.655809
O O12 0.898598 0.604771 0.250000
O O13 0.861233 0.727765 0.178403
O O14 0.000000 0.604181 0.174302
O O15 0.500000 0.083680 0.026986
O O16 0.352517 0.000000 0.000000
O O17 0.366423 0.373056 0.250000
O O18 0.500000 0.344270 0.193912
#
# Coordination Sequence:
#
# PCOD9470595 Si02
#       7
#    16  16  16  16  16  16  16
#     4  11  23  39  62  90 116 153 204 248 291 350
#     4  11  24  39  57  78 115 158 202 236 287 351
#     4  10  19  33  54  82 115 147 185 237 293 342
#     4   8  14  27  52  86 118 147 185 238 294 348
#     4  10  19  32  56  82 106 139 187 240 285 333
#     4   8  15  32  59  90 119 146 188 245 295 343
#     4  11  25  38  54  79 118 161 193 237 292 351
#
# _framework density 22.169049000000001
#
# number of rings (size 3 to 8) (size 9 to 14) (size 15 to 20)
#    0.000    2.143    1.429    3.000    2.000    4.571 
#    0.000    0.714    0.000    5.143    0.000    0.000 
#    0.000    0.000    0.000    0.000    0.000    0.000 
#
# Total GULP energy -311831.058012 kJ/mol
# GULP energy per Si atom -5568.411750 kJ/mol
# Density = 2.211859 g / cm^3
# Si number density = 22.169049 Si / 1000 Ang^3
#
#
#
# Elastic Constant Matrix: (Units=GPa)
#
#
# Indices 1 2 3 4 5 6 
#
# 1 22.4843 9.5759 5.8869 0.0000 0.0000 0.0000
# 2 9.5759 98.7394 18.1230 0.0000 0.0000 0.0000
# 3 5.8869 18.1230 70.6990 0.0000 0.0000 0.0000
# 4 0.0000 0.0000 0.0000 44.4905 0.0000 0.0000
# 5 0.0000 0.0000 0.0000 0.0000 4.3186 0.0000
# 6 0.0000 0.0000 0.0000 0.0000 0.0000 17.1266
#
#
#
# Elastic Compliance Matrix: (Units=1/GPa)
#
#
# Indices 1 2 3 4 5 6 
#
# 1 0.046943 -0.004024 -0.002877 0.000000 0.000000 0.000000
# 2 -0.004024 0.010973 -0.002478 0.000000 0.000000 0.000000
# 3 -0.002877 -0.002478 0.015019 0.000000 0.000000 0.000000
# 4 0.000000 0.000000 0.000000 0.022477 0.000000 0.000000
# 5 0.000000 0.000000 0.000000 0.000000 0.231557 0.000000
# 6 0.000000 0.000000 0.000000 0.000000 0.000000 0.058389
#
#
# Mechanical properties :
#
#
# Convention : Reuss Voigt Hill
#
# Bulk Modulus (GPa) = 18.45833 28.78826 23.62329
# Shear Modulus (GPa) = 11.84345 23.74293 17.79319
#
# Velocity S-wave (km/s) = 2.31386 3.27616 2.83612
# Velocity P-wave (km/s) = 3.93482 5.22732 4.62643
#
# Compressibility (1/GPa) = 0.05417608
#
# Stress axis : x y z
#
# Youngs Moduli (GPa) = 21.30253 91.13502 66.58159
#
# Poissons Ratio (x) = 0.36677 0.19157
# Poissons Ratio (y) = 0.08573 0.16497
# Poissons Ratio (z) = 0.06129 0.22580
#
# Static dielectric constant tensor:
#      x y z
#    x 2.091920 0.000000 0.000000 
#    y 0.000000 1.905580 0.000000 
#    z 0.000000 0.000000 1.862320 
# 
# From -- ./inp_files/70479.got.cif
#   From: 2010.05.17/outbox.cif.g08.bks.cpg/sg63_36_cif.got.tgz:70479.got - 2010.06.03 15:47:04.
