data_PCOD9470606
_publ_section_title
;
Structure prediction by ZEFSAII (Michael W. Deem and Ramdas Pophale) SiO2 
 PCOD9470606
Probable space group: C M C M
;
_chemical_formula_sum "Si O2"
_cell_formula_units_Z 96
_cell_length_a 21.482958
_cell_length_b 14.293327
_cell_length_c 17.202132
_cell_angle_alpha 90.000000
_cell_angle_beta 90.000000
_cell_angle_gamma 90.000000
_cell_volume 5282.137288
_symmetry_space_group_name_H-M "C M C M"
_symmetry_group_IT_number 63
_symmetry_cell_setting 'orthorhombic'
loop_
_space_group_symop_operation_xyz
x,y,z
-x,-y,1/2+z
x,-y,-z
-x,y,1/2-z
-x,-y,-z
x,y,1/2-z
-x,y,z
x,-y,1/2+z
1/2+x,1/2+y,z
1/2-x,1/2-y,1/2+z
1/2+x,1/2-y,-z
1/2-x,1/2+y,1/2-z
1/2-x,1/2-y,-z
1/2+x,1/2+y,1/2-z
1/2-x,1/2+y,z
1/2+x,1/2-y,1/2+z
loop_
_atom_site_type_symbol
_atom_site_label
_atom_site_fract_x
_atom_site_fract_y
_atom_site_fract_z
Si Si1 0.186917 0.434145 0.657832
Si Si2 0.690969 0.249488 0.057599
Si Si3 0.932474 0.955175 0.912690
Si Si4 0.570889 0.940499 0.342932
Si Si5 0.194931 0.964502 0.090295
Si Si6 0.070218 0.737695 0.952087
O O1 0.183947 0.423281 0.750000
O O2 0.197058 0.334472 0.617906
O O3 0.123152 0.485475 0.631791
O O4 0.244590 0.499180 0.633979
O O5 0.689565 0.353202 0.092339
O O6 0.750000 0.250000 0.000000
O O7 0.626636 0.232281 0.011959
O O8 0.927944 0.843211 0.918905
O O9 0.000000 0.979305 0.877482
O O10 0.869178 0.993190 0.876396
O O11 0.933040 0.000000 0.000000
O O12 0.577172 0.926229 0.250000
O O13 0.500000 0.973201 0.358024
O O14 0.578991 0.842430 0.387521
O O15 0.200417 0.000000 0.000000
O O16 0.000000 0.725462 0.985122
#
# Coordination Sequence:
#
# PCOD9470606 Si02
#       6
#    16  16  16  16  16  16
#     4  11  25  41  59  84 117 157 196 241 297 355
#     4  12  22  36  59  86 116 148 193 242 292 344
#     4   9  16  31  54  84 116 146 182 231 289 337
#     4   9  20  39  59  82 120 163 197 239 294 344
#     4  11  20  37  61  84 113 155 191 239 289 344
#     4  10  19  32  58  92 116 146 199 244 280 342
#
# _framework density 18.174461000000001
#
# number of rings (size 3 to 8) (size 9 to 14) (size 15 to 20)
#    0.000    1.667    5.000    1.000    0.000    1.333 
#    0.000    6.667    0.000    1.500    0.000    2.333 
#    0.000    0.000    0.000    0.000    0.000    0.000 
#
# Total GULP energy -267761.646131 kJ/mol
# GULP energy per Si atom -5578.367628 kJ/mol
# Density = 1.813310 g / cm^3
# Si number density = 18.174461 Si / 1000 Ang^3
#
#
#
# Elastic Constant Matrix: (Units=GPa)
#
#
# Indices 1 2 3 4 5 6 
#
# 1 160.1186 61.0978 47.2403 0.0000 0.0000 0.0000
# 2 61.0978 117.4146 49.9521 0.0000 0.0000 0.0000
# 3 47.2403 49.9521 31.1763 0.0000 0.0000 0.0000
# 4 0.0000 0.0000 0.0000 22.0373 0.0000 0.0000
# 5 0.0000 0.0000 0.0000 0.0000 31.3788 0.0000
# 6 0.0000 0.0000 0.0000 0.0000 0.0000 33.1169
#
#
#
# Elastic Compliance Matrix: (Units=1/GPa)
#
#
# Indices 1 2 3 4 5 6 
#
# 1 0.012071 0.004713 -0.025842 0.000000 0.000000 0.000000
# 2 0.004713 0.028593 -0.052953 0.000000 0.000000 0.000000
# 3 -0.025842 -0.052953 0.156078 0.000000 0.000000 0.000000
# 4 0.000000 0.000000 0.000000 0.045378 0.000000 0.000000
# 5 0.000000 0.000000 0.000000 0.000000 0.031869 0.000000
# 6 0.000000 0.000000 0.000000 0.000000 0.000000 0.030196
#
#
# Mechanical properties :
#
#
# Convention : Reuss Voigt Hill
#
# Bulk Modulus (GPa) = 20.58629 69.47663 45.03146
# Shear Modulus (GPa) = 10.67138 27.33454 19.00296
#
# Velocity S-wave (km/s) = 2.42577 3.88236 3.23706
# Velocity P-wave (km/s) = 4.38149 7.64249 6.22917
#
# Compressibility (1/GPa) = 0.04857603
#
# Stress axis : x y z
#
# Youngs Moduli (GPa) = 82.84017 34.97396 6.40705
#
# Poissons Ratio (x) = -0.16482 0.16557
# Poissons Ratio (y) = -0.39040 0.33928
# Poissons Ratio (z) = 2.14078 1.85199
#
# Static dielectric constant tensor:
#      x y z
#    x 1.657020 0.000000 0.000000 
#    y 0.000000 1.607270 0.000000 
#    z 0.000000 0.000000 1.575280 
# 
# From -- ./inp_files/35320.got.cif
#   From: 2010.05.17/outbox.cif.g08.bks.cpg/sg63_18_cif.got.tgz:35320.got - 2010.06.03 15:47:04.
