data_PCOD9470620
_publ_section_title
;
Structure prediction by ZEFSAII (Michael W. Deem and Ramdas Pophale) SiO2 
 PCOD9470620
Probable space group: C M C M
;
_chemical_formula_sum "Si O2"
_cell_formula_units_Z 96
_cell_length_a 26.257230
_cell_length_b 9.636136
_cell_length_c 22.797866
_cell_angle_alpha 90.000000
_cell_angle_beta 90.000000
_cell_angle_gamma 90.000000
_cell_volume 5768.275914
_symmetry_space_group_name_H-M "C M C M"
_symmetry_group_IT_number 63
_symmetry_cell_setting 'orthorhombic'
loop_
_space_group_symop_operation_xyz
x,y,z
-x,-y,1/2+z
x,-y,-z
-x,y,1/2-z
-x,-y,-z
x,y,1/2-z
-x,y,z
x,-y,1/2+z
1/2+x,1/2+y,z
1/2-x,1/2-y,1/2+z
1/2+x,1/2-y,-z
1/2-x,1/2+y,1/2-z
1/2-x,1/2-y,-z
1/2+x,1/2+y,1/2-z
1/2-x,1/2+y,z
1/2+x,1/2-y,1/2+z
loop_
_atom_site_type_symbol
_atom_site_label
_atom_site_fract_x
_atom_site_fract_y
_atom_site_fract_z
Si Si1 0.360944 0.699686 0.087539
Si Si2 0.836749 0.498636 0.623287
Si Si3 0.682635 0.051736 0.250000
Si Si4 0.854984 0.768446 0.447486
Si Si5 0.771128 0.153530 0.750000
Si Si6 0.784912 0.965479 0.375018
Si Si7 0.942430 0.977164 0.070358
O O1 0.314517 0.608472 0.113120
O O2 0.411841 0.608479 0.096089
O O3 0.361325 0.851546 0.114670
O O4 0.353650 0.716586 0.017458
O O5 0.846796 0.441979 0.688859
O O6 0.853422 0.387885 0.574999
O O7 0.775416 0.515414 0.618255
O O8 0.722327 0.180846 0.250000
O O9 0.713754 0.906571 0.250000
O O10 0.807646 0.853496 0.420216
O O11 0.905367 0.845506 0.423053
O O12 0.794733 0.092388 0.690391
O O13 0.000000 0.961296 0.092080
O O14 0.944872 0.000000 0.000000
#
# Coordination Sequence:
#
# PCOD9470620 Si02
#       7
#    16  16   8  16   8  16  16
#     4  10  21  31  49  78 103 133 166 201 254 308
#     4  11  21  32  48  73 107 136 169 208 244 289
#     4  10  22  34  50  68  97 139 182 216 241 273
#     4  10  19  33  49  75 105 133 168 202 247 311
#     4  10  20  34  50  68  93 137 184 218 235 275
#     4  10  20  32  49  69 103 141 173 203 237 289
#     4   8  16  34  55  72  96 128 165 209 251 298
#
# _framework density 16.642755000000001
#
# number of rings (size 3 to 8) (size 9 to 14) (size 15 to 20)
#    0.000    2.167    1.667    3.000    7.000    4.000 
#    0.000    0.833    0.000    4.000    0.000   22.167 
#    0.000    0.000    0.000    0.000    0.000    0.000 
#
# Total GULP energy -267657.053941 kJ/mol
# GULP energy per Si atom -5576.188624 kJ/mol
# Density = 1.660487 g / cm^3
# Si number density = 16.642755 Si / 1000 Ang^3
#
#
#
# Elastic Constant Matrix: (Units=GPa)
#
#
# Indices 1 2 3 4 5 6 
#
# 1 83.7956 28.6947 12.5403 0.0000 0.0000 0.0000
# 2 28.6947 98.7133 1.9561 0.0000 0.0000 0.0000
# 3 12.5403 1.9561 53.9279 0.0000 0.0000 0.0000
# 4 0.0000 0.0000 0.0000 26.5552 0.0000 0.0000
# 5 0.0000 0.0000 0.0000 0.0000 -5.3744 0.0000
# 6 0.0000 0.0000 0.0000 0.0000 0.0000 3.5522
#
#
#
# Elastic Compliance Matrix: (Units=1/GPa)
#
#
# Indices 1 2 3 4 5 6 
#
# 1 0.013737 -0.003933 -0.003052 0.000000 0.000000 0.000000
# 2 -0.003933 0.011264 0.000506 0.000000 0.000000 0.000000
# 3 -0.003052 0.000506 0.019235 0.000000 0.000000 0.000000
# 4 0.000000 0.000000 0.000000 0.037657 0.000000 0.000000
# 5 0.000000 0.000000 0.000000 0.000000 -0.186069 0.000000
# 6 0.000000 0.000000 0.000000 0.000000 0.000000 0.281513
#
#
# Mechanical properties :
#
#
# Convention : Reuss Voigt Hill
#
# Bulk Modulus (GPa) = 31.97118 35.86878 33.91998
# Shear Modulus (GPa) = 24.91033 17.82967 21.37000
#
# Velocity S-wave (km/s) = 3.87301 3.27665 3.58724
# Velocity P-wave (km/s) = 6.26516 5.99285 6.13051
#
# Compressibility (1/GPa) = 0.03127817
#
# Stress axis : x y z
#
# Youngs Moduli (GPa) = 72.79489 88.78211 51.98972
#
# Poissons Ratio (x) = 0.34916 0.15866
# Poissons Ratio (y) = 0.28629 -0.02631
# Poissons Ratio (z) = 0.22215 -0.04492
#
# Static dielectric constant tensor:
#      x y z
#    x 1.548150 0.000000 0.000000 
#    y 0.000000 1.568480 0.000000 
#    z 0.000000 0.000000 1.575570 
# 
# From -- ./inp_files/65005.got.cif
#   From: 2010.05.17/outbox.cif.g08.bks.cpg/sg63_33_cif.got.tgz:65005.got - 2010.06.03 15:47:04.
