data_PCOD9470380
_publ_section_title
;
Structure prediction by ZEFSAII (Michael W. Deem and Ramdas Pophale) SiO2 
 PCOD9470380
Probable space group: C M C M
;
_chemical_formula_sum "Si O2"
_cell_formula_units_Z 96
_cell_length_a 27.335773
_cell_length_b 23.513396
_cell_length_c 8.837591
_cell_angle_alpha 90.000000
_cell_angle_beta 90.000000
_cell_angle_gamma 90.000000
_cell_volume 5680.422201
_symmetry_space_group_name_H-M "C M C M"
_symmetry_group_IT_number 63
_symmetry_cell_setting 'orthorhombic'
loop_
_space_group_symop_operation_xyz
x,y,z
-x,-y,1/2+z
x,-y,-z
-x,y,1/2-z
-x,-y,-z
x,y,1/2-z
-x,y,z
x,-y,1/2+z
1/2+x,1/2+y,z
1/2-x,1/2-y,1/2+z
1/2+x,1/2-y,-z
1/2-x,1/2+y,1/2-z
1/2-x,1/2-y,-z
1/2+x,1/2+y,1/2-z
1/2-x,1/2+y,z
1/2+x,1/2-y,1/2+z
loop_
_atom_site_type_symbol
_atom_site_label
_atom_site_fract_x
_atom_site_fract_y
_atom_site_fract_z
Si Si1 0.124318 0.344062 0.423359
Si Si2 0.695986 0.247441 0.432615
Si Si3 0.055277 0.937191 0.930465
Si Si4 0.557223 0.736292 0.084929
Si Si5 0.944136 0.563114 0.431637
Si Si6 0.878555 0.844676 0.424020
O O1 0.138509 0.357797 0.250000
O O2 0.167384 0.308321 0.505307
O O3 0.081089 0.297679 0.418267
O O4 0.099391 0.397469 0.505250
O O5 0.696195 0.245745 0.250000
O O6 0.750000 0.250000 0.500000
O O7 0.666916 0.305603 0.478907
O O8 0.057121 0.940517 0.750000
O O9 0.000000 0.914644 0.970455
O O10 0.100038 0.898897 0.989178
O O11 0.058573 0.000000 0.000000
O O12 0.571203 0.709708 0.250000
O O13 0.500000 0.739913 0.079470
O O14 0.577722 0.700286 0.947397
O O15 0.939567 0.500000 0.500000
O O16 0.941301 0.561084 0.250000
O O17 0.000000 0.583308 0.471095
O O18 0.870270 0.859527 0.250000
#
# Coordination Sequence:
#
# PCOD9470380 Si02
#       6
#    16  16  16  16  16  16
#     4  10  19  32  51  74 101 133 169 210 256 306
#     4  10  21  37  56  78 102 130 167 212 264 315
#     4  10  20  33  50  73 103 139 175 207 241 287
#     4   9  17  28  43  66  97 131 164 198 240 293
#     4  10  20  33  50  74 106 143 180 215 251 297
#     4  10  20  32  48  72 100 129 164 206 250 298
#
# _framework density 16.900153
#
# number of rings (size 3 to 8) (size 9 to 14) (size 15 to 20)
#    0.000    2.167    0.000    3.500    0.000    7.667 
#    0.000    0.000    0.000    1.000    0.000    2.333 
#    0.000    0.000    0.000    0.000    0.000    0.000 
#
# Total GULP energy -267340.211148 kJ/mol
# GULP energy per Si atom -5569.587732 kJ/mol
# Density = 1.686169 g / cm^3
# Si number density = 16.900153 Si / 1000 Ang^3
#
#
#
# Elastic Constant Matrix: (Units=GPa)
#
#
# Indices 1 2 3 4 5 6 
#
# 1 121.6065 61.5098 47.5625 0.0000 0.0000 0.0000
# 2 61.5098 74.7981 41.1493 0.0000 0.0000 0.0000
# 3 47.5625 41.1493 72.4307 0.0000 0.0000 0.0000
# 4 0.0000 0.0000 0.0000 30.6548 0.0000 0.0000
# 5 0.0000 0.0000 0.0000 0.0000 23.3498 0.0000
# 6 0.0000 0.0000 0.0000 0.0000 0.0000 19.7755
#
#
#
# Elastic Compliance Matrix: (Units=1/GPa)
#
#
# Indices 1 2 3 4 5 6 
#
# 1 0.014872 -0.009975 -0.004099 0.000000 0.000000 0.000000
# 2 -0.009975 0.026138 -0.008299 0.000000 0.000000 0.000000
# 3 -0.004099 -0.008299 0.021213 0.000000 0.000000 0.000000
# 4 0.000000 0.000000 0.000000 0.032621 0.000000 0.000000
# 5 0.000000 0.000000 0.000000 0.000000 0.042827 0.000000
# 6 0.000000 0.000000 0.000000 0.000000 0.000000 0.050568
#
#
# Mechanical properties :
#
#
# Convention : Reuss Voigt Hill
#
# Bulk Modulus (GPa) = 57.21970 63.25316 60.23643
# Shear Modulus (GPa) = 20.93717 22.66359 21.80038
#
# Velocity S-wave (km/s) = 3.52358 3.66598 3.59549
# Velocity P-wave (km/s) = 7.10529 7.44500 7.27713
#
# Compressibility (1/GPa) = 0.01747650
#
# Stress axis : x y z
#
# Youngs Moduli (GPa) = 67.24185 38.25877 47.14118
#
# Poissons Ratio (x) = 0.38162 0.19322
# Poissons Ratio (y) = 0.67072 0.39124
# Poissons Ratio (z) = 0.27561 0.31752
#
# Static dielectric constant tensor:
#      x y z
#    x 1.563910 0.000000 0.000000 
#    y 0.000000 1.723840 0.000000 
#    z 0.000000 0.000000 1.622310 
# 
# From -- ./inp_files/12729.got.cif
#   From: 2010.05.17/outbox.cif.g08.bks.cpg/sg63_7_cif.got.tgz:12729.got - 2010.06.03 15:47:04.
