data_PCOD9470025
_publ_section_title
;
Structure prediction by ZEFSAII (Michael W. Deem and Ramdas Pophale) SiO2 
 PCOD9470025
Probable space group: C M C M
;
_chemical_formula_sum "Si O2"
_cell_formula_units_Z 96
_cell_length_a 9.333085
_cell_length_b 22.980068
_cell_length_c 26.928264
_cell_angle_alpha 90.000000
_cell_angle_beta 90.000000
_cell_angle_gamma 90.000000
_cell_volume 5775.437481
_symmetry_space_group_name_H-M "C M C M"
_symmetry_group_IT_number 63
_symmetry_cell_setting 'orthorhombic'
loop_
_space_group_symop_operation_xyz
x,y,z
-x,-y,1/2+z
x,-y,-z
-x,y,1/2-z
-x,-y,-z
x,y,1/2-z
-x,y,z
x,-y,1/2+z
1/2+x,1/2+y,z
1/2-x,1/2-y,1/2+z
1/2+x,1/2-y,-z
1/2-x,1/2+y,1/2-z
1/2-x,1/2-y,-z
1/2+x,1/2+y,1/2-z
1/2-x,1/2+y,z
1/2+x,1/2-y,1/2+z
loop_
_atom_site_type_symbol
_atom_site_label
_atom_site_fract_x
_atom_site_fract_y
_atom_site_fract_z
Si Si1 0.336029 0.148115 0.250000
Si Si2 0.328453 0.035131 0.949728
Si Si3 0.336156 0.172100 0.540171
Si Si4 0.168849 0.008979 0.148809
Si Si5 0.664289 0.221064 0.071896
Si Si6 0.333633 0.006597 0.250000
Si Si7 0.166734 0.850838 0.652060
O O1 0.500000 0.167478 0.250000
O O2 0.335528 0.077340 0.250000
O O3 0.252105 0.166879 0.298794
O O4 0.500000 0.026128 0.942378
O O5 0.303131 0.103870 0.957360
O O6 0.243981 0.014605 0.900924
O O7 0.288415 0.000000 0.000000
O O8 0.500000 0.180650 0.558020
O O9 0.332019 0.193776 0.483274
O O10 0.228370 0.214112 0.569075
O O11 0.250470 0.989684 0.199368
O O12 0.178619 0.079329 0.146817
O O13 0.000000 0.993771 0.150904
O O14 0.500000 0.221001 0.088904
O O15 0.761699 0.181162 0.106162
O O16 0.500000 0.987293 0.250000
O O17 0.000000 0.836429 0.656391
#
# Coordination Sequence:
#
# PCOD9470025 Si02
#       7
#     8  16  16  16  16   8  16
#     4   9  17  29  47  72  99 126 161 203 242 286
#     4  10  20  34  52  74 103 137 170 205 247 299
#     4   9  19  34  50  71  99 130 164 202 245 291
#     4  10  20  32  49  75 105 134 166 208 253 296
#     4  10  19  32  52  73  95 127 166 205 242 288
#     4   9  17  31  51  72  97 132 171 207 246 296
#     4  10  19  31  48  72 102 132 161 198 247 294
#
# _framework density 16.622118
#
# number of rings (size 3 to 8) (size 9 to 14) (size 15 to 20)
#    0.000    2.333    0.000    3.000    0.000    7.000 
#    0.000    0.000    0.000    1.000    0.000    1.167 
#    0.000    0.000    0.000    0.000    0.000    0.000 
#
# Total GULP energy -267667.517219 kJ/mol
# GULP energy per Si atom -5576.406609 kJ/mol
# Density = 1.658429 g / cm^3
# Si number density = 16.622118 Si / 1000 Ang^3
#
#
#
# Elastic Constant Matrix: (Units=GPa)
#
#
# Indices 1 2 3 4 5 6 
#
# 1 138.1109 54.2305 69.1436 0.0000 0.0000 0.0000
# 2 54.2305 50.6729 32.0870 0.0000 0.0000 0.0000
# 3 69.1436 32.0870 92.1481 0.0000 0.0000 0.0000
# 4 0.0000 0.0000 0.0000 16.0547 0.0000 0.0000
# 5 0.0000 0.0000 0.0000 0.0000 32.4416 0.0000
# 6 0.0000 0.0000 0.0000 0.0000 0.0000 21.7738
#
#
#
# Elastic Compliance Matrix: (Units=1/GPa)
#
#
# Indices 1 2 3 4 5 6 
#
# 1 0.015820 -0.012077 -0.007665 0.000000 0.000000 0.000000
# 2 -0.012077 0.034536 -0.002964 0.000000 0.000000 0.000000
# 3 -0.007665 -0.002964 0.017636 0.000000 0.000000 0.000000
# 4 0.000000 0.000000 0.000000 0.062287 0.000000 0.000000
# 5 0.000000 0.000000 0.000000 0.000000 0.030825 0.000000
# 6 0.000000 0.000000 0.000000 0.000000 0.000000 0.045927
#
#
# Mechanical properties :
#
#
# Convention : Reuss Voigt Hill
#
# Bulk Modulus (GPa) = 44.28756 65.76156 55.02456
# Shear Modulus (GPa) = 19.23298 22.41876 20.82587
#
# Velocity S-wave (km/s) = 3.40527 3.67649 3.54347
# Velocity P-wave (km/s) = 6.49328 7.59412 7.06517
#
# Compressibility (1/GPa) = 0.02257970
#
# Stress axis : x y z
#
# Youngs Moduli (GPa) = 63.20965 28.95516 56.70254
#
# Poissons Ratio (x) = 0.34970 0.43465
# Poissons Ratio (y) = 0.76339 0.16805
# Poissons Ratio (z) = 0.48453 0.08582
#
# Static dielectric constant tensor:
#      x y z
#    x 1.561980 0.000000 0.000000 
#    y 0.000000 1.534860 0.000000 
#    z 0.000000 0.000000 1.550330 
# 
# From -- ./inp_files/60040.got.cif
#   From: 2010.05.17/outbox.cif.g08.bks.cpg/sg63_31_cif.got.tgz:60040.got - 2010.06.03 15:47:04.
