data_PCOD9470388
_publ_section_title
;
Structure prediction by ZEFSAII (Michael W. Deem and Ramdas Pophale) SiO2 
 PCOD9470388
Probable space group: C M C M
;
_chemical_formula_sum "Si O2"
_cell_formula_units_Z 80
_cell_length_a 7.522284
_cell_length_b 17.959908
_cell_length_c 27.890589
_cell_angle_alpha 90.000000
_cell_angle_beta 90.000000
_cell_angle_gamma 90.000000
_cell_volume 3768.005426
_symmetry_space_group_name_H-M "C M C M"
_symmetry_group_IT_number 63
_symmetry_cell_setting 'orthorhombic'
loop_
_space_group_symop_operation_xyz
x,y,z
-x,-y,1/2+z
x,-y,-z
-x,y,1/2-z
-x,-y,-z
x,y,1/2-z
-x,y,z
x,-y,1/2+z
1/2+x,1/2+y,z
1/2-x,1/2-y,1/2+z
1/2+x,1/2-y,-z
1/2-x,1/2+y,1/2-z
1/2-x,1/2-y,-z
1/2+x,1/2+y,1/2-z
1/2-x,1/2+y,z
1/2+x,1/2-y,1/2+z
loop_
_atom_site_type_symbol
_atom_site_label
_atom_site_fract_x
_atom_site_fract_y
_atom_site_fract_z
Si Si1 0.786997 0.085995 0.352027
Si Si2 0.795213 0.413632 0.146573
Si Si3 0.712362 0.177688 0.447238
Si Si4 0.203461 0.651066 0.950162
Si Si5 0.781872 0.570134 0.750000
Si Si6 0.296180 0.394541 0.750000
O O1 0.747955 0.131990 0.399484
O O2 0.720187 0.123958 0.302441
O O3 0.000000 0.077817 0.347366
O O4 0.709222 0.003186 0.355992
O O5 0.711615 0.382738 0.097742
O O6 0.723224 0.394436 0.199569
O O7 0.000000 0.387264 0.147020
O O8 0.500000 0.187490 0.452506
O O9 0.794102 0.259755 0.444258
O O10 0.778510 0.138748 0.496415
O O11 0.000000 0.622686 0.951622
O O12 0.712613 0.485133 0.750000
O O13 0.000000 0.566418 0.750000
O O14 0.500000 0.368046 0.750000
#
# Coordination Sequence:
#
# PCOD9470388 Si02
#       6
#    16  16  16  16   8   8
#     4  10  19  32  51  74  99 126 159 198 239 285
#     4   9  17  31  51  74  98 124 157 196 238 284
#     4  10  20  34  51  70  95 129 166 202 242 287
#     4   9  19  35  52  69  95 131 165 199 242 291
#     4   8  14  26  47  72  95 121 153 191 235 282
#     4   8  16  30  47  68  95 127 157 189 235 286
#
# _framework density 21.231392
#
# number of rings (size 3 to 8) (size 9 to 14) (size 15 to 20)
#    0.000    2.800    0.000    1.200    0.000    3.200 
#    0.000    5.000    0.000    3.600    0.000    0.000 
#    0.000    0.000    0.000    0.000    0.000    0.000 
#
# Total GULP energy -222814.879334 kJ/mol
# GULP energy per Si atom -5570.371983 kJ/mol
# Density = 2.118307 g / cm^3
# Si number density = 21.231392 Si / 1000 Ang^3
#
#
#
# Elastic Constant Matrix: (Units=GPa)
#
#
# Indices 1 2 3 4 5 6 
#
# 1 70.7807 -10.4898 -3.9942 0.0000 0.0000 0.0000
# 2 -10.4898 13.6006 54.5821 0.0000 0.0000 0.0000
# 3 -3.9942 54.5821 280.4687 0.0000 0.0000 0.0000
# 4 0.0000 0.0000 0.0000 148.0834 0.0000 0.0000
# 5 0.0000 0.0000 0.0000 0.0000 4.0250 0.0000
# 6 0.0000 0.0000 0.0000 0.0000 0.0000 13.0341
#
#
#
# Elastic Compliance Matrix: (Units=1/GPa)
#
#
# Indices 1 2 3 4 5 6 
#
# 1 0.025607 0.083506 -0.015886 0.000000 0.000000 0.000000
# 2 0.083506 0.608072 -0.117148 0.000000 0.000000 0.000000
# 3 -0.015886 -0.117148 0.026137 0.000000 0.000000 0.000000
# 4 0.000000 0.000000 0.000000 0.006753 0.000000 0.000000
# 5 0.000000 0.000000 0.000000 0.000000 0.248450 0.000000
# 6 0.000000 0.000000 0.000000 0.000000 0.000000 0.076722
#
#
# Mechanical properties :
#
#
# Convention : Reuss Voigt Hill
#
# Bulk Modulus (GPa) = 1.78329 49.44958 25.61644
# Shear Modulus (GPa) = 3.91323 54.67863 29.29593
#
# Velocity S-wave (km/s) = 1.35909 5.08031 3.71865
# Velocity P-wave (km/s) = 1.81786 7.59961 5.52534
#
# Compressibility (1/GPa) = 0.56076014
#
# Stress axis : x y z
#
# Youngs Moduli (GPa) = 39.05130 1.64454 38.25940
#
# Poissons Ratio (x) = -0.13733 0.60781
# Poissons Ratio (y) = -3.26102 4.48200
# Poissons Ratio (z) = 0.62039 0.19265
#
# Static dielectric constant tensor:
#      x y z
#    x 1.917830 0.000000 0.000000 
#    y 0.000000 1.690630 0.000000 
#    z 0.000000 0.000000 1.863000 
# 
# From -- ./inp_files/59519.got.cif
#   From: 2010.05.17/outbox.cif.g08.bks.cpg/sg63_30_cif.got.tgz:59519.got - 2010.06.03 15:47:04.
