data_PCOD9470210
_publ_section_title
;
Structure prediction by ZEFSAII (Michael W. Deem and Ramdas Pophale) SiO2 
 PCOD9470210
Probable space group: C M C M
;
_chemical_formula_sum "Si O2"
_cell_formula_units_Z 104
_cell_length_a 26.246212
_cell_length_b 22.293302
_cell_length_c 9.455710
_cell_angle_alpha 90.000000
_cell_angle_beta 90.000000
_cell_angle_gamma 90.000000
_cell_volume 5532.675208
_symmetry_space_group_name_H-M "C M C M"
_symmetry_group_IT_number 63
_symmetry_cell_setting 'orthorhombic'
loop_
_space_group_symop_operation_xyz
x,y,z
-x,-y,1/2+z
x,-y,-z
-x,y,1/2-z
-x,-y,-z
x,y,1/2-z
-x,y,z
x,-y,1/2+z
1/2+x,1/2+y,z
1/2-x,1/2-y,1/2+z
1/2+x,1/2-y,-z
1/2-x,1/2+y,1/2-z
1/2-x,1/2-y,-z
1/2+x,1/2+y,1/2-z
1/2-x,1/2+y,z
1/2+x,1/2-y,1/2+z
loop_
_atom_site_type_symbol
_atom_site_label
_atom_site_fract_x
_atom_site_fract_y
_atom_site_fract_z
Si Si1 0.500000 0.063353 0.420553
Si Si2 0.875112 0.839618 0.413093
Si Si3 0.188939 0.405492 0.589011
Si Si4 0.205984 0.734317 0.398280
Si Si5 0.559551 0.253681 0.914286
Si Si6 0.192307 0.937573 0.579028
Si Si7 0.094502 0.381036 0.417585
O O1 0.500000 0.059034 0.250000
O O2 0.549595 0.096728 0.480728
O O3 0.500000 0.000000 0.500000
O O4 0.883964 0.859589 0.250000
O O5 0.838241 0.782083 0.406857
O O6 0.923606 0.809665 0.489418
O O7 0.844709 0.888504 0.506362
O O8 0.177114 0.427108 0.750000
O O9 0.188415 0.333394 0.592846
O O10 0.247176 0.423627 0.554716
O O11 0.145297 0.415576 0.472368
O O12 0.233005 0.741329 0.250000
O O13 0.250000 0.750000 0.500000
O O14 0.565919 0.271091 0.750000
O O15 0.500000 0.238847 0.937995
O O16 0.591798 0.191915 0.932474
O O17 0.185258 0.939603 0.750000
O O18 0.181733 0.000000 0.500000
O O19 0.085905 0.393138 0.250000
#
# Coordination Sequence:
#
# PCOD9470210 Si02
#       7
#     8  16  16  16  16  16  16
#     4  12  26  44  64  82 112 158 209 258 303 356
#     4  11  22  36  59  90 121 154 199 246 301 366
#     4  10  21  37  56  85 121 159 200 244 296 350
#     4  10  19  31  51  82 117 150 189 234 286 344
#     4  10  21  38  60  89 125 159 196 245 305 365
#     4  11  24  42  62  84 119 162 206 250 298 359
#     4  11  22  38  61  90 123 159 203 252 304 356
#
# _framework density 18.797415000000001
#
# number of rings (size 3 to 8) (size 9 to 14) (size 15 to 20)
#    0.000    1.385    3.846    2.077    0.000    4.000 
#    0.000    1.538    0.000    0.462    0.000    0.000 
#    0.000    0.000    0.000    0.000    0.000    0.000 
#
# Total GULP energy -289687.835809 kJ/mol
# GULP energy per Si atom -5570.919919 kJ/mol
# Density = 1.875463 g / cm^3
# Si number density = 18.797415 Si / 1000 Ang^3
#
#
#
# Elastic Constant Matrix: (Units=GPa)
#
#
# Indices 1 2 3 4 5 6 
#
# 1 47.3873 -0.1649 49.7516 0.0000 0.0000 0.0000
# 2 -0.1649 64.5419 40.2902 0.0000 0.0000 0.0000
# 3 49.7516 40.2902 146.1399 0.0000 0.0000 0.0000
# 4 0.0000 0.0000 0.0000 28.3841 0.0000 0.0000
# 5 0.0000 0.0000 0.0000 0.0000 32.1036 0.0000
# 6 0.0000 0.0000 0.0000 0.0000 0.0000 -38.2371
#
#
#
# Elastic Compliance Matrix: (Units=1/GPa)
#
#
# Indices 1 2 3 4 5 6 
#
# 1 0.037252 0.009678 -0.015350 0.000000 0.000000 0.000000
# 2 0.009678 0.021229 -0.009147 0.000000 0.000000 0.000000
# 3 -0.015350 -0.009147 0.014590 0.000000 0.000000 0.000000
# 4 0.000000 0.000000 0.000000 0.035231 0.000000 0.000000
# 5 0.000000 0.000000 0.000000 0.000000 0.031149 0.000000
# 6 0.000000 0.000000 0.000000 0.000000 0.000000 -0.026153
#
#
# Mechanical properties :
#
#
# Convention : Reuss Voigt Hill
#
# Bulk Modulus (GPa) = 23.02463 48.64699 35.83581
# Shear Modulus (GPa) = 31.76288 15.66293 23.71291
#
# Velocity S-wave (km/s) = 4.11511 2.88974 3.55561
# Velocity P-wave (km/s) = 5.90375 6.08851 5.99684
#
# Compressibility (1/GPa) = 0.04343175
#
# Stress axis : x y z
#
# Youngs Moduli (GPa) = 26.84384 47.10595 68.53800
#
# Poissons Ratio (x) = -0.45587 1.05208
# Poissons Ratio (y) = -0.25978 0.62694
# Poissons Ratio (z) = 0.41206 0.43089
#
# Static dielectric constant tensor:
#      x y z
#    x 1.662650 0.000000 0.000000 
#    y 0.000000 1.665330 0.000000 
#    z 0.000000 0.000000 1.670400 
# 
# From -- ./inp_files/12551.got.cif
#   From: 2010.05.17/outbox.cif.g08.bks.cpg/sg63_7_cif.got.tgz:12551.got - 2010.06.03 15:47:04.
