data_PCOD9470446
_publ_section_title
;
Structure prediction by ZEFSAII (Michael W. Deem and Ramdas Pophale) SiO2 
 PCOD9470446
Probable space group: C M C M
;
_chemical_formula_sum "Si O2"
_cell_formula_units_Z 112
_cell_length_a 13.642024
_cell_length_b 17.901339
_cell_length_c 28.069196
_cell_angle_alpha 90.000000
_cell_angle_beta 90.000000
_cell_angle_gamma 90.000000
_cell_volume 6854.792285
_symmetry_space_group_name_H-M "C M C M"
_symmetry_group_IT_number 63
_symmetry_cell_setting 'orthorhombic'
loop_
_space_group_symop_operation_xyz
x,y,z
-x,-y,1/2+z
x,-y,-z
-x,y,1/2-z
-x,-y,-z
x,y,1/2-z
-x,y,z
x,-y,1/2+z
1/2+x,1/2+y,z
1/2-x,1/2-y,1/2+z
1/2+x,1/2-y,-z
1/2-x,1/2+y,1/2-z
1/2-x,1/2-y,-z
1/2+x,1/2+y,1/2-z
1/2-x,1/2+y,z
1/2+x,1/2-y,1/2+z
loop_
_atom_site_type_symbol
_atom_site_label
_atom_site_fract_x
_atom_site_fract_y
_atom_site_fract_z
Si Si1 0.753666 0.947798 0.125889
Si Si2 0.112554 0.690414 0.016425
Si Si3 0.750861 0.299673 0.428194
Si Si4 0.382310 0.552546 0.193602
Si Si5 0.613952 0.867699 0.197981
Si Si6 0.114504 0.786418 0.646314
Si Si7 0.111162 0.471382 0.945771
O O1 0.789433 0.871748 0.099935
O O2 0.669587 0.916508 0.160136
O O3 0.829363 0.993116 0.158843
O O4 0.697819 0.998257 0.087022
O O5 0.166126 0.757326 0.043454
O O6 0.115914 0.617805 0.049820
O O7 0.000000 0.707147 0.005303
O O8 0.170565 0.673809 0.967710
O O9 0.810331 0.241567 0.394372
O O10 0.353415 0.548537 0.250000
O O11 0.500000 0.541953 0.192064
O O12 0.362124 0.634797 0.171184
O O13 0.656559 0.880208 0.250000
O O14 0.500000 0.887471 0.197835
O O15 0.619784 0.780537 0.184552
O O16 0.000000 0.789210 0.629411
O O17 0.000000 0.493231 0.929811
O O18 0.121136 0.500000 0.000000
#
# Coordination Sequence:
#
# PCOD9470446 Si02
#       7
#    16  16  16  16  16  16  16
#     4  11  20  32  51  74 102 131 167 207 246 297
#     4  10  20  34  50  69 100 134 168 204 245 294
#     4  10  20  32  50  75  98 129 166 208 249 290
#     4  10  21  36  53  73 100 136 172 205 245 295
#     4   9  17  29  48  75 101 123 155 206 262 304
#     4   9  17  31  52  73  96 125 163 206 251 298
#     4  10  19  32  52  76 102 134 167 203 250 304
#
# _framework density 16.338933999999998
#
# number of rings (size 3 to 8) (size 9 to 14) (size 15 to 20)
#    0.000    2.143    1.429    2.571    0.000    3.429 
#    0.000    0.000    0.000    0.429    0.000    0.000 
#    0.000    4.571    0.000    0.000    0.000    0.000 
#
# Total GULP energy -312002.781038 kJ/mol
# GULP energy per Si atom -5571.478233 kJ/mol
# Density = 1.630175 g / cm^3
# Si number density = 16.338934 Si / 1000 Ang^3
#
#
#
# Elastic Constant Matrix: (Units=GPa)
#
#
# Indices 1 2 3 4 5 6 
#
# 1 46.5582 41.9649 19.4941 0.0000 0.0000 0.0000
# 2 41.9649 83.9236 39.6071 0.0000 0.0000 0.0000
# 3 19.4941 39.6071 69.5881 0.0000 0.0000 0.0000
# 4 0.0000 0.0000 0.0000 14.5898 0.0000 0.0000
# 5 0.0000 0.0000 0.0000 0.0000 -25.9920 0.0000
# 6 0.0000 0.0000 0.0000 0.0000 0.0000 16.3224
#
#
#
# Elastic Compliance Matrix: (Units=1/GPa)
#
#
# Indices 1 2 3 4 5 6 
#
# 1 0.039105 -0.019667 0.000239 0.000000 0.000000 0.000000
# 2 -0.019667 0.026182 -0.009393 0.000000 0.000000 0.000000
# 3 0.000239 -0.009393 0.019649 0.000000 0.000000 0.000000
# 4 0.000000 0.000000 0.000000 0.068541 0.000000 0.000000
# 5 0.000000 0.000000 0.000000 0.000000 -0.038473 0.000000
# 6 0.000000 0.000000 0.000000 0.000000 0.000000 0.061266
#
#
# Mechanical properties :
#
#
# Convention : Reuss Voigt Hill
#
# Bulk Modulus (GPa) = 36.63590 44.68913 40.66252
# Shear Modulus (GPa) = 20.57531 7.58429 14.07980
#
# Velocity S-wave (km/s) = 3.55249 2.15683 2.93871
# Velocity P-wave (km/s) = 6.26881 5.79769 6.03785
#
# Compressibility (1/GPa) = 0.02729563
#
# Stress axis : x y z
#
# Youngs Moduli (GPa) = 25.57230 38.19349 50.89201
#
# Poissons Ratio (x) = 0.75113 -0.01216
# Poissons Ratio (y) = 0.50292 0.47802
# Poissons Ratio (z) = -0.00611 0.35875
#
# Static dielectric constant tensor:
#      x y z
#    x 1.530950 0.000000 0.000000 
#    y 0.000000 1.554350 0.000000 
#    z 0.000000 0.000000 1.558370 
# 
# From -- ./inp_files/69358.got.cif
#   From: 2010.05.17/outbox.cif.g08.bks.cpg/sg63_35_cif.got.tgz:69358.got - 2010.06.03 15:47:04.
