data_PCOD9470403
_publ_section_title
;
Structure prediction by ZEFSAII (Michael W. Deem and Ramdas Pophale) SiO2 
 PCOD9470403
Probable space group: C M C M
;
_chemical_formula_sum "Si O2"
_cell_formula_units_Z 112
_cell_length_a 21.636428
_cell_length_b 15.678006
_cell_length_c 18.789287
_cell_angle_alpha 90.000000
_cell_angle_beta 90.000000
_cell_angle_gamma 90.000000
_cell_volume 6373.627681
_symmetry_space_group_name_H-M "C M C M"
_symmetry_group_IT_number 63
_symmetry_cell_setting 'orthorhombic'
loop_
_space_group_symop_operation_xyz
x,y,z
-x,-y,1/2+z
x,-y,-z
-x,y,1/2-z
-x,-y,-z
x,y,1/2-z
-x,y,z
x,-y,1/2+z
1/2+x,1/2+y,z
1/2-x,1/2-y,1/2+z
1/2+x,1/2-y,-z
1/2-x,1/2+y,1/2-z
1/2-x,1/2-y,-z
1/2+x,1/2+y,1/2-z
1/2-x,1/2+y,z
1/2+x,1/2-y,1/2+z
loop_
_atom_site_type_symbol
_atom_site_label
_atom_site_fract_x
_atom_site_fract_y
_atom_site_fract_z
Si Si1 0.875510 0.821156 0.329164
Si Si2 0.705690 0.552309 0.899815
Si Si3 0.071499 0.238988 0.973522
Si Si4 0.071434 0.568616 0.437097
Si Si5 0.758219 0.303910 0.671757
Si Si6 0.175847 0.512901 0.329813
Si Si7 0.678810 0.637084 0.045145
O O1 0.902054 0.813922 0.250000
O O2 0.843279 0.911506 0.343686
O O3 0.920418 0.799142 0.393955
O O4 0.816819 0.757745 0.334614
O O5 0.774514 0.547013 0.868638
O O6 0.680641 0.458787 0.922279
O O7 0.707570 0.616050 0.967498
O O8 0.091439 0.338196 0.965910
O O9 0.000000 0.236661 0.995235
O O10 0.114761 0.183471 0.025345
O O11 0.073847 0.500000 0.500000
O O12 0.115599 0.534112 0.375453
O O13 0.000000 0.577647 0.413396
O O14 0.728529 0.287228 0.750000
O O15 0.787103 0.398170 0.674466
O O16 0.715464 0.305029 0.601973
O O17 0.161617 0.483533 0.250000
#
# Coordination Sequence:
#
# PCOD9470403 Si02
#       7
#    16  16  16  16  16  16  16
#     4  10  19  33  52  80 112 138 171 218 272 328
#     4   9  19  32  50  79 109 137 175 216 270 317
#     4  10  21  37  56  76 103 143 186 224 265 316
#     4  10  22  36  52  77 108 143 183 227 267 316
#     4   9  18  31  49  77 107 136 172 217 270 321
#     4  10  19  32  51  76 106 142 175 214 264 321
#     4   9  19  35  52  78 104 144 179 218 266 316
#
# _framework density 17.572410999999999
#
# number of rings (size 3 to 8) (size 9 to 14) (size 15 to 20)
#    0.000    2.429    1.429    0.429    4.000    4.571 
#    0.000    7.143    0.000    0.429    0.000    2.000 
#    0.000    0.000    0.000    0.000    0.000    0.000 
#
# Total GULP energy -311864.245805 kJ/mol
# GULP energy per Si atom -5569.004389 kJ/mol
# Density = 1.753242 g / cm^3
# Si number density = 17.572411 Si / 1000 Ang^3
#
#
#
# Elastic Constant Matrix: (Units=GPa)
#
#
# Indices 1 2 3 4 5 6 
#
# 1 66.8971 20.6588 40.1581 0.0000 0.0000 0.0000
# 2 20.6588 33.1646 15.3291 0.0000 0.0000 0.0000
# 3 40.1581 15.3291 76.0610 0.0000 0.0000 0.0000
# 4 0.0000 0.0000 0.0000 10.5807 0.0000 0.0000
# 5 0.0000 0.0000 0.0000 0.0000 6.4938 0.0000
# 6 0.0000 0.0000 0.0000 0.0000 0.0000 19.1430
#
#
#
# Elastic Compliance Matrix: (Units=1/GPa)
#
#
# Indices 1 2 3 4 5 6 
#
# 1 0.024725 -0.010330 -0.010972 0.000000 0.000000 0.000000
# 2 -0.010330 0.037566 -0.002117 0.000000 0.000000 0.000000
# 3 -0.010972 -0.002117 0.019367 0.000000 0.000000 0.000000
# 4 0.000000 0.000000 0.000000 0.094512 0.000000 0.000000
# 5 0.000000 0.000000 0.000000 0.000000 0.153994 0.000000
# 6 0.000000 0.000000 0.000000 0.000000 0.000000 0.052239
#
#
# Mechanical properties :
#
#
# Convention : Reuss Voigt Hill
#
# Bulk Modulus (GPa) = 28.71961 36.49053 32.60507
# Shear Modulus (GPa) = 11.34180 13.90860 12.62520
#
# Velocity S-wave (km/s) = 2.54329 2.81642 2.68333
# Velocity P-wave (km/s) = 5.00035 5.60242 5.30993
#
# Compressibility (1/GPa) = 0.03481941
#
# Stress axis : x y z
#
# Youngs Moduli (GPa) = 40.44489 26.61988 51.63427
#
# Poissons Ratio (x) = 0.27499 0.56654
# Poissons Ratio (y) = 0.41780 0.10931
# Poissons Ratio (z) = 0.44377 0.05635
#
# Static dielectric constant tensor:
#      x y z
#    x 1.576450 0.000000 0.000000 
#    y 0.000000 1.653180 0.000000 
#    z 0.000000 0.000000 1.639430 
# 
# From -- ./inp_files/47305.got.cif
#   From: 2010.05.17/outbox.cif.g08.bks.cpg/sg63_24_cif.got.tgz:47305.got - 2010.06.03 15:47:04.
