data_PCOD9470296
_publ_section_title
;
Structure prediction by ZEFSAII (Michael W. Deem and Ramdas Pophale) SiO2 
 PCOD9470296
Probable space group: C M C M
;
_chemical_formula_sum "Si O2"
_cell_formula_units_Z 128
_cell_length_a 23.676315
_cell_length_b 19.307243
_cell_length_c 18.351466
_cell_angle_alpha 90.000000
_cell_angle_beta 90.000000
_cell_angle_gamma 90.000000
_cell_volume 8388.902280
_symmetry_space_group_name_H-M "C M C M"
_symmetry_group_IT_number 63
_symmetry_cell_setting 'orthorhombic'
loop_
_space_group_symop_operation_xyz
x,y,z
-x,-y,1/2+z
x,-y,-z
-x,y,1/2-z
-x,-y,-z
x,y,1/2-z
-x,y,z
x,-y,1/2+z
1/2+x,1/2+y,z
1/2-x,1/2-y,1/2+z
1/2+x,1/2-y,-z
1/2-x,1/2+y,1/2-z
1/2-x,1/2-y,-z
1/2+x,1/2+y,1/2-z
1/2-x,1/2+y,z
1/2+x,1/2-y,1/2+z
loop_
_atom_site_type_symbol
_atom_site_label
_atom_site_fract_x
_atom_site_fract_y
_atom_site_fract_z
Si Si1 0.841135 0.613622 0.069159
Si Si2 0.781877 0.271601 0.836712
Si Si3 0.624989 0.867419 0.400515
Si Si4 0.271734 0.480158 0.920052
Si Si5 0.752753 0.621411 0.664084
Si Si6 0.831162 0.140431 0.335837
Si Si7 0.435791 0.990776 0.588110
Si Si8 0.065502 0.235705 0.337159
O O1 0.822351 0.680343 0.115116
O O2 0.788682 0.559435 0.071432
O O3 0.894886 0.573773 0.102505
O O4 0.855793 0.631377 0.985334
O O5 0.794461 0.276922 0.750000
O O6 0.780619 0.191032 0.858588
O O7 0.718716 0.302922 0.846711
O O8 0.681764 0.864296 0.353463
O O9 0.585390 0.803196 0.380927
O O10 0.592318 0.938700 0.383878
O O11 0.263817 0.551115 0.876177
O O12 0.313024 0.426771 0.880379
O O13 0.291994 0.500000 0.000000
O O14 0.745154 0.612888 0.750000
O O15 0.831636 0.123621 0.250000
O O16 0.890837 0.174431 0.355589
O O17 0.500000 0.981735 0.613140
O O18 0.436775 0.000000 0.500000
O O19 0.071897 0.249059 0.250000
O O20 0.000000 0.219630 0.351053
#
# Coordination Sequence:
#
# PCOD9470296 Si02
#       8
#    16  16  16  16  16  16  16  16
#     4  10  19  32  49  71  99 133 166 203 242 286
#     4   9  19  33  49  71  99 130 165 202 246 295
#     4  11  18  30  47  73 103 129 161 199 237 289
#     4  11  19  32  48  73 100 126 163 201 242 293
#     4  11  20  31  48  69  98 133 159 194 245 296
#     4   9  18  32  49  71  98 129 161 198 244 293
#     4   9  17  30  46  66  96 132 165 195 230 276
#     4  10  20  34  51  72  99 130 164 201 242 291
#
# _framework density 15.258254000000001
#
# number of rings (size 3 to 8) (size 9 to 14) (size 15 to 20)
#    0.000    2.000    3.750    1.500    0.000    2.500 
#    0.000    0.000    0.000    2.250    0.000    0.875 
#    0.000    1.000    0.000    0.000    0.000    0.000 
#
# Total GULP energy -356898.860592 kJ/mol
# GULP energy per Si atom -5576.544697 kJ/mol
# Density = 1.522353 g / cm^3
# Si number density = 15.258254 Si / 1000 Ang^3
#
#
#
# Elastic Constant Matrix: (Units=GPa)
#
#
# Indices 1 2 3 4 5 6 
#
# 1 102.3776 62.3876 36.2110 0.0000 0.0000 0.0000
# 2 62.3876 109.5754 50.2162 0.0000 0.0000 0.0000
# 3 36.2110 50.2162 47.0289 0.0000 0.0000 0.0000
# 4 0.0000 0.0000 0.0000 27.9441 0.0000 0.0000
# 5 0.0000 0.0000 0.0000 0.0000 15.5822 0.0000
# 6 0.0000 0.0000 0.0000 0.0000 0.0000 24.1578
#
#
#
# Elastic Compliance Matrix: (Units=1/GPa)
#
#
# Indices 1 2 3 4 5 6 
#
# 1 0.015519 -0.006579 -0.004924 0.000000 0.000000 0.000000
# 2 -0.006579 0.020660 -0.016995 0.000000 0.000000 0.000000
# 3 -0.004924 -0.016995 0.043202 0.000000 0.000000 0.000000
# 4 0.000000 0.000000 0.000000 0.035786 0.000000 0.000000
# 5 0.000000 0.000000 0.000000 0.000000 0.064176 0.000000
# 6 0.000000 0.000000 0.000000 0.000000 0.000000 0.041394
#
#
# Mechanical properties :
#
#
# Convention : Reuss Voigt Hill
#
# Bulk Modulus (GPa) = 44.67344 61.84574 53.25959
# Shear Modulus (GPa) = 17.53193 20.88129 19.20661
#
# Velocity S-wave (km/s) = 3.39339 3.70337 3.55176
# Velocity P-wave (km/s) = 6.68545 7.67511 7.19731
#
# Compressibility (1/GPa) = 0.02238466
#
# Stress axis : x y z
#
# Youngs Moduli (GPa) = 64.43895 48.40171 23.14730
#
# Poissons Ratio (x) = 0.31844 0.11398
# Poissons Ratio (y) = 0.42395 0.39339
# Poissons Ratio (z) = 0.31729 0.82258
#
# Static dielectric constant tensor:
#      x y z
#    x 1.494360 0.000000 0.000000 
#    y 0.000000 1.504750 0.000000 
#    z 0.000000 0.000000 1.509360 
# 
# From -- ./inp_files/48446.got.cif
#   From: 2010.05.17/outbox.cif.g08.bks.cpg/sg63_25_cif.got.tgz:48446.got - 2010.06.03 15:47:04.
