data_PCOD9470945
_publ_section_title
;
Structure prediction by ZEFSAII (Michael W. Deem and Ramdas Pophale) SiO2 
 PCOD9470945
Probable space group: C M C M
;
_chemical_formula_sum "Si O2"
_cell_formula_units_Z 72
_cell_length_a 18.712348
_cell_length_b 8.987141
_cell_length_c 20.465904
_cell_angle_alpha 90.000000
_cell_angle_beta 90.000000
_cell_angle_gamma 90.000000
_cell_volume 3441.761512
_symmetry_space_group_name_H-M "C M C M"
_symmetry_group_IT_number 63
_symmetry_cell_setting 'orthorhombic'
loop_
_space_group_symop_operation_xyz
x,y,z
-x,-y,1/2+z
x,-y,-z
-x,y,1/2-z
-x,-y,-z
x,y,1/2-z
-x,y,z
x,-y,1/2+z
1/2+x,1/2+y,z
1/2-x,1/2-y,1/2+z
1/2+x,1/2-y,-z
1/2-x,1/2+y,1/2-z
1/2-x,1/2-y,-z
1/2+x,1/2+y,1/2-z
1/2-x,1/2+y,z
1/2+x,1/2-y,1/2+z
loop_
_atom_site_type_symbol
_atom_site_label
_atom_site_fract_x
_atom_site_fract_y
_atom_site_fract_z
Si Si1 0.651946 0.729627 0.328634
Si Si2 0.500000 0.377139 0.057483
Si Si3 0.778840 0.081060 0.671750
Si Si4 0.741620 0.000000 0.500000
Si Si5 0.155401 0.755028 0.067700
Si Si6 0.500000 0.383050 0.670142
O O1 0.651305 0.731272 0.250000
O O2 0.699376 0.869056 0.349360
O O3 0.693096 0.579756 0.349704
O O4 0.570530 0.709488 0.348720
O O5 0.572705 0.282559 0.052212
O O6 0.500000 0.467516 0.126704
O O7 0.500000 0.500000 0.000000
O O8 0.780925 0.080945 0.750000
O O9 0.830920 0.208319 0.643856
O O10 0.795448 0.884444 0.464953
O O11 0.689269 0.897188 0.543072
O O12 0.500000 0.409228 0.750000
#
# Coordination Sequence:
#
# PCOD9470945 Si02
#       6
#    16   8  16   8  16   8
#     4   9  18  32  55  84 115 146 191 237 286 342
#     4  12  24  37  59  90 119 153 198 250 298 350
#     4  10  19  33  57  89 114 147 190 241 288 340
#     4  10  24  40  60  84 112 160 200 238 288 352
#     4  11  22  40  61  84 119 154 198 244 291 352
#     4  10  20  36  57  86 117 156 192 236 292 352
#
# _framework density 20.919519999999999
#
# number of rings (size 3 to 8) (size 9 to 14) (size 15 to 20)
#    0.000    1.778    3.333    1.333    0.000    0.444 
#    0.000    0.000    0.000    6.667    0.000   17.111 
#    0.000    0.000    0.000    0.000    0.000    0.000 
#
# Total GULP energy -200921.679264 kJ/mol
# GULP energy per Si atom -5581.157757 kJ/mol
# Density = 2.087191 g / cm^3
# Si number density = 20.919520 Si / 1000 Ang^3
#
#
#
# Elastic Constant Matrix: (Units=GPa)
#
#
# Indices 1 2 3 4 5 6 
#
# 1 224.0055 73.8526 30.4911 0.0000 0.0000 0.0000
# 2 73.8526 91.9159 32.1296 0.0000 0.0000 0.0000
# 3 30.4911 32.1296 54.5173 0.0000 0.0000 0.0000
# 4 0.0000 0.0000 0.0000 26.8756 0.0000 0.0000
# 5 0.0000 0.0000 0.0000 0.0000 21.9433 0.0000
# 6 0.0000 0.0000 0.0000 0.0000 0.0000 36.2787
#
#
#
# Elastic Compliance Matrix: (Units=1/GPa)
#
#
# Indices 1 2 3 4 5 6 
#
# 1 0.006092 -0.004664 -0.000658 0.000000 0.000000 0.000000
# 2 -0.004664 0.017274 -0.007572 0.000000 0.000000 0.000000
# 3 -0.000658 -0.007572 0.023173 0.000000 0.000000 0.000000
# 4 0.000000 0.000000 0.000000 0.037209 0.000000 0.000000
# 5 0.000000 0.000000 0.000000 0.000000 0.045572 0.000000
# 6 0.000000 0.000000 0.000000 0.000000 0.000000 0.027564
#
#
# Mechanical properties :
#
#
# Convention : Reuss Voigt Hill
#
# Bulk Modulus (GPa) = 48.19132 71.48726 59.83929
# Shear Modulus (GPa) = 26.37292 32.61722 29.49507
#
# Velocity S-wave (km/s) = 3.55446 3.95292 3.75898
# Velocity P-wave (km/s) = 6.31919 7.42165 6.89250
#
# Compressibility (1/GPa) = 0.02075063
#
# Stress axis : x y z
#
# Youngs Moduli (GPa) = 164.16144 57.89057 43.15346
#
# Poissons Ratio (x) = 0.27003 0.02839
# Poissons Ratio (y) = 0.76572 0.32674
# Poissons Ratio (z) = 0.10802 0.43832
#
# Static dielectric constant tensor:
#      x y z
#    x 1.742980 0.000000 0.000000 
#    y 0.000000 1.719880 0.000000 
#    z 0.000000 0.000000 1.864910 
# 
# From -- ./inp_files/69696.got.cif
#   From: 2010.05.17/outbox.cif.g08.bks.cpg/sg63_35_cif.got.tgz:69696.got - 2010.06.03 15:47:04.
