data_PCOD9470419
_publ_section_title
;
Structure prediction by ZEFSAII (Michael W. Deem and Ramdas Pophale) SiO2 
 PCOD9470419
Probable space group: C M C M
;
_chemical_formula_sum "Si O2"
_cell_formula_units_Z 116
_cell_length_a 15.236561
_cell_length_b 23.681722
_cell_length_c 18.510976
_cell_angle_alpha 90.000000
_cell_angle_beta 90.000000
_cell_angle_gamma 90.000000
_cell_volume 6679.278482
_symmetry_space_group_name_H-M "C M C M"
_symmetry_group_IT_number 63
_symmetry_cell_setting 'orthorhombic'
loop_
_space_group_symop_operation_xyz
x,y,z
-x,-y,1/2+z
x,-y,-z
-x,y,1/2-z
-x,-y,-z
x,y,1/2-z
-x,y,z
x,-y,1/2+z
1/2+x,1/2+y,z
1/2-x,1/2-y,1/2+z
1/2+x,1/2-y,-z
1/2-x,1/2+y,1/2-z
1/2-x,1/2-y,-z
1/2+x,1/2+y,1/2-z
1/2-x,1/2+y,z
1/2+x,1/2-y,1/2+z
loop_
_atom_site_type_symbol
_atom_site_label
_atom_site_fract_x
_atom_site_fract_y
_atom_site_fract_z
Si Si1 0.779517 0.685126 0.408072
Si Si2 0.153790 0.190055 0.627784
Si Si3 0.597169 0.104824 0.332292
Si Si4 0.904018 0.684537 0.957560
Si Si5 0.904522 0.180322 0.034180
Si Si6 0.396626 0.010945 0.582949
Si Si7 0.000000 0.203488 0.750000
Si Si8 0.319288 0.883727 0.335036
O O1 0.793210 0.751630 0.391052
O O2 0.830224 0.650992 0.347418
O O3 0.830871 0.670891 0.482733
O O4 0.680399 0.664901 0.419249
O O5 0.113986 0.170847 0.550722
O O6 0.222173 0.142814 0.655272
O O7 0.077894 0.202155 0.686096
O O8 0.599518 0.086311 0.250000
O O9 0.500000 0.129834 0.346101
O O10 0.609409 0.049705 0.379747
O O11 0.907840 0.751922 0.956413
O O12 0.880214 0.659419 0.880173
O O13 0.000000 0.662999 0.980648
O O14 0.000000 0.156862 0.054335
O O15 0.500000 0.028666 0.585832
O O16 0.338120 0.057108 0.624316
O O17 0.372249 0.000000 0.500000
O O18 0.339525 0.887935 0.250000
#
# Coordination Sequence:
#
# PCOD9470419 Si02
#       8
#    16  16  16  16  16  16   4  16
#     4  11  20  35  57  83 118 157 203 242 282 357
#     4  11  22  35  54  87 121 155 195 238 301 353
#     4  10  22  36  55  85 119 153 194 242 298 352
#     4  10  19  32  51  78 112 152 193 231 282 340
#     4  10  19  35  55  77 111 156 198 240 281 338
#     4  10  22  40  59  83 114 152 196 239 290 360
#     4  12  24  36  56  88 132 156 192 256 308 358
#     4  12  22  35  56  83 120 155 189 238 296 365
#
# _framework density 17.367146000000002
#
# number of rings (size 3 to 8) (size 9 to 14) (size 15 to 20)
#    0.000    1.379    4.138    2.897    2.897    2.759 
#    0.000    0.000    0.000    0.414    1.793    1.448 
#    0.000    0.000    0.000    0.000    0.000    0.000 
#
# Total GULP energy -322981.608950 kJ/mol
# GULP energy per Si atom -5568.648430 kJ/mol
# Density = 1.732762 g / cm^3
# Si number density = 17.367146 Si / 1000 Ang^3
#
#
#
# Elastic Constant Matrix: (Units=GPa)
#
#
# Indices 1 2 3 4 5 6 
#
# 1 112.3390 11.5544 20.0989 0.0000 0.0000 0.0000
# 2 11.5544 31.7444 12.8561 0.0000 0.0000 0.0000
# 3 20.0989 12.8561 74.1389 0.0000 0.0000 0.0000
# 4 0.0000 0.0000 0.0000 107.2612 0.0000 0.0000
# 5 0.0000 0.0000 0.0000 0.0000 18.0682 0.0000
# 6 0.0000 0.0000 0.0000 0.0000 0.0000 3.1904
#
#
#
# Elastic Compliance Matrix: (Units=1/GPa)
#
#
# Indices 1 2 3 4 5 6 
#
# 1 0.009553 -0.002612 -0.002137 0.000000 0.000000 0.000000
# 2 -0.002612 0.034595 -0.005291 0.000000 0.000000 0.000000
# 3 -0.002137 -0.005291 0.014985 0.000000 0.000000 0.000000
# 4 0.000000 0.000000 0.000000 0.009323 0.000000 0.000000
# 5 0.000000 0.000000 0.000000 0.000000 0.055346 0.000000
# 6 0.000000 0.000000 0.000000 0.000000 0.000000 0.313439
#
#
# Mechanical properties :
#
#
# Convention : Reuss Voigt Hill
#
# Bulk Modulus (GPa) = 25.60573 34.13790 29.87182
# Shear Modulus (GPa) = 10.63068 37.28482 23.95775
#
# Velocity S-wave (km/s) = 2.47678 4.63845 3.71817
# Velocity P-wave (km/s) = 4.79114 6.95602 5.97249
#
# Compressibility (1/GPa) = 0.03905376
#
# Stress axis : x y z
#
# Youngs Moduli (GPa) = 104.68426 28.90594 66.73358
#
# Poissons Ratio (x) = 0.07549 0.14260
# Poissons Ratio (y) = 0.27339 0.35309
# Poissons Ratio (z) = 0.22369 0.15294
#
# Static dielectric constant tensor:
#      x y z
#    x 1.637220 0.000000 0.000000 
#    y 0.000000 1.583150 0.000000 
#    z 0.000000 0.000000 1.589300 
# 
# From -- ./inp_files/44614.got.cif
#   From: 2010.05.17/outbox.cif.g08.bks.cpg/sg63_23_cif.got.tgz:44614.got - 2010.06.03 15:47:04.
