data_PCOD9470679
_publ_section_title
;
Structure prediction by ZEFSAII (Michael W. Deem and Ramdas Pophale) SiO2 
 PCOD9470679
Probable space group: C M C M
;
_chemical_formula_sum "Si O2"
_cell_formula_units_Z 84
_cell_length_a 16.632220
_cell_length_b 6.912040
_cell_length_c 28.923840
_cell_angle_alpha 90.000000
_cell_angle_beta 90.000000
_cell_angle_gamma 90.000000
_cell_volume 3325.158979
_symmetry_space_group_name_H-M "C M C M"
_symmetry_group_IT_number 63
_symmetry_cell_setting 'orthorhombic'
loop_
_space_group_symop_operation_xyz
x,y,z
-x,-y,1/2+z
x,-y,-z
-x,y,1/2-z
-x,-y,-z
x,y,1/2-z
-x,y,z
x,-y,1/2+z
1/2+x,1/2+y,z
1/2-x,1/2-y,1/2+z
1/2+x,1/2-y,-z
1/2-x,1/2+y,1/2-z
1/2-x,1/2-y,-z
1/2+x,1/2+y,1/2-z
1/2-x,1/2+y,z
1/2+x,1/2-y,1/2+z
loop_
_atom_site_type_symbol
_atom_site_label
_atom_site_fract_x
_atom_site_fract_y
_atom_site_fract_z
Si Si1 0.500000 0.482401 0.250000
Si Si2 0.144099 0.090619 0.182534
Si Si3 0.671019 0.961370 0.699360
Si Si4 0.407489 0.685216 0.414108
Si Si5 0.344321 0.775698 0.990790
Si Si6 0.594583 0.854832 0.607105
O O1 0.570761 0.496993 0.209644
O O2 0.232667 0.026458 0.197619
O O3 0.137908 0.320860 0.194366
O O4 0.139989 0.081189 0.126860
O O5 0.645845 0.888444 0.750000
O O6 0.639971 0.837852 0.655951
O O7 0.500000 0.636009 0.407539
O O8 0.384614 0.659126 0.467396
O O9 0.397902 0.915408 0.404351
O O10 0.369111 0.746806 0.937590
O O11 0.250000 0.750000 0.000000
O O12 0.366008 0.000000 0.000000
O O13 0.500000 0.812709 0.611690
#
# Coordination Sequence:
#
# PCOD9470679 Si02
#       6
#     4  16  16  16  16  16
#     4  12  20  36  60  82 108 144 190 222 256 328
#     4  11  22  36  59  83 110 142 184 224 273 318
#     4  11  21  35  56  82 111 143 180 225 270 321
#     4   9  17  31  54  79 101 133 180 221 256 314
#     4  10  19  33  52  76 103 136 173 222 269 316
#     4   9  19  32  53  79 107 138 181 226 265 313
#
# _framework density 25.261949999999999
#
# number of rings (size 3 to 8) (size 9 to 14) (size 15 to 20)
#    0.000    1.905    2.857    1.714    1.333    2.667 
#    0.000    0.000    2.095    5.714    0.000    0.000 
#    0.000    0.000    0.000    0.000    0.000    0.000 
#
# Total GULP energy -234799.099471 kJ/mol
# GULP energy per Si atom -5590.454749 kJ/mol
# Density = 2.520445 g / cm^3
# Si number density = 25.261950 Si / 1000 Ang^3
#
#
#
# Elastic Constant Matrix: (Units=GPa)
#
#
# Indices 1 2 3 4 5 6 
#
# 1 96.9130 7.8620 87.3434 0.0000 0.0000 0.0000
# 2 7.8620 98.4811 55.8430 0.0000 0.0000 0.0000
# 3 87.3434 55.8430 288.9893 0.0000 0.0000 0.0000
# 4 0.0000 0.0000 0.0000 41.4871 0.0000 0.0000
# 5 0.0000 0.0000 0.0000 0.0000 59.2395 0.0000
# 6 0.0000 0.0000 0.0000 0.0000 0.0000 4.2247
#
#
#
# Elastic Compliance Matrix: (Units=1/GPa)
#
#
# Indices 1 2 3 4 5 6 
#
# 1 0.014370 0.001477 -0.004629 0.000000 0.000000 0.000000
# 2 0.001477 0.011556 -0.002680 0.000000 0.000000 0.000000
# 3 -0.004629 -0.002680 0.005377 0.000000 0.000000 0.000000
# 4 0.000000 0.000000 0.000000 0.024104 0.000000 0.000000
# 5 0.000000 0.000000 0.000000 0.000000 0.016881 0.000000
# 6 0.000000 0.000000 0.000000 0.000000 0.000000 0.236704
#
#
# Mechanical properties :
#
#
# Convention : Reuss Voigt Hill
#
# Bulk Modulus (GPa) = 50.91246 87.38670 69.14958
# Shear Modulus (GPa) = 15.28117 43.21258 29.24688
#
# Velocity S-wave (km/s) = 2.46216 4.14040 3.40626
# Velocity P-wave (km/s) = 5.31794 7.58450 6.55000
#
# Compressibility (1/GPa) = 0.01964156
#
# Stress axis : x y z
#
# Youngs Moduli (GPa) = 69.58757 86.53747 185.97369
#
# Poissons Ratio (x) = -0.12786 0.86083
# Poissons Ratio (y) = -0.10281 0.49832
# Poissons Ratio (z) = 0.32211 0.23188
#
# Static dielectric constant tensor:
#      x y z
#    x 1.878650 0.000000 0.000000 
#    y 0.000000 2.093900 0.000000 
#    z 0.000000 0.000000 1.927680 
# 
# From -- ./inp_files/72602.got.cif
#   From: 2010.05.17/outbox.cif.g08.bks.cpg/sg63_37_cif.got.tgz:72602.got - 2010.06.03 15:47:04.
