data_PCOD9470738
_publ_section_title
;
Structure prediction by ZEFSAII (Michael W. Deem and Ramdas Pophale) SiO2 
 PCOD9470738
Probable space group: C M C M
;
_chemical_formula_sum "Si O2"
_cell_formula_units_Z 96
_cell_length_a 12.976999
_cell_length_b 22.195355
_cell_length_c 15.086455
_cell_angle_alpha 90.000000
_cell_angle_beta 90.000000
_cell_angle_gamma 90.000000
_cell_volume 4345.338050
_symmetry_space_group_name_H-M "C M C M"
_symmetry_group_IT_number 63
_symmetry_cell_setting 'orthorhombic'
loop_
_space_group_symop_operation_xyz
x,y,z
-x,-y,1/2+z
x,-y,-z
-x,y,1/2-z
-x,-y,-z
x,y,1/2-z
-x,y,z
x,-y,1/2+z
1/2+x,1/2+y,z
1/2-x,1/2-y,1/2+z
1/2+x,1/2-y,-z
1/2-x,1/2+y,1/2-z
1/2-x,1/2-y,-z
1/2+x,1/2+y,1/2-z
1/2-x,1/2+y,z
1/2+x,1/2-y,1/2+z
loop_
_atom_site_type_symbol
_atom_site_label
_atom_site_fract_x
_atom_site_fract_y
_atom_site_fract_z
Si Si1 0.888631 0.765916 0.147407
Si Si2 0.612599 0.603438 0.402840
Si Si3 0.500000 0.969645 0.145702
Si Si4 0.227560 0.505901 0.394122
Si Si5 0.885453 0.093430 0.616204
Si Si6 0.500000 0.167164 0.858611
Si Si7 0.669247 0.737556 0.142718
O O1 0.893090 0.745996 0.250000
O O2 0.875334 0.838128 0.147870
O O3 0.785425 0.739781 0.106297
O O4 0.000000 0.752483 0.105386
O O5 0.500000 0.581236 0.372070
O O6 0.708431 0.565048 0.366596
O O7 0.614527 0.596413 0.509216
O O8 0.621547 0.673598 0.381237
O O9 0.500000 0.961440 0.250000
O O10 0.500000 0.901358 0.107064
O O11 0.393451 0.003167 0.124497
O O12 0.236411 0.500000 0.500000
O O13 0.291722 0.449153 0.355913
O O14 0.000000 0.071510 0.642651
O O15 0.500000 0.166176 0.750000
O O16 0.599646 0.206086 0.886286
O O17 0.673868 0.741401 0.250000
#
# Coordination Sequence:
#
# PCOD9470738 Si02
#       7
#    16  16   8  16  16   8  16
#     4   9  18  33  52  75 106 142 179 224 277 329
#     4  10  20  35  56  81 111 144 183 227 274 334
#     4  11  23  39  59  83 109 144 195 237 269 319
#     4  10  21  38  58  80 113 150 182 223 280 335
#     4   9  18  34  58  84 109 138 180 231 276 327
#     4   9  18  33  55  79 104 138 179 231 280 315
#     4  10  19  33  53  77 107 145 184 222 274 330
#
# _framework density 22.092642999999999
#
# number of rings (size 3 to 8) (size 9 to 14) (size 15 to 20)
#    0.000    2.333    0.833    1.750    0.000    5.333 
#    1.500    0.000    0.000    3.000    0.000    0.000 
#    0.000    0.000    0.000    0.000    0.000    0.000 
#
# Total GULP energy -267974.763591 kJ/mol
# GULP energy per Si atom -5582.807575 kJ/mol
# Density = 2.204236 g / cm^3
# Si number density = 22.092643 Si / 1000 Ang^3
#
#
#
# Elastic Constant Matrix: (Units=GPa)
#
#
# Indices 1 2 3 4 5 6 
#
# 1 198.3952 56.6723 13.7212 0.0000 0.0000 0.0000
# 2 56.6723 69.2948 -2.8817 0.0000 0.0000 0.0000
# 3 13.7212 -2.8817 36.8487 0.0000 0.0000 0.0000
# 4 0.0000 0.0000 0.0000 15.7158 0.0000 0.0000
# 5 0.0000 0.0000 0.0000 0.0000 -57.6462 0.0000
# 6 0.0000 0.0000 0.0000 0.0000 0.0000 49.0066
#
#
#
# Elastic Compliance Matrix: (Units=1/GPa)
#
#
# Indices 1 2 3 4 5 6 
#
# 1 0.006896 -0.005766 -0.003019 0.000000 0.000000 0.000000
# 2 -0.005766 0.019298 0.003656 0.000000 0.000000 0.000000
# 3 -0.003019 0.003656 0.028548 0.000000 0.000000 0.000000
# 4 0.000000 0.000000 0.000000 0.063630 0.000000 0.000000
# 5 0.000000 0.000000 0.000000 0.000000 -0.017347 0.000000
# 6 0.000000 0.000000 0.000000 0.000000 0.000000 0.020405
#
#
# Mechanical properties :
#
#
# Convention : Reuss Voigt Hill
#
# Bulk Modulus (GPa) = 22.47891 48.84025 35.65958
# Shear Modulus (GPa) = 34.12587 17.21702 25.67145
#
# Velocity S-wave (km/s) = 3.93449 2.79464 3.41250
# Velocity P-wave (km/s) = 5.55313 5.70687 5.63053
#
# Compressibility (1/GPa) = 0.04448615
#
# Stress axis : x y z
#
# Youngs Moduli (GPa) = 145.00806 51.81765 35.02873
#
# Poissons Ratio (x) = 0.29876 0.10574
# Poissons Ratio (y) = 0.83605 -0.12807
# Poissons Ratio (z) = 0.43775 -0.18945
#
# Static dielectric constant tensor:
#      x y z
#    x 1.880550 0.000000 0.000000 
#    y 0.000000 1.771500 0.000000 
#    z 0.000000 0.000000 1.816300 
# 
# From -- ./inp_files/52926.got.cif
#   From: 2010.05.17/outbox.cif.g08.bks.cpg/sg63_27_cif.got.tgz:52926.got - 2010.06.03 15:47:04.
