data_PCOD9470973
_publ_section_title
;
Structure prediction by ZEFSAII (Michael W. Deem and Ramdas Pophale) SiO2 
 PCOD9470973
Probable space group: C M C M
;
_chemical_formula_sum "Si O2"
_cell_formula_units_Z 116
_cell_length_a 7.708834
_cell_length_b 28.912623
_cell_length_c 28.206683
_cell_angle_alpha 90.000000
_cell_angle_beta 90.000000
_cell_angle_gamma 90.000000
_cell_volume 6286.779161
_symmetry_space_group_name_H-M "C M C M"
_symmetry_group_IT_number 63
_symmetry_cell_setting 'orthorhombic'
loop_
_space_group_symop_operation_xyz
x,y,z
-x,-y,1/2+z
x,-y,-z
-x,y,1/2-z
-x,-y,-z
x,y,1/2-z
-x,y,z
x,-y,1/2+z
1/2+x,1/2+y,z
1/2-x,1/2-y,1/2+z
1/2+x,1/2-y,-z
1/2-x,1/2+y,1/2-z
1/2-x,1/2-y,-z
1/2+x,1/2+y,1/2-z
1/2-x,1/2+y,z
1/2+x,1/2-y,1/2+z
loop_
_atom_site_type_symbol
_atom_site_label
_atom_site_fract_x
_atom_site_fract_y
_atom_site_fract_z
Si Si1 0.702555 0.805636 0.945941
Si Si2 0.294706 0.051049 0.007669
Si Si3 0.209834 0.946065 0.696596
Si Si4 0.297715 0.601778 0.103109
Si Si5 0.201325 0.054118 0.821695
Si Si6 0.210090 0.702996 0.554605
Si Si7 0.000000 0.417079 0.250000
Si Si8 0.210800 0.394986 0.416215
O O1 0.500000 0.816951 0.949525
O O2 0.778304 0.844928 0.912245
O O3 0.726413 0.753053 0.928972
O O4 0.771781 0.805406 0.000180
O O5 0.500000 0.047904 0.999156
O O6 0.229892 0.085632 0.967175
O O7 0.273155 0.071199 0.059919
O O8 0.219760 0.000000 0.000000
O O9 0.276491 0.937442 0.750000
O O10 0.275197 0.913133 0.654307
O O11 0.000000 0.941428 0.699010
O O12 0.244461 0.999483 0.682994
O O13 0.500000 0.590889 0.104930
O O14 0.345531 0.079957 0.790790
O O15 0.217266 0.073077 0.874866
O O16 0.000000 0.059592 0.806368
O O17 0.261932 0.658907 0.585622
O O18 0.000000 0.704929 0.553138
O O19 0.000000 0.396429 0.414046
#
# Coordination Sequence:
#
# PCOD9470973 Si02
#       8
#    16  16  16  16  16  16   4  16
#     4  10  19  34  52  77 108 143 182 228 278 340
#     4  10  20  34  50  74 114 153 181 217 272 336
#     4   9  19  37  56  78 107 144 189 240 284 331
#     4  11  21  33  53  79 109 144 188 232 281 340
#     4  11  22  38  60  85 117 150 193 244 287 334
#     4   9  18  33  54  76 110 144 182 227 276 335
#     4  12  22  40  60  86 114 152 198 248 286 342
#     4  10  19  34  53  81 115 149 186 228 279 344
#
# _framework density 18.451419999999999
#
# number of rings (size 3 to 8) (size 9 to 14) (size 15 to 20)
#    0.000    1.931    2.759    1.862    0.000    1.931 
#    2.483    0.000    0.000    0.000    1.793    0.000 
#    0.000    0.000    0.000    0.000    0.000    0.000 
#
# Total GULP energy -323015.198060 kJ/mol
# GULP energy per Si atom -5569.227553 kJ/mol
# Density = 1.840942 g / cm^3
# Si number density = 18.451420 Si / 1000 Ang^3
#
#
#
# Elastic Constant Matrix: (Units=GPa)
#
#
# Indices 1 2 3 4 5 6 
#
# 1 44.6598 -5.4727 -2.0387 0.0000 0.0000 0.0000
# 2 -5.4727 96.4450 56.2247 0.0000 0.0000 0.0000
# 3 -2.0387 56.2247 125.9516 0.0000 0.0000 0.0000
# 4 0.0000 0.0000 0.0000 1.2883 0.0000 0.0000
# 5 0.0000 0.0000 0.0000 0.0000 23.4543 0.0000
# 6 0.0000 0.0000 0.0000 0.0000 0.0000 31.1506
#
#
#
# Elastic Compliance Matrix: (Units=1/GPa)
#
#
# Indices 1 2 3 4 5 6 
#
# 1 0.022556 0.001442 -0.000279 0.000000 0.000000 0.000000
# 2 0.001442 0.014108 -0.006275 0.000000 0.000000 0.000000
# 3 -0.000279 -0.006275 0.010736 0.000000 0.000000 0.000000
# 4 0.000000 0.000000 0.000000 0.776241 0.000000 0.000000
# 5 0.000000 0.000000 0.000000 0.000000 0.042636 0.000000
# 6 0.000000 0.000000 0.000000 0.000000 0.000000 0.032102
#
#
# Mechanical properties :
#
#
# Convention : Reuss Voigt Hill
#
# Bulk Modulus (GPa) = 26.89766 40.49811 33.69789
# Shear Modulus (GPa) = 5.42892 25.73484 15.58188
#
# Velocity S-wave (km/s) = 1.71717 3.73867 2.90915
# Velocity P-wave (km/s) = 4.30590 6.37440 5.43938
#
# Compressibility (1/GPa) = 0.03717795
#
# Stress axis : x y z
#
# Youngs Moduli (GPa) = 44.33502 70.87987 93.14436
#
# Poissons Ratio (x) = -0.10224 0.02597
# Poissons Ratio (y) = -0.06395 0.58445
# Poissons Ratio (z) = 0.01236 0.44474
#
# Static dielectric constant tensor:
#      x y z
#    x 1.679130 0.000000 0.000000 
#    y 0.000000 1.640210 0.000000 
#    z 0.000000 0.000000 1.599550 
# 
# From -- ./inp_files/60621.got.cif
#   From: 2010.05.17/outbox.cif.g08.bks.cpg/sg63_31_cif.got.tgz:60621.got - 2010.06.03 15:47:04.
