data_PCOD9470996
_publ_section_title
;
Structure prediction by ZEFSAII (Michael W. Deem and Ramdas Pophale) SiO2 
 PCOD9470996
Probable space group: C M C M
;
_chemical_formula_sum "Si O2"
_cell_formula_units_Z 88
_cell_length_a 27.343572
_cell_length_b 15.537840
_cell_length_c 10.381501
_cell_angle_alpha 90.000000
_cell_angle_beta 90.000000
_cell_angle_gamma 90.000000
_cell_volume 4410.685000
_symmetry_space_group_name_H-M "C M C M"
_symmetry_group_IT_number 63
_symmetry_cell_setting 'orthorhombic'
loop_
_space_group_symop_operation_xyz
x,y,z
-x,-y,1/2+z
x,-y,-z
-x,y,1/2-z
-x,-y,-z
x,y,1/2-z
-x,y,z
x,-y,1/2+z
1/2+x,1/2+y,z
1/2-x,1/2-y,1/2+z
1/2+x,1/2-y,-z
1/2-x,1/2+y,1/2-z
1/2-x,1/2-y,-z
1/2+x,1/2+y,1/2-z
1/2-x,1/2+y,z
1/2+x,1/2-y,1/2+z
loop_
_atom_site_type_symbol
_atom_site_label
_atom_site_fract_x
_atom_site_fract_y
_atom_site_fract_z
Si Si1 0.084552 0.203455 0.000579
Si Si2 0.555160 0.120439 0.603006
Si Si3 0.368808 0.134289 0.105304
Si Si4 0.000000 0.919852 0.400549
Si Si5 0.840608 0.929338 0.606034
Si Si6 0.741104 0.173050 0.099895
O O1 0.115668 0.264472 0.904425
O O2 0.046915 0.140224 0.930691
O O3 0.057193 0.275313 0.086371
O O4 0.122036 0.148714 0.084768
O O5 0.566451 0.097733 0.750000
O O6 0.500000 0.092451 0.572189
O O7 0.595843 0.092909 0.500420
O O8 0.377617 0.103287 0.250000
O O9 0.311526 0.130116 0.074322
O O10 0.000000 0.946515 0.250000
O O11 0.000000 0.000000 0.500000
O O12 0.845841 0.964504 0.750000
O O13 0.785949 0.892836 0.589077
O O14 0.851457 0.000000 0.500000
O O15 0.740139 0.203227 0.250000
O O16 0.750000 0.250000 0.000000
#
# Coordination Sequence:
#
# PCOD9470996 Si02
#       6
#    16  16  16   8  16  16
#     4  10  19  34  54  67  93 130 170 211 252 288
#     4   9  17  29  48  72 100 131 161 201 248 290
#     4   9  18  30  51  75  96 125 162 208 254 298
#     4  12  26  38  48  66  94 134 177 210 246 295
#     4  11  24  38  53  74 103 135 172 214 258 310
#     4  10  19  35  55  76  99 128 167 212 263 312
#
# _framework density 19.951550000000001
#
# number of rings (size 3 to 8) (size 9 to 14) (size 15 to 20)
#    1.091    0.909    2.727    1.636    0.000    6.182 
#    0.000    0.000    0.000    0.000    0.000    0.000 
#    0.000    0.727    0.000    1.636    0.000    2.909 
#
# Total GULP energy -245334.736319 kJ/mol
# GULP energy per Si atom -5575.789462 kJ/mol
# Density = 1.990614 g / cm^3
# Si number density = 19.951550 Si / 1000 Ang^3
#
#
#
# Elastic Constant Matrix: (Units=GPa)
#
#
# Indices 1 2 3 4 5 6 
#
# 1 129.2968 14.0512 55.0048 0.0000 0.0000 0.0000
# 2 14.0512 73.0380 28.4725 0.0000 0.0000 0.0000
# 3 55.0048 28.4725 121.2758 0.0000 0.0000 0.0000
# 4 0.0000 0.0000 0.0000 -12.5787 0.0000 0.0000
# 5 0.0000 0.0000 0.0000 0.0000 28.9319 0.0000
# 6 0.0000 0.0000 0.0000 0.0000 0.0000 -2.0071
#
#
#
# Elastic Compliance Matrix: (Units=1/GPa)
#
#
# Indices 1 2 3 4 5 6 
#
# 1 0.009585 -0.000164 -0.004309 0.000000 0.000000 0.000000
# 2 -0.000164 0.015074 -0.003464 0.000000 0.000000 0.000000
# 3 -0.004309 -0.003464 0.011013 0.000000 0.000000 0.000000
# 4 0.000000 0.000000 0.000000 -0.079500 0.000000 0.000000
# 5 0.000000 0.000000 0.000000 0.000000 0.034564 0.000000
# 6 0.000000 0.000000 0.000000 0.000000 0.000000 -0.498243
#
#
# Mechanical properties :
#
#
# Convention : Reuss Voigt Hill
#
# Bulk Modulus (GPa) = 50.51256 57.62973 54.07115
# Shear Modulus (GPa) = -10.30858 17.94138 3.81640
#
# Velocity S-wave (km/s) = -2.27553 3.00200 1.38455
# Velocity P-wave (km/s) = 4.29750 6.40028 5.45124
#
# Compressibility (1/GPa) = 0.01979706
#
# Stress axis : x y z
#
# Youngs Moduli (GPa) = 104.32980 66.34100 90.79979
#
# Poissons Ratio (x) = 0.01090 0.39123
# Poissons Ratio (y) = 0.01714 0.31457
# Poissons Ratio (z) = 0.44953 0.22983
#
# Static dielectric constant tensor:
#      x y z
#    x 1.688360 0.000000 0.000000 
#    y 0.000000 1.696160 0.000000 
#    z 0.000000 0.000000 1.686020 
# 
# From -- ./inp_files/24900.got.cif
#   From: 2010.05.17/outbox.cif.g08.bks.cpg/sg63_13_cif.got.tgz:24900.got - 2010.06.03 15:47:04.
