data_PCOD9470661
_publ_section_title
;
Structure prediction by ZEFSAII (Michael W. Deem and Ramdas Pophale) SiO2 
 PCOD9470661
Probable space group: C M C M
;
_chemical_formula_sum "Si O2"
_cell_formula_units_Z 96
_cell_length_a 7.507265
_cell_length_b 24.156844
_cell_length_c 26.452832
_cell_angle_alpha 90.000000
_cell_angle_beta 90.000000
_cell_angle_gamma 90.000000
_cell_volume 4797.269478
_symmetry_space_group_name_H-M "C M C M"
_symmetry_group_IT_number 63
_symmetry_cell_setting 'orthorhombic'
loop_
_space_group_symop_operation_xyz
x,y,z
-x,-y,1/2+z
x,-y,-z
-x,y,1/2-z
-x,-y,-z
x,y,1/2-z
-x,y,z
x,-y,1/2+z
1/2+x,1/2+y,z
1/2-x,1/2-y,1/2+z
1/2+x,1/2-y,-z
1/2-x,1/2+y,1/2-z
1/2-x,1/2-y,-z
1/2+x,1/2+y,1/2-z
1/2-x,1/2+y,z
1/2+x,1/2-y,1/2+z
loop_
_atom_site_type_symbol
_atom_site_label
_atom_site_fract_x
_atom_site_fract_y
_atom_site_fract_z
Si Si1 0.787882 0.815088 0.496964
Si Si2 0.793350 0.617758 0.897514
Si Si3 0.782463 0.692283 0.807221
Si Si4 0.712414 0.005012 0.557206
Si Si5 0.285614 0.616399 0.094639
Si Si6 0.782628 0.819565 0.692957
O O1 0.750000 0.750000 0.500000
O O2 0.712482 0.842708 0.446441
O O3 0.721323 0.847423 0.546762
O O4 0.000000 0.822559 0.494649
O O5 0.715766 0.650562 0.849879
O O6 0.714449 0.558794 0.914035
O O7 0.000000 0.607548 0.884388
O O8 0.729974 0.677740 0.750000
O O9 0.729289 0.755902 0.817141
O O10 0.000000 0.692491 0.808623
O O11 0.500000 0.013976 0.552349
O O12 0.740922 0.947423 0.585527
O O13 0.784054 0.000000 0.500000
O O14 0.500000 0.621152 0.094949
O O15 0.221026 0.641294 0.147688
O O16 0.725960 0.834488 0.750000
O O17 0.000000 0.820453 0.693135
#
# Coordination Sequence:
#
# PCOD9470661 Si02
#       6
#    16  16  16  16  16  16
#     4  11  22  33  49  75 104 131 163 206 257 305
#     4  10  19  33  52  73 100 132 170 210 250 301
#     4   8  14  27  50  76  99 126 164 210 254 296
#     4  10  20  34  50  70 101 140 171 203 254 301
#     4  10  20  33  51  74  98 128 170 211 243 293
#     4   8  14  27  48  73  98 123 156 203 255 298
#
# _framework density 20.011384
#
# number of rings (size 3 to 8) (size 9 to 14) (size 15 to 20)
#    0.000    2.500    1.667    2.500    0.000    4.333 
#    0.000    0.833    0.000    2.000    0.000    2.333 
#    0.000    0.000    0.000    0.000    0.000    0.000 
#
# Total GULP energy -267958.816908 kJ/mol
# GULP energy per Si atom -5582.475352 kJ/mol
# Density = 1.996584 g / cm^3
# Si number density = 20.011384 Si / 1000 Ang^3
#
#
#
# Elastic Constant Matrix: (Units=GPa)
#
#
# Indices 1 2 3 4 5 6 
#
# 1 51.1844 -11.6601 -4.7425 0.0000 0.0000 0.0000
# 2 -11.6601 178.3911 120.1163 0.0000 0.0000 0.0000
# 3 -4.7425 120.1163 183.1983 0.0000 0.0000 0.0000
# 4 0.0000 0.0000 0.0000 23.9497 0.0000 0.0000
# 5 0.0000 0.0000 0.0000 0.0000 5.2754 0.0000
# 6 0.0000 0.0000 0.0000 0.0000 0.0000 10.1389
#
#
#
# Elastic Compliance Matrix: (Units=1/GPa)
#
#
# Indices 1 2 3 4 5 6 
#
# 1 0.019870 0.001705 -0.000604 0.000000 0.000000 0.000000
# 2 0.001705 0.010183 -0.006632 0.000000 0.000000 0.000000
# 3 -0.000604 -0.006632 0.009792 0.000000 0.000000 0.000000
# 4 0.000000 0.000000 0.000000 0.041754 0.000000 0.000000
# 5 0.000000 0.000000 0.000000 0.000000 0.189560 0.000000
# 6 0.000000 0.000000 0.000000 0.000000 0.000000 0.098630
#
#
# Mechanical properties :
#
#
# Convention : Reuss Voigt Hill
#
# Bulk Modulus (GPa) = 34.74341 68.91127 51.82734
# Shear Modulus (GPa) = 12.80593 28.47681 20.64137
#
# Velocity S-wave (km/s) = 2.53243 3.77640 3.21515
# Velocity P-wave (km/s) = 5.09416 7.31613 6.30382
#
# Compressibility (1/GPa) = 0.02878243
#
# Stress axis : x y z
#
# Youngs Moduli (GPa) = 50.32785 98.20346 102.12857
#
# Poissons Ratio (x) = -0.16746 0.06165
# Poissons Ratio (y) = -0.08582 0.67736
# Poissons Ratio (z) = 0.03038 0.65133
#
# Static dielectric constant tensor:
#      x y z
#    x 1.754360 0.000000 0.000000 
#    y 0.000000 1.616530 0.000000 
#    z 0.000000 0.000000 1.703300 
# 
# From -- ./inp_files/59845.got.cif
#   From: 2010.05.17/outbox.cif.g08.bks.cpg/sg63_30_cif.got.tgz:59845.got - 2010.06.03 15:47:04.
