data_PCOD9470960
_publ_section_title
;
Structure prediction by ZEFSAII (Michael W. Deem and Ramdas Pophale) SiO2 
 PCOD9470960
Probable space group: C M C M
;
_chemical_formula_sum "Si O2"
_cell_formula_units_Z 116
_cell_length_a 7.250578
_cell_length_b 23.853264
_cell_length_c 27.355690
_cell_angle_alpha 90.000000
_cell_angle_beta 90.000000
_cell_angle_gamma 90.000000
_cell_volume 4731.165250
_symmetry_space_group_name_H-M "C M C M"
_symmetry_group_IT_number 63
_symmetry_cell_setting 'orthorhombic'
loop_
_space_group_symop_operation_xyz
x,y,z
-x,-y,1/2+z
x,-y,-z
-x,y,1/2-z
-x,-y,-z
x,y,1/2-z
-x,y,z
x,-y,1/2+z
1/2+x,1/2+y,z
1/2-x,1/2-y,1/2+z
1/2+x,1/2-y,-z
1/2-x,1/2+y,1/2-z
1/2-x,1/2-y,-z
1/2+x,1/2+y,1/2-z
1/2-x,1/2+y,z
1/2+x,1/2-y,1/2+z
loop_
_atom_site_type_symbol
_atom_site_label
_atom_site_fract_x
_atom_site_fract_y
_atom_site_fract_z
Si Si1 0.720465 0.859301 0.959377
Si Si2 0.708147 0.987819 0.802563
Si Si3 0.500000 0.366336 0.250000
Si Si4 0.274653 0.026132 0.409458
Si Si5 0.724619 0.848232 0.158012
Si Si6 0.777026 0.410427 0.058770
Si Si7 0.782367 0.226984 0.381966
Si Si8 0.221585 0.858132 0.697563
O O1 0.500000 0.863470 0.960035
O O2 0.786461 0.912132 0.926050
O O3 0.760296 0.798939 0.935812
O O4 0.787814 0.872055 0.014041
O O5 0.792556 0.005531 0.750000
O O6 0.500000 0.011014 0.803539
O O7 0.792012 0.993915 0.855977
O O8 0.699410 0.920164 0.801110
O O9 0.338190 0.363169 0.206311
O O10 0.500000 0.028282 0.406606
O O11 0.224544 0.975589 0.445462
O O12 0.500000 0.849234 0.166048
O O13 0.769233 0.888178 0.112248
O O14 0.780887 0.787102 0.136417
O O15 0.000000 0.409054 0.056705
O O16 0.706962 0.179177 0.346054
O O17 0.000000 0.229032 0.373674
O O18 0.259024 0.830245 0.750000
O O19 0.000000 0.865044 0.693549
#
# Coordination Sequence:
#
# PCOD9470960 Si02
#       8
#    16  16   4  16  16  16  16  16
#     4  10  19  33  60  94 125 163 218 273 326 389
#     4   9  16  27  44  74 109 142 189 249 309 371
#     4  12  26  48  76 102 130 168 224 280 322 388
#     4   9  16  30  55  88 122 159 216 276 321 386
#     4  10  24  46  69  97 134 173 219 269 330 394
#     4   9  19  38  62  88 124 172 218 270 331 387
#     4  10  21  36  56  87 126 165 210 257 324 399
#     4   9  17  29  47  69 105 150 189 237 301 376
#
# _framework density 24.518273000000001
#
# number of rings (size 3 to 8) (size 9 to 14) (size 15 to 20)
#    0.000    2.483    1.379    0.621    1.931    2.207 
#    2.483    0.000    3.034    0.828    0.000    0.000 
#    0.000    0.000    0.000    0.000    0.000    0.276 
#
# Total GULP energy -323265.447417 kJ/mol
# GULP energy per Si atom -5573.542197 kJ/mol
# Density = 2.446247 g / cm^3
# Si number density = 24.518273 Si / 1000 Ang^3
#
#
#
# Elastic Constant Matrix: (Units=GPa)
#
#
# Indices 1 2 3 4 5 6 
#
# 1 128.1754 -4.1083 21.4717 0.0000 0.0000 0.0000
# 2 -4.1083 66.9485 32.7869 0.0000 0.0000 0.0000
# 3 21.4717 32.7869 157.8960 0.0000 0.0000 0.0000
# 4 0.0000 0.0000 0.0000 19.3270 0.0000 0.0000
# 5 0.0000 0.0000 0.0000 0.0000 12.6831 0.0000
# 6 0.0000 0.0000 0.0000 0.0000 0.0000 5.4270
#
#
#
# Elastic Compliance Matrix: (Units=1/GPa)
#
#
# Indices 1 2 3 4 5 6 
#
# 1 0.008062 0.001148 -0.001335 0.000000 0.000000 0.000000
# 2 0.001148 0.016791 -0.003643 0.000000 0.000000 0.000000
# 3 -0.001335 -0.003643 0.007271 0.000000 0.000000 0.000000
# 4 0.000000 0.000000 0.000000 0.051741 0.000000 0.000000
# 5 0.000000 0.000000 0.000000 0.000000 0.078845 0.000000
# 6 0.000000 0.000000 0.000000 0.000000 0.000000 0.184265
#
#
# Mechanical properties :
#
#
# Convention : Reuss Voigt Hill
#
# Bulk Modulus (GPa) = 40.87250 50.36893 45.62072
# Shear Modulus (GPa) = 13.78208 27.67873 20.73040
#
# Velocity S-wave (km/s) = 2.37347 3.36356 2.91092
# Velocity P-wave (km/s) = 4.92113 5.97267 5.47221
#
# Compressibility (1/GPa) = 0.02446633
#
# Stress axis : x y z
#
# Youngs Moduli (GPa) = 124.03525 59.55442 137.52815
#
# Poissons Ratio (x) = -0.06840 0.18358
# Poissons Ratio (y) = -0.14245 0.50100
# Poissons Ratio (z) = 0.16557 0.21695
#
# Static dielectric constant tensor:
#      x y z
#    x 1.923790 0.000000 0.000000 
#    y 0.000000 1.948480 0.000000 
#    z 0.000000 0.000000 1.986230 
# 
# From -- ./inp_files/67470.got.cif
#   From: 2010.05.17/outbox.cif.g08.bks.cpg/sg63_34_cif.got.tgz:67470.got - 2010.06.03 15:47:04.
