data_PCOD9470076
_publ_section_title
;
Structure prediction by ZEFSAII (Michael W. Deem and Ramdas Pophale) SiO2 
 PCOD9470076
Probable space group: C M C M
;
_chemical_formula_sum "Si O2"
_cell_formula_units_Z 96
_cell_length_a 8.593251
_cell_length_b 33.648395
_cell_length_c 19.011791
_cell_angle_alpha 90.000000
_cell_angle_beta 90.000000
_cell_angle_gamma 90.000000
_cell_volume 5497.242333
_symmetry_space_group_name_H-M "C M C M"
_symmetry_group_IT_number 63
_symmetry_cell_setting 'orthorhombic'
loop_
_space_group_symop_operation_xyz
x,y,z
-x,-y,1/2+z
x,-y,-z
-x,y,1/2-z
-x,-y,-z
x,y,1/2-z
-x,y,z
x,-y,1/2+z
1/2+x,1/2+y,z
1/2-x,1/2-y,1/2+z
1/2+x,1/2-y,-z
1/2-x,1/2+y,1/2-z
1/2-x,1/2-y,-z
1/2+x,1/2+y,1/2-z
1/2-x,1/2+y,z
1/2+x,1/2-y,1/2+z
loop_
_atom_site_type_symbol
_atom_site_label
_atom_site_fract_x
_atom_site_fract_y
_atom_site_fract_z
Si Si1 0.188258 0.915554 0.829447
Si Si2 0.185693 0.669617 0.668944
Si Si3 0.186698 0.662733 0.097152
Si Si4 0.810544 0.041909 0.030146
Si Si5 0.313196 0.244397 0.167403
Si Si6 0.813946 0.123869 0.959430
O O1 0.238961 0.924909 0.750000
O O2 0.247514 0.872265 0.853314
O O3 0.238483 0.946302 0.890539
O O4 0.000000 0.914630 0.830431
O O5 0.237375 0.664372 0.750000
O O6 0.236367 0.714011 0.646697
O O7 0.258631 0.637957 0.616328
O O8 0.000000 0.666789 0.666577
O O9 0.238005 0.706041 0.123569
O O10 0.000000 0.661431 0.100138
O O11 0.243214 0.652544 0.018985
O O12 0.000000 0.040431 0.030822
O O13 0.765985 0.079188 0.981090
O O14 0.754073 0.000000 0.000000
O O15 0.278494 0.237410 0.250000
O O16 0.500000 0.248453 0.160617
O O17 0.000000 0.125915 0.964014
#
# Coordination Sequence:
#
# PCOD9470076 Si02
#       6
#    16  16  16  16  16  16
#     4   9  17  29  47  72 101 132 165 203 248 297
#     4  10  21  36  53  72  96 129 167 206 246 287
#     4  10  19  31  49  73 101 132 164 201 246 294
#     4   8  15  30  51  74  99 126 160 204 249 292
#     4   9  18  32  49  70  97 130 168 207 244 283
#     4  10  20  34  53  75  98 127 162 201 247 295
#
# _framework density 17.463301999999999
#
# number of rings (size 3 to 8) (size 9 to 14) (size 15 to 20)
#    0.000    2.667    0.000    3.000    0.000    4.000 
#    0.000    2.500    0.000   15.500    0.000    0.000 
#    0.000    0.000    0.000    0.000    0.000    0.000 
#
# Total GULP energy -267666.731034 kJ/mol
# GULP energy per Si atom -5576.390230 kJ/mol
# Density = 1.742356 g / cm^3
# Si number density = 17.463302 Si / 1000 Ang^3
#
#
#
# Elastic Constant Matrix: (Units=GPa)
#
#
# Indices 1 2 3 4 5 6 
#
# 1 15.0775 17.3532 19.7324 0.0000 0.0000 0.0000
# 2 17.3532 105.5567 86.1790 0.0000 0.0000 0.0000
# 3 19.7324 86.1790 121.7592 0.0000 0.0000 0.0000
# 4 0.0000 0.0000 0.0000 22.2836 0.0000 0.0000
# 5 0.0000 0.0000 0.0000 0.0000 25.7489 0.0000
# 6 0.0000 0.0000 0.0000 0.0000 0.0000 18.4596
#
#
#
# Elastic Compliance Matrix: (Units=1/GPa)
#
#
# Indices 1 2 3 4 5 6 
#
# 1 0.086042 -0.006540 -0.009315 0.000000 0.000000 0.000000
# 2 -0.006540 0.022938 -0.015176 0.000000 0.000000 0.000000
# 3 -0.009315 -0.015176 0.020464 0.000000 0.000000 0.000000
# 4 0.000000 0.000000 0.000000 0.044876 0.000000 0.000000
# 5 0.000000 0.000000 0.000000 0.000000 0.038837 0.000000
# 6 0.000000 0.000000 0.000000 0.000000 0.000000 0.054172
#
#
# Mechanical properties :
#
#
# Convention : Reuss Voigt Hill
#
# Bulk Modulus (GPa) = 14.84063 54.32474 34.58268
# Shear Modulus (GPa) = 14.21057 21.24035 17.72546
#
# Velocity S-wave (km/s) = 2.85571 3.49131 3.18938
# Velocity P-wave (km/s) = 4.40341 6.88679 5.78005
#
# Compressibility (1/GPa) = 0.06738259
#
# Stress axis : x y z
#
# Youngs Moduli (GPa) = 11.62224 43.59510 48.86736
#
# Poissons Ratio (x) = 0.28510 0.45522
# Poissons Ratio (y) = 0.07601 0.74159
# Poissons Ratio (z) = 0.10827 0.66158
#
# Static dielectric constant tensor:
#      x y z
#    x 1.592050 0.000000 0.000000 
#    y 0.000000 1.573830 0.000000 
#    z 0.000000 0.000000 1.597900 
# 
# From -- ./inp_files/51385.got.cif
#   From: 2010.05.17/outbox.cif.g08.bks.cpg/sg63_26_cif.got.tgz:51385.got - 2010.06.03 15:47:04.
