data_PCOD9470177
_publ_section_title
;
Structure prediction by ZEFSAII (Michael W. Deem and Ramdas Pophale) SiO2 
 PCOD9470177
Probable space group: C M C M
;
_chemical_formula_sum "Si O2"
_cell_formula_units_Z 80
_cell_length_a 13.460148
_cell_length_b 23.940481
_cell_length_c 13.474592
_cell_angle_alpha 90.000000
_cell_angle_beta 90.000000
_cell_angle_gamma 90.000000
_cell_volume 4342.085100
_symmetry_space_group_name_H-M "C M C M"
_symmetry_group_IT_number 63
_symmetry_cell_setting 'orthorhombic'
loop_
_space_group_symop_operation_xyz
x,y,z
-x,-y,1/2+z
x,-y,-z
-x,y,1/2-z
-x,-y,-z
x,y,1/2-z
-x,y,z
x,-y,1/2+z
1/2+x,1/2+y,z
1/2-x,1/2-y,1/2+z
1/2+x,1/2-y,-z
1/2-x,1/2+y,1/2-z
1/2-x,1/2-y,-z
1/2+x,1/2+y,1/2-z
1/2-x,1/2+y,z
1/2+x,1/2-y,1/2+z
loop_
_atom_site_type_symbol
_atom_site_label
_atom_site_fract_x
_atom_site_fract_y
_atom_site_fract_z
Si Si1 0.282117 0.296472 0.135062
Si Si2 0.500000 0.710897 0.630858
Si Si3 0.881737 0.914515 0.567620
Si Si4 0.790039 0.668423 0.069980
Si Si5 0.500000 0.839029 0.631183
Si Si6 0.118434 0.038073 0.856234
O O1 0.261514 0.310050 0.250000
O O2 0.394735 0.315765 0.106145
O O3 0.285051 0.228966 0.123454
O O4 0.213221 0.319513 0.048210
O O5 0.500000 0.714104 0.750000
O O6 0.500000 0.774443 0.592863
O O7 0.806562 0.866698 0.600573
O O8 0.847654 0.932708 0.456622
O O9 0.000000 0.900189 0.568823
O O10 0.870396 0.971492 0.630353
O O11 0.893624 0.638556 0.096615
O O12 0.500000 0.838471 0.750000
O O13 0.160240 0.056638 0.750000
O O14 0.000000 0.048358 0.854414
#
# Coordination Sequence:
#
# PCOD9470177 Si02
#       6
#    16   8  16  16   8  16
#     4   9  18  31  46  70 100 132 170 209 251 295
#     4   7  12  26  46  63  88 123 159 198 235 281
#     4   9  18  30  48  78 105 124 157 205 252 302
#     4  10  19  31  51  71  96 132 173 210 248 287
#     4   9  18  34  51  64  86 128 174 202 232 292
#     4   8  15  30  49  70 102 136 158 188 246 311
#
# _framework density 18.424327999999999
#
# number of rings (size 3 to 8) (size 9 to 14) (size 15 to 20)
#    0.000    3.200    0.000    3.000    1.400    2.400 
#    1.800    0.500    0.000    2.400    0.000    1.400 
#    0.000    0.000    0.000    0.000    0.000    0.000 
#
# Total GULP energy -222783.197944 kJ/mol
# GULP energy per Si atom -5569.579949 kJ/mol
# Density = 1.838239 g / cm^3
# Si number density = 18.424328 Si / 1000 Ang^3
#
#
#
# Elastic Constant Matrix: (Units=GPa)
#
#
# Indices 1 2 3 4 5 6 
#
# 1 101.0319 28.3180 26.4885 0.0000 0.0000 0.0000
# 2 28.3180 52.9747 -0.0184 0.0000 0.0000 0.0000
# 3 26.4885 -0.0184 87.0087 0.0000 0.0000 0.0000
# 4 0.0000 0.0000 0.0000 -2.1077 0.0000 0.0000
# 5 0.0000 0.0000 0.0000 0.0000 21.6744 0.0000
# 6 0.0000 0.0000 0.0000 0.0000 0.0000 22.6628
#
#
#
# Elastic Compliance Matrix: (Units=1/GPa)
#
#
# Indices 1 2 3 4 5 6 
#
# 1 0.012849 -0.006870 -0.003913 0.000000 0.000000 0.000000
# 2 -0.006870 0.022550 0.002096 0.000000 0.000000 0.000000
# 3 -0.003913 0.002096 0.012685 0.000000 0.000000 0.000000
# 4 0.000000 0.000000 0.000000 -0.474453 0.000000 0.000000
# 5 0.000000 0.000000 0.000000 0.000000 0.046137 0.000000
# 6 0.000000 0.000000 0.000000 0.000000 0.000000 0.044125
#
#
# Mechanical properties :
#
#
# Convention : Reuss Voigt Hill
#
# Bulk Modulus (GPa) = 32.56245 38.95461 35.75853
# Shear Modulus (GPa) = -16.20774 20.86104 2.32665
#
# Velocity S-wave (km/s) = -2.96918 3.36855 1.12497
# Velocity P-wave (km/s) = 2.44076 6.02648 4.59759
#
# Compressibility (1/GPa) = 0.03071022
#
# Stress axis : x y z
#
# Youngs Moduli (GPa) = 77.82424 44.34558 78.83403
#
# Poissons Ratio (x) = 0.30466 0.30850
# Poissons Ratio (y) = 0.53466 -0.16526
# Poissons Ratio (z) = 0.30455 -0.09296
#
# Static dielectric constant tensor:
#      x y z
#    x 1.659930 0.000000 0.000000 
#    y 0.000000 1.680790 0.000000 
#    z 0.000000 0.000000 1.667570 
# 
# From -- ./inp_files/30061.got.cif
#   From: 2010.05.17/outbox.cif.g08.bks.cpg/sg63_16_cif.got.tgz:30061.got - 2010.06.03 15:47:04.
