data_PCOD9470838
_publ_section_title
;
Structure prediction by ZEFSAII (Michael W. Deem and Ramdas Pophale) SiO2 
 PCOD9470838
Probable space group: C M C M
;
_chemical_formula_sum "Si O2"
_cell_formula_units_Z 116
_cell_length_a 22.776777
_cell_length_b 30.080667
_cell_length_c 9.773594
_cell_angle_alpha 90.000000
_cell_angle_beta 90.000000
_cell_angle_gamma 90.000000
_cell_volume 6696.286490
_symmetry_space_group_name_H-M "C M C M"
_symmetry_group_IT_number 63
_symmetry_cell_setting 'orthorhombic'
loop_
_space_group_symop_operation_xyz
x,y,z
-x,-y,1/2+z
x,-y,-z
-x,y,1/2-z
-x,-y,-z
x,y,1/2-z
-x,y,z
x,-y,1/2+z
1/2+x,1/2+y,z
1/2-x,1/2-y,1/2+z
1/2+x,1/2-y,-z
1/2-x,1/2+y,1/2-z
1/2-x,1/2-y,-z
1/2+x,1/2+y,1/2-z
1/2-x,1/2+y,z
1/2+x,1/2-y,1/2+z
loop_
_atom_site_type_symbol
_atom_site_label
_atom_site_fract_x
_atom_site_fract_y
_atom_site_fract_z
Si Si1 0.598607 0.201223 0.513089
Si Si2 0.643571 0.044545 0.588245
Si Si3 0.066745 0.799198 0.414521
Si Si4 0.569771 0.108976 0.402426
Si Si5 0.169199 0.863337 0.084048
Si Si6 0.216976 0.043596 0.911536
Si Si7 0.767269 0.707583 0.589396
Si Si8 0.500000 0.195272 0.750000
O O1 0.590498 0.250531 0.452411
O O2 0.585130 0.161020 0.410480
O O3 0.664850 0.196676 0.566077
O O4 0.551250 0.195939 0.631979
O O5 0.630256 0.039210 0.750000
O O6 0.605589 0.083237 0.518825
O O7 0.713315 0.054151 0.576531
O O8 0.632106 0.000000 0.500000
O O9 0.065218 0.801972 0.250000
O O10 0.111267 0.837334 0.464566
O O11 0.000000 0.803982 0.466288
O O12 0.584592 0.091930 0.250000
O O13 0.500000 0.103460 0.423594
O O14 0.166860 0.864818 0.250000
O O15 0.180154 0.913739 0.039759
O O16 0.225302 0.833160 0.048720
O O17 0.205802 0.035684 0.750000
O O18 0.204946 0.000000 0.000000
O O19 0.756987 0.716842 0.750000
O O20 0.750000 0.750000 0.500000
#
# Coordination Sequence:
#
# PCOD9470838 Si02
#       8
#    16  16  16  16  16  16  16   4
#     4  12  22  36  55  78 112 151 197 231 282 330
#     4  10  21  37  59  81 106 139 179 229 287 345
#     4  10  19  33  55  79 107 145 189 230 271 327
#     4  11  24  38  55  78 108 144 190 237 279 329
#     4   9  18  33  53  80 109 141 179 223 275 327
#     4   9  18  35  58  82 107 138 176 223 276 334
#     4  11  22  35  54  79 112 147 185 233 281 335
#     4  12  24  36  54  80 110 160 200 240 276 348
#
# _framework density 17.323034
#
# number of rings (size 3 to 8) (size 9 to 14) (size 15 to 20)
#    0.000    1.655    3.448    1.655    0.966    3.862 
#    0.000    0.690    1.517    0.414    0.000    0.000 
#    0.000    0.000    0.000    0.000    0.000    0.000 
#
# Total GULP energy -323104.181968 kJ/mol
# GULP energy per Si atom -5570.761758 kJ/mol
# Density = 1.728361 g / cm^3
# Si number density = 17.323034 Si / 1000 Ang^3
#
#
#
# Elastic Constant Matrix: (Units=GPa)
#
#
# Indices 1 2 3 4 5 6 
#
# 1 102.3630 57.1828 28.8295 0.0000 0.0000 0.0000
# 2 57.1828 127.6757 44.1250 0.0000 0.0000 0.0000
# 3 28.8295 44.1250 68.4783 0.0000 0.0000 0.0000
# 4 0.0000 0.0000 0.0000 0.3778 0.0000 0.0000
# 5 0.0000 0.0000 0.0000 0.0000 19.4107 0.0000
# 6 0.0000 0.0000 0.0000 0.0000 0.0000 13.6114
#
#
#
# Elastic Compliance Matrix: (Units=1/GPa)
#
#
# Indices 1 2 3 4 5 6 
#
# 1 0.013297 -0.005172 -0.002265 0.000000 0.000000 0.000000
# 2 -0.005172 0.012088 -0.005612 0.000000 0.000000 0.000000
# 3 -0.002265 -0.005612 0.019173 0.000000 0.000000 0.000000
# 4 0.000000 0.000000 0.000000 2.646639 0.000000 0.000000
# 5 0.000000 0.000000 0.000000 0.000000 0.051518 0.000000
# 6 0.000000 0.000000 0.000000 0.000000 0.000000 0.073468
#
#
# Mechanical properties :
#
#
# Convention : Reuss Voigt Hill
#
# Bulk Modulus (GPa) = 54.17281 62.08794 58.13038
# Shear Modulus (GPa) = 1.75535 17.90529 9.83032
#
# Velocity S-wave (km/s) = 1.00772 3.21847 2.38475
# Velocity P-wave (km/s) = 5.71787 7.05198 6.41968
#
# Compressibility (1/GPa) = 0.01845944
#
# Stress axis : x y z
#
# Youngs Moduli (GPa) = 75.20774 82.72417 52.15748
#
# Poissons Ratio (x) = 0.42788 0.11813
# Poissons Ratio (y) = 0.38901 0.29269
# Poissons Ratio (z) = 0.17034 0.46422
#
# Static dielectric constant tensor:
#      x y z
#    x 1.585400 0.000000 0.000000 
#    y 0.000000 1.587780 0.000000 
#    z 0.000000 0.000000 1.625920 
# 
# From -- ./inp_files/11164.got.cif
#   From: 2010.05.17/outbox.cif.g08.bks.cpg/sg63_6_cif.got.tgz:11164.got - 2010.06.03 15:47:04.
