data_PCOD9470571
_publ_section_title
;
Structure prediction by ZEFSAII (Michael W. Deem and Ramdas Pophale) SiO2 
 PCOD9470571
Probable space group: C M C M
;
_chemical_formula_sum "Si O2"
_cell_formula_units_Z 104
_cell_length_a 21.636106
_cell_length_b 28.832096
_cell_length_c 9.365393
_cell_angle_alpha 90.000000
_cell_angle_beta 90.000000
_cell_angle_gamma 90.000000
_cell_volume 5842.265940
_symmetry_space_group_name_H-M "C M C M"
_symmetry_group_IT_number 63
_symmetry_cell_setting 'orthorhombic'
loop_
_space_group_symop_operation_xyz
x,y,z
-x,-y,1/2+z
x,-y,-z
-x,y,1/2-z
-x,-y,-z
x,y,1/2-z
-x,y,z
x,-y,1/2+z
1/2+x,1/2+y,z
1/2-x,1/2-y,1/2+z
1/2+x,1/2-y,-z
1/2-x,1/2+y,1/2-z
1/2-x,1/2-y,-z
1/2+x,1/2+y,1/2-z
1/2-x,1/2+y,z
1/2+x,1/2-y,1/2+z
loop_
_atom_site_type_symbol
_atom_site_label
_atom_site_fract_x
_atom_site_fract_y
_atom_site_fract_z
Si Si1 0.369507 0.598073 0.079113
Si Si2 0.676821 0.793828 0.914865
Si Si3 0.500000 0.549575 0.420567
Si Si4 0.173846 0.202038 0.085148
Si Si5 0.426361 0.956439 0.909714
Si Si6 0.758463 0.952258 0.419310
Si Si7 0.641935 0.116298 0.917608
O O1 0.358626 0.591961 0.250000
O O2 0.438198 0.579280 0.046975
O O3 0.356881 0.652591 0.049195
O O4 0.320167 0.568678 0.989672
O O5 0.657908 0.798670 0.750000
O O6 0.751338 0.800774 0.919698
O O7 0.659000 0.743776 0.977999
O O8 0.650222 0.833543 0.015174
O O9 0.500000 0.500000 0.500000
O O10 0.500000 0.540923 0.250000
O O11 0.157422 0.213521 0.250000
O O12 0.399933 0.956201 0.750000
O O13 0.500000 0.961001 0.899127
O O14 0.409896 0.910802 0.995490
O O15 0.402841 0.000000 0.000000
O O16 0.766216 0.960360 0.250000
O O17 0.704119 0.914410 0.437942
O O18 0.743808 0.000000 0.500000
O O19 0.628766 0.118114 0.750000
#
# Coordination Sequence:
#
# PCOD9470571 Si02
#       7
#    16  16   8  16  16  16  16
#     4  10  20  37  58  80 108 144 185 230 280 333
#     4  10  19  32  54  82 111 142 177 221 275 331
#     4  10  22  38  58  82 110 146 190 236 281 336
#     4   9  18  33  54  79 108 142 177 221 275 332
#     4  10  21  37  57  80 108 144 184 223 265 319
#     4  11  23  35  51  78 111 144 179 223 272 326
#     4  11  22  35  54  81 111 144 182 225 272 325
#
# _framework density 17.801311999999999
#
# number of rings (size 3 to 8) (size 9 to 14) (size 15 to 20)
#    0.000    1.846    1.538    2.769    0.000    7.077 
#    0.000    0.000    1.692    0.000    0.000    0.000 
#    0.000    0.000    0.000    0.000    0.000    0.000 
#
# Total GULP energy -290261.978754 kJ/mol
# GULP energy per Si atom -5581.961130 kJ/mol
# Density = 1.776080 g / cm^3
# Si number density = 17.801312 Si / 1000 Ang^3
#
#
#
# Elastic Constant Matrix: (Units=GPa)
#
#
# Indices 1 2 3 4 5 6 
#
# 1 48.1747 30.9626 30.4954 0.0000 0.0000 0.0000
# 2 30.9626 119.2514 67.1647 0.0000 0.0000 0.0000
# 3 30.4954 67.1647 114.8149 0.0000 0.0000 0.0000
# 4 0.0000 0.0000 0.0000 34.2956 0.0000 0.0000
# 5 0.0000 0.0000 0.0000 0.0000 17.2883 0.0000
# 6 0.0000 0.0000 0.0000 0.0000 0.0000 27.9855
#
#
#
# Elastic Compliance Matrix: (Units=1/GPa)
#
#
# Indices 1 2 3 4 5 6 
#
# 1 0.026370 -0.004328 -0.004472 0.000000 0.000000 0.000000
# 2 -0.004328 0.013216 -0.006582 0.000000 0.000000 0.000000
# 3 -0.004472 -0.006582 0.013748 0.000000 0.000000 0.000000
# 4 0.000000 0.000000 0.000000 0.029158 0.000000 0.000000
# 5 0.000000 0.000000 0.000000 0.000000 0.057843 0.000000
# 6 0.000000 0.000000 0.000000 0.000000 0.000000 0.035733
#
#
# Mechanical properties :
#
#
# Convention : Reuss Voigt Hill
#
# Bulk Modulus (GPa) = 44.30582 59.94296 52.12439
# Shear Modulus (GPa) = 23.32567 26.15509 24.74038
#
# Velocity S-wave (km/s) = 3.62378 3.83728 3.73206
# Velocity P-wave (km/s) = 6.51553 7.30612 6.92212
#
# Compressibility (1/GPa) = 0.02257040
#
# Stress axis : x y z
#
# Youngs Moduli (GPa) = 37.92117 75.66374 72.73896
#
# Poissons Ratio (x) = 0.32747 0.32531
# Poissons Ratio (y) = 0.16412 0.47875
# Poissons Ratio (z) = 0.16960 0.49800
#
# Static dielectric constant tensor:
#      x y z
#    x 1.610040 0.000000 0.000000 
#    y 0.000000 1.616960 0.000000 
#    z 0.000000 0.000000 1.595680 
# 
# From -- ./inp_files/10821.got.cif
#   From: 2010.05.17/outbox.cif.g08.bks.cpg/sg63_6_cif.got.tgz:10821.got - 2010.06.03 15:47:04.
