data_PCOD9470687
_publ_section_title
;
Structure prediction by ZEFSAII (Michael W. Deem and Ramdas Pophale) SiO2 
 PCOD9470687
Probable space group: C M C M
;
_chemical_formula_sum "Si O2"
_cell_formula_units_Z 88
_cell_length_a 19.013338
_cell_length_b 29.218306
_cell_length_c 8.267673
_cell_angle_alpha 90.000000
_cell_angle_beta 90.000000
_cell_angle_gamma 90.000000
_cell_volume 4593.002619
_symmetry_space_group_name_H-M "C M C M"
_symmetry_group_IT_number 63
_symmetry_cell_setting 'orthorhombic'
loop_
_space_group_symop_operation_xyz
x,y,z
-x,-y,1/2+z
x,-y,-z
-x,y,1/2-z
-x,-y,-z
x,y,1/2-z
-x,y,z
x,-y,1/2+z
1/2+x,1/2+y,z
1/2-x,1/2-y,1/2+z
1/2+x,1/2-y,-z
1/2-x,1/2+y,1/2-z
1/2-x,1/2-y,-z
1/2+x,1/2+y,1/2-z
1/2-x,1/2+y,z
1/2+x,1/2-y,1/2+z
loop_
_atom_site_type_symbol
_atom_site_label
_atom_site_fract_x
_atom_site_fract_y
_atom_site_fract_z
Si Si1 0.078362 0.052238 0.945399
Si Si2 0.000000 0.552277 0.441149
Si Si3 0.186177 0.218224 0.944909
Si Si4 0.208121 0.885895 0.448306
Si Si5 0.134951 0.609650 0.942628
Si Si6 0.919564 0.706659 0.054139
O O1 0.078858 0.053538 0.750000
O O2 0.143479 0.082739 0.002922
O O3 0.000000 0.067718 0.998444
O O4 0.087020 0.000000 0.000000
O O5 0.000000 0.500000 0.500000
O O6 0.929593 0.579055 0.495377
O O7 0.000000 0.552201 0.250000
O O8 0.186125 0.216399 0.750000
O O9 0.195182 0.166380 0.002395
O O10 0.116846 0.245997 0.996175
O O11 0.250000 0.250000 0.000000
O O12 0.208299 0.886033 0.250000
O O13 0.285975 0.902061 0.500552
O O14 0.134505 0.605818 0.750000
O O15 0.120845 0.662390 0.989128
O O16 0.918037 0.704357 0.250000
O O17 0.000000 0.704002 0.000562
#
# Coordination Sequence:
#
# PCOD9470687 Si02
#       6
#    16   8  16  16  16  16
#     4   9  18  35  58  81 108 143 180 223 277 332
#     4  12  26  44  62  84 114 146 192 242 291 342
#     4  10  19  33  52  77 110 146 185 228 276 325
#     4   9  19  34  55  84 115 146 187 234 278 335
#     4  11  21  36  58  82 111 149 189 231 285 339
#     4  10  20  33  52  79 110 146 190 235 277 333
#
# _framework density 19.159579000000001
#
# number of rings (size 3 to 8) (size 9 to 14) (size 15 to 20)
#    0.000    2.000    2.727    1.364    0.000    1.455 
#    0.000    8.182    0.000    0.000    0.000    2.545 
#    0.000    0.000    0.000    0.000    0.000    0.000 
#
# Total GULP energy -245527.502726 kJ/mol
# GULP energy per Si atom -5580.170517 kJ/mol
# Density = 1.911597 g / cm^3
# Si number density = 19.159579 Si / 1000 Ang^3
#
#
#
# Elastic Constant Matrix: (Units=GPa)
#
#
# Indices 1 2 3 4 5 6 
#
# 1 201.4112 96.2265 26.4034 0.0000 0.0000 0.0000
# 2 96.2265 116.4941 15.6111 0.0000 0.0000 0.0000
# 3 26.4034 15.6111 19.3622 0.0000 0.0000 0.0000
# 4 0.0000 0.0000 0.0000 25.6025 0.0000 0.0000
# 5 0.0000 0.0000 0.0000 0.0000 8.6324 0.0000
# 6 0.0000 0.0000 0.0000 0.0000 0.0000 39.0626
#
#
#
# Elastic Compliance Matrix: (Units=1/GPa)
#
#
# Indices 1 2 3 4 5 6 
#
# 1 0.008980 -0.006476 -0.007024 0.000000 0.000000 0.000000
# 2 -0.006476 0.014295 -0.002694 0.000000 0.000000 0.000000
# 3 -0.007024 -0.002694 0.063397 0.000000 0.000000 0.000000
# 4 0.000000 0.000000 0.000000 0.039059 0.000000 0.000000
# 5 0.000000 0.000000 0.000000 0.000000 0.115843 0.000000
# 6 0.000000 0.000000 0.000000 0.000000 0.000000 0.025600
#
#
# Mechanical properties :
#
#
# Convention : Reuss Voigt Hill
#
# Bulk Modulus (GPa) = 18.42174 68.19439 43.30806
# Shear Modulus (GPa) = 15.74030 27.92793 21.83411
#
# Velocity S-wave (km/s) = 2.86936 3.82206 3.37945
# Velocity P-wave (km/s) = 4.54020 7.42614 6.15471
#
# Compressibility (1/GPa) = 0.05428370
#
# Stress axis : x y z
#
# Youngs Moduli (GPa) = 111.36022 69.95614 15.77358
#
# Poissons Ratio (x) = 0.45306 0.11079
# Poissons Ratio (y) = 0.72120 0.04249
# Poissons Ratio (z) = 0.78218 0.18845
#
# Static dielectric constant tensor:
#      x y z
#    x 1.584120 0.000000 0.000000 
#    y 0.000000 1.623340 0.000000 
#    z 0.000000 0.000000 1.669400 
# 
# From -- ./inp_files/6863.got.cif
#   From: 2010.05.17/outbox.cif.g08.bks.cpg/sg63_4_cif.got.tgz:6863.got - 2010.06.03 15:47:04.
