data_PCOD9470759
_publ_section_title
;
Structure prediction by ZEFSAII (Michael W. Deem and Ramdas Pophale) SiO2 
 PCOD9470759
Probable space group: C M C M
;
_chemical_formula_sum "Si O2"
_cell_formula_units_Z 116
_cell_length_a 7.953528
_cell_length_b 24.720844
_cell_length_c 30.942830
_cell_angle_alpha 90.000000
_cell_angle_beta 90.000000
_cell_angle_gamma 90.000000
_cell_volume 6083.915026
_symmetry_space_group_name_H-M "C M C M"
_symmetry_group_IT_number 63
_symmetry_cell_setting 'orthorhombic'
loop_
_space_group_symop_operation_xyz
x,y,z
-x,-y,1/2+z
x,-y,-z
-x,y,1/2-z
-x,-y,-z
x,y,1/2-z
-x,y,z
x,-y,1/2+z
1/2+x,1/2+y,z
1/2-x,1/2-y,1/2+z
1/2+x,1/2-y,-z
1/2-x,1/2+y,1/2-z
1/2-x,1/2-y,-z
1/2+x,1/2+y,1/2-z
1/2-x,1/2+y,z
1/2+x,1/2-y,1/2+z
loop_
_atom_site_type_symbol
_atom_site_label
_atom_site_fract_x
_atom_site_fract_y
_atom_site_fract_z
Si Si1 0.197662 0.335143 0.848818
Si Si2 0.300614 0.300039 0.557772
Si Si3 0.500000 0.700378 0.750000
Si Si4 0.701610 0.060341 0.299163
Si Si5 0.192468 0.368991 0.120043
Si Si6 0.704737 0.177719 0.535337
Si Si7 0.195077 0.937252 0.297695
Si Si8 0.190000 0.723321 0.814781
O O1 0.219908 0.325453 0.899664
O O2 0.256919 0.393656 0.832380
O O3 0.289529 0.286796 0.823754
O O4 0.000000 0.331007 0.837594
O O5 0.500000 0.297844 0.565288
O O6 0.239969 0.238610 0.548589
O O7 0.263864 0.331762 0.513397
O O8 0.348233 0.703842 0.786836
O O9 0.735854 0.079077 0.250000
O O10 0.500000 0.053069 0.303206
O O11 0.780801 0.001275 0.304079
O O12 0.269026 0.363384 0.072301
O O13 0.249172 0.406560 0.159436
O O14 0.200044 0.308779 0.140073
O O15 0.000000 0.384622 0.113114
O O16 0.500000 0.177692 0.535505
O O17 0.273298 0.923644 0.250000
O O18 0.000000 0.924000 0.293324
O O19 0.000000 0.712032 0.798322
#
# Coordination Sequence:
#
# PCOD9470759 Si02
#       8
#    16  16   4  16  16  16  16  16
#     4  11  21  35  59  84 116 152 191 239 289 345
#     4  10  19  33  53  81 114 148 187 231 283 346
#     4  12  26  40  52  78 124 160 198 232 292 344
#     4   9  20  38  59  80 108 146 193 239 284 337
#     4  10  21  37  57  81 114 149 190 237 287 344
#     4   9  18  34  53  78 111 147 187 230 282 346
#     4  10  22  37  56  81 110 146 193 239 285 338
#     4  11  24  39  56  83 117 158 197 235 287 349
#
# _framework density 19.066669000000001
#
# number of rings (size 3 to 8) (size 9 to 14) (size 15 to 20)
#    0.000    1.931    2.069    1.448    2.897    3.034 
#    0.000    0.000    0.000    0.828    0.000    5.793 
#    0.000    0.000    0.000    0.000    0.000    0.000 
#
# Total GULP energy -322918.905108 kJ/mol
# GULP energy per Si atom -5567.567329 kJ/mol
# Density = 1.902327 g / cm^3
# Si number density = 19.066669 Si / 1000 Ang^3
#
#
#
# Elastic Constant Matrix: (Units=GPa)
#
#
# Indices 1 2 3 4 5 6 
#
# 1 64.5550 -2.5991 8.2340 0.0000 0.0000 0.0000
# 2 -2.5991 49.3869 17.8887 0.0000 0.0000 0.0000
# 3 8.2340 17.8887 76.9506 0.0000 0.0000 0.0000
# 4 0.0000 0.0000 0.0000 28.0398 0.0000 0.0000
# 5 0.0000 0.0000 0.0000 0.0000 21.6049 0.0000
# 6 0.0000 0.0000 0.0000 0.0000 0.0000 23.3817
#
#
#
# Elastic Compliance Matrix: (Units=1/GPa)
#
#
# Indices 1 2 3 4 5 6 
#
# 1 0.015817 0.001578 -0.002059 0.000000 0.000000 0.000000
# 2 0.001578 0.022268 -0.005345 0.000000 0.000000 0.000000
# 3 -0.002059 -0.005345 0.014458 0.000000 0.000000 0.000000
# 4 0.000000 0.000000 0.000000 0.035664 0.000000 0.000000
# 5 0.000000 0.000000 0.000000 0.000000 0.046286 0.000000
# 6 0.000000 0.000000 0.000000 0.000000 0.000000 0.042769
#
#
# Mechanical properties :
#
#
# Convention : Reuss Voigt Hill
#
# Bulk Modulus (GPa) = 24.45593 26.43774 25.44683
# Shear Modulus (GPa) = 24.68604 25.76320 25.22462
#
# Velocity S-wave (km/s) = 3.60213 3.67988 3.64121
# Velocity P-wave (km/s) = 5.49134 5.65256 5.57253
#
# Compressibility (1/GPa) = 0.04088988
#
# Stress axis : x y z
#
# Youngs Moduli (GPa) = 63.22356 44.90841 69.16415
#
# Poissons Ratio (x) = -0.07088 0.14243
# Poissons Ratio (y) = -0.09979 0.36971
# Poissons Ratio (z) = 0.13020 0.24005
#
# Static dielectric constant tensor:
#      x y z
#    x 1.691800 0.000000 0.000000 
#    y 0.000000 1.667320 0.000000 
#    z 0.000000 0.000000 1.703530 
# 
# From -- ./inp_files/72122.got.cif
#   From: 2010.05.17/outbox.cif.g08.bks.cpg/sg63_37_cif.got.tgz:72122.got - 2010.06.03 15:47:04.
