data_PCOD9470979
_publ_section_title
;
Structure prediction by ZEFSAII (Michael W. Deem and Ramdas Pophale) SiO2 
 PCOD9470979
Probable space group: C M C M
;
_chemical_formula_sum "Si O2"
_cell_formula_units_Z 96
_cell_length_a 19.292678
_cell_length_b 29.500775
_cell_length_c 7.698721
_cell_angle_alpha 90.000000
_cell_angle_beta 90.000000
_cell_angle_gamma 90.000000
_cell_volume 4381.718995
_symmetry_space_group_name_H-M "C M C M"
_symmetry_group_IT_number 63
_symmetry_cell_setting 'orthorhombic'
loop_
_space_group_symop_operation_xyz
x,y,z
-x,-y,1/2+z
x,-y,-z
-x,y,1/2-z
-x,-y,-z
x,y,1/2-z
-x,y,z
x,-y,1/2+z
1/2+x,1/2+y,z
1/2-x,1/2-y,1/2+z
1/2+x,1/2-y,-z
1/2-x,1/2+y,1/2-z
1/2-x,1/2-y,-z
1/2+x,1/2+y,1/2-z
1/2-x,1/2+y,z
1/2+x,1/2-y,1/2+z
loop_
_atom_site_type_symbol
_atom_site_label
_atom_site_fract_x
_atom_site_fract_y
_atom_site_fract_z
Si Si1 0.426030 0.643820 0.050312
Si Si2 0.776964 0.550416 0.541776
Si Si3 0.116746 0.950616 0.043330
Si Si4 0.810257 0.203798 0.554384
Si Si5 0.578478 0.775521 0.542580
Si Si6 0.178321 0.649432 0.539731
O O1 0.418125 0.658154 0.250000
O O2 0.500000 0.660704 0.983223
O O3 0.423649 0.590038 0.042536
O O4 0.362259 0.661519 0.941115
O O5 0.805553 0.500000 0.500000
O O6 0.775730 0.552865 0.750000
O O7 0.696919 0.551250 0.480569
O O8 0.812351 0.597316 0.479868
O O9 0.115557 0.944198 0.250000
O O10 0.089287 0.000000 0.000000
O O11 0.792254 0.219052 0.750000
O O12 0.860829 0.241911 0.472673
O O13 0.740779 0.182531 0.473562
O O14 0.576049 0.767309 0.750000
O O15 0.500000 0.769196 0.475061
O O16 0.607300 0.825911 0.510155
O O17 0.184064 0.649063 0.750000
#
# Coordination Sequence:
#
# PCOD9470979 Si02
#       6
#    16  16  16  16  16  16
#     4  11  23  35  49  74 107 144 189 235 280 333
#     4   9  18  33  54  83 113 141 179 226 277 333
#     4  10  19  34  53  73 102 140 183 232 283 336
#     4  10  20  38  59  80 110 148 189 233 278 330
#     4  10  22  38  57  84 116 151 190 229 279 340
#     4  10  20  36  59  87 115 145 187 232 278 334
#
# _framework density 21.909210000000002
#
# number of rings (size 3 to 8) (size 9 to 14) (size 15 to 20)
#    0.000    2.000    1.667    2.000    0.000    5.333 
#    0.000    0.000    0.000    0.500    0.000    0.000 
#    0.000    0.000    0.000    0.000    0.000    0.000 
#
# Total GULP energy -267869.469793 kJ/mol
# GULP energy per Si atom -5580.613954 kJ/mol
# Density = 2.185934 g / cm^3
# Si number density = 21.909210 Si / 1000 Ang^3
#
#
#
# Elastic Constant Matrix: (Units=GPa)
#
#
# Indices 1 2 3 4 5 6 
#
# 1 73.4790 64.1233 1.0812 0.0000 0.0000 0.0000
# 2 64.1233 152.4173 4.2008 0.0000 0.0000 0.0000
# 3 1.0812 4.2008 48.9772 0.0000 0.0000 0.0000
# 4 0.0000 0.0000 0.0000 25.6936 0.0000 0.0000
# 5 0.0000 0.0000 0.0000 0.0000 33.0207 0.0000
# 6 0.0000 0.0000 0.0000 0.0000 0.0000 -880.3059
#
#
#
# Elastic Compliance Matrix: (Units=1/GPa)
#
#
# Indices 1 2 3 4 5 6 
#
# 1 0.021509 -0.009057 0.000302 0.000000 0.000000 0.000000
# 2 -0.009057 0.010391 -0.000691 0.000000 0.000000 0.000000
# 3 0.000302 -0.000691 0.020470 0.000000 0.000000 0.000000
# 4 0.000000 0.000000 0.000000 0.038920 0.000000 0.000000
# 5 0.000000 0.000000 0.000000 0.000000 0.030284 0.000000
# 6 0.000000 0.000000 0.000000 0.000000 0.000000 -0.001136
#
#
# Mechanical properties :
#
#
# Convention : Reuss Voigt Hill
#
# Bulk Modulus (GPa) = 29.87156 45.96490 37.91823
# Shear Modulus (GPa) = 33.22477 -150.62044 -58.69784
#
# Velocity S-wave (km/s) = 3.89842 -8.30041 -5.18166
# Velocity P-wave (km/s) = 5.82472 8.41648 4.29591
#
# Compressibility (1/GPa) = 0.03347666
#
# Stress axis : x y z
#
# Youngs Moduli (GPa) = 46.49208 96.24172 48.85127
#
# Poissons Ratio (x) = 0.87170 -0.01475
# Poissons Ratio (y) = 0.42110 0.03377
# Poissons Ratio (z) = -0.01404 0.06653
#
# Static dielectric constant tensor:
#      x y z
#    x 1.787270 0.000000 0.000000 
#    y 0.000000 1.858190 0.000000 
#    z 0.000000 0.000000 1.832350 
# 
# From -- ./inp_files/8529.got.cif
#   From: 2010.05.17/outbox.cif.g08.bks.cpg/sg63_5_cif.got.tgz:8529.got - 2010.06.03 15:47:04.
