data_PCOD9470044
_publ_section_title
;
Structure prediction by ZEFSAII (Michael W. Deem and Ramdas Pophale) SiO2 
 PCOD9470044
Probable space group: C M C M
;
_chemical_formula_sum "Si O2"
_cell_formula_units_Z 80
_cell_length_a 7.506212
_cell_length_b 18.546546
_cell_length_c 27.742311
_cell_angle_alpha 90.000000
_cell_angle_beta 90.000000
_cell_angle_gamma 90.000000
_cell_volume 3862.126577
_symmetry_space_group_name_H-M "C M C M"
_symmetry_group_IT_number 63
_symmetry_cell_setting 'orthorhombic'
loop_
_space_group_symop_operation_xyz
x,y,z
-x,-y,1/2+z
x,-y,-z
-x,y,1/2-z
-x,-y,-z
x,y,1/2-z
-x,y,z
x,-y,1/2+z
1/2+x,1/2+y,z
1/2-x,1/2-y,1/2+z
1/2+x,1/2-y,-z
1/2-x,1/2+y,1/2-z
1/2-x,1/2-y,-z
1/2+x,1/2+y,1/2-z
1/2-x,1/2+y,z
1/2+x,1/2-y,1/2+z
loop_
_atom_site_type_symbol
_atom_site_label
_atom_site_fract_x
_atom_site_fract_y
_atom_site_fract_z
Si Si1 0.786156 0.327159 0.156665
Si Si2 0.284759 0.087220 0.750000
Si Si3 0.280917 0.339463 0.654403
Si Si4 0.211890 0.179305 0.948876
Si Si5 0.289153 0.581045 0.250000
Si Si6 0.797431 0.152948 0.050347
O O1 0.719702 0.373405 0.201560
O O2 0.725360 0.243989 0.159967
O O3 0.740295 0.355316 0.103288
O O4 0.000000 0.325500 0.159515
O O5 0.500000 0.092433 0.750000
O O6 0.237010 0.003885 0.750000
O O7 0.500000 0.340264 0.652706
O O8 0.219802 0.383893 0.700648
O O9 0.218172 0.368083 0.602090
O O10 0.297243 0.259102 0.947057
O O11 0.000000 0.190073 0.955087
O O12 0.279304 0.139130 0.997034
O O13 0.500000 0.596867 0.250000
O O14 0.000000 0.125586 0.049820
#
# Coordination Sequence:
#
# PCOD9470044 Si02
#       6
#    16   8  16  16   8  16
#     4   9  17  31  50  68  89 120 155 187 220 269
#     4  10  21  35  49  65  89 122 154 184 228 282
#     4   8  14  27  48  70  88 113 151 186 217 259
#     4   9  15  23  40  68  96 118 145 186 230 265
#     4  10  19  31  49  69  89 114 148 192 232 264
#     4   8  14  25  41  63  94 126 151 178 219 273
#
# _framework density 20.713978000000001
#
# number of rings (size 3 to 8) (size 9 to 14) (size 15 to 20)
#    0.000    3.200    0.000    2.400    0.000    4.000 
#    0.000    4.000    0.000    2.400    0.000    8.400 
#    0.000    0.000    0.000    0.000    0.000    0.000 
#
# Total GULP energy -222797.992847 kJ/mol
# GULP energy per Si atom -5569.949821 kJ/mol
# Density = 2.066683 g / cm^3
# Si number density = 20.713978 Si / 1000 Ang^3
#
#
#
# Elastic Constant Matrix: (Units=GPa)
#
#
# Indices 1 2 3 4 5 6 
#
# 1 59.1985 -5.6768 -1.6115 0.0000 0.0000 0.0000
# 2 -5.6768 47.0134 72.2994 0.0000 0.0000 0.0000
# 3 -1.6115 72.2994 276.0336 0.0000 0.0000 0.0000
# 4 0.0000 0.0000 0.0000 -4.9234 0.0000 0.0000
# 5 0.0000 0.0000 0.0000 0.0000 15.2730 0.0000
# 6 0.0000 0.0000 0.0000 0.0000 0.0000 12.9833
#
#
#
# Elastic Compliance Matrix: (Units=1/GPa)
#
#
# Indices 1 2 3 4 5 6 
#
# 1 0.017180 0.003215 -0.000742 0.000000 0.000000 0.000000
# 2 0.003215 0.036219 -0.009468 0.000000 0.000000 0.000000
# 3 -0.000742 -0.009468 0.006098 0.000000 0.000000 0.000000
# 4 0.000000 0.000000 0.000000 -0.203113 0.000000 0.000000
# 5 0.000000 0.000000 0.000000 0.000000 0.065475 0.000000
# 6 0.000000 0.000000 0.000000 0.000000 0.000000 0.077022
#
#
# Mechanical properties :
#
#
# Convention : Reuss Voigt Hill
#
# Bulk Modulus (GPa) = 21.97366 56.91864 39.44615
# Shear Modulus (GPa) = 178.31536 25.81553 102.06544
#
# Velocity S-wave (km/s) = 9.28824 3.53411 7.02714
# Velocity P-wave (km/s) = 11.20981 6.64765 9.21550
#
# Compressibility (1/GPa) = 0.04550903
#
# Stress axis : x y z
#
# Youngs Moduli (GPa) = 58.20564 27.61003 163.98217
#
# Poissons Ratio (x) = -0.08878 0.12166
# Poissons Ratio (y) = -0.18716 1.55254
# Poissons Ratio (z) = 0.04318 0.26140
#
# Static dielectric constant tensor:
#      x y z
#    x 1.808490 0.000000 0.000000 
#    y 0.000000 1.661660 0.000000 
#    z 0.000000 0.000000 1.827120 
# 
# From -- ./inp_files/71613.got.cif
#   From: 2010.05.17/outbox.cif.g08.bks.cpg/sg63_36_cif.got.tgz:71613.got - 2010.06.03 15:47:04.
