data_PCOD9470012
_publ_section_title
;
Structure prediction by ZEFSAII (Michael W. Deem and Ramdas Pophale) SiO2 
 PCOD9470012
Probable space group: C M C M
;
_chemical_formula_sum "Si O2"
_cell_formula_units_Z 64
_cell_length_a 13.371909
_cell_length_b 24.917467
_cell_length_c 7.664934
_cell_angle_alpha 90.000000
_cell_angle_beta 90.000000
_cell_angle_gamma 90.000000
_cell_volume 2553.910795
_symmetry_space_group_name_H-M "C M C M"
_symmetry_group_IT_number 63
_symmetry_cell_setting 'orthorhombic'
loop_
_space_group_symop_operation_xyz
x,y,z
-x,-y,1/2+z
x,-y,-z
-x,y,1/2-z
-x,-y,-z
x,y,1/2-z
-x,y,z
x,-y,1/2+z
1/2+x,1/2+y,z
1/2-x,1/2-y,1/2+z
1/2+x,1/2-y,-z
1/2-x,1/2+y,1/2-z
1/2-x,1/2-y,-z
1/2+x,1/2+y,1/2-z
1/2-x,1/2+y,z
1/2+x,1/2-y,1/2+z
loop_
_atom_site_type_symbol
_atom_site_label
_atom_site_fract_x
_atom_site_fract_y
_atom_site_fract_z
Si Si1 0.105333 0.437335 0.959493
Si Si2 0.672642 0.560992 0.456914
Si Si3 0.892322 0.291245 0.045938
Si Si4 0.823571 0.175078 0.957679
O O1 0.107833 0.428818 0.750000
O O2 0.215953 0.428491 0.034559
O O3 0.000000 0.413601 0.027392
O O4 0.096822 0.500000 0.000000
O O5 0.638081 0.500000 0.500000
O O6 0.678829 0.560421 0.250000
O O7 0.624221 0.617892 0.505903
O O8 0.895538 0.305902 0.250000
O O9 0.791814 0.318836 0.972262
O O10 0.000000 0.303187 0.963377
O O11 0.877135 0.227275 0.033366
O O12 0.820209 0.182441 0.750000
#
# Coordination Sequence:
#
# PCOD9470012 Si02
#       4
#    16  16  16  16
#     4   8  14  24  37  55  82 119 163 206 246 292
#     4  10  19  31  48  71 103 143 182 220 265 318
#     4   9  19  37  59  81 107 141 180 224 274 324
#     4  10  20  34  54  82 112 141 179 225 271 323
#
# _framework density 25.059608000000001
#
# number of rings (size 3 to 8) (size 9 to 14) (size 15 to 20)
#    0.000    2.750    0.000    1.500    0.000    3.500 
#    0.000    0.000    0.000    6.750    0.000    0.000 
#    0.000    0.000    0.000    0.000    0.000    0.000 
#
# Total GULP energy -178252.793327 kJ/mol
# GULP energy per Si atom -5570.399791 kJ/mol
# Density = 2.500257 g / cm^3
# Si number density = 25.059608 Si / 1000 Ang^3
#
#
#
# Elastic Constant Matrix: (Units=GPa)
#
#
# Indices 1 2 3 4 5 6 
#
# 1 78.3715 16.7325 -0.5599 0.0000 0.0000 0.0000
# 2 16.7325 208.0830 -12.0499 0.0000 0.0000 0.0000
# 3 -0.5599 -12.0499 80.1224 0.0000 0.0000 0.0000
# 4 0.0000 0.0000 0.0000 23.3742 0.0000 0.0000
# 5 0.0000 0.0000 0.0000 0.0000 3.7741 0.0000
# 6 0.0000 0.0000 0.0000 0.0000 0.0000 -17.9372
#
#
#
# Elastic Compliance Matrix: (Units=1/GPa)
#
#
# Indices 1 2 3 4 5 6 
#
# 1 0.012983 -0.001048 -0.000067 0.000000 0.000000 0.000000
# 2 -0.001048 0.004933 0.000735 0.000000 0.000000 0.000000
# 3 -0.000067 0.000735 0.012591 0.000000 0.000000 0.000000
# 4 0.000000 0.000000 0.000000 0.042782 0.000000 0.000000
# 5 0.000000 0.000000 0.000000 0.000000 0.264960 0.000000
# 6 0.000000 0.000000 0.000000 0.000000 0.000000 -0.055750
#
#
# Mechanical properties :
#
#
# Convention : Reuss Voigt Hill
#
# Bulk Modulus (GPa) = 33.61796 41.64692 37.63244
# Shear Modulus (GPa) = 17.05467 26.00584 21.53026
#
# Velocity S-wave (km/s) = 2.61159 3.22492 2.93433
# Velocity P-wave (km/s) = 4.74744 5.52468 5.15074
#
# Compressibility (1/GPa) = 0.02974600
#
# Stress axis : x y z
#
# Youngs Moduli (GPa) = 77.02388 202.73401 79.42242
#
# Poissons Ratio (x) = 0.21244 0.00531
# Poissons Ratio (y) = 0.08071 -0.05834
# Poissons Ratio (z) = 0.00515 -0.14891
#
# Static dielectric constant tensor:
#      x y z
#    x 2.168300 0.000000 0.000000 
#    y 0.000000 1.847550 0.000000 
#    z 0.000000 0.000000 1.901840 
# 
# From -- ./inp_files/4257.got.cif
#   From: 2010.05.17/outbox.cif.g08.bks.cpg/sg63_3_cif.got.tgz:4257.got - 2010.06.03 15:47:04.
