data_PCOD9470773
_publ_section_title
;
Structure prediction by ZEFSAII (Michael W. Deem and Ramdas Pophale) SiO2 
 PCOD9470773
Probable space group: C M C M
;
_chemical_formula_sum "Si O2"
_cell_formula_units_Z 96
_cell_length_a 23.878163
_cell_length_b 24.901651
_cell_length_c 8.449233
_cell_angle_alpha 90.000000
_cell_angle_beta 90.000000
_cell_angle_gamma 90.000000
_cell_volume 5023.961947
_symmetry_space_group_name_H-M "C M C M"
_symmetry_group_IT_number 63
_symmetry_cell_setting 'orthorhombic'
loop_
_space_group_symop_operation_xyz
x,y,z
-x,-y,1/2+z
x,-y,-z
-x,y,1/2-z
-x,-y,-z
x,y,1/2-z
-x,y,z
x,-y,1/2+z
1/2+x,1/2+y,z
1/2-x,1/2-y,1/2+z
1/2+x,1/2-y,-z
1/2-x,1/2+y,1/2-z
1/2-x,1/2-y,-z
1/2+x,1/2+y,1/2-z
1/2-x,1/2+y,z
1/2+x,1/2-y,1/2+z
loop_
_atom_site_type_symbol
_atom_site_label
_atom_site_fract_x
_atom_site_fract_y
_atom_site_fract_z
Si Si1 0.264473 0.837672 0.942538
Si Si2 0.333951 0.057805 0.061069
Si Si3 0.064970 0.941225 0.558781
Si Si4 0.371877 0.225011 0.439406
Si Si5 0.363339 0.661245 0.440906
Si Si6 0.936194 0.621031 0.560448
O O1 0.263189 0.835139 0.750000
O O2 0.292106 0.894513 0.987751
O O3 0.308996 0.792401 0.995477
O O4 0.200920 0.836077 0.999835
O O5 0.336217 0.057626 0.250000
O O6 0.394619 0.074433 0.995923
O O7 0.316371 0.000000 0.000000
O O8 0.066020 0.941756 0.750000
O O9 0.103298 0.891541 0.504094
O O10 0.000000 0.933683 0.508940
O O11 0.083475 0.000000 0.500000
O O12 0.371077 0.227657 0.250000
O O13 0.389484 0.282179 0.507988
O O14 0.411903 0.176575 0.491571
O O15 0.362275 0.659047 0.250000
O O16 0.934377 0.624072 0.750000
O O17 0.000000 0.612570 0.509416
#
# Coordination Sequence:
#
# PCOD9470773 Si02
#       6
#    16  16  16  16  16  16
#     4   8  17  33  51  73 103 138 173 212 256 301
#     4  10  20  35  54  77 106 138 175 218 265 315
#     4   9  19  35  53  73  99 131 166 207 254 300
#     4  10  20  34  52  77 108 137 169 211 260 311
#     4  10  19  33  54  77 103 137 176 214 253 304
#     4  10  21  37  56  77 102 136 177 217 260 310
#
# _framework density 19.108423999999999
#
# number of rings (size 3 to 8) (size 9 to 14) (size 15 to 20)
#    0.000    2.500    0.000    3.000    0.000    3.667 
#    0.000    5.833    0.000    0.000    0.000    0.000 
#    0.000    0.000    0.000    0.000    0.000    0.000 
#
# Total GULP energy -267824.260663 kJ/mol
# GULP energy per Si atom -5579.672097 kJ/mol
# Density = 1.906493 g / cm^3
# Si number density = 19.108424 Si / 1000 Ang^3
#
#
#
# Elastic Constant Matrix: (Units=GPa)
#
#
# Indices 1 2 3 4 5 6 
#
# 1 23.5930 8.4142 8.3765 0.0000 0.0000 0.0000
# 2 8.4142 122.5456 10.4833 0.0000 0.0000 0.0000
# 3 8.3765 10.4833 16.1153 0.0000 0.0000 0.0000
# 4 0.0000 0.0000 0.0000 31.5232 0.0000 0.0000
# 5 0.0000 0.0000 0.0000 0.0000 15.8954 0.0000
# 6 0.0000 0.0000 0.0000 0.0000 0.0000 17.7152
#
#
#
# Elastic Compliance Matrix: (Units=1/GPa)
#
#
# Indices 1 2 3 4 5 6 
#
# 1 0.052184 -0.001337 -0.026255 0.000000 0.000000 0.000000
# 2 -0.001337 0.008675 -0.004948 0.000000 0.000000 0.000000
# 3 -0.026255 -0.004948 0.078919 0.000000 0.000000 0.000000
# 4 0.000000 0.000000 0.000000 0.031723 0.000000 0.000000
# 5 0.000000 0.000000 0.000000 0.000000 0.062911 0.000000
# 6 0.000000 0.000000 0.000000 0.000000 0.000000 0.056449
#
#
# Mechanical properties :
#
#
# Convention : Reuss Voigt Hill
#
# Bulk Modulus (GPa) = 13.38734 24.08910 18.73822
# Shear Modulus (GPa) = 13.12888 22.02543 17.57716
#
# Velocity S-wave (km/s) = 2.62405 3.39876 3.03622
# Velocity P-wave (km/s) = 4.02518 5.29490 4.70309
#
# Compressibility (1/GPa) = 0.07469744
#
# Stress axis : x y z
#
# Youngs Moduli (GPa) = 19.16306 115.26909 12.67128
#
# Poissons Ratio (x) = 0.15412 0.33268
# Poissons Ratio (y) = 0.02562 0.06270
# Poissons Ratio (z) = 0.50312 0.57041
#
# Static dielectric constant tensor:
#      x y z
#    x 1.675440 0.000000 0.000000 
#    y 0.000000 1.635690 0.000000 
#    z 0.000000 0.000000 1.648240 
# 
# From -- ./inp_files/10411.got.cif
#   From: 2010.05.17/outbox.cif.g08.bks.cpg/sg63_6_cif.got.tgz:10411.got - 2010.06.03 15:47:04.
