data_PCOD9470274
_publ_section_title
;
Structure prediction by ZEFSAII (Michael W. Deem and Ramdas Pophale) SiO2 
 PCOD9470274
Probable space group: C M C M
;
_chemical_formula_sum "Si O2"
_cell_formula_units_Z 96
_cell_length_a 8.525416
_cell_length_b 28.407225
_cell_length_c 24.458235
_cell_angle_alpha 90.000000
_cell_angle_beta 90.000000
_cell_angle_gamma 90.000000
_cell_volume 5923.378768
_symmetry_space_group_name_H-M "C M C M"
_symmetry_group_IT_number 63
_symmetry_cell_setting 'orthorhombic'
loop_
_space_group_symop_operation_xyz
x,y,z
-x,-y,1/2+z
x,-y,-z
-x,y,1/2-z
-x,-y,-z
x,y,1/2-z
-x,y,z
x,-y,1/2+z
1/2+x,1/2+y,z
1/2-x,1/2-y,1/2+z
1/2+x,1/2-y,-z
1/2-x,1/2+y,1/2-z
1/2-x,1/2-y,-z
1/2+x,1/2+y,1/2-z
1/2-x,1/2+y,z
1/2+x,1/2-y,1/2+z
loop_
_atom_site_type_symbol
_atom_site_label
_atom_site_fract_x
_atom_site_fract_y
_atom_site_fract_z
Si Si1 0.185804 0.019789 0.418054
Si Si2 0.810251 0.825835 0.812067
Si Si3 0.810600 0.230718 0.416462
Si Si4 0.187875 0.570406 0.524316
Si Si5 0.687832 0.069039 0.187226
Si Si6 0.189585 0.677430 0.977851
O O1 0.236476 0.967148 0.434578
O O2 0.000000 0.024540 0.423609
O O3 0.266035 0.053348 0.463457
O O4 0.239175 0.035240 0.358104
O O5 0.764639 0.813153 0.750000
O O6 0.758562 0.788824 0.857918
O O7 0.742872 0.877540 0.824153
O O8 0.000000 0.828959 0.813829
O O9 0.760105 0.283343 0.433542
O O10 0.751232 0.196135 0.464082
O O11 0.000000 0.230174 0.417181
O O12 0.240272 0.624095 0.533028
O O13 0.000000 0.567748 0.529636
O O14 0.734642 0.058149 0.250000
O O15 0.500000 0.066869 0.183788
O O16 0.000000 0.677380 0.979807
#
# Coordination Sequence:
#
# PCOD9470274 Si02
#       6
#    16  16  16  16  16  16
#     4  11  21  32  48  70  95 121 153 192 234 280
#     4   9  17  29  46  68  93 120 149 183 224 268
#     4   9  17  29  45  66  92 120 150 185 224 267
#     4  10  19  32  49  68  94 125 157 193 232 276
#     4  10  20  33  49  69  94 123 154 188 228 275
#     4   9  18  30  45  66  91 120 152 186 224 267
#
# _framework density 16.206966999999999
#
# number of rings (size 3 to 8) (size 9 to 14) (size 15 to 20)
#    0.000    2.333    0.000    4.500    0.000    5.667 
#    0.000    0.000    0.000    1.000    0.000    4.667 
#    0.000    0.000    0.000    0.000    0.000    0.000 
#
# Total GULP energy -267722.012450 kJ/mol
# GULP energy per Si atom -5577.541926 kJ/mol
# Density = 1.617008 g / cm^3
# Si number density = 16.206967 Si / 1000 Ang^3
#
#
#
# Elastic Constant Matrix: (Units=GPa)
#
#
# Indices 1 2 3 4 5 6 
#
# 1 15.6312 6.0818 11.9796 0.0000 0.0000 0.0000
# 2 6.0818 115.4981 71.0400 0.0000 0.0000 0.0000
# 3 11.9796 71.0400 109.1891 0.0000 0.0000 0.0000
# 4 0.0000 0.0000 0.0000 22.1847 0.0000 0.0000
# 5 0.0000 0.0000 0.0000 0.0000 20.8285 0.0000
# 6 0.0000 0.0000 0.0000 0.0000 0.0000 15.5771
#
#
#
# Elastic Compliance Matrix: (Units=1/GPa)
#
#
# Indices 1 2 3 4 5 6 
#
# 1 0.070055 0.001731 -0.008812 0.000000 0.000000 0.000000
# 2 0.001731 0.014477 -0.009609 0.000000 0.000000 0.000000
# 3 -0.008812 -0.009609 0.016377 0.000000 0.000000 0.000000
# 4 0.000000 0.000000 0.000000 0.045076 0.000000 0.000000
# 5 0.000000 0.000000 0.000000 0.000000 0.048011 0.000000
# 6 0.000000 0.000000 0.000000 0.000000 0.000000 0.064197
#
#
# Mechanical properties :
#
#
# Convention : Reuss Voigt Hill
#
# Bulk Modulus (GPa) = 14.80848 46.50235 30.65542
# Shear Modulus (GPa) = 15.91935 21.79919 18.85927
#
# Velocity S-wave (km/s) = 3.13749 3.67147 3.41494
# Velocity P-wave (km/s) = 4.72039 6.83579 5.87410
#
# Compressibility (1/GPa) = 0.06752888
#
# Stress axis : x y z
#
# Youngs Moduli (GPa) = 14.27454 69.07369 61.06088
#
# Poissons Ratio (x) = -0.11960 0.53810
# Poissons Ratio (y) = -0.02472 0.58674
# Poissons Ratio (z) = 0.12579 0.66374
#
# Static dielectric constant tensor:
#      x y z
#    x 1.551940 0.000000 0.000000 
#    y 0.000000 1.538020 0.000000 
#    z 0.000000 0.000000 1.535830 
# 
# From -- ./inp_files/60192.got.cif
#   From: 2010.05.17/outbox.cif.g08.bks.cpg/sg63_31_cif.got.tgz:60192.got - 2010.06.03 15:47:04.
