data_PCOD9470856
_publ_section_title
;
Structure prediction by ZEFSAII (Michael W. Deem and Ramdas Pophale) SiO2 
 PCOD9470856
Probable space group: C M C M
;
_chemical_formula_sum "Si O2"
_cell_formula_units_Z 72
_cell_length_a 13.028038
_cell_length_b 27.383239
_cell_length_c 10.632310
_cell_angle_alpha 90.000000
_cell_angle_beta 90.000000
_cell_angle_gamma 90.000000
_cell_volume 3793.075298
_symmetry_space_group_name_H-M "C M C M"
_symmetry_group_IT_number 63
_symmetry_cell_setting 'orthorhombic'
loop_
_space_group_symop_operation_xyz
x,y,z
-x,-y,1/2+z
x,-y,-z
-x,y,1/2-z
-x,-y,-z
x,y,1/2-z
-x,y,z
x,-y,1/2+z
1/2+x,1/2+y,z
1/2-x,1/2-y,1/2+z
1/2+x,1/2-y,-z
1/2-x,1/2+y,1/2-z
1/2-x,1/2-y,-z
1/2+x,1/2+y,1/2-z
1/2-x,1/2+y,z
1/2+x,1/2-y,1/2+z
loop_
_atom_site_type_symbol
_atom_site_label
_atom_site_fract_x
_atom_site_fract_y
_atom_site_fract_z
Si Si1 0.623167 0.038019 0.250000
Si Si2 0.229675 0.500000 0.000000
Si Si3 0.123521 0.650612 0.250000
Si Si4 0.116973 0.080364 0.598648
Si Si5 0.118093 0.292297 0.495001
Si Si6 0.330783 0.690619 0.606921
O O1 0.500000 0.037529 0.250000
O O2 0.663852 0.012347 0.376298
O O3 0.659700 0.094724 0.250000
O O4 0.302201 0.545873 0.968922
O O5 0.150202 0.680118 0.375801
O O6 0.000000 0.648788 0.250000
O O7 0.130524 0.076202 0.750000
O O8 0.134142 0.137098 0.566228
O O9 0.000000 0.066390 0.568592
O O10 0.206960 0.306590 0.398657
O O11 0.127006 0.234624 0.522831
O O12 0.000000 0.304738 0.463714
O O13 0.366481 0.698500 0.750000
#
# Coordination Sequence:
#
# PCOD9470856 Si02
#       6
#     8   8   8  16  16  16
#     4  11  24  40  62  87 121 157 196 248 298 353
#     4  12  22  42  62  88 118 156 206 246 300 356
#     4   9  18  34  55  79 105 145 187 222 273 341
#     4  10  21  38  61  88 117 151 195 247 299 351
#     4  10  19  33  55  82 112 150 191 229 279 344
#     4  10  20  34  55  82 115 149 188 235 287 344
#
# _framework density 18.981957999999999
#
# number of rings (size 3 to 8) (size 9 to 14) (size 15 to 20)
#    0.000    1.778    2.222    2.667    0.000    1.333 
#    0.000    1.111    0.000    0.000    0.000    0.000 
#    0.000    0.000    0.000    0.000    0.000    0.000 
#
# Total GULP energy -200984.444367 kJ/mol
# GULP energy per Si atom -5582.901232 kJ/mol
# Density = 1.893875 g / cm^3
# Si number density = 18.981958 Si / 1000 Ang^3
#
#
#
# Elastic Constant Matrix: (Units=GPa)
#
#
# Indices 1 2 3 4 5 6 
#
# 1 99.5525 24.1435 31.2713 0.0000 0.0000 0.0000
# 2 24.1435 93.8878 38.1807 0.0000 0.0000 0.0000
# 3 31.2713 38.1807 74.5480 0.0000 0.0000 0.0000
# 4 0.0000 0.0000 0.0000 23.7616 0.0000 0.0000
# 5 0.0000 0.0000 0.0000 0.0000 -0.6661 0.0000
# 6 0.0000 0.0000 0.0000 0.0000 0.0000 21.6955
#
#
#
# Elastic Compliance Matrix: (Units=1/GPa)
#
#
# Indices 1 2 3 4 5 6 
#
# 1 0.011690 -0.001278 -0.004249 0.000000 0.000000 0.000000
# 2 -0.001278 0.013593 -0.006426 0.000000 0.000000 0.000000
# 3 -0.004249 -0.006426 0.018487 0.000000 0.000000 0.000000
# 4 0.000000 0.000000 0.000000 0.042085 0.000000 0.000000
# 5 0.000000 0.000000 0.000000 0.000000 -1.501249 0.000000
# 6 0.000000 0.000000 0.000000 0.000000 0.000000 0.046093
#
#
# Mechanical properties :
#
#
# Convention : Reuss Voigt Hill
#
# Bulk Modulus (GPa) = 50.34090 50.57547 50.45819
# Shear Modulus (GPa) = -3.73476 20.58438 8.42481
#
# Velocity S-wave (km/s) = -1.40421 3.29662 2.10902
# Velocity P-wave (km/s) = 4.89376 6.41811 5.70706
#
# Compressibility (1/GPa) = 0.01986456
#
# Stress axis : x y z
#
# Youngs Moduli (GPa) = 85.54627 73.56884 54.09082
#
# Poissons Ratio (x) = 0.09403 0.22983
# Poissons Ratio (y) = 0.10934 0.34756
# Poissons Ratio (z) = 0.36348 0.47272
#
# Static dielectric constant tensor:
#      x y z
#    x 1.656180 0.000000 0.000000 
#    y 0.000000 1.651070 0.000000 
#    z 0.000000 0.000000 1.656320 
# 
# From -- ./inp_files/17634.got.cif
#   From: 2010.05.17/outbox.cif.g08.bks.cpg/sg63_9_cif.got.tgz:17634.got - 2010.06.03 15:47:04.
