data_PCOD9470581
_publ_section_title
;
Structure prediction by ZEFSAII (Michael W. Deem and Ramdas Pophale) SiO2 
 PCOD9470581
Probable space group: C M C M
;
_chemical_formula_sum "Si O2"
_cell_formula_units_Z 80
_cell_length_a 18.398905
_cell_length_b 11.878917
_cell_length_c 20.657530
_cell_angle_alpha 90.000000
_cell_angle_beta 90.000000
_cell_angle_gamma 90.000000
_cell_volume 4514.890450
_symmetry_space_group_name_H-M "C M C M"
_symmetry_group_IT_number 63
_symmetry_cell_setting 'orthorhombic'
loop_
_space_group_symop_operation_xyz
x,y,z
-x,-y,1/2+z
x,-y,-z
-x,y,1/2-z
-x,-y,-z
x,y,1/2-z
-x,y,z
x,-y,1/2+z
1/2+x,1/2+y,z
1/2-x,1/2-y,1/2+z
1/2+x,1/2-y,-z
1/2-x,1/2+y,1/2-z
1/2-x,1/2-y,-z
1/2+x,1/2+y,1/2-z
1/2-x,1/2+y,z
1/2+x,1/2-y,1/2+z
loop_
_atom_site_type_symbol
_atom_site_label
_atom_site_fract_x
_atom_site_fract_y
_atom_site_fract_z
Si Si1 0.080040 0.633005 0.017895
Si Si2 0.160958 0.558104 0.827065
Si Si3 0.000000 0.446517 0.175748
Si Si4 0.500000 0.328468 0.824415
Si Si5 0.230232 0.420942 0.563678
Si Si6 0.132364 0.220530 0.101876
O O1 0.091508 0.706580 0.953103
O O2 0.000000 0.659882 0.045670
O O3 0.078750 0.500000 0.000000
O O4 0.155197 0.649249 0.056256
O O5 0.168536 0.542473 0.750000
O O6 0.079123 0.518450 0.849027
O O7 0.218199 0.495190 0.872026
O O8 0.162105 0.689688 0.845687
O O9 0.000000 0.309740 0.175556
O O10 0.000000 0.482828 0.250000
O O11 0.500000 0.364825 0.750000
O O12 0.573092 0.357568 0.862793
O O13 0.236037 0.500000 0.500000
O O14 0.300831 0.345256 0.571132
#
# Coordination Sequence:
#
# PCOD9470581 Si02
#       6
#    16  16   8   8  16  16
#     4  10  19  32  55  82 106 134 174 226 284 330
#     4  10  20  33  52  80 108 139 179 227 279 335
#     4   7  14  28  48  73 104 128 161 223 282 319
#     4   9  18  32  55  81 102 138 183 227 269 319
#     4  11  23  34  54  81 114 147 180 226 278 340
#     4  11  19  36  54  77 110 143 180 228 283 326
#
# _framework density 17.719145000000001
#
# number of rings (size 3 to 8) (size 9 to 14) (size 15 to 20)
#    0.000    2.000    5.000    2.400    1.400    1.600 
#    0.000    0.500    0.000    0.000    0.000    0.000 
#    0.000    0.000    0.000    0.000    0.000    0.000 
#
# Total GULP energy -222757.207245 kJ/mol
# GULP energy per Si atom -5568.930181 kJ/mol
# Density = 1.767882 g / cm^3
# Si number density = 17.719145 Si / 1000 Ang^3
#
#
#
# Elastic Constant Matrix: (Units=GPa)
#
#
# Indices 1 2 3 4 5 6 
#
# 1 137.1832 36.6370 46.3454 0.0000 0.0000 0.0000
# 2 36.6370 25.5617 23.5162 0.0000 0.0000 0.0000
# 3 46.3454 23.5162 99.3180 0.0000 0.0000 0.0000
# 4 0.0000 0.0000 0.0000 15.4938 0.0000 0.0000
# 5 0.0000 0.0000 0.0000 0.0000 16.4762 0.0000
# 6 0.0000 0.0000 0.0000 0.0000 0.0000 22.1754
#
#
#
# Elastic Compliance Matrix: (Units=1/GPa)
#
#
# Indices 1 2 3 4 5 6 
#
# 1 0.012104 -0.015537 -0.001970 0.000000 0.000000 0.000000
# 2 -0.015537 0.069959 -0.009315 0.000000 0.000000 0.000000
# 3 -0.001970 -0.009315 0.013193 0.000000 0.000000 0.000000
# 4 0.000000 0.000000 0.000000 0.064542 0.000000 0.000000
# 5 0.000000 0.000000 0.000000 0.000000 0.060694 0.000000
# 6 0.000000 0.000000 0.000000 0.000000 0.000000 0.045095
#
#
# Mechanical properties :
#
#
# Convention : Reuss Voigt Hill
#
# Bulk Modulus (GPa) = 24.03014 52.78445 38.40730
# Shear Modulus (GPa) = 15.01051 21.20004 18.10528
#
# Velocity S-wave (km/s) = 2.91372 3.46272 3.20002
# Velocity P-wave (km/s) = 4.99107 6.77063 5.94778
#
# Compressibility (1/GPa) = 0.04161441
#
# Stress axis : x y z
#
# Youngs Moduli (GPa) = 82.61539 14.29413 75.79672
#
# Poissons Ratio (x) = 0.22209 0.14928
# Poissons Ratio (y) = 1.28359 0.70601
# Poissons Ratio (z) = 0.16271 0.13314
#
# Static dielectric constant tensor:
#      x y z
#    x 1.658970 0.000000 0.000000 
#    y 0.000000 1.592910 0.000000 
#    z 0.000000 0.000000 1.636860 
# 
# From -- ./inp_files/55518.got.cif
#   From: 2010.05.17/outbox.cif.g08.bks.cpg/sg63_28_cif.got.tgz:55518.got - 2010.06.03 15:47:04.
