data_PCOD9470440
_publ_section_title
;
Structure prediction by ZEFSAII (Michael W. Deem and Ramdas Pophale) SiO2 
 PCOD9470440
Probable space group: C M C M
;
_chemical_formula_sum "Si O2"
_cell_formula_units_Z 80
_cell_length_a 9.451943
_cell_length_b 14.513525
_cell_length_c 26.502759
_cell_angle_alpha 90.000000
_cell_angle_beta 90.000000
_cell_angle_gamma 90.000000
_cell_volume 3635.675275
_symmetry_space_group_name_H-M "C M C M"
_symmetry_group_IT_number 63
_symmetry_cell_setting 'orthorhombic'
loop_
_space_group_symop_operation_xyz
x,y,z
-x,-y,1/2+z
x,-y,-z
-x,y,1/2-z
-x,-y,-z
x,y,1/2-z
-x,y,z
x,-y,1/2+z
1/2+x,1/2+y,z
1/2-x,1/2-y,1/2+z
1/2+x,1/2-y,-z
1/2-x,1/2+y,1/2-z
1/2-x,1/2-y,-z
1/2+x,1/2+y,1/2-z
1/2-x,1/2+y,z
1/2+x,1/2-y,1/2+z
loop_
_atom_site_type_symbol
_atom_site_label
_atom_site_fract_x
_atom_site_fract_y
_atom_site_fract_z
Si Si1 0.161097 0.407060 0.250000
Si Si2 0.160319 0.130335 0.541431
Si Si3 0.840534 0.349513 0.552071
Si Si4 0.339968 0.590208 0.653677
Si Si5 0.662311 0.132941 0.250000
Si Si6 0.660218 0.369967 0.846825
O O1 0.243333 0.377725 0.300424
O O2 0.158581 0.520031 0.250000
O O3 0.000000 0.374843 0.250000
O O4 0.147876 0.240975 0.540091
O O5 0.259962 0.104739 0.494972
O O6 0.216356 0.107185 0.597252
O O7 0.000000 0.092028 0.537214
O O8 0.745054 0.355433 0.601713
O O9 0.000000 0.385452 0.559987
O O10 0.500000 0.629540 0.656139
O O11 0.351362 0.480276 0.659420
O O12 0.500000 0.164590 0.250000
O O13 0.747793 0.162748 0.299498
O O14 0.500000 0.332506 0.848447
#
# Coordination Sequence:
#
# PCOD9470440 Si02
#       6
#     8  16  16  16   8  16
#     4   9  17  29  48  75 104 129 155 197 250 293
#     4   9  19  36  54  71  95 131 170 204 243 292
#     4  10  20  34  52  73  99 131 165 204 249 293
#     4   9  18  33  53  74  97 129 167 202 238 288
#     4   9  17  31  50  73 102 131 161 199 244 291
#     4  10  19  32  52  76 101 129 163 202 243 291
#
# _framework density 22.004166000000001
#
# number of rings (size 3 to 8) (size 9 to 14) (size 15 to 20)
#    0.000    2.600    0.000    1.800    0.000    5.600 
#    0.000    5.000    0.000    2.400    0.000    0.000 
#    0.000    0.000    0.000    0.000    0.000    0.000 
#
# Total GULP energy -223446.358616 kJ/mol
# GULP energy per Si atom -5586.158965 kJ/mol
# Density = 2.195408 g / cm^3
# Si number density = 22.004166 Si / 1000 Ang^3
#
#
#
# Elastic Constant Matrix: (Units=GPa)
#
#
# Indices 1 2 3 4 5 6 
#
# 1 202.8451 0.9746 150.2432 0.0000 0.0000 0.0000
# 2 0.9746 45.3143 -4.4961 0.0000 0.0000 0.0000
# 3 150.2432 -4.4961 236.5824 0.0000 0.0000 0.0000
# 4 0.0000 0.0000 0.0000 33.9813 0.0000 0.0000
# 5 0.0000 0.0000 0.0000 0.0000 -171.0585 0.0000
# 6 0.0000 0.0000 0.0000 0.0000 0.0000 8.2485
#
#
#
# Elastic Compliance Matrix: (Units=1/GPa)
#
#
# Indices 1 2 3 4 5 6 
#
# 1 0.009336 -0.000791 -0.005944 0.000000 0.000000 0.000000
# 2 -0.000791 0.022177 0.000924 0.000000 0.000000 0.000000
# 3 -0.005944 0.000924 0.008019 0.000000 0.000000 0.000000
# 4 0.000000 0.000000 0.000000 0.029428 0.000000 0.000000
# 5 0.000000 0.000000 0.000000 0.000000 -0.005846 0.000000
# 6 0.000000 0.000000 0.000000 0.000000 0.000000 0.121234
#
#
# Mechanical properties :
#
#
# Convention : Reuss Voigt Hill
#
# Bulk Modulus (GPa) = 35.82952 86.46502 61.14727
# Shear Modulus (GPa) = 24.35766 -3.23106 10.56330
#
# Velocity S-wave (km/s) = 3.33071 -1.21309 2.19340
# Velocity P-wave (km/s) = 5.57762 6.11703 5.85354
#
# Compressibility (1/GPa) = 0.02790995
#
# Stress axis : x y z
#
# Youngs Moduli (GPa) = 107.10785 45.09232 124.69942
#
# Poissons Ratio (x) = 0.03565 0.74123
# Poissons Ratio (y) = 0.08468 -0.11516
# Poissons Ratio (z) = 0.63667 -0.04164
#
# Static dielectric constant tensor:
#      x y z
#    x 1.798660 0.000000 0.000000 
#    y 0.000000 1.848930 0.000000 
#    z 0.000000 0.000000 1.767190 
# 
# From -- ./inp_files/59544.got.cif
#   From: 2010.05.17/outbox.cif.g08.bks.cpg/sg63_30_cif.got.tgz:59544.got - 2010.06.03 15:47:04.
