data_PCOD9470980
_publ_section_title
;
Structure prediction by ZEFSAII (Michael W. Deem and Ramdas Pophale) SiO2 
 PCOD9470980
Probable space group: C M C M
;
_chemical_formula_sum "Si O2"
_cell_formula_units_Z 80
_cell_length_a 21.668914
_cell_length_b 21.701032
_cell_length_c 10.392376
_cell_angle_alpha 90.000000
_cell_angle_beta 90.000000
_cell_angle_gamma 90.000000
_cell_volume 4886.887987
_symmetry_space_group_name_H-M "C M C M"
_symmetry_group_IT_number 63
_symmetry_cell_setting 'orthorhombic'
loop_
_space_group_symop_operation_xyz
x,y,z
-x,-y,1/2+z
x,-y,-z
-x,y,1/2-z
-x,-y,-z
x,y,1/2-z
-x,y,z
x,-y,1/2+z
1/2+x,1/2+y,z
1/2-x,1/2-y,1/2+z
1/2+x,1/2-y,-z
1/2-x,1/2+y,1/2-z
1/2-x,1/2-y,-z
1/2+x,1/2+y,1/2-z
1/2-x,1/2+y,z
1/2+x,1/2-y,1/2+z
loop_
_atom_site_type_symbol
_atom_site_label
_atom_site_fract_x
_atom_site_fract_y
_atom_site_fract_z
Si Si1 0.161173 0.726841 0.250000
Si Si2 0.365542 0.767775 0.250000
Si Si3 0.931540 0.891336 0.404961
Si Si4 0.244835 0.149812 0.750000
Si Si5 0.199358 0.070175 0.989185
Si Si6 0.781810 0.854480 0.750000
Si Si7 0.929056 0.748446 0.480778
O O1 0.196249 0.793104 0.250000
O O2 0.214233 0.675948 0.250000
O O3 0.117967 0.722943 0.374714
O O4 0.312343 0.819646 0.250000
O O5 0.329668 0.702356 0.250000
O O6 0.406330 0.769971 0.378207
O O7 0.927714 0.885725 0.250000
O O8 0.873387 0.929084 0.454163
O O9 0.926615 0.822680 0.463524
O O10 0.000000 0.915746 0.436627
O O11 0.232171 0.108637 0.875691
O O12 0.208617 0.105263 0.122988
O O13 0.221125 0.000000 0.000000
O O14 0.000000 0.730130 0.457327
#
# Coordination Sequence:
#
# PCOD9470980 Si02
#       7
#     8   8  16   8  16   8  16
#     4  11  19  36  58  75 106 141 179 216 257 338
#     4  11  21  34  54  77 112 135 171 226 269 326
#     4  10  19  34  53  73 105 148 190 216 249 301
#     4  11  21  38  54  74 103 148 180 208 279 316
#     4  12  22  37  54  75 108 142 188 224 255 304
#     4  11  23  34  52  84 105 136 184 220 271 302
#     4  11  19  32  53  81 110 138 173 215 266 313
#
# _framework density 16.370336999999999
#
# number of rings (size 3 to 8) (size 9 to 14) (size 15 to 20)
#    0.000    1.000    6.000    2.400    0.000    3.600 
#    0.000    0.500    0.000    0.000    0.000    0.000 
#    0.000   56.000    0.000    0.000    0.000    0.000 
#
# Total GULP energy -223420.227154 kJ/mol
# GULP energy per Si atom -5585.505679 kJ/mol
# Density = 1.633308 g / cm^3
# Si number density = 16.370337 Si / 1000 Ang^3
#
#
#
# Elastic Constant Matrix: (Units=GPa)
#
#
# Indices 1 2 3 4 5 6 
#
# 1 79.2731 27.5480 30.1753 0.0000 0.0000 0.0000
# 2 27.5480 76.4565 37.4871 0.0000 0.0000 0.0000
# 3 30.1753 37.4871 126.9112 0.0000 0.0000 0.0000
# 4 0.0000 0.0000 0.0000 -4.3261 0.0000 0.0000
# 5 0.0000 0.0000 0.0000 0.0000 6.3173 0.0000
# 6 0.0000 0.0000 0.0000 0.0000 0.0000 13.8922
#
#
#
# Elastic Compliance Matrix: (Units=1/GPa)
#
#
# Indices 1 2 3 4 5 6 
#
# 1 0.014973 -0.004267 -0.002300 0.000000 0.000000 0.000000
# 2 -0.004267 0.016511 -0.003862 0.000000 0.000000 0.000000
# 3 -0.002300 -0.003862 0.009567 0.000000 0.000000 0.000000
# 4 0.000000 0.000000 0.000000 -0.231153 0.000000 0.000000
# 5 0.000000 0.000000 0.000000 0.000000 0.158296 0.000000
# 6 0.000000 0.000000 0.000000 0.000000 0.000000 0.071983
#
#
# Mechanical properties :
#
#
# Convention : Reuss Voigt Hill
#
# Bulk Modulus (GPa) = 49.52410 52.56242 51.04326
# Shear Modulus (GPa) = 73.78414 15.67202 44.72808
#
# Velocity S-wave (km/s) = 6.72084 3.09745 5.23278
# Velocity P-wave (km/s) = 9.51548 6.70599 8.23148
#
# Compressibility (1/GPa) = 0.02019219
#
# Stress axis : x y z
#
# Youngs Moduli (GPa) = 66.78735 60.56710 104.52458
#
# Poissons Ratio (x) = 0.25846 0.24036
# Poissons Ratio (y) = 0.28501 0.40370
# Poissons Ratio (z) = 0.15358 0.23393
#
# Static dielectric constant tensor:
#      x y z
#    x 1.550600 0.000000 0.000000 
#    y 0.000000 1.518550 0.000000 
#    z 0.000000 0.000000 1.539180 
# 
# From -- ./inp_files/8123.got.cif
#   From: 2010.05.17/outbox.cif.g08.bks.cpg/sg63_5_cif.got.tgz:8123.got - 2010.06.03 15:47:04.
