data_PCOD9470085
_publ_section_title
;
Structure prediction by ZEFSAII (Michael W. Deem and Ramdas Pophale) SiO2 
 PCOD9470085
Probable space group: C M C M
;
_chemical_formula_sum "Si O2"
_cell_formula_units_Z 80
_cell_length_a 26.079999
_cell_length_b 21.217826
_cell_length_c 7.618423
_cell_angle_alpha 90.000000
_cell_angle_beta 90.000000
_cell_angle_gamma 90.000000
_cell_volume 4215.737262
_symmetry_space_group_name_H-M "C M C M"
_symmetry_group_IT_number 63
_symmetry_cell_setting 'orthorhombic'
loop_
_space_group_symop_operation_xyz
x,y,z
-x,-y,1/2+z
x,-y,-z
-x,y,1/2-z
-x,-y,-z
x,y,1/2-z
-x,y,z
x,-y,1/2+z
1/2+x,1/2+y,z
1/2-x,1/2-y,1/2+z
1/2+x,1/2-y,-z
1/2-x,1/2+y,1/2-z
1/2-x,1/2-y,-z
1/2+x,1/2+y,1/2-z
1/2-x,1/2+y,z
1/2+x,1/2-y,1/2+z
loop_
_atom_site_type_symbol
_atom_site_label
_atom_site_fract_x
_atom_site_fract_y
_atom_site_fract_z
Si Si1 0.283647 0.311592 0.039095
Si Si2 0.000000 0.598574 0.046319
Si Si3 0.000000 0.247578 0.544919
Si Si4 0.890388 0.389867 0.958490
Si Si5 0.611502 0.254881 0.465799
Si Si6 0.278781 0.068903 0.542208
O O1 0.286925 0.317651 0.250000
O O2 0.341108 0.297179 0.974895
O O3 0.254851 0.373421 0.968836
O O4 0.250000 0.250000 0.000000
O O5 0.000000 0.675614 0.040899
O O6 0.055949 0.582235 0.968498
O O7 0.000000 0.577228 0.250000
O O8 0.945323 0.226100 0.472457
O O9 0.000000 0.230053 0.750000
O O10 0.899078 0.384492 0.750000
O O11 0.881124 0.318070 0.022060
O O12 0.837855 0.426460 0.983702
O O13 0.611376 0.254918 0.250000
O O14 0.279933 0.076142 0.750000
O O15 0.257831 0.000000 0.500000
#
# Coordination Sequence:
#
# PCOD9470085 Si02
#       6
#    16   8   8  16  16  16
#     4  10  19  31  49  73  96 120 154 194 234 279
#     4   7  12  22  42  70  91 116 153 190 228 276
#     4   7  10  18  36  66  97 118 140 174 224 275
#     4   9  15  28  49  69  93 122 154 192 236 277
#     4   8  13  23  43  70  96 119 144 183 229 274
#     4  11  23  35  47  66  94 127 163 196 233 280
#
# _framework density 18.976514000000002
#
# number of rings (size 3 to 8) (size 9 to 14) (size 15 to 20)
#    0.000    3.000    2.000    3.000    0.000    0.800 
#    0.000    1.000    0.000    0.000    0.000    1.400 
#    0.000    0.000    0.000    0.000    0.000    0.000 
#
# Total GULP energy -222871.356104 kJ/mol
# GULP energy per Si atom -5571.783903 kJ/mol
# Density = 1.893332 g / cm^3
# Si number density = 18.976514 Si / 1000 Ang^3
#
#
#
# Elastic Constant Matrix: (Units=GPa)
#
#
# Indices 1 2 3 4 5 6 
#
# 1 157.3018 64.4209 -2.4967 0.0000 0.0000 0.0000
# 2 64.4209 98.2299 -4.9585 0.0000 0.0000 0.0000
# 3 -2.4967 -4.9585 33.6697 0.0000 0.0000 0.0000
# 4 0.0000 0.0000 0.0000 6.1894 0.0000 0.0000
# 5 0.0000 0.0000 0.0000 0.0000 5.3593 0.0000
# 6 0.0000 0.0000 0.0000 0.0000 0.0000 13.2609
#
#
#
# Elastic Compliance Matrix: (Units=1/GPa)
#
#
# Indices 1 2 3 4 5 6 
#
# 1 0.008693 -0.005711 -0.000196 0.000000 0.000000 0.000000
# 2 -0.005711 0.014008 0.001640 0.000000 0.000000 0.000000
# 3 -0.000196 0.001640 0.029927 0.000000 0.000000 0.000000
# 4 0.000000 0.000000 0.000000 0.161566 0.000000 0.000000
# 5 0.000000 0.000000 0.000000 0.000000 0.186591 0.000000
# 6 0.000000 0.000000 0.000000 0.000000 0.000000 0.075410
#
#
# Mechanical properties :
#
#
# Convention : Reuss Voigt Hill
#
# Bulk Modulus (GPa) = 22.67944 44.79253 33.73599
# Shear Modulus (GPa) = 10.01143 20.44431 15.22787
#
# Velocity S-wave (km/s) = 2.29938 3.28586 2.83584
# Velocity P-wave (km/s) = 4.36197 6.16857 5.34219
#
# Compressibility (1/GPa) = 0.04409279
#
# Stress axis : x y z
#
# Youngs Moduli (GPa) = 115.03645 71.38653 33.41440
#
# Poissons Ratio (x) = 0.40768 0.00656
# Poissons Ratio (y) = 0.65696 -0.05478
# Poissons Ratio (z) = 0.02260 -0.11704
#
# Static dielectric constant tensor:
#      x y z
#    x 1.725400 0.000000 0.000000 
#    y 0.000000 1.651150 0.000000 
#    z 0.000000 0.000000 1.739230 
# 
# From -- ./inp_files/12258.got.cif
#   From: 2010.05.17/outbox.cif.g08.bks.cpg/sg63_7_cif.got.tgz:12258.got - 2010.06.03 15:47:04.
