data_PCOD9470356
_publ_section_title
;
Structure prediction by ZEFSAII (Michael W. Deem and Ramdas Pophale) SiO2 
 PCOD9470356
Probable space group: C M C M
;
_chemical_formula_sum "Si O2"
_cell_formula_units_Z 96
_cell_length_a 23.423683
_cell_length_b 26.595477
_cell_length_c 8.566213
_cell_angle_alpha 90.000000
_cell_angle_beta 90.000000
_cell_angle_gamma 90.000000
_cell_volume 5336.442508
_symmetry_space_group_name_H-M "C M C M"
_symmetry_group_IT_number 63
_symmetry_cell_setting 'orthorhombic'
loop_
_space_group_symop_operation_xyz
x,y,z
-x,-y,1/2+z
x,-y,-z
-x,y,1/2-z
-x,-y,-z
x,y,1/2-z
-x,y,z
x,-y,1/2+z
1/2+x,1/2+y,z
1/2-x,1/2-y,1/2+z
1/2+x,1/2-y,-z
1/2-x,1/2+y,1/2-z
1/2-x,1/2-y,-z
1/2+x,1/2+y,1/2-z
1/2-x,1/2+y,z
1/2+x,1/2-y,1/2+z
loop_
_atom_site_type_symbol
_atom_site_label
_atom_site_fract_x
_atom_site_fract_y
_atom_site_fract_z
Si Si1 0.691504 0.944340 0.560981
Si Si2 0.127067 0.155074 0.568450
Si Si3 0.934832 0.746770 0.936231
Si Si4 0.135244 0.653023 0.072436
Si Si5 0.179419 0.944548 0.438684
Si Si6 0.238008 0.803739 0.571774
O O1 0.692668 0.943337 0.750000
O O2 0.644403 0.903295 0.506533
O O3 0.756463 0.933439 0.502928
O O4 0.678027 0.000000 0.500000
O O5 0.111683 0.154581 0.750000
O O6 0.090985 0.199620 0.490148
O O7 0.132596 0.097327 0.511211
O O8 0.192372 0.171660 0.541575
O O9 0.934525 0.746606 0.750000
O O10 0.000000 0.742523 0.993076
O O11 0.899019 0.697989 0.990998
O O12 0.113269 0.649603 0.250000
O O13 0.201269 0.669782 0.078239
O O14 0.182346 0.944276 0.250000
O O15 0.164901 0.000000 0.500000
O O16 0.215160 0.801457 0.750000
O O17 0.250000 0.750000 0.500000
#
# Coordination Sequence:
#
# PCOD9470356 Si02
#       6
#    16  16  16  16  16  16
#     4  10  19  32  50  78 113 147 181 213 259 315
#     4  11  22  35  54  80 110 146 181 217 268 324
#     4  11  25  41  58  80 104 137 182 231 280 324
#     4  10  21  35  54  79 110 146 180 217 267 323
#     4  10  20  32  50  78 112 147 181 213 258 314
#     4  11  20  31  49  78 112 143 177 216 265 324
#
# _framework density 17.989512999999999
#
# number of rings (size 3 to 8) (size 9 to 14) (size 15 to 20)
#    0.000    1.500    3.333    3.500    0.000    5.333 
#    0.000    0.000    0.000    1.000    0.000    0.000 
#    0.000    0.000    0.000    0.000    0.000    0.000 
#
# Total GULP energy -267427.482126 kJ/mol
# GULP energy per Si atom -5571.405878 kJ/mol
# Density = 1.794857 g / cm^3
# Si number density = 17.989513 Si / 1000 Ang^3
#
#
#
# Elastic Constant Matrix: (Units=GPa)
#
#
# Indices 1 2 3 4 5 6 
#
# 1 63.6081 42.6724 14.0507 0.0000 0.0000 0.0000
# 2 42.6724 156.9530 33.1880 0.0000 0.0000 0.0000
# 3 14.0507 33.1880 43.2184 0.0000 0.0000 0.0000
# 4 0.0000 0.0000 0.0000 17.9900 0.0000 0.0000
# 5 0.0000 0.0000 0.0000 0.0000 17.9922 0.0000
# 6 0.0000 0.0000 0.0000 0.0000 0.0000 8.0326
#
#
#
# Elastic Compliance Matrix: (Units=1/GPa)
#
#
# Indices 1 2 3 4 5 6 
#
# 1 0.019490 -0.004727 -0.002707 0.000000 0.000000 0.000000
# 2 -0.004727 0.008753 -0.005185 0.000000 0.000000 0.000000
# 3 -0.002707 -0.005185 0.028000 0.000000 0.000000 0.000000
# 4 0.000000 0.000000 0.000000 0.055586 0.000000 0.000000
# 5 0.000000 0.000000 0.000000 0.000000 0.055580 0.000000
# 6 0.000000 0.000000 0.000000 0.000000 0.000000 0.124493
#
#
# Mechanical properties :
#
#
# Convention : Reuss Voigt Hill
#
# Bulk Modulus (GPa) = 32.25142 49.28906 40.77024
# Shear Modulus (GPa) = 15.26844 20.39419 17.83132
#
# Velocity S-wave (km/s) = 2.91648 3.37066 3.15176
# Velocity P-wave (km/s) = 5.41368 6.52738 5.99644
#
# Compressibility (1/GPa) = 0.03100638
#
# Stress axis : x y z
#
# Youngs Moduli (GPa) = 51.30815 114.25038 35.71468
#
# Poissons Ratio (x) = 0.54002 0.09667
# Poissons Ratio (y) = 0.24251 0.18517
# Poissons Ratio (z) = 0.13888 0.59235
#
# Static dielectric constant tensor:
#      x y z
#    x 1.600840 0.000000 0.000000 
#    y 0.000000 1.694680 0.000000 
#    z 0.000000 0.000000 1.697110 
# 
# From -- ./inp_files/8629.got.cif
#   From: 2010.05.17/outbox.cif.g08.bks.cpg/sg63_5_cif.got.tgz:8629.got - 2010.06.03 15:47:04.
