data_PCOD9470928
_publ_section_title
;
Structure prediction by ZEFSAII (Michael W. Deem and Ramdas Pophale) SiO2 
 PCOD9470928
Probable space group: C M C M
;
_chemical_formula_sum "Si O2"
_cell_formula_units_Z 88
_cell_length_a 11.263569
_cell_length_b 27.229736
_cell_length_c 13.423764
_cell_angle_alpha 90.000000
_cell_angle_beta 90.000000
_cell_angle_gamma 90.000000
_cell_volume 4117.122252
_symmetry_space_group_name_H-M "C M C M"
_symmetry_group_IT_number 63
_symmetry_cell_setting 'orthorhombic'
loop_
_space_group_symop_operation_xyz
x,y,z
-x,-y,1/2+z
x,-y,-z
-x,y,1/2-z
-x,-y,-z
x,y,1/2-z
-x,y,z
x,-y,1/2+z
1/2+x,1/2+y,z
1/2-x,1/2-y,1/2+z
1/2+x,1/2-y,-z
1/2-x,1/2+y,1/2-z
1/2-x,1/2-y,-z
1/2+x,1/2+y,1/2-z
1/2-x,1/2+y,z
1/2+x,1/2-y,1/2+z
loop_
_atom_site_type_symbol
_atom_site_label
_atom_site_fract_x
_atom_site_fract_y
_atom_site_fract_z
Si Si1 0.000000 0.859779 0.427303
Si Si2 0.758625 0.239180 0.130249
Si Si3 0.857879 0.028927 0.362788
Si Si4 0.218027 0.075290 0.565536
Si Si5 0.864399 0.659390 0.630866
Si Si6 0.000000 0.820616 0.631742
Si Si7 0.500000 0.754733 0.869319
O O1 0.114861 0.889211 0.393086
O O2 0.000000 0.862145 0.548350
O O3 0.000000 0.803280 0.395075
O O4 0.755089 0.239146 0.250000
O O5 0.780088 0.295626 0.099696
O O6 0.878312 0.208980 0.108799
O O7 0.626735 0.223527 0.096350
O O8 0.841013 0.047144 0.250000
O O9 0.806502 0.062738 0.450087
O O10 0.000000 0.021752 0.378914
O O11 0.794604 0.976210 0.377740
O O12 0.334018 0.107923 0.580141
O O13 0.850631 0.653064 0.750000
O O14 0.000000 0.674657 0.613414
O O15 0.000000 0.833266 0.750000
O O16 0.500000 0.758918 0.750000
#
# Coordination Sequence:
#
# PCOD9470928 Si02
#       7
#     8  16  16  16  16   8   8
#     4  12  22  31  54  86 110 140 183 232 287 338
#     4   9  17  33  54  76 109 149 190 234 284 331
#     4  10  20  35  57  81 114 151 178 223 289 353
#     4  11  20  36  53  85 117 137 185 237 279 342
#     4  10  19  33  57  83 111 152 194 233 280 336
#     4  10  22  38  53  74 111 158 198 233 277 343
#     4  10  20  32  51  82 111 137 179 246 294 324
#
# _framework density 21.374151999999999
#
# number of rings (size 3 to 8) (size 9 to 14) (size 15 to 20)
#    0.000    1.818    4.545    1.091    0.000    2.182 
#    0.000    1.818    0.000    1.636    0.000    0.000 
#    0.000    0.000    0.000    0.000    0.000    0.000 
#
# Total GULP energy -245727.093083 kJ/mol
# GULP energy per Si atom -5584.706661 kJ/mol
# Density = 2.132550 g / cm^3
# Si number density = 21.374152 Si / 1000 Ang^3
#
#
#
# Elastic Constant Matrix: (Units=GPa)
#
#
# Indices 1 2 3 4 5 6 
#
# 1 123.6610 27.2138 20.7587 0.0000 0.0000 0.0000
# 2 27.2138 31.1638 -10.4241 0.0000 0.0000 0.0000
# 3 20.7587 -10.4241 93.8508 0.0000 0.0000 0.0000
# 4 0.0000 0.0000 0.0000 14.0430 0.0000 0.0000
# 5 0.0000 0.0000 0.0000 0.0000 21.1909 0.0000
# 6 0.0000 0.0000 0.0000 0.0000 0.0000 36.9398
#
#
#
# Elastic Compliance Matrix: (Units=1/GPa)
#
#
# Indices 1 2 3 4 5 6 
#
# 1 0.011108 -0.010928 -0.003671 0.000000 0.000000 0.000000
# 2 -0.010928 0.044077 0.007313 0.000000 0.000000 0.000000
# 3 -0.003671 0.007313 0.012279 0.000000 0.000000 0.000000
# 4 0.000000 0.000000 0.000000 0.071210 0.000000 0.000000
# 5 0.000000 0.000000 0.000000 0.000000 0.047190 0.000000
# 6 0.000000 0.000000 0.000000 0.000000 0.000000 0.027071
#
#
# Mechanical properties :
#
#
# Convention : Reuss Voigt Hill
#
# Bulk Modulus (GPa) = 18.90601 35.97471 27.44036
# Shear Modulus (GPa) = 20.39677 28.50988 24.45332
#
# Velocity S-wave (km/s) = 3.09248 3.65615 3.38607
# Velocity P-wave (km/s) = 4.64927 5.88988 5.30596
#
# Compressibility (1/GPa) = 0.05289325
#
# Stress axis : x y z
#
# Youngs Moduli (GPa) = 90.02846 22.68753 81.43757
#
# Poissons Ratio (x) = 0.24792 0.29893
# Poissons Ratio (y) = 0.98379 -0.59553
# Poissons Ratio (z) = 0.33046 -0.16591
#
# Static dielectric constant tensor:
#      x y z
#    x 1.820430 0.000000 0.000000 
#    y 0.000000 1.741330 0.000000 
#    z 0.000000 0.000000 1.803890 
# 
# From -- ./inp_files/30155.got.cif
#   From: 2010.05.17/outbox.cif.g08.bks.cpg/sg63_16_cif.got.tgz:30155.got - 2010.06.03 15:47:04.
