data_PCOD9470164
_publ_section_title
;
Structure prediction by ZEFSAII (Michael W. Deem and Ramdas Pophale) SiO2 
 PCOD9470164
Probable space group: C M C M
;
_chemical_formula_sum "Si O2"
_cell_formula_units_Z 96
_cell_length_a 25.590880
_cell_length_b 19.767124
_cell_length_c 10.029845
_cell_angle_alpha 90.000000
_cell_angle_beta 90.000000
_cell_angle_gamma 90.000000
_cell_volume 5073.678317
_symmetry_space_group_name_H-M "C M C M"
_symmetry_group_IT_number 63
_symmetry_cell_setting 'orthorhombic'
loop_
_space_group_symop_operation_xyz
x,y,z
-x,-y,1/2+z
x,-y,-z
-x,y,1/2-z
-x,-y,-z
x,y,1/2-z
-x,y,z
x,-y,1/2+z
1/2+x,1/2+y,z
1/2-x,1/2-y,1/2+z
1/2+x,1/2-y,-z
1/2-x,1/2+y,1/2-z
1/2-x,1/2-y,-z
1/2+x,1/2+y,1/2-z
1/2-x,1/2+y,z
1/2+x,1/2-y,1/2+z
loop_
_atom_site_type_symbol
_atom_site_label
_atom_site_fract_x
_atom_site_fract_y
_atom_site_fract_z
Si Si1 0.238665 0.578952 0.532202
Si Si2 0.403967 0.813580 0.593802
Si Si3 0.942866 0.831349 0.088457
Si Si4 0.878935 0.433564 0.095604
Si Si5 0.146055 0.935324 0.096756
Si Si6 0.718984 0.791967 0.607116
O O1 0.240519 0.500000 0.500000
O O2 0.182664 0.587547 0.602780
O O3 0.294696 0.593401 0.597061
O O4 0.234225 0.629303 0.407737
O O5 0.415820 0.832093 0.750000
O O6 0.435576 0.747127 0.552158
O O7 0.407767 0.874756 0.488888
O O8 0.343304 0.790108 0.593272
O O9 0.941638 0.831609 0.250000
O O10 0.895104 0.879155 0.047736
O O11 0.000000 0.856013 0.044684
O O12 0.896222 0.443856 0.250000
O O13 0.881782 0.500000 0.000000
O O14 0.133502 0.954133 0.250000
O O15 0.143847 0.000000 0.000000
O O16 0.733925 0.764597 0.750000
O O17 0.750000 0.750000 0.500000
#
# Coordination Sequence:
#
# PCOD9470164 Si02
#       6
#    16  16  16  16  16  16
#     4   9  19  32  48  71 103 140 174 205 241 288
#     4   9  18  33  51  72  99 131 168 210 253 298
#     4   9  18  34  56  77  97 128 171 216 262 309
#     4  10  19  31  50  77 108 140 170 200 240 295
#     4  10  20  34  52  75 103 135 172 213 255 301
#     4  10  20  32  48  72 103 136 169 206 249 299
#
# _framework density 18.921184
#
# number of rings (size 3 to 8) (size 9 to 14) (size 15 to 20)
#    0.000    2.500    0.000    2.000    0.000   11.667 
#    0.000    0.833    0.000    2.000    0.000    0.000 
#    0.000    0.000    0.000    0.000    0.000    0.000 
#
# Total GULP energy -267246.638676 kJ/mol
# GULP energy per Si atom -5567.638306 kJ/mol
# Density = 1.887812 g / cm^3
# Si number density = 18.921184 Si / 1000 Ang^3
#
#
#
# Elastic Constant Matrix: (Units=GPa)
#
#
# Indices 1 2 3 4 5 6 
#
# 1 35.3834 20.7759 -4.1404 0.0000 0.0000 0.0000
# 2 20.7759 64.0606 24.1348 0.0000 0.0000 0.0000
# 3 -4.1404 24.1348 99.5743 0.0000 0.0000 0.0000
# 4 0.0000 0.0000 0.0000 27.4011 0.0000 0.0000
# 5 0.0000 0.0000 0.0000 0.0000 6.9720 0.0000
# 6 0.0000 0.0000 0.0000 0.0000 0.0000 15.6919
#
#
#
# Elastic Compliance Matrix: (Units=1/GPa)
#
#
# Indices 1 2 3 4 5 6 
#
# 1 0.036952 -0.013825 0.004887 0.000000 0.000000 0.000000
# 2 -0.013825 0.022352 -0.005992 0.000000 0.000000 0.000000
# 3 0.004887 -0.005992 0.011698 0.000000 0.000000 0.000000
# 4 0.000000 0.000000 0.000000 0.036495 0.000000 0.000000
# 5 0.000000 0.000000 0.000000 0.000000 0.143431 0.000000
# 6 0.000000 0.000000 0.000000 0.000000 0.000000 0.063727
#
#
# Mechanical properties :
#
#
# Convention : Reuss Voigt Hill
#
# Bulk Modulus (GPa) = 24.30669 31.17322 27.73995
# Shear Modulus (GPa) = 13.95754 20.56286 17.26020
#
# Velocity S-wave (km/s) = 2.71895 3.30019 3.02357
# Velocity P-wave (km/s) = 4.76771 5.57070 5.18478
#
# Compressibility (1/GPa) = 0.04114094
#
# Stress axis : x y z
#
# Youngs Moduli (GPa) = 27.06249 44.73941 85.48157
#
# Poissons Ratio (x) = 0.61854 -0.41779
# Poissons Ratio (y) = 0.37415 0.51225
# Poissons Ratio (z) = -0.13227 0.26810
#
# Static dielectric constant tensor:
#      x y z
#    x 1.671620 0.000000 0.000000 
#    y 0.000000 1.668280 0.000000 
#    z 0.000000 0.000000 1.684500 
# 
# From -- ./inp_files/10422.got.cif
#   From: 2010.05.17/outbox.cif.g08.bks.cpg/sg63_6_cif.got.tgz:10422.got - 2010.06.03 15:47:04.
