data_PCOD9470941
_publ_section_title
;
Structure prediction by ZEFSAII (Michael W. Deem and Ramdas Pophale) SiO2 
 PCOD9470941
Probable space group: C M C M
;
_chemical_formula_sum "Si O2"
_cell_formula_units_Z 72
_cell_length_a 10.481214
_cell_length_b 24.805811
_cell_length_c 15.152636
_cell_angle_alpha 90.000000
_cell_angle_beta 90.000000
_cell_angle_gamma 90.000000
_cell_volume 3939.609802
_symmetry_space_group_name_H-M "C M C M"
_symmetry_group_IT_number 63
_symmetry_cell_setting 'orthorhombic'
loop_
_space_group_symop_operation_xyz
x,y,z
-x,-y,1/2+z
x,-y,-z
-x,y,1/2-z
-x,-y,-z
x,y,1/2-z
-x,y,z
x,-y,1/2+z
1/2+x,1/2+y,z
1/2-x,1/2-y,1/2+z
1/2+x,1/2-y,-z
1/2-x,1/2+y,1/2-z
1/2-x,1/2-y,-z
1/2+x,1/2+y,1/2-z
1/2-x,1/2+y,z
1/2+x,1/2-y,1/2+z
loop_
_atom_site_type_symbol
_atom_site_label
_atom_site_fract_x
_atom_site_fract_y
_atom_site_fract_z
Si Si1 0.500000 0.133409 0.250000
Si Si2 0.237751 0.153162 0.443508
Si Si3 0.798650 0.005126 0.250000
Si Si4 0.000000 0.833112 0.424729
Si Si5 0.500000 0.792809 0.922032
Si Si6 0.707366 0.625600 0.250000
Si Si7 0.856020 0.536998 0.415101
Si Si8 0.500000 0.409013 0.250000
O O1 0.500000 0.172041 0.334146
O O2 0.358437 0.108439 0.250000
O O3 0.363179 0.189730 0.464620
O O4 0.189240 0.158873 0.340805
O O5 0.285505 0.091617 0.441538
O O6 0.124596 0.158699 0.513422
O O7 0.858674 0.066540 0.250000
O O8 0.715618 0.005674 0.161755
O O9 0.884213 0.952015 0.250000
O O10 0.000000 0.770015 0.400512
O O11 0.000000 0.871685 0.338345
O O12 0.861060 0.500000 0.500000
O O13 0.000000 0.550593 0.387212
#
# Coordination Sequence:
#
# PCOD9470941 Si02
#       8
#     4  16   8   8   8   8  16   4
#     4   8  15  32  60  88 114 140 187 254 290 340
#     4  10  20  37  60  91 117 147 193 249 295 345
#     4  10  21  35  56  76 110 152 188 226 274 353
#     4  12  25  38  59  78 118 168 199 236 292 344
#     4  10  19  38  61  87 112 151 205 250 286 338
#     4   8  18  31  59  86 113 138 182 240 305 337
#     4  10  19  33  57  88 116 147 186 237 293 345
#     4  12  27  44  50  76 126 168 201 218 280 360
#
# _framework density 18.275922000000001
#
# number of rings (size 3 to 8) (size 9 to 14) (size 15 to 20)
#    0.000    2.000    1.111    2.667    4.667    4.000 
#    0.000    5.556    0.000    1.333    0.000    0.000 
#    0.000    0.000    0.000    0.000    0.000    0.000 
#
# Total GULP energy -200555.765979 kJ/mol
# GULP energy per Si atom -5570.993499 kJ/mol
# Density = 1.823433 g / cm^3
# Si number density = 18.275922 Si / 1000 Ang^3
#
#
#
# Elastic Constant Matrix: (Units=GPa)
#
#
# Indices 1 2 3 4 5 6 
#
# 1 132.9394 59.4519 62.7800 0.0000 0.0000 0.0000
# 2 59.4519 115.9839 41.4983 0.0000 0.0000 0.0000
# 3 62.7800 41.4983 99.4658 0.0000 0.0000 0.0000
# 4 0.0000 0.0000 0.0000 12.9766 0.0000 0.0000
# 5 0.0000 0.0000 0.0000 0.0000 -122.8036 0.0000
# 6 0.0000 0.0000 0.0000 0.0000 0.0000 25.1813
#
#
#
# Elastic Compliance Matrix: (Units=1/GPa)
#
#
# Indices 1 2 3 4 5 6 
#
# 1 0.012180 -0.004105 -0.005975 0.000000 0.000000 0.000000
# 2 -0.004105 0.011519 -0.002214 0.000000 0.000000 0.000000
# 3 -0.005975 -0.002214 0.014749 0.000000 0.000000 0.000000
# 4 0.000000 0.000000 0.000000 0.077062 0.000000 0.000000
# 5 0.000000 0.000000 0.000000 0.000000 -0.008143 0.000000
# 6 0.000000 0.000000 0.000000 0.000000 0.000000 0.039712
#
#
# Mechanical properties :
#
#
# Convention : Reuss Voigt Hill
#
# Bulk Modulus (GPa) = 72.16133 75.09438 73.62785
# Shear Modulus (GPa) = 28.36300 -4.61854 11.87223
#
# Velocity S-wave (km/s) = 3.94373 -1.59142 2.55151
# Velocity P-wave (km/s) = 7.76579 6.14830 7.00389
#
# Compressibility (1/GPa) = 0.01385784
#
# Stress axis : x y z
#
# Youngs Moduli (GPa) = 82.10356 86.81600 67.80291
#
# Poissons Ratio (x) = 0.35642 0.40510
# Poissons Ratio (y) = 0.33707 0.15015
# Poissons Ratio (z) = 0.49054 0.19225
#
# Static dielectric constant tensor:
#      x y z
#    x 1.724280 0.000000 0.000000 
#    y 0.000000 1.605600 0.000000 
#    z 0.000000 0.000000 1.664690 
# 
# From -- ./inp_files/28025.got.cif
#   From: 2010.05.17/outbox.cif.g08.bks.cpg/sg63_15_cif.got.tgz:28025.got - 2010.06.03 15:47:04.
