data_PCOD9470580
_publ_section_title
;
Structure prediction by ZEFSAII (Michael W. Deem and Ramdas Pophale) SiO2 
 PCOD9470580
Probable space group: C M C M
;
_chemical_formula_sum "Si O2"
_cell_formula_units_Z 96
_cell_length_a 7.540951
_cell_length_b 31.276976
_cell_length_c 19.565097
_cell_angle_alpha 90.000000
_cell_angle_beta 90.000000
_cell_angle_gamma 90.000000
_cell_volume 4614.587455
_symmetry_space_group_name_H-M "C M C M"
_symmetry_group_IT_number 63
_symmetry_cell_setting 'orthorhombic'
loop_
_space_group_symop_operation_xyz
x,y,z
-x,-y,1/2+z
x,-y,-z
-x,y,1/2-z
-x,-y,-z
x,y,1/2-z
-x,y,z
x,-y,1/2+z
1/2+x,1/2+y,z
1/2-x,1/2-y,1/2+z
1/2+x,1/2-y,-z
1/2-x,1/2+y,1/2-z
1/2-x,1/2-y,-z
1/2+x,1/2+y,1/2-z
1/2-x,1/2+y,z
1/2+x,1/2-y,1/2+z
loop_
_atom_site_type_symbol
_atom_site_label
_atom_site_fract_x
_atom_site_fract_y
_atom_site_fract_z
Si Si1 0.286919 0.265139 0.077108
Si Si2 0.217352 0.940368 0.171411
Si Si3 0.717036 0.187386 0.171562
Si Si4 0.214300 0.016613 0.074354
Si Si5 0.707478 0.885197 0.932214
Si Si6 0.205140 0.139426 0.915580
O O1 0.500000 0.266822 0.083169
O O2 0.224332 0.229796 0.131061
O O3 0.216286 0.313044 0.088728
O O4 0.250000 0.250000 0.000000
O O5 0.271562 0.940147 0.250000
O O6 0.281040 0.898407 0.130820
O O7 0.000000 0.940266 0.169552
O O8 0.273817 0.982874 0.131191
O O9 0.775765 0.186100 0.250000
O O10 0.500000 0.187425 0.172513
O O11 0.773734 0.146504 0.126786
O O12 0.270548 0.065225 0.085784
O O13 0.000000 0.016477 0.073431
O O14 0.274268 0.000000 0.000000
O O15 0.500000 0.875897 0.941543
O O16 0.791899 0.875429 0.005634
O O17 0.000000 0.143351 0.894293
#
# Coordination Sequence:
#
# PCOD9470580 Si02
#       6
#    16  16  16  16  16  16
#     4  10  19  32  55  81 105 137 176 217 259 309
#     4   9  18  33  53  78 106 135 171 218 268 313
#     4   9  19  35  52  76 111 144 174 214 264 310
#     4  10  19  34  55  77 104 137 173 217 266 312
#     4  11  21  33  54  80 106 140 179 217 257 310
#     4  10  19  33  55  81 106 136 175 219 262 311
#
# _framework density 20.803592999999999
#
# number of rings (size 3 to 8) (size 9 to 14) (size 15 to 20)
#    0.000    2.167    3.333    0.500    0.000    1.667 
#    0.000    3.333    0.000    5.500    0.000    2.333 
#    0.000    0.000    0.000    0.000    0.000    0.000 
#
# Total GULP energy -268113.212755 kJ/mol
# GULP energy per Si atom -5585.691932 kJ/mol
# Density = 2.075624 g / cm^3
# Si number density = 20.803593 Si / 1000 Ang^3
#
#
#
# Elastic Constant Matrix: (Units=GPa)
#
#
# Indices 1 2 3 4 5 6 
#
# 1 50.7112 -2.8472 -4.1074 0.0000 0.0000 0.0000
# 2 -2.8472 222.4932 111.6055 0.0000 0.0000 0.0000
# 3 -4.1074 111.6055 186.0631 0.0000 0.0000 0.0000
# 4 0.0000 0.0000 0.0000 37.4790 0.0000 0.0000
# 5 0.0000 0.0000 0.0000 0.0000 9.0474 0.0000
# 6 0.0000 0.0000 0.0000 0.0000 0.0000 -134.9027
#
#
#
# Elastic Compliance Matrix: (Units=1/GPa)
#
#
# Indices 1 2 3 4 5 6 
#
# 1 0.019755 0.000049 0.000407 0.000000 0.000000 0.000000
# 2 0.000049 0.006429 -0.003855 0.000000 0.000000 0.000000
# 3 0.000407 -0.003855 0.007696 0.000000 0.000000 0.000000
# 4 0.000000 0.000000 0.000000 0.026682 0.000000 0.000000
# 5 0.000000 0.000000 0.000000 0.000000 0.110529 0.000000
# 6 0.000000 0.000000 0.000000 0.000000 0.000000 -0.007413
#
#
# Mechanical properties :
#
#
# Convention : Reuss Voigt Hill
#
# Bulk Modulus (GPa) = 36.92637 74.28548 55.60593
# Shear Modulus (GPa) = 27.85449 5.96584 16.91017
#
# Velocity S-wave (km/s) = 3.66310 1.69527 2.85414
# Velocity P-wave (km/s) = 5.97324 6.29424 6.13584
#
# Compressibility (1/GPa) = 0.02708091
#
# Stress axis : x y z
#
# Youngs Moduli (GPa) = 50.61958 155.54642 129.93873
#
# Poissons Ratio (x) = -0.00757 -0.05287
# Poissons Ratio (y) = -0.00247 0.50094
# Poissons Ratio (z) = -0.02060 0.59966
#
# Static dielectric constant tensor:
#      x y z
#    x 1.793190 0.000000 0.000000 
#    y 0.000000 1.731400 0.000000 
#    z 0.000000 0.000000 1.688540 
# 
# From -- ./inp_files/51257.got.cif
#   From: 2010.05.17/outbox.cif.g08.bks.cpg/sg63_26_cif.got.tgz:51257.got - 2010.06.03 15:47:04.
