data_PCOD9470278
_publ_section_title
;
Structure prediction by ZEFSAII (Michael W. Deem and Ramdas Pophale) SiO2 
 PCOD9470278
Probable space group: C M C M
;
_chemical_formula_sum "Si O2"
_cell_formula_units_Z 104
_cell_length_a 33.233603
_cell_length_b 20.304450
_cell_length_c 7.508535
_cell_angle_alpha 90.000000
_cell_angle_beta 90.000000
_cell_angle_gamma 90.000000
_cell_volume 5066.684561
_symmetry_space_group_name_H-M "C M C M"
_symmetry_group_IT_number 63
_symmetry_cell_setting 'orthorhombic'
loop_
_space_group_symop_operation_xyz
x,y,z
-x,-y,1/2+z
x,-y,-z
-x,y,1/2-z
-x,-y,-z
x,y,1/2-z
-x,y,z
x,-y,1/2+z
1/2+x,1/2+y,z
1/2-x,1/2-y,1/2+z
1/2+x,1/2-y,-z
1/2-x,1/2+y,1/2-z
1/2-x,1/2-y,-z
1/2+x,1/2+y,1/2-z
1/2-x,1/2+y,z
1/2+x,1/2-y,1/2+z
loop_
_atom_site_type_symbol
_atom_site_label
_atom_site_fract_x
_atom_site_fract_y
_atom_site_fract_z
Si Si1 0.500000 0.577990 0.463465
Si Si2 0.901326 0.695858 0.968165
Si Si3 0.770355 0.154095 0.465171
Si Si4 0.954150 0.426226 0.036658
Si Si5 0.078484 0.842399 0.532161
Si Si6 0.689355 0.210281 0.959284
Si Si7 0.155291 0.924493 0.962664
O O1 0.500000 0.500000 0.500000
O O2 0.500000 0.584568 0.250000
O O3 0.540043 0.615481 0.528269
O O4 0.901355 0.694317 0.750000
O O5 0.926336 0.632789 0.030193
O O6 0.920746 0.765872 0.020020
O O7 0.854855 0.694694 0.029324
O O8 0.769621 0.154846 0.250000
O O9 0.723946 0.155599 0.520908
O O10 0.791204 0.222082 0.531164
O O11 0.800532 0.097148 0.526980
O O12 0.956134 0.419430 0.250000
O O13 0.000000 0.421694 0.967589
O O14 0.938966 0.500000 0.000000
O O15 0.078435 0.843561 0.750000
O O16 0.119680 0.877343 0.471377
O O17 0.683660 0.222668 0.750000
O O18 0.155895 0.915916 0.750000
O O19 0.146184 0.000000 0.000000
#
# Coordination Sequence:
#
# PCOD9470278 Si02
#       7
#     8  16  16  16  16  16  16
#     4  10  20  32  50  72  99 134 166 202 245 288
#     4   9  16  29  51  77  99 123 162 205 240 282
#     4   9  17  30  47  68  94 124 157 197 242 284
#     4   9  18  32  52  76 100 127 158 194 238 291
#     4   9  17  30  49  74  99 126 165 207 243 280
#     4   9  16  29  50  71  93 121 155 198 242 284
#     4  10  19  32  49  69  98 133 166 203 243 283
#
# _framework density 20.526243000000001
#
# number of rings (size 3 to 8) (size 9 to 14) (size 15 to 20)
#    0.000    2.769    1.538    0.462    1.077    0.615 
#    0.000    1.538    0.000    6.462    0.000    0.000 
#    0.000    0.000    0.000    0.000    0.000    0.000 
#
# Total GULP energy -290074.432846 kJ/mol
# GULP energy per Si atom -5578.354478 kJ/mol
# Density = 2.047952 g / cm^3
# Si number density = 20.526243 Si / 1000 Ang^3
#
#
#
# Elastic Constant Matrix: (Units=GPa)
#
#
# Indices 1 2 3 4 5 6 
#
# 1 137.6069 92.1034 0.5288 0.0000 0.0000 0.0000
# 2 92.1034 160.8906 -4.8388 0.0000 0.0000 0.0000
# 3 0.5288 -4.8388 49.8863 0.0000 0.0000 0.0000
# 4 0.0000 0.0000 0.0000 17.7661 0.0000 0.0000
# 5 0.0000 0.0000 0.0000 0.0000 3.6200 0.0000
# 6 0.0000 0.0000 0.0000 0.0000 0.0000 30.9455
#
#
#
# Elastic Compliance Matrix: (Units=1/GPa)
#
#
# Indices 1 2 3 4 5 6 
#
# 1 0.011812 -0.006785 -0.000783 0.000000 0.000000 0.000000
# 2 -0.006785 0.010131 0.001055 0.000000 0.000000 0.000000
# 3 -0.000783 0.001055 0.020156 0.000000 0.000000 0.000000
# 4 0.000000 0.000000 0.000000 0.056287 0.000000 0.000000
# 5 0.000000 0.000000 0.000000 0.000000 0.276247 0.000000
# 6 0.000000 0.000000 0.000000 0.000000 0.000000 0.032315
#
#
# Mechanical properties :
#
#
# Convention : Reuss Voigt Hill
#
# Bulk Modulus (GPa) = 34.39820 58.21897 46.30858
# Shear Modulus (GPa) = 11.63695 27.83901 19.73798
#
# Velocity S-wave (km/s) = 2.38361 3.68674 3.10433
# Velocity P-wave (km/s) = 4.93660 6.82258 5.95473
#
# Compressibility (1/GPa) = 0.02907129
#
# Stress axis : x y z
#
# Youngs Moduli (GPa) = 84.66260 98.70313 49.61256
#
# Poissons Ratio (x) = 0.66972 0.03886
# Poissons Ratio (y) = 0.57445 -0.05232
# Poissons Ratio (z) = 0.06632 -0.10410
#
# Static dielectric constant tensor:
#      x y z
#    x 1.738690 0.000000 0.000000 
#    y 0.000000 1.709000 0.000000 
#    z 0.000000 0.000000 1.810900 
# 
# From -- ./inp_files/14508.got.cif
#   From: 2010.05.17/outbox.cif.g08.bks.cpg/sg63_8_cif.got.tgz:14508.got - 2010.06.03 15:47:04.
