data_PCOD9470742
_publ_section_title
;
Structure prediction by ZEFSAII (Michael W. Deem and Ramdas Pophale) SiO2 
 PCOD9470742
Probable space group: C M C M
;
_chemical_formula_sum "Si O2"
_cell_formula_units_Z 112
_cell_length_a 28.871253
_cell_length_b 14.088658
_cell_length_c 14.838530
_cell_angle_alpha 90.000000
_cell_angle_beta 90.000000
_cell_angle_gamma 90.000000
_cell_volume 6035.679057
_symmetry_space_group_name_H-M "C M C M"
_symmetry_group_IT_number 63
_symmetry_cell_setting 'orthorhombic'
loop_
_space_group_symop_operation_xyz
x,y,z
-x,-y,1/2+z
x,-y,-z
-x,y,1/2-z
-x,-y,-z
x,y,1/2-z
-x,y,z
x,-y,1/2+z
1/2+x,1/2+y,z
1/2-x,1/2-y,1/2+z
1/2+x,1/2-y,-z
1/2-x,1/2+y,1/2-z
1/2-x,1/2-y,-z
1/2+x,1/2+y,1/2-z
1/2-x,1/2+y,z
1/2+x,1/2-y,1/2+z
loop_
_atom_site_type_symbol
_atom_site_label
_atom_site_fract_x
_atom_site_fract_y
_atom_site_fract_z
Si Si1 0.112222 0.832781 0.846915
Si Si2 0.784702 0.101610 0.150619
Si Si3 0.367009 0.753049 0.971009
Si Si4 0.051897 0.233172 0.855177
Si Si5 0.446912 0.489155 0.392360
Si Si6 0.702865 0.378231 0.143331
Si Si7 0.783076 0.387033 0.010723
O O1 0.098661 0.789066 0.750000
O O2 0.167712 0.841900 0.848229
O O3 0.088513 0.936094 0.851068
O O4 0.104033 0.783642 0.942526
O O5 0.762721 0.105759 0.250000
O O6 0.800281 0.992485 0.134141
O O7 0.750547 0.135904 0.073532
O O8 0.406346 0.786834 0.902548
O O9 0.335647 0.673864 0.918207
O O10 0.330489 0.831197 0.002305
O O11 0.051562 0.253981 0.750000
O O12 0.000000 0.249896 0.891835
O O13 0.061516 0.120015 0.866764
O O14 0.443622 0.500000 0.500000
O O15 0.500000 0.511821 0.365642
O O16 0.699290 0.354078 0.250000
O O17 0.753600 0.360852 0.099735
O O18 0.790483 0.500000 0.000000
#
# Coordination Sequence:
#
# PCOD9470742 Si02
#       7
#    16  16  16  16  16  16  16
#     4  11  22  32  49  75 108 145 181 216 255 307
#     4   9  19  34  50  73 107 144 177 210 258 312
#     4  12  22  35  55  80 104 139 183 224 266 313
#     4  10  21  36  55  81 113 143 174 217 263 310
#     4  10  19  33  53  77 111 150 179 209 254 313
#     4  10  20  33  53  79 108 141 174 217 262 315
#     4  10  22  39  55  74 104 140 179 224 272 319
#
# _framework density 18.556321000000001
#
# number of rings (size 3 to 8) (size 9 to 14) (size 15 to 20)
#    0.000    1.714    2.857    2.143    0.000    3.714 
#    0.000    0.000    0.000    0.429    0.000    0.000 
#    0.000    0.000    0.000    0.000    0.000    0.000 
#
# Total GULP energy -312467.082102 kJ/mol
# GULP energy per Si atom -5579.769323 kJ/mol
# Density = 1.851409 g / cm^3
# Si number density = 18.556321 Si / 1000 Ang^3
#
#
#
# Elastic Constant Matrix: (Units=GPa)
#
#
# Indices 1 2 3 4 5 6 
#
# 1 79.2657 4.6780 16.1453 0.0000 0.0000 0.0000
# 2 4.6780 22.6083 6.8649 0.0000 0.0000 0.0000
# 3 16.1453 6.8649 96.0642 0.0000 0.0000 0.0000
# 4 0.0000 0.0000 0.0000 7.0476 0.0000 0.0000
# 5 0.0000 0.0000 0.0000 0.0000 19.8787 0.0000
# 6 0.0000 0.0000 0.0000 0.0000 0.0000 28.7244
#
#
#
# Elastic Compliance Matrix: (Units=1/GPa)
#
#
# Indices 1 2 3 4 5 6 
#
# 1 0.013160 -0.002097 -0.002062 0.000000 0.000000 0.000000
# 2 -0.002097 0.045547 -0.002902 0.000000 0.000000 0.000000
# 3 -0.002062 -0.002902 0.010964 0.000000 0.000000 0.000000
# 4 0.000000 0.000000 0.000000 0.141892 0.000000 0.000000
# 5 0.000000 0.000000 0.000000 0.000000 0.050305 0.000000
# 6 0.000000 0.000000 0.000000 0.000000 0.000000 0.034814
#
#
# Mechanical properties :
#
#
# Convention : Reuss Voigt Hill
#
# Bulk Modulus (GPa) = 18.00255 28.14607 23.07431
# Shear Modulus (GPa) = 15.18288 22.48014 18.83151
#
# Velocity S-wave (km/s) = 2.86353 3.48437 3.18910
# Velocity P-wave (km/s) = 4.54486 5.60256 5.10119
#
# Compressibility (1/GPa) = 0.05554768
#
# Stress axis : x y z
#
# Youngs Moduli (GPa) = 75.99069 21.95548 91.21058
#
# Poissons Ratio (x) = 0.04604 0.18806
# Poissons Ratio (y) = 0.15934 0.26473
# Poissons Ratio (z) = 0.15668 0.06372
#
# Static dielectric constant tensor:
#      x y z
#    x 1.642580 0.000000 0.000000 
#    y 0.000000 1.642030 0.000000 
#    z 0.000000 0.000000 1.718480 
# 
# From -- ./inp_files/38683.got.cif
#   From: 2010.05.17/outbox.cif.g08.bks.cpg/sg63_20_cif.got.tgz:38683.got - 2010.06.03 15:47:04.
