data_PCOD9470279
_publ_section_title
;
Structure prediction by ZEFSAII (Michael W. Deem and Ramdas Pophale) SiO2 
 PCOD9470279
Probable space group: C M C M
;
_chemical_formula_sum "Si O2"
_cell_formula_units_Z 88
_cell_length_a 26.411824
_cell_length_b 18.958070
_cell_length_c 9.082804
_cell_angle_alpha 90.000000
_cell_angle_beta 90.000000
_cell_angle_gamma 90.000000
_cell_volume 4547.916262
_symmetry_space_group_name_H-M "C M C M"
_symmetry_group_IT_number 63
_symmetry_cell_setting 'orthorhombic'
loop_
_space_group_symop_operation_xyz
x,y,z
-x,-y,1/2+z
x,-y,-z
-x,y,1/2-z
-x,-y,-z
x,y,1/2-z
-x,y,z
x,-y,1/2+z
1/2+x,1/2+y,z
1/2-x,1/2-y,1/2+z
1/2+x,1/2-y,-z
1/2-x,1/2+y,1/2-z
1/2-x,1/2-y,-z
1/2+x,1/2+y,1/2-z
1/2-x,1/2+y,z
1/2+x,1/2-y,1/2+z
loop_
_atom_site_type_symbol
_atom_site_label
_atom_site_fract_x
_atom_site_fract_y
_atom_site_fract_z
Si Si1 0.345490 0.423390 0.926588
Si Si2 0.887018 0.423677 0.074378
Si Si3 0.117396 0.292326 0.585521
Si Si4 0.057814 0.825359 0.925888
Si Si5 0.000000 0.424695 0.424918
Si Si6 0.214859 0.805585 0.084145
O O1 0.340445 0.427878 0.750000
O O2 0.399471 0.384334 0.958430
O O3 0.345096 0.500000 0.000000
O O4 0.300345 0.375389 0.993434
O O5 0.880965 0.429105 0.250000
O O6 0.944664 0.396859 0.038095
O O7 0.879150 0.500000 0.000000
O O8 0.858463 0.358462 0.002281
O O9 0.102030 0.315230 0.750000
O O10 0.074014 0.247054 0.504670
O O11 0.162019 0.235687 0.597836
O O12 0.059665 0.813137 0.750000
O O13 0.000000 0.845202 0.964874
O O14 0.000000 0.500000 0.500000
O O15 0.000000 0.432362 0.250000
O O16 0.233626 0.821559 0.250000
O O17 0.250000 0.750000 0.000000
#
# Coordination Sequence:
#
# PCOD9470279 Si02
#       6
#    16  16  16  16   8  16
#     4  10  20  36  59  87 119 153 189 231 279 330
#     4  10  19  32  49  70 100 138 179 223 268 317
#     4  10  21  35  52  78 108 140 179 227 279 332
#     4   9  19  35  54  78 111 152 194 231 272 326
#     4   8  16  28  42  62  88 124 167 206 247 294
#     4  10  21  39  62  85 111 142 182 228 278 336
#
# _framework density 19.349522
#
# number of rings (size 3 to 8) (size 9 to 14) (size 15 to 20)
#    0.000    2.364    0.000    2.182    1.273    4.364 
#    0.000    0.909    0.000    4.364    0.000    0.000 
#    0.000    0.000    0.000    0.000    0.000    0.000 
#
# Total GULP energy -245010.246461 kJ/mol
# GULP energy per Si atom -5568.414692 kJ/mol
# Density = 1.930548 g / cm^3
# Si number density = 19.349522 Si / 1000 Ang^3
#
#
#
# Elastic Constant Matrix: (Units=GPa)
#
#
# Indices 1 2 3 4 5 6 
#
# 1 48.0715 24.7485 30.4195 0.0000 0.0000 0.0000
# 2 24.7485 158.9712 84.4291 0.0000 0.0000 0.0000
# 3 30.4195 84.4291 105.1267 0.0000 0.0000 0.0000
# 4 0.0000 0.0000 0.0000 35.0391 0.0000 0.0000
# 5 0.0000 0.0000 0.0000 0.0000 18.0745 0.0000
# 6 0.0000 0.0000 0.0000 0.0000 0.0000 17.4993
#
#
#
# Elastic Compliance Matrix: (Units=1/GPa)
#
#
# Indices 1 2 3 4 5 6 
#
# 1 0.025466 -0.000089 -0.007297 0.000000 0.000000 0.000000
# 2 -0.000089 0.010969 -0.008784 0.000000 0.000000 0.000000
# 3 -0.007297 -0.008784 0.018679 0.000000 0.000000 0.000000
# 4 0.000000 0.000000 0.000000 0.028540 0.000000 0.000000
# 5 0.000000 0.000000 0.000000 0.000000 0.055327 0.000000
# 6 0.000000 0.000000 0.000000 0.000000 0.000000 0.057145
#
#
# Mechanical properties :
#
#
# Convention : Reuss Voigt Hill
#
# Bulk Modulus (GPa) = 43.91132 65.70706 54.80919
# Shear Modulus (GPa) = 21.18133 25.62740 23.40436
#
# Velocity S-wave (km/s) = 3.31217 3.64324 3.48164
# Velocity P-wave (km/s) = 6.11312 7.19231 6.67456
#
# Compressibility (1/GPa) = 0.02277317
#
# Stress axis : x y z
#
# Youngs Moduli (GPa) = 39.26824 91.16204 53.53729
#
# Poissons Ratio (x) = 0.00810 0.39069
# Poissons Ratio (y) = 0.00349 0.47028
# Poissons Ratio (z) = 0.28656 0.80077
#
# Static dielectric constant tensor:
#      x y z
#    x 1.766240 0.000000 0.000000 
#    y 0.000000 1.672870 0.000000 
#    z 0.000000 0.000000 1.684950 
# 
# From -- ./inp_files/10221.got.cif
#   From: 2010.05.17/outbox.cif.g08.bks.cpg/sg63_6_cif.got.tgz:10221.got - 2010.06.03 15:47:04.
