data_PCOD9470796
_publ_section_title
;
Structure prediction by ZEFSAII (Michael W. Deem and Ramdas Pophale) SiO2 
 PCOD9470796
Probable space group: C M C M
;
_chemical_formula_sum "Si O2"
_cell_formula_units_Z 80
_cell_length_a 17.353643
_cell_length_b 15.042898
_cell_length_c 15.497488
_cell_angle_alpha 90.000000
_cell_angle_beta 90.000000
_cell_angle_gamma 90.000000
_cell_volume 4045.605009
_symmetry_space_group_name_H-M "C M C M"
_symmetry_group_IT_number 63
_symmetry_cell_setting 'orthorhombic'
loop_
_space_group_symop_operation_xyz
x,y,z
-x,-y,1/2+z
x,-y,-z
-x,y,1/2-z
-x,-y,-z
x,y,1/2-z
-x,y,z
x,-y,1/2+z
1/2+x,1/2+y,z
1/2-x,1/2-y,1/2+z
1/2+x,1/2-y,-z
1/2-x,1/2+y,1/2-z
1/2-x,1/2-y,-z
1/2+x,1/2+y,1/2-z
1/2-x,1/2+y,z
1/2+x,1/2-y,1/2+z
loop_
_atom_site_type_symbol
_atom_site_label
_atom_site_fract_x
_atom_site_fract_y
_atom_site_fract_z
Si Si1 0.744122 0.676329 0.650986
Si Si2 0.913996 0.218920 0.945100
Si Si3 0.153130 0.595730 0.999857
Si Si4 0.414457 0.433760 0.579565
Si Si5 0.765340 0.886242 0.657140
O O1 0.744514 0.644531 0.750000
O O2 0.657030 0.683584 0.612957
O O3 0.799958 0.622332 0.586776
O O4 0.772568 0.779194 0.651236
O O5 0.897808 0.320701 0.970735
O O6 0.000000 0.208491 0.906909
O O7 0.912936 0.161717 0.032644
O O8 0.216598 0.585909 0.075069
O O9 0.112602 0.500000 0.000000
O O10 0.399605 0.500000 0.500000
O O11 0.500000 0.452207 0.613241
O O12 0.347306 0.433497 0.648266
O O13 0.728961 0.906004 0.750000
#
# Coordination Sequence:
#
# PCOD9470796 Si02
#       5
#    16  16  16  16  16
#     4  10  20  36  58  83 111 147 191 237 287 337
#     4  10  20  37  58  82 114 149 190 235 283 339
#     4  11  21  37  57  83 119 153 191 238 284 335
#     4  10  19  33  54  79 111 147 181 230 288 338
#     4  10  19  34  56  81 109 146 189 237 289 334
#
# _framework density 19.774545
#
# number of rings (size 3 to 8) (size 9 to 14) (size 15 to 20)
#    0.000    1.800    4.000    1.800    0.000    2.000 
#    0.000    0.000    0.000    4.200    0.000    2.800 
#    0.000    0.000    0.000    0.000    0.000    0.000 
#
# Total GULP energy -223141.569910 kJ/mol
# GULP energy per Si atom -5578.539248 kJ/mol
# Density = 1.972954 g / cm^3
# Si number density = 19.774545 Si / 1000 Ang^3
#
#
#
# Elastic Constant Matrix: (Units=GPa)
#
#
# Indices 1 2 3 4 5 6 
#
# 1 64.8916 -13.4962 6.7440 0.0000 0.0000 0.0000
# 2 -13.4962 60.0419 -19.1276 0.0000 0.0000 0.0000
# 3 6.7440 -19.1276 72.6326 0.0000 0.0000 0.0000
# 4 0.0000 0.0000 0.0000 9.5986 0.0000 0.0000
# 5 0.0000 0.0000 0.0000 0.0000 8.3795 0.0000
# 6 0.0000 0.0000 0.0000 0.0000 0.0000 7.9521
#
#
#
# Elastic Compliance Matrix: (Units=1/GPa)
#
#
# Indices 1 2 3 4 5 6 
#
# 1 0.016190 0.003450 -0.000595 0.000000 0.000000 0.000000
# 2 0.003450 0.018915 0.004661 0.000000 0.000000 0.000000
# 3 -0.000595 0.004661 0.015051 0.000000 0.000000 0.000000
# 4 0.000000 0.000000 0.000000 0.104182 0.000000 0.000000
# 5 0.000000 0.000000 0.000000 0.000000 0.119338 0.000000
# 6 0.000000 0.000000 0.000000 0.000000 0.000000 0.125753
#
#
# Mechanical properties :
#
#
# Convention : Reuss Voigt Hill
#
# Bulk Modulus (GPa) = 15.34044 16.20072 15.77058
# Shear Modulus (GPa) = 12.31146 20.08245 16.19696
#
# Velocity S-wave (km/s) = 2.49789 3.19026 2.86506
# Velocity P-wave (km/s) = 4.01170 4.66699 4.35170
#
# Compressibility (1/GPa) = 0.06518717
#
# Stress axis : x y z
#
# Youngs Moduli (GPa) = 61.76813 52.86729 66.44253
#
# Poissons Ratio (x) = -0.18237 0.03952
# Poissons Ratio (y) = -0.21308 -0.30969
# Poissons Ratio (z) = 0.03674 -0.24641
#
# Static dielectric constant tensor:
#      x y z
#    x 1.707990 0.000000 0.000000 
#    y 0.000000 1.756890 0.000000 
#    z 0.000000 0.000000 1.682340 
# 
# From -- ./inp_files/33846.got.cif
#   From: 2010.05.17/outbox.cif.g08.bks.cpg/sg63_17_cif.got.tgz:33846.got - 2010.06.03 15:47:04.
