data_PCOD9470567
_publ_section_title
;
Structure prediction by ZEFSAII (Michael W. Deem and Ramdas Pophale) SiO2 
 PCOD9470567
Probable space group: C M C M
;
_chemical_formula_sum "Si O2"
_cell_formula_units_Z 96
_cell_length_a 11.820077
_cell_length_b 25.712901
_cell_length_c 17.939028
_cell_angle_alpha 90.000000
_cell_angle_beta 90.000000
_cell_angle_gamma 90.000000
_cell_volume 5452.181328
_symmetry_space_group_name_H-M "C M C M"
_symmetry_group_IT_number 63
_symmetry_cell_setting 'orthorhombic'
loop_
_space_group_symop_operation_xyz
x,y,z
-x,-y,1/2+z
x,-y,-z
-x,y,1/2-z
-x,-y,-z
x,y,1/2-z
-x,y,z
x,-y,1/2+z
1/2+x,1/2+y,z
1/2-x,1/2-y,1/2+z
1/2+x,1/2-y,-z
1/2-x,1/2+y,1/2-z
1/2-x,1/2-y,-z
1/2+x,1/2+y,1/2-z
1/2-x,1/2+y,z
1/2+x,1/2-y,1/2+z
loop_
_atom_site_type_symbol
_atom_site_label
_atom_site_fract_x
_atom_site_fract_y
_atom_site_fract_z
Si Si1 0.215520 0.804991 0.584865
Si Si2 0.633440 0.403315 0.661224
Si Si3 0.751321 0.889324 0.339496
Si Si4 0.500000 0.869373 0.160822
Si Si5 0.500000 0.253207 0.838211
Si Si6 0.635201 0.487826 0.084072
Si Si7 0.364308 0.707697 0.916154
O O1 0.213623 0.862340 0.619533
O O2 0.110933 0.776998 0.625601
O O3 0.321713 0.766803 0.597296
O O4 0.184534 0.807001 0.497702
O O5 0.643979 0.398212 0.750000
O O6 0.500000 0.392698 0.641909
O O7 0.658024 0.461703 0.634728
O O8 0.756103 0.895672 0.250000
O O9 0.620390 0.890229 0.365657
O O10 0.813907 0.936069 0.380775
O O11 0.808219 0.834087 0.360509
O O12 0.500000 0.876741 0.250000
O O13 0.500000 0.807926 0.147295
O O14 0.500000 0.262976 0.750000
O O15 0.500000 0.480766 0.080948
O O16 0.674565 0.500000 0.000000
O O17 0.500000 0.704084 0.915214
#
# Coordination Sequence:
#
# PCOD9470567 Si02
#       7
#    16  16  16   8   8  16  16
#     4  11  21  35  56  82 116 149 187 231 278 335
#     4  10  19  32  54  81 106 140 188 233 270 318
#     4  11  22  38  60  84 113 149 191 238 285 337
#     4   9  20  36  57  85 111 143 192 243 283 324
#     4  11  18  34  60  85 109 147 197 237 274 320
#     4  10  21  37  57  82 114 147 181 227 286 342
#     4  11  23  36  54  83 118 153 183 227 288 341
#
# _framework density 17.607631999999999
#
# number of rings (size 3 to 8) (size 9 to 14) (size 15 to 20)
#    0.000    1.500    3.333    2.500    0.000    4.000 
#    0.000    0.417    1.833    0.000    0.000    0.000 
#    0.000    0.000    0.000    0.000    0.000    0.000 
#
# Total GULP energy -267930.845384 kJ/mol
# GULP energy per Si atom -5581.892612 kJ/mol
# Density = 1.756756 g / cm^3
# Si number density = 17.607632 Si / 1000 Ang^3
#
#
#
# Elastic Constant Matrix: (Units=GPa)
#
#
# Indices 1 2 3 4 5 6 
#
# 1 79.1017 35.6863 14.3673 0.0000 0.0000 0.0000
# 2 35.6863 74.4075 10.0067 0.0000 0.0000 0.0000
# 3 14.3673 10.0067 63.7040 0.0000 0.0000 0.0000
# 4 0.0000 0.0000 0.0000 33.4462 0.0000 0.0000
# 5 0.0000 0.0000 0.0000 0.0000 17.9502 0.0000
# 6 0.0000 0.0000 0.0000 0.0000 0.0000 28.3329
#
#
#
# Elastic Compliance Matrix: (Units=1/GPa)
#
#
# Indices 1 2 3 4 5 6 
#
# 1 0.016524 -0.007584 -0.002535 0.000000 0.000000 0.000000
# 2 -0.007584 0.017210 -0.000993 0.000000 0.000000 0.000000
# 3 -0.002535 -0.000993 0.016425 0.000000 0.000000 0.000000
# 4 0.000000 0.000000 0.000000 0.029899 0.000000 0.000000
# 5 0.000000 0.000000 0.000000 0.000000 0.055710 0.000000
# 6 0.000000 0.000000 0.000000 0.000000 0.000000 0.035295
#
#
# Mechanical properties :
#
#
# Convention : Reuss Voigt Hill
#
# Bulk Modulus (GPa) = 35.79743 37.48153 36.63948
# Shear Modulus (GPa) = 24.67927 26.42272 25.55100
#
# Velocity S-wave (km/s) = 3.74789 3.87801 3.81351
# Velocity P-wave (km/s) = 6.25329 6.43314 6.34385
#
# Compressibility (1/GPa) = 0.02793497
#
# Stress axis : x y z
#
# Youngs Moduli (GPa) = 60.51818 58.10440 60.88132
#
# Poissons Ratio (x) = 0.44067 0.15436
# Poissons Ratio (y) = 0.45897 0.06045
# Poissons Ratio (z) = 0.15344 0.05770
#
# Static dielectric constant tensor:
#      x y z
#    x 1.545430 0.000000 0.000000 
#    y 0.000000 1.595590 0.000000 
#    z 0.000000 0.000000 1.632960 
# 
# From -- ./inp_files/42540.got.cif
#   From: 2010.05.17/outbox.cif.g08.bks.cpg/sg63_22_cif.got.tgz:42540.got - 2010.06.03 15:47:04.
