data_PCOD9470358
_publ_section_title
;
Structure prediction by ZEFSAII (Michael W. Deem and Ramdas Pophale) SiO2 
 PCOD9470358
Probable space group: C M C M
;
_chemical_formula_sum "Si O2"
_cell_formula_units_Z 80
_cell_length_a 7.782805
_cell_length_b 18.812809
_cell_length_c 27.596246
_cell_angle_alpha 90.000000
_cell_angle_beta 90.000000
_cell_angle_gamma 90.000000
_cell_volume 4040.543654
_symmetry_space_group_name_H-M "C M C M"
_symmetry_group_IT_number 63
_symmetry_cell_setting 'orthorhombic'
loop_
_space_group_symop_operation_xyz
x,y,z
-x,-y,1/2+z
x,-y,-z
-x,y,1/2-z
-x,-y,-z
x,y,1/2-z
-x,y,z
x,-y,1/2+z
1/2+x,1/2+y,z
1/2-x,1/2-y,1/2+z
1/2+x,1/2-y,-z
1/2-x,1/2+y,1/2-z
1/2-x,1/2-y,-z
1/2+x,1/2+y,1/2-z
1/2-x,1/2+y,z
1/2+x,1/2-y,1/2+z
loop_
_atom_site_type_symbol
_atom_site_label
_atom_site_fract_x
_atom_site_fract_y
_atom_site_fract_z
Si Si1 0.796382 0.324465 0.155040
Si Si2 0.204406 0.087478 0.750000
Si Si3 0.288899 0.338904 0.655772
Si Si4 0.203630 0.180778 0.948914
Si Si5 0.289390 0.573827 0.250000
Si Si6 0.802648 0.155617 0.050911
O O1 0.756310 0.370699 0.201772
O O2 0.732767 0.243175 0.161780
O O3 0.727366 0.353219 0.103729
O O4 0.000000 0.320411 0.149883
O O5 0.000000 0.083192 0.750000
O O6 0.271633 0.007104 0.750000
O O7 0.500000 0.338981 0.654681
O O8 0.234928 0.385169 0.701484
O O9 0.227512 0.366144 0.602943
O O10 0.294353 0.257852 0.946809
O O11 0.000000 0.193746 0.955766
O O12 0.268294 0.140300 0.997125
O O13 0.500000 0.574362 0.250000
O O14 0.000000 0.131215 0.050932
#
# Coordination Sequence:
#
# PCOD9470358 Si02
#       6
#    16   8  16  16   8  16
#     4  10  19  32  51  71  93 124 158 191 229 279
#     4  11  22  33  47  69  94 119 150 192 240 283
#     4   8  14  27  48  72  93 119 158 193 223 267
#     4   9  15  24  41  68  99 124 151 192 235 273
#     4   9  17  29  47  69  92 117 150 196 238 271
#     4   8  14  24  41  67  98 128 155 187 231 280
#
# _framework density 19.799316000000001
#
# number of rings (size 3 to 8) (size 9 to 14) (size 15 to 20)
#    0.000    3.000    0.000    3.300    0.000    2.400 
#    0.000    0.000    0.000   15.600    0.000    8.400 
#    0.000    0.000    0.000    0.000    0.000    0.000 
#
# Total GULP energy -222742.250427 kJ/mol
# GULP energy per Si atom -5568.556261 kJ/mol
# Density = 1.975425 g / cm^3
# Si number density = 19.799316 Si / 1000 Ang^3
#
#
#
# Elastic Constant Matrix: (Units=GPa)
#
#
# Indices 1 2 3 4 5 6 
#
# 1 39.5326 2.9402 5.1310 0.0000 0.0000 0.0000
# 2 2.9402 57.9792 74.2134 0.0000 0.0000 0.0000
# 3 5.1310 74.2134 256.2826 0.0000 0.0000 0.0000
# 4 0.0000 0.0000 0.0000 -5.0720 0.0000 0.0000
# 5 0.0000 0.0000 0.0000 0.0000 20.9162 0.0000
# 6 0.0000 0.0000 0.0000 0.0000 0.0000 9.2003
#
#
#
# Elastic Compliance Matrix: (Units=1/GPa)
#
#
# Indices 1 2 3 4 5 6 
#
# 1 0.025399 -0.001012 -0.000215 0.000000 0.000000 0.000000
# 2 -0.001012 0.027446 -0.007927 0.000000 0.000000 0.000000
# 3 -0.000215 -0.007927 0.006202 0.000000 0.000000 0.000000
# 4 0.000000 0.000000 0.000000 -0.197161 0.000000 0.000000
# 5 0.000000 0.000000 0.000000 0.000000 0.047810 0.000000
# 6 0.000000 0.000000 0.000000 0.000000 0.000000 0.108692
#
#
# Mechanical properties :
#
#
# Convention : Reuss Voigt Hill
#
# Bulk Modulus (GPa) = 24.54809 57.59597 41.07203
# Shear Modulus (GPa) = 99.44960 23.10957 61.27958
#
# Velocity S-wave (km/s) = 7.09492 3.42012 5.56934
# Velocity P-wave (km/s) = 8.91866 6.68950 7.88327
#
# Compressibility (1/GPa) = 0.04073636
#
# Stress axis : x y z
#
# Youngs Moduli (GPa) = 39.37193 36.43514 161.24200
#
# Poissons Ratio (x) = 0.03689 0.03472
# Poissons Ratio (y) = 0.03986 1.27824
# Poissons Ratio (z) = 0.00848 0.28884
#
# Static dielectric constant tensor:
#      x y z
#    x 1.734210 0.000000 0.000000 
#    y 0.000000 1.651130 0.000000 
#    z 0.000000 0.000000 1.721420 
# 
# From -- ./inp_files/71612.got.cif
#   From: 2010.05.17/outbox.cif.g08.bks.cpg/sg63_36_cif.got.tgz:71612.got - 2010.06.03 15:47:04.
