data_PCOD9470014
_publ_section_title
;
Structure prediction by ZEFSAII (Michael W. Deem and Ramdas Pophale) SiO2 
 PCOD9470014
Probable space group: C M C M
;
_chemical_formula_sum "Si O2"
_cell_formula_units_Z 112
_cell_length_a 14.595186
_cell_length_b 13.943950
_cell_length_c 31.313032
_cell_angle_alpha 90.000000
_cell_angle_beta 90.000000
_cell_angle_gamma 90.000000
_cell_volume 6372.657423
_symmetry_space_group_name_H-M "C M C M"
_symmetry_group_IT_number 63
_symmetry_cell_setting 'orthorhombic'
loop_
_space_group_symop_operation_xyz
x,y,z
-x,-y,1/2+z
x,-y,-z
-x,y,1/2-z
-x,-y,-z
x,y,1/2-z
-x,y,z
x,-y,1/2+z
1/2+x,1/2+y,z
1/2-x,1/2-y,1/2+z
1/2+x,1/2-y,-z
1/2-x,1/2+y,1/2-z
1/2-x,1/2-y,-z
1/2+x,1/2+y,1/2-z
1/2-x,1/2+y,z
1/2+x,1/2-y,1/2+z
loop_
_atom_site_type_symbol
_atom_site_label
_atom_site_fract_x
_atom_site_fract_y
_atom_site_fract_z
Si Si1 0.608910 0.508685 0.670753
Si Si2 0.312201 0.557096 0.081903
Si Si3 0.243296 0.142748 0.946286
Si Si4 0.891839 0.787244 0.518692
Si Si5 0.109618 0.800852 0.701525
Si Si6 0.890155 0.215179 0.798007
Si Si7 0.260156 0.771204 0.634096
O O1 0.500000 0.514904 0.673457
O O2 0.634199 0.491062 0.621430
O O3 0.634391 0.413706 0.697018
O O4 0.643571 0.607409 0.690779
O O5 0.261961 0.472316 0.056337
O O6 0.374401 0.624404 0.051686
O O7 0.247555 0.634053 0.105282
O O8 0.335190 0.194186 0.964398
O O9 0.230856 0.184581 0.898888
O O10 0.159700 0.180044 0.975615
O O11 0.000000 0.770523 0.513945
O O12 0.128631 0.768244 0.750000
O O13 0.170205 0.756133 0.663780
O O14 0.000000 0.790915 0.694034
O O15 0.863171 0.240677 0.750000
O O16 0.843640 0.279825 0.833465
O O17 0.000000 0.217884 0.800550
#
# Coordination Sequence:
#
# PCOD9470014 Si02
#       7
#    16  16  16  16  16  16  16
#     4   9  16  27  48  77 105 133 171 222 277 324
#     4  10  19  34  56  81 111 140 181 226 277 332
#     4  10  21  37  55  83 117 142 179 235 279 334
#     4  10  22  38  60  86 112 147 185 227 284 340
#     4   9  17  30  50  78 108 135 172 224 278 331
#     4  10  19  31  48  71 104 144 184 224 266 317
#     4  10  20  33  52  76 107 145 181 219 272 326
#
# _framework density 17.575085000000001
#
# number of rings (size 3 to 8) (size 9 to 14) (size 15 to 20)
#    0.000    2.286    1.429    1.714    0.000    7.429 
#    0.000    0.714    0.000   11.143    0.000    2.000 
#    0.000    0.000    0.000    0.000    0.000    0.000 
#
# Total GULP energy -311948.217800 kJ/mol
# GULP energy per Si atom -5570.503889 kJ/mol
# Density = 1.753508 g / cm^3
# Si number density = 17.575085 Si / 1000 Ang^3
#
#
#
# Elastic Constant Matrix: (Units=GPa)
#
#
# Indices 1 2 3 4 5 6 
#
# 1 84.0530 22.0189 43.6605 0.0000 0.0000 0.0000
# 2 22.0189 28.6968 8.9024 0.0000 0.0000 0.0000
# 3 43.6605 8.9024 99.0134 0.0000 0.0000 0.0000
# 4 0.0000 0.0000 0.0000 18.1823 0.0000 0.0000
# 5 0.0000 0.0000 0.0000 0.0000 22.5583 0.0000
# 6 0.0000 0.0000 0.0000 0.0000 0.0000 13.5361
#
#
#
# Elastic Compliance Matrix: (Units=1/GPa)
#
#
# Indices 1 2 3 4 5 6 
#
# 1 0.018845 -0.012222 -0.007211 0.000000 0.000000 0.000000
# 2 -0.012222 0.043774 0.001454 0.000000 0.000000 0.000000
# 3 -0.007211 0.001454 0.013149 0.000000 0.000000 0.000000
# 4 0.000000 0.000000 0.000000 0.054998 0.000000 0.000000
# 5 0.000000 0.000000 0.000000 0.000000 0.044330 0.000000
# 6 0.000000 0.000000 0.000000 0.000000 0.000000 0.073876
#
#
# Mechanical properties :
#
#
# Convention : Reuss Voigt Hill
#
# Bulk Modulus (GPa) = 25.12012 40.10297 32.61155
# Shear Modulus (GPa) = 16.76725 20.00077 18.38401
#
# Velocity S-wave (km/s) = 3.09210 3.37711 3.23774
# Velocity P-wave (km/s) = 5.20309 6.17042 5.70729
#
# Compressibility (1/GPa) = 0.03980873
#
# Stress axis : x y z
#
# Youngs Moduli (GPa) = 53.06551 22.84442 76.05412
#
# Poissons Ratio (x) = 0.27922 0.54840
# Poissons Ratio (y) = 0.64859 -0.11057
# Poissons Ratio (z) = 0.38264 -0.03321
#
# Static dielectric constant tensor:
#      x y z
#    x 1.589350 0.000000 0.000000 
#    y 0.000000 1.628480 0.000000 
#    z 0.000000 0.000000 1.622570 
# 
# From -- ./inp_files/73522.got.cif
#   From: 2010.05.17/outbox.cif.g08.bks.cpg/sg63_37_cif.got.tgz:73522.got - 2010.06.03 15:47:04.
