data_PCOD9470565
_publ_section_title
;
Structure prediction by ZEFSAII (Michael W. Deem and Ramdas Pophale) SiO2 
 PCOD9470565
Probable space group: C M C M
;
_chemical_formula_sum "Si O2"
_cell_formula_units_Z 116
_cell_length_a 26.949567
_cell_length_b 13.406834
_cell_length_c 14.522231
_cell_angle_alpha 90.000000
_cell_angle_beta 90.000000
_cell_angle_gamma 90.000000
_cell_volume 5247.003628
_symmetry_space_group_name_H-M "C M C M"
_symmetry_group_IT_number 63
_symmetry_cell_setting 'orthorhombic'
loop_
_space_group_symop_operation_xyz
x,y,z
-x,-y,1/2+z
x,-y,-z
-x,y,1/2-z
-x,-y,-z
x,y,1/2-z
-x,y,z
x,-y,1/2+z
1/2+x,1/2+y,z
1/2-x,1/2-y,1/2+z
1/2+x,1/2-y,-z
1/2-x,1/2+y,1/2-z
1/2-x,1/2-y,-z
1/2+x,1/2+y,1/2-z
1/2-x,1/2+y,z
1/2+x,1/2-y,1/2+z
loop_
_atom_site_type_symbol
_atom_site_label
_atom_site_fract_x
_atom_site_fract_y
_atom_site_fract_z
Si Si1 0.789383 0.067167 0.637104
Si Si2 0.315505 0.852205 0.361371
Si Si3 0.656808 0.366739 0.862391
Si Si4 0.944120 0.965299 0.637389
Si Si5 0.110399 0.166772 0.639373
Si Si6 0.054361 0.364825 0.598908
Si Si7 0.425586 0.914314 0.389177
Si Si8 0.000000 0.327073 0.250000
O O1 0.788311 0.068581 0.750000
O O2 0.735216 0.098772 0.604278
O O3 0.834124 0.139890 0.607502
O O4 0.807451 0.957173 0.610014
O O5 0.312741 0.850638 0.250000
O O6 0.323016 0.738930 0.393588
O O7 0.366472 0.906529 0.385553
O O8 0.655724 0.365999 0.750000
O O9 0.600517 0.392274 0.892232
O O10 0.945141 0.961480 0.750000
O O11 0.926535 0.076912 0.609919
O O12 0.000000 0.942056 0.606249
O O13 0.111052 0.159596 0.750000
O O14 0.092932 0.277236 0.616401
O O15 0.061301 0.473723 0.643666
O O16 0.057418 0.392591 0.492053
O O17 0.000000 0.326198 0.624846
O O18 0.455980 0.836657 0.328145
#
# Coordination Sequence:
#
# PCOD9470565 Si02
#       8
#    16  16  16  16  16  16  16   4
#     4   8  16  32  51  78 115 144 183 242 278 318
#     4  10  19  32  54  81 104 144 194 232 276 334
#     4   8  15  28  45  71 107 139 174 225 277 314
#     4   8  13  25  41  69 101 132 172 221 264 317
#     4   9  18  30  54  81 106 142 188 226 276 338
#     4  11  22  38  54  80 117 149 176 231 296 333
#     4  11  23  38  55  79 113 148 184 234 280 332
#     4  12  20  42  60  76 110 152 196 234 260 340
#
# _framework density 22.107856999999999
#
# number of rings (size 3 to 8) (size 9 to 14) (size 15 to 20)
#    0.000    2.621    2.069    2.483    0.966    1.931 
#    1.241    3.448    0.000    3.310    0.000    4.828 
#    0.000    0.000    0.000    0.000    0.000    0.000 
#
# Total GULP energy -323485.397043 kJ/mol
# GULP energy per Si atom -5577.334432 kJ/mol
# Density = 2.205754 g / cm^3
# Si number density = 22.107857 Si / 1000 Ang^3
#
#
#
# Elastic Constant Matrix: (Units=GPa)
#
#
# Indices 1 2 3 4 5 6 
#
# 1 207.1635 57.7419 4.5890 0.0000 0.0000 0.0000
# 2 57.7419 67.3317 -2.5518 0.0000 0.0000 0.0000
# 3 4.5890 -2.5518 45.8409 0.0000 0.0000 0.0000
# 4 0.0000 0.0000 0.0000 8.7688 0.0000 0.0000
# 5 0.0000 0.0000 0.0000 0.0000 -18.1504 0.0000
# 6 0.0000 0.0000 0.0000 0.0000 0.0000 -62.7177
#
#
#
# Elastic Compliance Matrix: (Units=1/GPa)
#
#
# Indices 1 2 3 4 5 6 
#
# 1 0.006384 -0.005511 -0.000946 0.000000 0.000000 0.000000
# 2 -0.005511 0.019640 0.001645 0.000000 0.000000 0.000000
# 3 -0.000946 0.001645 0.022001 0.000000 0.000000 0.000000
# 4 0.000000 0.000000 0.000000 0.114040 0.000000 0.000000
# 5 0.000000 0.000000 0.000000 0.000000 -0.055095 0.000000
# 6 0.000000 0.000000 0.000000 0.000000 0.000000 -0.015944
#
#
# Mechanical properties :
#
#
# Convention : Reuss Voigt Hill
#
# Bulk Modulus (GPa) = 26.04048 48.87714 37.45881
# Shear Modulus (GPa) = 44.07267 2.95062 23.51164
#
# Velocity S-wave (km/s) = 4.46974 1.15652 3.26467
# Velocity P-wave (km/s) = 6.20020 4.89284 5.58491
#
# Compressibility (1/GPa) = 0.03840175
#
# Stress axis : x y z
#
# Youngs Moduli (GPa) = 156.64150 50.91667 45.45285
#
# Poissons Ratio (x) = 0.28058 0.04299
# Poissons Ratio (y) = 0.86319 -0.07477
# Poissons Ratio (z) = 0.14816 -0.08375
#
# Static dielectric constant tensor:
#      x y z
#    x 1.790040 0.000000 0.000000 
#    y 0.000000 1.820590 0.000000 
#    z 0.000000 0.000000 1.847650 
# 
# From -- ./inp_files/48264.got.cif
#   From: 2010.05.17/outbox.cif.g08.bks.cpg/sg63_25_cif.got.tgz:48264.got - 2010.06.03 15:47:04.
