data_PCOD9470348
_publ_section_title
;
Structure prediction by ZEFSAII (Michael W. Deem and Ramdas Pophale) SiO2 
 PCOD9470348
Probable space group: C M C M
;
_chemical_formula_sum "Si O2"
_cell_formula_units_Z 116
_cell_length_a 27.297611
_cell_length_b 27.449564
_cell_length_c 7.893786
_cell_angle_alpha 90.000000
_cell_angle_beta 90.000000
_cell_angle_gamma 90.000000
_cell_volume 5914.873213
_symmetry_space_group_name_H-M "C M C M"
_symmetry_group_IT_number 63
_symmetry_cell_setting 'orthorhombic'
loop_
_space_group_symop_operation_xyz
x,y,z
-x,-y,1/2+z
x,-y,-z
-x,y,1/2-z
-x,-y,-z
x,y,1/2-z
-x,y,z
x,-y,1/2+z
1/2+x,1/2+y,z
1/2-x,1/2-y,1/2+z
1/2+x,1/2-y,-z
1/2-x,1/2+y,1/2-z
1/2-x,1/2-y,-z
1/2+x,1/2+y,1/2-z
1/2-x,1/2+y,z
1/2+x,1/2-y,1/2+z
loop_
_atom_site_type_symbol
_atom_site_label
_atom_site_fract_x
_atom_site_fract_y
_atom_site_fract_z
Si Si1 0.710705 0.947380 0.548669
Si Si2 0.073830 0.066149 0.561974
Si Si3 0.867500 0.251616 0.551033
Si Si4 0.944048 0.826858 0.553339
Si Si5 0.179670 0.927088 0.949153
Si Si6 0.711782 0.322398 0.455768
Si Si7 0.500000 0.458424 0.750000
Si Si8 0.179500 0.655857 0.949834
O O1 0.714056 0.943053 0.750000
O O2 0.767098 0.943796 0.482148
O O3 0.679477 0.901606 0.485370
O O4 0.690821 0.000000 0.500000
O O5 0.055890 0.051182 0.750000
O O6 0.070397 0.125215 0.550670
O O7 0.131271 0.054337 0.541270
O O8 0.042372 0.047155 0.403523
O O9 0.872089 0.243159 0.750000
O O10 0.910357 0.220155 0.468986
O O11 0.816784 0.226033 0.492969
O O12 0.862253 0.308878 0.519868
O O13 0.942231 0.842283 0.750000
O O14 0.000000 0.814661 0.510869
O O15 0.175960 0.938533 0.750000
O O16 0.182539 0.868626 0.972422
O O17 0.712224 0.326044 0.250000
O O18 0.767334 0.326845 0.518749
O O19 0.179566 0.663082 0.750000
#
# Coordination Sequence:
#
# PCOD9470348 Si02
#       8
#    16  16  16  16  16  16   4  16
#     4  10  21  37  58  80 107 135 169 217 269 323
#     4  12  21  33  52  73 104 139 179 226 272 318
#     4  11  21  31  47  72 103 141 184 217 261 314
#     4  11  21  35  49  70 103 141 187 230 267 311
#     4  10  19  32  50  76 106 135 172 220 266 320
#     4   9  18  30  46  69  99 139 179 211 255 311
#     4  12  22  36  48  74 106 136 180 232 268 322
#     4  10  20  34  50  72 103 139 176 216 262 317
#
# _framework density 19.611577
#
# number of rings (size 3 to 8) (size 9 to 14) (size 15 to 20)
#    0.000    1.517    3.448    2.690    0.000    3.586 
#    0.000    0.000    0.000    0.000    0.000    0.483 
#    0.000    0.552    0.000    2.069    0.000    3.172 
#
# Total GULP energy -323694.374638 kJ/mol
# GULP energy per Si atom -5580.937494 kJ/mol
# Density = 1.956694 g / cm^3
# Si number density = 19.611577 Si / 1000 Ang^3
#
#
#
# Elastic Constant Matrix: (Units=GPa)
#
#
# Indices 1 2 3 4 5 6 
#
# 1 46.2052 38.1636 18.1868 0.0000 0.0000 0.0000
# 2 38.1636 112.9266 9.4231 0.0000 0.0000 0.0000
# 3 18.1868 9.4231 83.2841 0.0000 0.0000 0.0000
# 4 0.0000 0.0000 0.0000 27.6529 0.0000 0.0000
# 5 0.0000 0.0000 0.0000 0.0000 17.6065 0.0000
# 6 0.0000 0.0000 0.0000 0.0000 0.0000 -35.5860
#
#
#
# Elastic Compliance Matrix: (Units=1/GPa)
#
#
# Indices 1 2 3 4 5 6 
#
# 1 0.032702 -0.010555 -0.005947 0.000000 0.000000 0.000000
# 2 -0.010555 0.012347 0.000908 0.000000 0.000000 0.000000
# 3 -0.005947 0.000908 0.013203 0.000000 0.000000 0.000000
# 4 0.000000 0.000000 0.000000 0.036163 0.000000 0.000000
# 5 0.000000 0.000000 0.000000 0.000000 0.056797 0.000000
# 6 0.000000 0.000000 0.000000 0.000000 0.000000 -0.028101
#
#
# Mechanical properties :
#
#
# Convention : Reuss Voigt Hill
#
# Bulk Modulus (GPa) = 36.95068 41.55142 39.25105
# Shear Modulus (GPa) = 30.61487 13.71082 22.16285
#
# Velocity S-wave (km/s) = 3.95531 2.64695 3.36533
# Velocity P-wave (km/s) = 6.30409 5.52947 5.92944
#
# Compressibility (1/GPa) = 0.02706310
#
# Stress axis : x y z
#
# Youngs Moduli (GPa) = 30.57962 80.99336 75.74058
#
# Poissons Ratio (x) = 0.85491 0.45041
# Poissons Ratio (y) = 0.32278 -0.06877
# Poissons Ratio (z) = 0.18185 -0.07354
#
# Static dielectric constant tensor:
#      x y z
#    x 1.686010 0.000000 0.000000 
#    y 0.000000 1.733230 0.000000 
#    z 0.000000 0.000000 1.701230 
# 
# From -- ./inp_files/14732.got.cif
#   From: 2010.05.17/outbox.cif.g08.bks.cpg/sg63_8_cif.got.tgz:14732.got - 2010.06.03 15:47:04.
