data_PCOD9470404
_publ_section_title
;
Structure prediction by ZEFSAII (Michael W. Deem and Ramdas Pophale) SiO2 
 PCOD9470404
Probable space group: C M C M
;
_chemical_formula_sum "Si O2"
_cell_formula_units_Z 80
_cell_length_a 8.888843
_cell_length_b 25.995453
_cell_length_c 20.348563
_cell_angle_alpha 90.000000
_cell_angle_beta 90.000000
_cell_angle_gamma 90.000000
_cell_volume 4701.932287
_symmetry_space_group_name_H-M "C M C M"
_symmetry_group_IT_number 63
_symmetry_cell_setting 'orthorhombic'
loop_
_space_group_symop_operation_xyz
x,y,z
-x,-y,1/2+z
x,-y,-z
-x,y,1/2-z
-x,-y,-z
x,y,1/2-z
-x,y,z
x,-y,1/2+z
1/2+x,1/2+y,z
1/2-x,1/2-y,1/2+z
1/2+x,1/2-y,-z
1/2-x,1/2+y,1/2-z
1/2-x,1/2-y,-z
1/2+x,1/2+y,1/2-z
1/2-x,1/2+y,z
1/2+x,1/2-y,1/2+z
loop_
_atom_site_type_symbol
_atom_site_label
_atom_site_fract_x
_atom_site_fract_y
_atom_site_fract_z
Si Si1 0.181196 0.619439 0.048899
Si Si2 0.822046 0.096617 0.593794
Si Si3 0.819580 0.772485 0.567130
Si Si4 0.673233 0.007792 0.079287
Si Si5 0.679735 0.813877 0.174214
O O1 0.251042 0.671122 0.077688
O O2 0.221602 0.566946 0.087608
O O3 0.000000 0.622373 0.046196
O O4 0.242461 0.613327 0.974543
O O5 0.772518 0.037977 0.607781
O O6 0.765209 0.135874 0.648680
O O7 0.000000 0.099761 0.585223
O O8 0.750000 0.750000 0.500000
O O9 0.783223 0.733446 0.626118
O O10 0.000000 0.775586 0.560445
O O11 0.500000 0.001701 0.100715
O O12 0.674870 0.000000 0.000000
O O13 0.714018 0.802670 0.250000
O O14 0.500000 0.822964 0.168320
#
# Coordination Sequence:
#
# PCOD9470404 Si02
#       5
#    16  16  16  16  16
#     4  10  19  32  51  76 107 141 176 216 263 316
#     4  11  20  30  50  78 107 136 171 220 270 315
#     4  11  21  33  54  80 107 139 178 225 274 320
#     4   8  16  30  48  71 102 138 171 207 255 310
#     4  10  22  39  56  74 103 145 184 217 264 329
#
# _framework density 17.014281
#
# number of rings (size 3 to 8) (size 9 to 14) (size 15 to 20)
#    0.000    2.000    2.000    4.200    0.000    5.600 
#    0.000    0.000    0.000    1.200    0.000    5.600 
#    0.000    0.000    0.000    0.000    0.000    0.000 
#
# Total GULP energy -223166.265114 kJ/mol
# GULP energy per Si atom -5579.156628 kJ/mol
# Density = 1.697556 g / cm^3
# Si number density = 17.014281 Si / 1000 Ang^3
#
#
#
# Elastic Constant Matrix: (Units=GPa)
#
#
# Indices 1 2 3 4 5 6 
#
# 1 70.7665 70.4903 45.5425 0.0000 0.0000 0.0000
# 2 70.4903 172.6793 57.7319 0.0000 0.0000 0.0000
# 3 45.5425 57.7319 75.0130 0.0000 0.0000 0.0000
# 4 0.0000 0.0000 0.0000 17.7645 0.0000 0.0000
# 5 0.0000 0.0000 0.0000 0.0000 13.4460 0.0000
# 6 0.0000 0.0000 0.0000 0.0000 0.0000 32.7932
#
#
#
# Elastic Compliance Matrix: (Units=1/GPa)
#
#
# Indices 1 2 3 4 5 6 
#
# 1 0.030009 -0.008293 -0.011837 0.000000 0.000000 0.000000
# 2 -0.008293 0.010089 -0.002730 0.000000 0.000000 0.000000
# 3 -0.011837 -0.002730 0.022619 0.000000 0.000000 0.000000
# 4 0.000000 0.000000 0.000000 0.056292 0.000000 0.000000
# 5 0.000000 0.000000 0.000000 0.000000 0.074371 0.000000
# 6 0.000000 0.000000 0.000000 0.000000 0.000000 0.030494
#
#
# Mechanical properties :
#
#
# Convention : Reuss Voigt Hill
#
# Bulk Modulus (GPa) = 58.83309 73.99870 66.41590
# Shear Modulus (GPa) = 18.16462 22.44700 20.30581
#
# Velocity S-wave (km/s) = 3.27098 3.63616 3.45839
# Velocity P-wave (km/s) = 6.99424 7.82403 7.42074
#
# Compressibility (1/GPa) = 0.01699724
#
# Stress axis : x y z
#
# Youngs Moduli (GPa) = 33.32304 99.11758 44.21098
#
# Poissons Ratio (x) = 0.82195 0.52333
# Poissons Ratio (y) = 0.27634 0.12070
# Poissons Ratio (z) = 0.39445 0.27059
#
# Static dielectric constant tensor:
#      x y z
#    x 1.567250 0.000000 0.000000 
#    y 0.000000 1.605320 0.000000 
#    z 0.000000 0.000000 1.549360 
# 
# From -- ./inp_files/40726.got.cif
#   From: 2010.05.17/outbox.cif.g08.bks.cpg/sg63_21_cif.got.tgz:40726.got - 2010.06.03 15:47:04.
