data_PCOD9470452
_publ_section_title
;
Structure prediction by ZEFSAII (Michael W. Deem and Ramdas Pophale) SiO2 
 PCOD9470452
Probable space group: C M C M
;
_chemical_formula_sum "Si O2"
_cell_formula_units_Z 80
_cell_length_a 32.437537
_cell_length_b 14.777883
_cell_length_c 9.384980
_cell_angle_alpha 90.000000
_cell_angle_beta 90.000000
_cell_angle_gamma 90.000000
_cell_volume 4498.766431
_symmetry_space_group_name_H-M "C M C M"
_symmetry_group_IT_number 63
_symmetry_cell_setting 'orthorhombic'
loop_
_space_group_symop_operation_xyz
x,y,z
-x,-y,1/2+z
x,-y,-z
-x,y,1/2-z
-x,-y,-z
x,y,1/2-z
-x,y,z
x,-y,1/2+z
1/2+x,1/2+y,z
1/2-x,1/2-y,1/2+z
1/2+x,1/2-y,-z
1/2-x,1/2+y,1/2-z
1/2-x,1/2-y,-z
1/2+x,1/2+y,1/2-z
1/2-x,1/2+y,z
1/2+x,1/2-y,1/2+z
loop_
_atom_site_type_symbol
_atom_site_label
_atom_site_fract_x
_atom_site_fract_y
_atom_site_fract_z
Si Si1 0.047038 0.407129 0.080604
Si Si2 0.227202 0.124833 0.905561
Si Si3 0.622619 0.223584 0.579386
Si Si4 0.200515 0.663515 0.089409
Si Si5 0.632366 0.587610 0.582698
O O1 0.048229 0.424030 0.250000
O O2 0.080782 0.331032 0.050424
O O3 0.000000 0.380414 0.043043
O O4 0.056684 0.500000 0.000000
O O5 0.244423 0.101494 0.750000
O O6 0.216549 0.232345 0.904625
O O7 0.182310 0.082180 0.921236
O O8 0.261110 0.108590 0.025489
O O9 0.627974 0.235263 0.750000
O O10 0.661151 0.168063 0.513618
O O11 0.621503 0.320152 0.499860
O O12 0.189581 0.636201 0.250000
O O13 0.615735 0.500000 0.500000
O O14 0.620731 0.591015 0.750000
#
# Coordination Sequence:
#
# PCOD9470452 Si02
#       5
#    16  16  16  16  16
#     4   9  19  36  58  83 107 131 161 200 250 308
#     4   8  15  27  42  62  90 126 167 209 252 293
#     4  10  19  32  52  76 104 136 168 208 257 307
#     4   9  16  26  43  67  94 126 166 210 251 293
#     4  10  20  33  50  73 102 137 178 219 255 297
#
# _framework density 17.782653
#
# number of rings (size 3 to 8) (size 9 to 14) (size 15 to 20)
#    0.000    2.800    0.000    3.000    0.000    7.200 
#    0.000    1.000    0.000    0.600    0.000    0.000 
#    0.000    0.000    0.000    0.000    0.000    0.000 
#
# Total GULP energy -222914.830632 kJ/mol
# GULP energy per Si atom -5572.870766 kJ/mol
# Density = 1.774218 g / cm^3
# Si number density = 17.782653 Si / 1000 Ang^3
#
#
#
# Elastic Constant Matrix: (Units=GPa)
#
#
# Indices 1 2 3 4 5 6 
#
# 1 72.7988 38.2679 63.8253 0.0000 0.0000 0.0000
# 2 38.2679 47.6018 53.4017 0.0000 0.0000 0.0000
# 3 63.8253 53.4017 127.5998 0.0000 0.0000 0.0000
# 4 0.0000 0.0000 0.0000 21.0005 0.0000 0.0000
# 5 0.0000 0.0000 0.0000 0.0000 21.9779 0.0000
# 6 0.0000 0.0000 0.0000 0.0000 0.0000 13.5195
#
#
#
# Elastic Compliance Matrix: (Units=1/GPa)
#
#
# Indices 1 2 3 4 5 6 
#
# 1 0.028102 -0.012860 -0.008674 0.000000 0.000000 0.000000
# 2 -0.012860 0.045485 -0.012603 0.000000 0.000000 0.000000
# 3 -0.008674 -0.012603 0.017450 0.000000 0.000000 0.000000
# 4 0.000000 0.000000 0.000000 0.047618 0.000000 0.000000
# 5 0.000000 0.000000 0.000000 0.000000 0.045500 0.000000
# 6 0.000000 0.000000 0.000000 0.000000 0.000000 0.073967
#
#
# Mechanical properties :
#
#
# Convention : Reuss Voigt Hill
#
# Bulk Modulus (GPa) = 43.93357 62.11000 53.02179
# Shear Modulus (GPa) = 14.97070 17.46661 16.21865
#
# Velocity S-wave (km/s) = 2.90465 3.13745 3.02329
# Velocity P-wave (km/s) = 6.00073 6.93743 6.48601
#
# Compressibility (1/GPa) = 0.02276164
#
# Stress axis : x y z
#
# Youngs Moduli (GPa) = 35.58484 21.98522 57.30510
#
# Poissons Ratio (x) = 0.28274 0.49708
# Poissons Ratio (y) = 0.45763 0.72223
# Poissons Ratio (z) = 0.30868 0.27708
#
# Static dielectric constant tensor:
#      x y z
#    x 1.587800 0.000000 0.000000 
#    y 0.000000 1.623140 0.000000 
#    z 0.000000 0.000000 1.630160 
# 
# From -- ./inp_files/14047.got.cif
#   From: 2010.05.17/outbox.cif.g08.bks.cpg/sg63_8_cif.got.tgz:14047.got - 2010.06.03 15:47:04.
