data_PCOD9470877
_publ_section_title
;
Structure prediction by ZEFSAII (Michael W. Deem and Ramdas Pophale) SiO2 
 PCOD9470877
Probable space group: C M C M
;
_chemical_formula_sum "Si O2"
_cell_formula_units_Z 68
_cell_length_a 15.573021
_cell_length_b 21.811315
_cell_length_c 9.879333
_cell_angle_alpha 90.000000
_cell_angle_beta 90.000000
_cell_angle_gamma 90.000000
_cell_volume 3355.693939
_symmetry_space_group_name_H-M "C M C M"
_symmetry_group_IT_number 63
_symmetry_cell_setting 'orthorhombic'
loop_
_space_group_symop_operation_xyz
x,y,z
-x,-y,1/2+z
x,-y,-z
-x,y,1/2-z
-x,-y,-z
x,y,1/2-z
-x,y,z
x,-y,1/2+z
1/2+x,1/2+y,z
1/2-x,1/2-y,1/2+z
1/2+x,1/2-y,-z
1/2-x,1/2+y,1/2-z
1/2-x,1/2-y,-z
1/2+x,1/2+y,1/2-z
1/2-x,1/2+y,z
1/2+x,1/2-y,1/2+z
loop_
_atom_site_type_symbol
_atom_site_label
_atom_site_fract_x
_atom_site_fract_y
_atom_site_fract_z
Si Si1 0.104364 0.771103 0.250000
Si Si2 0.100649 0.034151 0.750000
Si Si3 0.500000 0.065679 0.750000
Si Si4 0.895027 0.105264 0.250000
Si Si5 0.829803 0.868802 0.043997
Si Si6 0.601276 0.131998 0.250000
Si Si7 0.154234 0.568953 0.973794
O O1 0.139593 0.808141 0.379023
O O2 0.136092 0.701243 0.250000
O O3 0.000000 0.774249 0.250000
O O4 0.124105 0.074191 0.619156
O O5 0.000000 0.025975 0.750000
O O6 0.136444 0.965683 0.750000
O O7 0.576115 0.066089 0.868429
O O8 0.856885 0.133280 0.387611
O O9 0.000000 0.109380 0.250000
O O10 0.730394 0.885180 0.067954
O O11 0.500000 0.139452 0.250000
O O12 0.624661 0.094381 0.382080
O O13 0.187826 0.500000 0.000000
#
# Coordination Sequence:
#
# PCOD9470877 Si02
#       7
#     8   8   4   8  16   8  16
#     4  10  23  45  69  85 125 183 218 254 317 402
#     4  10  19  33  55  86 129 179 209 253 323 391
#     4  12  24  40  66  96 126 166 222 276 336 398
#     4  11  20  32  58  94 133 167 218 272 313 379
#     4  11  22  39  61  94 130 171 218 264 322 390
#     4  11  25  47  67  90 127 174 217 259 340 409
#     4  12  25  41  68  99 133 168 211 281 341 392
#
# _framework density 20.264064999999999
#
# number of rings (size 3 to 8) (size 9 to 14) (size 15 to 20)
#    0.000    0.941    1.176    8.118    1.647    2.824 
#    0.000    1.176    2.588    0.000    0.000    0.000 
#    0.000    0.000    0.000    0.000    0.000    0.000 
#
# Total GULP energy -189529.147199 kJ/mol
# GULP energy per Si atom -5574.386682 kJ/mol
# Density = 2.021794 g / cm^3
# Si number density = 20.264065 Si / 1000 Ang^3
#
#
#
# Elastic Constant Matrix: (Units=GPa)
#
#
# Indices 1 2 3 4 5 6 
#
# 1 80.0263 2.7520 17.8222 0.0000 0.0000 0.0000
# 2 2.7520 106.8313 53.2369 0.0000 0.0000 0.0000
# 3 17.8222 53.2369 167.9819 0.0000 0.0000 0.0000
# 4 0.0000 0.0000 0.0000 8.4867 0.0000 0.0000
# 5 0.0000 0.0000 0.0000 0.0000 56.9868 0.0000
# 6 0.0000 0.0000 0.0000 0.0000 0.0000 -346.8967
#
#
#
# Elastic Compliance Matrix: (Units=1/GPa)
#
#
# Indices 1 2 3 4 5 6 
#
# 1 0.012814 0.000413 -0.001490 0.000000 0.000000 0.000000
# 2 0.000413 0.011129 -0.003571 0.000000 0.000000 0.000000
# 3 -0.001490 -0.003571 0.007243 0.000000 0.000000 0.000000
# 4 0.000000 0.000000 0.000000 0.117831 0.000000 0.000000
# 5 0.000000 0.000000 0.000000 0.000000 0.017548 0.000000
# 6 0.000000 0.000000 0.000000 0.000000 0.000000 -0.002883
#
#
# Mechanical properties :
#
#
# Convention : Reuss Voigt Hill
#
# Bulk Modulus (GPa) = 45.68580 55.82908 50.75744
# Shear Modulus (GPa) = 27.73532 -37.54940 -4.90704
#
# Velocity S-wave (km/s) = 3.70360 -4.30932 -1.55782
# Velocity P-wave (km/s) = 6.39399 1.68826 4.67618
#
# Compressibility (1/GPa) = 0.02188864
#
# Stress axis : x y z
#
# Youngs Moduli (GPa) = 78.04217 89.85216 138.06786
#
# Poissons Ratio (x) = -0.03707 0.20575
# Poissons Ratio (y) = -0.03219 0.49303
# Poissons Ratio (z) = 0.11630 0.32085
#
# Static dielectric constant tensor:
#      x y z
#    x 1.755110 0.000000 0.000000 
#    y 0.000000 1.715940 0.000000 
#    z 0.000000 0.000000 1.691120 
# 
# From -- ./inp_files/6202.got.cif
#   From: 2010.05.17/outbox.cif.g08.bks.cpg/sg63_4_cif.got.tgz:6202.got - 2010.06.03 15:47:04.
