data_PCOD9470910
_publ_section_title
;
Structure prediction by ZEFSAII (Michael W. Deem and Ramdas Pophale) SiO2 
 PCOD9470910
Probable space group: C M C M
;
_chemical_formula_sum "Si O2"
_cell_formula_units_Z 116
_cell_length_a 18.906331
_cell_length_b 17.567179
_cell_length_c 17.991978
_cell_angle_alpha 90.000000
_cell_angle_beta 90.000000
_cell_angle_gamma 90.000000
_cell_volume 5975.691862
_symmetry_space_group_name_H-M "C M C M"
_symmetry_group_IT_number 63
_symmetry_cell_setting 'orthorhombic'
loop_
_space_group_symop_operation_xyz
x,y,z
-x,-y,1/2+z
x,-y,-z
-x,y,1/2-z
-x,-y,-z
x,y,1/2-z
-x,y,z
x,-y,1/2+z
1/2+x,1/2+y,z
1/2-x,1/2-y,1/2+z
1/2+x,1/2-y,-z
1/2-x,1/2+y,1/2-z
1/2-x,1/2-y,-z
1/2+x,1/2+y,1/2-z
1/2-x,1/2+y,z
1/2+x,1/2-y,1/2+z
loop_
_atom_site_type_symbol
_atom_site_label
_atom_site_fract_x
_atom_site_fract_y
_atom_site_fract_z
Si Si1 0.842394 0.589042 0.009703
Si Si2 0.582487 0.358084 0.597059
Si Si3 0.670754 0.488177 0.833357
Si Si4 0.000000 0.633308 0.750000
Si Si5 0.309028 0.890528 0.831598
Si Si6 0.680854 0.616533 0.544125
Si Si7 0.770167 0.219588 0.831626
Si Si8 0.887342 0.318073 0.128962
O O1 0.758249 0.602900 0.992757
O O2 0.883540 0.640674 0.950740
O O3 0.856632 0.500000 0.000000
O O4 0.856555 0.608029 0.095606
O O5 0.500000 0.375871 0.589284
O O6 0.619428 0.416500 0.653775
O O7 0.624808 0.370414 0.520393
O O8 0.590231 0.270273 0.621500
O O9 0.659653 0.519105 0.750000
O O10 0.751203 0.457232 0.837220
O O11 0.662450 0.547069 0.900748
O O12 0.938579 0.639752 0.814885
O O13 0.343433 0.895123 0.750000
O O14 0.267067 0.810635 0.834764
O O15 0.686422 0.688739 0.598709
O O16 0.799005 0.199565 0.750000
O O17 0.692743 0.183980 0.840467
#
# Coordination Sequence:
#
# PCOD9470910 Si02
#       8
#    16  16  16   4  16  16  16  16
#     4  11  20  39  60  93 119 157 194 244 318 361
#     4  12  24  38  59  82 112 169 207 247 296 361
#     4  11  22  35  54  82 122 161 195 253 309 353
#     4  12  24  44  58  96 132 156 194 262 298 360
#     4  10  19  33  56  85 123 150 194 252 302 353
#     4  11  21  37  56  87 126 154 198 256 301 365
#     4  10  19  34  60  90 113 152 196 243 307 358
#     4  11  23  37  64  87 124 157 198 249 297 368
#
# _framework density 19.411978000000001
#
# number of rings (size 3 to 8) (size 9 to 14) (size 15 to 20)
#    0.000    1.103    5.517    1.655    0.966    3.586 
#    1.241    0.345    0.000    1.241    0.000    0.000 
#    0.000    0.000    0.000    0.000    0.000    0.000 
#
# Total GULP energy -323419.280270 kJ/mol
# GULP energy per Si atom -5576.194487 kJ/mol
# Density = 1.936780 g / cm^3
# Si number density = 19.411978 Si / 1000 Ang^3
#
#
#
# Elastic Constant Matrix: (Units=GPa)
#
#
# Indices 1 2 3 4 5 6 
#
# 1 36.2668 -8.6625 19.4914 0.0000 0.0000 0.0000
# 2 -8.6625 26.2220 -2.4931 0.0000 0.0000 0.0000
# 3 19.4914 -2.4931 134.7983 0.0000 0.0000 0.0000
# 4 0.0000 0.0000 0.0000 -105.8362 0.0000 0.0000
# 5 0.0000 0.0000 0.0000 0.0000 25.7146 0.0000
# 6 0.0000 0.0000 0.0000 0.0000 0.0000 0.9621
#
#
#
# Elastic Compliance Matrix: (Units=1/GPa)
#
#
# Indices 1 2 3 4 5 6 
#
# 1 0.032451 0.010292 -0.004502 0.000000 0.000000 0.000000
# 2 0.010292 0.041467 -0.000721 0.000000 0.000000 0.000000
# 3 -0.004502 -0.000721 0.008056 0.000000 0.000000 0.000000
# 4 0.000000 0.000000 0.000000 -0.009449 0.000000 0.000000
# 5 0.000000 0.000000 0.000000 0.000000 0.038888 0.000000
# 6 0.000000 0.000000 0.000000 0.000000 0.000000 1.039359
#
#
# Mechanical properties :
#
#
# Convention : Reuss Voigt Hill
#
# Bulk Modulus (GPa) = 10.85624 23.77320 17.31472
# Shear Modulus (GPa) = 4.26862 -3.23514 0.51674
#
# Velocity S-wave (km/s) = 1.48450 -1.29236 0.51650
# Velocity P-wave (km/s) = 2.92284 3.16959 3.04872
#
# Compressibility (1/GPa) = 0.09211288
#
# Stress axis : x y z
#
# Youngs Moduli (GPa) = 30.81537 24.11532 124.12911
#
# Poissons Ratio (x) = -0.24820 0.55883
# Poissons Ratio (y) = -0.31716 0.08953
# Poissons Ratio (z) = 0.13873 0.01739
#
# Static dielectric constant tensor:
#      x y z
#    x 1.639690 0.000000 0.000000 
#    y 0.000000 1.707310 0.000000 
#    z 0.000000 0.000000 1.707030 
# 
# From -- ./inp_files/45900.got.cif
#   From: 2010.05.17/outbox.cif.g08.bks.cpg/sg63_23_cif.got.tgz:45900.got - 2010.06.03 15:47:04.
