data_PCOD9470247
_publ_section_title
;
Structure prediction by ZEFSAII (Michael W. Deem and Ramdas Pophale) SiO2 
 PCOD9470247
Probable space group: C M C M
;
_chemical_formula_sum "Si O2"
_cell_formula_units_Z 64
_cell_length_a 12.206972
_cell_length_b 15.733480
_cell_length_c 15.331572
_cell_angle_alpha 90.000000
_cell_angle_beta 90.000000
_cell_angle_gamma 90.000000
_cell_volume 2944.553352
_symmetry_space_group_name_H-M "C M C M"
_symmetry_group_IT_number 63
_symmetry_cell_setting 'orthorhombic'
loop_
_space_group_symop_operation_xyz
x,y,z
-x,-y,1/2+z
x,-y,-z
-x,y,1/2-z
-x,-y,-z
x,y,1/2-z
-x,y,z
x,-y,1/2+z
1/2+x,1/2+y,z
1/2-x,1/2-y,1/2+z
1/2+x,1/2-y,-z
1/2-x,1/2+y,1/2-z
1/2-x,1/2-y,-z
1/2+x,1/2+y,1/2-z
1/2-x,1/2+y,z
1/2+x,1/2-y,1/2+z
loop_
_atom_site_type_symbol
_atom_site_label
_atom_site_fract_x
_atom_site_fract_y
_atom_site_fract_z
Si Si1 0.000000 0.546056 0.907400
Si Si2 0.257838 0.989845 0.106793
Si Si3 0.500000 0.215641 0.659061
Si Si4 0.631158 0.678752 0.590612
Si Si5 0.704914 0.322709 0.612595
O O1 0.883589 0.523866 0.865815
O O2 0.000000 0.648045 0.918617
O O3 0.000000 0.500000 0.000000
O O4 0.185666 0.907189 0.129473
O O5 0.216992 0.080249 0.140979
O O6 0.256885 0.000000 0.000000
O O7 0.500000 0.165467 0.750000
O O8 0.605829 0.273152 0.655681
O O9 0.500000 0.677949 0.597776
O O10 0.669417 0.676227 0.489435
O O11 0.686994 0.765197 0.625302
#
# Coordination Sequence:
#
# PCOD9470247 Si02
#       5
#     8  16   8  16  16
#     4  10  20  38  60  90 120 152 214 263 306 360
#     4   9  19  31  54  87 119 150 192 252 304 352
#     4  12  24  42  61  84 126 171 205 248 313 391
#     4  10  19  31  55  88 122 146 192 259 306 343
#     4  10  21  34  54  88 120 158 196 242 307 368
#
# _framework density 21.735045
#
# number of rings (size 3 to 8) (size 9 to 14) (size 15 to 20)
#    0.000    2.000    3.750    0.000    7.000    1.500 
#    0.000    1.250    0.000    0.750    0.000    0.000 
#    0.000    0.000    0.000    0.000    0.000    0.000 
#
# Total GULP energy -178619.090760 kJ/mol
# GULP energy per Si atom -5581.846586 kJ/mol
# Density = 2.168557 g / cm^3
# Si number density = 21.735045 Si / 1000 Ang^3
#
#
#
# Elastic Constant Matrix: (Units=GPa)
#
#
# Indices 1 2 3 4 5 6 
#
# 1 190.3094 85.4045 8.1460 0.0000 0.0000 0.0000
# 2 85.4045 177.9256 34.6561 0.0000 0.0000 0.0000
# 3 8.1460 34.6561 31.6204 0.0000 0.0000 0.0000
# 4 0.0000 0.0000 0.0000 -0.6917 0.0000 0.0000
# 5 0.0000 0.0000 0.0000 0.0000 155.5447 0.0000
# 6 0.0000 0.0000 0.0000 0.0000 0.0000 43.4237
#
#
#
# Elastic Compliance Matrix: (Units=1/GPa)
#
#
# Indices 1 2 3 4 5 6 
#
# 1 0.006830 -0.003732 0.002331 0.000000 0.000000 0.000000
# 2 -0.003732 0.009185 -0.009106 0.000000 0.000000 0.000000
# 3 0.002331 -0.009106 0.041005 0.000000 0.000000 0.000000
# 4 0.000000 0.000000 0.000000 -1.445801 0.000000 0.000000
# 5 0.000000 0.000000 0.000000 0.000000 0.006429 0.000000
# 6 0.000000 0.000000 0.000000 0.000000 0.000000 0.023029
#
#
# Mechanical properties :
#
#
# Convention : Reuss Voigt Hill
#
# Bulk Modulus (GPa) = 27.77323 72.91873 50.34598
# Shear Modulus (GPa) = -3.76987 57.76528 26.99771
#
# Velocity S-wave (km/s) = -1.31842 5.16088 3.52821
# Velocity P-wave (km/s) = 3.23855 8.31473 6.30963
#
# Compressibility (1/GPa) = 0.03600590
#
# Stress axis : x y z
#
# Youngs Moduli (GPa) = 146.41767 108.86749 24.38755
#
# Poissons Ratio (x) = 0.40633 -0.05685
# Poissons Ratio (y) = 0.54648 0.22207
# Poissons Ratio (z) = -0.34133 0.99132
#
# Static dielectric constant tensor:
#      x y z
#    x 1.746510 0.000000 0.000000 
#    y 0.000000 1.795330 0.000000 
#    z 0.000000 0.000000 -3.900570 
# 
# From -- ./inp_files/41525.got.cif
#   From: 2010.05.17/outbox.cif.g08.bks.cpg/sg63_21_cif.got.tgz:41525.got - 2010.06.03 15:47:04.
