data_PCOD9470252
_publ_section_title
;
Structure prediction by ZEFSAII (Michael W. Deem and Ramdas Pophale) SiO2 
 PCOD9470252
Probable space group: C M C M
;
_chemical_formula_sum "Si O2"
_cell_formula_units_Z 112
_cell_length_a 31.649315
_cell_length_b 11.123920
_cell_length_c 18.155806
_cell_angle_alpha 90.000000
_cell_angle_beta 90.000000
_cell_angle_gamma 90.000000
_cell_volume 6392.013819
_symmetry_space_group_name_H-M "C M C M"
_symmetry_group_IT_number 63
_symmetry_cell_setting 'orthorhombic'
loop_
_space_group_symop_operation_xyz
x,y,z
-x,-y,1/2+z
x,-y,-z
-x,y,1/2-z
-x,-y,-z
x,y,1/2-z
-x,y,z
x,-y,1/2+z
1/2+x,1/2+y,z
1/2-x,1/2-y,1/2+z
1/2+x,1/2-y,-z
1/2-x,1/2+y,1/2-z
1/2-x,1/2-y,-z
1/2+x,1/2+y,1/2-z
1/2-x,1/2+y,z
1/2+x,1/2-y,1/2+z
loop_
_atom_site_type_symbol
_atom_site_label
_atom_site_fract_x
_atom_site_fract_y
_atom_site_fract_z
Si Si1 0.115539 0.632183 0.665964
Si Si2 0.667339 0.296880 0.160739
Si Si3 0.324977 0.349379 0.832499
Si Si4 0.329122 0.038200 0.084534
Si Si5 0.951136 0.167482 0.338784
Si Si6 0.754019 0.019719 0.665668
Si Si7 0.889521 0.991905 0.412867
O O1 0.105920 0.599569 0.750000
O O2 0.157829 0.715517 0.666310
O O3 0.128801 0.517523 0.620685
O O4 0.077904 0.718509 0.638533
O O5 0.662261 0.276853 0.250000
O O6 0.673032 0.175293 0.113746
O O7 0.708965 0.382548 0.152597
O O8 0.627898 0.369624 0.124314
O O9 0.337086 0.396955 0.750000
O O10 0.276838 0.388532 0.840781
O O11 0.351420 0.416953 0.893881
O O12 0.285808 0.978416 0.113732
O O13 0.331445 0.000000 0.000000
O O14 0.947827 0.160848 0.250000
O O15 0.000000 0.181132 0.358901
O O16 0.930003 0.048699 0.372515
O O17 0.739632 0.033720 0.750000
O O18 0.896165 0.000000 0.500000
#
# Coordination Sequence:
#
# PCOD9470252 Si02
#       7
#    16  16  16  16  16  16  16
#     4   9  18  35  57  78 105 143 184 225 271 333
#     4  10  22  40  58  77 109 157 199 230 278 341
#     4   8  16  32  55  75 100 144 190 226 271 325
#     4  12  26  35  51  79 115 151 190 240 283 329
#     4   9  18  35  62  90 111 137 179 229 281 344
#     4   9  19  36  54  75 103 144 195 238 274 327
#     4  10  19  31  57  85 117 144 172 229 282 339
#
# _framework density 17.521864000000001
#
# number of rings (size 3 to 8) (size 9 to 14) (size 15 to 20)
#    0.000    2.429    0.000    4.286    6.000    3.143 
#    0.000    0.000    0.000    1.286    0.000    2.000 
#    0.000    0.000    0.000    0.000    0.000    0.000 
#
# Total GULP energy -311774.551965 kJ/mol
# GULP energy per Si atom -5567.402714 kJ/mol
# Density = 1.748198 g / cm^3
# Si number density = 17.521864 Si / 1000 Ang^3
#
#
#
# Elastic Constant Matrix: (Units=GPa)
#
#
# Indices 1 2 3 4 5 6 
#
# 1 97.0097 39.1473 38.1851 0.0000 0.0000 0.0000
# 2 39.1473 54.7825 24.5091 0.0000 0.0000 0.0000
# 3 38.1851 24.5091 57.3352 0.0000 0.0000 0.0000
# 4 0.0000 0.0000 0.0000 16.1740 0.0000 0.0000
# 5 0.0000 0.0000 0.0000 0.0000 13.7683 0.0000
# 6 0.0000 0.0000 0.0000 0.0000 0.0000 17.1917
#
#
#
# Elastic Compliance Matrix: (Units=1/GPa)
#
#
# Indices 1 2 3 4 5 6 
#
# 1 0.016717 -0.008612 -0.007452 0.000000 0.000000 0.000000
# 2 -0.008612 0.027007 -0.005809 0.000000 0.000000 0.000000
# 3 -0.007452 -0.005809 0.024888 0.000000 0.000000 0.000000
# 4 0.000000 0.000000 0.000000 0.061827 0.000000 0.000000
# 5 0.000000 0.000000 0.000000 0.000000 0.072630 0.000000
# 6 0.000000 0.000000 0.000000 0.000000 0.000000 0.058168
#
#
# Mechanical properties :
#
#
# Convention : Reuss Voigt Hill
#
# Bulk Modulus (GPa) = 40.21689 45.86784 43.04236
# Shear Modulus (GPa) = 15.96062 16.57921 16.26992
#
# Velocity S-wave (km/s) = 3.02138 3.07938 3.05052
# Velocity P-wave (km/s) = 5.93076 6.23520 6.08488
#
# Compressibility (1/GPa) = 0.02486518
#
# Stress axis : x y z
#
# Youngs Moduli (GPa) = 59.82046 37.02761 40.18059
#
# Poissons Ratio (x) = 0.31887 0.29943
# Poissons Ratio (y) = 0.51516 0.23342
# Poissons Ratio (z) = 0.44578 0.21510
#
# Static dielectric constant tensor:
#      x y z
#    x 1.588700 0.000000 0.000000 
#    y 0.000000 1.659010 0.000000 
#    z 0.000000 0.000000 1.616670 
# 
# From -- ./inp_files/38539.got.cif
#   From: 2010.05.17/outbox.cif.g08.bks.cpg/sg63_20_cif.got.tgz:38539.got - 2010.06.03 15:47:04.
