data_PCOD9470626
_publ_section_title
;
Structure prediction by ZEFSAII (Michael W. Deem and Ramdas Pophale) SiO2 
 PCOD9470626
Probable space group: C M C M
;
_chemical_formula_sum "Si O2"
_cell_formula_units_Z 104
_cell_length_a 22.587342
_cell_length_b 31.569624
_cell_length_c 8.606862
_cell_angle_alpha 90.000000
_cell_angle_beta 90.000000
_cell_angle_gamma 90.000000
_cell_volume 6137.328602
_symmetry_space_group_name_H-M "C M C M"
_symmetry_group_IT_number 63
_symmetry_cell_setting 'orthorhombic'
loop_
_space_group_symop_operation_xyz
x,y,z
-x,-y,1/2+z
x,-y,-z
-x,y,1/2-z
-x,-y,-z
x,y,1/2-z
-x,y,z
x,-y,1/2+z
1/2+x,1/2+y,z
1/2-x,1/2-y,1/2+z
1/2+x,1/2-y,-z
1/2-x,1/2+y,1/2-z
1/2-x,1/2-y,-z
1/2+x,1/2+y,1/2-z
1/2-x,1/2+y,z
1/2+x,1/2-y,1/2+z
loop_
_atom_site_type_symbol
_atom_site_label
_atom_site_fract_x
_atom_site_fract_y
_atom_site_fract_z
Si Si1 0.198273 0.701537 0.063999
Si Si2 0.714636 0.884550 0.065728
Si Si3 0.930552 0.953605 0.436326
Si Si4 0.128563 0.452285 0.937139
Si Si5 0.500000 0.952208 0.563623
Si Si6 0.168631 0.209062 0.934206
Si Si7 0.347725 0.620983 0.434840
O O1 0.208133 0.702820 0.250000
O O2 0.156847 0.741676 0.023857
O O3 0.179952 0.654892 0.012552
O O4 0.261698 0.705822 0.978287
O O5 0.716452 0.878973 0.250000
O O6 0.680300 0.926239 0.016167
O O7 0.781753 0.886179 0.002423
O O8 0.926049 0.954156 0.250000
O O9 0.891569 0.914947 0.500922
O O10 0.000000 0.947850 0.478898
O O11 0.912150 0.000000 0.500000
O O12 0.134471 0.451774 0.750000
O O13 0.063607 0.433536 0.981218
O O14 0.130093 0.500000 0.000000
O O15 0.500000 0.954582 0.750000
O O16 0.500000 0.000000 0.500000
O O17 0.161352 0.203875 0.750000
O O18 0.137057 0.169535 0.016208
O O19 0.345556 0.618482 0.250000
#
# Coordination Sequence:
#
# PCOD9470626 Si02
#       7
#    16  16  16  16   8  16  16
#     4   9  16  27  44  67  96 129 162 198 240 288
#     4  11  21  32  47  71 103 136 168 204 250 299
#     4  10  21  38  58  78 101 130 167 210 254 304
#     4  10  19  33  50  71  97 126 163 202 245 291
#     4   8  16  30  50  70  90 118 154 198 236 276
#     4   9  16  27  45  69  97 127 160 198 241 288
#     4  11  21  33  51  75 103 133 166 204 248 297
#
# _framework density 16.945482999999999
#
# number of rings (size 3 to 8) (size 9 to 14) (size 15 to 20)
#    0.000    2.154    0.000    6.462    0.000    4.000 
#    0.000    3.077    0.000    0.000    2.000    0.000 
#    0.000    0.000    0.000    0.000    0.000    0.000 
#
# Total GULP energy -289633.545072 kJ/mol
# GULP energy per Si atom -5569.875867 kJ/mol
# Density = 1.690691 g / cm^3
# Si number density = 16.945483 Si / 1000 Ang^3
#
#
#
# Elastic Constant Matrix: (Units=GPa)
#
#
# Indices 1 2 3 4 5 6 
#
# 1 53.3618 50.3381 27.9595 0.0000 0.0000 0.0000
# 2 50.3381 128.3740 35.3804 0.0000 0.0000 0.0000
# 3 27.9595 35.3804 73.0175 0.0000 0.0000 0.0000
# 4 0.0000 0.0000 0.0000 31.8264 0.0000 0.0000
# 5 0.0000 0.0000 0.0000 0.0000 16.4532 0.0000
# 6 0.0000 0.0000 0.0000 0.0000 0.0000 10.1265
#
#
#
# Elastic Compliance Matrix: (Units=1/GPa)
#
#
# Indices 1 2 3 4 5 6 
#
# 1 0.032801 -0.010849 -0.007303 0.000000 0.000000 0.000000
# 2 -0.010849 0.012579 -0.001941 0.000000 0.000000 0.000000
# 3 -0.007303 -0.001941 0.017432 0.000000 0.000000 0.000000
# 4 0.000000 0.000000 0.000000 0.031420 0.000000 0.000000
# 5 0.000000 0.000000 0.000000 0.000000 0.060779 0.000000
# 6 0.000000 0.000000 0.000000 0.000000 0.000000 0.098751
#
#
# Mechanical properties :
#
#
# Convention : Reuss Voigt Hill
#
# Bulk Modulus (GPa) = 44.19686 53.56771 48.88229
# Shear Modulus (GPa) = 16.58433 21.08622 18.83527
#
# Velocity S-wave (km/s) = 3.13179 3.53137 3.33757
# Velocity P-wave (km/s) = 6.26226 6.95039 6.61528
#
# Compressibility (1/GPa) = 0.02262604
#
# Stress axis : x y z
#
# Youngs Moduli (GPa) = 30.48687 79.49880 57.36520
#
# Poissons Ratio (x) = 0.86250 0.41894
# Poissons Ratio (y) = 0.33076 0.11133
# Poissons Ratio (z) = 0.22265 0.15428
#
# Static dielectric constant tensor:
#      x y z
#    x 1.561330 0.000000 0.000000 
#    y 0.000000 1.650100 0.000000 
#    z 0.000000 0.000000 1.566380 
# 
# From -- ./inp_files/9124.got.cif
#   From: 2010.05.17/outbox.cif.g08.bks.cpg/sg63_5_cif.got.tgz:9124.got - 2010.06.03 15:47:04.
