data_PCOD9470639
_publ_section_title
;
Structure prediction by ZEFSAII (Michael W. Deem and Ramdas Pophale) SiO2 
 PCOD9470639
Probable space group: C M C M
;
_chemical_formula_sum "Si O2"
_cell_formula_units_Z 96
_cell_length_a 17.350818
_cell_length_b 29.756774
_cell_length_c 8.951585
_cell_angle_alpha 90.000000
_cell_angle_beta 90.000000
_cell_angle_gamma 90.000000
_cell_volume 4621.742453
_symmetry_space_group_name_H-M "C M C M"
_symmetry_group_IT_number 63
_symmetry_cell_setting 'orthorhombic'
loop_
_space_group_symop_operation_xyz
x,y,z
-x,-y,1/2+z
x,-y,-z
-x,y,1/2-z
-x,-y,-z
x,y,1/2-z
-x,y,z
x,-y,1/2+z
1/2+x,1/2+y,z
1/2-x,1/2-y,1/2+z
1/2+x,1/2-y,-z
1/2-x,1/2+y,1/2-z
1/2-x,1/2-y,-z
1/2+x,1/2+y,1/2-z
1/2-x,1/2+y,z
1/2+x,1/2-y,1/2+z
loop_
_atom_site_type_symbol
_atom_site_label
_atom_site_fract_x
_atom_site_fract_y
_atom_site_fract_z
Si Si1 0.797335 0.197345 0.921646
Si Si2 0.150950 0.453258 0.569770
Si Si3 0.585801 0.764366 0.429288
Si Si4 0.328706 0.542390 0.422615
Si Si5 0.090232 0.115995 0.911943
Si Si6 0.648483 0.850066 0.569489
O O1 0.775438 0.209391 0.750000
O O2 0.868508 0.163215 0.912343
O O3 0.838005 0.238520 0.008783
O O4 0.729855 0.168255 0.001024
O O5 0.118330 0.500000 0.500000
O O6 0.144999 0.457054 0.750000
O O7 0.241084 0.452290 0.521662
O O8 0.126407 0.401922 0.530658
O O9 0.590780 0.766261 0.250000
O O10 0.500000 0.745062 0.466209
O O11 0.590274 0.813727 0.501975
O O12 0.366843 0.500000 0.500000
O O13 0.323136 0.533491 0.250000
O O14 0.375493 0.586397 0.457857
O O15 0.108321 0.093997 0.750000
O O16 0.000000 0.120654 0.925204
O O17 0.652956 0.847645 0.750000
#
# Coordination Sequence:
#
# PCOD9470639 Si02
#       6
#    16  16  16  16  16  16
#     4  11  22  38  61  87 117 155 198 243 291 344
#     4   9  19  34  56  86 118 150 188 237 290 345
#     4  11  25  43  62  87 120 157 197 243 297 353
#     4  10  19  33  51  73 103 141 187 236 289 344
#     4  10  21  35  51  74 106 146 192 239 288 341
#     4  11  22  39  63  92 123 155 197 243 291 348
#
# _framework density 20.771388000000002
#
# number of rings (size 3 to 8) (size 9 to 14) (size 15 to 20)
#    0.000    1.667    1.667    3.000    0.000    5.333 
#    0.000    0.000    0.000    0.500    0.000    0.000 
#    0.000    0.000    0.000    0.000    0.000    0.000 
#
# Total GULP energy -267561.158966 kJ/mol
# GULP energy per Si atom -5574.190812 kJ/mol
# Density = 2.072411 g / cm^3
# Si number density = 20.771388 Si / 1000 Ang^3
#
#
#
# Elastic Constant Matrix: (Units=GPa)
#
#
# Indices 1 2 3 4 5 6 
#
# 1 17.2043 4.1016 5.3656 0.0000 0.0000 0.0000
# 2 4.1016 118.7857 33.5029 0.0000 0.0000 0.0000
# 3 5.3656 33.5029 61.9328 0.0000 0.0000 0.0000
# 4 0.0000 0.0000 0.0000 34.8814 0.0000 0.0000
# 5 0.0000 0.0000 0.0000 0.0000 9.4670 0.0000
# 6 0.0000 0.0000 0.0000 0.0000 0.0000 4.7112
#
#
#
# Elastic Compliance Matrix: (Units=1/GPa)
#
#
# Indices 1 2 3 4 5 6 
#
# 1 0.059790 -0.000712 -0.004795 0.000000 0.000000 0.000000
# 2 -0.000712 0.009943 -0.005317 0.000000 0.000000 0.000000
# 3 -0.004795 -0.005317 0.019438 0.000000 0.000000 0.000000
# 4 0.000000 0.000000 0.000000 0.028669 0.000000 0.000000
# 5 0.000000 0.000000 0.000000 0.000000 0.105630 0.000000
# 6 0.000000 0.000000 0.000000 0.000000 0.000000 0.212259
#
#
# Mechanical properties :
#
#
# Convention : Reuss Voigt Hill
#
# Bulk Modulus (GPa) = 14.80967 31.54034 23.17501
# Shear Modulus (GPa) = 10.41918 20.14209 15.28064
#
# Velocity S-wave (km/s) = 2.24210 3.11738 2.71524
# Velocity P-wave (km/s) = 3.72129 5.30801 4.58383
#
# Compressibility (1/GPa) = 0.06752343
#
# Stress axis : x y z
#
# Youngs Moduli (GPa) = 16.72516 100.57618 51.44530
#
# Poissons Ratio (x) = 0.07163 0.24667
# Poissons Ratio (y) = 0.01191 0.27353
# Poissons Ratio (z) = 0.08019 0.53475
#
# Static dielectric constant tensor:
#      x y z
#    x 1.744170 0.000000 0.000000 
#    y 0.000000 1.802610 0.000000 
#    z 0.000000 0.000000 7.832280 
# 
# From -- ./inp_files/8666.got.cif
#   From: 2010.05.17/outbox.cif.g08.bks.cpg/sg63_5_cif.got.tgz:8666.got - 2010.06.03 15:47:04.
