data_PCOD9470844
_publ_section_title
;
Structure prediction by ZEFSAII (Michael W. Deem and Ramdas Pophale) SiO2 
 PCOD9470844
Probable space group: C M C M
;
_chemical_formula_sum "Si O2"
_cell_formula_units_Z 96
_cell_length_a 11.275294
_cell_length_b 32.162585
_cell_length_c 14.460477
_cell_angle_alpha 90.000000
_cell_angle_beta 90.000000
_cell_angle_gamma 90.000000
_cell_volume 5243.985001
_symmetry_space_group_name_H-M "C M C M"
_symmetry_group_IT_number 63
_symmetry_cell_setting 'orthorhombic'
loop_
_space_group_symop_operation_xyz
x,y,z
-x,-y,1/2+z
x,-y,-z
-x,y,1/2-z
-x,-y,-z
x,y,1/2-z
-x,y,z
x,-y,1/2+z
1/2+x,1/2+y,z
1/2-x,1/2-y,1/2+z
1/2+x,1/2-y,-z
1/2-x,1/2+y,1/2-z
1/2-x,1/2-y,-z
1/2+x,1/2+y,1/2-z
1/2-x,1/2+y,z
1/2+x,1/2-y,1/2+z
loop_
_atom_site_type_symbol
_atom_site_label
_atom_site_fract_x
_atom_site_fract_y
_atom_site_fract_z
Si Si1 0.138938 0.765745 0.359954
Si Si2 0.000000 0.380501 0.859041
Si Si3 0.856925 0.061399 0.964696
Si Si4 0.265475 0.517402 0.145326
Si Si5 0.235751 0.674549 0.142213
Si Si6 0.500000 0.972235 0.592300
Si Si7 0.360104 0.653266 0.963583
O O1 0.141910 0.772928 0.250000
O O2 0.206062 0.722752 0.377884
O O3 0.188644 0.806405 0.410781
O O4 0.000000 0.759771 0.385865
O O5 0.116417 0.352475 0.873168
O O6 0.000000 0.422150 0.919647
O O7 0.000000 0.393394 0.750000
O O8 0.815763 0.107509 0.937023
O O9 0.000000 0.059843 0.967117
O O10 0.811121 0.026653 0.893863
O O11 0.809887 0.049760 0.067197
O O12 0.306278 0.525676 0.250000
O O13 0.122981 0.517887 0.142773
O O14 0.267543 0.670579 0.250000
O O15 0.333816 0.659110 0.071531
O O16 0.500000 0.000000 0.500000
O O17 0.500000 0.653145 0.944933
#
# Coordination Sequence:
#
# PCOD9470844 Si02
#       7
#    16   8  16  16  16   8  16
#     4   9  17  33  54  78 105 137 178 221 262 308
#     4  10  20  34  56  84 106 135 181 223 264 317
#     4  10  22  38  54  81 110 143 189 228 266 324
#     4  11  22  38  58  79 108 144 183 227 278 327
#     4  10  19  33  55  81 108 137 175 220 265 318
#     4  12  22  36  56  81 113 142 177 225 283 327
#     4  10  21  34  52  78 111 141 175 217 266 320
#
# _framework density 18.306688999999999
#
# number of rings (size 3 to 8) (size 9 to 14) (size 15 to 20)
#    0.000    1.833    2.500    3.250    0.000    4.333 
#    0.000    3.333    0.000    0.000    0.000    0.000 
#    0.000    0.000    0.000    0.000    0.000    0.000 
#
# Total GULP energy -267742.458612 kJ/mol
# GULP energy per Si atom -5577.967888 kJ/mol
# Density = 1.826502 g / cm^3
# Si number density = 18.306689 Si / 1000 Ang^3
#
#
#
# Elastic Constant Matrix: (Units=GPa)
#
#
# Indices 1 2 3 4 5 6 
#
# 1 28.6388 2.9814 0.0123 0.0000 0.0000 0.0000
# 2 2.9814 118.5469 20.8852 0.0000 0.0000 0.0000
# 3 0.0123 20.8852 34.5756 0.0000 0.0000 0.0000
# 4 0.0000 0.0000 0.0000 10.2912 0.0000 0.0000
# 5 0.0000 0.0000 0.0000 0.0000 17.6636 0.0000
# 6 0.0000 0.0000 0.0000 0.0000 0.0000 0.4093
#
#
#
# Elastic Compliance Matrix: (Units=1/GPa)
#
#
# Indices 1 2 3 4 5 6 
#
# 1 0.035020 -0.000983 0.000581 0.000000 0.000000 0.000000
# 2 -0.000983 0.009468 -0.005719 0.000000 0.000000 0.000000
# 3 0.000581 -0.005719 0.032376 0.000000 0.000000 0.000000
# 4 0.000000 0.000000 0.000000 0.097170 0.000000 0.000000
# 5 0.000000 0.000000 0.000000 0.000000 0.056614 0.000000
# 6 0.000000 0.000000 0.000000 0.000000 0.000000 2.443022
#
#
# Mechanical properties :
#
#
# Convention : Reuss Voigt Hill
#
# Bulk Modulus (GPa) = 15.47436 25.50211 20.48823
# Shear Modulus (GPa) = 1.84676 16.19834 9.02255
#
# Velocity S-wave (km/s) = 1.00547 2.97784 2.22244
# Velocity P-wave (km/s) = 3.13355 5.07780 4.21920
#
# Compressibility (1/GPa) = 0.06462304
#
# Stress axis : x y z
#
# Youngs Moduli (GPa) = 28.55533 105.62248 30.88694
#
# Poissons Ratio (x) = 0.10384 -0.01796
# Poissons Ratio (y) = 0.02807 0.17663
# Poissons Ratio (z) = -0.01660 0.60401
#
# Static dielectric constant tensor:
#      x y z
#    x 1.623340 0.000000 0.000000 
#    y 0.000000 1.658570 0.000000 
#    z 0.000000 0.000000 1.618290 
# 
# From -- ./inp_files/30360.got.cif
#   From: 2010.05.17/outbox.cif.g08.bks.cpg/sg63_16_cif.got.tgz:30360.got - 2010.06.03 15:47:04.
