data_PCOD9470912
_publ_section_title
;
Structure prediction by ZEFSAII (Michael W. Deem and Ramdas Pophale) SiO2 
 PCOD9470912
Probable space group: C M C M
;
_chemical_formula_sum "Si O2"
_cell_formula_units_Z 104
_cell_length_a 19.422463
_cell_length_b 8.688898
_cell_length_c 30.867272
_cell_angle_alpha 90.000000
_cell_angle_beta 90.000000
_cell_angle_gamma 90.000000
_cell_volume 5209.154647
_symmetry_space_group_name_H-M "C M C M"
_symmetry_group_IT_number 63
_symmetry_cell_setting 'orthorhombic'
loop_
_space_group_symop_operation_xyz
x,y,z
-x,-y,1/2+z
x,-y,-z
-x,y,1/2-z
-x,-y,-z
x,y,1/2-z
-x,y,z
x,-y,1/2+z
1/2+x,1/2+y,z
1/2-x,1/2-y,1/2+z
1/2+x,1/2-y,-z
1/2-x,1/2+y,1/2-z
1/2-x,1/2-y,-z
1/2+x,1/2+y,1/2-z
1/2-x,1/2+y,z
1/2+x,1/2-y,1/2+z
loop_
_atom_site_type_symbol
_atom_site_label
_atom_site_fract_x
_atom_site_fract_y
_atom_site_fract_z
Si Si1 0.701409 0.805628 0.920512
Si Si2 0.325808 0.550496 0.200361
Si Si3 0.577531 0.232805 0.557143
Si Si4 0.167948 0.971563 0.895390
Si Si5 0.171022 0.579209 0.797907
Si Si6 0.831563 0.500000 0.500000
Si Si7 0.577799 0.966401 0.874164
O O1 0.766236 0.857868 0.891876
O O2 0.697024 0.623527 0.918332
O O3 0.627772 0.859285 0.902169
O O4 0.709778 0.895825 0.965737
O O5 0.350716 0.508768 0.250000
O O6 0.358273 0.497550 0.153980
O O7 0.248369 0.484281 0.197544
O O8 0.327322 0.735949 0.198413
O O9 0.500000 0.257575 0.540666
O O10 0.614008 0.387639 0.573235
O O11 0.574032 0.126517 0.599827
O O12 0.621669 0.127574 0.524449
O O13 0.147118 0.539227 0.750000
O O14 0.119201 0.502631 0.831050
O O15 0.500000 0.908510 0.868623
#
# Coordination Sequence:
#
# PCOD9470912 Si02
#       7
#    16  16  16  16  16   8  16
#     4  11  24  38  63  88 118 160 203 255 308 364
#     4  10  20  34  57  89 122 154 196 246 295 349
#     4  10  22  40  64  87 119 159 200 248 303 368
#     4  12  22  39  64  90 122 157 204 250 306 361
#     4  10  19  33  56  86 116 154 199 244 297 355
#     4  10  23  44  62  88 123 156 202 254 313 364
#     4  10  20  37  56  82 118 158 198 245 301 357
#
# _framework density 19.964852
#
# number of rings (size 3 to 8) (size 9 to 14) (size 15 to 20)
#    0.000    1.538    3.077    3.000    0.000    4.615 
#    0.000    0.769    0.000    0.462    0.000    0.000 
#    0.000    0.000    0.000    0.000    0.000    0.000 
#
# Total GULP energy -289984.524913 kJ/mol
# GULP energy per Si atom -5576.625479 kJ/mol
# Density = 1.991941 g / cm^3
# Si number density = 19.964852 Si / 1000 Ang^3
#
#
#
# Elastic Constant Matrix: (Units=GPa)
#
#
# Indices 1 2 3 4 5 6 
#
# 1 13.0514 6.9213 -14.5999 0.0000 0.0000 0.0000
# 2 6.9213 69.3599 14.9634 0.0000 0.0000 0.0000
# 3 -14.5999 14.9634 106.6392 0.0000 0.0000 0.0000
# 4 0.0000 0.0000 0.0000 21.1175 0.0000 0.0000
# 5 0.0000 0.0000 0.0000 0.0000 14.4467 0.0000
# 6 0.0000 0.0000 0.0000 0.0000 0.0000 16.1096
#
#
#
# Elastic Compliance Matrix: (Units=1/GPa)
#
#
# Indices 1 2 3 4 5 6 
#
# 1 0.101458 -0.013531 0.015789 0.000000 0.000000 0.000000
# 2 -0.013531 0.016672 -0.004192 0.000000 0.000000 0.000000
# 3 0.015789 -0.004192 0.012127 0.000000 0.000000 0.000000
# 4 0.000000 0.000000 0.000000 0.047354 0.000000 0.000000
# 5 0.000000 0.000000 0.000000 0.000000 0.069220 0.000000
# 6 0.000000 0.000000 0.000000 0.000000 0.000000 0.062075
#
#
# Mechanical properties :
#
#
# Convention : Reuss Voigt Hill
#
# Bulk Modulus (GPa) = 7.91201 22.62447 15.26824
# Shear Modulus (GPa) = 14.08838 22.45248 18.27043
#
# Velocity S-wave (km/s) = 2.65931 3.35714 3.02839
# Velocity P-wave (km/s) = 3.66071 5.13653 4.46009
#
# Compressibility (1/GPa) = 0.12639017
#
# Stress axis : x y z
#
# Youngs Moduli (GPa) = 9.85634 59.98053 82.45880
#
# Poissons Ratio (x) = 0.81157 -1.30195
# Poissons Ratio (y) = 0.13336 0.34565
# Poissons Ratio (z) = -0.15562 0.25143
#
# Static dielectric constant tensor:
#      x y z
#    x 1.696460 0.000000 0.000000 
#    y 0.000000 1.692050 0.000000 
#    z 0.000000 0.000000 1.779730 
# 
# From -- ./inp_files/74084.got.cif
#   From: 2010.05.17/outbox.cif.g08.bks.cpg/sg63_38_cif.got.tgz:74084.got - 2010.06.03 15:47:04.
