data_PCOD9470674
_publ_section_title
;
Structure prediction by ZEFSAII (Michael W. Deem and Ramdas Pophale) SiO2 
 PCOD9470674
Probable space group: C M C M
;
_chemical_formula_sum "Si O2"
_cell_formula_units_Z 72
_cell_length_a 15.001525
_cell_length_b 31.112844
_cell_length_c 7.724966
_cell_angle_alpha 90.000000
_cell_angle_beta 90.000000
_cell_angle_gamma 90.000000
_cell_volume 3605.551458
_symmetry_space_group_name_H-M "C M C M"
_symmetry_group_IT_number 63
_symmetry_cell_setting 'orthorhombic'
loop_
_space_group_symop_operation_xyz
x,y,z
-x,-y,1/2+z
x,-y,-z
-x,y,1/2-z
-x,-y,-z
x,y,1/2-z
-x,y,z
x,-y,1/2+z
1/2+x,1/2+y,z
1/2-x,1/2-y,1/2+z
1/2+x,1/2-y,-z
1/2-x,1/2+y,1/2-z
1/2-x,1/2-y,-z
1/2+x,1/2+y,1/2-z
1/2-x,1/2+y,z
1/2+x,1/2-y,1/2+z
loop_
_atom_site_type_symbol
_atom_site_label
_atom_site_fract_x
_atom_site_fract_y
_atom_site_fract_z
Si Si1 0.500000 0.737204 0.537368
Si Si2 0.500000 0.835987 0.545163
Si Si3 0.194800 0.949831 0.041435
Si Si4 0.691455 0.127932 0.957986
Si Si5 0.692437 0.292153 0.458226
Si Si6 0.000000 0.949290 0.457534
O O1 0.500000 0.737240 0.750000
O O2 0.500000 0.786919 0.476567
O O3 0.591306 0.714612 0.480125
O O4 0.500000 0.831631 0.750000
O O5 0.410273 0.860706 0.496226
O O6 0.192222 0.947535 0.250000
O O7 0.271140 0.917695 0.978139
O O8 0.096682 0.934242 0.977858
O O9 0.207577 0.000000 0.000000
O O10 0.699309 0.127683 0.750000
O O11 0.755044 0.166240 0.024691
O O12 0.688059 0.295731 0.250000
O O13 0.750000 0.250000 0.500000
O O14 0.000000 0.943150 0.250000
O O15 0.000000 0.000000 0.500000
#
# Coordination Sequence:
#
# PCOD9470674 Si02
#       6
#     8   8  16  16  16   8
#     4   9  18  32  51  76 105 136 172 212 253 305
#     4  11  21  35  55  76 102 139 180 218 262 316
#     4   9  18  33  53  79 108 139 175 216 261 312
#     4  10  21  35  54  79 106 137 176 219 263 312
#     4  10  19  33  52  75 104 136 170 211 255 303
#     4   8  14  27  49  74 101 133 165 200 249 306
#
# _framework density 19.969207000000001
#
# number of rings (size 3 to 8) (size 9 to 14) (size 15 to 20)
#    0.000    2.444    2.222    0.333    0.000    1.778 
#    0.000    5.556    0.000    0.000    0.000    4.667 
#    0.000    0.000    0.000    0.000    0.000    0.000 
#
# Total GULP energy -200783.649424 kJ/mol
# GULP energy per Si atom -5577.323595 kJ/mol
# Density = 1.992376 g / cm^3
# Si number density = 19.969207 Si / 1000 Ang^3
#
#
#
# Elastic Constant Matrix: (Units=GPa)
#
#
# Indices 1 2 3 4 5 6 
#
# 1 219.8055 104.5702 7.7603 0.0000 0.0000 0.0000
# 2 104.5702 126.1713 7.4782 0.0000 0.0000 0.0000
# 3 7.7603 7.4782 31.7617 0.0000 0.0000 0.0000
# 4 0.0000 0.0000 0.0000 16.2496 0.0000 0.0000
# 5 0.0000 0.0000 0.0000 0.0000 7.5132 0.0000
# 6 0.0000 0.0000 0.0000 0.0000 0.0000 35.7742
#
#
#
# Elastic Compliance Matrix: (Units=1/GPa)
#
#
# Indices 1 2 3 4 5 6 
#
# 1 0.007515 -0.006207 -0.000375 0.000000 0.000000 0.000000
# 2 -0.006207 0.013163 -0.001583 0.000000 0.000000 0.000000
# 3 -0.000375 -0.001583 0.031949 0.000000 0.000000 0.000000
# 4 0.000000 0.000000 0.000000 0.061540 0.000000 0.000000
# 5 0.000000 0.000000 0.000000 0.000000 0.133099 0.000000
# 6 0.000000 0.000000 0.000000 0.000000 0.000000 0.027953
#
#
# Mechanical properties :
#
#
# Convention : Reuss Voigt Hill
#
# Bulk Modulus (GPa) = 27.54894 68.59512 48.07203
# Shear Modulus (GPa) = 16.46643 29.10271 22.78457
#
# Velocity S-wave (km/s) = 2.87468 3.82171 3.38151
# Velocity P-wave (km/s) = 4.98438 7.34159 6.27467
#
# Compressibility (1/GPa) = 0.03629904
#
# Stress axis : x y z
#
# Youngs Moduli (GPa) = 133.06022 75.96782 31.30009
#
# Poissons Ratio (x) = 0.47149 0.01174
# Poissons Ratio (y) = 0.82584 0.04954
# Poissons Ratio (z) = 0.04989 0.12025
#
# Static dielectric constant tensor:
#      x y z
#    x 1.672860 0.000000 0.000000 
#    y 0.000000 1.692410 0.000000 
#    z 0.000000 0.000000 1.745630 
# 
# From -- ./inp_files/4973.got.cif
#   From: 2010.05.17/outbox.cif.g08.bks.cpg/sg63_3_cif.got.tgz:4973.got - 2010.06.03 15:47:04.
