data_PCOD9470110
_publ_section_title
;
Structure prediction by ZEFSAII (Michael W. Deem and Ramdas Pophale) SiO2 
 PCOD9470110
Probable space group: C M C M
;
_chemical_formula_sum "Si O2"
_cell_formula_units_Z 72
_cell_length_a 29.371556
_cell_length_b 14.447520
_cell_length_c 7.469008
_cell_angle_alpha 90.000000
_cell_angle_beta 90.000000
_cell_angle_gamma 90.000000
_cell_volume 3169.444735
_symmetry_space_group_name_H-M "C M C M"
_symmetry_group_IT_number 63
_symmetry_cell_setting 'orthorhombic'
loop_
_space_group_symop_operation_xyz
x,y,z
-x,-y,1/2+z
x,-y,-z
-x,y,1/2-z
-x,-y,-z
x,y,1/2-z
-x,y,z
x,-y,1/2+z
1/2+x,1/2+y,z
1/2-x,1/2-y,1/2+z
1/2+x,1/2-y,-z
1/2-x,1/2+y,1/2-z
1/2-x,1/2-y,-z
1/2+x,1/2+y,1/2-z
1/2-x,1/2+y,z
1/2+x,1/2-y,1/2+z
loop_
_atom_site_type_symbol
_atom_site_label
_atom_site_fract_x
_atom_site_fract_y
_atom_site_fract_z
Si Si1 0.212652 0.358148 0.469334
Si Si2 0.385542 0.901314 0.461775
Si Si3 0.691220 0.645018 0.955542
Si Si4 0.906296 0.808452 0.460896
Si Si5 0.000000 0.891450 0.035340
O O1 0.214075 0.355826 0.250000
O O2 0.166494 0.406722 0.531382
O O3 0.261677 0.395100 0.533993
O O4 0.203861 0.254122 0.538933
O O5 0.383491 0.891629 0.250000
O O6 0.405079 0.803265 0.526039
O O7 0.408686 0.000000 0.500000
O O8 0.687836 0.612668 0.750000
O O9 0.640423 0.645581 0.036481
O O10 0.904902 0.830280 0.250000
O O11 0.953303 0.847268 0.535923
O O12 0.000000 0.875587 0.250000
O O13 0.000000 0.000000 0.000000
#
# Coordination Sequence:
#
# PCOD9470110 Si02
#       5
#    16  16  16  16   8
#     4   8  14  24  40  65  96 130 167 203 239 283
#     4  10  19  31  49  75 108 143 176 209 248 301
#     4   8  13  24  44  67  93 127 165 204 245 289
#     4   9  18  34  55  77 102 134 172 215 262 307
#     4  10  22  40  61  82 103 128 163 212 266 316
#
# _framework density 22.716915
#
# number of rings (size 3 to 8) (size 9 to 14) (size 15 to 20)
#    0.000    3.111    0.000    0.667    0.000    1.778 
#    0.000    1.667    0.000    0.000    0.000    0.000 
#    0.000    0.000    0.000    0.000    0.000    0.000 
#
# Total GULP energy -200440.975036 kJ/mol
# GULP energy per Si atom -5567.804862 kJ/mol
# Density = 2.266521 g / cm^3
# Si number density = 22.716915 Si / 1000 Ang^3
#
#
#
# Elastic Constant Matrix: (Units=GPa)
#
#
# Indices 1 2 3 4 5 6 
#
# 1 197.9141 58.9926 10.7563 0.0000 0.0000 0.0000
# 2 58.9926 90.7747 -21.4089 0.0000 0.0000 0.0000
# 3 10.7563 -21.4089 79.2860 0.0000 0.0000 0.0000
# 4 0.0000 0.0000 0.0000 12.2590 0.0000 0.0000
# 5 0.0000 0.0000 0.0000 0.0000 -1.1930 0.0000
# 6 0.0000 0.0000 0.0000 0.0000 0.0000 -2.1774
#
#
#
# Elastic Compliance Matrix: (Units=1/GPa)
#
#
# Indices 1 2 3 4 5 6 
#
# 1 0.006606 -0.004811 -0.002195 0.000000 0.000000 0.000000
# 2 -0.004811 0.015269 0.004776 0.000000 0.000000 0.000000
# 3 -0.002195 0.004776 0.014200 0.000000 0.000000 0.000000
# 4 0.000000 0.000000 0.000000 0.081573 0.000000 0.000000
# 5 0.000000 0.000000 0.000000 0.000000 -0.838253 0.000000
# 6 0.000000 0.000000 0.000000 0.000000 0.000000 -0.459266
#
#
# Mechanical properties :
#
#
# Convention : Reuss Voigt Hill
#
# Bulk Modulus (GPa) = 31.63144 51.62829 41.62987
# Shear Modulus (GPa) = -4.29232 23.08671 9.39719
#
# Velocity S-wave (km/s) = -1.37608 3.19137 2.03608
# Velocity P-wave (km/s) = 3.38077 6.02959 4.88802
#
# Compressibility (1/GPa) = 0.03161411
#
# Stress axis : x y z
#
# Youngs Moduli (GPa) = 151.37817 65.49194 70.42299
#
# Poissons Ratio (x) = 0.31507 0.15459
# Poissons Ratio (y) = 0.72825 -0.33631
# Poissons Ratio (z) = 0.33231 -0.31277
#
# Static dielectric constant tensor:
#      x y z
#    x 1.923210 0.000000 0.000000 
#    y 0.000000 1.801270 0.000000 
#    z 0.000000 0.000000 1.858510 
# 
# From -- ./inp_files/13898.got.cif
#   From: 2010.05.17/outbox.cif.g08.bks.cpg/sg63_7_cif.got.tgz:13898.got - 2010.06.03 15:47:04.
