data_PCOD9470665
_publ_section_title
;
Structure prediction by ZEFSAII (Michael W. Deem and Ramdas Pophale) SiO2 
 PCOD9470665
Probable space group: C M C M
;
_chemical_formula_sum "Si O2"
_cell_formula_units_Z 96
_cell_length_a 12.080283
_cell_length_b 26.057954
_cell_length_c 18.261844
_cell_angle_alpha 90.000000
_cell_angle_beta 90.000000
_cell_angle_gamma 90.000000
_cell_volume 5748.599464
_symmetry_space_group_name_H-M "C M C M"
_symmetry_group_IT_number 63
_symmetry_cell_setting 'orthorhombic'
loop_
_space_group_symop_operation_xyz
x,y,z
-x,-y,1/2+z
x,-y,-z
-x,y,1/2-z
-x,-y,-z
x,y,1/2-z
-x,y,z
x,-y,1/2+z
1/2+x,1/2+y,z
1/2-x,1/2-y,1/2+z
1/2+x,1/2-y,-z
1/2-x,1/2+y,1/2-z
1/2-x,1/2-y,-z
1/2+x,1/2+y,1/2-z
1/2-x,1/2+y,z
1/2+x,1/2-y,1/2+z
loop_
_atom_site_type_symbol
_atom_site_label
_atom_site_fract_x
_atom_site_fract_y
_atom_site_fract_z
Si Si1 0.132120 0.399986 0.337947
Si Si2 0.000000 0.131551 0.333480
Si Si3 0.866995 0.709618 0.419498
Si Si4 0.744710 0.382485 0.661008
Si Si5 0.373592 0.983980 0.838976
Si Si6 0.290939 0.198414 0.913859
Si Si7 0.000000 0.745940 0.667401
O O1 0.144468 0.395359 0.250000
O O2 0.160447 0.458403 0.360206
O O3 0.205394 0.357916 0.378853
O O4 0.000000 0.391839 0.353704
O O5 0.881907 0.117288 0.366775
O O6 0.000000 0.192987 0.329714
O O7 0.000000 0.110853 0.250000
O O8 0.812369 0.666606 0.367555
O O9 0.817088 0.766223 0.403373
O O10 0.823685 0.696404 0.501012
O O11 0.000000 0.708609 0.416160
O O12 0.742737 0.379667 0.750000
O O13 0.801739 0.435599 0.637904
O O14 0.373878 0.984034 0.750000
O O15 0.500000 0.976212 0.863154
O O16 0.391104 0.227710 0.873605
O O17 0.000000 0.725070 0.750000
#
# Coordination Sequence:
#
# PCOD9470665 Si02
#       7
#    16   8  16  16  16  16   8
#     4   9  16  29  53  79 100 127 168 216 256 295
#     4   9  18  30  50  78  96 120 174 225 253 283
#     4  11  23  35  49  73 107 142 166 202 258 313
#     4  10  19  33  52  74 101 134 172 213 254 304
#     4   8  15  28  48  75 102 128 161 206 263 309
#     4  11  21  34  52  76 105 133 169 210 255 307
#     4  11  18  32  56  80  99 125 173 224 257 287
#
# _framework density 16.699719999999999
#
# number of rings (size 3 to 8) (size 9 to 14) (size 15 to 20)
#    0.000    2.167    3.333    2.000    0.000    1.667 
#    0.000    0.833    1.833    3.000    0.000    1.167 
#    0.000    0.000    0.000    0.000    0.000    0.000 
#
# Total GULP energy -267490.091007 kJ/mol
# GULP energy per Si atom -5572.710229 kJ/mol
# Density = 1.666171 g / cm^3
# Si number density = 16.699720 Si / 1000 Ang^3
#
#
#
# Elastic Constant Matrix: (Units=GPa)
#
#
# Indices 1 2 3 4 5 6 
#
# 1 113.8681 78.3739 13.7168 0.0000 0.0000 0.0000
# 2 78.3739 140.9240 27.7863 0.0000 0.0000 0.0000
# 3 13.7168 27.7863 35.4005 0.0000 0.0000 0.0000
# 4 0.0000 0.0000 0.0000 -58.4365 0.0000 0.0000
# 5 0.0000 0.0000 0.0000 0.0000 15.8708 0.0000
# 6 0.0000 0.0000 0.0000 0.0000 0.0000 52.2997
#
#
#
# Elastic Compliance Matrix: (Units=1/GPa)
#
#
# Indices 1 2 3 4 5 6 
#
# 1 0.014249 -0.008088 0.000827 0.000000 0.000000 0.000000
# 2 -0.008088 0.012986 -0.007059 0.000000 0.000000 0.000000
# 3 0.000827 -0.007059 0.033468 0.000000 0.000000 0.000000
# 4 0.000000 0.000000 0.000000 -0.017113 0.000000 0.000000
# 5 0.000000 0.000000 0.000000 0.000000 0.063009 0.000000
# 6 0.000000 0.000000 0.000000 0.000000 0.000000 0.019121
#
#
# Mechanical properties :
#
#
# Convention : Reuss Voigt Hill
#
# Bulk Modulus (GPa) = 31.18766 58.88295 45.03531
# Shear Modulus (GPa) = 30.29443 13.30117 21.79780
#
# Velocity S-wave (km/s) = 4.26381 2.82528 3.61678
# Velocity P-wave (km/s) = 6.55410 6.78080 6.66841
#
# Compressibility (1/GPa) = 0.03206396
#
# Stress axis : x y z
#
# Youngs Moduli (GPa) = 70.18019 77.00796 29.87895
#
# Poissons Ratio (x) = 0.62280 -0.02471
# Poissons Ratio (y) = 0.56758 0.21091
# Poissons Ratio (z) = -0.05803 0.54359
#
# Static dielectric constant tensor:
#      x y z
#    x 1.557340 0.000000 0.000000 
#    y 0.000000 1.574890 0.000000 
#    z 0.000000 0.000000 1.598500 
# 
# From -- ./inp_files/53099.got.cif
#   From: 2010.05.17/outbox.cif.g08.bks.cpg/sg63_27_cif.got.tgz:53099.got - 2010.06.03 15:47:04.
