data_PCOD9470668
_publ_section_title
;
Structure prediction by ZEFSAII (Michael W. Deem and Ramdas Pophale) SiO2 
 PCOD9470668
Probable space group: C M C M
;
_chemical_formula_sum "Si O2"
_cell_formula_units_Z 96
_cell_length_a 7.999510
_cell_length_b 24.097651
_cell_length_c 26.564129
_cell_angle_alpha 90.000000
_cell_angle_beta 90.000000
_cell_angle_gamma 90.000000
_cell_volume 5120.751213
_symmetry_space_group_name_H-M "C M C M"
_symmetry_group_IT_number 63
_symmetry_cell_setting 'orthorhombic'
loop_
_space_group_symop_operation_xyz
x,y,z
-x,-y,1/2+z
x,-y,-z
-x,y,1/2-z
-x,-y,-z
x,y,1/2-z
-x,y,z
x,-y,1/2+z
1/2+x,1/2+y,z
1/2-x,1/2-y,1/2+z
1/2+x,1/2-y,-z
1/2-x,1/2+y,1/2-z
1/2-x,1/2-y,-z
1/2+x,1/2+y,1/2-z
1/2-x,1/2+y,z
1/2+x,1/2-y,1/2+z
loop_
_atom_site_type_symbol
_atom_site_label
_atom_site_fract_x
_atom_site_fract_y
_atom_site_fract_z
Si Si1 0.808772 0.500974 0.940372
Si Si2 0.702757 0.314121 0.999810
Si Si3 0.298467 0.563055 0.692945
Si Si4 0.801698 0.436493 0.806388
Si Si5 0.306170 0.617292 0.095918
Si Si6 0.693633 0.617535 0.904477
O O1 0.720021 0.444783 0.924494
O O2 0.707337 0.555297 0.925756
O O3 0.000000 0.503012 0.919879
O O4 0.821359 0.500000 0.000000
O O5 0.500000 0.320297 0.999928
O O6 0.766363 0.343712 0.051291
O O7 0.750000 0.250000 0.000000
O O8 0.765966 0.343292 0.948157
O O9 0.236742 0.571832 0.750000
O O10 0.500000 0.567721 0.693184
O O11 0.260625 0.498636 0.679394
O O12 0.233564 0.607099 0.651562
O O13 0.735490 0.424775 0.750000
O O14 0.762139 0.389540 0.847538
O O15 0.000000 0.440755 0.803769
O O16 0.500000 0.631223 0.100552
O O17 0.500000 0.634245 0.898424
#
# Coordination Sequence:
#
# PCOD9470668 Si02
#       6
#    16  16  16  16  16  16
#     4  11  21  30  46  77 109 138 170 207 260 317
#     4  10  23  39  55  75  99 135 181 225 270 313
#     4   9  17  29  48  75 106 141 174 203 247 309
#     4  10  20  32  48  76 112 143 173 210 255 308
#     4  11  21  34  53  76 105 140 177 216 260 317
#     4  10  19  33  52  74 105 140 172 211 257 313
#
# _framework density 18.747250000000001
#
# number of rings (size 3 to 8) (size 9 to 14) (size 15 to 20)
#    0.000    1.833    3.333    1.500    0.000    3.667 
#    0.000    0.000    0.000    1.000    0.000    2.333 
#    0.000    0.000    0.000    0.000    0.000    0.000 
#
# Total GULP energy -267397.036350 kJ/mol
# GULP energy per Si atom -5570.771591 kJ/mol
# Density = 1.870458 g / cm^3
# Si number density = 18.747250 Si / 1000 Ang^3
#
#
#
# Elastic Constant Matrix: (Units=GPa)
#
#
# Indices 1 2 3 4 5 6 
#
# 1 19.6410 -9.7059 8.0903 0.0000 0.0000 0.0000
# 2 -9.7059 93.8037 64.9039 0.0000 0.0000 0.0000
# 3 8.0903 64.9039 174.3093 0.0000 0.0000 0.0000
# 4 0.0000 0.0000 0.0000 12.8891 0.0000 0.0000
# 5 0.0000 0.0000 0.0000 0.0000 5.9961 0.0000
# 6 0.0000 0.0000 0.0000 0.0000 0.0000 9.9296
#
#
#
# Elastic Compliance Matrix: (Units=1/GPa)
#
#
# Indices 1 2 3 4 5 6 
#
# 1 0.059023 0.010780 -0.006753 0.000000 0.000000 0.000000
# 2 0.010780 0.016329 -0.006580 0.000000 0.000000 0.000000
# 3 -0.006753 -0.006580 0.008501 0.000000 0.000000 0.000000
# 4 0.000000 0.000000 0.000000 0.077585 0.000000 0.000000
# 5 0.000000 0.000000 0.000000 0.000000 0.166775 0.000000
# 6 0.000000 0.000000 0.000000 0.000000 0.000000 0.100709
#
#
# Mechanical properties :
#
#
# Convention : Reuss Voigt Hill
#
# Bulk Modulus (GPa) = 12.69931 46.03675 29.36803
# Shear Modulus (GPa) = 10.86302 20.72734 15.79518
#
# Velocity S-wave (km/s) = 2.40978 3.32869 2.90579
# Velocity P-wave (km/s) = 3.81200 6.27562 5.19205
#
# Compressibility (1/GPa) = 0.07874445
#
# Stress axis : x y z
#
# Youngs Moduli (GPa) = 16.94262 61.24060 117.63882
#
# Poissons Ratio (x) = -0.66016 0.79445
# Poissons Ratio (y) = -0.18264 0.77411
# Poissons Ratio (z) = 0.11442 0.40299
#
# Static dielectric constant tensor:
#      x y z
#    x 1.680880 0.000000 0.000000 
#    y 0.000000 1.589280 0.000000 
#    z 0.000000 0.000000 1.761030 
# 
# From -- ./inp_files/67212.got.cif
#   From: 2010.05.17/outbox.cif.g08.bks.cpg/sg63_34_cif.got.tgz:67212.got - 2010.06.03 15:47:04.
