data_PCOD9470073
_publ_section_title
;
Structure prediction by ZEFSAII (Michael W. Deem and Ramdas Pophale) SiO2 
 PCOD9470073
Probable space group: C M C M
;
_chemical_formula_sum "Si O2"
_cell_formula_units_Z 80
_cell_length_a 8.531337
_cell_length_b 19.725547
_cell_length_c 26.993013
_cell_angle_alpha 90.000000
_cell_angle_beta 90.000000
_cell_angle_gamma 90.000000
_cell_volume 4542.526993
_symmetry_space_group_name_H-M "C M C M"
_symmetry_group_IT_number 63
_symmetry_cell_setting 'orthorhombic'
loop_
_space_group_symop_operation_xyz
x,y,z
-x,-y,1/2+z
x,-y,-z
-x,y,1/2-z
-x,-y,-z
x,y,1/2-z
-x,y,z
x,-y,1/2+z
1/2+x,1/2+y,z
1/2-x,1/2-y,1/2+z
1/2+x,1/2-y,-z
1/2-x,1/2+y,1/2-z
1/2-x,1/2-y,-z
1/2+x,1/2+y,1/2-z
1/2-x,1/2+y,z
1/2+x,1/2-y,1/2+z
loop_
_atom_site_type_symbol
_atom_site_label
_atom_site_fract_x
_atom_site_fract_y
_atom_site_fract_z
Si Si1 0.809392 0.075340 0.642464
Si Si2 0.689238 0.670104 0.552250
Si Si3 0.680443 0.418179 0.750000
Si Si4 0.687632 0.077382 0.355681
Si Si5 0.689170 0.826556 0.554975
Si Si6 0.681350 0.416874 0.250000
O O1 0.758447 0.121716 0.596786
O O2 0.751038 0.101916 0.696328
O O3 0.000000 0.075243 0.644290
O O4 0.755036 0.997992 0.636565
O O5 0.500000 0.669029 0.551271
O O6 0.739658 0.748119 0.560714
O O7 0.750449 0.648862 0.498330
O O8 0.500000 0.397087 0.750000
O O9 0.760765 0.397501 0.801283
O O10 0.683266 0.500784 0.750000
O O11 0.500000 0.073545 0.356762
O O12 0.741863 0.127016 0.399475
O O13 0.500000 0.827336 0.554226
O O14 0.500000 0.394204 0.250000
#
# Coordination Sequence:
#
# PCOD9470073 Si02
#       6
#    16  16   8  16  16   8
#     4   9  17  30  49  72  95 122 161 202 237 279
#     4   9  18  33  51  69  92 126 167 204 238 282
#     4   9  17  31  50  71  97 127 159 193 232 280
#     4  10  19  31  49  73 100 126 155 194 240 289
#     4   9  19  34  49  68  96 129 162 197 242 289
#     4   7  12  25  44  65  89 115 143 183 232 272
#
# _framework density 17.611342
#
# number of rings (size 3 to 8) (size 9 to 14) (size 15 to 20)
#    0.000    3.000    0.000    2.100    0.000    3.200 
#    0.000    5.000    0.000    4.800    0.000    0.000 
#    0.000    0.000    0.000    0.000    0.000    0.000 
#
# Total GULP energy -222798.865754 kJ/mol
# GULP energy per Si atom -5569.971644 kJ/mol
# Density = 1.757126 g / cm^3
# Si number density = 17.611342 Si / 1000 Ang^3
#
#
#
# Elastic Constant Matrix: (Units=GPa)
#
#
# Indices 1 2 3 4 5 6 
#
# 1 13.6755 12.2916 25.6138 0.0000 0.0000 0.0000
# 2 12.2916 56.3244 88.8772 0.0000 0.0000 0.0000
# 3 25.6138 88.8772 219.8458 0.0000 0.0000 0.0000
# 4 0.0000 0.0000 0.0000 -18.4077 0.0000 0.0000
# 5 0.0000 0.0000 0.0000 0.0000 28.7168 0.0000
# 6 0.0000 0.0000 0.0000 0.0000 0.0000 18.0039
#
#
#
# Elastic Compliance Matrix: (Units=1/GPa)
#
#
# Indices 1 2 3 4 5 6 
#
# 1 0.095171 -0.009038 -0.007434 0.000000 0.000000 0.000000
# 2 -0.009038 0.049892 -0.019117 0.000000 0.000000 0.000000
# 3 -0.007434 -0.019117 0.013143 0.000000 0.000000 0.000000
# 4 0.000000 0.000000 0.000000 -0.054325 0.000000 0.000000
# 5 0.000000 0.000000 0.000000 0.000000 0.034823 0.000000
# 6 0.000000 0.000000 0.000000 0.000000 0.000000 0.055544
#
#
# Mechanical properties :
#
#
# Convention : Reuss Voigt Hill
#
# Bulk Modulus (GPa) = 11.49053 60.37898 35.93476
# Shear Modulus (GPa) = 16.98160 16.53348 16.75754
#
# Velocity S-wave (km/s) = 3.10859 3.06730 3.08802
# Velocity P-wave (km/s) = 4.40717 6.84858 5.75874
#
# Compressibility (1/GPa) = 0.08702817
#
# Stress axis : x y z
#
# Youngs Moduli (GPa) = 10.50736 20.04315 76.08456
#
# Poissons Ratio (x) = 0.18115 0.56565
# Poissons Ratio (y) = 0.09496 1.45451
# Poissons Ratio (z) = 0.07812 0.38317
#
# Static dielectric constant tensor:
#      x y z
#    x 1.608180 0.000000 0.000000 
#    y 0.000000 1.579190 0.000000 
#    z 0.000000 0.000000 1.621740 
# 
# From -- ./inp_files/59776.got.cif
#   From: 2010.05.17/outbox.cif.g08.bks.cpg/sg63_30_cif.got.tgz:59776.got - 2010.06.03 15:47:04.
