data_PCOD9470130
_publ_section_title
;
Structure prediction by ZEFSAII (Michael W. Deem and Ramdas Pophale) SiO2 
 PCOD9470130
Probable space group: C M C M
;
_chemical_formula_sum "Si O2"
_cell_formula_units_Z 80
_cell_length_a 7.329819
_cell_length_b 20.187830
_cell_length_c 23.270542
_cell_angle_alpha 90.000000
_cell_angle_beta 90.000000
_cell_angle_gamma 90.000000
_cell_volume 3443.415167
_symmetry_space_group_name_H-M "C M C M"
_symmetry_group_IT_number 63
_symmetry_cell_setting 'orthorhombic'
loop_
_space_group_symop_operation_xyz
x,y,z
-x,-y,1/2+z
x,-y,-z
-x,y,1/2-z
-x,-y,-z
x,y,1/2-z
-x,y,z
x,-y,1/2+z
1/2+x,1/2+y,z
1/2-x,1/2-y,1/2+z
1/2+x,1/2-y,-z
1/2-x,1/2+y,1/2-z
1/2-x,1/2-y,-z
1/2+x,1/2+y,1/2-z
1/2-x,1/2+y,z
1/2+x,1/2-y,1/2+z
loop_
_atom_site_type_symbol
_atom_site_label
_atom_site_fract_x
_atom_site_fract_y
_atom_site_fract_z
Si Si1 0.777892 0.850226 0.855178
Si Si2 0.723091 0.505945 0.186035
Si Si3 0.792182 0.098264 0.594420
Si Si4 0.781568 0.172926 0.484960
Si Si5 0.720896 0.207348 0.686750
O O1 0.723974 0.783304 0.822877
O O2 0.000000 0.850589 0.855243
O O3 0.722304 0.918517 0.825984
O O4 0.716509 0.844297 0.921230
O O5 0.781213 0.484972 0.250000
O O6 0.500000 0.503005 0.185746
O O7 0.788575 0.459403 0.134153
O O8 0.709776 0.124493 0.534918
O O9 0.793923 0.161741 0.636302
O O10 0.000000 0.077333 0.581523
O O11 0.750000 0.250000 0.500000
O O12 0.000000 0.165088 0.484464
O O13 0.777368 0.184398 0.750000
O O14 0.500000 0.204457 0.683690
#
# Coordination Sequence:
#
# PCOD9470130 Si02
#       5
#    16  16  16  16  16
#     4   9  17  30  49  72  98 131 169 207 244 289
#     4   9  17  30  48  72 103 133 163 206 255 298
#     4  10  20  32  50  76 103 132 163 203 257 304
#     4  10  19  32  51  75 102 131 166 209 251 295
#     4  10  19  31  50  74  98 130 172 210 244 290
#
# _framework density 23.232751
#
# number of rings (size 3 to 8) (size 9 to 14) (size 15 to 20)
#    0.000    2.400    2.000    1.200    0.000    4.400 
#    0.000    4.000    0.000    2.400    0.000    2.800 
#    0.000    0.000    0.000    0.000    0.000    0.000 
#
# Total GULP energy -223556.506119 kJ/mol
# GULP energy per Si atom -5588.912653 kJ/mol
# Density = 2.317987 g / cm^3
# Si number density = 23.232751 Si / 1000 Ang^3
#
#
#
# Elastic Constant Matrix: (Units=GPa)
#
#
# Indices 1 2 3 4 5 6 
#
# 1 93.0286 -11.7580 -3.6297 0.0000 0.0000 0.0000
# 2 -11.7580 75.2057 -12.1616 0.0000 0.0000 0.0000
# 3 -3.6297 -12.1616 99.7305 0.0000 0.0000 0.0000
# 4 0.0000 0.0000 0.0000 -565.2167 0.0000 0.0000
# 5 0.0000 0.0000 0.0000 0.0000 1.4669 0.0000
# 6 0.0000 0.0000 0.0000 0.0000 0.0000 2.9957
#
#
#
# Elastic Compliance Matrix: (Units=1/GPa)
#
#
# Indices 1 2 3 4 5 6 
#
# 1 0.011004 0.001821 0.000623 0.000000 0.000000 0.000000
# 2 0.001821 0.013866 0.001757 0.000000 0.000000 0.000000
# 3 0.000623 0.001757 0.010264 0.000000 0.000000 0.000000
# 4 0.000000 0.000000 0.000000 -0.001769 0.000000 0.000000
# 5 0.000000 0.000000 0.000000 0.000000 0.681728 0.000000
# 6 0.000000 0.000000 0.000000 0.000000 0.000000 0.333817
#
#
# Mechanical properties :
#
#
# Convention : Reuss Voigt Hill
#
# Bulk Modulus (GPa) = 22.97004 23.65182 23.31093
# Shear Modulus (GPa) = 4.73925 -92.44990 -43.85533
#
# Velocity S-wave (km/s) = 1.42980 -6.31501 -4.34942
# Velocity P-wave (km/s) = 3.55446 6.55515 3.89460
#
# Compressibility (1/GPa) = 0.04353497
#
# Stress axis : x y z
#
# Youngs Moduli (GPa) = 90.87743 72.12031 97.42840
#
# Poissons Ratio (x) = -0.13134 -0.06065
# Poissons Ratio (y) = -0.16549 -0.17119
# Poissons Ratio (z) = -0.05658 -0.12672
#
# Static dielectric constant tensor:
#      x y z
#    x 2.010070 0.000000 0.000000 
#    y 0.000000 1.818270 0.000000 
#    z 0.000000 0.000000 1.978090 
# 
# From -- ./inp_files/61126.got.cif
#   From: 2010.05.17/outbox.cif.g08.bks.cpg/sg63_31_cif.got.tgz:61126.got - 2010.06.03 15:47:04.
