data_PCOD9470827
_publ_section_title
;
Structure prediction by ZEFSAII (Michael W. Deem and Ramdas Pophale) SiO2 
 PCOD9470827
Probable space group: C M C M
;
_chemical_formula_sum "Si O2"
_cell_formula_units_Z 112
_cell_length_a 13.195482
_cell_length_b 14.889251
_cell_length_c 24.712008
_cell_angle_alpha 90.000000
_cell_angle_beta 90.000000
_cell_angle_gamma 90.000000
_cell_volume 4855.189058
_symmetry_space_group_name_H-M "C M C M"
_symmetry_group_IT_number 63
_symmetry_cell_setting 'orthorhombic'
loop_
_space_group_symop_operation_xyz
x,y,z
-x,-y,1/2+z
x,-y,-z
-x,y,1/2-z
-x,-y,-z
x,y,1/2-z
-x,y,z
x,-y,1/2+z
1/2+x,1/2+y,z
1/2-x,1/2-y,1/2+z
1/2+x,1/2-y,-z
1/2-x,1/2+y,1/2-z
1/2-x,1/2-y,-z
1/2+x,1/2+y,1/2-z
1/2-x,1/2+y,z
1/2+x,1/2-y,1/2+z
loop_
_atom_site_type_symbol
_atom_site_label
_atom_site_fract_x
_atom_site_fract_y
_atom_site_fract_z
Si Si1 0.173096 0.337273 0.689717
Si Si2 0.611879 0.712435 0.528618
Si Si3 0.279548 0.988806 0.119733
Si Si4 0.392973 0.311625 0.659065
Si Si5 0.106497 0.057921 0.437467
Si Si6 0.115603 0.133574 0.815105
Si Si7 0.334817 0.173556 0.932848
O O1 0.135599 0.361638 0.750000
O O2 0.174112 0.423307 0.649191
O O3 0.292359 0.313541 0.692986
O O4 0.125159 0.241274 0.673095
O O5 0.500000 0.712964 0.554469
O O6 0.611129 0.634146 0.482808
O O7 0.626072 0.802172 0.492493
O O8 0.713215 0.696032 0.563096
O O9 0.204041 0.928119 0.158158
O O10 0.359106 0.921609 0.093278
O O11 0.211131 0.008376 0.066514
O O12 0.500000 0.300518 0.687330
O O13 0.395328 0.401397 0.622967
O O14 0.380548 0.240042 0.611433
O O15 0.000000 0.007572 0.443783
O O16 0.126228 0.125481 0.750000
O O17 0.000000 0.105101 0.829342
#
# Coordination Sequence:
#
# PCOD9470827 Si02
#       7
#    16  16  16  16  16  16  16
#     4  10  21  38  59  86 123 158 193 242 300 357
#     4   9  19  36  56  80 114 151 188 238 298 348
#     4  11  20  33  58  89 116 154 200 244 289 348
#     4   9  17  34  56  81 111 145 186 236 294 343
#     4   8  16  30  50  77 110 142 178 231 289 340
#     4  10  21  38  59  85 122 163 200 244 300 357
#     4  10  19  33  54  85 112 150 192 239 287 351
#
# _framework density 23.068103000000001
#
# number of rings (size 3 to 8) (size 9 to 14) (size 15 to 20)
#    0.000    2.429    1.429    2.143    0.000    2.571 
#    0.000    2.857    0.000    0.000    0.000   13.000 
#    0.000    0.000    0.000    0.000    0.000    0.000 
#
# Total GULP energy -312017.805130 kJ/mol
# GULP energy per Si atom -5571.746520 kJ/mol
# Density = 2.301560 g / cm^3
# Si number density = 23.068103 Si / 1000 Ang^3
#
#
#
# Elastic Constant Matrix: (Units=GPa)
#
#
# Indices 1 2 3 4 5 6 
#
# 1 70.9391 4.4506 9.7938 0.0000 0.0000 0.0000
# 2 4.4506 89.1755 14.4359 0.0000 0.0000 0.0000
# 3 9.7938 14.4359 78.5968 0.0000 0.0000 0.0000
# 4 0.0000 0.0000 0.0000 28.4296 0.0000 0.0000
# 5 0.0000 0.0000 0.0000 0.0000 14.7818 0.0000
# 6 0.0000 0.0000 0.0000 0.0000 0.0000 -28.7648
#
#
#
# Elastic Compliance Matrix: (Units=1/GPa)
#
#
# Indices 1 2 3 4 5 6 
#
# 1 0.014360 -0.000440 -0.001709 0.000000 0.000000 0.000000
# 2 -0.000440 0.011571 -0.002070 0.000000 0.000000 0.000000
# 3 -0.001709 -0.002070 0.013316 0.000000 0.000000 0.000000
# 4 0.000000 0.000000 0.000000 0.035175 0.000000 0.000000
# 5 0.000000 0.000000 0.000000 0.000000 0.067651 0.000000
# 6 0.000000 0.000000 0.000000 0.000000 0.000000 -0.034765
#
#
# Mechanical properties :
#
#
# Convention : Reuss Voigt Hill
#
# Bulk Modulus (GPa) = 32.45775 32.89689 32.67732
# Shear Modulus (GPa) = 39.67760 16.89142 28.28451
#
# Velocity S-wave (km/s) = 4.15181 2.70893 3.50541
# Velocity P-wave (km/s) = 6.08969 4.90674 5.52994
#
# Compressibility (1/GPa) = 0.03080928
#
# Stress axis : x y z
#
# Youngs Moduli (GPa) = 69.63748 86.42321 75.09577
#
# Poissons Ratio (x) = 0.03804 0.12830
# Poissons Ratio (y) = 0.03065 0.15548
# Poissons Ratio (z) = 0.11898 0.17893
#
# Static dielectric constant tensor:
#      x y z
#    x 1.981470 0.000000 0.000000 
#    y 0.000000 1.938260 0.000000 
#    z 0.000000 0.000000 1.880420 
# 
# From -- ./inp_files/69423.got.cif
#   From: 2010.05.17/outbox.cif.g08.bks.cpg/sg63_35_cif.got.tgz:69423.got - 2010.06.03 15:47:04.
