data_PCOD9470615
_publ_section_title
;
Structure prediction by ZEFSAII (Michael W. Deem and Ramdas Pophale) SiO2 
 PCOD9470615
Probable space group: C M C M
;
_chemical_formula_sum "Si O2"
_cell_formula_units_Z 104
_cell_length_a 23.226046
_cell_length_b 31.373807
_cell_length_c 7.758577
_cell_angle_alpha 90.000000
_cell_angle_beta 90.000000
_cell_angle_gamma 90.000000
_cell_volume 5653.593475
_symmetry_space_group_name_H-M "C M C M"
_symmetry_group_IT_number 63
_symmetry_cell_setting 'orthorhombic'
loop_
_space_group_symop_operation_xyz
x,y,z
-x,-y,1/2+z
x,-y,-z
-x,y,1/2-z
-x,-y,-z
x,y,1/2-z
-x,y,z
x,-y,1/2+z
1/2+x,1/2+y,z
1/2-x,1/2-y,1/2+z
1/2+x,1/2-y,-z
1/2-x,1/2+y,1/2-z
1/2-x,1/2-y,-z
1/2+x,1/2+y,1/2-z
1/2-x,1/2+y,z
1/2+x,1/2-y,1/2+z
loop_
_atom_site_type_symbol
_atom_site_label
_atom_site_fract_x
_atom_site_fract_y
_atom_site_fract_z
Si Si1 0.387159 0.603748 0.044776
Si Si2 0.933040 0.377737 0.960807
Si Si3 0.933390 0.284233 0.542939
Si Si4 0.000000 0.049960 0.954261
Si Si5 0.651508 0.951584 0.542499
Si Si6 0.434028 0.307787 0.956306
Si Si7 0.282259 0.451537 0.957729
O O1 0.378375 0.608035 0.250000
O O2 0.400744 0.650937 0.975551
O O3 0.330426 0.580649 0.974129
O O4 0.443081 0.574017 0.020610
O O5 0.932938 0.378382 0.750000
O O6 0.911147 0.330550 0.014005
O O7 0.892799 0.416023 0.021787
O O8 0.000000 0.382461 0.012563
O O9 0.933822 0.284808 0.750000
O O10 0.907689 0.238820 0.490693
O O11 0.000000 0.283022 0.482334
O O12 0.000000 0.053745 0.750000
O O13 0.000000 0.000000 0.000000
O O14 0.652982 0.948259 0.750000
O O15 0.716975 0.944819 0.478221
O O16 0.634363 0.000000 0.500000
O O17 0.437693 0.312203 0.750000
O O18 0.500000 0.308744 0.024236
O O19 0.280601 0.448057 0.750000
O O20 0.299125 0.500000 0.000000
#
# Coordination Sequence:
#
# PCOD9470615 Si02
#       7
#    16  16  16   8  16  16  16
#     4  10  19  33  48  64  89 119 151 188 231 275
#     4   8  14  26  45  68  94 122 149 181 222 265
#     4   8  14  25  42  63  86 114 148 183 215 258
#     4  12  24  34  46  66  92 120 150 188 235 278
#     4   9  17  30  47  68  91 118 153 187 222 265
#     4   9  16  27  43  62  86 114 142 180 228 270
#     4   9  18  31  48  65  84 115 154 190 222 265
#
# _framework density 18.395379999999999
#
# number of rings (size 3 to 8) (size 9 to 14) (size 15 to 20)
#    0.000    2.923    0.769    2.077    0.000    2.769 
#    0.000    0.769    0.000    1.846    0.000    0.000 
#    0.000    0.000    0.000    0.000    0.000    0.000 
#
# Total GULP energy -289687.404363 kJ/mol
# GULP energy per Si atom -5570.911622 kJ/mol
# Density = 1.835351 g / cm^3
# Si number density = 18.395380 Si / 1000 Ang^3
#
#
#
# Elastic Constant Matrix: (Units=GPa)
#
#
# Indices 1 2 3 4 5 6 
#
# 1 77.2184 97.6369 2.6262 0.0000 0.0000 0.0000
# 2 97.6369 214.1419 2.0032 0.0000 0.0000 0.0000
# 3 2.6262 2.0032 23.3752 0.0000 0.0000 0.0000
# 4 0.0000 0.0000 0.0000 22.8800 0.0000 0.0000
# 5 0.0000 0.0000 0.0000 0.0000 -0.2401 0.0000
# 6 0.0000 0.0000 0.0000 0.0000 0.0000 16.2650
#
#
#
# Elastic Compliance Matrix: (Units=1/GPa)
#
#
# Indices 1 2 3 4 5 6 
#
# 1 0.030698 -0.013975 -0.002251 0.000000 0.000000 0.000000
# 2 -0.013975 0.011036 0.000624 0.000000 0.000000 0.000000
# 3 -0.002251 0.000624 0.042980 0.000000 0.000000 0.000000
# 4 0.000000 0.000000 0.000000 0.043706 0.000000 0.000000
# 5 0.000000 0.000000 0.000000 0.000000 -4.165631 0.000000
# 6 0.000000 0.000000 0.000000 0.000000 0.000000 0.061482
#
#
# Mechanical properties :
#
#
# Convention : Reuss Voigt Hill
#
# Bulk Modulus (GPa) = 18.68848 57.69645 38.19246
# Shear Modulus (GPa) = -1.27334 21.94561 10.33613
#
# Velocity S-wave (km/s) = -0.83289 3.45772 2.37299
# Velocity P-wave (km/s) = 3.04244 6.88287 5.32120
#
# Compressibility (1/GPa) = 0.05350890
#
# Stress axis : x y z
#
# Youngs Moduli (GPa) = 32.57573 90.61282 23.26677
#
# Poissons Ratio (x) = 1.26635 0.05238
# Poissons Ratio (y) = 0.45526 -0.01453
# Poissons Ratio (z) = 0.07334 -0.05658
#
# Static dielectric constant tensor:
#      x y z
#    x 1.981050 0.000000 0.000000 
#    y 0.000000 1.654140 0.000000 
#    z 0.000000 0.000000 1.677100 
# 
# From -- ./inp_files/11086.got.cif
#   From: 2010.05.17/outbox.cif.g08.bks.cpg/sg63_6_cif.got.tgz:11086.got - 2010.06.03 15:47:04.
