data_PCOD9470039
_publ_section_title
;
Structure prediction by ZEFSAII (Michael W. Deem and Ramdas Pophale) SiO2 
 PCOD9470039
Probable space group: C M C M
;
_chemical_formula_sum "Si O2"
_cell_formula_units_Z 112
_cell_length_a 26.117915
_cell_length_b 12.890392
_cell_length_c 18.529532
_cell_angle_alpha 90.000000
_cell_angle_beta 90.000000
_cell_angle_gamma 90.000000
_cell_volume 6238.340551
_symmetry_space_group_name_H-M "C M C M"
_symmetry_group_IT_number 63
_symmetry_cell_setting 'orthorhombic'
loop_
_space_group_symop_operation_xyz
x,y,z
-x,-y,1/2+z
x,-y,-z
-x,y,1/2-z
-x,-y,-z
x,y,1/2-z
-x,y,z
x,-y,1/2+z
1/2+x,1/2+y,z
1/2-x,1/2-y,1/2+z
1/2+x,1/2-y,-z
1/2-x,1/2+y,1/2-z
1/2-x,1/2-y,-z
1/2+x,1/2+y,1/2-z
1/2-x,1/2+y,z
1/2+x,1/2-y,1/2+z
loop_
_atom_site_type_symbol
_atom_site_label
_atom_site_fract_x
_atom_site_fract_y
_atom_site_fract_z
Si Si1 0.893405 0.306189 0.331417
Si Si2 0.559786 0.119291 0.520620
Si Si3 0.852621 0.760021 0.037380
Si Si4 0.271376 0.096965 0.448231
Si Si5 0.659995 0.385756 0.598883
Si Si6 0.203259 0.543692 0.830124
Si Si7 0.820296 0.105803 0.835220
O O1 0.914946 0.308629 0.250000
O O2 0.927898 0.352508 0.395714
O O3 0.873310 0.192243 0.353078
O O4 0.841691 0.374037 0.331776
O O5 0.500000 0.137631 0.506487
O O6 0.596881 0.192926 0.474438
O O7 0.571279 0.000000 0.500000
O O8 0.804452 0.686438 0.014707
O O9 0.840983 0.800170 0.117045
O O10 0.855488 0.858154 0.983254
O O11 0.221281 0.135203 0.405753
O O12 0.256407 0.000000 0.500000
O O13 0.307206 0.043513 0.388837
O O14 0.656359 0.500559 0.630824
O O15 0.206887 0.497803 0.750000
O O16 0.258695 0.594896 0.845078
O O17 0.830359 0.113718 0.750000
#
# Coordination Sequence:
#
# PCOD9470039 Si02
#       7
#    16  16  16  16  16  16  16
#     4  10  19  33  55  79 104 137 177 216 258 308
#     4  10  22  40  59  79 103 130 166 218 274 318
#     4  11  20  32  53  75 100 138 179 219 262 310
#     4  11  19  29  47  74 107 143 179 212 248 304
#     4  10  19  31  48  75 108 141 173 210 249 298
#     4   9  18  30  45  72 109 143 173 210 254 302
#     4  10  20  33  49  74 110 146 178 210 249 302
#
# _framework density 17.953492000000001
#
# number of rings (size 3 to 8) (size 9 to 14) (size 15 to 20)
#    0.000    1.857    0.000    6.857    0.000    1.429 
#    0.000    0.714    0.000    8.143    0.000    0.000 
#    0.000    0.000    0.000    0.000    0.000    0.000 
#
# Total GULP energy -312302.384594 kJ/mol
# GULP energy per Si atom -5576.828296 kJ/mol
# Density = 1.791263 g / cm^3
# Si number density = 17.953492 Si / 1000 Ang^3
#
#
#
# Elastic Constant Matrix: (Units=GPa)
#
#
# Indices 1 2 3 4 5 6 
#
# 1 57.2320 28.2103 17.4445 0.0000 0.0000 0.0000
# 2 28.2103 63.1702 27.9230 0.0000 0.0000 0.0000
# 3 17.4445 27.9230 91.2099 0.0000 0.0000 0.0000
# 4 0.0000 0.0000 0.0000 26.9030 0.0000 0.0000
# 5 0.0000 0.0000 0.0000 0.0000 16.9913 0.0000
# 6 0.0000 0.0000 0.0000 0.0000 0.0000 20.2627
#
#
#
# Elastic Compliance Matrix: (Units=1/GPa)
#
#
# Indices 1 2 3 4 5 6 
#
# 1 0.022563 -0.009447 -0.001423 0.000000 0.000000 0.000000
# 2 -0.009447 0.022263 -0.005009 0.000000 0.000000 0.000000
# 3 -0.001423 -0.005009 0.012769 0.000000 0.000000 0.000000
# 4 0.000000 0.000000 0.000000 0.037171 0.000000 0.000000
# 5 0.000000 0.000000 0.000000 0.000000 0.058854 0.000000
# 6 0.000000 0.000000 0.000000 0.000000 0.000000 0.049352
#
#
# Mechanical properties :
#
#
# Convention : Reuss Voigt Hill
#
# Bulk Modulus (GPa) = 38.70365 39.86310 39.28337
# Shear Modulus (GPa) = 20.54719 22.03368 21.29044
#
# Velocity S-wave (km/s) = 3.38667 3.50703 3.44738
# Velocity P-wave (km/s) = 6.07431 6.21698 6.14606
#
# Compressibility (1/GPa) = 0.02583736
#
# Stress axis : x y z
#
# Youngs Moduli (GPa) = 44.32010 44.91732 78.31267
#
# Poissons Ratio (x) = 0.42434 0.11146
# Poissons Ratio (y) = 0.41869 0.39225
# Poissons Ratio (z) = 0.06308 0.22498
#
# Static dielectric constant tensor:
#      x y z
#    x 1.586140 0.000000 0.000000 
#    y 0.000000 1.652720 0.000000 
#    z 0.000000 0.000000 1.660520 
# 
# From -- ./inp_files/58308.got.cif
#   From: 2010.05.17/outbox.cif.g08.bks.cpg/sg63_30_cif.got.tgz:58308.got - 2010.06.03 15:47:04.
