data_PCOD9470949
_publ_section_title
;
Structure prediction by ZEFSAII (Michael W. Deem and Ramdas Pophale) SiO2 
 PCOD9470949
Probable space group: C M C M
;
_chemical_formula_sum "Si O2"
_cell_formula_units_Z 96
_cell_length_a 18.686142
_cell_length_b 12.376416
_cell_length_c 23.581913
_cell_angle_alpha 90.000000
_cell_angle_beta 90.000000
_cell_angle_gamma 90.000000
_cell_volume 5453.729282
_symmetry_space_group_name_H-M "C M C M"
_symmetry_group_IT_number 63
_symmetry_cell_setting 'orthorhombic'
loop_
_space_group_symop_operation_xyz
x,y,z
-x,-y,1/2+z
x,-y,-z
-x,y,1/2-z
-x,-y,-z
x,y,1/2-z
-x,y,z
x,-y,1/2+z
1/2+x,1/2+y,z
1/2-x,1/2-y,1/2+z
1/2+x,1/2-y,-z
1/2-x,1/2+y,1/2-z
1/2-x,1/2-y,-z
1/2+x,1/2+y,1/2-z
1/2-x,1/2+y,z
1/2+x,1/2-y,1/2+z
loop_
_atom_site_type_symbol
_atom_site_label
_atom_site_fract_x
_atom_site_fract_y
_atom_site_fract_z
Si Si1 0.797725 0.996542 0.684123
Si Si2 0.675041 0.288587 0.112071
Si Si3 0.333267 0.297224 0.606174
Si Si4 0.634750 0.909624 0.685304
Si Si5 0.418805 0.136413 0.684021
Si Si6 0.415640 0.629765 0.505271
O O1 0.821358 0.995691 0.750000
O O2 0.833835 0.904463 0.645408
O O3 0.714194 0.962558 0.683916
O O4 0.809427 0.112485 0.655159
O O5 0.751633 0.238348 0.093401
O O6 0.634492 0.192518 0.144703
O O7 0.628327 0.331238 0.059997
O O8 0.368221 0.202988 0.643320
O O9 0.378491 0.318856 0.549912
O O10 0.620261 0.875709 0.750000
O O11 0.584319 0.009446 0.670087
O O12 0.395778 0.146710 0.750000
O O13 0.500000 0.176117 0.679373
O O14 0.409955 0.500000 0.500000
O O15 0.500000 0.657219 0.508762
#
# Coordination Sequence:
#
# PCOD9470949 Si02
#       6
#    16  16  16  16  16  16
#     4  10  19  33  58  90 120 145 187 242 288 340
#     4  11  21  37  61  88 114 152 195 243 289 340
#     4  11  21  38  61  88 113 151 199 243 287 339
#     4   9  19  34  55  86 120 153 184 227 291 349
#     4  10  20  35  57  86 122 157 188 230 288 351
#     4  11  24  42  60  79 113 156 197 244 296 342
#
# _framework density 17.602633999999998
#
# number of rings (size 3 to 8) (size 9 to 14) (size 15 to 20)
#    0.000    1.667    3.333    2.000    0.000    2.000 
#    0.000    0.833    0.000    4.500    0.000    0.000 
#    0.000    0.000    0.000    0.000    0.000    0.000 
#
# Total GULP energy -267894.626181 kJ/mol
# GULP energy per Si atom -5581.138045 kJ/mol
# Density = 1.756257 g / cm^3
# Si number density = 17.602634 Si / 1000 Ang^3
#
#
#
# Elastic Constant Matrix: (Units=GPa)
#
#
# Indices 1 2 3 4 5 6 
#
# 1 70.7058 32.0765 48.2854 0.0000 0.0000 0.0000
# 2 32.0765 89.5839 55.6786 0.0000 0.0000 0.0000
# 3 48.2854 55.6786 102.2457 0.0000 0.0000 0.0000
# 4 0.0000 0.0000 0.0000 33.0018 0.0000 0.0000
# 5 0.0000 0.0000 0.0000 0.0000 10.0843 0.0000
# 6 0.0000 0.0000 0.0000 0.0000 0.0000 14.7586
#
#
#
# Elastic Compliance Matrix: (Units=1/GPa)
#
#
# Indices 1 2 3 4 5 6 
#
# 1 0.021124 -0.002061 -0.008854 0.000000 0.000000 0.000000
# 2 -0.002061 0.017075 -0.008325 0.000000 0.000000 0.000000
# 3 -0.008854 -0.008325 0.018495 0.000000 0.000000 0.000000
# 4 0.000000 0.000000 0.000000 0.030301 0.000000 0.000000
# 5 0.000000 0.000000 0.000000 0.000000 0.099164 0.000000
# 6 0.000000 0.000000 0.000000 0.000000 0.000000 0.067757
#
#
# Mechanical properties :
#
#
# Convention : Reuss Voigt Hill
#
# Bulk Modulus (GPa) = 54.90004 59.40181 57.15093
# Shear Modulus (GPa) = 16.75224 20.00192 18.37708
#
# Velocity S-wave (km/s) = 3.08829 3.37457 3.23460
# Velocity P-wave (km/s) = 6.63121 7.00020 6.81820
#
# Compressibility (1/GPa) = 0.01821492
#
# Stress axis : x y z
#
# Youngs Moduli (GPa) = 47.33893 58.56568 54.06919
#
# Poissons Ratio (x) = 0.12071 0.47870
# Poissons Ratio (y) = 0.09757 0.45012
# Poissons Ratio (z) = 0.41912 0.48755
#
# Static dielectric constant tensor:
#      x y z
#    x 1.599560 0.000000 0.000000 
#    y 0.000000 1.586860 0.000000 
#    z 0.000000 0.000000 1.572640 
# 
# From -- ./inp_files/56526.got.cif
#   From: 2010.05.17/outbox.cif.g08.bks.cpg/sg63_29_cif.got.tgz:56526.got - 2010.06.03 15:47:04.
