data_PCOD9470407
_publ_section_title
;
Structure prediction by ZEFSAII (Michael W. Deem and Ramdas Pophale) SiO2 
 PCOD9470407
Probable space group: C M C M
;
_chemical_formula_sum "Si O2"
_cell_formula_units_Z 112
_cell_length_a 20.213129
_cell_length_b 16.274501
_cell_length_c 13.940091
_cell_angle_alpha 90.000000
_cell_angle_beta 90.000000
_cell_angle_gamma 90.000000
_cell_volume 4585.712654
_symmetry_space_group_name_H-M "C M C M"
_symmetry_group_IT_number 63
_symmetry_cell_setting 'orthorhombic'
loop_
_space_group_symop_operation_xyz
x,y,z
-x,-y,1/2+z
x,-y,-z
-x,y,1/2-z
-x,-y,-z
x,y,1/2-z
-x,y,z
x,-y,1/2+z
1/2+x,1/2+y,z
1/2-x,1/2-y,1/2+z
1/2+x,1/2-y,-z
1/2-x,1/2+y,1/2-z
1/2-x,1/2-y,-z
1/2+x,1/2+y,1/2-z
1/2-x,1/2+y,z
1/2+x,1/2-y,1/2+z
loop_
_atom_site_type_symbol
_atom_site_label
_atom_site_fract_x
_atom_site_fract_y
_atom_site_fract_z
Si Si1 0.611416 0.698336 0.940063
Si Si2 0.580704 0.949802 0.354419
Si Si3 0.249108 0.356372 0.364573
Si Si4 0.579018 0.882094 0.560650
Si Si5 0.337945 0.697711 0.136605
Si Si6 0.220559 0.031626 0.143709
Si Si7 0.071496 0.025786 0.889192
O O1 0.686978 0.681294 0.914441
O O2 0.573689 0.624760 0.887909
O O3 0.595817 0.790419 0.910354
O O4 0.605017 0.690513 0.056201
O O5 0.604625 0.919783 0.250000
O O6 0.500000 0.947653 0.351253
O O7 0.602743 0.043818 0.372155
O O8 0.599136 0.901970 0.451008
O O9 0.262074 0.363095 0.250000
O O10 0.193627 0.287333 0.375344
O O11 0.244601 0.451196 0.401069
O O12 0.500000 0.888653 0.561419
O O13 0.355426 0.687160 0.250000
O O14 0.284914 0.625631 0.109980
O O15 0.248540 0.038293 0.250000
O O16 0.141970 0.006598 0.148109
O O17 0.000000 0.997272 0.851695
O O18 0.073619 0.000000 0.000000
#
# Coordination Sequence:
#
# PCOD9470407 Si02
#       7
#    16  16  16  16  16  16  16
#     4  11  20  33  53  79 108 142 174 220 273 325
#     4   8  15  31  52  69  94 137 179 212 251 301
#     4   9  20  36  55  78 103 134 179 228 273 326
#     4   9  18  31  49  76 106 135 175 220 264 318
#     4  10  20  36  55  77 104 138 181 226 273 331
#     4   9  18  35  56  76 104 143 183 227 280 331
#     4  10  19  32  51  76 108 145 184 220 263 316
#
# _framework density 24.423684999999999
#
# number of rings (size 3 to 8) (size 9 to 14) (size 15 to 20)
#    0.000    2.571    1.429    1.714    0.000    1.429 
#    0.000    2.857    0.000    5.571    0.000    0.000 
#    0.000    0.000    0.000    0.000    0.000    0.000 
#
# Total GULP energy -312557.246735 kJ/mol
# GULP energy per Si atom -5581.379406 kJ/mol
# Density = 2.436810 g / cm^3
# Si number density = 24.423685 Si / 1000 Ang^3
#
#
#
# Elastic Constant Matrix: (Units=GPa)
#
#
# Indices 1 2 3 4 5 6 
#
# 1 59.6493 24.3572 20.5121 0.0000 0.0000 0.0000
# 2 24.3572 152.8644 -1.3079 0.0000 0.0000 0.0000
# 3 20.5121 -1.3079 74.2702 0.0000 0.0000 0.0000
# 4 0.0000 0.0000 0.0000 26.9271 0.0000 0.0000
# 5 0.0000 0.0000 0.0000 0.0000 0.0144 0.0000
# 6 0.0000 0.0000 0.0000 0.0000 0.0000 23.1514
#
#
#
# Elastic Compliance Matrix: (Units=1/GPa)
#
#
# Indices 1 2 3 4 5 6 
#
# 1 0.020005 -0.003235 -0.005582 0.000000 0.000000 0.000000
# 2 -0.003235 0.007066 0.001018 0.000000 0.000000 0.000000
# 3 -0.005582 0.001018 0.015024 0.000000 0.000000 0.000000
# 4 0.000000 0.000000 0.000000 0.037137 0.000000 0.000000
# 5 0.000000 0.000000 0.000000 0.000000 69.239812 0.000000
# 6 0.000000 0.000000 0.000000 0.000000 0.000000 0.043194
#
#
# Mechanical properties :
#
#
# Convention : Reuss Voigt Hill
#
# Bulk Modulus (GPa) = 37.74112 41.54518 39.64315
# Shear Modulus (GPa) = 0.07206 26.23344 13.15275
#
# Velocity S-wave (km/s) = 0.17195 3.28090 2.32313
# Velocity P-wave (km/s) = 3.94026 5.60353 4.84382
#
# Compressibility (1/GPa) = 0.02649630
#
# Stress axis : x y z
#
# Youngs Moduli (GPa) = 49.98665 141.52326 66.56036
#
# Poissons Ratio (x) = 0.45788 0.37155
# Poissons Ratio (y) = 0.16173 -0.06776
# Poissons Ratio (z) = 0.27903 -0.14407
#
# Static dielectric constant tensor:
#      x y z
#    x 1.956220 0.000000 0.000000 
#    y 0.000000 1.952260 0.000000 
#    z 0.000000 0.000000 1.949810 
# 
# From -- ./inp_files/36870.got.cif
#   From: 2010.05.17/outbox.cif.g08.bks.cpg/sg63_19_cif.got.tgz:36870.got - 2010.06.03 15:47:04.
