data_PCOD9470672
_publ_section_title
;
Structure prediction by ZEFSAII (Michael W. Deem and Ramdas Pophale) SiO2 
 PCOD9470672
Probable space group: C M C M
;
_chemical_formula_sum "Si O2"
_cell_formula_units_Z 96
_cell_length_a 7.448377
_cell_length_b 20.499118
_cell_length_c 28.946324
_cell_angle_alpha 90.000000
_cell_angle_beta 90.000000
_cell_angle_gamma 90.000000
_cell_volume 4419.674083
_symmetry_space_group_name_H-M "C M C M"
_symmetry_group_IT_number 63
_symmetry_cell_setting 'orthorhombic'
loop_
_space_group_symop_operation_xyz
x,y,z
-x,-y,1/2+z
x,-y,-z
-x,y,1/2-z
-x,-y,-z
x,y,1/2-z
-x,y,z
x,-y,1/2+z
1/2+x,1/2+y,z
1/2-x,1/2-y,1/2+z
1/2+x,1/2-y,-z
1/2-x,1/2+y,1/2-z
1/2-x,1/2-y,-z
1/2+x,1/2+y,1/2-z
1/2-x,1/2+y,z
1/2+x,1/2-y,1/2+z
loop_
_atom_site_type_symbol
_atom_site_label
_atom_site_fract_x
_atom_site_fract_y
_atom_site_fract_z
Si Si1 0.218323 0.207565 0.198822
Si Si2 0.788137 0.692516 0.562612
Si Si3 0.716459 0.338194 0.961779
Si Si4 0.282654 0.847579 0.337655
Si Si5 0.289855 0.489264 0.301133
Si Si6 0.780873 0.904796 0.628141
O O1 0.276348 0.187405 0.250000
O O2 0.274384 0.281187 0.187647
O O3 0.272048 0.157443 0.159217
O O4 0.000000 0.207314 0.198539
O O5 0.764447 0.653075 0.515250
O O6 0.716763 0.765859 0.553449
O O7 0.719732 0.659167 0.609182
O O8 0.000000 0.701142 0.570376
O O9 0.500000 0.336382 0.960207
O O10 0.778808 0.390725 0.924147
O O11 0.500000 0.849358 0.336664
O O12 0.222014 0.913345 0.313356
O O13 0.212539 0.501762 0.250000
O O14 0.500000 0.506951 0.298203
O O15 0.216850 0.532298 0.343483
O O16 0.000000 0.906837 0.626285
#
# Coordination Sequence:
#
# PCOD9470672 Si02
#       6
#    16  16  16  16  16  16
#     4   9  15  25  47  75  96 119 162 213 249 283
#     4   9  17  30  49  75 104 129 160 205 254 298
#     4   9  16  29  51  76 100 126 162 207 252 297
#     4  10  19  33  52  75 101 132 169 207 247 296
#     4  10  21  35  51  73 103 136 166 202 252 303
#     4   9  16  30  50  73  99 128 165 208 249 291
#
# _framework density 21.721056999999998
#
# number of rings (size 3 to 8) (size 9 to 14) (size 15 to 20)
#    0.000    2.667    1.667    1.000    0.000    3.667 
#    0.000    1.667    0.000    6.000    0.000    0.000 
#    0.000    0.000    0.000    0.000    0.000    0.000 
#
# Total GULP energy -267905.674442 kJ/mol
# GULP energy per Si atom -5581.368218 kJ/mol
# Density = 2.167162 g / cm^3
# Si number density = 21.721057 Si / 1000 Ang^3
#
#
#
# Elastic Constant Matrix: (Units=GPa)
#
#
# Indices 1 2 3 4 5 6 
#
# 1 61.5806 -9.7544 -4.9969 0.0000 0.0000 0.0000
# 2 -9.7544 36.3590 -20.9897 0.0000 0.0000 0.0000
# 3 -4.9969 -20.9897 88.6259 0.0000 0.0000 0.0000
# 4 0.0000 0.0000 0.0000 23.9866 0.0000 0.0000
# 5 0.0000 0.0000 0.0000 0.0000 10.6861 0.0000
# 6 0.0000 0.0000 0.0000 0.0000 0.0000 9.4192
#
#
#
# Elastic Compliance Matrix: (Units=1/GPa)
#
#
# Indices 1 2 3 4 5 6 
#
# 1 0.017395 0.006062 0.002416 0.000000 0.000000 0.000000
# 2 0.006062 0.033972 0.008387 0.000000 0.000000 0.000000
# 3 0.002416 0.008387 0.013406 0.000000 0.000000 0.000000
# 4 0.000000 0.000000 0.000000 0.041690 0.000000 0.000000
# 5 0.000000 0.000000 0.000000 0.000000 0.093580 0.000000
# 6 0.000000 0.000000 0.000000 0.000000 0.000000 0.106166
#
#
# Mechanical properties :
#
#
# Convention : Reuss Voigt Hill
#
# Bulk Modulus (GPa) = 10.15185 12.78706 11.46945
# Shear Modulus (GPa) = 16.37664 23.63879 20.00772
#
# Velocity S-wave (km/s) = 2.74880 3.30250 3.03829
# Velocity P-wave (km/s) = 3.84167 4.52125 4.19524
#
# Compressibility (1/GPa) = 0.09850424
#
# Stress axis : x y z
#
# Youngs Moduli (GPa) = 57.48732 29.43619 74.59312
#
# Poissons Ratio (x) = -0.17843 -0.18025
# Poissons Ratio (y) = -0.34847 -0.62565
# Poissons Ratio (z) = -0.13891 -0.24690
#
# Static dielectric constant tensor:
#      x y z
#    x 1.792070 0.000000 0.000000 
#    y 0.000000 1.748600 0.000000 
#    z 0.000000 0.000000 1.822930 
# 
# From -- ./inp_files/66875.got.cif
#   From: 2010.05.17/outbox.cif.g08.bks.cpg/sg63_34_cif.got.tgz:66875.got - 2010.06.03 15:47:04.
