data_PCOD9470688
_publ_section_title
;
Structure prediction by ZEFSAII (Michael W. Deem and Ramdas Pophale) SiO2 
 PCOD9470688
Probable space group: C M C M
;
_chemical_formula_sum "Si O2"
_cell_formula_units_Z 96
_cell_length_a 9.001274
_cell_length_b 24.174049
_cell_length_c 26.697780
_cell_angle_alpha 90.000000
_cell_angle_beta 90.000000
_cell_angle_gamma 90.000000
_cell_volume 5809.363208
_symmetry_space_group_name_H-M "C M C M"
_symmetry_group_IT_number 63
_symmetry_cell_setting 'orthorhombic'
loop_
_space_group_symop_operation_xyz
x,y,z
-x,-y,1/2+z
x,-y,-z
-x,y,1/2-z
-x,-y,-z
x,y,1/2-z
-x,y,z
x,-y,1/2+z
1/2+x,1/2+y,z
1/2-x,1/2-y,1/2+z
1/2+x,1/2-y,-z
1/2-x,1/2+y,1/2-z
1/2-x,1/2-y,-z
1/2+x,1/2+y,1/2-z
1/2-x,1/2+y,z
1/2+x,1/2-y,1/2+z
loop_
_atom_site_type_symbol
_atom_site_label
_atom_site_fract_x
_atom_site_fract_y
_atom_site_fract_z
Si Si1 0.321254 0.232908 0.446653
Si Si2 0.828143 0.569391 0.960322
Si Si3 0.327439 0.827985 0.114105
Si Si4 0.321060 0.409773 0.191487
Si Si5 0.322137 0.893869 0.928497
Si Si6 0.676134 0.507566 0.381095
O O1 0.500000 0.235163 0.451419
O O2 0.250000 0.250000 0.500000
O O3 0.263661 0.275345 0.404752
O O4 0.278195 0.170347 0.431524
O O5 0.822917 0.627815 0.931498
O O6 0.726556 0.527794 0.929531
O O7 0.000000 0.549857 0.958239
O O8 0.784649 0.579819 0.017314
O O9 0.500000 0.814350 0.123294
O O10 0.256835 0.860571 0.160826
O O11 0.284058 0.409041 0.250000
O O12 0.500000 0.404327 0.186110
O O13 0.278342 0.468057 0.165233
O O14 0.500000 0.895885 0.923565
O O15 0.250150 0.932584 0.886535
O O16 0.500000 0.513716 0.380091
#
# Coordination Sequence:
#
# PCOD9470688 Si02
#       6
#    16  16  16  16  16  16
#     4  11  21  34  51  73 104 143 182 214 254 306
#     4   9  17  31  47  66  99 139 169 200 247 302
#     4  10  19  33  52  78 106 134 174 217 257 304
#     4   9  19  37  58  78 102 132 166 212 270 318
#     4  10  20  33  47  67 101 143 174 199 246 305
#     4  10  20  31  47  75 100 126 169 215 256 301
#
# _framework density 16.525048000000002
#
# number of rings (size 3 to 8) (size 9 to 14) (size 15 to 20)
#    0.000    2.167    1.667    2.000    0.000    5.667 
#    0.000    0.000    0.000    1.000    0.000    4.667 
#    0.000    0.000    0.000    0.000    0.000    0.000 
#
# Total GULP energy -267769.709695 kJ/mol
# GULP energy per Si atom -5578.535619 kJ/mol
# Density = 1.648744 g / cm^3
# Si number density = 16.525048 Si / 1000 Ang^3
#
#
#
# Elastic Constant Matrix: (Units=GPa)
#
#
# Indices 1 2 3 4 5 6 
#
# 1 42.4072 40.9817 36.8608 0.0000 0.0000 0.0000
# 2 40.9817 107.8912 54.6530 0.0000 0.0000 0.0000
# 3 36.8608 54.6530 101.3785 0.0000 0.0000 0.0000
# 4 0.0000 0.0000 0.0000 9.9996 0.0000 0.0000
# 5 0.0000 0.0000 0.0000 0.0000 19.8583 0.0000
# 6 0.0000 0.0000 0.0000 0.0000 0.0000 30.3891
#
#
#
# Elastic Compliance Matrix: (Units=1/GPa)
#
#
# Indices 1 2 3 4 5 6 
#
# 1 0.042877 -0.011541 -0.009368 0.000000 0.000000 0.000000
# 2 -0.011541 0.015857 -0.004352 0.000000 0.000000 0.000000
# 3 -0.009368 -0.004352 0.015617 0.000000 0.000000 0.000000
# 4 0.000000 0.000000 0.000000 0.100004 0.000000 0.000000
# 5 0.000000 0.000000 0.000000 0.000000 0.050357 0.000000
# 6 0.000000 0.000000 0.000000 0.000000 0.000000 0.032907
#
#
# Mechanical properties :
#
#
# Convention : Reuss Voigt Hill
#
# Bulk Modulus (GPa) = 41.96797 57.40754 49.68775
# Shear Modulus (GPa) = 15.81862 19.99482 17.90672
#
# Velocity S-wave (km/s) = 3.09730 3.48224 3.29540
# Velocity P-wave (km/s) = 6.18407 7.14024 6.67929
#
# Compressibility (1/GPa) = 0.02382769
#
# Stress axis : x y z
#
# Youngs Moduli (GPa) = 23.32261 63.06355 64.03480
#
# Poissons Ratio (x) = 0.72782 0.59988
# Poissons Ratio (y) = 0.26917 0.27869
# Poissons Ratio (z) = 0.21849 0.27447
#
# Static dielectric constant tensor:
#      x y z
#    x 1.556970 0.000000 0.000000 
#    y 0.000000 1.573610 0.000000 
#    z 0.000000 0.000000 1.531980 
# 
# From -- ./inp_files/59941.got.cif
#   From: 2010.05.17/outbox.cif.g08.bks.cpg/sg63_30_cif.got.tgz:59941.got - 2010.06.03 15:47:04.
