data_PCOD9470944
_publ_section_title
;
Structure prediction by ZEFSAII (Michael W. Deem and Ramdas Pophale) SiO2 
 PCOD9470944
Probable space group: C M C M
;
_chemical_formula_sum "Si O2"
_cell_formula_units_Z 96
_cell_length_a 8.684272
_cell_length_b 25.525371
_cell_length_c 24.331625
_cell_angle_alpha 90.000000
_cell_angle_beta 90.000000
_cell_angle_gamma 90.000000
_cell_volume 5393.573422
_symmetry_space_group_name_H-M "C M C M"
_symmetry_group_IT_number 63
_symmetry_cell_setting 'orthorhombic'
loop_
_space_group_symop_operation_xyz
x,y,z
-x,-y,1/2+z
x,-y,-z
-x,y,1/2-z
-x,-y,-z
x,y,1/2-z
-x,y,z
x,-y,1/2+z
1/2+x,1/2+y,z
1/2-x,1/2-y,1/2+z
1/2+x,1/2-y,-z
1/2-x,1/2+y,1/2-z
1/2-x,1/2-y,-z
1/2+x,1/2+y,1/2-z
1/2-x,1/2+y,z
1/2+x,1/2-y,1/2+z
loop_
_atom_site_type_symbol
_atom_site_label
_atom_site_fract_x
_atom_site_fract_y
_atom_site_fract_z
Si Si1 0.814760 0.413291 0.934616
Si Si2 0.812738 0.143304 0.250000
Si Si3 0.185610 0.610524 0.559413
Si Si4 0.183163 0.773328 0.056785
Si Si5 0.315445 0.684835 0.131929
Si Si6 0.685903 0.984328 0.135309
Si Si7 0.315423 0.521629 0.250000
O O1 0.734212 0.364419 0.905350
O O2 0.771376 0.466774 0.903902
O O3 0.000000 0.406889 0.929563
O O4 0.777949 0.412882 0.999175
O O5 0.764387 0.171841 0.194073
O O6 0.762023 0.082590 0.250000
O O7 0.000000 0.142503 0.250000
O O8 0.259782 0.667441 0.564031
O O9 0.234120 0.569494 0.606071
O O10 0.000000 0.616166 0.562051
O O11 0.241817 0.736333 0.105768
O O12 0.000000 0.771571 0.053647
O O13 0.250000 0.750000 0.000000
O O14 0.500000 0.689727 0.130975
O O15 0.500000 0.984015 0.139231
O O16 0.755072 0.994192 0.195046
O O17 0.500000 0.521692 0.250000
#
# Coordination Sequence:
#
# PCOD9470944 Si02
#       7
#    16   8  16  16  16  16   8
#     4  10  19  33  57  88 120 151 187 237 290 344
#     4   9  20  37  58  85 118 151 190 238 291 341
#     4  10  21  38  59  85 120 157 193 235 290 349
#     4  12  24  39  59  86 117 152 195 241 291 346
#     4  11  21  37  60  87 118 154 194 238 288 343
#     4  10  21  37  58  87 119 155 196 239 289 351
#     4  11  21  37  58  83 116 155 196 244 289 341
#
# _framework density 17.798960000000001
#
# number of rings (size 3 to 8) (size 9 to 14) (size 15 to 20)
#    0.000    1.500    3.333    2.750    0.000    2.667 
#    0.000    2.500    0.000    5.000    0.000    0.000 
#    0.000    0.000    0.000    0.000    0.000    0.000 
#
# Total GULP energy -268192.652203 kJ/mol
# GULP energy per Si atom -5587.346921 kJ/mol
# Density = 1.775845 g / cm^3
# Si number density = 17.798960 Si / 1000 Ang^3
#
#
#
# Elastic Constant Matrix: (Units=GPa)
#
#
# Indices 1 2 3 4 5 6 
#
# 1 47.8601 55.0961 53.3435 0.0000 0.0000 0.0000
# 2 55.0961 162.3868 104.8480 0.0000 0.0000 0.0000
# 3 53.3435 104.8480 179.5423 0.0000 0.0000 0.0000
# 4 0.0000 0.0000 0.0000 33.8038 0.0000 0.0000
# 5 0.0000 0.0000 0.0000 0.0000 19.5826 0.0000
# 6 0.0000 0.0000 0.0000 0.0000 0.0000 30.0066
#
#
#
# Elastic Compliance Matrix: (Units=1/GPa)
#
#
# Indices 1 2 3 4 5 6 
#
# 1 0.037960 -0.008985 -0.006031 0.000000 0.000000 0.000000
# 2 -0.008985 0.012012 -0.004345 0.000000 0.000000 0.000000
# 3 -0.006031 -0.004345 0.009899 0.000000 0.000000 0.000000
# 4 0.000000 0.000000 0.000000 0.029582 0.000000 0.000000
# 5 0.000000 0.000000 0.000000 0.000000 0.051066 0.000000
# 6 0.000000 0.000000 0.000000 0.000000 0.000000 0.033326
#
#
# Mechanical properties :
#
#
# Convention : Reuss Voigt Hill
#
# Bulk Modulus (GPa) = 47.28529 90.70714 68.99622
# Shear Modulus (GPa) = 22.76672 28.44538 25.60605
#
# Velocity S-wave (km/s) = 3.58034 4.00202 3.79704
# Velocity P-wave (km/s) = 6.61179 8.51044 7.62048
#
# Compressibility (1/GPa) = 0.02114823
#
# Stress axis : x y z
#
# Youngs Moduli (GPa) = 26.34340 83.24726 101.01915
#
# Poissons Ratio (x) = 0.74801 0.60925
# Poissons Ratio (y) = 0.23671 0.43896
# Poissons Ratio (z) = 0.15888 0.36173
#
# Static dielectric constant tensor:
#      x y z
#    x 1.602070 0.000000 0.000000 
#    y 0.000000 1.582990 0.000000 
#    z 0.000000 0.000000 1.593340 
# 
# From -- ./inp_files/60058.got.cif
#   From: 2010.05.17/outbox.cif.g08.bks.cpg/sg63_31_cif.got.tgz:60058.got - 2010.06.03 15:47:04.
