data_PCOD9470680
_publ_section_title
;
Structure prediction by ZEFSAII (Michael W. Deem and Ramdas Pophale) SiO2 
 PCOD9470680
Probable space group: C M C M
;
_chemical_formula_sum "Si O2"
_cell_formula_units_Z 80
_cell_length_a 15.649153
_cell_length_b 17.216617
_cell_length_c 14.808255
_cell_angle_alpha 90.000000
_cell_angle_beta 90.000000
_cell_angle_gamma 90.000000
_cell_volume 3989.721116
_symmetry_space_group_name_H-M "C M C M"
_symmetry_group_IT_number 63
_symmetry_cell_setting 'orthorhombic'
loop_
_space_group_symop_operation_xyz
x,y,z
-x,-y,1/2+z
x,-y,-z
-x,y,1/2-z
-x,-y,-z
x,y,1/2-z
-x,y,z
x,-y,1/2+z
1/2+x,1/2+y,z
1/2-x,1/2-y,1/2+z
1/2+x,1/2-y,-z
1/2-x,1/2+y,1/2-z
1/2-x,1/2-y,-z
1/2+x,1/2+y,1/2-z
1/2-x,1/2+y,z
1/2+x,1/2-y,1/2+z
loop_
_atom_site_type_symbol
_atom_site_label
_atom_site_fract_x
_atom_site_fract_y
_atom_site_fract_z
Si Si1 0.834171 0.428366 0.552003
Si Si2 0.404751 0.783720 0.642901
Si Si3 0.829281 0.989889 0.146531
Si Si4 0.189168 0.158187 0.964711
Si Si5 0.597860 0.346123 0.850315
O O1 0.877107 0.500000 0.500000
O O2 0.890327 0.372230 0.612300
O O3 0.757524 0.468789 0.609671
O O4 0.785558 0.370901 0.481597
O O5 0.400145 0.778629 0.750000
O O6 0.500000 0.757836 0.613398
O O7 0.332894 0.728936 0.599848
O O8 0.817983 0.963126 0.250000
O O9 0.896460 0.059969 0.146246
O O10 0.851961 0.918883 0.081084
O O11 0.150731 0.178975 0.062572
O O12 0.631551 0.324078 0.750000
O O13 0.500000 0.320714 0.857026
#
# Coordination Sequence:
#
# PCOD9470680 Si02
#       5
#    16  16  16  16  16
#     4   9  19  36  57  76  98 136 183 222 252 294
#     4  11  23  36  53  80 113 143 168 207 267 325
#     4   9  17  30  50  74 102 136 172 213 255 304
#     4  10  19  33  52  76 104 134 173 216 263 312
#     4   9  17  28  44  68  99 138 179 215 254 302
#
# _framework density 20.051527
#
# number of rings (size 3 to 8) (size 9 to 14) (size 15 to 20)
#    0.000    2.400    0.000    4.200    0.000    3.600 
#    0.000    2.000    0.000    2.400    0.000    2.800 
#    0.000    0.000    0.000    0.000    0.000    0.000 
#
# Total GULP energy -222969.580468 kJ/mol
# GULP energy per Si atom -5574.239512 kJ/mol
# Density = 2.000589 g / cm^3
# Si number density = 20.051527 Si / 1000 Ang^3
#
#
#
# Elastic Constant Matrix: (Units=GPa)
#
#
# Indices 1 2 3 4 5 6 
#
# 1 27.4899 14.9389 13.9787 0.0000 0.0000 0.0000
# 2 14.9389 69.8156 29.5549 0.0000 0.0000 0.0000
# 3 13.9787 29.5549 99.5243 0.0000 0.0000 0.0000
# 4 0.0000 0.0000 0.0000 30.5729 0.0000 0.0000
# 5 0.0000 0.0000 0.0000 0.0000 16.3979 0.0000
# 6 0.0000 0.0000 0.0000 0.0000 0.0000 47.3655
#
#
#
# Elastic Compliance Matrix: (Units=1/GPa)
#
#
# Indices 1 2 3 4 5 6 
#
# 1 0.042337 -0.007483 -0.003724 0.000000 0.000000 0.000000
# 2 -0.007483 0.017705 -0.004207 0.000000 0.000000 0.000000
# 3 -0.003724 -0.004207 0.011820 0.000000 0.000000 0.000000
# 4 0.000000 0.000000 0.000000 0.032709 0.000000 0.000000
# 5 0.000000 0.000000 0.000000 0.000000 0.060983 0.000000
# 6 0.000000 0.000000 0.000000 0.000000 0.000000 0.021112
#
#
# Mechanical properties :
#
#
# Convention : Reuss Voigt Hill
#
# Bulk Modulus (GPa) = 24.36940 34.86387 29.61663
# Shear Modulus (GPa) = 21.62881 28.09108 24.85995
#
# Velocity S-wave (km/s) = 3.28786 3.74698 3.52490
# Velocity P-wave (km/s) = 5.15685 6.01205 5.60080
#
# Compressibility (1/GPa) = 0.04103507
#
# Stress axis : x y z
#
# Youngs Moduli (GPa) = 23.61993 56.47991 84.60096
#
# Poissons Ratio (x) = 0.42261 0.31509
# Poissons Ratio (y) = 0.17674 0.35590
# Poissons Ratio (z) = 0.08797 0.23760
#
# Static dielectric constant tensor:
#      x y z
#    x 1.731090 0.000000 0.000000 
#    y 0.000000 1.721140 0.000000 
#    z 0.000000 0.000000 1.732950 
# 
# From -- ./inp_files/33850.got.cif
#   From: 2010.05.17/outbox.cif.g08.bks.cpg/sg63_17_cif.got.tgz:33850.got - 2010.06.03 15:47:04.
