data_PCOD9470575
_publ_section_title
;
Structure prediction by ZEFSAII (Michael W. Deem and Ramdas Pophale) SiO2 
 PCOD9470575
Probable space group: C M C M
;
_chemical_formula_sum "Si O2"
_cell_formula_units_Z 104
_cell_length_a 23.485277
_cell_length_b 29.011770
_cell_length_c 8.385845
_cell_angle_alpha 90.000000
_cell_angle_beta 90.000000
_cell_angle_gamma 90.000000
_cell_volume 5713.690918
_symmetry_space_group_name_H-M "C M C M"
_symmetry_group_IT_number 63
_symmetry_cell_setting 'orthorhombic'
loop_
_space_group_symop_operation_xyz
x,y,z
-x,-y,1/2+z
x,-y,-z
-x,y,1/2-z
-x,-y,-z
x,y,1/2-z
-x,y,z
x,-y,1/2+z
1/2+x,1/2+y,z
1/2-x,1/2-y,1/2+z
1/2+x,1/2-y,-z
1/2-x,1/2+y,1/2-z
1/2-x,1/2-y,-z
1/2+x,1/2+y,1/2-z
1/2-x,1/2+y,z
1/2+x,1/2-y,1/2+z
loop_
_atom_site_type_symbol
_atom_site_label
_atom_site_fract_x
_atom_site_fract_y
_atom_site_fract_z
Si Si1 0.333000 0.887863 0.056932
Si Si2 0.310232 0.791652 0.939018
Si Si3 0.774371 0.949011 0.058426
Si Si4 0.938373 0.447975 0.442059
Si Si5 0.679609 0.694716 0.059188
Si Si6 0.615631 0.397956 0.940628
Si Si7 0.500000 0.553554 0.560400
O O1 0.332658 0.884373 0.250000
O O2 0.273839 0.912256 0.009044
O O3 0.384493 0.919770 0.002509
O O4 0.341787 0.838148 0.982381
O O5 0.306610 0.784247 0.750000
O O6 0.245499 0.802858 0.000783
O O7 0.338578 0.746552 0.015523
O O8 0.778105 0.948928 0.250000
O O9 0.834341 0.933486 0.985874
O O10 0.758877 0.000000 0.000000
O O11 0.934151 0.500000 0.500000
O O12 0.937194 0.447941 0.250000
O O13 0.000000 0.429347 0.493773
O O14 0.682244 0.689601 0.250000
O O15 0.640336 0.652209 0.000895
O O16 0.609890 0.395166 0.750000
O O17 0.556287 0.418021 0.006422
O O18 0.500000 0.500000 0.500000
O O19 0.500000 0.551007 0.750000
#
# Coordination Sequence:
#
# PCOD9470575 Si02
#       7
#    16  16  16  16  16  16   8
#     4  10  20  33  51  77 109 144 181 225 277 330
#     4  10  19  32  54  84 113 143 179 222 273 327
#     4  11  22  34  51  78 112 146 180 225 279 334
#     4   9  18  33  52  74 102 140 184 224 265 317
#     4   9  19  35  56  82 111 143 177 220 272 330
#     4  11  22  40  62  84 112 147 189 232 281 338
#     4  12  26  44  64  88 116 152 196 240 289 342
#
# _framework density 18.201893999999999
#
# number of rings (size 3 to 8) (size 9 to 14) (size 15 to 20)
#    0.000    1.846    1.538    3.000    0.000    3.077 
#    0.000    0.000    1.692    0.000    0.000    0.000 
#    0.000    0.000    0.000    0.000    0.000    0.000 
#
# Total GULP energy -289982.041105 kJ/mol
# GULP energy per Si atom -5576.577714 kJ/mol
# Density = 1.816047 g / cm^3
# Si number density = 18.201894 Si / 1000 Ang^3
#
#
#
# Elastic Constant Matrix: (Units=GPa)
#
#
# Indices 1 2 3 4 5 6 
#
# 1 82.5607 30.3245 16.2503 0.0000 0.0000 0.0000
# 2 30.3245 113.2762 12.4750 0.0000 0.0000 0.0000
# 3 16.2503 12.4750 29.3037 0.0000 0.0000 0.0000
# 4 0.0000 0.0000 0.0000 27.1059 0.0000 0.0000
# 5 0.0000 0.0000 0.0000 0.0000 10.4821 0.0000
# 6 0.0000 0.0000 0.0000 0.0000 0.0000 17.7347
#
#
#
# Elastic Compliance Matrix: (Units=1/GPa)
#
#
# Indices 1 2 3 4 5 6 
#
# 1 0.014604 -0.003166 -0.006751 0.000000 0.000000 0.000000
# 2 -0.003166 0.009949 -0.002480 0.000000 0.000000 0.000000
# 3 -0.006751 -0.002480 0.038925 0.000000 0.000000 0.000000
# 4 0.000000 0.000000 0.000000 0.036892 0.000000 0.000000
# 5 0.000000 0.000000 0.000000 0.000000 0.095401 0.000000
# 6 0.000000 0.000000 0.000000 0.000000 0.000000 0.056387
#
#
# Mechanical properties :
#
#
# Convention : Reuss Voigt Hill
#
# Bulk Modulus (GPa) = 25.85021 38.13781 31.99401
# Shear Modulus (GPa) = 17.25062 22.13725 19.69394
#
# Velocity S-wave (km/s) = 3.08188 3.49120 3.29290
# Velocity P-wave (km/s) = 5.18620 6.10323 5.66331
#
# Compressibility (1/GPa) = 0.03868441
#
# Stress axis : x y z
#
# Youngs Moduli (GPa) = 68.47462 100.51638 25.69073
#
# Poissons Ratio (x) = 0.31824 0.17343
# Poissons Ratio (y) = 0.21680 0.06370
# Poissons Ratio (z) = 0.46225 0.24923
#
# Static dielectric constant tensor:
#      x y z
#    x 1.633060 0.000000 0.000000 
#    y 0.000000 1.640800 0.000000 
#    z 0.000000 0.000000 1.625700 
# 
# From -- ./inp_files/8834.got.cif
#   From: 2010.05.17/outbox.cif.g08.bks.cpg/sg63_5_cif.got.tgz:8834.got - 2010.06.03 15:47:04.
