data_PCOD9470653
_publ_section_title
;
Structure prediction by ZEFSAII (Michael W. Deem and Ramdas Pophale) SiO2 
 PCOD9470653
Probable space group: C M C M
;
_chemical_formula_sum "Si O2"
_cell_formula_units_Z 128
_cell_length_a 13.469391
_cell_length_b 23.586740
_cell_length_c 23.742656
_cell_angle_alpha 90.000000
_cell_angle_beta 90.000000
_cell_angle_gamma 90.000000
_cell_volume 7543.018626
_symmetry_space_group_name_H-M "C M C M"
_symmetry_group_IT_number 63
_symmetry_cell_setting 'orthorhombic'
loop_
_space_group_symop_operation_xyz
x,y,z
-x,-y,1/2+z
x,-y,-z
-x,y,1/2-z
-x,-y,-z
x,y,1/2-z
-x,y,z
x,-y,1/2+z
1/2+x,1/2+y,z
1/2-x,1/2-y,1/2+z
1/2+x,1/2-y,-z
1/2-x,1/2+y,1/2-z
1/2-x,1/2-y,-z
1/2+x,1/2+y,1/2-z
1/2-x,1/2+y,z
1/2+x,1/2-y,1/2+z
loop_
_atom_site_type_symbol
_atom_site_label
_atom_site_fract_x
_atom_site_fract_y
_atom_site_fract_z
Si Si1 0.615060 0.478863 0.683711
Si Si2 0.885335 0.100114 0.871986
Si Si3 0.785833 0.067222 0.511227
Si Si4 0.114124 0.789880 0.686814
Si Si5 0.752350 0.205238 0.631028
Si Si6 0.114328 0.307958 0.588559
Si Si7 0.707153 0.615388 0.389062
Si Si8 0.385512 0.149286 0.537580
O O1 0.630731 0.472129 0.750000
O O2 0.500000 0.462270 0.671105
O O3 0.625953 0.543838 0.665187
O O4 0.688144 0.440137 0.647702
O O5 0.813975 0.150146 0.851546
O O6 0.000000 0.117981 0.870619
O O7 0.854829 0.083552 0.935979
O O8 0.816295 0.099714 0.453791
O O9 0.676966 0.091704 0.527120
O O10 0.786437 0.000000 0.500000
O O11 0.126752 0.814173 0.750000
O O12 0.189287 0.738121 0.677769
O O13 0.139740 0.836006 0.639209
O O14 0.000000 0.771866 0.681173
O O15 0.830004 0.250359 0.605252
O O16 0.674070 0.184962 0.583822
O O17 0.181684 0.359200 0.612602
O O18 0.116198 0.316705 0.521277
O O19 0.000000 0.308910 0.607198
O O20 0.500000 0.139226 0.553042
#
# Coordination Sequence:
#
# PCOD9470653 Si02
#       8
#    16  16  16  16  16  16  16  16
#     4  10  20  34  53  75 100 133 173 218 264 310
#     4  10  21  34  51  78 111 143 175 215 261 317
#     4  10  19  33  51  77 111 142 179 213 264 321
#     4  10  21  36  55  79 103 132 175 223 270 314
#     4  10  19  33  53  74 104 137 174 212 257 311
#     4   9  18  32  51  76 106 138 170 208 255 309
#     4  10  19  33  55  78 105 136 170 219 266 314
#     4   9  18  31  49  75 106 138 174 214 257 307
#
# _framework density 16.969334
#
# number of rings (size 3 to 8) (size 9 to 14) (size 15 to 20)
#    0.000    2.250    1.250    1.875    0.000    4.000 
#    0.000    0.000    0.000   12.375    0.000    0.000 
#    0.000    0.000    0.000    0.000    0.000    0.000 
#
# Total GULP energy -356830.043628 kJ/mol
# GULP energy per Si atom -5575.469432 kJ/mol
# Density = 1.693071 g / cm^3
# Si number density = 16.969334 Si / 1000 Ang^3
#
#
#
# Elastic Constant Matrix: (Units=GPa)
#
#
# Indices 1 2 3 4 5 6 
#
# 1 88.5738 23.8486 20.3000 0.0000 0.0000 0.0000
# 2 23.8486 60.3488 11.7493 0.0000 0.0000 0.0000
# 3 20.3000 11.7493 44.2385 0.0000 0.0000 0.0000
# 4 0.0000 0.0000 0.0000 13.3878 0.0000 0.0000
# 5 0.0000 0.0000 0.0000 0.0000 20.1208 0.0000
# 6 0.0000 0.0000 0.0000 0.0000 0.0000 20.1632
#
#
#
# Elastic Compliance Matrix: (Units=1/GPa)
#
#
# Indices 1 2 3 4 5 6 
#
# 1 0.013641 -0.004400 -0.005091 0.000000 0.000000 0.000000
# 2 -0.004400 0.018893 -0.002999 0.000000 0.000000 0.000000
# 3 -0.005091 -0.002999 0.025737 0.000000 0.000000 0.000000
# 4 0.000000 0.000000 0.000000 0.074695 0.000000 0.000000
# 5 0.000000 0.000000 0.000000 0.000000 0.049700 0.000000
# 6 0.000000 0.000000 0.000000 0.000000 0.000000 0.049595
#
#
# Mechanical properties :
#
#
# Convention : Reuss Voigt Hill
#
# Bulk Modulus (GPa) = 30.03698 33.88411 31.96055
# Shear Modulus (GPa) = 18.63315 19.88523 19.25919
#
# Velocity S-wave (km/s) = 3.31728 3.42692 3.37254
# Velocity P-wave (km/s) = 5.69312 5.97240 5.83443
#
# Compressibility (1/GPa) = 0.03329229
#
# Stress axis : x y z
#
# Youngs Moduli (GPa) = 73.30585 52.93014 38.85388
#
# Poissons Ratio (x) = 0.23287 0.19782
# Poissons Ratio (y) = 0.32252 0.11652
# Poissons Ratio (z) = 0.37322 0.15873
#
# Static dielectric constant tensor:
#      x y z
#    x 1.561180 0.000000 0.000000 
#    y 0.000000 1.573530 0.000000 
#    z 0.000000 0.000000 1.561290 
# 
# From -- ./inp_files/62009.got.cif
#   From: 2010.05.17/outbox.cif.g08.bks.cpg/sg63_32_cif.got.tgz:62009.got - 2010.06.03 15:47:04.
