data_PCOD9470758
_publ_section_title
;
Structure prediction by ZEFSAII (Michael W. Deem and Ramdas Pophale) SiO2 
 PCOD9470758
Probable space group: C M C M
;
_chemical_formula_sum "Si O2"
_cell_formula_units_Z 96
_cell_length_a 23.099184
_cell_length_b 8.718560
_cell_length_c 23.832810
_cell_angle_alpha 90.000000
_cell_angle_beta 90.000000
_cell_angle_gamma 90.000000
_cell_volume 4799.728254
_symmetry_space_group_name_H-M "C M C M"
_symmetry_group_IT_number 63
_symmetry_cell_setting 'orthorhombic'
loop_
_space_group_symop_operation_xyz
x,y,z
-x,-y,1/2+z
x,-y,-z
-x,y,1/2-z
-x,-y,-z
x,y,1/2-z
-x,y,z
x,-y,1/2+z
1/2+x,1/2+y,z
1/2-x,1/2-y,1/2+z
1/2+x,1/2-y,-z
1/2-x,1/2+y,1/2-z
1/2-x,1/2-y,-z
1/2+x,1/2+y,1/2-z
1/2-x,1/2+y,z
1/2+x,1/2-y,1/2+z
loop_
_atom_site_type_symbol
_atom_site_label
_atom_site_fract_x
_atom_site_fract_y
_atom_site_fract_z
Si Si1 0.654647 0.194944 0.586656
Si Si2 0.065918 0.420619 0.924080
Si Si3 0.892150 0.710050 0.187845
Si Si4 0.784490 0.486631 0.313872
Si Si5 0.338947 0.490640 0.362861
Si Si6 0.853953 0.163153 0.975767
O O1 0.694370 0.118393 0.634324
O O2 0.633407 0.352257 0.615259
O O3 0.680046 0.252760 0.526630
O O4 0.605428 0.071683 0.571826
O O5 0.070020 0.370049 0.859222
O O6 0.096297 0.281028 0.957187
O O7 0.000000 0.444780 0.940345
O O8 0.914798 0.688232 0.250000
O O9 0.828227 0.631095 0.184960
O O10 0.882028 0.886577 0.172727
O O11 0.788240 0.422114 0.250000
O O12 0.718580 0.526696 0.327920
O O13 0.322872 0.387601 0.418093
O O14 0.875604 0.000000 0.000000
#
# Coordination Sequence:
#
# PCOD9470758 Si02
#       6
#    16  16  16  16  16  16
#     4  10  21  36  54  81 113 142 181 227 268 320
#     4  10  21  38  60  81 104 140 183 228 276 323
#     4   9  19  35  54  79 111 143 178 221 268 321
#     4  10  20  34  55  82 110 145 184 219 263 319
#     4  10  19  33  53  80 113 146 178 217 264 320
#     4   9  20  37  55  82 115 142 175 219 271 326
#
# _framework density 20.001132999999999
#
# number of rings (size 3 to 8) (size 9 to 14) (size 15 to 20)
#    0.000    2.333    0.000    2.000    0.000    5.333 
#    0.000   15.000    0.000    0.000    0.000    0.000 
#    0.000    0.000    0.000    0.000    0.000    0.000 
#
# Total GULP energy -267481.746053 kJ/mol
# GULP energy per Si atom -5572.536376 kJ/mol
# Density = 1.995561 g / cm^3
# Si number density = 20.001133 Si / 1000 Ang^3
#
#
#
# Elastic Constant Matrix: (Units=GPa)
#
#
# Indices 1 2 3 4 5 6 
#
# 1 58.2292 28.6864 21.8649 0.0000 0.0000 0.0000
# 2 28.6864 97.9132 37.3410 0.0000 0.0000 0.0000
# 3 21.8649 37.3410 141.9987 0.0000 0.0000 0.0000
# 4 0.0000 0.0000 0.0000 27.1529 0.0000 0.0000
# 5 0.0000 0.0000 0.0000 0.0000 -7.3579 0.0000
# 6 0.0000 0.0000 0.0000 0.0000 0.0000 0.5801
#
#
#
# Elastic Compliance Matrix: (Units=1/GPa)
#
#
# Indices 1 2 3 4 5 6 
#
# 1 0.020454 -0.005326 -0.001749 0.000000 0.000000 0.000000
# 2 -0.005326 0.012738 -0.002530 0.000000 0.000000 0.000000
# 3 -0.001749 -0.002530 0.007977 0.000000 0.000000 0.000000
# 4 0.000000 0.000000 0.000000 0.036828 0.000000 0.000000
# 5 0.000000 0.000000 0.000000 0.000000 -0.135907 0.000000
# 6 0.000000 0.000000 0.000000 0.000000 0.000000 1.723894
#
#
# Mechanical properties :
#
#
# Convention : Reuss Voigt Hill
#
# Bulk Modulus (GPa) = 45.53657 52.65842 49.09749
# Shear Modulus (GPa) = 2.95419 18.09158 10.52289
#
# Velocity S-wave (km/s) = 1.21664 3.01080 2.29621
# Velocity P-wave (km/s) = 4.97896 6.20253 5.62412
#
# Compressibility (1/GPa) = 0.02196037
#
# Stress axis : x y z
#
# Youngs Moduli (GPa) = 48.89051 78.50445 125.36253
#
# Poissons Ratio (x) = 0.41808 0.21927
# Poissons Ratio (y) = 0.26037 0.31713
# Poissons Ratio (z) = 0.08551 0.19859
#
# Static dielectric constant tensor:
#      x y z
#    x 1.649670 0.000000 0.000000 
#    y 0.000000 1.714530 0.000000 
#    z 0.000000 0.000000 1.754220 
# 
# From -- ./inp_files/64931.got.cif
#   From: 2010.05.17/outbox.cif.g08.bks.cpg/sg63_33_cif.got.tgz:64931.got - 2010.06.03 15:47:04.
