data_PCOD9470795
_publ_section_title
;
Structure prediction by ZEFSAII (Michael W. Deem and Ramdas Pophale) SiO2 
 PCOD9470795
Probable space group: C M C M
;
_chemical_formula_sum "Si O2"
_cell_formula_units_Z 80
_cell_length_a 18.376653
_cell_length_b 27.856447
_cell_length_c 8.424515
_cell_angle_alpha 90.000000
_cell_angle_beta 90.000000
_cell_angle_gamma 90.000000
_cell_volume 4312.578818
_symmetry_space_group_name_H-M "C M C M"
_symmetry_group_IT_number 63
_symmetry_cell_setting 'orthorhombic'
loop_
_space_group_symop_operation_xyz
x,y,z
-x,-y,1/2+z
x,-y,-z
-x,y,1/2-z
-x,-y,-z
x,y,1/2-z
-x,y,z
x,-y,1/2+z
1/2+x,1/2+y,z
1/2-x,1/2-y,1/2+z
1/2+x,1/2-y,-z
1/2-x,1/2+y,1/2-z
1/2-x,1/2-y,-z
1/2+x,1/2+y,1/2-z
1/2-x,1/2+y,z
1/2+x,1/2-y,1/2+z
loop_
_atom_site_type_symbol
_atom_site_label
_atom_site_fract_x
_atom_site_fract_y
_atom_site_fract_z
Si Si1 0.630460 0.810471 0.937931
Si Si2 0.578916 0.916370 0.557309
Si Si3 0.917378 0.791157 0.562050
Si Si4 0.263995 0.050978 0.059331
Si Si5 0.719260 0.347415 0.063464
O O1 0.620587 0.803047 0.750000
O O2 0.590713 0.860214 0.982540
O O3 0.600698 0.764432 0.027719
O O4 0.715485 0.819579 0.974157
O O5 0.578580 0.919137 0.750000
O O6 0.500000 0.933145 0.498785
O O7 0.651653 0.943191 0.503040
O O8 0.912112 0.799891 0.750000
O O9 0.857081 0.822972 0.475672
O O10 0.000000 0.801095 0.509967
O O11 0.262908 0.052965 0.250000
O O12 0.222932 0.097493 0.993215
O O13 0.235715 0.000000 0.000000
O O14 0.734303 0.344907 0.250000
#
# Coordination Sequence:
#
# PCOD9470795 Si02
#       5
#    16  16  16  16  16
#     4  10  19  33  54  79 110 147 185 220 257 308
#     4   8  15  28  47  73 106 142 177 214 255 300
#     4  11  23  37  54  79 111 143 176 217 265 318
#     4  10  20  35  55  78 104 136 177 223 271 322
#     4  11  22  37  57  79 106 140 180 223 266 315
#
# _framework density 18.550387000000001
#
# number of rings (size 3 to 8) (size 9 to 14) (size 15 to 20)
#    0.000    2.000    0.000    6.000    0.000    2.800 
#    0.000    0.000    0.000   12.000    0.000    0.000 
#    0.000    0.000    0.000    0.000    0.000    0.000 
#
# Total GULP energy -223413.193208 kJ/mol
# GULP energy per Si atom -5585.329830 kJ/mol
# Density = 1.850817 g / cm^3
# Si number density = 18.550387 Si / 1000 Ang^3
#
#
#
# Elastic Constant Matrix: (Units=GPa)
#
#
# Indices 1 2 3 4 5 6 
#
# 1 50.7432 3.6830 -13.5687 0.0000 0.0000 0.0000
# 2 3.6830 50.1854 -8.1632 0.0000 0.0000 0.0000
# 3 -13.5687 -8.1632 23.0324 0.0000 0.0000 0.0000
# 4 0.0000 0.0000 0.0000 27.4080 0.0000 0.0000
# 5 0.0000 0.0000 0.0000 0.0000 16.9626 0.0000
# 6 0.0000 0.0000 0.0000 0.0000 0.0000 0.1282
#
#
#
# Elastic Compliance Matrix: (Units=1/GPa)
#
#
# Indices 1 2 3 4 5 6 
#
# 1 0.023407 0.000557 0.013987 0.000000 0.000000 0.000000
# 2 0.000557 0.021158 0.007827 0.000000 0.000000 0.000000
# 3 0.013987 0.007827 0.054431 0.000000 0.000000 0.000000
# 4 0.000000 0.000000 0.000000 0.036486 0.000000 0.000000
# 5 0.000000 0.000000 0.000000 0.000000 0.058953 0.000000
# 6 0.000000 0.000000 0.000000 0.000000 0.000000 7.800525
#
#
# Mechanical properties :
#
#
# Convention : Reuss Voigt Hill
#
# Bulk Modulus (GPa) = 6.95706 9.76258 8.35982
# Shear Modulus (GPa) = 0.62515 18.36709 9.49612
#
# Velocity S-wave (km/s) = 0.58115 3.15003 2.26500
# Velocity P-wave (km/s) = 2.05154 4.30168 3.36996
#
# Compressibility (1/GPa) = 0.14373894
#
# Stress axis : x y z
#
# Youngs Moduli (GPa) = 42.72296 47.26253 18.37184
#
# Poissons Ratio (x) = -0.02634 -0.25696
# Poissons Ratio (y) = -0.02381 -0.14380
# Poissons Ratio (z) = -0.59755 -0.36994
#
# Static dielectric constant tensor:
#      x y z
#    x 1.644720 0.000000 0.000000 
#    y 0.000000 1.622240 0.000000 
#    z 0.000000 0.000000 1.623780 
# 
# From -- ./inp_files/6423.got.cif
#   From: 2010.05.17/outbox.cif.g08.bks.cpg/sg63_4_cif.got.tgz:6423.got - 2010.06.03 15:47:04.
