data_PCOD9470192
_publ_section_title
;
Structure prediction by ZEFSAII (Michael W. Deem and Ramdas Pophale) SiO2 
 PCOD9470192
Probable space group: C M C M
;
_chemical_formula_sum "Si O2"
_cell_formula_units_Z 96
_cell_length_a 23.100691
_cell_length_b 10.337187
_cell_length_c 19.660455
_cell_angle_alpha 90.000000
_cell_angle_beta 90.000000
_cell_angle_gamma 90.000000
_cell_volume 4694.841211
_symmetry_space_group_name_H-M "C M C M"
_symmetry_group_IT_number 63
_symmetry_cell_setting 'orthorhombic'
loop_
_space_group_symop_operation_xyz
x,y,z
-x,-y,1/2+z
x,-y,-z
-x,y,1/2-z
-x,-y,-z
x,y,1/2-z
-x,y,z
x,-y,1/2+z
1/2+x,1/2+y,z
1/2-x,1/2-y,1/2+z
1/2+x,1/2-y,-z
1/2-x,1/2+y,1/2-z
1/2-x,1/2-y,-z
1/2+x,1/2+y,1/2-z
1/2-x,1/2+y,z
1/2+x,1/2-y,1/2+z
loop_
_atom_site_type_symbol
_atom_site_label
_atom_site_fract_x
_atom_site_fract_y
_atom_site_fract_z
Si Si1 0.090362 0.265872 0.326622
Si Si2 0.865239 0.374422 0.959229
Si Si3 0.744013 0.571342 0.093348
Si Si4 0.886960 0.880993 0.956061
Si Si5 0.772027 0.682830 0.674094
Si Si6 0.434829 0.938608 0.671297
O O1 0.075783 0.221292 0.250000
O O2 0.081432 0.162107 0.386280
O O3 0.158692 0.301420 0.327959
O O4 0.062703 0.405978 0.338624
O O5 0.795667 0.386663 0.956461
O O6 0.890849 0.381764 0.883463
O O7 0.887131 0.500000 0.000000
O O8 0.883887 0.246023 0.997448
O O9 0.679658 0.584538 0.063865
O O10 0.753955 0.427664 0.121465
O O11 0.750168 0.676146 0.153634
O O12 0.910891 0.000000 0.000000
O O13 0.753871 0.646022 0.750000
O O14 0.417318 0.917413 0.750000
O O15 0.500000 0.887370 0.661529
#
# Coordination Sequence:
#
# PCOD9470192 Si02
#       6
#    16  16  16  16  16  16
#     4   9  18  37  58  81 114 154 197 246 296 347
#     4  12  21  37  58  86 115 152 193 245 295 339
#     4  11  20  33  50  79 115 162 195 231 280 343
#     4  11  22  36  53  85 122 162 198 233 279 352
#     4  10  19  31  51  78 114 154 198 238 280 338
#     4  10  21  39  65  92 113 142 194 258 311 348
#
# _framework density 20.447973999999999
#
# number of rings (size 3 to 8) (size 9 to 14) (size 15 to 20)
#    0.000    1.500    3.333    3.500    0.000    1.667 
#    0.000    0.833    0.000    2.000    0.000    2.333 
#    0.000    0.000    0.000    0.000    0.000    0.000 
#
# Total GULP energy -268105.540357 kJ/mol
# GULP energy per Si atom -5585.532091 kJ/mol
# Density = 2.040143 g / cm^3
# Si number density = 20.447974 Si / 1000 Ang^3
#
#
#
# Elastic Constant Matrix: (Units=GPa)
#
#
# Indices 1 2 3 4 5 6 
#
# 1 29.3667 -15.8521 6.6262 0.0000 0.0000 0.0000
# 2 -15.8521 29.9968 22.2038 0.0000 0.0000 0.0000
# 3 6.6262 22.2038 106.8110 0.0000 0.0000 0.0000
# 4 0.0000 0.0000 0.0000 37.8882 0.0000 0.0000
# 5 0.0000 0.0000 0.0000 0.0000 -10.6678 0.0000
# 6 0.0000 0.0000 0.0000 0.0000 0.0000 -4.6831
#
#
#
# Elastic Compliance Matrix: (Units=1/GPa)
#
#
# Indices 1 2 3 4 5 6 
#
# 1 0.057939 0.039331 -0.011770 0.000000 0.000000 0.000000
# 2 0.039331 0.066098 -0.016180 0.000000 0.000000 0.000000
# 3 -0.011770 -0.016180 0.013456 0.000000 0.000000 0.000000
# 4 0.000000 0.000000 0.000000 0.026393 0.000000 0.000000
# 5 0.000000 0.000000 0.000000 0.000000 -0.093740 0.000000
# 6 0.000000 0.000000 0.000000 0.000000 0.000000 -0.213535
#
#
# Mechanical properties :
#
#
# Convention : Reuss Voigt Hill
#
# Bulk Modulus (GPa) = 6.24013 21.34782 13.79397
# Shear Modulus (GPa) = -44.35380 14.72057 -14.81661
#
# Velocity S-wave (km/s) = -4.66242 2.68601 -2.69476
# Velocity P-wave (km/s) = 5.09174 4.48133 1.70932
#
# Compressibility (1/GPa) = 0.16025300
#
# Stress axis : x y z
#
# Youngs Moduli (GPa) = 17.25964 15.12894 74.31570
#
# Poissons Ratio (x) = -0.59503 0.87472
# Poissons Ratio (y) = -0.67883 1.20246
# Poissons Ratio (z) = 0.20315 0.24479
#
# Static dielectric constant tensor:
#      x y z
#    x 1.738700 0.000000 0.000000 
#    y 0.000000 1.698560 0.000000 
#    z 0.000000 0.000000 1.771490 
# 
# From -- ./inp_files/58077.got.cif
#   From: 2010.05.17/outbox.cif.g08.bks.cpg/sg63_30_cif.got.tgz:58077.got - 2010.06.03 15:47:04.
