data_PCOD9470139
_publ_section_title
;
Structure prediction by ZEFSAII (Michael W. Deem and Ramdas Pophale) SiO2 
 PCOD9470139
Probable space group: C M C M
;
_chemical_formula_sum "Si O2"
_cell_formula_units_Z 96
_cell_length_a 8.766337
_cell_length_b 28.079252
_cell_length_c 23.422693
_cell_angle_alpha 90.000000
_cell_angle_beta 90.000000
_cell_angle_gamma 90.000000
_cell_volume 5765.547078
_symmetry_space_group_name_H-M "C M C M"
_symmetry_group_IT_number 63
_symmetry_cell_setting 'orthorhombic'
loop_
_space_group_symop_operation_xyz
x,y,z
-x,-y,1/2+z
x,-y,-z
-x,y,1/2-z
-x,-y,-z
x,y,1/2-z
-x,y,z
x,-y,1/2+z
1/2+x,1/2+y,z
1/2-x,1/2-y,1/2+z
1/2+x,1/2-y,-z
1/2-x,1/2+y,1/2-z
1/2-x,1/2-y,-z
1/2+x,1/2+y,1/2-z
1/2-x,1/2+y,z
1/2+x,1/2-y,1/2+z
loop_
_atom_site_type_symbol
_atom_site_label
_atom_site_fract_x
_atom_site_fract_y
_atom_site_fract_z
Si Si1 0.677933 0.195912 0.942263
Si Si2 0.317212 0.369484 0.250000
Si Si3 0.815440 0.214963 0.135280
Si Si4 0.182622 0.757872 0.250000
Si Si5 0.321607 0.899627 0.131728
Si Si6 0.317851 0.356428 0.545813
Si Si7 0.684756 0.448189 0.022773
O O1 0.500000 0.199548 0.959105
O O2 0.723821 0.243498 0.909859
O O3 0.691658 0.152439 0.897616
O O4 0.776213 0.181368 0.996580
O O5 0.500000 0.369517 0.250000
O O6 0.265491 0.313602 0.250000
O O7 0.257316 0.395185 0.306992
O O8 0.742860 0.230400 0.194526
O O9 0.764598 0.165454 0.105942
O O10 0.000000 0.214723 0.141370
O O11 0.000000 0.758446 0.250000
O O12 0.500000 0.910520 0.138623
O O13 0.247978 0.935080 0.085289
O O14 0.500000 0.359947 0.549770
O O15 0.261302 0.406963 0.521427
O O16 0.500000 0.446297 0.025435
O O17 0.729601 0.500000 0.000000
#
# Coordination Sequence:
#
# PCOD9470139 Si02
#       7
#    16   8  16   8  16  16  16
#     4   9  17  28  44  68  98 130 158 193 242 288
#     4  11  21  33  49  72 103 136 169 202 241 294
#     4  10  19  32  47  66  97 133 167 200 237 287
#     4  11  23  33  47  70  97 136 175 204 237 288
#     4  10  19  31  50  75 103 133 167 204 247 300
#     4   9  18  30  48  72  95 126 165 202 243 292
#     4   9  18  34  54  76 103 131 164 211 262 305
#
# _framework density 16.650631000000001
#
# number of rings (size 3 to 8) (size 9 to 14) (size 15 to 20)
#    0.000    2.333    1.667    1.500    0.000    3.000 
#    0.000    0.000    0.000    1.000    0.000    3.500 
#    0.000    0.000    0.000    0.000    0.000    0.000 
#
# Total GULP energy -267580.405000 kJ/mol
# GULP energy per Si atom -5574.591771 kJ/mol
# Density = 1.661273 g / cm^3
# Si number density = 16.650631 Si / 1000 Ang^3
#
#
#
# Elastic Constant Matrix: (Units=GPa)
#
#
# Indices 1 2 3 4 5 6 
#
# 1 19.9763 32.2482 32.5339 0.0000 0.0000 0.0000
# 2 32.2482 96.8581 87.2282 0.0000 0.0000 0.0000
# 3 32.5339 87.2282 122.6848 0.0000 0.0000 0.0000
# 4 0.0000 0.0000 0.0000 17.8225 0.0000 0.0000
# 5 0.0000 0.0000 0.0000 0.0000 28.4242 0.0000
# 6 0.0000 0.0000 0.0000 0.0000 0.0000 15.3508
#
#
#
# Elastic Compliance Matrix: (Units=1/GPa)
#
#
# Indices 1 2 3 4 5 6 
#
# 1 0.111568 -0.029195 -0.008828 0.000000 0.000000 0.000000
# 2 -0.029195 0.036343 -0.018098 0.000000 0.000000 0.000000
# 3 -0.008828 -0.018098 0.023359 0.000000 0.000000 0.000000
# 4 0.000000 0.000000 0.000000 0.056109 0.000000 0.000000
# 5 0.000000 0.000000 0.000000 0.000000 0.035181 0.000000
# 6 0.000000 0.000000 0.000000 0.000000 0.000000 0.065143
#
#
# Mechanical properties :
#
#
# Convention : Reuss Voigt Hill
#
# Bulk Modulus (GPa) = 16.94106 60.39330 38.66718
# Shear Modulus (GPa) = 10.87851 18.15342 14.51596
#
# Velocity S-wave (km/s) = 2.55882 3.30548 2.95582
# Velocity P-wave (km/s) = 4.35047 7.13568 5.90951
#
# Compressibility (1/GPa) = 0.05902818
#
# Stress axis : x y z
#
# Youngs Moduli (GPa) = 8.96315 27.51569 42.80934
#
# Poissons Ratio (x) = 0.80332 0.37794
# Poissons Ratio (y) = 0.26168 0.77474
# Poissons Ratio (z) = 0.07913 0.49797
#
# Static dielectric constant tensor:
#      x y z
#    x 1.562750 0.000000 0.000000 
#    y 0.000000 1.568560 0.000000 
#    z 0.000000 0.000000 1.550290 
# 
# From -- ./inp_files/60294.got.cif
#   From: 2010.05.17/outbox.cif.g08.bks.cpg/sg63_31_cif.got.tgz:60294.got - 2010.06.03 15:47:04.
