data_PCOD9470806
_publ_section_title
;
Structure prediction by ZEFSAII (Michael W. Deem and Ramdas Pophale) SiO2 
 PCOD9470806
Probable space group: C M C M
;
_chemical_formula_sum "Si O2"
_cell_formula_units_Z 104
_cell_length_a 23.759091
_cell_length_b 29.151201
_cell_length_c 8.279343
_cell_angle_alpha 90.000000
_cell_angle_beta 90.000000
_cell_angle_gamma 90.000000
_cell_volume 5734.322947
_symmetry_space_group_name_H-M "C M C M"
_symmetry_group_IT_number 63
_symmetry_cell_setting 'orthorhombic'
loop_
_space_group_symop_operation_xyz
x,y,z
-x,-y,1/2+z
x,-y,-z
-x,y,1/2-z
-x,-y,-z
x,y,1/2-z
-x,y,z
x,-y,1/2+z
1/2+x,1/2+y,z
1/2-x,1/2-y,1/2+z
1/2+x,1/2-y,-z
1/2-x,1/2+y,1/2-z
1/2-x,1/2-y,-z
1/2+x,1/2+y,1/2-z
1/2-x,1/2+y,z
1/2+x,1/2-y,1/2+z
loop_
_atom_site_type_symbol
_atom_site_label
_atom_site_fract_x
_atom_site_fract_y
_atom_site_fract_z
Si Si1 0.384955 0.604742 0.941865
Si Si2 0.691223 0.793056 0.945024
Si Si3 0.500000 0.446040 0.446406
Si Si4 0.178472 0.195445 0.441035
Si Si5 0.439165 0.947785 0.554955
Si Si6 0.776223 0.051620 0.443830
Si Si7 0.667129 0.107436 0.053010
O O1 0.389560 0.606744 0.750000
O O2 0.444169 0.582549 0.000959
O O3 0.362176 0.655194 0.995524
O O4 0.335112 0.570246 0.991010
O O5 0.692825 0.787653 0.750000
O O6 0.756032 0.803129 0.000296
O O7 0.660516 0.839722 0.989779
O O8 0.662905 0.747825 0.017642
O O9 0.500000 0.500000 0.500000
O O10 0.500000 0.446917 0.250000
O O11 0.181357 0.188218 0.250000
O O12 0.437591 0.946621 0.750000
O O13 0.500000 0.929136 0.503011
O O14 0.385536 0.921047 0.492336
O O15 0.435760 0.000000 0.500000
O O16 0.778132 0.052958 0.250000
O O17 0.725724 0.084765 0.500120
O O18 0.765434 0.000000 0.500000
O O19 0.668438 0.105606 0.250000
#
# Coordination Sequence:
#
# PCOD9470806 Si02
#       7
#    16  16   8  16  16  16  16
#     4  11  22  38  58  80 106 140 179 223 271 326
#     4   9  17  32  52  76 107 141 172 211 262 314
#     4  10  24  42  60  82 108 142 186 228 275 332
#     4  10  19  33  54  81 107 136 172 215 263 318
#     4   9  17  30  49  71  97 133 174 210 247 297
#     4  11  21  34  50  76 109 140 173 215 266 321
#     4   9  17  31  50  73 104 137 172 215 259 305
#
# _framework density 18.136405
#
# number of rings (size 3 to 8) (size 9 to 14) (size 15 to 20)
#    0.000    2.154    1.538    2.308    0.000    3.077 
#    0.000    1.538    1.692    0.000    0.000    0.000 
#    0.000    0.000    0.000    0.000    0.000    0.000 
#
# Total GULP energy -289767.177800 kJ/mol
# GULP energy per Si atom -5572.445727 kJ/mol
# Density = 1.809513 g / cm^3
# Si number density = 18.136405 Si / 1000 Ang^3
#
#
#
# Elastic Constant Matrix: (Units=GPa)
#
#
# Indices 1 2 3 4 5 6 
#
# 1 86.2341 40.2988 12.0901 0.0000 0.0000 0.0000
# 2 40.2988 119.9585 10.2882 0.0000 0.0000 0.0000
# 3 12.0901 10.2882 17.5345 0.0000 0.0000 0.0000
# 4 0.0000 0.0000 0.0000 18.6991 0.0000 0.0000
# 5 0.0000 0.0000 0.0000 0.0000 13.5290 0.0000
# 6 0.0000 0.0000 0.0000 0.0000 0.0000 30.1558
#
#
#
# Elastic Compliance Matrix: (Units=1/GPa)
#
#
# Indices 1 2 3 4 5 6 
#
# 1 0.014659 -0.004273 -0.007600 0.000000 0.000000 0.000000
# 2 -0.004273 0.010023 -0.002935 0.000000 0.000000 0.000000
# 3 -0.007600 -0.002935 0.063993 0.000000 0.000000 0.000000
# 4 0.000000 0.000000 0.000000 0.053479 0.000000 0.000000
# 5 0.000000 0.000000 0.000000 0.000000 0.073916 0.000000
# 6 0.000000 0.000000 0.000000 0.000000 0.000000 0.033161
#
#
# Mechanical properties :
#
#
# Convention : Reuss Voigt Hill
#
# Bulk Modulus (GPa) = 16.93224 38.78681 27.85952
# Shear Modulus (GPa) = 16.74861 23.21343 19.98102
#
# Velocity S-wave (km/s) = 3.04218 3.58150 3.32280
# Velocity P-wave (km/s) = 4.65791 6.20769 5.48778
#
# Compressibility (1/GPa) = 0.05905894
#
# Stress axis : x y z
#
# Youngs Moduli (GPa) = 68.21957 99.76790 15.62671
#
# Poissons Ratio (x) = 0.42626 0.11877
# Poissons Ratio (y) = 0.29147 0.04587
# Poissons Ratio (z) = 0.51849 0.29283
#
# Static dielectric constant tensor:
#      x y z
#    x 1.634410 0.000000 0.000000 
#    y 0.000000 1.637730 0.000000 
#    z 0.000000 0.000000 1.643480 
# 
# From -- ./inp_files/10817.got.cif
#   From: 2010.05.17/outbox.cif.g08.bks.cpg/sg63_6_cif.got.tgz:10817.got - 2010.06.03 15:47:04.
