data_PCOD9470645
_publ_section_title
;
Structure prediction by ZEFSAII (Michael W. Deem and Ramdas Pophale) SiO2 
 PCOD9470645
Probable space group: C M C M
;
_chemical_formula_sum "Si O2"
_cell_formula_units_Z 96
_cell_length_a 10.495541
_cell_length_b 24.472247
_cell_length_c 20.454074
_cell_angle_alpha 90.000000
_cell_angle_beta 90.000000
_cell_angle_gamma 90.000000
_cell_volume 5253.618102
_symmetry_space_group_name_H-M "C M C M"
_symmetry_group_IT_number 63
_symmetry_cell_setting 'orthorhombic'
loop_
_space_group_symop_operation_xyz
x,y,z
-x,-y,1/2+z
x,-y,-z
-x,y,1/2-z
-x,-y,-z
x,y,1/2-z
-x,y,z
x,-y,1/2+z
1/2+x,1/2+y,z
1/2-x,1/2-y,1/2+z
1/2+x,1/2-y,-z
1/2-x,1/2+y,1/2-z
1/2-x,1/2-y,-z
1/2+x,1/2+y,1/2-z
1/2-x,1/2+y,z
1/2+x,1/2-y,1/2+z
loop_
_atom_site_type_symbol
_atom_site_label
_atom_site_fract_x
_atom_site_fract_y
_atom_site_fract_z
Si Si1 0.147685 0.821621 0.320649
Si Si2 0.858769 0.066766 0.326191
Si Si3 0.651259 0.946112 0.463547
Si Si4 0.351892 0.123166 0.084465
Si Si5 0.271196 0.444450 0.322811
Si Si6 0.848918 0.749239 0.059697
O O1 0.206595 0.806262 0.250000
O O2 0.154417 0.887189 0.324843
O O3 0.197251 0.791936 0.385062
O O4 0.000000 0.805218 0.318598
O O5 0.846390 0.082482 0.250000
O O6 0.745235 0.092963 0.367549
O O7 0.000000 0.083080 0.349625
O O8 0.848776 0.000791 0.328007
O O9 0.500000 0.950627 0.464215
O O10 0.683292 0.895353 0.510524
O O11 0.689112 0.942929 0.388437
O O12 0.705104 0.000000 0.500000
O O13 0.500000 0.106324 0.096283
O O14 0.345213 0.188198 0.089346
O O15 0.208519 0.446282 0.250000
O O16 0.000000 0.759791 0.042191
O O17 0.750000 0.750000 0.000000
#
# Coordination Sequence:
#
# PCOD9470645 Si02
#       6
#    16  16  16  16  16  16
#     4   9  18  34  56  80 106 140 184 232 277 324
#     4  10  21  36  54  80 113 145 179 225 279 330
#     4  10  19  33  51  74 110 148 182 223 271 325
#     4  10  21  37  56  80 111 149 187 226 274 330
#     4  10  19  33  55  80 108 143 182 225 278 334
#     4  10  21  37  59  84 111 144 185 231 279 329
#
# _framework density 18.273122000000001
#
# number of rings (size 3 to 8) (size 9 to 14) (size 15 to 20)
#    0.000    2.167    1.667    1.500    0.000    4.000 
#    0.000    5.833    0.000    1.500    0.000    0.000 
#    0.000    0.000    0.000    0.000    0.000    0.000 
#
# Total GULP energy -267214.377898 kJ/mol
# GULP energy per Si atom -5566.966206 kJ/mol
# Density = 1.823153 g / cm^3
# Si number density = 18.273122 Si / 1000 Ang^3
#
#
#
# Elastic Constant Matrix: (Units=GPa)
#
#
# Indices 1 2 3 4 5 6 
#
# 1 75.4888 32.0928 62.5654 0.0000 0.0000 0.0000
# 2 32.0928 67.1550 41.8231 0.0000 0.0000 0.0000
# 3 62.5654 41.8231 139.9716 0.0000 0.0000 0.0000
# 4 0.0000 0.0000 0.0000 31.9527 0.0000 0.0000
# 5 0.0000 0.0000 0.0000 0.0000 21.8698 0.0000
# 6 0.0000 0.0000 0.0000 0.0000 0.0000 15.4840
#
#
#
# Elastic Compliance Matrix: (Units=1/GPa)
#
#
# Indices 1 2 3 4 5 6 
#
# 1 0.022605 -0.005541 -0.008448 0.000000 0.000000 0.000000
# 2 -0.005541 0.019654 -0.003396 0.000000 0.000000 0.000000
# 3 -0.008448 -0.003396 0.011935 0.000000 0.000000 0.000000
# 4 0.000000 0.000000 0.000000 0.031296 0.000000 0.000000
# 5 0.000000 0.000000 0.000000 0.000000 0.045725 0.000000
# 6 0.000000 0.000000 0.000000 0.000000 0.000000 0.064583
#
#
# Mechanical properties :
#
#
# Convention : Reuss Voigt Hill
#
# Bulk Modulus (GPa) = 51.48419 61.73091 56.60755
# Shear Modulus (GPa) = 21.09323 23.60356 22.34840
#
# Velocity S-wave (km/s) = 3.40123 3.59793 3.50096
# Velocity P-wave (km/s) = 6.60761 7.14954 6.88391
#
# Compressibility (1/GPa) = 0.01942344
#
# Stress axis : x y z
#
# Youngs Moduli (GPa) = 44.23849 50.88085 83.78559
#
# Poissons Ratio (x) = 0.28194 0.70785
# Poissons Ratio (y) = 0.24513 0.28451
# Poissons Ratio (z) = 0.37374 0.17278
#
# Static dielectric constant tensor:
#      x y z
#    x 1.621750 0.000000 0.000000 
#    y 0.000000 1.649360 0.000000 
#    z 0.000000 0.000000 1.655790 
# 
# From -- ./inp_files/42490.got.cif
#   From: 2010.05.17/outbox.cif.g08.bks.cpg/sg63_22_cif.got.tgz:42490.got - 2010.06.03 15:47:04.
