data_PCOD9470180
_publ_section_title
;
Structure prediction by ZEFSAII (Michael W. Deem and Ramdas Pophale) SiO2 
 PCOD9470180
Probable space group: C M C M
;
_chemical_formula_sum "Si O2"
_cell_formula_units_Z 80
_cell_length_a 8.101076
_cell_length_b 14.308133
_cell_length_c 29.793158
_cell_angle_alpha 90.000000
_cell_angle_beta 90.000000
_cell_angle_gamma 90.000000
_cell_volume 3453.362866
_symmetry_space_group_name_H-M "C M C M"
_symmetry_group_IT_number 63
_symmetry_cell_setting 'orthorhombic'
loop_
_space_group_symop_operation_xyz
x,y,z
-x,-y,1/2+z
x,-y,-z
-x,y,1/2-z
-x,-y,-z
x,y,1/2-z
-x,y,z
x,-y,1/2+z
1/2+x,1/2+y,z
1/2-x,1/2-y,1/2+z
1/2+x,1/2-y,-z
1/2-x,1/2+y,1/2-z
1/2-x,1/2-y,-z
1/2+x,1/2+y,1/2-z
1/2-x,1/2+y,z
1/2+x,1/2-y,1/2+z
loop_
_atom_site_type_symbol
_atom_site_label
_atom_site_fract_x
_atom_site_fract_y
_atom_site_fract_z
Si Si1 0.810989 0.631934 0.398819
Si Si2 0.000000 0.872402 0.546046
Si Si3 0.192235 0.665711 0.298484
Si Si4 0.000000 0.100987 0.557238
Si Si5 0.308426 0.391057 0.299158
Si Si6 0.324296 0.915755 0.105697
O O1 0.666919 0.666656 0.431407
O O2 0.744127 0.637272 0.347381
O O3 0.828733 0.522499 0.410356
O O4 0.000000 0.670589 0.400571
O O5 0.000000 0.860148 0.492791
O O6 0.000000 0.986387 0.554252
O O7 0.267343 0.637505 0.250000
O O8 0.193637 0.778402 0.298946
O O9 0.000000 0.635823 0.298067
O O10 0.163391 0.129372 0.584249
O O11 0.251214 0.422274 0.250000
O O12 0.500000 0.420054 0.305305
O O13 0.201072 0.421155 0.340903
O O14 0.500000 0.870850 0.095284
#
# Coordination Sequence:
#
# PCOD9470180 Si02
#       6
#    16   8  16   8  16  16
#     4   9  18  32  51  76 101 128 166 207 248 294
#     4   9  18  32  53  75  99 129 163 206 256 298
#     4   8  15  30  51  73  99 135 169 198 243 295
#     4   9  18  34  51  73 103 129 161 208 252 300
#     4   9  17  31  51  73 100 136 170 199 240 295
#     4  10  19  31  51  77 101 130 166 204 250 295
#
# _framework density 23.165825000000002
#
# number of rings (size 3 to 8) (size 9 to 14) (size 15 to 20)
#    0.000    3.000    1.000    1.200    0.000    2.000 
#    1.800    6.500    0.000    1.200    0.000    0.000 
#    0.000    0.000    0.000    0.000    0.000    0.000 
#
# Total GULP energy -223183.378336 kJ/mol
# GULP energy per Si atom -5579.584458 kJ/mol
# Density = 2.311310 g / cm^3
# Si number density = 23.165825 Si / 1000 Ang^3
#
#
#
# Elastic Constant Matrix: (Units=GPa)
#
#
# Indices 1 2 3 4 5 6 
#
# 1 164.1706 14.1761 93.3261 0.0000 0.0000 0.0000
# 2 14.1761 49.4915 -16.5926 0.0000 0.0000 0.0000
# 3 93.3261 -16.5926 115.4357 0.0000 0.0000 0.0000
# 4 0.0000 0.0000 0.0000 25.5949 0.0000 0.0000
# 5 0.0000 0.0000 0.0000 0.0000 5.0537 0.0000
# 6 0.0000 0.0000 0.0000 0.0000 0.0000 13.3457
#
#
#
# Elastic Compliance Matrix: (Units=1/GPa)
#
#
# Indices 1 2 3 4 5 6 
#
# 1 0.013782 -0.008072 -0.012302 0.000000 0.000000 0.000000
# 2 -0.008072 0.025956 0.010257 0.000000 0.000000 0.000000
# 3 -0.012302 0.010257 0.020083 0.000000 0.000000 0.000000
# 4 0.000000 0.000000 0.000000 0.039070 0.000000 0.000000
# 5 0.000000 0.000000 0.000000 0.000000 0.197876 0.000000
# 6 0.000000 0.000000 0.000000 0.000000 0.000000 0.074931
#
#
# Mechanical properties :
#
#
# Convention : Reuss Voigt Hill
#
# Bulk Modulus (GPa) = 25.26122 56.76857 41.01490
# Shear Modulus (GPa) = 12.34174 24.67805 18.50989
#
# Velocity S-wave (km/s) = 2.31066 3.26740 2.82976
# Velocity P-wave (km/s) = 4.24818 6.22841 5.33105
#
# Compressibility (1/GPa) = 0.03958637
#
# Stress axis : x y z
#
# Youngs Moduli (GPa) = 72.55934 38.52613 49.79264
#
# Poissons Ratio (x) = 0.31099 0.61257
# Poissons Ratio (y) = 0.58571 -0.51072
# Poissons Ratio (z) = 0.89266 -0.39516
#
# Static dielectric constant tensor:
#      x y z
#    x 1.867280 0.000000 0.000000 
#    y 0.000000 1.910070 0.000000 
#    z 0.000000 0.000000 1.853640 
# 
# From -- ./inp_files/66715.got.cif
#   From: 2010.05.17/outbox.cif.g08.bks.cpg/sg63_34_cif.got.tgz:66715.got - 2010.06.03 15:47:04.
