data_PCOD9470886
_publ_section_title
;
Structure prediction by ZEFSAII (Michael W. Deem and Ramdas Pophale) SiO2 
 PCOD9470886
Probable space group: C M C M
;
_chemical_formula_sum "Si O2"
_cell_formula_units_Z 96
_cell_length_a 18.658548
_cell_length_b 10.745020
_cell_length_c 29.206513
_cell_angle_alpha 90.000000
_cell_angle_beta 90.000000
_cell_angle_gamma 90.000000
_cell_volume 5855.510734
_symmetry_space_group_name_H-M "C M C M"
_symmetry_group_IT_number 63
_symmetry_cell_setting 'orthorhombic'
loop_
_space_group_symop_operation_xyz
x,y,z
-x,-y,1/2+z
x,-y,-z
-x,y,1/2-z
-x,-y,-z
x,y,1/2-z
-x,y,z
x,-y,1/2+z
1/2+x,1/2+y,z
1/2-x,1/2-y,1/2+z
1/2+x,1/2-y,-z
1/2-x,1/2+y,1/2-z
1/2-x,1/2-y,-z
1/2+x,1/2+y,1/2-z
1/2-x,1/2+y,z
1/2+x,1/2-y,1/2+z
loop_
_atom_site_type_symbol
_atom_site_label
_atom_site_fract_x
_atom_site_fract_y
_atom_site_fract_z
Si Si1 0.419399 0.744031 0.394699
Si Si2 0.275833 0.244871 0.655214
Si Si3 0.198858 0.692585 0.436313
Si Si4 0.190435 0.477387 0.696002
Si Si5 0.342500 0.370861 0.519435
Si Si6 0.581446 0.036600 0.383680
O O1 0.500000 0.705255 0.382037
O O2 0.357440 0.717912 0.357613
O O3 0.394529 0.685038 0.442406
O O4 0.418940 0.893358 0.399372
O O5 0.233779 0.233713 0.606642
O O6 0.239441 0.358793 0.682290
O O7 0.276846 0.110750 0.679886
O O8 0.264822 0.611664 0.456177
O O9 0.171472 0.778757 0.477183
O O10 0.134253 0.612173 0.416462
O O11 0.178483 0.479770 0.750000
O O12 0.117888 0.461713 0.666392
O O13 0.369726 0.500000 0.500000
O O14 0.500000 0.083121 0.383480
#
# Coordination Sequence:
#
# PCOD9470886 Si02
#       6
#    16  16  16  16  16  16
#     4   9  19  34  50  73 103 135 168 207 247 296
#     4   9  19  33  55  76 104 135 166 207 258 303
#     4   9  20  32  50  73 101 133 173 207 249 293
#     4  10  19  33  56  82 102 126 167 213 256 307
#     4  10  21  30  50  73 102 134 172 214 242 285
#     4   9  19  35  53  73 101 133 166 205 258 304
#
# _framework density 16.394812999999999
#
# number of rings (size 3 to 8) (size 9 to 14) (size 15 to 20)
#    0.000    2.667    0.000    0.500   14.000    1.333 
#    0.000    1.667    0.000    1.500    0.000    0.000 
#    0.000    0.000    0.000    0.000    0.000    0.000 
#
# Total GULP energy -267462.044409 kJ/mol
# GULP energy per Si atom -5572.125925 kJ/mol
# Density = 1.635750 g / cm^3
# Si number density = 16.394813 Si / 1000 Ang^3
#
#
#
# Elastic Constant Matrix: (Units=GPa)
#
#
# Indices 1 2 3 4 5 6 
#
# 1 114.4605 37.5854 36.0255 0.0000 0.0000 0.0000
# 2 37.5854 49.8900 33.8301 0.0000 0.0000 0.0000
# 3 36.0255 33.8301 86.3640 0.0000 0.0000 0.0000
# 4 0.0000 0.0000 0.0000 20.9703 0.0000 0.0000
# 5 0.0000 0.0000 0.0000 0.0000 6.2137 0.0000
# 6 0.0000 0.0000 0.0000 0.0000 0.0000 17.1138
#
#
#
# Elastic Compliance Matrix: (Units=1/GPa)
#
#
# Indices 1 2 3 4 5 6 
#
# 1 0.011849 -0.007592 -0.001969 0.000000 0.000000 0.000000
# 2 -0.007592 0.032158 -0.009430 0.000000 0.000000 0.000000
# 3 -0.001969 -0.009430 0.016094 0.000000 0.000000 0.000000
# 4 0.000000 0.000000 0.000000 0.047686 0.000000 0.000000
# 5 0.000000 0.000000 0.000000 0.000000 0.160936 0.000000
# 6 0.000000 0.000000 0.000000 0.000000 0.000000 0.058432
#
#
# Mechanical properties :
#
#
# Convention : Reuss Voigt Hill
#
# Bulk Modulus (GPa) = 45.20808 51.73296 48.47052
# Shear Modulus (GPa) = 13.42246 18.41113 15.91680
#
# Velocity S-wave (km/s) = 2.86440 3.35473 3.11922
# Velocity P-wave (km/s) = 6.21081 6.82851 6.52698
#
# Compressibility (1/GPa) = 0.02211994
#
# Stress axis : x y z
#
# Youngs Moduli (GPa) = 84.39367 31.09672 62.13475
#
# Poissons Ratio (x) = 0.23608 0.12234
# Poissons Ratio (y) = 0.64069 0.58592
# Poissons Ratio (z) = 0.16617 0.29324
#
# Static dielectric constant tensor:
#      x y z
#    x 1.555160 0.000000 0.000000 
#    y 0.000000 1.541860 0.000000 
#    z 0.000000 0.000000 1.536730 
# 
# From -- ./inp_files/69876.got.cif
#   From: 2010.05.17/outbox.cif.g08.bks.cpg/sg63_35_cif.got.tgz:69876.got - 2010.06.03 15:47:04.
