data_PCOD9470861
_publ_section_title
;
Structure prediction by ZEFSAII (Michael W. Deem and Ramdas Pophale) SiO2 
 PCOD9470861
Probable space group: C M C M
;
_chemical_formula_sum "Si O2"
_cell_formula_units_Z 112
_cell_length_a 22.268040
_cell_length_b 12.356983
_cell_length_c 21.725147
_cell_angle_alpha 90.000000
_cell_angle_beta 90.000000
_cell_angle_gamma 90.000000
_cell_volume 5978.017275
_symmetry_space_group_name_H-M "C M C M"
_symmetry_group_IT_number 63
_symmetry_cell_setting 'orthorhombic'
loop_
_space_group_symop_operation_xyz
x,y,z
-x,-y,1/2+z
x,-y,-z
-x,y,1/2-z
-x,-y,-z
x,y,1/2-z
-x,y,z
x,-y,1/2+z
1/2+x,1/2+y,z
1/2-x,1/2-y,1/2+z
1/2+x,1/2-y,-z
1/2-x,1/2+y,1/2-z
1/2-x,1/2-y,-z
1/2+x,1/2+y,1/2-z
1/2-x,1/2+y,z
1/2+x,1/2-y,1/2+z
loop_
_atom_site_type_symbol
_atom_site_label
_atom_site_fract_x
_atom_site_fract_y
_atom_site_fract_z
Si Si1 0.665212 0.045782 0.323708
Si Si2 0.069713 0.070665 0.913865
Si Si3 0.566533 0.232774 0.321029
Si Si4 0.565946 0.877279 0.178077
Si Si5 0.156311 0.804418 0.997066
Si Si6 0.431012 0.676216 0.393514
Si Si7 0.780675 0.404184 0.951059
O O1 0.683658 0.037880 0.250000
O O2 0.623940 0.943419 0.342501
O O3 0.619073 0.146294 0.328405
O O4 0.712822 0.060955 0.379299
O O5 0.073939 0.161127 0.861501
O O6 0.000000 0.071113 0.936063
O O7 0.083432 0.950558 0.889529
O O8 0.116748 0.110717 0.964312
O O9 0.566524 0.265023 0.250000
O O10 0.500000 0.185227 0.334842
O O11 0.562651 0.902045 0.250000
O O12 0.500000 0.906802 0.151008
O O13 0.573533 0.749611 0.166792
O O14 0.112664 0.769027 0.942368
O O15 0.214244 0.862687 0.968404
O O16 0.177250 0.700376 0.035869
O O17 0.500000 0.682469 0.414693
O O18 0.795294 0.500000 0.000000
#
# Coordination Sequence:
#
# PCOD9470861 Si02
#       7
#    16  16  16  16  16  16  16
#     4  10  19  36  59  82 113 150 192 238 286 344
#     4  10  19  33  55  82 114 149 189 235 286 343
#     4   9  17  30  52  82 113 145 182 228 286 345
#     4   9  18  33  55  83 114 148 183 224 282 347
#     4  11  22  38  56  79 111 147 191 237 288 345
#     4  10  20  34  54  80 110 145 184 229 282 340
#     4  11  23  38  59  83 112 152 197 241 292 351
#
# _framework density 18.735309000000001
#
# number of rings (size 3 to 8) (size 9 to 14) (size 15 to 20)
#    0.000    2.000    1.429    3.000    0.000    3.429 
#    0.000    3.571    0.000    9.429    0.000    0.000 
#    0.000    0.000    0.000    0.000    0.000    0.000 
#
# Total GULP energy -311951.386730 kJ/mol
# GULP energy per Si atom -5570.560477 kJ/mol
# Density = 1.869267 g / cm^3
# Si number density = 18.735309 Si / 1000 Ang^3
#
#
#
# Elastic Constant Matrix: (Units=GPa)
#
#
# Indices 1 2 3 4 5 6 
#
# 1 54.0276 30.1135 25.7903 0.0000 0.0000 0.0000
# 2 30.1135 84.4219 32.0101 0.0000 0.0000 0.0000
# 3 25.7903 32.0101 71.5140 0.0000 0.0000 0.0000
# 4 0.0000 0.0000 0.0000 34.2877 0.0000 0.0000
# 5 0.0000 0.0000 0.0000 0.0000 19.1003 0.0000
# 6 0.0000 0.0000 0.0000 0.0000 0.0000 23.5989
#
#
#
# Elastic Compliance Matrix: (Units=1/GPa)
#
#
# Indices 1 2 3 4 5 6 
#
# 1 0.025121 -0.006655 -0.006081 0.000000 0.000000 0.000000
# 2 -0.006655 0.016030 -0.004775 0.000000 0.000000 0.000000
# 3 -0.006081 -0.004775 0.018313 0.000000 0.000000 0.000000
# 4 0.000000 0.000000 0.000000 0.029165 0.000000 0.000000
# 5 0.000000 0.000000 0.000000 0.000000 0.052355 0.000000
# 6 0.000000 0.000000 0.000000 0.000000 0.000000 0.042375
#
#
# Mechanical properties :
#
#
# Convention : Reuss Voigt Hill
#
# Bulk Modulus (GPa) = 40.91181 42.86569 41.88875
# Shear Modulus (GPa) = 22.07232 23.53403 22.80318
#
# Velocity S-wave (km/s) = 3.43609 3.54804 3.49251
# Velocity P-wave (km/s) = 6.13404 6.30191 6.21854
#
# Compressibility (1/GPa) = 0.02444282
#
# Stress axis : x y z
#
# Youngs Moduli (GPa) = 39.80722 62.38432 54.60477
#
# Poissons Ratio (x) = 0.41518 0.33203
# Poissons Ratio (y) = 0.26492 0.26073
# Poissons Ratio (z) = 0.24205 0.29788
#
# Static dielectric constant tensor:
#      x y z
#    x 1.671780 0.000000 0.000000 
#    y 0.000000 1.647350 0.000000 
#    z 0.000000 0.000000 1.667690 
# 
# From -- ./inp_files/57618.got.cif
#   From: 2010.05.17/outbox.cif.g08.bks.cpg/sg63_29_cif.got.tgz:57618.got - 2010.06.03 15:47:04.
