data_PCOD9470484
_publ_section_title
;
Structure prediction by ZEFSAII (Michael W. Deem and Ramdas Pophale) SiO2 
 PCOD9470484
Probable space group: C M C M
;
_chemical_formula_sum "Si O2"
_cell_formula_units_Z 96
_cell_length_a 22.814361
_cell_length_b 25.732124
_cell_length_c 7.857676
_cell_angle_alpha 90.000000
_cell_angle_beta 90.000000
_cell_angle_gamma 90.000000
_cell_volume 4612.942723
_symmetry_space_group_name_H-M "C M C M"
_symmetry_group_IT_number 63
_symmetry_cell_setting 'orthorhombic'
loop_
_space_group_symop_operation_xyz
x,y,z
-x,-y,1/2+z
x,-y,-z
-x,y,1/2-z
-x,-y,-z
x,y,1/2-z
-x,y,z
x,-y,1/2+z
1/2+x,1/2+y,z
1/2-x,1/2-y,1/2+z
1/2+x,1/2-y,-z
1/2-x,1/2+y,1/2-z
1/2-x,1/2-y,-z
1/2+x,1/2+y,1/2-z
1/2-x,1/2+y,z
1/2+x,1/2-y,1/2+z
loop_
_atom_site_type_symbol
_atom_site_label
_atom_site_fract_x
_atom_site_fract_y
_atom_site_fract_z
Si Si1 0.224819 0.305196 0.047375
Si Si2 0.140798 0.442973 0.548551
Si Si3 0.272482 0.586433 0.953892
Si Si4 0.000000 0.256875 0.959162
Si Si5 0.500000 0.636719 0.541475
Si Si6 0.600013 0.442639 0.454980
Si Si7 0.402143 0.835870 0.553523
O O1 0.214709 0.308503 0.250000
O O2 0.267538 0.352705 0.000513
O O3 0.250000 0.250000 0.000000
O O4 0.163598 0.314507 0.955082
O O5 0.119715 0.500000 0.500000
O O6 0.137407 0.438169 0.750000
O O7 0.209958 0.437672 0.504784
O O8 0.104793 0.393710 0.474875
O O9 0.274575 0.582049 0.750000
O O10 0.333190 0.563311 0.021879
O O11 0.000000 0.196804 0.015578
O O12 0.055166 0.291758 0.017188
O O13 0.000000 0.253967 0.750000
O O14 0.500000 0.637281 0.750000
O O15 0.556910 0.603374 0.487007
O O16 0.577772 0.500000 0.500000
O O17 0.601960 0.439137 0.250000
O O18 0.420758 0.842454 0.750000
#
# Coordination Sequence:
#
# PCOD9470484 Si02
#       7
#    16  16  16   8   8  16  16
#     4  10  20  33  52  78 110 143 176 220 269 323
#     4  10  19  32  52  79 110 139 173 214 262 322
#     4   9  19  33  51  76 105 137 176 217 261 313
#     4   9  18  35  61  81 101 137 184 231 266 316
#     4   9  19  33  54  77  97 131 178 219 260 310
#     4  10  20  34  52  76 102 133 172 216 260 309
#     4   9  19  35  56  81 105 137 181 226 269 315
#
# _framework density 20.81101
#
# number of rings (size 3 to 8) (size 9 to 14) (size 15 to 20)
#    0.000    2.500    0.000    1.750    2.333    3.333 
#    0.000    0.833    0.000    1.000    0.000    0.000 
#    0.000    0.000    0.000    0.000    0.000    0.000 
#
# Total GULP energy -267695.637477 kJ/mol
# GULP energy per Si atom -5576.992447 kJ/mol
# Density = 2.076364 g / cm^3
# Si number density = 20.811010 Si / 1000 Ang^3
#
#
#
# Elastic Constant Matrix: (Units=GPa)
#
#
# Indices 1 2 3 4 5 6 
#
# 1 75.2306 67.2580 8.8831 0.0000 0.0000 0.0000
# 2 67.2580 211.7768 7.9144 0.0000 0.0000 0.0000
# 3 8.8831 7.9144 22.3830 0.0000 0.0000 0.0000
# 4 0.0000 0.0000 0.0000 25.0048 0.0000 0.0000
# 5 0.0000 0.0000 0.0000 0.0000 5.4664 0.0000
# 6 0.0000 0.0000 0.0000 0.0000 0.0000 20.2811
#
#
#
# Elastic Compliance Matrix: (Units=1/GPa)
#
#
# Indices 1 2 3 4 5 6 
#
# 1 0.019218 -0.005896 -0.005542 0.000000 0.000000 0.000000
# 2 -0.005896 0.006594 0.000008 0.000000 0.000000 0.000000
# 3 -0.005542 0.000008 0.046873 0.000000 0.000000 0.000000
# 4 0.000000 0.000000 0.000000 0.039992 0.000000 0.000000
# 5 0.000000 0.000000 0.000000 0.000000 0.182936 0.000000
# 6 0.000000 0.000000 0.000000 0.000000 0.000000 0.049307
#
#
# Mechanical properties :
#
#
# Convention : Reuss Voigt Hill
#
# Bulk Modulus (GPa) = 20.07004 53.05572 36.56288
# Shear Modulus (GPa) = 13.00761 25.17279 19.09020
#
# Velocity S-wave (km/s) = 2.50278 3.48169 3.03200
# Velocity P-wave (km/s) = 4.24462 6.45851 5.46485
#
# Compressibility (1/GPa) = 0.04982551
#
# Stress axis : x y z
#
# Youngs Moduli (GPa) = 52.03334 151.64641 21.33412
#
# Poissons Ratio (x) = 0.89418 0.11824
# Poissons Ratio (y) = 0.30681 -0.00018
# Poissons Ratio (z) = 0.28838 -0.00128
#
# Static dielectric constant tensor:
#      x y z
#    x 1.738930 0.000000 0.000000 
#    y 0.000000 1.727330 0.000000 
#    z 0.000000 0.000000 1.780570 
# 
# From -- ./inp_files/10519.got.cif
#   From: 2010.05.17/outbox.cif.g08.bks.cpg/sg63_6_cif.got.tgz:10519.got - 2010.06.03 15:47:04.
