data_PCOD9470958
_publ_section_title
;
Structure prediction by ZEFSAII (Michael W. Deem and Ramdas Pophale) SiO2 
 PCOD9470958
Probable space group: C M C M
;
_chemical_formula_sum "Si O2"
_cell_formula_units_Z 68
_cell_length_a 7.674258
_cell_length_b 27.799592
_cell_length_c 15.846980
_cell_angle_alpha 90.000000
_cell_angle_beta 90.000000
_cell_angle_gamma 90.000000
_cell_volume 3380.814384
_symmetry_space_group_name_H-M "C M C M"
_symmetry_group_IT_number 63
_symmetry_cell_setting 'orthorhombic'
loop_
_space_group_symop_operation_xyz
x,y,z
-x,-y,1/2+z
x,-y,-z
-x,y,1/2-z
-x,-y,-z
x,y,1/2-z
-x,y,z
x,-y,1/2+z
1/2+x,1/2+y,z
1/2-x,1/2-y,1/2+z
1/2+x,1/2-y,-z
1/2-x,1/2+y,1/2-z
1/2-x,1/2-y,-z
1/2+x,1/2+y,1/2-z
1/2-x,1/2+y,z
1/2+x,1/2-y,1/2+z
loop_
_atom_site_type_symbol
_atom_site_label
_atom_site_fract_x
_atom_site_fract_y
_atom_site_fract_z
Si Si1 0.710637 0.248822 0.652258
Si Si2 0.803686 0.426661 0.750000
Si Si3 0.500000 0.491818 0.250000
Si Si4 0.190427 0.412468 0.250000
Si Si5 0.287815 0.644156 0.401200
Si Si6 0.203183 0.146690 0.910764
O O1 0.763050 0.242721 0.750000
O O2 0.500000 0.247162 0.648730
O O3 0.766036 0.301330 0.620959
O O4 0.780418 0.204143 0.599291
O O5 0.653504 0.466308 0.750000
O O6 0.779521 0.392594 0.831726
O O7 0.000000 0.446103 0.750000
O O8 0.346932 0.449967 0.250000
O O9 0.205252 0.378815 0.332620
O O10 0.000000 0.435617 0.250000
O O11 0.500000 0.643136 0.398412
O O12 0.232389 0.632311 0.496513
O O13 0.000000 0.133646 0.905475
#
# Coordination Sequence:
#
# PCOD9470958 Si02
#       6
#    16   8   4   8  16  16
#     4  10  19  33  59  93 136 183 224 267 322 394
#     4  12  25  44  74 101 128 172 220 280 345 400
#     4  12  26  52  74  98 136 166 230 292 342 404
#     4  12  25  46  72  97 130 174 220 282 347 398
#     4  10  21  41  65  93 139 184 219 272 333 394
#     4  11  22  38  64  97 136 182 223 272 332 397
#
# _framework density 20.113498
#
# number of rings (size 3 to 8) (size 9 to 14) (size 15 to 20)
#    0.000    1.176    4.706    1.765    0.000    2.824 
#    0.000    2.353    0.000    2.824    0.000    0.000 
#    0.000    0.000    0.000    0.000    0.000    0.000 
#
# Total GULP energy -189577.666424 kJ/mol
# GULP energy per Si atom -5575.813718 kJ/mol
# Density = 2.006772 g / cm^3
# Si number density = 20.113498 Si / 1000 Ang^3
#
#
#
# Elastic Constant Matrix: (Units=GPa)
#
#
# Indices 1 2 3 4 5 6 
#
# 1 118.0999 41.2383 27.0448 0.0000 0.0000 0.0000
# 2 41.2383 112.3812 25.2412 0.0000 0.0000 0.0000
# 3 27.0448 25.2412 110.1129 0.0000 0.0000 0.0000
# 4 0.0000 0.0000 0.0000 -32.2632 0.0000 0.0000
# 5 0.0000 0.0000 0.0000 0.0000 -6.8267 0.0000
# 6 0.0000 0.0000 0.0000 0.0000 0.0000 32.5703
#
#
#
# Elastic Compliance Matrix: (Units=1/GPa)
#
#
# Indices 1 2 3 4 5 6 
#
# 1 0.010006 -0.003289 -0.001704 0.000000 0.000000 0.000000
# 2 -0.003289 0.010462 -0.001590 0.000000 0.000000 0.000000
# 3 -0.001704 -0.001590 0.009865 0.000000 0.000000 0.000000
# 4 0.000000 0.000000 0.000000 -0.030995 0.000000 0.000000
# 5 0.000000 0.000000 0.000000 0.000000 -0.146484 0.000000
# 6 0.000000 0.000000 0.000000 0.000000 0.000000 0.030703
#
#
# Mechanical properties :
#
#
# Convention : Reuss Voigt Hill
#
# Bulk Modulus (GPa) = 58.25227 58.62696 58.43961
# Shear Modulus (GPa) = -51.25348 15.16740 -18.04304
#
# Velocity S-wave (km/s) = -5.05346 2.74905 -2.99835
# Velocity P-wave (km/s) = 2.24171 6.26799 4.13899
#
# Compressibility (1/GPa) = 0.01716671
#
# Stress axis : x y z
#
# Youngs Moduli (GPa) = 99.93983 95.58001 101.37263
#
# Poissons Ratio (x) = 0.31437 0.17270
# Poissons Ratio (y) = 0.32871 0.16123
# Poissons Ratio (z) = 0.17026 0.15202
#
# Static dielectric constant tensor:
#      x y z
#    x 1.732160 0.000000 0.000000 
#    y 0.000000 1.652530 0.000000 
#    z 0.000000 0.000000 1.717980 
# 
# From -- ./inp_files/40255.got.cif
#   From: 2010.05.17/outbox.cif.g08.bks.cpg/sg63_21_cif.got.tgz:40255.got - 2010.06.03 15:47:04.
