data_PCOD9470552
_publ_section_title
;
Structure prediction by ZEFSAII (Michael W. Deem and Ramdas Pophale) SiO2 
 PCOD9470552
Probable space group: C M C M
;
_chemical_formula_sum "Si O2"
_cell_formula_units_Z 128
_cell_length_a 19.116135
_cell_length_b 23.074846
_cell_length_c 18.229643
_cell_angle_alpha 90.000000
_cell_angle_beta 90.000000
_cell_angle_gamma 90.000000
_cell_volume 8041.129639
_symmetry_space_group_name_H-M "C M C M"
_symmetry_group_IT_number 63
_symmetry_cell_setting 'orthorhombic'
loop_
_space_group_symop_operation_xyz
x,y,z
-x,-y,1/2+z
x,-y,-z
-x,y,1/2-z
-x,-y,-z
x,y,1/2-z
-x,y,z
x,-y,1/2+z
1/2+x,1/2+y,z
1/2-x,1/2-y,1/2+z
1/2+x,1/2-y,-z
1/2-x,1/2+y,1/2-z
1/2-x,1/2-y,-z
1/2+x,1/2+y,1/2-z
1/2-x,1/2+y,z
1/2+x,1/2-y,1/2+z
loop_
_atom_site_type_symbol
_atom_site_label
_atom_site_fract_x
_atom_site_fract_y
_atom_site_fract_z
Si Si1 0.422651 0.720228 0.558619
Si Si2 0.857781 0.267841 0.336882
Si Si3 0.316197 0.061698 0.980096
Si Si4 0.799139 0.809718 0.334542
Si Si5 0.263676 0.443866 0.164974
Si Si6 0.829558 0.960554 0.565329
Si Si7 0.921556 0.662213 0.966857
Si Si8 0.082209 0.152523 0.092414
O O1 0.500000 0.712147 0.591774
O O2 0.360005 0.712831 0.614235
O O3 0.419903 0.782930 0.520865
O O4 0.415134 0.675341 0.491420
O O5 0.867849 0.276406 0.250000
O O6 0.776718 0.283047 0.354340
O O7 0.902399 0.311412 0.387251
O O8 0.880399 0.202840 0.359892
O O9 0.298887 0.059739 0.893590
O O10 0.365353 0.115708 0.992771
O O11 0.242857 0.062878 0.026493
O O12 0.349285 0.000000 0.000000
O O13 0.812004 0.794498 0.250000
O O14 0.796873 0.879712 0.339877
O O15 0.245576 0.454017 0.250000
O O16 0.310266 0.495611 0.131233
O O17 0.877035 0.908127 0.592692
O O18 0.862220 0.000000 0.500000
O O19 0.000000 0.638238 0.965576
O O20 0.000000 0.147926 0.112911
#
# Coordination Sequence:
#
# PCOD9470552 Si02
#       8
#    16  16  16  16  16  16  16  16
#     4   9  19  33  49  74 105 132 164 209 253 302
#     4  10  21  34  51  77 106 135 172 212 254 310
#     4   9  18  32  51  73  98 131 165 210 257 295
#     4  10  19  32  54  77  97 130 172 212 255 300
#     4   9  17  32  51  74  98 125 171 214 245 293
#     4   9  19  33  52  74 101 138 173 208 256 295
#     4  10  20  32  51  76 100 134 167 201 257 309
#     4  10  21  34  51  77 106 141 173 208 257 305
#
# _framework density 15.918161
#
# number of rings (size 3 to 8) (size 9 to 14) (size 15 to 20)
#    0.000    2.750    1.250    2.625    1.750    3.250 
#    0.000    0.625    0.000    0.750    0.000    0.000 
#    0.000    0.000    0.000    0.000    0.000    0.000 
#
# Total GULP energy -356396.570243 kJ/mol
# GULP energy per Si atom -5568.696410 kJ/mol
# Density = 1.588193 g / cm^3
# Si number density = 15.918161 Si / 1000 Ang^3
#
#
#
# Elastic Constant Matrix: (Units=GPa)
#
#
# Indices 1 2 3 4 5 6 
#
# 1 91.3890 53.6125 46.3455 0.0000 0.0000 0.0000
# 2 53.6125 89.5947 17.8176 0.0000 0.0000 0.0000
# 3 46.3455 17.8176 72.9075 0.0000 0.0000 0.0000
# 4 0.0000 0.0000 0.0000 14.6496 0.0000 0.0000
# 5 0.0000 0.0000 0.0000 0.0000 -36.2228 0.0000
# 6 0.0000 0.0000 0.0000 0.0000 0.0000 7.4492
#
#
#
# Elastic Compliance Matrix: (Units=1/GPa)
#
#
# Indices 1 2 3 4 5 6 
#
# 1 0.024420 -0.012114 -0.012562 0.000000 0.000000 0.000000
# 2 -0.012114 0.017741 0.003365 0.000000 0.000000 0.000000
# 3 -0.012562 0.003365 0.020879 0.000000 0.000000 0.000000
# 4 0.000000 0.000000 0.000000 0.068261 0.000000 0.000000
# 5 0.000000 0.000000 0.000000 0.000000 -0.027607 0.000000
# 6 0.000000 0.000000 0.000000 0.000000 0.000000 0.134243
#
#
# Mechanical properties :
#
#
# Convention : Reuss Voigt Hill
#
# Bulk Modulus (GPa) = 48.97911 54.38248 51.68080
# Shear Modulus (GPa) = 17.39938 6.24956 11.82447
#
# Velocity S-wave (km/s) = 3.30972 1.98358 2.72845
# Velocity P-wave (km/s) = 6.74105 6.28364 6.51636
#
# Compressibility (1/GPa) = 0.02041687
#
# Stress axis : x y z
#
# Youngs Moduli (GPa) = 40.95073 56.36607 47.89436
#
# Poissons Ratio (x) = 0.68283 0.60167
# Poissons Ratio (y) = 0.49608 -0.16116
# Poissons Ratio (z) = 0.51444 -0.18967
#
# Static dielectric constant tensor:
#      x y z
#    x 1.534800 0.000000 0.000000 
#    y 0.000000 1.538250 0.000000 
#    z 0.000000 0.000000 1.522820 
# 
# From -- ./inp_files/46350.got.cif
#   From: 2010.05.17/outbox.cif.g08.bks.cpg/sg63_24_cif.got.tgz:46350.got - 2010.06.03 15:47:04.
