data_PCOD9470555
_publ_section_title
;
Structure prediction by ZEFSAII (Michael W. Deem and Ramdas Pophale) SiO2 
 PCOD9470555
Probable space group: C M C M
;
_chemical_formula_sum "Si O2"
_cell_formula_units_Z 116
_cell_length_a 7.430725
_cell_length_b 27.689259
_cell_length_c 26.511189
_cell_angle_alpha 90.000000
_cell_angle_beta 90.000000
_cell_angle_gamma 90.000000
_cell_volume 5454.710782
_symmetry_space_group_name_H-M "C M C M"
_symmetry_group_IT_number 63
_symmetry_cell_setting 'orthorhombic'
loop_
_space_group_symop_operation_xyz
x,y,z
-x,-y,1/2+z
x,-y,-z
-x,y,1/2-z
-x,-y,-z
x,y,1/2-z
-x,y,z
x,-y,1/2+z
1/2+x,1/2+y,z
1/2-x,1/2-y,1/2+z
1/2+x,1/2-y,-z
1/2-x,1/2+y,1/2-z
1/2-x,1/2-y,-z
1/2+x,1/2+y,1/2-z
1/2-x,1/2+y,z
1/2+x,1/2-y,1/2+z
loop_
_atom_site_type_symbol
_atom_site_label
_atom_site_fract_x
_atom_site_fract_y
_atom_site_fract_z
Si Si1 0.280772 0.900388 0.662112
Si Si2 0.704410 0.109460 0.659938
Si Si3 0.779764 0.752780 0.413292
Si Si4 0.215626 0.351404 0.556580
Si Si5 0.782039 0.505701 0.692618
Si Si6 0.000000 0.874232 0.750000
Si Si7 0.709538 0.642995 0.553983
Si Si8 0.708019 0.715687 0.694612
O O1 0.500000 0.894970 0.670739
O O2 0.235568 0.878699 0.607616
O O3 0.159663 0.876936 0.705654
O O4 0.236199 0.957635 0.662376
O O5 0.500000 0.111027 0.679005
O O6 0.784690 0.058038 0.675313
O O7 0.703191 0.113554 0.599362
O O8 0.789077 0.158370 0.681989
O O9 0.716634 0.703628 0.438411
O O10 0.722997 0.801676 0.441362
O O11 0.717361 0.758202 0.355091
O O12 0.000000 0.751996 0.412902
O O13 0.271310 0.373580 0.503210
O O14 0.000000 0.349806 0.555448
O O15 0.724066 0.496826 0.750000
O O16 0.000000 0.508340 0.691739
O O17 0.500000 0.643697 0.567294
O O18 0.788837 0.724461 0.750000
O O19 0.500000 0.730548 0.697275
#
# Coordination Sequence:
#
# PCOD9470555 Si02
#       8
#    16  16  16  16  16   4  16  16
#     4  10  22  40  61  88 119 149 191 237 280 331
#     4  10  19  32  54  78 106 144 186 224 274 334
#     4   8  16  32  53  79 105 141 187 226 279 337
#     4  10  20  36  59  81 105 144 189 230 278 341
#     4   9  17  34  56  80 109 143 183 229 273 323
#     4  12  22  40  64  86 118 160 186 236 282 334
#     4  10  20  35  55  79 113 141 177 237 282 330
#     4   9  17  31  48  74 112 143 173 224 276 332
#
# _framework density 21.266023000000001
#
# number of rings (size 3 to 8) (size 9 to 14) (size 15 to 20)
#    0.000    2.483    0.690    2.690    0.966    0.828 
#    3.724    3.448    0.000    4.138    0.000    0.000 
#    0.000    0.000    0.000    0.000    0.000    0.000 
#
# Total GULP energy -323128.655730 kJ/mol
# GULP energy per Si atom -5571.183719 kJ/mol
# Density = 2.121762 g / cm^3
# Si number density = 21.266023 Si / 1000 Ang^3
#
#
#
# Elastic Constant Matrix: (Units=GPa)
#
#
# Indices 1 2 3 4 5 6 
#
# 1 75.7491 -7.9773 -5.1135 0.0000 0.0000 0.0000
# 2 -7.9773 26.2038 -1.5058 0.0000 0.0000 0.0000
# 3 -5.1135 -1.5058 102.5913 0.0000 0.0000 0.0000
# 4 0.0000 0.0000 0.0000 15.7791 0.0000 0.0000
# 5 0.0000 0.0000 0.0000 0.0000 20.0579 0.0000
# 6 0.0000 0.0000 0.0000 0.0000 0.0000 6.1697
#
#
#
# Elastic Compliance Matrix: (Units=1/GPa)
#
#
# Indices 1 2 3 4 5 6 
#
# 1 0.013695 0.004212 0.000744 0.000000 0.000000 0.000000
# 2 0.004212 0.039490 0.000790 0.000000 0.000000 0.000000
# 3 0.000744 0.000790 0.009796 0.000000 0.000000 0.000000
# 4 0.000000 0.000000 0.000000 0.063375 0.000000 0.000000
# 5 0.000000 0.000000 0.000000 0.000000 0.049856 0.000000
# 6 0.000000 0.000000 0.000000 0.000000 0.000000 0.162083
#
#
# Mechanical properties :
#
#
# Convention : Reuss Voigt Hill
#
# Bulk Modulus (GPa) = 13.42755 19.48343 16.45549
# Shear Modulus (GPa) = 14.21959 23.01074 18.61516
#
# Velocity S-wave (km/s) = 2.58864 3.29301 2.96184
# Velocity P-wave (km/s) = 3.90673 4.86212 4.41037
#
# Compressibility (1/GPa) = 0.07447377
#
# Stress axis : x y z
#
# Youngs Moduli (GPa) = 73.01762 25.32280 102.08135
#
# Poissons Ratio (x) = -0.10666 -0.07599
# Poissons Ratio (y) = -0.30756 -0.08060
# Poissons Ratio (z) = -0.05436 -0.01999
#
# Static dielectric constant tensor:
#      x y z
#    x 1.842440 0.000000 0.000000 
#    y 0.000000 1.760290 0.000000 
#    z 0.000000 0.000000 1.767490 
# 
# From -- ./inp_files/67595.got.cif
#   From: 2010.05.17/outbox.cif.g08.bks.cpg/sg63_34_cif.got.tgz:67595.got - 2010.06.03 15:47:04.
