data_PCOD9470970
_publ_section_title
;
Structure prediction by ZEFSAII (Michael W. Deem and Ramdas Pophale) SiO2 
 PCOD9470970
Probable space group: C M C M
;
_chemical_formula_sum "Si O2"
_cell_formula_units_Z 104
_cell_length_a 32.766676
_cell_length_b 20.953060
_cell_length_c 8.991707
_cell_angle_alpha 90.000000
_cell_angle_beta 90.000000
_cell_angle_gamma 90.000000
_cell_volume 6173.365494
_symmetry_space_group_name_H-M "C M C M"
_symmetry_group_IT_number 63
_symmetry_cell_setting 'orthorhombic'
loop_
_space_group_symop_operation_xyz
x,y,z
-x,-y,1/2+z
x,-y,-z
-x,y,1/2-z
-x,-y,-z
x,y,1/2-z
-x,y,z
x,-y,1/2+z
1/2+x,1/2+y,z
1/2-x,1/2-y,1/2+z
1/2+x,1/2-y,-z
1/2-x,1/2+y,1/2-z
1/2-x,1/2-y,-z
1/2+x,1/2+y,1/2-z
1/2-x,1/2+y,z
1/2+x,1/2-y,1/2+z
loop_
_atom_site_type_symbol
_atom_site_label
_atom_site_fract_x
_atom_site_fract_y
_atom_site_fract_z
Si Si1 0.348505 0.173434 0.071779
Si Si2 0.280935 0.932709 0.929084
Si Si3 0.454260 0.298854 0.924759
Si Si4 0.432859 0.149703 0.577646
Si Si5 0.368225 0.682118 0.572003
Si Si6 0.308212 0.566945 0.929694
Si Si7 0.000000 0.567539 0.076111
O O1 0.355844 0.169803 0.250000
O O2 0.310020 0.127963 0.040314
O O3 0.347847 0.249099 0.032671
O O4 0.387043 0.147642 0.981460
O O5 0.277527 0.940084 0.750000
O O6 0.236608 0.921488 0.001612
O O7 0.296103 0.000000 0.000000
O O8 0.452560 0.315436 0.750000
O O9 0.500000 0.316053 0.980477
O O10 0.449123 0.222214 0.935400
O O11 0.413541 0.324364 0.003936
O O12 0.435644 0.131133 0.750000
O O13 0.460844 0.105941 0.478166
O O14 0.372551 0.681712 0.750000
O O15 0.338618 0.624263 0.530079
O O16 0.305520 0.562269 0.750000
O O17 0.322455 0.500000 0.000000
O O18 0.000000 0.560570 0.250000
O O19 0.000000 0.500000 0.000000
#
# Coordination Sequence:
#
# PCOD9470970 Si02
#       7
#    16  16  16  16  16  16   8
#     4   9  19  35  52  75 105 136 173 215 260 308
#     4  10  20  34  53  74 101 137 177 215 255 310
#     4   9  17  31  52  77 105 133 164 205 251 303
#     4  10  19  34  52  72 100 131 167 212 258 307
#     4   9  19  34  52  78 106 134 172 215 258 307
#     4  10  20  35  55  77 104 135 171 213 257 313
#     4  12  24  36  50  68  94 132 175 218 263 308
#
# _framework density 16.846564999999998
#
# number of rings (size 3 to 8) (size 9 to 14) (size 15 to 20)
#    0.000    2.308    0.769    3.000    0.000    4.615 
#    0.000    1.538    0.000    0.462    0.000    0.000 
#    0.000    0.000    0.000    0.000    0.000    0.000 
#
# Total GULP energy -289869.520442 kJ/mol
# GULP energy per Si atom -5574.413855 kJ/mol
# Density = 1.680822 g / cm^3
# Si number density = 16.846565 Si / 1000 Ang^3
#
#
#
# Elastic Constant Matrix: (Units=GPa)
#
#
# Indices 1 2 3 4 5 6 
#
# 1 115.3294 81.8703 54.3861 0.0000 0.0000 0.0000
# 2 81.8703 101.8849 58.0611 0.0000 0.0000 0.0000
# 3 54.3861 58.0611 76.8854 0.0000 0.0000 0.0000
# 4 0.0000 0.0000 0.0000 24.3379 0.0000 0.0000
# 5 0.0000 0.0000 0.0000 0.0000 34.1821 0.0000
# 6 0.0000 0.0000 0.0000 0.0000 0.0000 30.3052
#
#
#
# Elastic Compliance Matrix: (Units=1/GPa)
#
#
# Indices 1 2 3 4 5 6 
#
# 1 0.020757 -0.014591 -0.003664 0.000000 0.000000 0.000000
# 2 -0.014591 0.027487 -0.010436 0.000000 0.000000 0.000000
# 3 -0.003664 -0.010436 0.023479 0.000000 0.000000 0.000000
# 4 0.000000 0.000000 0.000000 0.041088 0.000000 0.000000
# 5 0.000000 0.000000 0.000000 0.000000 0.029255 0.000000
# 6 0.000000 0.000000 0.000000 0.000000 0.000000 0.032998
#
#
# Mechanical properties :
#
#
# Convention : Reuss Voigt Hill
#
# Bulk Modulus (GPa) = 69.73160 75.85942 72.79551
# Shear Modulus (GPa) = 21.07703 24.41717 22.74710
#
# Velocity S-wave (km/s) = 3.54095 3.81121 3.67856
# Velocity P-wave (km/s) = 7.62888 8.03084 7.83244
#
# Compressibility (1/GPa) = 0.01434070
#
# Stress axis : x y z
#
# Youngs Moduli (GPa) = 48.17747 36.38087 42.59176
#
# Poissons Ratio (x) = 0.53084 0.15604
# Poissons Ratio (y) = 0.70297 0.44448
# Poissons Ratio (z) = 0.17651 0.37966
#
# Static dielectric constant tensor:
#      x y z
#    x 1.562520 0.000000 0.000000 
#    y 0.000000 1.550750 0.000000 
#    z 0.000000 0.000000 1.563730 
# 
# From -- ./inp_files/14470.got.cif
#   From: 2010.05.17/outbox.cif.g08.bks.cpg/sg63_8_cif.got.tgz:14470.got - 2010.06.03 15:47:04.
