data_PCOD9470364
_publ_section_title
;
Structure prediction by ZEFSAII (Michael W. Deem and Ramdas Pophale) SiO2 
 PCOD9470364
Probable space group: C M C M
;
_chemical_formula_sum "Si O2"
_cell_formula_units_Z 80
_cell_length_a 8.368287
_cell_length_b 31.045594
_cell_length_c 13.729605
_cell_angle_alpha 90.000000
_cell_angle_beta 90.000000
_cell_angle_gamma 90.000000
_cell_volume 3566.929970
_symmetry_space_group_name_H-M "C M C M"
_symmetry_group_IT_number 63
_symmetry_cell_setting 'orthorhombic'
loop_
_space_group_symop_operation_xyz
x,y,z
-x,-y,1/2+z
x,-y,-z
-x,y,1/2-z
-x,-y,-z
x,y,1/2-z
-x,y,z
x,-y,1/2+z
1/2+x,1/2+y,z
1/2-x,1/2-y,1/2+z
1/2+x,1/2-y,-z
1/2-x,1/2+y,1/2-z
1/2-x,1/2-y,-z
1/2+x,1/2+y,1/2-z
1/2-x,1/2+y,z
1/2+x,1/2-y,1/2+z
loop_
_atom_site_type_symbol
_atom_site_label
_atom_site_fract_x
_atom_site_fract_y
_atom_site_fract_z
Si Si1 0.806923 0.780730 0.359659
Si Si2 0.818811 0.507348 0.115405
Si Si3 0.189808 0.903701 0.571712
Si Si4 0.313220 0.582474 0.646951
Si Si5 0.310104 0.186589 0.064147
O O1 0.756823 0.792631 0.250000
O O2 0.738131 0.807057 0.450672
O O3 0.764129 0.730816 0.381533
O O4 0.000000 0.784337 0.364173
O O5 0.705377 0.469273 0.150740
O O6 0.000000 0.500464 0.148281
O O7 0.817854 0.500000 0.000000
O O8 0.764917 0.556384 0.129558
O O9 0.253358 0.904985 0.458923
O O10 0.229621 0.856026 0.606880
O O11 0.000000 0.910782 0.569019
O O12 0.244240 0.599161 0.750000
O O13 0.500000 0.594612 0.645628
O O14 0.500000 0.181970 0.071172
#
# Coordination Sequence:
#
# PCOD9470364 Si02
#       5
#    16  16  16  16  16
#     4   9  19  37  58  77 102 138 174 209 258 321
#     4   9  17  30  48  69  94 126 163 203 247 293
#     4  10  19  32  51  73 100 136 172 207 251 304
#     4   9  18  32  49  70  97 130 169 210 252 303
#     4  10  20  34  54  81 108 134 171 219 265 310
#
# _framework density 22.428250999999999
#
# number of rings (size 3 to 8) (size 9 to 14) (size 15 to 20)
#    0.000    2.600    0.000    1.800    0.000    5.600 
#    0.000    3.000    0.000    3.600    0.000    0.000 
#    0.000    0.000    0.000    0.000    0.000    0.000 
#
# Total GULP energy -223186.251256 kJ/mol
# GULP energy per Si atom -5579.656281 kJ/mol
# Density = 2.237720 g / cm^3
# Si number density = 22.428251 Si / 1000 Ang^3
#
#
#
# Elastic Constant Matrix: (Units=GPa)
#
#
# Indices 1 2 3 4 5 6 
#
# 1 12.9375 -2.1023 -3.1683 0.0000 0.0000 0.0000
# 2 -2.1023 112.7506 -15.4336 0.0000 0.0000 0.0000
# 3 -3.1683 -15.4336 74.5043 0.0000 0.0000 0.0000
# 4 0.0000 0.0000 0.0000 -18.2104 0.0000 0.0000
# 5 0.0000 0.0000 0.0000 0.0000 -6.5626 0.0000
# 6 0.0000 0.0000 0.0000 0.0000 0.0000 28.3655
#
#
#
# Elastic Compliance Matrix: (Units=1/GPa)
#
#
# Indices 1 2 3 4 5 6 
#
# 1 0.078534 0.001978 0.003749 0.000000 0.000000 0.000000
# 2 0.001978 0.009178 0.001985 0.000000 0.000000 0.000000
# 3 0.003749 0.001985 0.013993 0.000000 0.000000 0.000000
# 4 0.000000 0.000000 0.000000 -0.054914 0.000000 0.000000
# 5 0.000000 0.000000 0.000000 0.000000 -0.152378 0.000000
# 6 0.000000 0.000000 0.000000 0.000000 0.000000 0.035254
#
#
# Mechanical properties :
#
#
# Convention : Reuss Voigt Hill
#
# Bulk Modulus (GPa) = 8.53762 17.64265 13.09014
# Shear Modulus (GPa) = -107.03355 15.44495 -45.79430
#
# Velocity S-wave (km/s) = -6.91565 2.62704 -4.52354
# Velocity P-wave (km/s) = 7.74296 4.13341 4.62970
#
# Compressibility (1/GPa) = 0.11712868
#
# Stress axis : x y z
#
# Youngs Moduli (GPa) = 12.73335 108.95906 71.46565
#
# Poissons Ratio (x) = -0.21547 -0.26795
# Poissons Ratio (y) = -0.02518 -0.14188
# Poissons Ratio (z) = -0.04774 -0.21631
#
# Static dielectric constant tensor:
#      x y z
#    x 1.789260 0.000000 0.000000 
#    y 0.000000 1.830090 0.000000 
#    z 0.000000 0.000000 1.802410 
# 
# From -- ./inp_files/40731.got.cif
#   From: 2010.05.17/outbox.cif.g08.bks.cpg/sg63_21_cif.got.tgz:40731.got - 2010.06.03 15:47:04.
