data_PCOD9470950
_publ_section_title
;
Structure prediction by ZEFSAII (Michael W. Deem and Ramdas Pophale) SiO2 
 PCOD9470950
Probable space group: C M C M
;
_chemical_formula_sum "Si O2"
_cell_formula_units_Z 112
_cell_length_a 29.174278
_cell_length_b 10.913257
_cell_length_c 17.573781
_cell_angle_alpha 90.000000
_cell_angle_beta 90.000000
_cell_angle_gamma 90.000000
_cell_volume 5595.252755
_symmetry_space_group_name_H-M "C M C M"
_symmetry_group_IT_number 63
_symmetry_cell_setting 'orthorhombic'
loop_
_space_group_symop_operation_xyz
x,y,z
-x,-y,1/2+z
x,-y,-z
-x,y,1/2-z
-x,-y,-z
x,y,1/2-z
-x,y,z
x,-y,1/2+z
1/2+x,1/2+y,z
1/2-x,1/2-y,1/2+z
1/2+x,1/2-y,-z
1/2-x,1/2+y,1/2-z
1/2-x,1/2-y,-z
1/2+x,1/2+y,1/2-z
1/2-x,1/2+y,z
1/2+x,1/2-y,1/2+z
loop_
_atom_site_type_symbol
_atom_site_label
_atom_site_fract_x
_atom_site_fract_y
_atom_site_fract_z
Si Si1 0.208668 0.522876 0.161457
Si Si2 0.887755 0.205882 0.338095
Si Si3 0.448496 0.511390 0.084001
Si Si4 0.316369 0.502530 0.159807
Si Si5 0.848390 0.742620 0.103084
Si Si6 0.550892 0.756069 0.658577
Si Si7 0.858907 0.614189 0.950994
O O1 0.201228 0.488371 0.250000
O O2 0.262493 0.513194 0.144741
O O3 0.188354 0.659038 0.147963
O O4 0.181309 0.437617 0.102636
O O5 0.888789 0.240051 0.250000
O O6 0.893185 0.319861 0.393828
O O7 0.924612 0.104450 0.359636
O O8 0.840657 0.132362 0.355704
O O9 0.500000 0.557225 0.070641
O O10 0.450116 0.380001 0.123448
O O11 0.426290 0.500000 0.000000
O O12 0.322988 0.480284 0.250000
O O13 0.339495 0.385641 0.119339
O O14 0.899643 0.698684 0.128185
O O15 0.843196 0.711057 0.014405
O O16 0.553717 0.752467 0.750000
O O17 0.500000 0.811107 0.639449
O O18 0.877006 0.500000 0.000000
#
# Coordination Sequence:
#
# PCOD9470950 Si02
#       7
#    16  16  16  16  16  16  16
#     4  10  22  40  60  83 119 163 207 255 301 364
#     4  11  22  38  61  89 122 161 203 253 308 373
#     4  10  20  34  55  90 129 160 191 240 312 378
#     4  10  22  36  58  92 121 157 201 247 313 372
#     4  11  21  39  60  87 126 157 199 255 313 367
#     4  10  19  33  58  90 121 155 196 245 306 374
#     4  10  24  42  58  84 115 160 212 251 305 359
#
# _framework density 20.016967999999999
#
# number of rings (size 3 to 8) (size 9 to 14) (size 15 to 20)
#    0.000    1.714    1.429    3.000    2.000    1.429 
#    5.143    0.000    0.000    7.714    0.000    0.000 
#    0.000    0.000    0.000    0.000    0.000    0.000 
#
# Total GULP energy -312379.937971 kJ/mol
# GULP energy per Si atom -5578.213178 kJ/mol
# Density = 1.997141 g / cm^3
# Si number density = 20.016968 Si / 1000 Ang^3
#
#
#
# Elastic Constant Matrix: (Units=GPa)
#
#
# Indices 1 2 3 4 5 6 
#
# 1 66.7491 6.8918 13.6992 0.0000 0.0000 0.0000
# 2 6.8918 45.1238 27.0480 0.0000 0.0000 0.0000
# 3 13.6992 27.0480 92.9414 0.0000 0.0000 0.0000
# 4 0.0000 0.0000 0.0000 38.3619 0.0000 0.0000
# 5 0.0000 0.0000 0.0000 0.0000 -44.7811 0.0000
# 6 0.0000 0.0000 0.0000 0.0000 0.0000 11.8884
#
#
#
# Elastic Compliance Matrix: (Units=1/GPa)
#
#
# Indices 1 2 3 4 5 6 
#
# 1 0.015503 -0.001209 -0.001933 0.000000 0.000000 0.000000
# 2 -0.001209 0.026938 -0.007661 0.000000 0.000000 0.000000
# 3 -0.001933 -0.007661 0.013274 0.000000 0.000000 0.000000
# 4 0.000000 0.000000 0.000000 0.026068 0.000000 0.000000
# 5 0.000000 0.000000 0.000000 0.000000 -0.022331 0.000000
# 6 0.000000 0.000000 0.000000 0.000000 0.000000 0.084116
#
#
# Mechanical properties :
#
#
# Convention : Reuss Voigt Hill
#
# Bulk Modulus (GPa) = 29.31855 33.34359 31.33107
# Shear Modulus (GPa) = 28.32147 11.57219 19.94683
#
# Velocity S-wave (km/s) = 3.76556 2.40702 3.16016
# Velocity P-wave (km/s) = 5.79522 4.94154 5.38532
#
# Compressibility (1/GPa) = 0.03410809
#
# Stress axis : x y z
#
# Youngs Moduli (GPa) = 64.50335 37.12187 75.33486
#
# Poissons Ratio (x) = 0.04488 0.14564
# Poissons Ratio (y) = 0.07798 0.57717
# Poissons Ratio (z) = 0.12470 0.28441
#
# Static dielectric constant tensor:
#      x y z
#    x 1.742910 0.000000 0.000000 
#    y 0.000000 1.711430 0.000000 
#    z 0.000000 0.000000 1.711860 
# 
# From -- ./inp_files/38513.got.cif
#   From: 2010.05.17/outbox.cif.g08.bks.cpg/sg63_20_cif.got.tgz:38513.got - 2010.06.03 15:47:04.
