data_PCOD9470061
_publ_section_title
;
Structure prediction by ZEFSAII (Michael W. Deem and Ramdas Pophale) SiO2 
 PCOD9470061
Probable space group: C M C M
;
_chemical_formula_sum "Si O2"
_cell_formula_units_Z 80
_cell_length_a 17.895676
_cell_length_b 23.325879
_cell_length_c 8.262461
_cell_angle_alpha 90.000000
_cell_angle_beta 90.000000
_cell_angle_gamma 90.000000
_cell_volume 3449.018702
_symmetry_space_group_name_H-M "C M C M"
_symmetry_group_IT_number 63
_symmetry_cell_setting 'orthorhombic'
loop_
_space_group_symop_operation_xyz
x,y,z
-x,-y,1/2+z
x,-y,-z
-x,y,1/2-z
-x,-y,-z
x,y,1/2-z
-x,y,z
x,-y,1/2+z
1/2+x,1/2+y,z
1/2-x,1/2-y,1/2+z
1/2+x,1/2-y,-z
1/2-x,1/2+y,1/2-z
1/2-x,1/2-y,-z
1/2+x,1/2+y,1/2-z
1/2-x,1/2+y,z
1/2+x,1/2-y,1/2+z
loop_
_atom_site_type_symbol
_atom_site_label
_atom_site_fract_x
_atom_site_fract_y
_atom_site_fract_z
Si Si1 0.582378 0.414077 0.561448
Si Si2 0.238819 0.917577 0.434093
Si Si3 0.388378 0.940568 0.930642
Si Si4 0.414401 0.713060 0.559755
Si Si5 0.167445 0.673846 0.447518
O O1 0.588609 0.429072 0.750000
O O2 0.500000 0.431259 0.500451
O O3 0.654415 0.434738 0.465088
O O4 0.586831 0.345132 0.541366
O O5 0.261062 0.929230 0.250000
O O6 0.297589 0.944968 0.558268
O O7 0.256560 0.850113 0.472275
O O8 0.415031 0.937271 0.750000
O O9 0.392967 0.875911 0.000395
O O10 0.417282 0.000000 0.000000
O O11 0.399746 0.698730 0.750000
O O12 0.500000 0.735266 0.553531
O O13 0.359655 0.763633 0.505999
O O14 0.172819 0.672011 0.250000
#
# Coordination Sequence:
#
# PCOD9470061 Si02
#       5
#    16  16  16  16  16
#     4  10  20  33  48  68  97 130 159 193 237 282
#     4  10  19  31  49  72  94 124 161 198 234 276
#     4   9  17  31  50  72  96 122 154 194 242 286
#     4   9  17  31  50  70  94 128 165 197 234 280
#     4   8  17  31  47  70  97 124 156 198 239 279
#
# _framework density 23.195004999999998
#
# number of rings (size 3 to 8) (size 9 to 14) (size 15 to 20)
#    1.200    1.600    0.000    2.400    0.000    2.800 
#    0.000    0.000    0.000    1.200    0.000    0.000 
#    0.000    0.000    0.000    0.000    0.000    0.000 
#
# Total GULP energy -222676.956712 kJ/mol
# GULP energy per Si atom -5566.923918 kJ/mol
# Density = 2.314221 g / cm^3
# Si number density = 23.195005 Si / 1000 Ang^3
#
#
#
# Elastic Constant Matrix: (Units=GPa)
#
#
# Indices 1 2 3 4 5 6 
#
# 1 108.9885 1.8706 21.1355 0.0000 0.0000 0.0000
# 2 1.8706 89.2197 -2.0084 0.0000 0.0000 0.0000
# 3 21.1355 -2.0084 47.5308 0.0000 0.0000 0.0000
# 4 0.0000 0.0000 0.0000 22.6222 0.0000 0.0000
# 5 0.0000 0.0000 0.0000 0.0000 -13.1688 0.0000
# 6 0.0000 0.0000 0.0000 0.0000 0.0000 66.4154
#
#
#
# Elastic Compliance Matrix: (Units=1/GPa)
#
#
# Indices 1 2 3 4 5 6 
#
# 1 0.010050 -0.000312 -0.004482 0.000000 0.000000 0.000000
# 2 -0.000312 0.011229 0.000613 0.000000 0.000000 0.000000
# 3 -0.004482 0.000613 0.023058 0.000000 0.000000 0.000000
# 4 0.000000 0.000000 0.000000 0.044204 0.000000 0.000000
# 5 0.000000 0.000000 0.000000 0.000000 -0.075937 0.000000
# 6 0.000000 0.000000 0.000000 0.000000 0.000000 0.015057
#
#
# Mechanical properties :
#
#
# Convention : Reuss Voigt Hill
#
# Bulk Modulus (GPa) = 27.79698 31.97049 29.88374
# Shear Modulus (GPa) = 104.13717 30.15649 67.14683
#
# Velocity S-wave (km/s) = 6.70774 3.60964 5.38625
# Velocity P-wave (km/s) = 8.48539 5.58444 7.18289
#
# Compressibility (1/GPa) = 0.03597513
#
# Stress axis : x y z
#
# Youngs Moduli (GPa) = 99.50445 89.05811 43.36908
#
# Poissons Ratio (x) = 0.02775 0.19438
# Poissons Ratio (y) = 0.03100 -0.02659
# Poissons Ratio (z) = 0.44598 -0.05459
#
# Static dielectric constant tensor:
#      x y z
#    x 1.927580 0.000000 0.000000 
#    y 0.000000 1.994560 0.000000 
#    z 0.000000 0.000000 1.879220 
# 
# From -- ./inp_files/8868.got.cif
#   From: 2010.05.17/outbox.cif.g08.bks.cpg/sg63_5_cif.got.tgz:8868.got - 2010.06.03 15:47:04.
