data_PCOD9470307
_publ_section_title
;
Structure prediction by ZEFSAII (Michael W. Deem and Ramdas Pophale) SiO2 
 PCOD9470307
Probable space group: C M C M
;
_chemical_formula_sum "Si O2"
_cell_formula_units_Z 72
_cell_length_a 15.378065
_cell_length_b 15.100855
_cell_length_c 19.092993
_cell_angle_alpha 90.000000
_cell_angle_beta 90.000000
_cell_angle_gamma 90.000000
_cell_volume 4433.811679
_symmetry_space_group_name_H-M "C M C M"
_symmetry_group_IT_number 63
_symmetry_cell_setting 'orthorhombic'
loop_
_space_group_symop_operation_xyz
x,y,z
-x,-y,1/2+z
x,-y,-z
-x,y,1/2-z
-x,-y,-z
x,y,1/2-z
-x,y,z
x,-y,1/2+z
1/2+x,1/2+y,z
1/2-x,1/2-y,1/2+z
1/2+x,1/2-y,-z
1/2-x,1/2+y,1/2-z
1/2-x,1/2-y,-z
1/2+x,1/2+y,1/2-z
1/2-x,1/2+y,z
1/2+x,1/2-y,1/2+z
loop_
_atom_site_type_symbol
_atom_site_label
_atom_site_fract_x
_atom_site_fract_y
_atom_site_fract_z
Si Si1 0.398506 0.648421 0.830008
Si Si2 0.098926 0.049533 0.122879
Si Si3 0.602117 0.745335 0.171372
Si Si4 0.725903 0.500000 0.000000
Si Si5 0.758066 0.682190 0.564605
O O1 0.378649 0.676606 0.750000
O O2 0.500000 0.671303 0.845165
O O3 0.392847 0.541295 0.834134
O O4 0.330162 0.682098 0.887968
O O5 0.113129 0.139084 0.165528
O O6 0.000000 0.052623 0.095452
O O7 0.164782 0.043585 0.058863
O O8 0.624519 0.774351 0.250000
O O9 0.500000 0.763678 0.159168
O O10 0.663523 0.789143 0.114464
O O11 0.773469 0.582699 0.964233
O O12 0.750000 0.750000 0.500000
#
# Coordination Sequence:
#
# PCOD9470307 Si02
#       5
#    16  16  16   8  16
#     4   9  18  32  52  78 106 134 165 209 266 318
#     4   9  16  28  50  78 106 131 162 207 263 318
#     4  10  20  34  53  76 103 137 177 217 256 300
#     4  10  19  32  49  76 108 134 170 206 258 308
#     4  11  21  34  52  77 106 138 173 211 255 308
#
# _framework density 16.238848999999998
#
# number of rings (size 3 to 8) (size 9 to 14) (size 15 to 20)
#    0.000    2.222    2.222    1.667    0.000    4.444 
#    0.000    0.556    0.000    0.000    0.000    3.111 
#    0.000    0.000    0.000    0.000    0.000    0.000 
#
# Total GULP energy -200610.548037 kJ/mol
# GULP energy per Si atom -5572.515223 kJ/mol
# Density = 1.620189 g / cm^3
# Si number density = 16.238849 Si / 1000 Ang^3
#
#
#
# Elastic Constant Matrix: (Units=GPa)
#
#
# Indices 1 2 3 4 5 6 
#
# 1 74.6902 47.1549 74.6577 0.0000 0.0000 0.0000
# 2 47.1549 77.5443 52.9735 0.0000 0.0000 0.0000
# 3 74.6577 52.9735 128.4348 0.0000 0.0000 0.0000
# 4 0.0000 0.0000 0.0000 20.7799 0.0000 0.0000
# 5 0.0000 0.0000 0.0000 0.0000 1.5402 0.0000
# 6 0.0000 0.0000 0.0000 0.0000 0.0000 19.7442
#
#
#
# Elastic Compliance Matrix: (Units=1/GPa)
#
#
# Indices 1 2 3 4 5 6 
#
# 1 0.037756 -0.011092 -0.017372 0.000000 0.000000 0.000000
# 2 -0.011092 0.021213 -0.002302 0.000000 0.000000 0.000000
# 3 -0.017372 -0.002302 0.018834 0.000000 0.000000 0.000000
# 4 0.000000 0.000000 0.000000 0.048123 0.000000 0.000000
# 5 0.000000 0.000000 0.000000 0.000000 0.649279 0.000000
# 6 0.000000 0.000000 0.000000 0.000000 0.000000 0.050648
#
#
# Mechanical properties :
#
#
# Convention : Reuss Voigt Hill
#
# Bulk Modulus (GPa) = 61.45896 70.02686 65.74291
# Shear Modulus (GPa) = 5.60030 15.47174 10.53602
#
# Velocity S-wave (km/s) = 1.85908 3.09003 2.54995
# Velocity P-wave (km/s) = 6.52206 7.47982 7.01730
#
# Compressibility (1/GPa) = 0.01627102
#
# Stress axis : x y z
#
# Youngs Moduli (GPa) = 26.48571 47.13989 53.09582
#
# Poissons Ratio (x) = 0.52287 0.92240
# Poissons Ratio (y) = 0.29378 0.12222
# Poissons Ratio (z) = 0.46012 0.10851
#
# Static dielectric constant tensor:
#      x y z
#    x 1.532230 0.000000 0.000000 
#    y 0.000000 1.539660 0.000000 
#    z 0.000000 0.000000 1.557520 
# 
# From -- ./inp_files/43748.got.cif
#   From: 2010.05.17/outbox.cif.g08.bks.cpg/sg63_22_cif.got.tgz:43748.got - 2010.06.03 15:47:04.
