data_PCOD9470169
_publ_section_title
;
Structure prediction by ZEFSAII (Michael W. Deem and Ramdas Pophale) SiO2 
 PCOD9470169
Probable space group: C M C M
;
_chemical_formula_sum "Si O2"
_cell_formula_units_Z 88
_cell_length_a 28.842014
_cell_length_b 19.926996
_cell_length_c 7.637544
_cell_angle_alpha 90.000000
_cell_angle_beta 90.000000
_cell_angle_gamma 90.000000
_cell_volume 4389.561541
_symmetry_space_group_name_H-M "C M C M"
_symmetry_group_IT_number 63
_symmetry_cell_setting 'orthorhombic'
loop_
_space_group_symop_operation_xyz
x,y,z
-x,-y,1/2+z
x,-y,-z
-x,y,1/2-z
-x,-y,-z
x,y,1/2-z
-x,y,z
x,-y,1/2+z
1/2+x,1/2+y,z
1/2-x,1/2-y,1/2+z
1/2+x,1/2-y,-z
1/2-x,1/2+y,1/2-z
1/2-x,1/2-y,-z
1/2+x,1/2+y,1/2-z
1/2-x,1/2+y,z
1/2+x,1/2-y,1/2+z
loop_
_atom_site_type_symbol
_atom_site_label
_atom_site_fract_x
_atom_site_fract_y
_atom_site_fract_z
Si Si1 0.630414 0.922474 0.958170
Si Si2 0.084586 0.829858 0.035195
Si Si3 0.447394 0.180670 0.036242
Si Si4 0.313700 0.317129 0.452154
Si Si5 0.000000 0.921609 0.040028
Si Si6 0.211636 0.329420 0.044760
O O1 0.631694 0.914938 0.750000
O O2 0.588944 0.875084 0.025277
O O3 0.678839 0.893031 0.026204
O O4 0.623516 0.000000 0.000000
O O5 0.085703 0.830453 0.250000
O O6 0.068327 0.755235 0.983857
O O7 0.137277 0.840589 0.971930
O O8 0.046286 0.883435 0.976808
O O9 0.447344 0.179897 0.250000
O O10 0.500000 0.167855 0.979366
O O11 0.313656 0.339084 0.250000
O O12 0.263774 0.338481 0.527477
O O13 0.312071 0.235759 0.458657
O O14 0.000000 0.913951 0.250000
O O15 0.000000 0.000000 0.000000
O O16 0.216015 0.312335 0.250000
#
# Coordination Sequence:
#
# PCOD9470169 Si02
#       6
#    16  16  16  16   8  16
#     4  11  22  36  54  75 107 144 181 222 270 321
#     4   9  15  29  54  80 102 134 176 213 253 307
#     4   9  16  29  53  81 102 130 179 223 257 310
#     4   9  17  31  53  79 104 134 176 222 262 307
#     4  10  20  34  56  80 107 138 170 209 260 321
#     4  10  19  31  50  78 109 137 174 218 266 317
#
# _framework density 20.047560000000001
#
# number of rings (size 3 to 8) (size 9 to 14) (size 15 to 20)
#    0.000    2.364    2.727    1.091    0.000    1.091 
#    0.000    1.818    0.000    3.818    0.000    0.000 
#    0.000    0.000    0.000    0.000    0.000    0.000 
#
# Total GULP energy -245522.928474 kJ/mol
# GULP energy per Si atom -5580.066556 kJ/mol
# Density = 2.000193 g / cm^3
# Si number density = 20.047560 Si / 1000 Ang^3
#
#
#
# Elastic Constant Matrix: (Units=GPa)
#
#
# Indices 1 2 3 4 5 6 
#
# 1 204.4391 91.0446 5.0709 0.0000 0.0000 0.0000
# 2 91.0446 128.8605 -6.9612 0.0000 0.0000 0.0000
# 3 5.0709 -6.9612 43.3013 0.0000 0.0000 0.0000
# 4 0.0000 0.0000 0.0000 20.0725 0.0000 0.0000
# 5 0.0000 0.0000 0.0000 0.0000 5.2506 0.0000
# 6 0.0000 0.0000 0.0000 0.0000 0.0000 28.1324
#
#
#
# Elastic Compliance Matrix: (Units=1/GPa)
#
#
# Indices 1 2 3 4 5 6 
#
# 1 0.007258 -0.005219 -0.001689 0.000000 0.000000 0.000000
# 2 -0.005219 0.011581 0.002473 0.000000 0.000000 0.000000
# 3 -0.001689 0.002473 0.023689 0.000000 0.000000 0.000000
# 4 0.000000 0.000000 0.000000 0.049819 0.000000 0.000000
# 5 0.000000 0.000000 0.000000 0.000000 0.190453 0.000000
# 6 0.000000 0.000000 0.000000 0.000000 0.000000 0.035546
#
#
# Mechanical properties :
#
#
# Convention : Reuss Voigt Hill
#
# Bulk Modulus (GPa) = 29.71023 61.65661 45.68342
# Shear Modulus (GPa) = 14.77385 29.85421 22.31403
#
# Velocity S-wave (km/s) = 2.71761 3.86316 3.33987
# Velocity P-wave (km/s) = 4.96983 7.12184 6.14084
#
# Compressibility (1/GPa) = 0.03365844
#
# Stress axis : x y z
#
# Youngs Moduli (GPa) = 137.78815 86.34614 42.21309
#
# Poissons Ratio (x) = 0.45063 0.07129
# Poissons Ratio (y) = 0.71911 -0.10439
# Poissons Ratio (z) = 0.23271 -0.21353
#
# Static dielectric constant tensor:
#      x y z
#    x 1.742160 0.000000 0.000000 
#    y 0.000000 1.693880 0.000000 
#    z 0.000000 0.000000 1.771650 
# 
# From -- ./inp_files/14217.got.cif
#   From: 2010.05.17/outbox.cif.g08.bks.cpg/sg63_8_cif.got.tgz:14217.got - 2010.06.03 15:47:04.
