data_PCOD9470735
_publ_section_title
;
Structure prediction by ZEFSAII (Michael W. Deem and Ramdas Pophale) SiO2 
 PCOD9470735
Probable space group: C M C M
;
_chemical_formula_sum "Si O2"
_cell_formula_units_Z 88
_cell_length_a 23.258127
_cell_length_b 24.124095
_cell_length_c 7.882127
_cell_angle_alpha 90.000000
_cell_angle_beta 90.000000
_cell_angle_gamma 90.000000
_cell_volume 4422.513790
_symmetry_space_group_name_H-M "C M C M"
_symmetry_group_IT_number 63
_symmetry_cell_setting 'orthorhombic'
loop_
_space_group_symop_operation_xyz
x,y,z
-x,-y,1/2+z
x,-y,-z
-x,y,1/2-z
-x,-y,-z
x,y,1/2-z
-x,y,z
x,-y,1/2+z
1/2+x,1/2+y,z
1/2-x,1/2-y,1/2+z
1/2+x,1/2-y,-z
1/2-x,1/2+y,1/2-z
1/2-x,1/2-y,-z
1/2+x,1/2+y,1/2-z
1/2-x,1/2+y,z
1/2+x,1/2-y,1/2+z
loop_
_atom_site_type_symbol
_atom_site_label
_atom_site_fract_x
_atom_site_fract_y
_atom_site_fract_z
Si Si1 0.733221 0.363638 0.553854
Si Si2 0.065215 0.773206 0.250000
Si Si3 0.854889 0.360264 0.437718
Si Si4 0.500000 0.434803 0.454036
Si Si5 0.374895 0.564821 0.546165
Si Si6 0.648520 0.272780 0.552231
Si Si7 0.565955 0.861909 0.750000
O O1 0.750540 0.359220 0.750000
O O2 0.790059 0.382165 0.456936
O O3 0.679172 0.404064 0.532488
O O4 0.706676 0.304413 0.500246
O O5 0.099907 0.790063 0.417938
O O6 0.063849 0.705756 0.250000
O O7 0.000000 0.793895 0.250000
O O8 0.877583 0.371660 0.250000
O O9 0.847453 0.293551 0.456587
O O10 0.898067 0.378834 0.584200
O O11 0.500000 0.500000 0.500000
O O12 0.500000 0.430447 0.250000
O O13 0.437803 0.413841 0.514386
O O14 0.371762 0.500000 0.500000
O O15 0.372113 0.570992 0.750000
O O16 0.636731 0.287254 0.750000
O O17 0.500000 0.881076 0.750000
#
# Coordination Sequence:
#
# PCOD9470735 Si02
#       7
#    16   8  16   8  16  16   8
#     4  11  21  34  50  74 103 135 174 220 264 313
#     4   9  18  32  50  68  97 140 174 216 269 306
#     4  10  19  33  53  77 105 140 171 215 260 310
#     4   8  16  32  52  70  92 126 176 220 266 314
#     4  10  20  35  53  74  99 135 175 223 271 316
#     4   9  20  33  48  73 102 135 178 218 261 311
#     4   9  18  34  52  76 105 135 173 209 250 310
#
# _framework density 19.898185999999999
#
# number of rings (size 3 to 8) (size 9 to 14) (size 15 to 20)
#    0.000    2.364    0.909    1.636    2.545    1.455 
#    1.636    3.636    0.000    0.000    0.000    0.000 
#    0.000    0.727    0.364    0.000    0.000    0.000 
#
# Total GULP energy -245549.651353 kJ/mol
# GULP energy per Si atom -5580.673894 kJ/mol
# Density = 1.985290 g / cm^3
# Si number density = 19.898186 Si / 1000 Ang^3
#
#
#
# Elastic Constant Matrix: (Units=GPa)
#
#
# Indices 1 2 3 4 5 6 
#
# 1 155.2088 10.9143 60.8348 0.0000 0.0000 0.0000
# 2 10.9143 22.8313 -7.6538 0.0000 0.0000 0.0000
# 3 60.8348 -7.6538 84.2935 0.0000 0.0000 0.0000
# 4 0.0000 0.0000 0.0000 14.8189 0.0000 0.0000
# 5 0.0000 0.0000 0.0000 0.0000 26.6126 0.0000
# 6 0.0000 0.0000 0.0000 0.0000 0.0000 21.4828
#
#
#
# Elastic Compliance Matrix: (Units=1/GPa)
#
#
# Indices 1 2 3 4 5 6 
#
# 1 0.010091 -0.007493 -0.007963 0.000000 0.000000 0.000000
# 2 -0.007493 0.050739 0.010015 0.000000 0.000000 0.000000
# 3 -0.007963 0.010015 0.018520 0.000000 0.000000 0.000000
# 4 0.000000 0.000000 0.000000 0.067481 0.000000 0.000000
# 5 0.000000 0.000000 0.000000 0.000000 0.037576 0.000000
# 6 0.000000 0.000000 0.000000 0.000000 0.000000 0.046549
#
#
# Mechanical properties :
#
#
# Convention : Reuss Voigt Hill
#
# Bulk Modulus (GPa) = 14.60561 43.39157 28.99859
# Shear Modulus (GPa) = 18.89208 25.79875 22.34541
#
# Velocity S-wave (km/s) = 3.08464 3.60465 3.35474
# Velocity P-wave (km/s) = 4.47691 6.25930 5.44158
#
# Compressibility (1/GPa) = 0.06846683
#
# Stress axis : x y z
#
# Youngs Moduli (GPa) = 99.09764 19.70870 53.99658
#
# Poissons Ratio (x) = 0.14769 0.42998
# Poissons Ratio (y) = 0.74258 -0.54078
# Poissons Ratio (z) = 0.78913 -0.19738
#
# Static dielectric constant tensor:
#      x y z
#    x 1.707820 0.000000 0.000000 
#    y 0.000000 1.699200 0.000000 
#    z 0.000000 0.000000 1.709350 
# 
# From -- ./inp_files/9046.got.cif
#   From: 2010.05.17/outbox.cif.g08.bks.cpg/sg63_5_cif.got.tgz:9046.got - 2010.06.03 15:47:04.
