data_PCOD9470243
_publ_section_title
;
Structure prediction by ZEFSAII (Michael W. Deem and Ramdas Pophale) SiO2 
 PCOD9470243
Probable space group: C M C M
;
_chemical_formula_sum "Si O2"
_cell_formula_units_Z 120
_cell_length_a 22.079622
_cell_length_b 11.090514
_cell_length_c 27.283593
_cell_angle_alpha 90.000000
_cell_angle_beta 90.000000
_cell_angle_gamma 90.000000
_cell_volume 6681.052290
_symmetry_space_group_name_H-M "C M C M"
_symmetry_group_IT_number 63
_symmetry_cell_setting 'orthorhombic'
loop_
_space_group_symop_operation_xyz
x,y,z
-x,-y,1/2+z
x,-y,-z
-x,y,1/2-z
-x,-y,-z
x,y,1/2-z
-x,y,z
x,-y,1/2+z
1/2+x,1/2+y,z
1/2-x,1/2-y,1/2+z
1/2+x,1/2-y,-z
1/2-x,1/2+y,1/2-z
1/2-x,1/2-y,-z
1/2+x,1/2+y,1/2-z
1/2-x,1/2+y,z
1/2+x,1/2-y,1/2+z
loop_
_atom_site_type_symbol
_atom_site_label
_atom_site_fract_x
_atom_site_fract_y
_atom_site_fract_z
Si Si1 0.300247 0.327446 0.569879
Si Si2 0.328045 0.830718 0.891723
Si Si3 0.429234 0.636503 0.589826
Si Si4 0.870326 0.000000 0.500000
Si Si5 0.228506 0.174707 0.806132
Si Si6 0.570723 0.240400 0.804911
Si Si7 0.642018 0.469754 0.660941
Si Si8 0.656230 0.109878 0.872793
O O1 0.228055 0.314047 0.570853
O O2 0.328196 0.397696 0.524361
O O3 0.318282 0.410509 0.617085
O O4 0.330156 0.198357 0.581556
O O5 0.385848 0.752681 0.907184
O O6 0.303364 0.775619 0.840144
O O7 0.341813 0.971014 0.886484
O O8 0.500000 0.664352 0.591021
O O9 0.411183 0.561062 0.541608
O O10 0.408950 0.551622 0.635058
O O11 0.238047 0.211891 0.750000
O O12 0.290501 0.139938 0.833632
O O13 0.185321 0.057495 0.808806
O O14 0.579161 0.191269 0.750000
O O15 0.500000 0.267771 0.811680
O O16 0.610295 0.361366 0.810753
O O17 0.594933 0.149841 0.846039
#
# Coordination Sequence:
#
# PCOD9470243 Si02
#       8
#    16  16  16   8  16  16  16  16
#     4   9  19  36  57  84 105 140 177 224 287 327
#     4  10  21  37  54  79 117 146 180 220 271 342
#     4  10  21  37  59  83 109 146 181 223 278 329
#     4  10  21  38  64  88 107 128 184 240 274 326
#     4  10  19  31  54  83 109 142 184 232 275 313
#     4  10  20  32  49  75 106 145 189 224 259 313
#     4   9  17  34  55  78 108 137 181 233 276 318
#     4  10  20  36  52  75 114 148 178 218 275 335
#
# _framework density 17.961241999999999
#
# number of rings (size 3 to 8) (size 9 to 14) (size 15 to 20)
#    0.000    2.267    1.333    1.400    1.867    2.133 
#    0.000    0.667    0.000    4.400    0.000    0.000 
#    0.000    0.000    0.000    0.000    0.000    0.000 
#
# Total GULP energy -334900.125291 kJ/mol
# GULP energy per Si atom -5581.668755 kJ/mol
# Density = 1.792036 g / cm^3
# Si number density = 17.961242 Si / 1000 Ang^3
#
#
#
# Elastic Constant Matrix: (Units=GPa)
#
#
# Indices 1 2 3 4 5 6 
#
# 1 103.6700 20.4339 15.6494 0.0000 0.0000 0.0000
# 2 20.4339 93.7055 3.8609 0.0000 0.0000 0.0000
# 3 15.6494 3.8609 39.1066 0.0000 0.0000 0.0000
# 4 0.0000 0.0000 0.0000 10.0000 0.0000 0.0000
# 5 0.0000 0.0000 0.0000 0.0000 13.6791 0.0000
# 6 0.0000 0.0000 0.0000 0.0000 0.0000 19.6189
#
#
#
# Elastic Compliance Matrix: (Units=1/GPa)
#
#
# Indices 1 2 3 4 5 6 
#
# 1 0.010686 -0.002163 -0.004063 0.000000 0.000000 0.000000
# 2 -0.002163 0.011153 -0.000236 0.000000 0.000000 0.000000
# 3 -0.004063 -0.000236 0.027220 0.000000 0.000000 0.000000
# 4 0.000000 0.000000 0.000000 0.100000 0.000000 0.000000
# 5 0.000000 0.000000 0.000000 0.000000 0.073104 0.000000
# 6 0.000000 0.000000 0.000000 0.000000 0.000000 0.050971
#
#
# Mechanical properties :
#
#
# Convention : Reuss Voigt Hill
#
# Bulk Modulus (GPa) = 27.67260 35.15229 31.41244
# Shear Modulus (GPa) = 16.77281 21.76212 19.26746
#
# Velocity S-wave (km/s) = 3.05918 3.48460 3.27880
# Velocity P-wave (km/s) = 5.28379 5.98361 5.64456
#
# Compressibility (1/GPa) = 0.03613683
#
# Stress axis : x y z
#
# Youngs Moduli (GPa) = 93.58436 89.66147 36.73752
#
# Poissons Ratio (x) = 0.19392 0.14925
# Poissons Ratio (y) = 0.20240 0.00866
# Poissons Ratio (z) = 0.38019 0.02113
#
# Static dielectric constant tensor:
#      x y z
#    x 1.602280 0.000000 0.000000 
#    y 0.000000 1.601420 0.000000 
#    z 0.000000 0.000000 1.616800 
# 
# From -- ./inp_files/70509.got.cif
#   From: 2010.05.17/outbox.cif.g08.bks.cpg/sg63_36_cif.got.tgz:70509.got - 2010.06.03 15:47:04.
