data_PCOD9470704
_publ_section_title
;
Structure prediction by ZEFSAII (Michael W. Deem and Ramdas Pophale) SiO2 
 PCOD9470704
Probable space group: C M C M
;
_chemical_formula_sum "Si O2"
_cell_formula_units_Z 104
_cell_length_a 21.335564
_cell_length_b 29.067883
_cell_length_c 9.564874
_cell_angle_alpha 90.000000
_cell_angle_beta 90.000000
_cell_angle_gamma 90.000000
_cell_volume 5931.940478
_symmetry_space_group_name_H-M "C M C M"
_symmetry_group_IT_number 63
_symmetry_cell_setting 'orthorhombic'
loop_
_space_group_symop_operation_xyz
x,y,z
-x,-y,1/2+z
x,-y,-z
-x,y,1/2-z
-x,-y,-z
x,y,1/2-z
-x,y,z
x,-y,1/2+z
1/2+x,1/2+y,z
1/2-x,1/2-y,1/2+z
1/2+x,1/2-y,-z
1/2-x,1/2+y,1/2-z
1/2-x,1/2-y,-z
1/2+x,1/2+y,1/2-z
1/2-x,1/2+y,z
1/2+x,1/2-y,1/2+z
loop_
_atom_site_type_symbol
_atom_site_label
_atom_site_fract_x
_atom_site_fract_y
_atom_site_fract_z
Si Si1 0.000000 0.453484 0.914787
Si Si2 0.925597 0.311471 0.417548
Si Si3 0.573611 0.459494 0.405264
Si Si4 0.367959 0.613916 0.416637
Si Si5 0.571711 0.706794 0.080850
Si Si6 0.124466 0.395098 0.916418
Si Si7 0.750350 0.548104 0.417216
O O1 0.938156 0.424164 0.945565
O O2 0.000000 0.463887 0.750000
O O3 0.000000 0.500000 0.000000
O O4 0.916824 0.315032 0.250000
O O5 0.912823 0.258792 0.463109
O O6 0.883385 0.348214 0.497670
O O7 0.000000 0.319897 0.444934
O O8 0.601372 0.500000 0.500000
O O9 0.601509 0.458036 0.250000
O O10 0.500000 0.468796 0.390415
O O11 0.582049 0.413307 0.491254
O O12 0.379982 0.609300 0.250000
O O13 0.378022 0.667369 0.454377
O O14 0.303835 0.586191 0.445898
O O15 0.569254 0.708237 0.250000
O O16 0.500000 0.695570 0.034616
O O17 0.127069 0.385251 0.750000
O O18 0.184330 0.426370 0.951484
O O19 0.744745 0.500000 0.500000
O O20 0.748777 0.538712 0.250000
#
# Coordination Sequence:
#
# PCOD9470704 Si02
#       7
#     8  16  16  16  16  16  16
#     4  10  20  32  50  74 100 130 164 206 257 310
#     4   9  17  31  53  80 104 130 168 211 254 305
#     4  10  20  32  47  70  99 129 166 214 263 311
#     4  10  19  33  53  74  99 136 175 213 257 301
#     4   8  15  29  51  78 105 132 168 212 255 303
#     4  10  20  35  52  74 104 136 169 208 261 315
#     4  10  22  37  53  74 102 137 176 215 256 308
#
# _framework density 17.532205000000001
#
# number of rings (size 3 to 8) (size 9 to 14) (size 15 to 20)
#    0.000    2.462    0.769    2.769    0.000    4.615 
#    0.000    1.538    0.000    0.923    0.000    0.000 
#    0.000    0.000    0.000    0.000    0.000    0.000 
#
# Total GULP energy -289691.358887 kJ/mol
# GULP energy per Si atom -5570.987671 kJ/mol
# Density = 1.749230 g / cm^3
# Si number density = 17.532205 Si / 1000 Ang^3
#
#
#
# Elastic Constant Matrix: (Units=GPa)
#
#
# Indices 1 2 3 4 5 6 
#
# 1 88.1525 65.9837 36.6512 0.0000 0.0000 0.0000
# 2 65.9837 162.2258 55.3729 0.0000 0.0000 0.0000
# 3 36.6512 55.3729 37.6090 0.0000 0.0000 0.0000
# 4 0.0000 0.0000 0.0000 24.9383 0.0000 0.0000
# 5 0.0000 0.0000 0.0000 0.0000 9.0620 0.0000
# 6 0.0000 0.0000 0.0000 0.0000 0.0000 19.8104
#
#
#
# Elastic Compliance Matrix: (Units=1/GPa)
#
#
# Indices 1 2 3 4 5 6 
#
# 1 0.019746 -0.002941 -0.014912 0.000000 0.000000 0.000000
# 2 -0.002941 0.012830 -0.016023 0.000000 0.000000 0.000000
# 3 -0.014912 -0.016023 0.064714 0.000000 0.000000 0.000000
# 4 0.000000 0.000000 0.000000 0.040099 0.000000 0.000000
# 5 0.000000 0.000000 0.000000 0.000000 0.110351 0.000000
# 6 0.000000 0.000000 0.000000 0.000000 0.000000 0.050479
#
#
# Mechanical properties :
#
#
# Convention : Reuss Voigt Hill
#
# Bulk Modulus (GPa) = 33.85785 67.11144 50.48465
# Shear Modulus (GPa) = 13.30435 19.42743 16.36589
#
# Velocity S-wave (km/s) = 2.75772 3.33242 3.05860
# Velocity P-wave (km/s) = 5.43081 7.29169 6.42894
#
# Compressibility (1/GPa) = 0.02953525
#
# Stress axis : x y z
#
# Youngs Moduli (GPa) = 50.64401 77.94274 15.45268
#
# Poissons Ratio (x) = 0.22926 0.23043
# Poissons Ratio (y) = 0.14896 0.24761
# Poissons Ratio (z) = 0.75521 1.24891
#
# Static dielectric constant tensor:
#      x y z
#    x 1.620570 0.000000 0.000000 
#    y 0.000000 1.613150 0.000000 
#    z 0.000000 0.000000 1.597250 
# 
# From -- ./inp_files/8753.got.cif
#   From: 2010.05.17/outbox.cif.g08.bks.cpg/sg63_5_cif.got.tgz:8753.got - 2010.06.03 15:47:04.
