data_PCOD9470186
_publ_section_title
;
Structure prediction by ZEFSAII (Michael W. Deem and Ramdas Pophale) SiO2 
 PCOD9470186
Probable space group: C M C M
;
_chemical_formula_sum "Si O2"
_cell_formula_units_Z 96
_cell_length_a 22.751597
_cell_length_b 10.539195
_cell_length_c 19.807617
_cell_angle_alpha 90.000000
_cell_angle_beta 90.000000
_cell_angle_gamma 90.000000
_cell_volume 4749.540074
_symmetry_space_group_name_H-M "C M C M"
_symmetry_group_IT_number 63
_symmetry_cell_setting 'orthorhombic'
loop_
_space_group_symop_operation_xyz
x,y,z
-x,-y,1/2+z
x,-y,-z
-x,y,1/2-z
-x,-y,-z
x,y,1/2-z
-x,y,z
x,-y,1/2+z
1/2+x,1/2+y,z
1/2-x,1/2-y,1/2+z
1/2+x,1/2-y,-z
1/2-x,1/2+y,1/2-z
1/2-x,1/2-y,-z
1/2+x,1/2+y,1/2-z
1/2-x,1/2+y,z
1/2+x,1/2-y,1/2+z
loop_
_atom_site_type_symbol
_atom_site_label
_atom_site_fract_x
_atom_site_fract_y
_atom_site_fract_z
Si Si1 0.433173 0.803278 0.173247
Si Si2 0.882607 0.120926 0.546164
Si Si3 0.375909 0.867613 0.466509
Si Si4 0.247398 0.643827 0.911832
Si Si5 0.764189 0.097701 0.327745
Si Si6 0.098148 0.017752 0.174816
O O1 0.410007 0.825107 0.250000
O O2 0.500000 0.850818 0.170229
O O3 0.396322 0.857571 0.111176
O O4 0.434353 0.650691 0.163824
O O5 0.900618 0.249320 0.508978
O O6 0.811970 0.126057 0.557331
O O7 0.895605 0.000000 0.500000
O O8 0.910543 0.088116 0.618400
O O9 0.305042 0.853902 0.465486
O O10 0.392353 0.000000 0.500000
O O11 0.245759 0.772997 0.868545
O O12 0.235021 0.522163 0.864304
O O13 0.745698 0.111961 0.250000
O O14 0.833456 0.062234 0.328327
O O15 0.085506 0.970981 0.250000
#
# Coordination Sequence:
#
# PCOD9470186 Si02
#       6
#    16  16  16  16  16  16
#     4  10  21  40  65  87 110 150 200 246 296 348
#     4  11  20  36  56  83 115 156 194 234 286 346
#     4  12  23  37  56  86 122 156 192 238 289 343
#     4  11  20  33  50  80 113 159 193 229 281 347
#     4  10  19  31  51  77 111 149 192 238 284 335
#     4   9  18  36  58  81 109 145 192 247 292 339
#
# _framework density 20.212482999999999
#
# number of rings (size 3 to 8) (size 9 to 14) (size 15 to 20)
#    0.000    1.500    3.333    3.500    0.000    1.667 
#    0.000    2.500    0.000    0.000    0.000    2.333 
#    0.000    0.000    0.000    0.000    0.000    0.000 
#
# Total GULP energy -268145.976436 kJ/mol
# GULP energy per Si atom -5586.374509 kJ/mol
# Density = 2.016648 g / cm^3
# Si number density = 20.212483 Si / 1000 Ang^3
#
#
#
# Elastic Constant Matrix: (Units=GPa)
#
#
# Indices 1 2 3 4 5 6 
#
# 1 20.6258 -2.4081 14.5464 0.0000 0.0000 0.0000
# 2 -2.4081 160.3174 81.1675 0.0000 0.0000 0.0000
# 3 14.5464 81.1675 139.0636 0.0000 0.0000 0.0000
# 4 0.0000 0.0000 0.0000 37.7788 0.0000 0.0000
# 5 0.0000 0.0000 0.0000 0.0000 9.4696 0.0000
# 6 0.0000 0.0000 0.0000 0.0000 0.0000 -2.3125
#
#
#
# Elastic Compliance Matrix: (Units=1/GPa)
#
#
# Indices 1 2 3 4 5 6 
#
# 1 0.055394 0.005345 -0.008914 0.000000 0.000000 0.000000
# 2 0.005345 0.009370 -0.006028 0.000000 0.000000 0.000000
# 3 -0.008914 -0.006028 0.011642 0.000000 0.000000 0.000000
# 4 0.000000 0.000000 0.000000 0.026470 0.000000 0.000000
# 5 0.000000 0.000000 0.000000 0.000000 0.105601 0.000000
# 6 0.000000 0.000000 0.000000 0.000000 0.000000 -0.432427
#
#
# Mechanical properties :
#
#
# Convention : Reuss Voigt Hill
#
# Bulk Modulus (GPa) = 17.47904 56.29092 36.88498
# Shear Modulus (GPa) = -26.92717 24.10057 -1.41330
#
# Velocity S-wave (km/s) = -3.65390 3.45680 -0.83710
# Velocity P-wave (km/s) = 3.02239 6.62138 4.16580
#
# Compressibility (1/GPa) = 0.05721137
#
# Stress axis : x y z
#
# Youngs Moduli (GPa) = 18.05260 106.72506 85.89737
#
# Poissons Ratio (x) = -0.57047 0.76570
# Poissons Ratio (y) = -0.09650 0.51779
# Poissons Ratio (z) = 0.16092 0.64334
#
# Static dielectric constant tensor:
#      x y z
#    x 1.761550 0.000000 0.000000 
#    y 0.000000 1.693800 0.000000 
#    z 0.000000 0.000000 1.757750 
# 
# From -- ./inp_files/58057.got.cif
#   From: 2010.05.17/outbox.cif.g08.bks.cpg/sg63_30_cif.got.tgz:58057.got - 2010.06.03 15:47:04.
