data_PCOD9470643
_publ_section_title
;
Structure prediction by ZEFSAII (Michael W. Deem and Ramdas Pophale) SiO2 
 PCOD9470643
Probable space group: C M C M
;
_chemical_formula_sum "Si O2"
_cell_formula_units_Z 72
_cell_length_a 14.653366
_cell_length_b 32.287322
_cell_length_c 8.510420
_cell_angle_alpha 90.000000
_cell_angle_beta 90.000000
_cell_angle_gamma 90.000000
_cell_volume 4026.432434
_symmetry_space_group_name_H-M "C M C M"
_symmetry_group_IT_number 63
_symmetry_cell_setting 'orthorhombic'
loop_
_space_group_symop_operation_xyz
x,y,z
-x,-y,1/2+z
x,-y,-z
-x,y,1/2-z
-x,-y,-z
x,y,1/2-z
-x,y,z
x,-y,1/2+z
1/2+x,1/2+y,z
1/2-x,1/2-y,1/2+z
1/2+x,1/2-y,-z
1/2-x,1/2+y,1/2-z
1/2-x,1/2-y,-z
1/2+x,1/2+y,1/2-z
1/2-x,1/2+y,z
1/2+x,1/2-y,1/2+z
loop_
_atom_site_type_symbol
_atom_site_label
_atom_site_fract_x
_atom_site_fract_y
_atom_site_fract_z
Si Si1 0.000000 0.756828 0.062094
Si Si2 0.000000 0.453932 0.438429
Si Si3 0.195907 0.369089 0.563931
Si Si4 0.796983 0.453435 0.061597
Si Si5 0.500000 0.163637 0.936298
Si Si6 0.197259 0.209699 0.561576
O O1 0.908878 0.782264 0.025260
O O2 0.000000 0.748233 0.250000
O O3 0.000000 0.712231 0.978384
O O4 0.000000 0.500000 0.500000
O O5 0.099670 0.441418 0.493196
O O6 0.000000 0.450162 0.250000
O O7 0.187986 0.373662 0.750000
O O8 0.246299 0.410611 0.496495
O O9 0.094235 0.356364 0.500065
O O10 0.259064 0.330273 0.518046
O O11 0.793953 0.455837 0.250000
O O12 0.774671 0.500000 0.000000
O O13 0.500000 0.157279 0.750000
O O14 0.208146 0.206372 0.750000
O O15 0.250000 0.250000 0.500000
#
# Coordination Sequence:
#
# PCOD9470643 Si02
#       6
#     8   8  16  16   8  16
#     4  10  22  39  59  81 112 148 186 229 281 335
#     4   8  15  26  43  65  94 131 172 215 260 313
#     4  12  24  37  54  80 114 151 191 234 280 334
#     4  10  19  33  51  74 105 143 186 230 279 331
#     4  12  23  35  55  80 110 149 193 236 280 332
#     4  11  22  38  59  84 113 147 186 232 280 332
#
# _framework density 17.881834000000001
#
# number of rings (size 3 to 8) (size 9 to 14) (size 15 to 20)
#    0.000    1.333    2.222    5.000    0.000    2.667 
#    0.000    2.222    0.000    0.000    0.000    0.778 
#    0.000    0.000    0.000    0.000    0.000    0.000 
#
# Total GULP energy -200512.375845 kJ/mol
# GULP energy per Si atom -5569.788218 kJ/mol
# Density = 1.784113 g / cm^3
# Si number density = 17.881834 Si / 1000 Ang^3
#
#
#
# Elastic Constant Matrix: (Units=GPa)
#
#
# Indices 1 2 3 4 5 6 
#
# 1 76.3482 39.0762 34.6787 0.0000 0.0000 0.0000
# 2 39.0762 175.5949 59.6733 0.0000 0.0000 0.0000
# 3 34.6787 59.6733 94.2635 0.0000 0.0000 0.0000
# 4 0.0000 0.0000 0.0000 32.5176 0.0000 0.0000
# 5 0.0000 0.0000 0.0000 0.0000 18.4629 0.0000
# 6 0.0000 0.0000 0.0000 0.0000 0.0000 8.2006
#
#
#
# Elastic Compliance Matrix: (Units=1/GPa)
#
#
# Indices 1 2 3 4 5 6 
#
# 1 0.016270 -0.002021 -0.004706 0.000000 0.000000 0.000000
# 2 -0.002021 0.007507 -0.004009 0.000000 0.000000 0.000000
# 3 -0.004706 -0.004009 0.014878 0.000000 0.000000 0.000000
# 4 0.000000 0.000000 0.000000 0.030753 0.000000 0.000000
# 5 0.000000 0.000000 0.000000 0.000000 0.054163 0.000000
# 6 0.000000 0.000000 0.000000 0.000000 0.000000 0.121942
#
#
# Mechanical properties :
#
#
# Convention : Reuss Voigt Hill
#
# Bulk Modulus (GPa) = 58.19863 68.11809 63.15836
# Shear Modulus (GPa) = 18.33443 26.02146 22.17795
#
# Velocity S-wave (km/s) = 3.20552 3.81883 3.52554
# Velocity P-wave (km/s) = 6.80569 7.59084 7.20896
#
# Compressibility (1/GPa) = 0.01718254
#
# Stress axis : x y z
#
# Youngs Moduli (GPa) = 61.46284 133.20816 67.21556
#
# Poissons Ratio (x) = 0.26927 0.31631
# Poissons Ratio (y) = 0.12424 0.26944
# Poissons Ratio (z) = 0.28924 0.53399
#
# Static dielectric constant tensor:
#      x y z
#    x 1.503210 0.000000 0.000000 
#    y 0.000000 1.654000 0.000000 
#    z 0.000000 0.000000 1.628420 
# 
# From -- ./inp_files/4974.got.cif
#   From: 2010.05.17/outbox.cif.g08.bks.cpg/sg63_3_cif.got.tgz:4974.got - 2010.06.03 15:47:04.
