data_PCOD9470897
_publ_section_title
;
Structure prediction by ZEFSAII (Michael W. Deem and Ramdas Pophale) SiO2 
 PCOD9470897
Probable space group: C M C M
;
_chemical_formula_sum "Si O2"
_cell_formula_units_Z 96
_cell_length_a 10.751860
_cell_length_b 19.740624
_cell_length_c 24.065776
_cell_angle_alpha 90.000000
_cell_angle_beta 90.000000
_cell_angle_gamma 90.000000
_cell_volume 5107.923066
_symmetry_space_group_name_H-M "C M C M"
_symmetry_group_IT_number 63
_symmetry_cell_setting 'orthorhombic'
loop_
_space_group_symop_operation_xyz
x,y,z
-x,-y,1/2+z
x,-y,-z
-x,y,1/2-z
-x,-y,-z
x,y,1/2-z
-x,y,z
x,-y,1/2+z
1/2+x,1/2+y,z
1/2-x,1/2-y,1/2+z
1/2+x,1/2-y,-z
1/2-x,1/2+y,1/2-z
1/2-x,1/2-y,-z
1/2+x,1/2+y,1/2-z
1/2-x,1/2+y,z
1/2+x,1/2-y,1/2+z
loop_
_atom_site_type_symbol
_atom_site_label
_atom_site_fract_x
_atom_site_fract_y
_atom_site_fract_z
Si Si1 0.247790 0.228276 0.595858
Si Si2 0.140267 0.932328 0.535960
Si Si3 0.850147 0.825601 0.810179
Si Si4 0.355384 0.472025 0.664501
Si Si5 0.636792 0.171534 0.488615
Si Si6 0.849704 0.876853 0.186884
O O1 0.302025 0.284114 0.637712
O O2 0.345171 0.199000 0.551189
O O3 0.151087 0.266868 0.555353
O O4 0.197532 0.169954 0.636694
O O5 0.147142 0.957811 0.599036
O O6 0.248677 0.879324 0.522753
O O7 0.000000 0.903763 0.526674
O O8 0.153147 0.000000 0.500000
O O9 0.818301 0.795257 0.750000
O O10 0.801410 0.902797 0.811143
O O11 0.000000 0.828335 0.814366
O O12 0.500000 0.474812 0.682595
O O13 0.303558 0.545633 0.678874
O O14 0.500000 0.140501 0.482184
O O15 0.816668 0.855181 0.250000
O O16 0.000000 0.876919 0.183445
#
# Coordination Sequence:
#
# PCOD9470897 Si02
#       6
#    16  16  16  16  16  16
#     4  11  22  37  55  80 120 158 199 240 291 355
#     4  10  20  36  60  88 118 153 195 247 301 353
#     4  10  19  33  56  84 111 143 189 245 298 348
#     4   9  17  32  54  83 113 142 183 240 298 344
#     4  11  24  38  57  84 120 164 202 243 295 355
#     4  10  20  35  57  86 117 149 192 246 298 350
#
# _framework density 18.794332000000001
#
# number of rings (size 3 to 8) (size 9 to 14) (size 15 to 20)
#    0.000    1.833    1.667    3.000    0.000    7.000 
#    0.000    0.000    0.000    0.000    0.000    0.000 
#    0.000    0.000    0.000    0.000    0.000    0.000 
#
# Total GULP energy -267606.280221 kJ/mol
# GULP energy per Si atom -5575.130838 kJ/mol
# Density = 1.875155 g / cm^3
# Si number density = 18.794332 Si / 1000 Ang^3
#
#
#
# Elastic Constant Matrix: (Units=GPa)
#
#
# Indices 1 2 3 4 5 6 
#
# 1 81.5444 41.9963 33.6080 0.0000 0.0000 0.0000
# 2 41.9963 112.3591 60.1182 0.0000 0.0000 0.0000
# 3 33.6080 60.1182 153.2995 0.0000 0.0000 0.0000
# 4 0.0000 0.0000 0.0000 -1.1835 0.0000 0.0000
# 5 0.0000 0.0000 0.0000 0.0000 7.5694 0.0000
# 6 0.0000 0.0000 0.0000 0.0000 0.0000 15.9509
#
#
#
# Elastic Compliance Matrix: (Units=1/GPa)
#
#
# Indices 1 2 3 4 5 6 
#
# 1 0.015427 -0.005007 -0.001418 0.000000 0.000000 0.000000
# 2 -0.005007 0.012889 -0.003957 0.000000 0.000000 0.000000
# 3 -0.001418 -0.003957 0.008386 0.000000 0.000000 0.000000
# 4 0.000000 0.000000 0.000000 -0.844944 0.000000 0.000000
# 5 0.000000 0.000000 0.000000 0.000000 0.132111 0.000000
# 6 0.000000 0.000000 0.000000 0.000000 0.000000 0.062692
#
#
# Mechanical properties :
#
#
# Convention : Reuss Voigt Hill
#
# Bulk Modulus (GPa) = 62.74860 68.73867 65.74363
# Shear Modulus (GPa) = -8.51263 18.56606 5.02671
#
# Velocity S-wave (km/s) = -2.13054 3.14642 1.63719
# Velocity P-wave (km/s) = 5.23519 7.06070 6.21533
#
# Compressibility (1/GPa) = 0.01593661
#
# Stress axis : x y z
#
# Youngs Moduli (GPa) = 64.82347 77.58830 119.24914
#
# Poissons Ratio (x) = 0.38849 0.16914
# Poissons Ratio (y) = 0.32457 0.47183
# Poissons Ratio (z) = 0.09195 0.30699
#
# Static dielectric constant tensor:
#      x y z
#    x 1.641870 0.000000 0.000000 
#    y 0.000000 1.678220 0.000000 
#    z 0.000000 0.000000 1.620330 
# 
# From -- ./inp_files/61477.got.cif
#   From: 2010.05.17/outbox.cif.g08.bks.cpg/sg63_31_cif.got.tgz:61477.got - 2010.06.03 15:47:04.
