data_PCOD9470629
_publ_section_title
;
Structure prediction by ZEFSAII (Michael W. Deem and Ramdas Pophale) SiO2 
 PCOD9470629
Probable space group: C M C M
;
_chemical_formula_sum "Si O2"
_cell_formula_units_Z 100
_cell_length_a 14.138237
_cell_length_b 13.804866
_cell_length_c 31.430662
_cell_angle_alpha 90.000000
_cell_angle_beta 90.000000
_cell_angle_gamma 90.000000
_cell_volume 6134.525573
_symmetry_space_group_name_H-M "C M C M"
_symmetry_group_IT_number 63
_symmetry_cell_setting 'orthorhombic'
loop_
_space_group_symop_operation_xyz
x,y,z
-x,-y,1/2+z
x,-y,-z
-x,y,1/2-z
-x,-y,-z
x,y,1/2-z
-x,y,z
x,-y,1/2+z
1/2+x,1/2+y,z
1/2-x,1/2-y,1/2+z
1/2+x,1/2-y,-z
1/2-x,1/2+y,1/2-z
1/2-x,1/2-y,-z
1/2+x,1/2+y,1/2-z
1/2-x,1/2+y,z
1/2+x,1/2-y,1/2+z
loop_
_atom_site_type_symbol
_atom_site_label
_atom_site_fract_x
_atom_site_fract_y
_atom_site_fract_z
Si Si1 0.391394 0.262102 0.872244
Si Si2 0.241262 0.886250 0.386797
Si Si3 0.107318 0.848031 0.965447
Si Si4 0.500000 0.485271 0.750000
Si Si5 0.296895 0.960634 0.545166
Si Si6 0.396122 0.527332 0.162153
Si Si7 0.611548 0.753318 0.555933
O O1 0.500000 0.237854 0.861589
O O2 0.317247 0.179025 0.862401
O O3 0.386281 0.283143 0.922964
O O4 0.367364 0.363265 0.849424
O O5 0.172706 0.815082 0.413453
O O6 0.296113 0.956153 0.419666
O O7 0.177905 0.952426 0.356390
O O8 0.187328 0.928794 0.961098
O O9 0.000000 0.886768 0.967727
O O10 0.125552 0.785490 0.007689
O O11 0.580752 0.483534 0.711795
O O12 0.351654 0.863386 0.558233
O O13 0.332985 0.000000 0.500000
O O14 0.500000 0.513279 0.140223
O O15 0.500000 0.747865 0.565505
#
# Coordination Sequence:
#
# PCOD9470629 Si02
#       7
#    16  16  16   4  16  16  16
#     4  10  20  35  55  81 110 145 183 222 266 317
#     4  12  20  33  57  82 109 141 185 229 264 319
#     4  10  19  33  50  72 105 145 194 231 264 308
#     4   8  20  40  64  84 112 130 164 212 284 336
#     4  12  22  33  51  73 113 152 191 229 273 305
#     4   9  19  37  60  81 108 134 168 215 271 329
#     4  11  23  35  48  74 109 151 193 233 269 311
#
# _framework density 16.301179000000001
#
# number of rings (size 3 to 8) (size 9 to 14) (size 15 to 20)
#    0.480    0.960    4.800    1.920    0.000    1.920 
#    0.000    0.800    0.000    0.000    0.000    0.000 
#    0.000    0.000    0.000    0.000    0.000    0.000 
#
# Total GULP energy -278465.200941 kJ/mol
# GULP energy per Si atom -5569.304019 kJ/mol
# Density = 1.626408 g / cm^3
# Si number density = 16.301179 Si / 1000 Ang^3
#
#
#
# Elastic Constant Matrix: (Units=GPa)
#
#
# Indices 1 2 3 4 5 6 
#
# 1 40.0904 28.4509 22.0473 0.0000 0.0000 0.0000
# 2 28.4509 82.8533 42.7560 0.0000 0.0000 0.0000
# 3 22.0473 42.7560 82.2641 0.0000 0.0000 0.0000
# 4 0.0000 0.0000 0.0000 2.0445 0.0000 0.0000
# 5 0.0000 0.0000 0.0000 0.0000 2.0233 0.0000
# 6 0.0000 0.0000 0.0000 0.0000 0.0000 18.2905
#
#
#
# Elastic Compliance Matrix: (Units=1/GPa)
#
#
# Indices 1 2 3 4 5 6 
#
# 1 0.033991 -0.009526 -0.004159 0.000000 0.000000 0.000000
# 2 -0.009526 0.019163 -0.007407 0.000000 0.000000 0.000000
# 3 -0.004159 -0.007407 0.017120 0.000000 0.000000 0.000000
# 4 0.000000 0.000000 0.000000 0.489120 0.000000 0.000000
# 5 0.000000 0.000000 0.000000 0.000000 0.494240 0.000000
# 6 0.000000 0.000000 0.000000 0.000000 0.000000 0.054673
#
#
# Mechanical properties :
#
#
# Convention : Reuss Voigt Hill
#
# Bulk Modulus (GPa) = 35.59854 43.52401 39.56128
# Shear Modulus (GPa) = 4.31089 11.93524 8.12307
#
# Velocity S-wave (km/s) = 1.62796 2.70880 2.23471
# Velocity P-wave (km/s) = 5.04174 6.04494 5.56599
#
# Compressibility (1/GPa) = 0.02809104
#
# Stress axis : x y z
#
# Youngs Moduli (GPa) = 29.41961 52.18443 58.41102
#
# Poissons Ratio (x) = 0.49711 0.24291
# Poissons Ratio (y) = 0.28025 0.43263
# Poissons Ratio (z) = 0.12235 0.38651
#
# Static dielectric constant tensor:
#      x y z
#    x 1.577370 0.000000 0.000000 
#    y 0.000000 1.551640 0.000000 
#    z 0.000000 0.000000 1.529450 
# 
# From -- ./inp_files/69338.got.cif
#   From: 2010.05.17/outbox.cif.g08.bks.cpg/sg63_35_cif.got.tgz:69338.got - 2010.06.03 15:47:04.
