data_PCOD9470010
_publ_section_title
;
Structure prediction by ZEFSAII (Michael W. Deem and Ramdas Pophale) SiO2 
 PCOD9470010
Probable space group: C M C M
;
_chemical_formula_sum "Si O2"
_cell_formula_units_Z 96
_cell_length_a 18.663207
_cell_length_b 10.375878
_cell_length_c 25.624109
_cell_angle_alpha 90.000000
_cell_angle_beta 90.000000
_cell_angle_gamma 90.000000
_cell_volume 4962.035908
_symmetry_space_group_name_H-M "C M C M"
_symmetry_group_IT_number 63
_symmetry_cell_setting 'orthorhombic'
loop_
_space_group_symop_operation_xyz
x,y,z
-x,-y,1/2+z
x,-y,-z
-x,y,1/2-z
-x,-y,-z
x,y,1/2-z
-x,y,z
x,-y,1/2+z
1/2+x,1/2+y,z
1/2-x,1/2-y,1/2+z
1/2+x,1/2-y,-z
1/2-x,1/2+y,1/2-z
1/2-x,1/2-y,-z
1/2+x,1/2+y,1/2-z
1/2-x,1/2+y,z
1/2+x,1/2-y,1/2+z
loop_
_atom_site_type_symbol
_atom_site_label
_atom_site_fract_x
_atom_site_fract_y
_atom_site_fract_z
Si Si1 0.321465 0.779288 0.692834
Si Si2 0.419636 0.074389 0.905618
Si Si3 0.133757 0.289604 0.580057
Si Si4 0.771867 0.934504 0.554414
Si Si5 0.919129 0.181654 0.477555
Si Si6 0.718081 0.062259 0.657185
O O1 0.355349 0.768119 0.750000
O O2 0.369633 0.757049 0.641283
O O3 0.258981 0.673217 0.687535
O O4 0.291293 0.924957 0.685964
O O5 0.500000 0.078942 0.884547
O O6 0.414796 0.176013 0.952360
O O7 0.360250 0.105549 0.862253
O O8 0.402163 0.930599 0.924939
O O9 0.217313 0.315804 0.564966
O O10 0.098516 0.195060 0.538783
O O11 0.854063 0.894309 0.548687
O O12 0.750021 0.000000 0.500000
O O13 0.759886 0.027495 0.603524
O O14 0.000000 0.133708 0.468968
#
# Coordination Sequence:
#
# PCOD9470010 Si02
#       6
#    16  16  16  16  16  16
#     4  10  20  35  55  77 102 133 176 226 267 304
#     4   9  17  30  49  77 110 140 170 209 263 322
#     4  10  19  31  51  75 103 137 174 217 261 309
#     4  10  19  31  48  71 103 139 172 210 257 316
#     4  11  20  30  48  75 108 142 173 210 261 322
#     4  10  20  34  56  82 108 138 174 220 266 313
#
# _framework density 19.346897999999999
#
# number of rings (size 3 to 8) (size 9 to 14) (size 15 to 20)
#    0.000    2.333    0.000    7.000    0.000    1.667 
#    0.000    0.000    0.000   18.000    0.000    0.000 
#    0.000   24.000    0.000    0.000    0.000    0.000 
#
# Total GULP energy -267956.418566 kJ/mol
# GULP energy per Si atom -5582.425387 kJ/mol
# Density = 1.930286 g / cm^3
# Si number density = 19.346898 Si / 1000 Ang^3
#
#
#
# Elastic Constant Matrix: (Units=GPa)
#
#
# Indices 1 2 3 4 5 6 
#
# 1 105.5734 15.1275 40.8380 0.0000 0.0000 0.0000
# 2 15.1275 38.6380 11.7901 0.0000 0.0000 0.0000
# 3 40.8380 11.7901 106.4802 0.0000 0.0000 0.0000
# 4 0.0000 0.0000 0.0000 10.9798 0.0000 0.0000
# 5 0.0000 0.0000 0.0000 0.0000 15.2135 0.0000
# 6 0.0000 0.0000 0.0000 0.0000 0.0000 19.6998
#
#
#
# Elastic Compliance Matrix: (Units=1/GPa)
#
#
# Indices 1 2 3 4 5 6 
#
# 1 0.011508 -0.003269 -0.004052 0.000000 0.000000 0.000000
# 2 -0.003269 0.027715 -0.001815 0.000000 0.000000 0.000000
# 3 -0.004052 -0.001815 0.011146 0.000000 0.000000 0.000000
# 4 0.000000 0.000000 0.000000 0.091076 0.000000 0.000000
# 5 0.000000 0.000000 0.000000 0.000000 0.065731 0.000000
# 6 0.000000 0.000000 0.000000 0.000000 0.000000 0.050762
#
#
# Mechanical properties :
#
#
# Convention : Reuss Voigt Hill
#
# Bulk Modulus (GPa) = 31.15493 42.91142 37.03317
# Shear Modulus (GPa) = 17.42713 21.37435 19.40074
#
# Velocity S-wave (km/s) = 3.00454 3.32745 3.17011
# Velocity P-wave (km/s) = 5.30798 6.08200 5.70812
#
# Compressibility (1/GPa) = 0.03209765
#
# Stress axis : x y z
#
# Youngs Moduli (GPa) = 86.89798 36.08153 89.71626
#
# Poissons Ratio (x) = 0.11796 0.36349
# Poissons Ratio (y) = 0.28409 0.16283
# Poissons Ratio (z) = 0.35207 0.06549
#
# Static dielectric constant tensor:
#      x y z
#    x 1.688990 0.000000 0.000000 
#    y 0.000000 1.722030 0.000000 
#    z 0.000000 0.000000 1.678150 
# 
# From -- ./inp_files/63679.got.cif
#   From: 2010.05.17/outbox.cif.g08.bks.cpg/sg63_32_cif.got.tgz:63679.got - 2010.06.03 15:47:04.
