data_PCOD9470591
_publ_section_title
;
Structure prediction by ZEFSAII (Michael W. Deem and Ramdas Pophale) SiO2 
 PCOD9470591
Probable space group: C M C M
;
_chemical_formula_sum "Si O2"
_cell_formula_units_Z 80
_cell_length_a 15.756119
_cell_length_b 15.800748
_cell_length_c 17.880902
_cell_angle_alpha 90.000000
_cell_angle_beta 90.000000
_cell_angle_gamma 90.000000
_cell_volume 4451.601929
_symmetry_space_group_name_H-M "C M C M"
_symmetry_group_IT_number 63
_symmetry_cell_setting 'orthorhombic'
loop_
_space_group_symop_operation_xyz
x,y,z
-x,-y,1/2+z
x,-y,-z
-x,y,1/2-z
-x,-y,-z
x,y,1/2-z
-x,y,z
x,-y,1/2+z
1/2+x,1/2+y,z
1/2-x,1/2-y,1/2+z
1/2+x,1/2-y,-z
1/2-x,1/2+y,1/2-z
1/2-x,1/2-y,-z
1/2+x,1/2+y,1/2-z
1/2-x,1/2+y,z
1/2+x,1/2-y,1/2+z
loop_
_atom_site_type_symbol
_atom_site_label
_atom_site_fract_x
_atom_site_fract_y
_atom_site_fract_z
Si Si1 0.681097 0.593055 0.514217
Si Si2 0.256657 0.317977 0.339061
Si Si3 0.590771 0.187471 0.164096
Si Si4 0.127890 0.411251 0.967808
Si Si5 0.096446 0.749203 0.929517
O O1 0.642053 0.500000 0.500000
O O2 0.711398 0.611622 0.600239
O O3 0.770347 0.591808 0.470298
O O4 0.627481 0.669818 0.478271
O O5 0.253031 0.340784 0.250000
O O6 0.329730 0.247600 0.349102
O O7 0.167868 0.277415 0.368210
O O8 0.591518 0.165136 0.250000
O O9 0.500000 0.230764 0.146947
O O10 0.597936 0.104454 0.115199
O O11 0.099856 0.500000 0.000000
O O12 0.096612 0.331513 0.015376
O O13 0.000000 0.762464 0.901670
#
# Coordination Sequence:
#
# PCOD9470591 Si02
#       5
#    16  16  16  16  16
#     4  10  20  37  58  84 116 154 203 246 283 339
#     4  10  20  38  59  83 116 152 192 242 299 349
#     4  10  19  32  55  85 113 142 183 240 299 346
#     4  10  19  35  57  81 114 151 189 237 290 343
#     4  11  21  36  58  84 118 156 195 237 287 349
#
# _framework density 17.971059
#
# number of rings (size 3 to 8) (size 9 to 14) (size 15 to 20)
#    0.000    1.800    4.000    1.800    0.000    2.400 
#    0.000   10.000    0.000    0.000    0.000    0.000 
#    0.000    0.000    0.000    0.000    0.000    0.000 
#
# Total GULP energy -222739.193486 kJ/mol
# GULP energy per Si atom -5568.479837 kJ/mol
# Density = 1.793016 g / cm^3
# Si number density = 17.971059 Si / 1000 Ang^3
#
#
#
# Elastic Constant Matrix: (Units=GPa)
#
#
# Indices 1 2 3 4 5 6 
#
# 1 112.7420 37.3562 34.8809 0.0000 0.0000 0.0000
# 2 37.3562 128.8733 50.8858 0.0000 0.0000 0.0000
# 3 34.8809 50.8858 71.5702 0.0000 0.0000 0.0000
# 4 0.0000 0.0000 0.0000 21.7952 0.0000 0.0000
# 5 0.0000 0.0000 0.0000 0.0000 15.8332 0.0000
# 6 0.0000 0.0000 0.0000 0.0000 0.0000 -3.3489
#
#
#
# Elastic Compliance Matrix: (Units=1/GPa)
#
#
# Indices 1 2 3 4 5 6 
#
# 1 0.010634 -0.001440 -0.004158 0.000000 0.000000 0.000000
# 2 -0.001440 0.010983 -0.007107 0.000000 0.000000 0.000000
# 3 -0.004158 -0.007107 0.021052 0.000000 0.000000 0.000000
# 4 0.000000 0.000000 0.000000 0.045882 0.000000 0.000000
# 5 0.000000 0.000000 0.000000 0.000000 0.063158 0.000000
# 6 0.000000 0.000000 0.000000 0.000000 0.000000 -0.298607
#
#
# Mechanical properties :
#
#
# Convention : Reuss Voigt Hill
#
# Bulk Modulus (GPa) = 57.94641 62.15902 60.05272
# Shear Modulus (GPa) = -43.20261 19.52675 -11.83793
#
# Velocity S-wave (km/s) = -4.90839 3.29989 -2.56934
# Velocity P-wave (km/s) = 0.43731 7.01302 4.96859
#
# Compressibility (1/GPa) = 0.01725732
#
# Stress axis : x y z
#
# Youngs Moduli (GPa) = 94.04139 91.04729 47.50150
#
# Poissons Ratio (x) = 0.13115 0.19753
# Poissons Ratio (y) = 0.13546 0.33759
# Poissons Ratio (z) = 0.39106 0.64708
#
# Static dielectric constant tensor:
#      x y z
#    x 1.652430 0.000000 0.000000 
#    y 0.000000 1.621060 0.000000 
#    z 0.000000 0.000000 1.638030 
# 
# From -- ./inp_files/43946.got.cif
#   From: 2010.05.17/outbox.cif.g08.bks.cpg/sg63_22_cif.got.tgz:43946.got - 2010.06.03 15:47:04.
