data_PCOD9470367
_publ_section_title
;
Structure prediction by ZEFSAII (Michael W. Deem and Ramdas Pophale) SiO2 
 PCOD9470367
Probable space group: C M C M
;
_chemical_formula_sum "Si O2"
_cell_formula_units_Z 112
_cell_length_a 19.646570
_cell_length_b 19.426733
_cell_length_c 17.791478
_cell_angle_alpha 90.000000
_cell_angle_beta 90.000000
_cell_angle_gamma 90.000000
_cell_volume 6790.449741
_symmetry_space_group_name_H-M "C M C M"
_symmetry_group_IT_number 63
_symmetry_cell_setting 'orthorhombic'
loop_
_space_group_symop_operation_xyz
x,y,z
-x,-y,1/2+z
x,-y,-z
-x,y,1/2-z
-x,-y,-z
x,y,1/2-z
-x,y,z
x,-y,1/2+z
1/2+x,1/2+y,z
1/2-x,1/2-y,1/2+z
1/2+x,1/2-y,-z
1/2-x,1/2+y,1/2-z
1/2-x,1/2-y,-z
1/2+x,1/2+y,1/2-z
1/2-x,1/2+y,z
1/2+x,1/2-y,1/2+z
loop_
_atom_site_type_symbol
_atom_site_label
_atom_site_fract_x
_atom_site_fract_y
_atom_site_fract_z
Si Si1 0.863907 0.644056 0.166449
Si Si2 0.076179 0.662357 0.491738
Si Si3 0.669475 0.427782 0.541032
Si Si4 0.712248 0.114289 0.569073
Si Si5 0.743576 0.020877 0.164816
Si Si6 0.188624 0.797001 0.162017
Si Si7 0.578708 0.323472 0.038697
O O1 0.895999 0.647782 0.250000
O O2 0.814404 0.578949 0.164514
O O3 0.820430 0.714556 0.157438
O O4 0.913592 0.641316 0.095549
O O5 0.137005 0.630090 0.540024
O O6 0.083662 0.745213 0.490963
O O7 0.000000 0.644241 0.516979
O O8 0.654756 0.500000 0.500000
O O9 0.737477 0.396090 0.502060
O O10 0.690273 0.446358 0.625308
O O11 0.609862 0.375076 0.522481
O O12 0.744487 0.174504 0.620404
O O13 0.719067 0.043912 0.615912
O O14 0.756986 0.999455 0.250000
O O15 0.187179 0.816098 0.250000
O O16 0.125690 0.827582 0.113408
O O17 0.500000 0.337852 0.055265
#
# Coordination Sequence:
#
# PCOD9470367 Si02
#       7
#    16  16  16  16  16  16  16
#     4   9  18  31  49  74 101 129 168 213 259 306
#     4  10  20  33  51  73 102 141 175 212 258 302
#     4   9  18  31  52  76 101 134 167 210 260 306
#     4  10  19  32  51  73 102 130 174 218 251 305
#     4  10  19  32  51  74  99 128 165 218 267 302
#     4   9  18  31  51  76 100 135 173 211 258 299
#     4   9  19  32  50  78 108 137 170 209 255 309
#
# _framework density 16.493752000000001
#
# number of rings (size 3 to 8) (size 9 to 14) (size 15 to 20)
#    0.000    2.571    1.429    0.429    2.000    2.571 
#    0.000    4.286    0.000    3.000    0.000    4.000 
#    0.000    0.000    0.000    0.000    0.000    0.000 
#
# Total GULP energy -312050.199704 kJ/mol
# GULP energy per Si atom -5572.324995 kJ/mol
# Density = 1.645621 g / cm^3
# Si number density = 16.493752 Si / 1000 Ang^3
#
#
#
# Elastic Constant Matrix: (Units=GPa)
#
#
# Indices 1 2 3 4 5 6 
#
# 1 93.7166 27.6170 53.3556 0.0000 0.0000 0.0000
# 2 27.6170 27.2978 24.5450 0.0000 0.0000 0.0000
# 3 53.3556 24.5450 93.6718 0.0000 0.0000 0.0000
# 4 0.0000 0.0000 0.0000 18.1952 0.0000 0.0000
# 5 0.0000 0.0000 0.0000 0.0000 17.4866 0.0000
# 6 0.0000 0.0000 0.0000 0.0000 0.0000 15.9963
#
#
#
# Elastic Compliance Matrix: (Units=1/GPa)
#
#
# Indices 1 2 3 4 5 6 
#
# 1 0.018378 -0.012010 -0.007321 0.000000 0.000000 0.000000
# 2 -0.012010 0.055773 -0.007773 0.000000 0.000000 0.000000
# 3 -0.007321 -0.007773 0.016883 0.000000 0.000000 0.000000
# 4 0.000000 0.000000 0.000000 0.054959 0.000000 0.000000
# 5 0.000000 0.000000 0.000000 0.000000 0.057186 0.000000
# 6 0.000000 0.000000 0.000000 0.000000 0.000000 0.062514
#
#
# Mechanical properties :
#
#
# Convention : Reuss Voigt Hill
#
# Bulk Modulus (GPa) = 27.15586 47.30238 37.22912
# Shear Modulus (GPa) = 15.05223 17.61354 16.33289
#
# Velocity S-wave (km/s) = 3.02421 3.27141 3.15023
# Velocity P-wave (km/s) = 5.35673 6.55825 5.98770
#
# Compressibility (1/GPa) = 0.03682446
#
# Stress axis : x y z
#
# Youngs Moduli (GPa) = 54.41398 17.92988 59.23290
#
# Poissons Ratio (x) = 0.21533 0.43364
# Poissons Ratio (y) = 0.65350 0.46044
# Poissons Ratio (z) = 0.39836 0.13938
#
# Static dielectric constant tensor:
#      x y z
#    x 1.531190 0.000000 0.000000 
#    y 0.000000 1.561710 0.000000 
#    z 0.000000 0.000000 1.570750 
# 
# From -- ./inp_files/46082.got.cif
#   From: 2010.05.17/outbox.cif.g08.bks.cpg/sg63_24_cif.got.tgz:46082.got - 2010.06.03 15:47:04.
