data_PCOD9470715
_publ_section_title
;
Structure prediction by ZEFSAII (Michael W. Deem and Ramdas Pophale) SiO2 
 PCOD9470715
Probable space group: C M C M
;
_chemical_formula_sum "Si O2"
_cell_formula_units_Z 80
_cell_length_a 27.242963
_cell_length_b 19.515326
_cell_length_c 8.356940
_cell_angle_alpha 90.000000
_cell_angle_beta 90.000000
_cell_angle_gamma 90.000000
_cell_volume 4443.011477
_symmetry_space_group_name_H-M "C M C M"
_symmetry_group_IT_number 63
_symmetry_cell_setting 'orthorhombic'
loop_
_space_group_symop_operation_xyz
x,y,z
-x,-y,1/2+z
x,-y,-z
-x,y,1/2-z
-x,-y,-z
x,y,1/2-z
-x,y,z
x,-y,1/2+z
1/2+x,1/2+y,z
1/2-x,1/2-y,1/2+z
1/2+x,1/2-y,-z
1/2-x,1/2+y,1/2-z
1/2-x,1/2-y,-z
1/2+x,1/2+y,1/2-z
1/2-x,1/2+y,z
1/2+x,1/2-y,1/2+z
loop_
_atom_site_type_symbol
_atom_site_label
_atom_site_fract_x
_atom_site_fract_y
_atom_site_fract_z
Si Si1 0.196798 0.328552 0.443179
Si Si2 0.000000 0.421280 0.442916
Si Si3 0.393059 0.921547 0.056159
Si Si4 0.392811 0.421485 0.058109
Si Si5 0.303524 0.329147 0.558748
Si Si6 0.000000 0.921308 0.057052
O O1 0.196082 0.328560 0.250000
O O2 0.152202 0.375709 0.500852
O O3 0.250320 0.353309 0.497874
O O4 0.190634 0.249740 0.497910
O O5 0.000000 0.500000 0.500000
O O6 0.053120 0.393676 0.496135
O O7 0.000000 0.419476 0.250000
O O8 0.392424 0.921543 0.250000
O O9 0.388297 0.000000 0.000000
O O10 0.392176 0.421936 0.250000
O O11 0.446761 0.393917 0.003597
O O12 0.387958 0.500000 0.000000
O O13 0.348177 0.375793 0.997716
O O14 0.302653 0.328788 0.750000
O O15 0.000000 0.919430 0.250000
O O16 0.000000 0.000000 0.000000
#
# Coordination Sequence:
#
# PCOD9470715 Si02
#       6
#    16   8  16  16  16   8
#     4   9  19  35  51  68  95 131 167 202 242 289
#     4   8  14  26  45  68  94 122 150 186 233 280
#     4   9  17  30  49  72  96 122 155 194 235 280
#     4  10  19  33  53  76 101 128 161 201 243 290
#     4  10  20  34  51  71  96 129 166 202 245 293
#     4   8  16  30  49  72  98 128 158 192 239 290
#
# _framework density 18.005804999999999
#
# number of rings (size 3 to 8) (size 9 to 14) (size 15 to 20)
#    0.000    2.800    0.000    1.200    0.000    3.200 
#    0.000    3.000    0.000    2.400    0.000    4.200 
#    0.000    0.000    0.000    0.000    0.000    0.000 
#
# Total GULP energy -222779.894103 kJ/mol
# GULP energy per Si atom -5569.497353 kJ/mol
# Density = 1.796482 g / cm^3
# Si number density = 18.005805 Si / 1000 Ang^3
#
#
#
# Elastic Constant Matrix: (Units=GPa)
#
#
# Indices 1 2 3 4 5 6 
#
# 1 238.3857 83.9625 22.3585 0.0000 0.0000 0.0000
# 2 83.9625 50.7064 8.4336 0.0000 0.0000 0.0000
# 3 22.3585 8.4336 12.0659 0.0000 0.0000 0.0000
# 4 0.0000 0.0000 0.0000 20.4859 0.0000 0.0000
# 5 0.0000 0.0000 0.0000 0.0000 -15.4295 0.0000
# 6 0.0000 0.0000 0.0000 0.0000 0.0000 -38.1765
#
#
#
# Elastic Compliance Matrix: (Units=1/GPa)
#
#
# Indices 1 2 3 4 5 6 
#
# 1 0.010782 -0.016442 -0.008487 0.000000 0.000000 0.000000
# 2 -0.016442 0.047388 -0.002656 0.000000 0.000000 0.000000
# 3 -0.008487 -0.002656 0.100461 0.000000 0.000000 0.000000
# 4 0.000000 0.000000 0.000000 0.048814 0.000000 0.000000
# 5 0.000000 0.000000 0.000000 0.000000 -0.064811 0.000000
# 6 0.000000 0.000000 0.000000 0.000000 0.000000 -0.026194
#
#
# Mechanical properties :
#
#
# Convention : Reuss Voigt Hill
#
# Bulk Modulus (GPa) = 9.66538 58.96302 34.31420
# Shear Modulus (GPa) = 24.26066 5.80288 15.03177
#
# Velocity S-wave (km/s) = 3.67465 1.79716 2.89248
# Velocity P-wave (km/s) = 4.83566 6.09296 5.50035
#
# Compressibility (1/GPa) = 0.10346209
#
# Stress axis : x y z
#
# Youngs Moduli (GPa) = 92.74888 21.10246 9.95414
#
# Poissons Ratio (x) = 0.34696 0.08448
# Poissons Ratio (y) = 1.52493 0.02643
# Poissons Ratio (z) = 0.78716 0.05604
#
# Static dielectric constant tensor:
#      x y z
#    x 1.660920 0.000000 0.000000 
#    y 0.000000 1.579830 0.000000 
#    z 0.000000 0.000000 1.615480 
# 
# From -- ./inp_files/10075.got.cif
#   From: 2010.05.17/outbox.cif.g08.bks.cpg/sg63_6_cif.got.tgz:10075.got - 2010.06.03 15:47:04.
