data_PCOD9470778
_publ_section_title
;
Structure prediction by ZEFSAII (Michael W. Deem and Ramdas Pophale) SiO2 
 PCOD9470778
Probable space group: C M C M
;
_chemical_formula_sum "Si O2"
_cell_formula_units_Z 112
_cell_length_a 13.225081
_cell_length_b 26.736575
_cell_length_c 15.116506
_cell_angle_alpha 90.000000
_cell_angle_beta 90.000000
_cell_angle_gamma 90.000000
_cell_volume 5345.096300
_symmetry_space_group_name_H-M "C M C M"
_symmetry_group_IT_number 63
_symmetry_cell_setting 'orthorhombic'
loop_
_space_group_symop_operation_xyz
x,y,z
-x,-y,1/2+z
x,-y,-z
-x,y,1/2-z
-x,-y,-z
x,y,1/2-z
-x,y,z
x,-y,1/2+z
1/2+x,1/2+y,z
1/2-x,1/2-y,1/2+z
1/2+x,1/2-y,-z
1/2-x,1/2+y,1/2-z
1/2-x,1/2-y,-z
1/2+x,1/2+y,1/2-z
1/2-x,1/2+y,z
1/2+x,1/2-y,1/2+z
loop_
_atom_site_type_symbol
_atom_site_label
_atom_site_fract_x
_atom_site_fract_y
_atom_site_fract_z
Si Si1 0.319346 0.436036 0.144623
Si Si2 0.815863 0.051652 0.355979
Si Si3 0.116625 0.726551 0.592268
Si Si4 0.608241 0.369941 0.507701
Si Si5 0.887501 0.601917 0.145869
Si Si6 0.610525 0.110588 0.644246
Si Si7 0.219613 0.300712 0.579846
O O1 0.330307 0.427068 0.250000
O O2 0.341594 0.494061 0.127830
O O3 0.203947 0.423399 0.116586
O O4 0.383489 0.399350 0.084110
O O5 0.824951 0.061015 0.250000
O O6 0.881308 0.089475 0.413707
O O7 0.699960 0.063927 0.384325
O O8 0.127625 0.668887 0.622032
O O9 0.142540 0.725950 0.487329
O O10 0.205640 0.762191 0.629917
O O11 0.000000 0.740556 0.611601
O O12 0.500000 0.344155 0.514225
O O13 0.700698 0.332583 0.521224
O O14 0.896261 0.592869 0.250000
O O15 0.842547 0.657608 0.132625
O O16 0.000000 0.597728 0.106613
O O17 0.606822 0.106520 0.750000
O O18 0.500000 0.096274 0.608747
#
# Coordination Sequence:
#
# PCOD9470778 Si02
#       7
#    16  16  16  16  16  16  16
#     4  10  20  36  55  79 111 144 181 225 271 323
#     4   9  20  36  55  80 110 142 180 227 275 322
#     4  10  19  33  54  78 103 137 177 219 269 322
#     4  11  22  37  56  79 108 144 187 229 274 328
#     4   9  18  34  55  78 106 139 173 213 267 325
#     4   9  18  33  54  79 107 139 175 219 271 325
#     4  10  20  34  53  78 106 140 174 223 267 322
#
# _framework density 20.953786000000001
#
# number of rings (size 3 to 8) (size 9 to 14) (size 15 to 20)
#    0.000    2.286    1.429    1.286    0.000    2.857 
#    0.000    4.286    0.000    5.143    0.000    0.000 
#    0.000    0.000    0.000    0.000    0.000    0.000 
#
# Total GULP energy -312299.657593 kJ/mol
# GULP energy per Si atom -5576.779600 kJ/mol
# Density = 2.090609 g / cm^3
# Si number density = 20.953786 Si / 1000 Ang^3
#
#
#
# Elastic Constant Matrix: (Units=GPa)
#
#
# Indices 1 2 3 4 5 6 
#
# 1 77.5472 -18.1911 4.2621 0.0000 0.0000 0.0000
# 2 -18.1911 42.2210 4.3085 0.0000 0.0000 0.0000
# 3 4.2621 4.3085 40.3429 0.0000 0.0000 0.0000
# 4 0.0000 0.0000 0.0000 26.6311 0.0000 0.0000
# 5 0.0000 0.0000 0.0000 0.0000 16.6270 0.0000
# 6 0.0000 0.0000 0.0000 0.0000 0.0000 13.8495
#
#
#
# Elastic Compliance Matrix: (Units=1/GPa)
#
#
# Indices 1 2 3 4 5 6 
#
# 1 0.014541 0.006493 -0.002230 0.000000 0.000000 0.000000
# 2 0.006493 0.026845 -0.003553 0.000000 0.000000 0.000000
# 3 -0.002230 -0.003553 0.025403 0.000000 0.000000 0.000000
# 4 0.000000 0.000000 0.000000 0.037550 0.000000 0.000000
# 5 0.000000 0.000000 0.000000 0.000000 0.060143 0.000000
# 6 0.000000 0.000000 0.000000 0.000000 0.000000 0.072205
#
#
# Mechanical properties :
#
#
# Convention : Reuss Voigt Hill
#
# Bulk Modulus (GPa) = 14.66094 15.65223 15.15659
# Shear Modulus (GPa) = 19.37967 22.73695 21.05831
#
# Velocity S-wave (km/s) = 3.04448 3.29766 3.17359
# Velocity P-wave (km/s) = 4.40119 4.68887 4.54730
#
# Compressibility (1/GPa) = 0.06820843
#
# Stress axis : x y z
#
# Youngs Moduli (GPa) = 68.77136 37.25117 39.36620
#
# Poissons Ratio (x) = -0.24186 0.08777
# Poissons Ratio (y) = -0.44650 0.13986
# Poissons Ratio (z) = 0.15333 0.13235
#
# Static dielectric constant tensor:
#      x y z
#    x 1.802640 0.000000 0.000000 
#    y 0.000000 1.737180 0.000000 
#    z 0.000000 0.000000 1.747720 
# 
# From -- ./inp_files/30421.got.cif
#   From: 2010.05.17/outbox.cif.g08.bks.cpg/sg63_16_cif.got.tgz:30421.got - 2010.06.03 15:47:04.
