data_PCOD9470718
_publ_section_title
;
Structure prediction by ZEFSAII (Michael W. Deem and Ramdas Pophale) SiO2 
 PCOD9470718
Probable space group: C M C M
;
_chemical_formula_sum "Si O2"
_cell_formula_units_Z 72
_cell_length_a 16.197334
_cell_length_b 22.607913
_cell_length_c 9.164673
_cell_angle_alpha 90.000000
_cell_angle_beta 90.000000
_cell_angle_gamma 90.000000
_cell_volume 3355.992524
_symmetry_space_group_name_H-M "C M C M"
_symmetry_group_IT_number 63
_symmetry_cell_setting 'orthorhombic'
loop_
_space_group_symop_operation_xyz
x,y,z
-x,-y,1/2+z
x,-y,-z
-x,y,1/2-z
-x,-y,-z
x,y,1/2-z
-x,y,z
x,-y,1/2+z
1/2+x,1/2+y,z
1/2-x,1/2-y,1/2+z
1/2+x,1/2-y,-z
1/2-x,1/2+y,1/2-z
1/2-x,1/2-y,-z
1/2+x,1/2+y,1/2-z
1/2-x,1/2+y,z
1/2+x,1/2-y,1/2+z
loop_
_atom_site_type_symbol
_atom_site_label
_atom_site_fract_x
_atom_site_fract_y
_atom_site_fract_z
Si Si1 0.661668 0.604930 0.413319
Si Si2 0.836015 0.754881 0.913839
Si Si3 0.000000 0.753670 0.082065
Si Si4 0.000000 0.564174 0.575603
Si Si5 0.500000 0.601117 0.917674
Si Si6 0.178599 0.564306 0.924718
O O1 0.670015 0.579548 0.250000
O O2 0.649177 0.675002 0.398897
O O3 0.582008 0.581109 0.498052
O O4 0.744200 0.597024 0.506123
O O5 0.829925 0.728917 0.750000
O O6 0.750000 0.750000 0.000000
O O7 0.916721 0.733484 0.000579
O O8 0.000000 0.734413 0.250000
O O9 0.000000 0.826274 0.083527
O O10 0.000000 0.500000 0.500000
O O11 0.088643 0.592051 0.539757
O O12 0.000000 0.555298 0.750000
O O13 0.500000 0.581864 0.750000
O O14 0.186734 0.559811 0.750000
O O15 0.179374 0.500000 0.000000
#
# Coordination Sequence:
#
# PCOD9470718 Si02
#       6
#    16  16   8   8   8  16
#     4  10  20  34  52  76 104 134 168 208 252 300
#     4  10  20  34  53  76 103 135 172 212 254 301
#     4   9  17  31  52  75 100 131 169 209 252 306
#     4   8  16  30  49  72  97 128 166 203 241 290
#     4   9  17  31  52  75  98 131 170 206 247 300
#     4  10  19  33  53  76 102 133 169 209 252 300
#
# _framework density 21.454160000000002
#
# number of rings (size 3 to 8) (size 9 to 14) (size 15 to 20)
#    0.000    2.444    0.000    2.667    0.000    6.222 
#    0.000    1.667    0.000    5.333    0.000    0.000 
#    0.000    0.000    0.000    0.000    0.000    0.000 
#
# Total GULP energy -200902.876886 kJ/mol
# GULP energy per Si atom -5580.635469 kJ/mol
# Density = 2.140533 g / cm^3
# Si number density = 21.454160 Si / 1000 Ang^3
#
#
#
# Elastic Constant Matrix: (Units=GPa)
#
#
# Indices 1 2 3 4 5 6 
#
# 1 232.2890 3.0848 123.6961 0.0000 0.0000 0.0000
# 2 3.0848 32.6667 7.7057 0.0000 0.0000 0.0000
# 3 123.6961 7.7057 185.2718 0.0000 0.0000 0.0000
# 4 0.0000 0.0000 0.0000 17.3368 0.0000 0.0000
# 5 0.0000 0.0000 0.0000 0.0000 38.9596 0.0000
# 6 0.0000 0.0000 0.0000 0.0000 0.0000 12.7184
#
#
#
# Elastic Compliance Matrix: (Units=1/GPa)
#
#
# Indices 1 2 3 4 5 6 
#
# 1 0.006686 0.000426 -0.004481 0.000000 0.000000 0.000000
# 2 0.000426 0.030943 -0.001571 0.000000 0.000000 0.000000
# 3 -0.004481 -0.001571 0.008455 0.000000 0.000000 0.000000
# 4 0.000000 0.000000 0.000000 0.057681 0.000000 0.000000
# 5 0.000000 0.000000 0.000000 0.000000 0.025668 0.000000
# 6 0.000000 0.000000 0.000000 0.000000 0.000000 0.078626
#
#
# Mechanical properties :
#
#
# Convention : Reuss Voigt Hill
#
# Bulk Modulus (GPa) = 28.71134 79.91121 54.31127
# Shear Modulus (GPa) = 21.65239 34.85236 28.25238
#
# Velocity S-wave (km/s) = 3.18030 4.03489 3.63281
# Velocity P-wave (km/s) = 5.18627 7.68345 6.55488
#
# Compressibility (1/GPa) = 0.03482945
#
# Stress axis : x y z
#
# Youngs Moduli (GPa) = 149.57252 32.31791 118.27573
#
# Poissons Ratio (x) = -0.01376 0.53004
# Poissons Ratio (y) = -0.06368 0.18584
# Poissons Ratio (z) = 0.67030 0.05078
#
# Static dielectric constant tensor:
#      x y z
#    x 1.781790 0.000000 0.000000 
#    y 0.000000 1.819120 0.000000 
#    z 0.000000 0.000000 1.754430 
# 
# From -- ./inp_files/4997.got.cif
#   From: 2010.05.17/outbox.cif.g08.bks.cpg/sg63_3_cif.got.tgz:4997.got - 2010.06.03 15:47:04.
