data_PCOD9470901
_publ_section_title
;
Structure prediction by ZEFSAII (Michael W. Deem and Ramdas Pophale) SiO2 
 PCOD9470901
Probable space group: C M C M
;
_chemical_formula_sum "Si O2"
_cell_formula_units_Z 96
_cell_length_a 18.464918
_cell_length_b 29.921846
_cell_length_c 8.738571
_cell_angle_alpha 90.000000
_cell_angle_beta 90.000000
_cell_angle_gamma 90.000000
_cell_volume 4828.099214
_symmetry_space_group_name_H-M "C M C M"
_symmetry_group_IT_number 63
_symmetry_cell_setting 'orthorhombic'
loop_
_space_group_symop_operation_xyz
x,y,z
-x,-y,1/2+z
x,-y,-z
-x,y,1/2-z
-x,-y,-z
x,y,1/2-z
-x,y,z
x,-y,1/2+z
1/2+x,1/2+y,z
1/2-x,1/2-y,1/2+z
1/2+x,1/2-y,-z
1/2-x,1/2+y,1/2-z
1/2-x,1/2-y,-z
1/2+x,1/2+y,1/2-z
1/2-x,1/2+y,z
1/2+x,1/2-y,1/2+z
loop_
_atom_site_type_symbol
_atom_site_label
_atom_site_fract_x
_atom_site_fract_y
_atom_site_fract_z
Si Si1 0.373595 0.956105 0.070967
Si Si2 0.081226 0.358426 0.076472
Si Si3 0.811760 0.298894 0.924873
Si Si4 0.172679 0.856268 0.565631
Si Si5 0.081992 0.226368 0.066476
Si Si6 0.793631 0.047857 0.934425
O O1 0.366999 0.964322 0.250000
O O2 0.416962 0.911028 0.050652
O O3 0.291035 0.949415 0.013943
O O4 0.406667 0.000000 0.000000
O O5 0.111494 0.350318 0.250000
O O6 0.000000 0.341205 0.077074
O O7 0.126914 0.336151 0.944900
O O8 0.796690 0.286216 0.750000
O O9 0.741156 0.325285 0.986346
O O10 0.852135 0.257644 0.007287
O O11 0.179438 0.861255 0.750000
O O12 0.103743 0.824890 0.532587
O O13 0.172311 0.905555 0.493105
O O14 0.081257 0.231719 0.250000
O O15 0.000000 0.236391 0.009977
O O16 0.797320 0.046754 0.750000
O O17 0.821119 0.000000 0.000000
#
# Coordination Sequence:
#
# PCOD9470901 Si02
#       6
#    16  16  16  16  16  16
#     4   9  18  31  47  69  97 133 176 221 268 318
#     4  10  20  34  50  69 100 143 186 225 268 322
#     4  11  22  35  54  81 111 142 181 229 273 320
#     4  10  21  37  58  85 113 144 185 229 274 326
#     4  10  22  40  60  81 110 148 185 225 277 334
#     4  10  19  33  56  84 114 146 181 227 278 327
#
# _framework density 19.883600999999999
#
# number of rings (size 3 to 8) (size 9 to 14) (size 15 to 20)
#    0.000    2.000    1.667    2.000    0.000    5.667 
#    0.000    0.000    0.000    0.500    0.000    0.000 
#    0.000    0.000    0.000    0.000    0.000    0.000 
#
# Total GULP energy -267483.559493 kJ/mol
# GULP energy per Si atom -5572.574156 kJ/mol
# Density = 1.983835 g / cm^3
# Si number density = 19.883601 Si / 1000 Ang^3
#
#
#
# Elastic Constant Matrix: (Units=GPa)
#
#
# Indices 1 2 3 4 5 6 
#
# 1 24.4811 40.2408 12.5760 0.0000 0.0000 0.0000
# 2 40.2408 151.1529 42.8067 0.0000 0.0000 0.0000
# 3 12.5760 42.8067 23.5429 0.0000 0.0000 0.0000
# 4 0.0000 0.0000 0.0000 37.6679 0.0000 0.0000
# 5 0.0000 0.0000 0.0000 0.0000 15.2884 0.0000
# 6 0.0000 0.0000 0.0000 0.0000 0.0000 64.8795
#
#
#
# Elastic Compliance Matrix: (Units=1/GPa)
#
#
# Indices 1 2 3 4 5 6 
#
# 1 0.073281 -0.017365 -0.007571 0.000000 0.000000 0.000000
# 2 -0.017365 0.017754 -0.023005 0.000000 0.000000 0.000000
# 3 -0.007571 -0.023005 0.088348 0.000000 0.000000 0.000000
# 4 0.000000 0.000000 0.000000 0.026548 0.000000 0.000000
# 5 0.000000 0.000000 0.000000 0.000000 0.065409 0.000000
# 6 0.000000 0.000000 0.000000 0.000000 0.000000 0.015413
#
#
# Mechanical properties :
#
#
# Convention : Reuss Voigt Hill
#
# Bulk Modulus (GPa) = 11.97582 43.38042 27.67812
# Shear Modulus (GPa) = 12.18123 30.47072 21.32598
#
# Velocity S-wave (km/s) = 2.47782 3.91891 3.27852
# Velocity P-wave (km/s) = 3.77122 6.50705 5.31807
#
# Compressibility (1/GPa) = 0.08350161
#
# Stress axis : x y z
#
# Youngs Moduli (GPa) = 13.64611 56.32577 11.31890
#
# Poissons Ratio (x) = 0.97811 0.08569
# Poissons Ratio (y) = 0.23697 0.26039
# Poissons Ratio (z) = 0.10331 1.29576
#
# Static dielectric constant tensor:
#      x y z
#    x 1.724450 0.000000 0.000000 
#    y 0.000000 1.736850 0.000000 
#    z 0.000000 0.000000 1.657710 
# 
# From -- ./inp_files/8620.got.cif
#   From: 2010.05.17/outbox.cif.g08.bks.cpg/sg63_5_cif.got.tgz:8620.got - 2010.06.03 15:47:04.
