data_PCOD9470350
_publ_section_title
;
Structure prediction by ZEFSAII (Michael W. Deem and Ramdas Pophale) SiO2 
 PCOD9470350
Probable space group: C M C M
;
_chemical_formula_sum "Si O2"
_cell_formula_units_Z 96
_cell_length_a 7.355383
_cell_length_b 21.821474
_cell_length_c 26.357035
_cell_angle_alpha 90.000000
_cell_angle_beta 90.000000
_cell_angle_gamma 90.000000
_cell_volume 4230.443781
_symmetry_space_group_name_H-M "C M C M"
_symmetry_group_IT_number 63
_symmetry_cell_setting 'orthorhombic'
loop_
_space_group_symop_operation_xyz
x,y,z
-x,-y,1/2+z
x,-y,-z
-x,y,1/2-z
-x,-y,-z
x,y,1/2-z
-x,y,z
x,-y,1/2+z
1/2+x,1/2+y,z
1/2-x,1/2-y,1/2+z
1/2+x,1/2-y,-z
1/2-x,1/2+y,1/2-z
1/2-x,1/2-y,-z
1/2+x,1/2+y,1/2-z
1/2-x,1/2+y,z
1/2+x,1/2-y,1/2+z
loop_
_atom_site_type_symbol
_atom_site_label
_atom_site_fract_x
_atom_site_fract_y
_atom_site_fract_z
Si Si1 0.709769 0.489724 0.146116
Si Si2 0.277890 0.750494 0.646564
Si Si3 0.282915 0.304627 0.040003
Si Si4 0.780703 0.618715 0.189890
Si Si5 0.204597 0.803481 0.250000
Si Si6 0.206246 0.052999 0.750000
Si Si7 0.777567 0.055382 0.962982
O O1 0.500000 0.467835 0.146236
O O2 0.714801 0.562059 0.156000
O O3 0.796838 0.465748 0.197843
O O4 0.782558 0.464855 0.093398
O O5 0.500000 0.747810 0.644252
O O6 0.214152 0.719725 0.594561
O O7 0.227692 0.820119 0.659693
O O8 0.213534 0.715595 0.696811
O O9 0.500000 0.310676 0.044167
O O10 0.218837 0.374018 0.026647
O O11 0.250000 0.250000 0.000000
O O12 0.722184 0.617652 0.250000
O O13 0.000000 0.616459 0.191544
O O14 0.188619 0.875264 0.250000
O O15 0.000000 0.774818 0.250000
O O16 0.000000 0.025029 0.750000
O O17 0.000000 0.055154 0.964770
O O18 0.719515 0.000000 0.000000
#
# Coordination Sequence:
#
# PCOD9470350 Si02
#       7
#    16  16  16  16   8   8  16
#     4  10  19  32  51  76 105 135 172 217 259 309
#     4   9  17  30  49  74 103 133 172 216 259 311
#     4  10  21  37  57  81 108 140 180 225 269 318
#     4  10  19  32  50  76 107 138 169 207 261 318
#     4   9  14  25  48  73  97 129 166 213 264 308
#     4   9  16  25  43  73  99 121 160 213 260 298
#     4   9  19  35  54  77 106 141 179 219 268 319
#
# _framework density 22.692654000000001
#
# number of rings (size 3 to 8) (size 9 to 14) (size 15 to 20)
#    0.000    2.500    1.667    1.000    2.333    4.000 
#    0.000    0.833    0.000    1.000    0.000    2.333 
#    0.000    0.000    0.000    0.000    0.000    0.000 
#
# Total GULP energy -267711.224562 kJ/mol
# GULP energy per Si atom -5577.317178 kJ/mol
# Density = 2.264100 g / cm^3
# Si number density = 22.692654 Si / 1000 Ang^3
#
#
#
# Elastic Constant Matrix: (Units=GPa)
#
#
# Indices 1 2 3 4 5 6 
#
# 1 84.5789 0.2750 6.8565 0.0000 0.0000 0.0000
# 2 0.2750 190.0417 107.9936 0.0000 0.0000 0.0000
# 3 6.8565 107.9936 197.4559 0.0000 0.0000 0.0000
# 4 0.0000 0.0000 0.0000 41.3918 0.0000 0.0000
# 5 0.0000 0.0000 0.0000 0.0000 -11.1820 0.0000
# 6 0.0000 0.0000 0.0000 0.0000 0.0000 64.5777
#
#
#
# Elastic Compliance Matrix: (Units=1/GPa)
#
#
# Indices 1 2 3 4 5 6 
#
# 1 0.011870 0.000315 -0.000584 0.000000 0.000000 0.000000
# 2 0.000315 0.007643 -0.004191 0.000000 0.000000 0.000000
# 3 -0.000584 -0.004191 0.007377 0.000000 0.000000 0.000000
# 4 0.000000 0.000000 0.000000 0.024159 0.000000 0.000000
# 5 0.000000 0.000000 0.000000 0.000000 -0.089429 0.000000
# 6 0.000000 0.000000 0.000000 0.000000 0.000000 0.015485
#
#
# Mechanical properties :
#
#
# Convention : Reuss Voigt Hill
#
# Bulk Modulus (GPa) = 55.65300 78.03627 66.84464
# Shear Modulus (GPa) = -626.26402 42.75426 -291.75488
#
# Velocity S-wave (km/s) = -16.63056 4.34528 -11.35108
# Velocity P-wave (km/s) = 18.55235 7.72258 11.92794
#
# Compressibility (1/GPa) = 0.01796848
#
# Stress axis : x y z
#
# Youngs Moduli (GPa) = 84.24862 130.83405 135.55634
#
# Poissons Ratio (x) = -0.04120 0.07922
# Poissons Ratio (y) = -0.02653 0.56815
# Poissons Ratio (z) = 0.04923 0.54836
#
# Static dielectric constant tensor:
#      x y z
#    x 1.871290 0.000000 0.000000 
#    y 0.000000 1.884690 0.000000 
#    z 0.000000 0.000000 1.826630 
# 
# From -- ./inp_files/61719.got.cif
#   From: 2010.05.17/outbox.cif.g08.bks.cpg/sg63_31_cif.got.tgz:61719.got - 2010.06.03 15:47:04.
