data_PCOD9470834
_publ_section_title
;
Structure prediction by ZEFSAII (Michael W. Deem and Ramdas Pophale) SiO2 
 PCOD9470834
Probable space group: C M C M
;
_chemical_formula_sum "Si O2"
_cell_formula_units_Z 96
_cell_length_a 7.627765
_cell_length_b 21.359830
_cell_length_c 27.634975
_cell_angle_alpha 90.000000
_cell_angle_beta 90.000000
_cell_angle_gamma 90.000000
_cell_volume 4502.504676
_symmetry_space_group_name_H-M "C M C M"
_symmetry_group_IT_number 63
_symmetry_cell_setting 'orthorhombic'
loop_
_space_group_symop_operation_xyz
x,y,z
-x,-y,1/2+z
x,-y,-z
-x,y,1/2-z
-x,-y,-z
x,y,1/2-z
-x,y,z
x,-y,1/2+z
1/2+x,1/2+y,z
1/2-x,1/2-y,1/2+z
1/2+x,1/2-y,-z
1/2-x,1/2+y,1/2-z
1/2-x,1/2-y,-z
1/2+x,1/2+y,1/2-z
1/2-x,1/2+y,z
1/2+x,1/2-y,1/2+z
loop_
_atom_site_type_symbol
_atom_site_label
_atom_site_fract_x
_atom_site_fract_y
_atom_site_fract_z
Si Si1 0.791596 0.313518 0.971408
Si Si2 0.792512 0.813340 0.641307
Si Si3 0.214888 0.437093 0.027655
Si Si4 0.288636 0.562487 0.305399
Si Si5 0.290174 0.935148 0.138246
Si Si6 0.715033 0.811792 0.305944
O O1 0.729057 0.311811 0.916238
O O2 0.000000 0.319278 0.969450
O O3 0.750000 0.250000 0.000000
O O4 0.725098 0.374686 0.999918
O O5 0.721706 0.876949 0.665288
O O6 0.723549 0.750260 0.666190
O O7 0.000000 0.813384 0.651265
O O8 0.275147 0.437631 0.083183
O O9 0.000000 0.436605 0.027849
O O10 0.269034 0.500000 0.000000
O O11 0.224738 0.561945 0.250000
O O12 0.500000 0.566226 0.303689
O O13 0.245265 0.498764 0.333092
O O14 0.500000 0.928356 0.135103
O O15 0.224431 0.874542 0.167123
O O16 0.767898 0.810965 0.250000
O O17 0.500000 0.812223 0.306682
#
# Coordination Sequence:
#
# PCOD9470834 Si02
#       6
#    16  16  16  16  16  16
#     4  11  22  37  58  82 109 140 175 219 269 320
#     4  10  20  36  57  79 105 139 180 222 263 313
#     4   9  18  33  53  77 105 138 176 217 261 309
#     4  10  21  36  54  79 112 146 176 213 268 325
#     4  10  19  33  55  79 102 134 179 224 260 303
#     4   9  17  31  53  78 102 135 182 227 262 305
#
# _framework density 21.321466999999998
#
# number of rings (size 3 to 8) (size 9 to 14) (size 15 to 20)
#    0.000    2.167    0.000    3.500    0.000    7.667 
#    0.000    4.167    0.000    7.000    0.000    0.000 
#    0.000    0.000    0.000    0.000    0.000    0.000 
#
# Total GULP energy -268296.405766 kJ/mol
# GULP energy per Si atom -5589.508453 kJ/mol
# Density = 2.127294 g / cm^3
# Si number density = 21.321467 Si / 1000 Ang^3
#
#
#
# Elastic Constant Matrix: (Units=GPa)
#
#
# Indices 1 2 3 4 5 6 
#
# 1 38.6114 -0.4282 -6.8493 0.0000 0.0000 0.0000
# 2 -0.4282 262.2186 156.3242 0.0000 0.0000 0.0000
# 3 -6.8493 156.3242 236.7481 0.0000 0.0000 0.0000
# 4 0.0000 0.0000 0.0000 49.2616 0.0000 0.0000
# 5 0.0000 0.0000 0.0000 0.0000 7.4042 0.0000
# 6 0.0000 0.0000 0.0000 0.0000 0.0000 20.6822
#
#
#
# Elastic Compliance Matrix: (Units=1/GPa)
#
#
# Indices 1 2 3 4 5 6 
#
# 1 0.026104 -0.000672 0.001199 0.000000 0.000000 0.000000
# 2 -0.000672 0.006307 -0.004184 0.000000 0.000000 0.000000
# 3 0.001199 -0.004184 0.007021 0.000000 0.000000 0.000000
# 4 0.000000 0.000000 0.000000 0.020300 0.000000 0.000000
# 5 0.000000 0.000000 0.000000 0.000000 0.135059 0.000000
# 6 0.000000 0.000000 0.000000 0.000000 0.000000 0.048351
#
#
# Mechanical properties :
#
#
# Convention : Reuss Voigt Hill
#
# Bulk Modulus (GPa) = 31.13484 92.85240 61.99362
# Shear Modulus (GPa) = 19.14525 41.37169 30.25847
#
# Velocity S-wave (km/s) = 2.99980 4.40975 3.77125
# Velocity P-wave (km/s) = 5.16069 8.34093 6.93556
#
# Compressibility (1/GPa) = 0.03211836
#
# Stress axis : x y z
#
# Youngs Moduli (GPa) = 38.30783 158.56178 142.42779
#
# Poissons Ratio (x) = 0.10659 -0.17078
# Poissons Ratio (y) = 0.02575 0.59588
# Poissons Ratio (z) = -0.04593 0.66338
#
# Static dielectric constant tensor:
#      x y z
#    x 1.799570 0.000000 0.000000 
#    y 0.000000 1.735740 0.000000 
#    z 0.000000 0.000000 1.711150 
# 
# From -- ./inp_files/66926.got.cif
#   From: 2010.05.17/outbox.cif.g08.bks.cpg/sg63_34_cif.got.tgz:66926.got - 2010.06.03 15:47:04.
