data_PCOD9470908
_publ_section_title
;
Structure prediction by ZEFSAII (Michael W. Deem and Ramdas Pophale) SiO2 
 PCOD9470908
Probable space group: C M C M
;
_chemical_formula_sum "Si O2"
_cell_formula_units_Z 80
_cell_length_a 15.498229
_cell_length_b 29.728886
_cell_length_c 9.251974
_cell_angle_alpha 90.000000
_cell_angle_beta 90.000000
_cell_angle_gamma 90.000000
_cell_volume 4262.801530
_symmetry_space_group_name_H-M "C M C M"
_symmetry_group_IT_number 63
_symmetry_cell_setting 'orthorhombic'
loop_
_space_group_symop_operation_xyz
x,y,z
-x,-y,1/2+z
x,-y,-z
-x,y,1/2-z
-x,-y,-z
x,y,1/2-z
-x,y,z
x,-y,1/2+z
1/2+x,1/2+y,z
1/2-x,1/2-y,1/2+z
1/2+x,1/2-y,-z
1/2-x,1/2+y,1/2-z
1/2-x,1/2-y,-z
1/2+x,1/2+y,1/2-z
1/2-x,1/2+y,z
1/2+x,1/2-y,1/2+z
loop_
_atom_site_type_symbol
_atom_site_label
_atom_site_fract_x
_atom_site_fract_y
_atom_site_fract_z
Si Si1 0.754986 0.201934 0.076485
Si Si2 0.353238 0.045226 0.581822
Si Si3 0.402874 0.864023 0.921150
Si Si4 0.400858 0.644547 0.577874
Si Si5 0.644282 0.455441 0.417513
O O1 0.760743 0.206579 0.250000
O O2 0.669780 0.172432 0.042208
O O3 0.750000 0.250000 0.000000
O O4 0.835966 0.174804 0.012605
O O5 0.376941 0.043168 0.750000
O O6 0.388493 0.090089 0.508129
O O7 0.248604 0.047229 0.572311
O O8 0.381369 0.000000 0.500000
O O9 0.394197 0.874030 0.750000
O O10 0.500000 0.847114 0.946784
O O11 0.378881 0.646422 0.750000
O O12 0.500000 0.658683 0.561759
O O13 0.391374 0.592419 0.531187
O O14 0.615573 0.500000 0.500000
O O15 0.620524 0.460137 0.250000
#
# Coordination Sequence:
#
# PCOD9470908 Si02
#       5
#    16  16  16  16  16
#     4  11  24  42  65  89 117 151 193 245 303 359
#     4  10  19  33  56  85 119 157 197 239 286 342
#     4  10  22  40  61  86 116 152 195 241 292 349
#     4  10  21  39  62  88 121 159 198 242 294 349
#     4   9  18  32  53  83 118 156 196 236 283 340
#
# _framework density 18.767001
#
# number of rings (size 3 to 8) (size 9 to 14) (size 15 to 20)
#    0.000    2.000    2.000    1.200    0.000    4.800 
#    0.000    2.000    0.000    0.000    0.000    0.000 
#    0.000    0.000    0.000    0.000    0.000    0.000 
#
# Total GULP energy -223438.029728 kJ/mol
# GULP energy per Si atom -5585.950743 kJ/mol
# Density = 1.872429 g / cm^3
# Si number density = 18.767001 Si / 1000 Ang^3
#
#
#
# Elastic Constant Matrix: (Units=GPa)
#
#
# Indices 1 2 3 4 5 6 
#
# 1 97.5108 77.3090 63.6442 0.0000 0.0000 0.0000
# 2 77.3090 167.0119 83.7906 0.0000 0.0000 0.0000
# 3 63.6442 83.7906 77.4586 0.0000 0.0000 0.0000
# 4 0.0000 0.0000 0.0000 40.4941 0.0000 0.0000
# 5 0.0000 0.0000 0.0000 0.0000 20.1130 0.0000
# 6 0.0000 0.0000 0.0000 0.0000 0.0000 -8.8796
#
#
#
# Elastic Compliance Matrix: (Units=1/GPa)
#
#
# Indices 1 2 3 4 5 6 
#
# 1 0.022584 -0.002502 -0.015849 0.000000 0.000000 0.000000
# 2 -0.002502 0.013371 -0.012408 0.000000 0.000000 0.000000
# 3 -0.015849 -0.012408 0.039355 0.000000 0.000000 0.000000
# 4 0.000000 0.000000 0.000000 0.024695 0.000000 0.000000
# 5 0.000000 0.000000 0.000000 0.000000 0.049719 0.000000
# 6 0.000000 0.000000 0.000000 0.000000 0.000000 -0.112618
#
#
# Mechanical properties :
#
#
# Convention : Reuss Voigt Hill
#
# Bulk Modulus (GPa) = 72.51232 87.94098 80.22665
# Shear Modulus (GPa) = 48.43918 18.16133 33.30025
#
# Velocity S-wave (km/s) = 5.08595 3.11421 4.21694
# Velocity P-wave (km/s) = 8.55636 7.73900 8.15792
#
# Compressibility (1/GPa) = 0.01379076
#
# Stress axis : x y z
#
# Youngs Moduli (GPa) = 44.27968 74.78817 25.40974
#
# Poissons Ratio (x) = 0.18714 0.40272
# Poissons Ratio (y) = 0.11080 0.31529
# Poissons Ratio (z) = 0.70179 0.92798
#
# Static dielectric constant tensor:
#      x y z
#    x 1.672030 0.000000 0.000000 
#    y 0.000000 1.612480 0.000000 
#    z 0.000000 0.000000 1.629990 
# 
# From -- ./inp_files/6383.got.cif
#   From: 2010.05.17/outbox.cif.g08.bks.cpg/sg63_4_cif.got.tgz:6383.got - 2010.06.03 15:47:04.
