data_PCOD9470334
_publ_section_title
;
Structure prediction by ZEFSAII (Michael W. Deem and Ramdas Pophale) SiO2 
 PCOD9470334
Probable space group: C M C M
;
_chemical_formula_sum "Si O2"
_cell_formula_units_Z 64
_cell_length_a 22.702115
_cell_length_b 9.168381
_cell_length_c 13.803739
_cell_angle_alpha 90.000000
_cell_angle_beta 90.000000
_cell_angle_gamma 90.000000
_cell_volume 2873.132871
_symmetry_space_group_name_H-M "C M C M"
_symmetry_group_IT_number 63
_symmetry_cell_setting 'orthorhombic'
loop_
_space_group_symop_operation_xyz
x,y,z
-x,-y,1/2+z
x,-y,-z
-x,y,1/2-z
-x,-y,-z
x,y,1/2-z
-x,y,z
x,-y,1/2+z
1/2+x,1/2+y,z
1/2-x,1/2-y,1/2+z
1/2+x,1/2-y,-z
1/2-x,1/2+y,1/2-z
1/2-x,1/2-y,-z
1/2+x,1/2+y,1/2-z
1/2-x,1/2+y,z
1/2+x,1/2-y,1/2+z
loop_
_atom_site_type_symbol
_atom_site_label
_atom_site_fract_x
_atom_site_fract_y
_atom_site_fract_z
Si Si1 0.065816 0.599078 0.366719
Si Si2 0.635351 0.179454 0.642048
Si Si3 0.673250 0.281987 0.053364
Si Si4 0.750973 0.470685 0.640979
O O1 0.065588 0.595087 0.250000
O O2 0.086089 0.434903 0.394719
O O3 0.115427 0.715041 0.395579
O O4 0.000000 0.632667 0.400893
O O5 0.620504 0.234069 0.750000
O O6 0.652378 0.291230 0.558137
O O7 0.693099 0.078227 0.649813
O O8 0.699175 0.426481 0.101724
O O9 0.723236 0.156630 0.072456
O O10 0.738567 0.413179 0.750000
#
# Coordination Sequence:
#
# PCOD9470334 Si02
#       4
#    16  16  16  16
#     4   9  17  30  49  74 102 131 167 212 259 306
#     4   9  19  32  47  71 104 138 172 211 254 303
#     4  11  20  33  52  76 106 139 171 209 260 309
#     4  10  19  32  50  74 103 133 168 210 258 312
#
# _framework density 22.275334999999998
#
# number of rings (size 3 to 8) (size 9 to 14) (size 15 to 20)
#    0.000    2.250    0.000    7.500    0.000    2.000 
#    0.000    6.250    0.000    0.000    0.000    7.000 
#    0.000   52.000    0.000    7.250    0.000    7.500 
#
# Total GULP energy -178849.911192 kJ/mol
# GULP energy per Si atom -5589.059725 kJ/mol
# Density = 2.222464 g / cm^3
# Si number density = 22.275335 Si / 1000 Ang^3
#
#
#
# Elastic Constant Matrix: (Units=GPa)
#
#
# Indices 1 2 3 4 5 6 
#
# 1 152.6024 53.1493 24.1012 0.0000 0.0000 0.0000
# 2 53.1493 90.7237 36.2471 0.0000 0.0000 0.0000
# 3 24.1012 36.2471 146.6993 0.0000 0.0000 0.0000
# 4 0.0000 0.0000 0.0000 15.3842 0.0000 0.0000
# 5 0.0000 0.0000 0.0000 0.0000 28.8066 0.0000
# 6 0.0000 0.0000 0.0000 0.0000 0.0000 30.2232
#
#
#
# Elastic Compliance Matrix: (Units=1/GPa)
#
#
# Indices 1 2 3 4 5 6 
#
# 1 0.008237 -0.004754 -0.000179 0.000000 0.000000 0.000000
# 2 -0.004754 0.014974 -0.002919 0.000000 0.000000 0.000000
# 3 -0.000179 -0.002919 0.007567 0.000000 0.000000 0.000000
# 4 0.000000 0.000000 0.000000 0.065002 0.000000 0.000000
# 5 0.000000 0.000000 0.000000 0.000000 0.034714 0.000000
# 6 0.000000 0.000000 0.000000 0.000000 0.000000 0.033087
#
#
# Mechanical properties :
#
#
# Convention : Reuss Voigt Hill
#
# Bulk Modulus (GPa) = 66.33503 68.55783 67.44643
# Shear Modulus (GPa) = 27.12834 33.31797 30.22315
#
# Velocity S-wave (km/s) = 3.49358 3.87167 3.68747
# Velocity P-wave (km/s) = 6.79100 7.12956 6.96234
#
# Compressibility (1/GPa) = 0.01507499
#
# Stress axis : x y z
#
# Youngs Moduli (GPa) = 121.40350 66.78338 132.14974
#
# Poissons Ratio (x) = 0.31750 0.02360
# Poissons Ratio (y) = 0.57718 0.38571
# Poissons Ratio (z) = 0.02168 0.19492
#
# Static dielectric constant tensor:
#      x y z
#    x 1.837660 0.000000 0.000000 
#    y 0.000000 1.840440 0.000000 
#    z 0.000000 0.000000 1.953530 
# 
# From -- ./inp_files/31319.got.cif
#   From: 2010.05.17/outbox.cif.g08.bks.cpg/sg63_16_cif.got.tgz:31319.got - 2010.06.03 15:47:04.
