data_PCOD9470624
_publ_section_title
;
Structure prediction by ZEFSAII (Michael W. Deem and Ramdas Pophale) SiO2 
 PCOD9470624
Probable space group: C M C M
;
_chemical_formula_sum "Si O2"
_cell_formula_units_Z 80
_cell_length_a 11.073860
_cell_length_b 30.932564
_cell_length_c 13.238804
_cell_angle_alpha 90.000000
_cell_angle_beta 90.000000
_cell_angle_gamma 90.000000
_cell_volume 4534.858092
_symmetry_space_group_name_H-M "C M C M"
_symmetry_group_IT_number 63
_symmetry_cell_setting 'orthorhombic'
loop_
_space_group_symop_operation_xyz
x,y,z
-x,-y,1/2+z
x,-y,-z
-x,y,1/2-z
-x,-y,-z
x,y,1/2-z
-x,y,z
x,-y,1/2+z
1/2+x,1/2+y,z
1/2-x,1/2-y,1/2+z
1/2+x,1/2-y,-z
1/2-x,1/2+y,1/2-z
1/2-x,1/2-y,-z
1/2+x,1/2+y,1/2-z
1/2-x,1/2+y,z
1/2+x,1/2-y,1/2+z
loop_
_atom_site_type_symbol
_atom_site_label
_atom_site_fract_x
_atom_site_fract_y
_atom_site_fract_z
Si Si1 0.364782 0.904386 0.129668
Si Si2 0.858209 0.124194 0.136506
Si Si3 0.640190 0.550816 0.520244
Si Si4 0.633761 0.253673 0.365071
Si Si5 0.294485 0.819040 0.485151
O O1 0.354125 0.898421 0.250000
O O2 0.500000 0.923077 0.109410
O O3 0.249126 0.931880 0.090773
O O4 0.358626 0.858222 0.072551
O O5 0.807809 0.125453 0.250000
O O6 0.000000 0.133379 0.141832
O O7 0.844820 0.077529 0.083895
O O8 0.799109 0.158122 0.061046
O O9 0.650927 0.500000 0.500000
O O10 0.500000 0.559319 0.555549
O O11 0.659951 0.240010 0.250000
O O12 0.500000 0.273375 0.366929
O O13 0.634635 0.213497 0.441784
O O14 0.728250 0.288733 0.404082
#
# Coordination Sequence:
#
# PCOD9470624 Si02
#       5
#    16  16  16  16  16
#     4  10  21  36  54  77 106 140 176 214 258 309
#     4   9  17  30  49  72  98 129 166 208 253 305
#     4   9  19  35  55  80 107 135 170 212 258 307
#     4  10  20  32  48  71  97 127 168 218 265 309
#     4  10  19  33  50  69  98 134 170 210 260 313
#
# _framework density 17.641124999999999
#
# number of rings (size 3 to 8) (size 9 to 14) (size 15 to 20)
#    0.000    2.400    0.000    2.400    0.000    2.400 
#    0.000    2.000    0.000   15.000    0.000    0.000 
#    0.000    0.000    0.000    0.000    0.000    0.000 
#
# Total GULP energy -222731.638522 kJ/mol
# GULP energy per Si atom -5568.290963 kJ/mol
# Density = 1.760097 g / cm^3
# Si number density = 17.641125 Si / 1000 Ang^3
#
#
#
# Elastic Constant Matrix: (Units=GPa)
#
#
# Indices 1 2 3 4 5 6 
#
# 1 106.7179 40.0763 56.8579 0.0000 0.0000 0.0000
# 2 40.0763 64.2798 15.1065 0.0000 0.0000 0.0000
# 3 56.8579 15.1065 102.1775 0.0000 0.0000 0.0000
# 4 0.0000 0.0000 0.0000 7.7570 0.0000 0.0000
# 5 0.0000 0.0000 0.0000 0.0000 25.9571 0.0000
# 6 0.0000 0.0000 0.0000 0.0000 0.0000 -9.5844
#
#
#
# Elastic Compliance Matrix: (Units=1/GPa)
#
#
# Indices 1 2 3 4 5 6 
#
# 1 0.016974 -0.008664 -0.008164 0.000000 0.000000 0.000000
# 2 -0.008664 0.020539 0.001785 0.000000 0.000000 0.000000
# 3 -0.008164 0.001785 0.014066 0.000000 0.000000 0.000000
# 4 0.000000 0.000000 0.000000 0.128916 0.000000 0.000000
# 5 0.000000 0.000000 0.000000 0.000000 0.038525 0.000000
# 6 0.000000 0.000000 0.000000 0.000000 0.000000 -0.104336
#
#
# Mechanical properties :
#
#
# Convention : Reuss Voigt Hill
#
# Bulk Modulus (GPa) = 46.52945 55.25072 50.89009
# Shear Modulus (GPa) = 32.90842 15.56823 24.23833
#
# Velocity S-wave (km/s) = 4.32376 2.97391 3.71073
# Velocity P-wave (km/s) = 7.16654 6.57111 6.87527
#
# Compressibility (1/GPa) = 0.02149177
#
# Stress axis : x y z
#
# Youngs Moduli (GPa) = 58.91343 48.68711 71.09204
#
# Poissons Ratio (x) = 0.42183 0.58043
# Poissons Ratio (y) = 0.51043 -0.12687
# Poissons Ratio (z) = 0.48100 -0.08688
#
# Static dielectric constant tensor:
#      x y z
#    x 1.626620 0.000000 0.000000 
#    y 0.000000 1.584450 0.000000 
#    z 0.000000 0.000000 1.588080 
# 
# From -- ./inp_files/17812.got.cif
#   From: 2010.05.17/outbox.cif.g08.bks.cpg/sg63_9_cif.got.tgz:17812.got - 2010.06.03 15:47:04.
