data_PCOD9470540
_publ_section_title
;
Structure prediction by ZEFSAII (Michael W. Deem and Ramdas Pophale) SiO2 
 PCOD9470540
Probable space group: C M C M
;
_chemical_formula_sum "Si O2"
_cell_formula_units_Z 64
_cell_length_a 9.805092
_cell_length_b 20.347661
_cell_length_c 13.207260
_cell_angle_alpha 90.000000
_cell_angle_beta 90.000000
_cell_angle_gamma 90.000000
_cell_volume 2634.989530
_symmetry_space_group_name_H-M "C M C M"
_symmetry_group_IT_number 63
_symmetry_cell_setting 'orthorhombic'
loop_
_space_group_symop_operation_xyz
x,y,z
-x,-y,1/2+z
x,-y,-z
-x,y,1/2-z
-x,-y,-z
x,y,1/2-z
-x,y,z
x,-y,1/2+z
1/2+x,1/2+y,z
1/2-x,1/2-y,1/2+z
1/2+x,1/2-y,-z
1/2-x,1/2+y,1/2-z
1/2-x,1/2-y,-z
1/2+x,1/2+y,1/2-z
1/2-x,1/2+y,z
1/2+x,1/2-y,1/2+z
loop_
_atom_site_type_symbol
_atom_site_label
_atom_site_fract_x
_atom_site_fract_y
_atom_site_fract_z
Si Si1 0.787304 0.232434 0.129909
Si Si2 0.500000 0.526959 0.868424
Si Si3 0.500000 0.220294 0.363048
Si Si4 0.000000 0.130637 0.130794
Si Si5 0.000000 0.348490 0.138636
Si Si6 0.747103 0.500000 0.000000
Si Si7 0.000000 0.423877 0.931966
O O1 0.761594 0.218087 0.250000
O O2 0.638750 0.240441 0.083236
O O3 0.873605 0.298588 0.129943
O O4 0.868337 0.168949 0.090562
O O5 0.500000 0.547325 0.750000
O O6 0.500000 0.447064 0.873213
O O7 0.640873 0.542173 0.929474
O O8 0.500000 0.248849 0.250000
O O9 0.500000 0.141007 0.364148
O O10 0.000000 0.147117 0.250000
O O11 0.000000 0.379485 0.250000
O O12 0.000000 0.398664 0.048025
O O13 0.855587 0.462387 0.926506
#
# Coordination Sequence:
#
# PCOD9470540 Si02
#       7
#    16   8   8   8   8   8   8
#     4   8  15  29  50  78 108 135 174 223 264 322
#     4  10  20  39  64  82 105 144 184 233 295 338
#     4  10  19  32  53  82 112 142 181 231 281 323
#     4   8  13  25  50  77  98 129 170 214 270 325
#     4   9  19  36  54  74 109 155 187 213 268 339
#     4  10  24  40  54  84 116 140 192 248 274 320
#     4  11  23  38  56  80 116 154 187 232 281 331
#
# _framework density 24.288522
#
# number of rings (size 3 to 8) (size 9 to 14) (size 15 to 20)
#    0.000    2.750    0.000    3.000    0.000    5.000 
#    0.000    5.000    0.000    1.500    0.000    0.000 
#    0.000    0.000    0.000    0.000    0.000    0.000 
#
# Total GULP energy -178533.718988 kJ/mol
# GULP energy per Si atom -5579.178718 kJ/mol
# Density = 2.423324 g / cm^3
# Si number density = 24.288522 Si / 1000 Ang^3
#
#
#
# Elastic Constant Matrix: (Units=GPa)
#
#
# Indices 1 2 3 4 5 6 
#
# 1 204.9021 17.3750 -1.3716 0.0000 0.0000 0.0000
# 2 17.3750 32.9526 -14.5817 0.0000 0.0000 0.0000
# 3 -1.3716 -14.5817 104.6904 0.0000 0.0000 0.0000
# 4 0.0000 0.0000 0.0000 37.4085 0.0000 0.0000
# 5 0.0000 0.0000 0.0000 0.0000 5.7791 0.0000
# 6 0.0000 0.0000 0.0000 0.0000 0.0000 -5.6559
#
#
#
# Elastic Compliance Matrix: (Units=1/GPa)
#
#
# Indices 1 2 3 4 5 6 
#
# 1 0.005119 -0.002845 -0.000329 0.000000 0.000000 0.000000
# 2 -0.002845 0.033921 0.004687 0.000000 0.000000 0.000000
# 3 -0.000329 0.004687 0.010201 0.000000 0.000000 0.000000
# 4 0.000000 0.000000 0.000000 0.026732 0.000000 0.000000
# 5 0.000000 0.000000 0.000000 0.000000 0.173036 0.000000
# 6 0.000000 0.000000 0.000000 0.000000 0.000000 -0.176807
#
#
# Mechanical properties :
#
#
# Convention : Reuss Voigt Hill
#
# Bulk Modulus (GPa) = 19.13249 38.37651 28.75450
# Shear Modulus (GPa) = 57.73870 30.24793 43.99332
#
# Velocity S-wave (km/s) = 4.88094 3.53279 4.26053
# Velocity P-wave (km/s) = 6.29755 5.69872 6.00560
#
# Compressibility (1/GPa) = 0.05226711
#
# Stress axis : x y z
#
# Youngs Moduli (GPa) = 195.33459 29.48041 98.03413
#
# Poissons Ratio (x) = 0.08387 0.03227
# Poissons Ratio (y) = 0.55573 -0.45952
# Poissons Ratio (z) = 0.06430 -0.13818
#
# Static dielectric constant tensor:
#      x y z
#    x 2.026560 0.000000 0.000000 
#    y 0.000000 1.866320 0.000000 
#    z 0.000000 0.000000 1.978440 
# 
# From -- ./inp_files/27665.got.cif
#   From: 2010.05.17/outbox.cif.g08.bks.cpg/sg63_14_cif.got.tgz:27665.got - 2010.06.03 15:47:04.
