data_PCOD9470604
_publ_section_title
;
Structure prediction by ZEFSAII (Michael W. Deem and Ramdas Pophale) SiO2 
 PCOD9470604
Probable space group: C M C M
;
_chemical_formula_sum "Si O2"
_cell_formula_units_Z 100
_cell_length_a 17.921722
_cell_length_b 20.232939
_cell_length_c 14.923908
_cell_angle_alpha 90.000000
_cell_angle_beta 90.000000
_cell_angle_gamma 90.000000
_cell_volume 5411.544968
_symmetry_space_group_name_H-M "C M C M"
_symmetry_group_IT_number 63
_symmetry_cell_setting 'orthorhombic'
loop_
_space_group_symop_operation_xyz
x,y,z
-x,-y,1/2+z
x,-y,-z
-x,y,1/2-z
-x,-y,-z
x,y,1/2-z
-x,y,z
x,-y,1/2+z
1/2+x,1/2+y,z
1/2-x,1/2-y,1/2+z
1/2+x,1/2-y,-z
1/2-x,1/2+y,1/2-z
1/2-x,1/2-y,-z
1/2+x,1/2+y,1/2-z
1/2-x,1/2+y,z
1/2+x,1/2-y,1/2+z
loop_
_atom_site_type_symbol
_atom_site_label
_atom_site_fract_x
_atom_site_fract_y
_atom_site_fract_z
Si Si1 0.916879 0.138696 0.354521
Si Si2 0.738875 0.608046 0.094385
Si Si3 0.414107 0.239036 0.991329
Si Si4 0.304892 0.863662 0.092679
Si Si5 0.134433 0.497810 0.609198
Si Si6 0.301253 0.250003 0.348221
Si Si7 0.500000 0.023200 0.250000
O O1 0.911054 0.157448 0.250000
O O2 0.846008 0.094025 0.378870
O O3 0.911494 0.203146 0.417412
O O4 0.000000 0.109836 0.368228
O O5 0.799041 0.554452 0.124163
O O6 0.760520 0.680132 0.133350
O O7 0.750241 0.614245 0.987904
O O8 0.500000 0.227441 0.015846
O O9 0.375361 0.174134 0.950962
O O10 0.363036 0.258599 0.075342
O O11 0.335883 0.929634 0.136482
O O12 0.259185 0.808488 0.145955
O O13 0.119397 0.500000 0.500000
O O14 0.065103 0.478814 0.670601
O O15 0.335498 0.248355 0.250000
#
# Coordination Sequence:
#
# PCOD9470604 Si02
#       7
#    16  16  16  16  16  16   4
#     4  10  19  32  57  89 116 143 189 250 302 352
#     4  10  19  40  60  82 119 161 203 245 302 361
#     4  10  20  36  57  85 119 155 191 245 302 356
#     4  10  20  39  59  87 115 163 192 249 301 361
#     4  10  25  43  63  86 126 164 205 251 301 360
#     4  11  21  35  58  85 118 156 205 246 293 362
#     4  12  26  44  60  94 122 168 206 246 300 366
#
# _framework density 18.479012000000001
#
# number of rings (size 3 to 8) (size 9 to 14) (size 15 to 20)
#    0.000    1.760    3.200    1.680    4.480    0.320 
#    8.640    0.000    0.000    5.280    0.000    0.000 
#    0.000    0.000    0.000    0.000    0.000    0.000 
#
# Total GULP energy -278421.019407 kJ/mol
# GULP energy per Si atom -5568.420388 kJ/mol
# Density = 1.843695 g / cm^3
# Si number density = 18.479012 Si / 1000 Ang^3
#
#
#
# Elastic Constant Matrix: (Units=GPa)
#
#
# Indices 1 2 3 4 5 6 
#
# 1 175.5994 38.4923 47.2741 0.0000 0.0000 0.0000
# 2 38.4923 54.6620 3.1839 0.0000 0.0000 0.0000
# 3 47.2741 3.1839 64.0819 0.0000 0.0000 0.0000
# 4 0.0000 0.0000 0.0000 -0.9849 0.0000 0.0000
# 5 0.0000 0.0000 0.0000 0.0000 27.8293 0.0000
# 6 0.0000 0.0000 0.0000 0.0000 0.0000 -1.2070
#
#
#
# Elastic Compliance Matrix: (Units=1/GPa)
#
#
# Indices 1 2 3 4 5 6 
#
# 1 0.008565 -0.005680 -0.006036 0.000000 0.000000 0.000000
# 2 -0.005680 0.022114 0.003091 0.000000 0.000000 0.000000
# 3 -0.006036 0.003091 0.019904 0.000000 0.000000 0.000000
# 4 0.000000 0.000000 0.000000 -1.015308 0.000000 0.000000
# 5 0.000000 0.000000 0.000000 0.000000 0.035933 0.000000
# 6 0.000000 0.000000 0.000000 0.000000 0.000000 -0.828485
#
#
# Mechanical properties :
#
#
# Convention : Reuss Voigt Hill
#
# Bulk Modulus (GPa) = 29.99961 52.47154 41.23558
# Shear Modulus (GPa) = -2.89199 18.82033 7.96417
#
# Velocity S-wave (km/s) = -1.25236 3.19481 2.07827
# Velocity P-wave (km/s) = 3.76543 6.48583 5.30304
#
# Compressibility (1/GPa) = 0.03333376
#
# Stress axis : x y z
#
# Youngs Moduli (GPa) = 116.75654 45.22073 50.24006
#
# Poissons Ratio (x) = 0.25684 0.30326
# Poissons Ratio (y) = 0.66314 -0.15530
# Poissons Ratio (z) = 0.70477 -0.13979
#
# Static dielectric constant tensor:
#      x y z
#    x 1.636440 0.000000 0.000000 
#    y 0.000000 1.639420 0.000000 
#    z 0.000000 0.000000 1.658790 
# 
# From -- ./inp_files/34171.got.cif
#   From: 2010.05.17/outbox.cif.g08.bks.cpg/sg63_18_cif.got.tgz:34171.got - 2010.06.03 15:47:04.
