data_PCOD9470641
_publ_section_title
;
Structure prediction by ZEFSAII (Michael W. Deem and Ramdas Pophale) SiO2 
 PCOD9470641
Probable space group: C M C M
;
_chemical_formula_sum "Si O2"
_cell_formula_units_Z 120
_cell_length_a 28.501985
_cell_length_b 28.075009
_cell_length_c 8.649583
_cell_angle_alpha 90.000000
_cell_angle_beta 90.000000
_cell_angle_gamma 90.000000
_cell_volume 6921.339968
_symmetry_space_group_name_H-M "C M C M"
_symmetry_group_IT_number 63
_symmetry_cell_setting 'orthorhombic'
loop_
_space_group_symop_operation_xyz
x,y,z
-x,-y,1/2+z
x,-y,-z
-x,y,1/2-z
-x,-y,-z
x,y,1/2-z
-x,y,z
x,-y,1/2+z
1/2+x,1/2+y,z
1/2-x,1/2-y,1/2+z
1/2+x,1/2-y,-z
1/2-x,1/2+y,1/2-z
1/2-x,1/2-y,-z
1/2+x,1/2+y,1/2-z
1/2-x,1/2+y,z
1/2+x,1/2-y,1/2+z
loop_
_atom_site_type_symbol
_atom_site_label
_atom_site_fract_x
_atom_site_fract_y
_atom_site_fract_z
Si Si1 0.500000 0.053651 0.435568
Si Si2 0.289455 0.551327 0.432863
Si Si3 0.864022 0.124690 0.564768
Si Si4 0.712427 0.812156 0.925426
Si Si5 0.945540 0.947775 0.063480
Si Si6 0.303424 0.910172 0.428356
Si Si7 0.178196 0.218657 0.071813
Si Si8 0.898811 0.446235 0.564035
O O1 0.500000 0.050443 0.250000
O O2 0.449826 0.075270 0.479825
O O3 0.500000 0.000000 0.500000
O O4 0.302656 0.500000 0.500000
O O5 0.296960 0.553020 0.250000
O O6 0.320456 0.591710 0.514105
O O7 0.235336 0.561741 0.472797
O O8 0.864823 0.129425 0.750000
O O9 0.910288 0.094596 0.515527
O O10 0.854735 0.176505 0.491493
O O11 0.701662 0.827957 0.750000
O O12 0.767612 0.799286 0.930007
O O13 0.705370 0.854539 0.044674
O O14 0.681354 0.766503 0.970703
O O15 0.943860 0.950188 0.250000
O O16 0.000000 0.939449 0.017327
O O17 0.931505 0.000000 0.000000
O O18 0.297875 0.923755 0.250000
O O19 0.355146 0.920652 0.488155
O O20 0.166417 0.229346 0.250000
O O21 0.898089 0.500000 0.500000
O O22 0.894405 0.446617 0.750000
#
# Coordination Sequence:
#
# PCOD9470641 Si02
#       8
#     8  16  16  16  16  16  16  16
#     4   8  16  30  50  72  96 128 166 210 250 292
#     4  12  24  37  50  70 103 142 178 214 254 304
#     4  11  21  34  54  79 106 139 176 217 262 313
#     4  10  20  35  54  76 104 137 171 213 257 303
#     4   9  19  35  54  78 108 142 180 221 266 316
#     4  12  23  35  51  74 104 138 174 210 256 308
#     4  10  20  34  54  78 105 135 170 213 257 304
#     4  10  19  33  51  74 103 135 173 212 254 301
#
# _framework density 17.337682999999998
#
# number of rings (size 3 to 8) (size 9 to 14) (size 15 to 20)
#    0.000    1.600    1.333    4.800    0.000    3.733 
#    0.000    0.000    0.000    0.000    1.733    0.000 
#    0.000    0.000    0.000    0.000    0.000    0.000 
#
# Total GULP energy -334851.773789 kJ/mol
# GULP energy per Si atom -5580.862896 kJ/mol
# Density = 1.729822 g / cm^3
# Si number density = 17.337683 Si / 1000 Ang^3
#
#
#
# Elastic Constant Matrix: (Units=GPa)
#
#
# Indices 1 2 3 4 5 6 
#
# 1 59.6587 -0.2095 8.0809 0.0000 0.0000 0.0000
# 2 -0.2095 41.6519 3.8063 0.0000 0.0000 0.0000
# 3 8.0809 3.8063 50.9410 0.0000 0.0000 0.0000
# 4 0.0000 0.0000 0.0000 28.9914 0.0000 0.0000
# 5 0.0000 0.0000 0.0000 0.0000 18.5122 0.0000
# 6 0.0000 0.0000 0.0000 0.0000 0.0000 -6.1816
#
#
#
# Elastic Compliance Matrix: (Units=1/GPa)
#
#
# Indices 1 2 3 4 5 6 
#
# 1 0.017135 0.000337 -0.002743 0.000000 0.000000 0.000000
# 2 0.000337 0.024180 -0.001860 0.000000 0.000000 0.000000
# 3 -0.002743 -0.001860 0.020205 0.000000 0.000000 0.000000
# 4 0.000000 0.000000 0.000000 0.034493 0.000000 0.000000
# 5 0.000000 0.000000 0.000000 0.000000 0.054018 0.000000
# 6 0.000000 0.000000 0.000000 0.000000 0.000000 -0.161770
#
#
# Mechanical properties :
#
#
# Convention : Reuss Voigt Hill
#
# Bulk Modulus (GPa) = 18.87273 19.51189 19.19231
# Shear Modulus (GPa) = 345.86993 17.63598 181.75296
#
# Velocity S-wave (km/s) = 14.13943 3.19283 10.24982
# Velocity P-wave (km/s) = 16.65754 4.98705 12.29521
#
# Compressibility (1/GPa) = 0.05298650
#
# Stress axis : x y z
#
# Youngs Moduli (GPa) = 58.36079 41.35614 49.49335
#
# Poissons Ratio (x) = -0.01393 0.13578
# Poissons Ratio (y) = -0.01966 0.09207
# Poissons Ratio (z) = 0.16010 0.07693
#
# Static dielectric constant tensor:
#      x y z
#    x 1.611700 0.000000 0.000000 
#    y 0.000000 1.837550 0.000000 
#    z 0.000000 0.000000 1.582480 
# 
# From -- ./inp_files/13147.got.cif
#   From: 2010.05.17/outbox.cif.g08.bks.cpg/sg63_7_cif.got.tgz:13147.got - 2010.06.03 15:47:04.
