data_PCOD9470221
_publ_section_title
;
Structure prediction by ZEFSAII (Michael W. Deem and Ramdas Pophale) SiO2 
 PCOD9470221
Probable space group: C M C M
;
_chemical_formula_sum "Si O2"
_cell_formula_units_Z 128
_cell_length_a 18.477961
_cell_length_b 18.573942
_cell_length_c 18.482484
_cell_angle_alpha 90.000000
_cell_angle_beta 90.000000
_cell_angle_gamma 90.000000
_cell_volume 6343.347013
_symmetry_space_group_name_H-M "C M C M"
_symmetry_group_IT_number 63
_symmetry_cell_setting 'orthorhombic'
loop_
_space_group_symop_operation_xyz
x,y,z
-x,-y,1/2+z
x,-y,-z
-x,y,1/2-z
-x,-y,-z
x,y,1/2-z
-x,y,z
x,-y,1/2+z
1/2+x,1/2+y,z
1/2-x,1/2-y,1/2+z
1/2+x,1/2-y,-z
1/2-x,1/2+y,1/2-z
1/2-x,1/2-y,-z
1/2+x,1/2+y,1/2-z
1/2-x,1/2+y,z
1/2+x,1/2-y,1/2+z
loop_
_atom_site_type_symbol
_atom_site_label
_atom_site_fract_x
_atom_site_fract_y
_atom_site_fract_z
Si Si1 0.760606 0.104335 0.462159
Si Si2 0.578012 0.303517 0.337752
Si Si3 0.721863 0.784926 0.835067
Si Si4 0.881187 0.960378 0.333995
Si Si5 0.726257 0.050226 0.605792
Si Si6 0.922993 0.404892 0.336825
Si Si7 0.613628 0.747164 0.166249
Si Si8 0.418841 0.603674 0.075675
O O1 0.734979 0.157302 0.398730
O O2 0.727949 0.109658 0.541915
O O3 0.847474 0.106977 0.473782
O O4 0.739831 0.026639 0.431004
O O5 0.577917 0.304530 0.250000
O O6 0.500000 0.272995 0.361922
O O7 0.650854 0.260398 0.355817
O O8 0.582800 0.386671 0.360402
O O9 0.713167 0.810738 0.750000
O O10 0.798981 0.744307 0.834597
O O11 0.898765 0.972222 0.250000
O O12 0.795206 0.944208 0.341816
O O13 0.905299 0.031042 0.377559
O O14 0.648223 0.053297 0.640799
O O15 0.922785 0.401713 0.250000
O O16 0.917638 0.321981 0.362112
O O17 0.000000 0.436173 0.361156
O O18 0.592311 0.737653 0.250000
O O19 0.589445 0.675837 0.124121
O O20 0.500000 0.601193 0.044898
#
# Coordination Sequence:
#
# PCOD9470221 Si02
#       8
#    16  16  16  16  16  16  16  16
#     4   9  21  38  55  76 102 138 180 215 259 321
#     4   9  17  30  48  74 108 139 172 217 262 304
#     4   9  17  32  54  76 100 136 178 219 262 310
#     4  10  19  31  52  80 107 141 180 212 250 309
#     4  10  20  38  56  73 104 142 174 212 264 317
#     4  10  20  34  55  82 107 133 171 220 268 311
#     4   9  17  30  50  77 108 138 168 208 264 322
#     4  10  19  32  52  78 109 140 172 216 261 302
#
# _framework density 20.178622000000001
#
# number of rings (size 3 to 8) (size 9 to 14) (size 15 to 20)
#    0.000    2.500    0.000    2.250    0.000    7.500 
#    0.000   13.750    0.000    1.500    0.000    0.000 
#    0.000    0.000    0.000    0.000    0.000    0.000 
#
# Total GULP energy -356742.369874 kJ/mol
# GULP energy per Si atom -5574.099529 kJ/mol
# Density = 2.013269 g / cm^3
# Si number density = 20.178622 Si / 1000 Ang^3
#
#
#
# Elastic Constant Matrix: (Units=GPa)
#
#
# Indices 1 2 3 4 5 6 
#
# 1 170.6926 33.5857 9.9182 0.0000 0.0000 0.0000
# 2 33.5857 33.9483 1.6620 0.0000 0.0000 0.0000
# 3 9.9182 1.6620 30.3608 0.0000 0.0000 0.0000
# 4 0.0000 0.0000 0.0000 1.0018 0.0000 0.0000
# 5 0.0000 0.0000 0.0000 0.0000 -1.1770 0.0000
# 6 0.0000 0.0000 0.0000 0.0000 0.0000 -0.1077
#
#
#
# Elastic Compliance Matrix: (Units=1/GPa)
#
#
# Indices 1 2 3 4 5 6 
#
# 1 0.007396 -0.007218 -0.002021 0.000000 0.000000 0.000000
# 2 -0.007218 0.036580 0.000356 0.000000 0.000000 0.000000
# 3 -0.002021 0.000356 0.033578 0.000000 0.000000 0.000000
# 4 0.000000 0.000000 0.000000 0.998188 0.000000 0.000000
# 5 0.000000 0.000000 0.000000 0.000000 -0.849605 0.000000
# 6 0.000000 0.000000 0.000000 0.000000 0.000000 -9.288809
#
#
# Mechanical properties :
#
#
# Convention : Reuss Voigt Hill
#
# Bulk Modulus (GPa) = 16.72603 36.14817 26.43710
# Shear Modulus (GPa) = -0.55402 12.59916 6.02257
#
# Velocity S-wave (km/s) = -0.52455 2.50147 1.72948
# Velocity P-wave (km/s) = 2.81782 5.12798 4.13741
#
# Compressibility (1/GPa) = 0.05978706
#
# Stress axis : x y z
#
# Youngs Moduli (GPa) = 135.20479 27.33716 29.78143
#
# Poissons Ratio (x) = 0.19733 0.06019
# Poissons Ratio (y) = 0.97594 -0.01059
# Poissons Ratio (z) = 0.27325 -0.00972
#
# Static dielectric constant tensor:
#      x y z
#    x 1.741840 0.000000 0.000000 
#    y 0.000000 1.709620 0.000000 
#    z 0.000000 0.000000 1.721210 
# 
# From -- ./inp_files/56045.got.cif
#   From: 2010.05.17/outbox.cif.g08.bks.cpg/sg63_29_cif.got.tgz:56045.got - 2010.06.03 15:47:04.
