data_PCOD9470178
_publ_section_title
;
Structure prediction by ZEFSAII (Michael W. Deem and Ramdas Pophale) SiO2 
 PCOD9470178
Probable space group: C M C M
;
_chemical_formula_sum "Si O2"
_cell_formula_units_Z 116
_cell_length_a 28.339857
_cell_length_b 23.783707
_cell_length_c 7.827684
_cell_angle_alpha 90.000000
_cell_angle_beta 90.000000
_cell_angle_gamma 90.000000
_cell_volume 5276.069231
_symmetry_space_group_name_H-M "C M C M"
_symmetry_group_IT_number 63
_symmetry_cell_setting 'orthorhombic'
loop_
_space_group_symop_operation_xyz
x,y,z
-x,-y,1/2+z
x,-y,-z
-x,y,1/2-z
-x,-y,-z
x,y,1/2-z
-x,y,z
x,-y,1/2+z
1/2+x,1/2+y,z
1/2-x,1/2-y,1/2+z
1/2+x,1/2-y,-z
1/2-x,1/2+y,1/2-z
1/2-x,1/2-y,-z
1/2+x,1/2+y,1/2-z
1/2-x,1/2+y,z
1/2+x,1/2-y,1/2+z
loop_
_atom_site_type_symbol
_atom_site_label
_atom_site_fract_x
_atom_site_fract_y
_atom_site_fract_z
Si Si1 0.423165 0.938322 0.551888
Si Si2 0.652796 0.223046 0.551469
Si Si3 0.000000 0.951961 0.750000
Si Si4 0.448409 0.184401 0.041923
Si Si5 0.218062 0.937040 0.046071
Si Si6 0.356143 0.656092 0.450317
Si Si7 0.821022 0.600559 0.542375
Si Si8 0.050010 0.902272 0.438947
O O1 0.433239 0.934598 0.750000
O O2 0.444406 0.880576 0.478803
O O3 0.367046 0.932382 0.520335
O O4 0.439491 0.000000 0.500000
O O5 0.667015 0.223406 0.750000
O O6 0.596345 0.215904 0.534293
O O7 0.663138 0.284535 0.478481
O O8 0.674274 0.165266 0.479355
O O9 0.959329 0.943519 0.597378
O O10 0.443943 0.185659 0.250000
O O11 0.500000 0.206579 0.996943
O O12 0.217070 0.930452 0.250000
O O13 0.271728 0.925930 0.987211
O O14 0.182790 0.891698 0.969684
O O15 0.203740 0.000000 0.000000
O O16 0.366918 0.664388 0.250000
O O17 0.404199 0.635192 0.537285
O O18 0.823120 0.600358 0.750000
O O19 0.051572 0.929908 0.250000
O O20 0.000000 0.868338 0.441506
#
# Coordination Sequence:
#
# PCOD9470178 Si02
#       8
#    16  16   4  16  16  16  16  16
#     4  10  19  31  51  76 104 145 192 239 287 338
#     4   9  20  36  57  82 111 149 186 230 287 343
#     4   8  14  32  52  82 118 152 196 244 276 338
#     4   9  19  35  51  74 111 147 187 236 284 334
#     4  11  24  40  60  85 112 145 187 236 291 349
#     4  11  21  37  58  85 121 154 191 238 288 344
#     4   9  19  38  58  80 111 145 188 235 284 348
#     4   9  17  31  54  83 116 156 196 236 283 339
#
# _framework density 21.986066000000001
#
# number of rings (size 3 to 8) (size 9 to 14) (size 15 to 20)
#    0.414    1.931    0.690    1.655    0.000    5.517 
#    0.000    2.759    0.000    0.414    0.000    0.000 
#    0.000    0.000    0.000    0.000    0.000    0.000 
#
# Total GULP energy -323045.157732 kJ/mol
# GULP energy per Si atom -5569.744099 kJ/mol
# Density = 2.193602 g / cm^3
# Si number density = 21.986066 Si / 1000 Ang^3
#
#
#
# Elastic Constant Matrix: (Units=GPa)
#
#
# Indices 1 2 3 4 5 6 
#
# 1 31.4032 4.1350 -15.0640 0.0000 0.0000 0.0000
# 2 4.1350 114.4776 0.3351 0.0000 0.0000 0.0000
# 3 -15.0640 0.3351 74.2466 0.0000 0.0000 0.0000
# 4 0.0000 0.0000 0.0000 17.6223 0.0000 0.0000
# 5 0.0000 0.0000 0.0000 0.0000 9.8165 0.0000
# 6 0.0000 0.0000 0.0000 0.0000 0.0000 21.1655
#
#
#
# Elastic Compliance Matrix: (Units=1/GPa)
#
#
# Indices 1 2 3 4 5 6 
#
# 1 0.035470 -0.001302 0.007203 0.000000 0.000000 0.000000
# 2 -0.001302 0.008783 -0.000304 0.000000 0.000000 0.000000
# 3 0.007203 -0.000304 0.014931 0.000000 0.000000 0.000000
# 4 0.000000 0.000000 0.000000 0.056746 0.000000 0.000000
# 5 0.000000 0.000000 0.000000 0.000000 0.101869 0.000000
# 6 0.000000 0.000000 0.000000 0.000000 0.000000 0.047247
#
#
# Mechanical properties :
#
#
# Convention : Reuss Voigt Hill
#
# Bulk Modulus (GPa) = 14.20904 22.10441 18.15673
# Shear Modulus (GPa) = 18.03010 25.10226 21.56618
#
# Velocity S-wave (km/s) = 2.86679 3.38262 3.13533
# Velocity P-wave (km/s) = 4.17550 5.03307 4.62421
#
# Compressibility (1/GPa) = 0.07037772
#
# Stress axis : x y z
#
# Youngs Moduli (GPa) = 28.19249 113.85290 66.97323
#
# Poissons Ratio (x) = 0.14827 -0.48238
# Poissons Ratio (y) = 0.03672 0.02035
# Poissons Ratio (z) = -0.20306 0.03460
#
# Static dielectric constant tensor:
#      x y z
#    x 1.779340 0.000000 0.000000 
#    y 0.000000 1.871450 0.000000 
#    z 0.000000 0.000000 1.824950 
# 
# From -- ./inp_files/14765.got.cif
#   From: 2010.05.17/outbox.cif.g08.bks.cpg/sg63_8_cif.got.tgz:14765.got - 2010.06.03 15:47:04.
