data_PCOD9470935
_publ_section_title
;
Structure prediction by ZEFSAII (Michael W. Deem and Ramdas Pophale) SiO2 
 PCOD9470935
Probable space group: C M C M
;
_chemical_formula_sum "Si O2"
_cell_formula_units_Z 96
_cell_length_a 8.936407
_cell_length_b 20.659431
_cell_length_c 28.351648
_cell_angle_alpha 90.000000
_cell_angle_beta 90.000000
_cell_angle_gamma 90.000000
_cell_volume 5234.311981
_symmetry_space_group_name_H-M "C M C M"
_symmetry_group_IT_number 63
_symmetry_cell_setting 'orthorhombic'
loop_
_space_group_symop_operation_xyz
x,y,z
-x,-y,1/2+z
x,-y,-z
-x,y,1/2-z
-x,-y,-z
x,y,1/2-z
-x,y,z
x,-y,1/2+z
1/2+x,1/2+y,z
1/2-x,1/2-y,1/2+z
1/2+x,1/2-y,-z
1/2-x,1/2+y,1/2-z
1/2-x,1/2-y,-z
1/2+x,1/2+y,1/2-z
1/2-x,1/2+y,z
1/2+x,1/2-y,1/2+z
loop_
_atom_site_type_symbol
_atom_site_label
_atom_site_fract_x
_atom_site_fract_y
_atom_site_fract_z
Si Si1 0.321758 0.195184 0.559262
Si Si2 0.320869 0.607253 0.132474
Si Si3 0.823102 0.719319 0.304738
Si Si4 0.821612 0.647978 0.837485
Si Si5 0.319999 0.485528 0.304071
Si Si6 0.677955 0.834956 0.545330
O O1 0.500000 0.210129 0.558524
O O2 0.290910 0.155362 0.606491
O O3 0.285961 0.159224 0.510253
O O4 0.234132 0.263016 0.559461
O O5 0.500000 0.610793 0.131415
O O6 0.257837 0.667685 0.162134
O O7 0.275725 0.542088 0.159802
O O8 0.256724 0.614737 0.079985
O O9 0.802282 0.701523 0.250000
O O10 0.754674 0.790023 0.313522
O O11 0.000000 0.720318 0.315121
O O12 0.756349 0.581829 0.817351
O O13 0.000000 0.650707 0.830389
O O14 0.282913 0.503483 0.250000
O O15 0.500000 0.478022 0.306752
O O16 0.500000 0.838822 0.551270
#
# Coordination Sequence:
#
# PCOD9470935 Si02
#       6
#    16  16  16  16  16  16
#     4   9  19  35  55  84 118 151 187 231 285 344
#     4  11  22  38  59  84 114 150 193 239 290 342
#     4  11  23  37  56  84 115 146 187 239 289 341
#     4  11  22  37  59  86 115 149 190 235 285 342
#     4  10  23  42  60  79 111 155 196 237 288 344
#     4  10  19  33  57  86 116 150 188 233 288 341
#
# _framework density 18.340520000000001
#
# number of rings (size 3 to 8) (size 9 to 14) (size 15 to 20)
#    0.000    1.667    1.667    3.000    0.000    7.000 
#    0.000    0.833    0.000    5.000    0.000    0.000 
#    0.000    0.000    0.000    0.000    0.000    0.000 
#
# Total GULP energy -268172.097422 kJ/mol
# GULP energy per Si atom -5586.918696 kJ/mol
# Density = 1.829878 g / cm^3
# Si number density = 18.340520 Si / 1000 Ang^3
#
#
#
# Elastic Constant Matrix: (Units=GPa)
#
#
# Indices 1 2 3 4 5 6 
#
# 1 28.8232 0.5977 15.0703 0.0000 0.0000 0.0000
# 2 0.5977 32.0135 -15.2667 0.0000 0.0000 0.0000
# 3 15.0703 -15.2667 52.3133 0.0000 0.0000 0.0000
# 4 0.0000 0.0000 0.0000 27.8497 0.0000 0.0000
# 5 0.0000 0.0000 0.0000 0.0000 32.0402 0.0000
# 6 0.0000 0.0000 0.0000 0.0000 0.0000 28.5642
#
#
#
# Elastic Compliance Matrix: (Units=1/GPa)
#
#
# Indices 1 2 3 4 5 6 
#
# 1 0.042416 -0.007689 -0.014463 0.000000 0.000000 0.000000
# 2 -0.007689 0.037681 0.013212 0.000000 0.000000 0.000000
# 3 -0.014463 0.013212 0.027138 0.000000 0.000000 0.000000
# 4 0.000000 0.000000 0.000000 0.035907 0.000000 0.000000
# 5 0.000000 0.000000 0.000000 0.000000 0.031211 0.000000
# 6 0.000000 0.000000 0.000000 0.000000 0.000000 0.035009
#
#
# Mechanical properties :
#
#
# Convention : Reuss Voigt Hill
#
# Bulk Modulus (GPa) = 11.19155 12.66138 11.92646
# Shear Modulus (GPa) = 19.45328 25.20739 22.33033
#
# Velocity S-wave (km/s) = 3.26033 3.71132 3.49311
# Velocity P-wave (km/s) = 4.50426 5.02829 4.77347
#
# Compressibility (1/GPa) = 0.08935315
#
# Stress axis : x y z
#
# Youngs Moduli (GPa) = 23.57618 26.53877 36.84924
#
# Poissons Ratio (x) = 0.20406 0.53295
# Poissons Ratio (y) = 0.18128 -0.48683
# Poissons Ratio (z) = 0.34098 -0.35062
#
# Static dielectric constant tensor:
#      x y z
#    x 1.612630 0.000000 0.000000 
#    y 0.000000 1.583020 0.000000 
#    z 0.000000 0.000000 1.660790 
# 
# From -- ./inp_files/67018.got.cif
#   From: 2010.05.17/outbox.cif.g08.bks.cpg/sg63_34_cif.got.tgz:67018.got - 2010.06.03 15:47:04.
