data_PCOD9470538
_publ_section_title
;
Structure prediction by ZEFSAII (Michael W. Deem and Ramdas Pophale) SiO2 
 PCOD9470538
Probable space group: C M C M
;
_chemical_formula_sum "Si O2"
_cell_formula_units_Z 112
_cell_length_a 29.942930
_cell_length_b 11.403802
_cell_length_c 15.113035
_cell_angle_alpha 90.000000
_cell_angle_beta 90.000000
_cell_angle_gamma 90.000000
_cell_volume 5160.545973
_symmetry_space_group_name_H-M "C M C M"
_symmetry_group_IT_number 63
_symmetry_cell_setting 'orthorhombic'
loop_
_space_group_symop_operation_xyz
x,y,z
-x,-y,1/2+z
x,-y,-z
-x,y,1/2-z
-x,-y,-z
x,y,1/2-z
-x,y,z
x,-y,1/2+z
1/2+x,1/2+y,z
1/2-x,1/2-y,1/2+z
1/2+x,1/2-y,-z
1/2-x,1/2+y,1/2-z
1/2-x,1/2-y,-z
1/2+x,1/2+y,1/2-z
1/2-x,1/2+y,z
1/2+x,1/2-y,1/2+z
loop_
_atom_site_type_symbol
_atom_site_label
_atom_site_fract_x
_atom_site_fract_y
_atom_site_fract_z
Si Si1 0.637722 0.071427 0.853808
Si Si2 0.551445 0.454837 0.600686
Si Si3 0.050177 0.310906 0.143793
Si Si4 0.334980 0.267476 0.506621
Si Si5 0.691600 0.557305 0.154160
Si Si6 0.286131 0.084276 0.083336
Si Si7 0.623401 0.358306 0.154679
O O1 0.643865 0.097024 0.750000
O O2 0.585027 0.084651 0.873746
O O3 0.657092 0.169318 0.919220
O O4 0.666361 0.957007 0.876723
O O5 0.551701 0.500000 0.500000
O O6 0.500000 0.462381 0.633365
O O7 0.564773 0.317947 0.609084
O O8 0.585604 0.541223 0.649180
O O9 0.048697 0.297905 0.250000
O O10 0.000000 0.333664 0.111197
O O11 0.326000 0.380725 0.565640
O O12 0.293680 0.216172 0.449970
O O13 0.374476 0.285280 0.435535
O O14 0.677277 0.609181 0.250000
O O15 0.744808 0.566017 0.147709
O O16 0.670391 0.428541 0.153101
O O17 0.276641 0.000000 0.000000
O O18 0.619208 0.296556 0.250000
#
# Coordination Sequence:
#
# PCOD9470538 Si02
#       7
#    16  16  16  16  16  16  16
#     4  10  20  36  59  84 111 145 188 237 285 331
#     4  10  19  32  53  81 113 148 186 233 287 340
#     4   9  17  30  52  82 111 140 180 230 279 327
#     4  11  22  38  57  80 114 150 187 230 276 333
#     4  11  22  37  59  85 112 144 184 229 280 336
#     4  10  22  38  56  79 111 149 188 234 284 334
#     4  11  23  36  54  81 115 154 188 226 278 334
#
# _framework density 21.703129000000001
#
# number of rings (size 3 to 8) (size 9 to 14) (size 15 to 20)
#    0.000    1.714    0.000    5.571    0.000    5.429 
#    0.000    2.857    0.000    4.714    0.000    2.000 
#    0.000    0.000    0.000    0.000    0.000    0.000 
#
# Total GULP energy -312396.203608 kJ/mol
# GULP energy per Si atom -5578.503636 kJ/mol
# Density = 2.165373 g / cm^3
# Si number density = 21.703129 Si / 1000 Ang^3
#
#
#
# Elastic Constant Matrix: (Units=GPa)
#
#
# Indices 1 2 3 4 5 6 
#
# 1 75.3991 9.4469 24.2130 0.0000 0.0000 0.0000
# 2 9.4469 22.2575 25.9038 0.0000 0.0000 0.0000
# 3 24.2130 25.9038 120.2448 0.0000 0.0000 0.0000
# 4 0.0000 0.0000 0.0000 19.6984 0.0000 0.0000
# 5 0.0000 0.0000 0.0000 0.0000 -55.4255 0.0000
# 6 0.0000 0.0000 0.0000 0.0000 0.0000 8.8636
#
#
#
# Elastic Compliance Matrix: (Units=1/GPa)
#
#
# Indices 1 2 3 4 5 6 
#
# 1 0.014399 -0.003653 -0.002112 0.000000 0.000000 0.000000
# 2 -0.003653 0.060889 -0.012381 0.000000 0.000000 0.000000
# 3 -0.002112 -0.012381 0.011409 0.000000 0.000000 0.000000
# 4 0.000000 0.000000 0.000000 0.050765 0.000000 0.000000
# 5 0.000000 0.000000 0.000000 0.000000 -0.018042 0.000000
# 6 0.000000 0.000000 0.000000 0.000000 0.000000 0.112822
#
#
# Mechanical properties :
#
#
# Convention : Reuss Voigt Hill
#
# Bulk Modulus (GPa) = 19.84003 37.44764 28.64383
# Shear Modulus (GPa) = 17.52320 5.18315 11.35317
#
# Velocity S-wave (km/s) = 2.84457 1.54706 2.28965
# Velocity P-wave (km/s) = 4.46656 4.52583 4.49629
#
# Compressibility (1/GPa) = 0.05040314
#
# Stress axis : x y z
#
# Youngs Moduli (GPa) = 69.45014 16.42336 87.64979
#
# Poissons Ratio (x) = 0.05999 0.18516
# Poissons Ratio (y) = 0.25369 1.08523
# Poissons Ratio (z) = 0.14671 0.20335
#
# Static dielectric constant tensor:
#      x y z
#    x 1.845510 0.000000 0.000000 
#    y 0.000000 1.787540 0.000000 
#    z 0.000000 0.000000 1.812840 
# 
# From -- ./inp_files/38588.got.cif
#   From: 2010.05.17/outbox.cif.g08.bks.cpg/sg63_20_cif.got.tgz:38588.got - 2010.06.03 15:47:04.
