data_PCOD9470774
_publ_section_title
;
Structure prediction by ZEFSAII (Michael W. Deem and Ramdas Pophale) SiO2 
 PCOD9470774
Probable space group: C M C M
;
_chemical_formula_sum "Si O2"
_cell_formula_units_Z 112
_cell_length_a 15.366243
_cell_length_b 14.343128
_cell_length_c 26.371585
_cell_angle_alpha 90.000000
_cell_angle_beta 90.000000
_cell_angle_gamma 90.000000
_cell_volume 5812.297076
_symmetry_space_group_name_H-M "C M C M"
_symmetry_group_IT_number 63
_symmetry_cell_setting 'orthorhombic'
loop_
_space_group_symop_operation_xyz
x,y,z
-x,-y,1/2+z
x,-y,-z
-x,y,1/2-z
-x,-y,-z
x,y,1/2-z
-x,y,z
x,-y,1/2+z
1/2+x,1/2+y,z
1/2-x,1/2-y,1/2+z
1/2+x,1/2-y,-z
1/2-x,1/2+y,1/2-z
1/2-x,1/2-y,-z
1/2+x,1/2+y,1/2-z
1/2-x,1/2+y,z
1/2+x,1/2-y,1/2+z
loop_
_atom_site_type_symbol
_atom_site_label
_atom_site_fract_x
_atom_site_fract_y
_atom_site_fract_z
Si Si1 0.124501 0.285963 0.692551
Si Si2 0.099889 0.567228 0.392798
Si Si3 0.673100 0.242630 0.692798
Si Si4 0.792025 0.381467 0.404486
Si Si5 0.599200 0.113966 0.000229
Si Si6 0.102388 0.056703 0.305532
Si Si7 0.400220 0.390160 0.122322
O O1 0.093019 0.290259 0.750000
O O2 0.102023 0.374575 0.658528
O O3 0.228350 0.278795 0.694884
O O4 0.095151 0.192999 0.663354
O O5 0.170909 0.485957 0.395190
O O6 0.117048 0.635720 0.440815
O O7 0.000000 0.531160 0.399737
O O8 0.651458 0.205859 0.750000
O O9 0.673666 0.173563 0.645191
O O10 0.617250 0.335139 0.683038
O O11 0.837431 0.349987 0.456856
O O12 0.687419 0.371812 0.410016
O O13 0.500000 0.140975 0.988701
O O14 0.604057 0.000000 0.000000
O O15 0.143140 0.037076 0.250000
O O16 0.000000 0.040792 0.301268
O O17 0.128573 0.984126 0.348137
O O18 0.500000 0.399753 0.101323
#
# Coordination Sequence:
#
# PCOD9470774 Si02
#       7
#    16  16  16  16  16  16  16
#     4  10  20  34  53  78 109 140 169 207 257 310
#     4  10  20  34  56  84 108 132 166 211 263 315
#     4   9  19  33  48  74 109 141 175 213 255 306
#     4  10  19  33  54  77 103 139 173 210 261 310
#     4   8  16  33  55  77 101 132 172 212 252 308
#     4   9  17  30  48  68  96 139 182 215 250 298
#     4  10  20  33  50  73 102 139 181 216 247 294
#
# _framework density 19.269489
#
# number of rings (size 3 to 8) (size 9 to 14) (size 15 to 20)
#    0.000    2.571    0.000    3.000    0.000    4.000 
#    0.000    2.857    0.000    3.857    0.000    4.000 
#    0.000    0.000    0.000    0.000    0.000    0.000 
#
# Total GULP energy -311755.243591 kJ/mol
# GULP energy per Si atom -5567.057921 kJ/mol
# Density = 1.922563 g / cm^3
# Si number density = 19.269489 Si / 1000 Ang^3
#
#
#
# Elastic Constant Matrix: (Units=GPa)
#
#
# Indices 1 2 3 4 5 6 
#
# 1 68.1786 8.6019 36.1909 0.0000 0.0000 0.0000
# 2 8.6019 22.9789 12.6330 0.0000 0.0000 0.0000
# 3 36.1909 12.6330 66.6917 0.0000 0.0000 0.0000
# 4 0.0000 0.0000 0.0000 8.6194 0.0000 0.0000
# 5 0.0000 0.0000 0.0000 0.0000 74.8800 0.0000
# 6 0.0000 0.0000 0.0000 0.0000 0.0000 5.6075
#
#
#
# Elastic Compliance Matrix: (Units=1/GPa)
#
#
# Indices 1 2 3 4 5 6 
#
# 1 0.020665 -0.001753 -0.010882 0.000000 0.000000 0.000000
# 2 -0.001753 0.048726 -0.008278 0.000000 0.000000 0.000000
# 3 -0.010882 -0.008278 0.022468 0.000000 0.000000 0.000000
# 4 0.000000 0.000000 0.000000 0.116017 0.000000 0.000000
# 5 0.000000 0.000000 0.000000 0.000000 0.013355 0.000000
# 6 0.000000 0.000000 0.000000 0.000000 0.000000 0.178334
#
#
# Mechanical properties :
#
#
# Convention : Reuss Voigt Hill
#
# Bulk Modulus (GPa) = 19.98750 30.30009 25.14379
# Shear Modulus (GPa) = 10.91541 24.51627 17.71584
#
# Velocity S-wave (km/s) = 2.38263 3.57078 3.03541
# Velocity P-wave (km/s) = 4.23844 5.72356 5.03604
#
# Compressibility (1/GPa) = 0.05003128
#
# Stress axis : x y z
#
# Youngs Moduli (GPa) = 48.39110 20.52303 44.50836
#
# Poissons Ratio (x) = 0.03598 0.48434
# Poissons Ratio (y) = 0.08484 0.36846
# Poissons Ratio (z) = 0.52659 0.16990
#
# Static dielectric constant tensor:
#      x y z
#    x 1.816530 0.000000 0.000000 
#    y 0.000000 1.673740 0.000000 
#    z 0.000000 0.000000 1.739630 
# 
# From -- ./inp_files/69375.got.cif
#   From: 2010.05.17/outbox.cif.g08.bks.cpg/sg63_35_cif.got.tgz:69375.got - 2010.06.03 15:47:04.
