data_PCOD9470119
_publ_section_title
;
Structure prediction by ZEFSAII (Michael W. Deem and Ramdas Pophale) SiO2 
 PCOD9470119
Probable space group: C M C M
;
_chemical_formula_sum "Si O2"
_cell_formula_units_Z 64
_cell_length_a 7.667093
_cell_length_b 26.458642
_cell_length_c 18.248403
_cell_angle_alpha 90.000000
_cell_angle_beta 90.000000
_cell_angle_gamma 90.000000
_cell_volume 3701.886888
_symmetry_space_group_name_H-M "C M C M"
_symmetry_group_IT_number 63
_symmetry_cell_setting 'orthorhombic'
loop_
_space_group_symop_operation_xyz
x,y,z
-x,-y,1/2+z
x,-y,-z
-x,y,1/2-z
-x,-y,-z
x,y,1/2-z
-x,y,z
x,-y,1/2+z
1/2+x,1/2+y,z
1/2-x,1/2-y,1/2+z
1/2+x,1/2-y,-z
1/2-x,1/2+y,1/2-z
1/2-x,1/2-y,-z
1/2+x,1/2+y,1/2-z
1/2-x,1/2+y,z
1/2+x,1/2-y,1/2+z
loop_
_atom_site_type_symbol
_atom_site_label
_atom_site_fract_x
_atom_site_fract_y
_atom_site_fract_z
Si Si1 0.000000 0.559105 0.014659
Si Si2 0.789178 0.298623 0.333758
Si Si3 0.302513 0.632436 0.532241
Si Si4 0.500000 0.890296 0.830630
Si Si5 0.793914 0.185272 0.119414
O O1 0.000000 0.571349 0.101472
O O2 0.000000 0.500000 0.000000
O O3 0.833569 0.587694 0.980302
O O4 0.732196 0.306296 0.250000
O O5 0.720219 0.339448 0.390895
O O6 0.742059 0.242100 0.359888
O O7 0.000000 0.301259 0.335643
O O8 0.500000 0.614136 0.523950
O O9 0.270874 0.673112 0.466868
O O10 0.500000 0.913471 0.750000
O O11 0.669072 0.854341 0.840230
O O12 0.000000 0.178890 0.137108
#
# Coordination Sequence:
#
# PCOD9470119 Si02
#       5
#     8  16  16   8  16
#     4  10  22  42  60  76 104 138 184 235 278 319
#     4  10  19  31  49  77 115 152 178 208 258 317
#     4  10  20  35  56  78 103 141 182 224 270 321
#     4  10  20  34  56  84 106 136 179 223 270 317
#     4   9  19  33  51  77 112 146 177 211 257 320
#
# _framework density 17.288481000000001
#
# number of rings (size 3 to 8) (size 9 to 14) (size 15 to 20)
#    0.000    2.250    1.250    1.500    1.750    2.500 
#    0.000    1.250    0.000    0.000    0.000    0.000 
#    0.000    0.000    0.000    0.000    0.000    0.000 
#
# Total GULP energy -178614.037914 kJ/mol
# GULP energy per Si atom -5581.688685 kJ/mol
# Density = 1.724913 g / cm^3
# Si number density = 17.288481 Si / 1000 Ang^3
#
#
#
# Elastic Constant Matrix: (Units=GPa)
#
#
# Indices 1 2 3 4 5 6 
#
# 1 76.2747 49.4813 50.6951 0.0000 0.0000 0.0000
# 2 49.4813 106.7488 74.2661 0.0000 0.0000 0.0000
# 3 50.6951 74.2661 133.6224 0.0000 0.0000 0.0000
# 4 0.0000 0.0000 0.0000 9.1032 0.0000 0.0000
# 5 0.0000 0.0000 0.0000 0.0000 -0.8952 0.0000
# 6 0.0000 0.0000 0.0000 0.0000 0.0000 5.6085
#
#
#
# Elastic Compliance Matrix: (Units=1/GPa)
#
#
# Indices 1 2 3 4 5 6 
#
# 1 0.019957 -0.006494 -0.003962 0.000000 0.000000 0.000000
# 2 -0.006494 0.017387 -0.007200 0.000000 0.000000 0.000000
# 3 -0.003962 -0.007200 0.012988 0.000000 0.000000 0.000000
# 4 0.000000 0.000000 0.000000 0.109852 0.000000 0.000000
# 5 0.000000 0.000000 0.000000 0.000000 -1.117059 0.000000
# 6 0.000000 0.000000 0.000000 0.000000 0.000000 0.178300
#
#
# Mechanical properties :
#
#
# Convention : Reuss Voigt Hill
#
# Bulk Modulus (GPa) = 66.57603 73.94789 70.26196
# Shear Modulus (GPa) = -6.77271 12.24353 2.73541
#
# Velocity S-wave (km/s) = -1.98141 2.66407 1.25923
# Velocity P-wave (km/s) = 5.77563 7.23387 6.54548
#
# Compressibility (1/GPa) = 0.01502042
#
# Stress axis : x y z
#
# Youngs Moduli (GPa) = 50.10851 57.51467 76.99159
#
# Poissons Ratio (x) = 0.37351 0.30504
# Poissons Ratio (y) = 0.32541 0.55431
# Poissons Ratio (z) = 0.19853 0.41409
#
# Static dielectric constant tensor:
#      x y z
#    x 1.617650 0.000000 0.000000 
#    y 0.000000 1.523480 0.000000 
#    z 0.000000 0.000000 1.601020 
# 
# From -- ./inp_files/27577.got.cif
#   From: 2010.05.17/outbox.cif.g08.bks.cpg/sg63_14_cif.got.tgz:27577.got - 2010.06.03 15:47:04.
