data_PCOD9470727
_publ_section_title
;
Structure prediction by ZEFSAII (Michael W. Deem and Ramdas Pophale) SiO2 
 PCOD9470727
Probable space group: C M C M
;
_chemical_formula_sum "Si O2"
_cell_formula_units_Z 80
_cell_length_a 27.096491
_cell_length_b 17.845853
_cell_length_c 8.068276
_cell_angle_alpha 90.000000
_cell_angle_beta 90.000000
_cell_angle_gamma 90.000000
_cell_volume 3901.495504
_symmetry_space_group_name_H-M "C M C M"
_symmetry_group_IT_number 63
_symmetry_cell_setting 'orthorhombic'
loop_
_space_group_symop_operation_xyz
x,y,z
-x,-y,1/2+z
x,-y,-z
-x,y,1/2-z
-x,-y,-z
x,y,1/2-z
-x,y,z
x,-y,1/2+z
1/2+x,1/2+y,z
1/2-x,1/2-y,1/2+z
1/2+x,1/2-y,-z
1/2-x,1/2+y,1/2-z
1/2-x,1/2-y,-z
1/2+x,1/2+y,1/2-z
1/2-x,1/2+y,z
1/2+x,1/2-y,1/2+z
loop_
_atom_site_type_symbol
_atom_site_label
_atom_site_fract_x
_atom_site_fract_y
_atom_site_fract_z
Si Si1 0.265913 0.920409 0.053332
Si Si2 0.446642 0.779191 0.054388
Si Si3 0.840629 0.876770 0.046539
Si Si4 0.946716 0.109155 0.943892
Si Si5 0.843258 0.297062 0.947030
O O1 0.262535 0.918706 0.250000
O O2 0.209901 0.913672 0.986697
O O3 0.299575 0.851098 0.000967
O O4 0.287493 0.000000 0.000000
O O5 0.445102 0.761612 0.250000
O O6 0.500000 0.815088 0.018762
O O7 0.445648 0.699936 0.958052
O O8 0.397114 0.822626 0.009435
O O9 0.842309 0.878829 0.250000
O O10 0.892780 0.911105 0.985657
O O11 0.837126 0.789147 0.995811
O O12 0.947534 0.088346 0.750000
O O13 0.000000 0.086004 0.018649
O O14 0.844281 0.295339 0.750000
#
# Coordination Sequence:
#
# PCOD9470727 Si02
#       5
#    16  16  16  16  16
#     4  11  22  36  51  69  97 131 167 206 249 295
#     4   9  16  26  43  71 104 132 157 190 236 287
#     4   8  16  30  50  75 100 127 162 203 244 289
#     4   8  13  24  44  70  98 126 158 198 243 288
#     4  10  19  33  53  76  99 126 164 205 246 290
#
# _framework density 20.504957000000001
#
# number of rings (size 3 to 8) (size 9 to 14) (size 15 to 20)
#    0.000    2.800    0.000    3.600    0.000    1.200 
#    0.000    9.000    0.000    1.200    0.000    0.000 
#    0.000    0.000    0.000    0.000    0.000    0.200 
#
# Total GULP energy -222922.598397 kJ/mol
# GULP energy per Si atom -5573.064960 kJ/mol
# Density = 2.045829 g / cm^3
# Si number density = 20.504957 Si / 1000 Ang^3
#
#
#
# Elastic Constant Matrix: (Units=GPa)
#
#
# Indices 1 2 3 4 5 6 
#
# 1 155.7872 46.1137 6.8650 0.0000 0.0000 0.0000
# 2 46.1137 67.4048 3.4880 0.0000 0.0000 0.0000
# 3 6.8650 3.4880 33.4817 0.0000 0.0000 0.0000
# 4 0.0000 0.0000 0.0000 0.3094 0.0000 0.0000
# 5 0.0000 0.0000 0.0000 0.0000 17.5110 0.0000
# 6 0.0000 0.0000 0.0000 0.0000 0.0000 -26.9591
#
#
#
# Elastic Compliance Matrix: (Units=1/GPa)
#
#
# Indices 1 2 3 4 5 6 
#
# 1 0.008088 -0.005477 -0.001088 0.000000 0.000000 0.000000
# 2 -0.005477 0.018625 -0.000817 0.000000 0.000000 0.000000
# 3 -0.001088 -0.000817 0.030175 0.000000 0.000000 0.000000
# 4 0.000000 0.000000 0.000000 3.231665 0.000000 0.000000
# 5 0.000000 0.000000 0.000000 0.000000 0.057107 0.000000
# 6 0.000000 0.000000 0.000000 0.000000 0.000000 -0.037093
#
#
# Mechanical properties :
#
#
# Convention : Reuss Voigt Hill
#
# Bulk Modulus (GPa) = 23.73934 41.06746 32.40340
# Shear Modulus (GPa) = 1.49818 11.51940 6.50879
#
# Velocity S-wave (km/s) = 0.85571 2.37277 1.78358
# Velocity P-wave (km/s) = 3.54666 5.25150 4.48091
#
# Compressibility (1/GPa) = 0.04212417
#
# Stress axis : x y z
#
# Youngs Moduli (GPa) = 123.63699 53.69098 33.13973
#
# Poissons Ratio (x) = 0.29407 0.03605
# Poissons Ratio (y) = 0.67717 0.02709
# Poissons Ratio (z) = 0.13449 0.04388
#
# Static dielectric constant tensor:
#      x y z
#    x 1.817990 0.000000 0.000000 
#    y 0.000000 1.665550 0.000000 
#    z 0.000000 0.000000 1.726550 
# 
# From -- ./inp_files/11959.got.cif
#   From: 2010.05.17/outbox.cif.g08.bks.cpg/sg63_6_cif.got.tgz:11959.got - 2010.06.03 15:47:04.
