data_PCOD9470848
_publ_section_title
;
Structure prediction by ZEFSAII (Michael W. Deem and Ramdas Pophale) SiO2 
 PCOD9470848
Probable space group: C M C M
;
_chemical_formula_sum "Si O2"
_cell_formula_units_Z 88
_cell_length_a 17.941736
_cell_length_b 22.371319
_cell_length_c 9.986931
_cell_angle_alpha 90.000000
_cell_angle_beta 90.000000
_cell_angle_gamma 90.000000
_cell_volume 4008.557356
_symmetry_space_group_name_H-M "C M C M"
_symmetry_group_IT_number 63
_symmetry_cell_setting 'orthorhombic'
loop_
_space_group_symop_operation_xyz
x,y,z
-x,-y,1/2+z
x,-y,-z
-x,y,1/2-z
-x,-y,-z
x,y,1/2-z
-x,y,z
x,-y,1/2+z
1/2+x,1/2+y,z
1/2-x,1/2-y,1/2+z
1/2+x,1/2-y,-z
1/2-x,1/2+y,1/2-z
1/2-x,1/2-y,-z
1/2+x,1/2+y,1/2-z
1/2-x,1/2+y,z
1/2+x,1/2-y,1/2+z
loop_
_atom_site_type_symbol
_atom_site_label
_atom_site_fract_x
_atom_site_fract_y
_atom_site_fract_z
Si Si1 0.832205 0.438734 0.911031
Si Si2 0.591364 0.462669 0.250000
Si Si3 0.585675 0.627296 0.967919
Si Si4 0.702552 0.166964 0.904137
Si Si5 0.853971 0.245340 0.605078
Si Si6 0.590799 0.398895 0.750000
Si Si7 0.500000 0.054353 0.399974
O O1 0.813976 0.445497 0.750000
O O2 0.919127 0.416224 0.916397
O O3 0.827361 0.500000 0.000000
O O4 0.788214 0.389125 0.996521
O O5 0.500000 0.461817 0.250000
O O6 0.619201 0.424641 0.123634
O O7 0.612022 0.531452 0.250000
O O8 0.500000 0.608325 0.983191
O O9 0.587259 0.692049 0.903412
O O10 0.619235 0.630610 0.115118
O O11 0.683399 0.150895 0.750000
O O12 0.777698 0.206405 0.898792
O O13 0.644625 0.210556 0.980111
O O14 0.857556 0.276514 0.750000
O O15 0.500000 0.394583 0.750000
O O16 0.500000 0.029383 0.250000
O O17 0.500000 0.000000 0.500000
#
# Coordination Sequence:
#
# PCOD9470848 Si02
#       7
#    16   8  16  16  16   8   8
#     4  10  19  36  61  89 120 150 184 228 281 334
#     4   9  16  30  52  75 104 144 185 215 272 332
#     4  10  19  33  55  81 110 144 180 232 283 323
#     4  10  22  39  60  81 107 149 192 229 274 334
#     4  10  21  39  59  79 107 146 192 232 276 334
#     4   9  18  30  48  77 112 146 179 219 268 334
#     4   8  16  30  54  84 114 148 178 216 271 334
#
# _framework density 21.953036000000001
#
# number of rings (size 3 to 8) (size 9 to 14) (size 15 to 20)
#    0.000    2.364    0.909    1.636    1.273    3.636 
#    1.636    1.818    0.000    0.000    0.000    0.000 
#    0.000    0.000    0.000    0.000    0.000    0.000 
#
# Total GULP energy -245098.444631 kJ/mol
# GULP energy per Si atom -5570.419196 kJ/mol
# Density = 2.190307 g / cm^3
# Si number density = 21.953036 Si / 1000 Ang^3
#
#
#
# Elastic Constant Matrix: (Units=GPa)
#
#
# Indices 1 2 3 4 5 6 
#
# 1 22.8511 -4.2153 26.0728 0.0000 0.0000 0.0000
# 2 -4.2153 62.7759 47.8401 0.0000 0.0000 0.0000
# 3 26.0728 47.8401 194.3532 0.0000 0.0000 0.0000
# 4 0.0000 0.0000 0.0000 37.0753 0.0000 0.0000
# 5 0.0000 0.0000 0.0000 0.0000 12.8023 0.0000
# 6 0.0000 0.0000 0.0000 0.0000 0.0000 -0.0452
#
#
#
# Elastic Compliance Matrix: (Units=1/GPa)
#
#
# Indices 1 2 3 4 5 6 
#
# 1 0.058355 0.012167 -0.010823 0.000000 0.000000 0.000000
# 2 0.012167 0.022145 -0.007083 0.000000 0.000000 0.000000
# 3 -0.010823 -0.007083 0.008341 0.000000 0.000000 0.000000
# 4 0.000000 0.000000 0.000000 0.026972 0.000000 0.000000
# 5 0.000000 0.000000 0.000000 0.000000 0.078111 0.000000
# 6 0.000000 0.000000 0.000000 0.000000 0.000000-22.119955
#
#
# Mechanical properties :
#
#
# Convention : Reuss Voigt Hill
#
# Bulk Modulus (GPa) = 12.92638 46.59726 29.76182
# Shear Modulus (GPa) = -0.22843 23.98532 11.87844
#
# Velocity S-wave (km/s) = -0.32292 3.30900 2.32865
# Velocity P-wave (km/s) = 2.40040 5.98926 4.56252
#
# Compressibility (1/GPa) = 0.07736118
#
# Stress axis : x y z
#
# Youngs Moduli (GPa) = 17.13642 45.15790 119.89349
#
# Poissons Ratio (x) = -0.54942 1.29764
# Poissons Ratio (y) = -0.20849 0.84921
# Poissons Ratio (z) = 0.18547 0.31986
#
# Static dielectric constant tensor:
#      x y z
#    x 1.908540 0.000000 0.000000 
#    y 0.000000 1.769440 0.000000 
#    z 0.000000 0.000000 1.876810 
# 
# From -- ./inp_files/8266.got.cif
#   From: 2010.05.17/outbox.cif.g08.bks.cpg/sg63_5_cif.got.tgz:8266.got - 2010.06.03 15:47:04.
