data_PCOD9470255
_publ_section_title
;
Structure prediction by ZEFSAII (Michael W. Deem and Ramdas Pophale) SiO2 
 PCOD9470255
Probable space group: C M C M
;
_chemical_formula_sum "Si O2"
_cell_formula_units_Z 116
_cell_length_a 14.294245
_cell_length_b 14.709329
_cell_length_c 23.517581
_cell_angle_alpha 90.000000
_cell_angle_beta 90.000000
_cell_angle_gamma 90.000000
_cell_volume 4944.777243
_symmetry_space_group_name_H-M "C M C M"
_symmetry_group_IT_number 63
_symmetry_cell_setting 'orthorhombic'
loop_
_space_group_symop_operation_xyz
x,y,z
-x,-y,1/2+z
x,-y,-z
-x,y,1/2-z
-x,-y,-z
x,y,1/2-z
-x,y,z
x,-y,1/2+z
1/2+x,1/2+y,z
1/2-x,1/2-y,1/2+z
1/2+x,1/2-y,-z
1/2-x,1/2+y,1/2-z
1/2-x,1/2-y,-z
1/2+x,1/2+y,1/2-z
1/2-x,1/2+y,z
1/2+x,1/2-y,1/2+z
loop_
_atom_site_type_symbol
_atom_site_label
_atom_site_fract_x
_atom_site_fract_y
_atom_site_fract_z
Si Si1 0.849562 0.411934 0.621764
Si Si2 0.000000 0.007288 0.250000
Si Si3 0.635756 0.614151 0.915748
Si Si4 0.138601 0.750099 0.815403
Si Si5 0.863330 0.609496 0.907512
Si Si6 0.632442 0.556234 0.355086
Si Si7 0.865422 0.754869 0.312886
Si Si8 0.144381 0.276606 0.985887
O O1 0.892418 0.505435 0.599388
O O2 0.746065 0.439808 0.644628
O O3 0.894220 0.347106 0.669500
O O4 0.847978 0.343434 0.568201
O O5 0.917780 0.014979 0.200062
O O6 0.749670 0.611207 0.915288
O O7 0.607087 0.509742 0.907490
O O8 0.607503 0.671004 0.859471
O O9 0.603389 0.679276 0.966631
O O10 0.106746 0.757428 0.750000
O O11 0.111344 0.661153 0.849669
O O12 0.107681 0.837459 0.851816
O O13 0.251890 0.748579 0.813691
O O14 0.896698 0.667403 0.961630
O O15 0.896008 0.780499 0.250000
O O16 0.250000 0.250000 0.000000
#
# Coordination Sequence:
#
# PCOD9470255 Si02
#       8
#    16   4  16  16  16  16  16  16
#     4   9  17  27  42  67 101 130 152 188 234 288
#     4  12  24  32  48  64  86 126 192 228 234 290
#     4   8  16  26  40  61  87 119 154 194 233 284
#     4   9  16  28  41  61  93 127 158 194 233 285
#     4   9  16  26  43  69  94 125 154 183 227 298
#     4  10  19  32  43  63  89 126 169 207 250 264
#     4   8  14  22  37  58  86 122 150 170 223 297
#     4   9  15  27  44  70  96 126 161 180 221 303
#
# _framework density 23.459094
#
# number of rings (size 3 to 8) (size 9 to 14) (size 15 to 20)
#    0.000    3.034    0.690    2.897    1.931    0.552 
#    2.483    2.069    0.000    0.000    0.000   30.897 
#    0.000    8.828    0.000   11.586    0.000    1.379 
#
# Total GULP energy -322880.382808 kJ/mol
# GULP energy per Si atom -5566.903152 kJ/mol
# Density = 2.340570 g / cm^3
# Si number density = 23.459094 Si / 1000 Ang^3
#
#
#
# Elastic Constant Matrix: (Units=GPa)
#
#
# Indices 1 2 3 4 5 6 
#
# 1 127.4164 -2.2026 -0.1168 0.0000 0.0000 0.0000
# 2 -2.2026 125.7397 15.0989 0.0000 0.0000 0.0000
# 3 -0.1168 15.0989 54.6760 0.0000 0.0000 0.0000
# 4 0.0000 0.0000 0.0000 23.2879 0.0000 0.0000
# 5 0.0000 0.0000 0.0000 0.0000 -82.4569 0.0000
# 6 0.0000 0.0000 0.0000 0.0000 0.0000 7.4900
#
#
#
# Elastic Compliance Matrix: (Units=1/GPa)
#
#
# Indices 1 2 3 4 5 6 
#
# 1 0.007851 0.000140 -0.000022 0.000000 0.000000 0.000000
# 2 0.000140 0.008228 -0.002272 0.000000 0.000000 0.000000
# 3 -0.000022 -0.002272 0.018917 0.000000 0.000000 0.000000
# 4 0.000000 0.000000 0.000000 0.042941 0.000000 0.000000
# 5 0.000000 0.000000 0.000000 0.000000 -0.012128 0.000000
# 6 0.000000 0.000000 0.000000 0.000000 0.000000 0.133511
#
#
# Mechanical properties :
#
#
# Convention : Reuss Voigt Hill
#
# Bulk Modulus (GPa) = 32.58563 37.04345 34.81454
# Shear Modulus (GPa) = 23.38013 9.33438 16.35725
#
# Velocity S-wave (km/s) = 3.16038 1.99691 2.64345
# Velocity P-wave (km/s) = 5.21899 4.59802 4.91832
#
# Compressibility (1/GPa) = 0.03068837
#
# Stress axis : x y z
#
# Youngs Moduli (GPa) = 127.37737 121.53318 52.86277
#
# Poissons Ratio (x) = -0.01703 0.00116
# Poissons Ratio (y) = -0.01785 0.12010
# Poissons Ratio (z) = 0.00279 0.27612
#
# Static dielectric constant tensor:
#      x y z
#    x 1.910010 0.000000 0.000000 
#    y 0.000000 1.931070 0.000000 
#    z 0.000000 0.000000 1.865990 
# 
# From -- ./inp_files/63930.got.cif
#   From: 2010.05.17/outbox.cif.g08.bks.cpg/sg63_32_cif.got.tgz:63930.got - 2010.06.03 15:47:04.
