data_PCOD9470385
_publ_section_title
;
Structure prediction by ZEFSAII (Michael W. Deem and Ramdas Pophale) SiO2 
 PCOD9470385
Probable space group: C M C M
;
_chemical_formula_sum "Si O2"
_cell_formula_units_Z 96
_cell_length_a 8.570413
_cell_length_b 23.988759
_cell_length_c 26.566369
_cell_angle_alpha 90.000000
_cell_angle_beta 90.000000
_cell_angle_gamma 90.000000
_cell_volume 5461.874697
_symmetry_space_group_name_H-M "C M C M"
_symmetry_group_IT_number 63
_symmetry_cell_setting 'orthorhombic'
loop_
_space_group_symop_operation_xyz
x,y,z
-x,-y,1/2+z
x,-y,-z
-x,y,1/2-z
-x,-y,-z
x,y,1/2-z
-x,y,z
x,-y,1/2+z
1/2+x,1/2+y,z
1/2-x,1/2-y,1/2+z
1/2+x,1/2-y,-z
1/2-x,1/2+y,1/2-z
1/2-x,1/2-y,-z
1/2+x,1/2+y,1/2-z
1/2-x,1/2+y,z
1/2+x,1/2-y,1/2+z
loop_
_atom_site_type_symbol
_atom_site_label
_atom_site_fract_x
_atom_site_fract_y
_atom_site_fract_z
Si Si1 0.814069 0.729629 0.554355
Si Si2 0.314792 0.606481 0.570439
Si Si3 0.186101 0.908692 0.691228
Si Si4 0.317569 0.570659 0.041419
Si Si5 0.815193 0.332619 0.894583
Si Si6 0.817278 0.506002 0.625313
O O1 0.750000 0.750000 0.500000
O O2 0.767426 0.665984 0.565222
O O3 0.738379 0.769727 0.596376
O O4 0.000000 0.735490 0.554138
O O5 0.500000 0.614872 0.574878
O O6 0.287521 0.574145 0.517591
O O7 0.253457 0.566653 0.614613
O O8 0.224673 0.905419 0.750000
O O9 0.270402 0.861125 0.658241
O O10 0.000000 0.902361 0.684904
O O11 0.235961 0.968179 0.667792
O O12 0.500000 0.556516 0.049592
O O13 0.279782 0.631197 0.064354
O O14 0.213531 0.529466 0.074313
O O15 0.000000 0.338165 0.903219
O O16 0.000000 0.509578 0.635348
#
# Coordination Sequence:
#
# PCOD9470385 Si02
#       6
#    16  16  16  16  16  16
#     4  12  23  36  54  78 112 152 193 230 270 325
#     4  11  22  35  52  75 109 151 190 226 268 322
#     4  10  21  39  63  86 109 140 181 232 285 333
#     4  10  19  32  51  74 107 147 186 227 267 317
#     4  11  21  34  55  82 113 146 185 231 276 327
#     4  11  22  34  52  79 111 143 181 228 276 332
#
# _framework density 17.576381999999999
#
# number of rings (size 3 to 8) (size 9 to 14) (size 15 to 20)
#    0.000    1.167    1.667    8.500    0.000    5.333 
#    0.000    0.000    0.000    1.000    0.000    0.000 
#    0.000    0.000    0.000    0.000    0.000    0.000 
#
# Total GULP energy -268179.242793 kJ/mol
# GULP energy per Si atom -5587.067558 kJ/mol
# Density = 1.753638 g / cm^3
# Si number density = 17.576382 Si / 1000 Ang^3
#
#
#
# Elastic Constant Matrix: (Units=GPa)
#
#
# Indices 1 2 3 4 5 6 
#
# 1 59.1081 7.7400 27.0335 0.0000 0.0000 0.0000
# 2 7.7400 70.0253 24.7984 0.0000 0.0000 0.0000
# 3 27.0335 24.7984 77.9859 0.0000 0.0000 0.0000
# 4 0.0000 0.0000 0.0000 11.0556 0.0000 0.0000
# 5 0.0000 0.0000 0.0000 0.0000 12.7836 0.0000
# 6 0.0000 0.0000 0.0000 0.0000 0.0000 31.1132
#
#
#
# Elastic Compliance Matrix: (Units=1/GPa)
#
#
# Indices 1 2 3 4 5 6 
#
# 1 0.020111 0.000277 -0.007059 0.000000 0.000000 0.000000
# 2 0.000277 0.016097 -0.005215 0.000000 0.000000 0.000000
# 3 -0.007059 -0.005215 0.016928 0.000000 0.000000 0.000000
# 4 0.000000 0.000000 0.000000 0.090452 0.000000 0.000000
# 5 0.000000 0.000000 0.000000 0.000000 0.078225 0.000000
# 6 0.000000 0.000000 0.000000 0.000000 0.000000 0.032141
#
#
# Mechanical properties :
#
#
# Convention : Reuss Voigt Hill
#
# Bulk Modulus (GPa) = 34.31520 36.25146 35.28333
# Shear Modulus (GPa) = 17.38158 20.82695 19.10426
#
# Velocity S-wave (km/s) = 3.14812 3.44603 3.30044
# Velocity P-wave (km/s) = 5.72538 6.04180 5.88572
#
# Compressibility (1/GPa) = 0.02914161
#
# Stress axis : x y z
#
# Youngs Moduli (GPa) = 49.72520 62.12506 59.07344
#
# Poissons Ratio (x) = -0.01722 0.41702
# Poissons Ratio (y) = -0.01378 0.30804
# Poissons Ratio (z) = 0.35103 0.32395
#
# Static dielectric constant tensor:
#      x y z
#    x 1.582370 0.000000 0.000000 
#    y 0.000000 1.618070 0.000000 
#    z 0.000000 0.000000 1.586280 
# 
# From -- ./inp_files/67259.got.cif
#   From: 2010.05.17/outbox.cif.g08.bks.cpg/sg63_34_cif.got.tgz:67259.got - 2010.06.03 15:47:04.
