data_PCOD9470562
_publ_section_title
;
Structure prediction by ZEFSAII (Michael W. Deem and Ramdas Pophale) SiO2 
 PCOD9470562
Probable space group: C M C M
;
_chemical_formula_sum "Si O2"
_cell_formula_units_Z 116
_cell_length_a 7.538458
_cell_length_b 25.409209
_cell_length_c 31.301234
_cell_angle_alpha 90.000000
_cell_angle_beta 90.000000
_cell_angle_gamma 90.000000
_cell_volume 5995.634145
_symmetry_space_group_name_H-M "C M C M"
_symmetry_group_IT_number 63
_symmetry_cell_setting 'orthorhombic'
loop_
_space_group_symop_operation_xyz
x,y,z
-x,-y,1/2+z
x,-y,-z
-x,y,1/2-z
-x,-y,-z
x,y,1/2-z
-x,y,z
x,-y,1/2+z
1/2+x,1/2+y,z
1/2-x,1/2-y,1/2+z
1/2+x,1/2-y,-z
1/2-x,1/2+y,1/2-z
1/2-x,1/2-y,-z
1/2+x,1/2+y,1/2-z
1/2-x,1/2+y,z
1/2+x,1/2-y,1/2+z
loop_
_atom_site_type_symbol
_atom_site_label
_atom_site_fract_x
_atom_site_fract_y
_atom_site_fract_z
Si Si1 0.294507 0.243716 0.813658
Si Si2 0.714792 0.664704 0.951165
Si Si3 0.712563 0.770588 0.589687
Si Si4 0.000000 0.281901 0.750000
Si Si5 0.284127 0.878537 0.297719
Si Si6 0.791510 0.876970 0.957666
Si Si7 0.294892 0.006763 0.452408
Si Si8 0.208309 0.425040 0.115500
O O1 0.500000 0.249089 0.800273
O O2 0.282806 0.256995 0.863564
O O3 0.239602 0.182696 0.805917
O O4 0.156632 0.277914 0.786994
O O5 0.500000 0.664039 0.952159
O O6 0.772893 0.724456 0.942671
O O7 0.774246 0.628264 0.912018
O O8 0.779046 0.640226 0.995689
O O9 0.500000 0.768470 0.591472
O O10 0.765850 0.827723 0.573262
O O11 0.224677 0.893298 0.250000
O O12 0.500000 0.880715 0.298106
O O13 0.217910 0.913421 0.337342
O O14 0.709763 0.931602 0.942341
O O15 0.000000 0.887255 0.962159
O O16 0.500000 0.989043 0.456209
O O17 0.215409 0.000000 0.500000
O O18 0.215208 0.970721 0.415006
O O19 0.000000 0.436929 0.121796
#
# Coordination Sequence:
#
# PCOD9470562 Si02
#       8
#    16  16  16   4  16  16  16  16
#     4  11  21  35  57  86 120 155 195 239 290 359
#     4  10  21  34  52  79 114 151 188 234 288 350
#     4  11  22  37  55  82 117 153 193 239 296 357
#     4  12  22  36  56  86 120 160 194 240 296 350
#     4   9  17  31  52  80 111 144 180 230 288 350
#     4  11  23  37  54  78 110 154 199 242 290 348
#     4  10  20  35  55  79 106 144 194 242 290 344
#     4  10  19  32  54  80 109 145 185 231 291 351
#
# _framework density 19.34741
#
# number of rings (size 3 to 8) (size 9 to 14) (size 15 to 20)
#    0.000    1.655    4.138    1.448    0.000    1.931 
#    0.000    0.000    0.000    0.000    1.793    0.000 
#    0.000    0.000    0.000    0.000    0.000    0.000 
#
# Total GULP energy -323358.546450 kJ/mol
# GULP energy per Si atom -5575.147353 kJ/mol
# Density = 1.930337 g / cm^3
# Si number density = 19.347410 Si / 1000 Ang^3
#
#
#
# Elastic Constant Matrix: (Units=GPa)
#
#
# Indices 1 2 3 4 5 6 
#
# 1 67.5173 -10.0654 -0.5691 0.0000 0.0000 0.0000
# 2 -10.0654 98.0356 45.4176 0.0000 0.0000 0.0000
# 3 -0.5691 45.4176 139.5324 0.0000 0.0000 0.0000
# 4 0.0000 0.0000 0.0000 -5.6057 0.0000 0.0000
# 5 0.0000 0.0000 0.0000 0.0000 3.8988 0.0000
# 6 0.0000 0.0000 0.0000 0.0000 0.0000 7.5527
#
#
#
# Elastic Compliance Matrix: (Units=1/GPa)
#
#
# Indices 1 2 3 4 5 6 
#
# 1 0.015073 0.001789 -0.000521 0.000000 0.000000 0.000000
# 2 0.001789 0.012224 -0.003972 0.000000 0.000000 0.000000
# 3 -0.000521 -0.003972 0.008457 0.000000 0.000000 0.000000
# 4 0.000000 0.000000 0.000000 -0.178391 0.000000 0.000000
# 5 0.000000 0.000000 0.000000 0.000000 0.256488 0.000000
# 6 0.000000 0.000000 0.000000 0.000000 0.000000 0.132403
#
#
# Mechanical properties :
#
#
# Convention : Reuss Voigt Hill
#
# Bulk Modulus (GPa) = 32.95146 41.62794 37.28970
# Shear Modulus (GPa) = 19.10018 19.18931 19.14475
#
# Velocity S-wave (km/s) = 3.14542 3.15275 3.14908
# Velocity P-wave (km/s) = 5.50091 5.90049 5.70420
#
# Compressibility (1/GPa) = 0.03034767
#
# Stress axis : x y z
#
# Youngs Moduli (GPa) = 66.34239 81.80638 118.23945
#
# Poissons Ratio (x) = -0.14634 0.06158
# Poissons Ratio (y) = -0.11868 0.46960
# Poissons Ratio (z) = 0.03455 0.32490
#
# Static dielectric constant tensor:
#      x y z
#    x 1.718510 0.000000 0.000000 
#    y 0.000000 1.657970 0.000000 
#    z 0.000000 0.000000 1.695620 
# 
# From -- ./inp_files/72093.got.cif
#   From: 2010.05.17/outbox.cif.g08.bks.cpg/sg63_37_cif.got.tgz:72093.got - 2010.06.03 15:47:04.
