data_PCOD9470152
_publ_section_title
;
Structure prediction by ZEFSAII (Michael W. Deem and Ramdas Pophale) SiO2 
 PCOD9470152
Probable space group: C M C M
;
_chemical_formula_sum "Si O2"
_cell_formula_units_Z 88
_cell_length_a 19.001778
_cell_length_b 29.314514
_cell_length_c 7.542412
_cell_angle_alpha 90.000000
_cell_angle_beta 90.000000
_cell_angle_gamma 90.000000
_cell_volume 4201.333821
_symmetry_space_group_name_H-M "C M C M"
_symmetry_group_IT_number 63
_symmetry_cell_setting 'orthorhombic'
loop_
_space_group_symop_operation_xyz
x,y,z
-x,-y,1/2+z
x,-y,-z
-x,y,1/2-z
-x,-y,-z
x,y,1/2-z
-x,y,z
x,-y,1/2+z
1/2+x,1/2+y,z
1/2-x,1/2-y,1/2+z
1/2+x,1/2-y,-z
1/2-x,1/2+y,1/2-z
1/2-x,1/2-y,-z
1/2+x,1/2+y,1/2-z
1/2-x,1/2+y,z
1/2+x,1/2-y,1/2+z
loop_
_atom_site_type_symbol
_atom_site_label
_atom_site_fract_x
_atom_site_fract_y
_atom_site_fract_z
Si Si1 0.865716 0.888956 0.962406
Si Si2 0.500000 0.446357 0.537133
Si Si3 0.419266 0.291501 0.966760
Si Si4 0.185033 0.716824 0.962208
Si Si5 0.578252 0.053417 0.962767
Si Si6 0.707015 0.114336 0.537100
O O1 0.872250 0.887758 0.750000
O O2 0.878580 0.837046 0.026437
O O3 0.928934 0.921258 0.028783
O O4 0.785885 0.903005 0.001046
O O5 0.500000 0.500000 0.500000
O O6 0.500000 0.441164 0.750000
O O7 0.417590 0.291460 0.750000
O O8 0.500000 0.294917 0.020683
O O9 0.382414 0.245071 0.027457
O O10 0.178257 0.712692 0.750000
O O11 0.198025 0.666089 0.032196
O O12 0.250000 0.750000 0.000000
O O13 0.576628 0.058901 0.750000
O O14 0.500000 0.066345 0.029588
O O15 0.643647 0.082854 0.030842
O O16 0.588605 0.000000 0.000000
O O17 0.700939 0.115861 0.750000
#
# Coordination Sequence:
#
# PCOD9470152 Si02
#       6
#    16   8  16  16  16  16
#     4  10  19  34  55  76 100 138 181 219 259 312
#     4  10  22  38  56  78 106 138 182 230 271 316
#     4   9  16  29  51  75  98 131 177 215 245 295
#     4  10  19  31  50  76 105 137 170 208 255 303
#     4   9  19  37  58  78 105 138 173 215 264 317
#     4  10  21  34  52  82 113 137 170 220 270 314
#
# _framework density 20.945729
#
# number of rings (size 3 to 8) (size 9 to 14) (size 15 to 20)
#    0.000    2.364    2.727    0.000    0.000    2.909 
#    0.000    7.273    0.000    1.636    0.000    2.545 
#    0.000    0.000    0.000    0.000    0.000    0.000 
#
# Total GULP energy -245587.363878 kJ/mol
# GULP energy per Si atom -5581.530997 kJ/mol
# Density = 2.089806 g / cm^3
# Si number density = 20.945729 Si / 1000 Ang^3
#
#
#
# Elastic Constant Matrix: (Units=GPa)
#
#
# Indices 1 2 3 4 5 6 
#
# 1 208.3609 104.0674 2.5158 0.0000 0.0000 0.0000
# 2 104.0674 123.7365 3.8667 0.0000 0.0000 0.0000
# 3 2.5158 3.8667 52.6617 0.0000 0.0000 0.0000
# 4 0.0000 0.0000 0.0000 13.1060 0.0000 0.0000
# 5 0.0000 0.0000 0.0000 0.0000 5.8575 0.0000
# 6 0.0000 0.0000 0.0000 0.0000 0.0000 40.9360
#
#
#
# Elastic Compliance Matrix: (Units=1/GPa)
#
#
# Indices 1 2 3 4 5 6 
#
# 1 0.008276 -0.006964 0.000116 0.000000 0.000000 0.000000
# 2 -0.006964 0.013961 -0.000692 0.000000 0.000000 0.000000
# 3 0.000116 -0.000692 0.019034 0.000000 0.000000 0.000000
# 4 0.000000 0.000000 0.000000 0.076301 0.000000 0.000000
# 5 0.000000 0.000000 0.000000 0.000000 0.170722 0.000000
# 6 0.000000 0.000000 0.000000 0.000000 0.000000 0.024428
#
#
# Mechanical properties :
#
#
# Convention : Reuss Voigt Hill
#
# Bulk Modulus (GPa) = 38.18263 67.29545 52.73904
# Shear Modulus (GPa) = 14.85733 30.26717 22.56225
#
# Velocity S-wave (km/s) = 2.66620 3.80548 3.28560
# Velocity P-wave (km/s) = 5.26755 7.17684 6.29501
#
# Compressibility (1/GPa) = 0.02618992
#
# Stress axis : x y z
#
# Youngs Moduli (GPa) = 120.82570 71.62980 52.53637
#
# Poissons Ratio (x) = 0.49886 -0.00609
# Poissons Ratio (y) = 0.84148 0.03637
# Poissons Ratio (z) = -0.01401 0.04959
#
# Static dielectric constant tensor:
#      x y z
#    x 1.753770 0.000000 0.000000 
#    y 0.000000 1.728200 0.000000 
#    z 0.000000 0.000000 1.803620 
# 
# From -- ./inp_files/6911.got.cif
#   From: 2010.05.17/outbox.cif.g08.bks.cpg/sg63_4_cif.got.tgz:6911.got - 2010.06.03 15:47:04.
