data_PCOD9470089
_publ_section_title
;
Structure prediction by ZEFSAII (Michael W. Deem and Ramdas Pophale) SiO2 
 PCOD9470089
Probable space group: C M C M
;
_chemical_formula_sum "Si O2"
_cell_formula_units_Z 80
_cell_length_a 8.879329
_cell_length_b 26.093796
_cell_length_c 21.259728
_cell_angle_alpha 90.000000
_cell_angle_beta 90.000000
_cell_angle_gamma 90.000000
_cell_volume 4925.781173
_symmetry_space_group_name_H-M "C M C M"
_symmetry_group_IT_number 63
_symmetry_cell_setting 'orthorhombic'
loop_
_space_group_symop_operation_xyz
x,y,z
-x,-y,1/2+z
x,-y,-z
-x,y,1/2-z
-x,-y,-z
x,y,1/2-z
-x,y,z
x,-y,1/2+z
1/2+x,1/2+y,z
1/2-x,1/2-y,1/2+z
1/2+x,1/2-y,-z
1/2-x,1/2+y,1/2-z
1/2-x,1/2-y,-z
1/2+x,1/2+y,1/2-z
1/2-x,1/2+y,z
1/2+x,1/2-y,1/2+z
loop_
_atom_site_type_symbol
_atom_site_label
_atom_site_fract_x
_atom_site_fract_y
_atom_site_fract_z
Si Si1 0.680475 0.815941 0.443754
Si Si2 0.182123 0.460556 0.909062
Si Si3 0.819718 0.125258 0.176958
Si Si4 0.817262 0.429395 0.448529
Si Si5 0.178770 0.288497 0.910222
O O1 0.500000 0.812033 0.434671
O O2 0.732688 0.873298 0.426871
O O3 0.760344 0.769435 0.408358
O O4 0.709010 0.808254 0.518498
O O5 0.254854 0.425344 0.856486
O O6 0.228745 0.520318 0.909759
O O7 0.000000 0.457855 0.904237
O O8 0.223424 0.438882 0.978376
O O9 0.775205 0.127475 0.250000
O O10 0.757141 0.173847 0.138726
O O11 0.000000 0.124837 0.173047
O O12 0.000000 0.428767 0.447669
O O13 0.000000 0.289846 0.900915
#
# Coordination Sequence:
#
# PCOD9470089 Si02
#       5
#    16  16  16  16  16
#     4   9  16  29  49  74 104 131 154 195 250 297
#     4   9  16  30  51  74  98 127 165 201 238 289
#     4  11  23  36  49  68  99 135 168 206 248 289
#     4   8  14  27  50  76 102 128 155 196 245 292
#     4  10  19  31  49  73  98 129 167 203 243 292
#
# _framework density 16.241078999999999
#
# number of rings (size 3 to 8) (size 9 to 14) (size 15 to 20)
#    0.000    2.600    2.000    2.400    0.000    2.400 
#    0.000    3.000    0.000    1.200    0.000    2.800 
#    0.000    0.000    0.000    0.000    0.000    0.000 
#
# Total GULP energy -222932.694330 kJ/mol
# GULP energy per Si atom -5573.317358 kJ/mol
# Density = 1.620411 g / cm^3
# Si number density = 16.241079 Si / 1000 Ang^3
#
#
#
# Elastic Constant Matrix: (Units=GPa)
#
#
# Indices 1 2 3 4 5 6 
#
# 1 28.3724 43.8335 39.1916 0.0000 0.0000 0.0000
# 2 43.8335 179.4192 63.9155 0.0000 0.0000 0.0000
# 3 39.1916 63.9155 83.1906 0.0000 0.0000 0.0000
# 4 0.0000 0.0000 0.0000 15.7782 0.0000 0.0000
# 5 0.0000 0.0000 0.0000 0.0000 20.3610 0.0000
# 6 0.0000 0.0000 0.0000 0.0000 0.0000 27.0175
#
#
#
# Elastic Compliance Matrix: (Units=1/GPa)
#
#
# Indices 1 2 3 4 5 6 
#
# 1 0.118148 -0.012441 -0.046101 0.000000 0.000000 0.000000
# 2 -0.012441 0.008984 -0.001041 0.000000 0.000000 0.000000
# 3 -0.046101 -0.001041 0.034539 0.000000 0.000000 0.000000
# 4 0.000000 0.000000 0.000000 0.063379 0.000000 0.000000
# 5 0.000000 0.000000 0.000000 0.000000 0.049113 0.000000
# 6 0.000000 0.000000 0.000000 0.000000 0.000000 0.037013
#
#
# Mechanical properties :
#
#
# Convention : Reuss Voigt Hill
#
# Bulk Modulus (GPa) = 23.52781 64.98483 44.25632
# Shear Modulus (GPa) = 11.24831 22.23411 16.74121
#
# Velocity S-wave (km/s) = 2.63455 3.70402 3.21408
# Velocity P-wave (km/s) = 4.87571 7.64150 6.40957
#
# Compressibility (1/GPa) = 0.04250289
#
# Stress axis : x y z
#
# Youngs Moduli (GPa) = 8.46400 111.30919 28.95269
#
# Poissons Ratio (x) = 1.38485 1.33475
# Poissons Ratio (y) = 0.10530 0.03014
# Poissons Ratio (z) = 0.39020 0.11589
#
# Static dielectric constant tensor:
#      x y z
#    x 1.544180 0.000000 0.000000 
#    y 0.000000 1.570920 0.000000 
#    z 0.000000 0.000000 1.511540 
# 
# From -- ./inp_files/40523.got.cif
#   From: 2010.05.17/outbox.cif.g08.bks.cpg/sg63_21_cif.got.tgz:40523.got - 2010.06.03 15:47:04.
