data_PCOD9470628
_publ_section_title
;
Structure prediction by ZEFSAII (Michael W. Deem and Ramdas Pophale) SiO2 
 PCOD9470628
Probable space group: C M C M
;
_chemical_formula_sum "Si O2"
_cell_formula_units_Z 96
_cell_length_a 8.285322
_cell_length_b 20.018442
_cell_length_c 31.675027
_cell_angle_alpha 90.000000
_cell_angle_beta 90.000000
_cell_angle_gamma 90.000000
_cell_volume 5253.595839
_symmetry_space_group_name_H-M "C M C M"
_symmetry_group_IT_number 63
_symmetry_cell_setting 'orthorhombic'
loop_
_space_group_symop_operation_xyz
x,y,z
-x,-y,1/2+z
x,-y,-z
-x,y,1/2-z
-x,-y,-z
x,y,1/2-z
-x,y,z
x,-y,1/2+z
1/2+x,1/2+y,z
1/2-x,1/2-y,1/2+z
1/2+x,1/2-y,-z
1/2-x,1/2+y,1/2-z
1/2-x,1/2-y,-z
1/2+x,1/2+y,1/2-z
1/2-x,1/2+y,z
1/2+x,1/2-y,1/2+z
loop_
_atom_site_type_symbol
_atom_site_label
_atom_site_fract_x
_atom_site_fract_y
_atom_site_fract_z
Si Si1 0.805175 0.706741 0.359033
Si Si2 0.192869 0.395270 0.567185
Si Si3 0.694519 0.403849 0.702187
Si Si4 0.305429 0.504113 0.629689
Si Si5 0.192684 0.176646 0.986004
Si Si6 0.197580 0.848637 0.390203
O O1 0.755444 0.663984 0.400467
O O2 0.741700 0.666409 0.318912
O O3 0.751046 0.782898 0.364614
O O4 0.000000 0.705909 0.357815
O O5 0.256890 0.463185 0.587880
O O6 0.252553 0.376524 0.520902
O O7 0.000000 0.396892 0.566999
O O8 0.754176 0.410861 0.750000
O O9 0.500000 0.407837 0.703010
O O10 0.753916 0.461210 0.669872
O O11 0.500000 0.504982 0.631556
O O12 0.248123 0.580249 0.627738
O O13 0.250048 0.159855 0.938821
O O14 0.000000 0.177856 0.984856
O O15 0.250000 0.250000 0.000000
O O16 0.000000 0.848762 0.390077
#
# Coordination Sequence:
#
# PCOD9470628 Si02
#       6
#    16  16  16  16  16  16
#     4   9  17  32  52  73  98 129 165 204 246 295
#     4  10  19  33  50  72 103 135 172 213 247 290
#     4   9  18  33  53  77 100 123 158 204 250 301
#     4   9  18  34  54  73  98 135 170 201 252 308
#     4  11  20  32  50  73 101 136 177 217 256 296
#     4   9  18  33  51  73 102 133 168 212 253 294
#
# _framework density 18.273199000000002
#
# number of rings (size 3 to 8) (size 9 to 14) (size 15 to 20)
#    0.000    2.500    1.667    1.000    0.000    1.667 
#    0.000    6.667    0.000    3.000    0.000    0.000 
#    0.000    0.000    0.000    0.000    0.000    0.000 
#
# Total GULP energy -267740.909183 kJ/mol
# GULP energy per Si atom -5577.935608 kJ/mol
# Density = 1.823161 g / cm^3
# Si number density = 18.273199 Si / 1000 Ang^3
#
#
#
# Elastic Constant Matrix: (Units=GPa)
#
#
# Indices 1 2 3 4 5 6 
#
# 1 8.3559 11.5839 9.2039 0.0000 0.0000 0.0000
# 2 11.5839 161.0078 65.9284 0.0000 0.0000 0.0000
# 3 9.2039 65.9284 118.1966 0.0000 0.0000 0.0000
# 4 0.0000 0.0000 0.0000 15.7999 0.0000 0.0000
# 5 0.0000 0.0000 0.0000 0.0000 19.6467 0.0000
# 6 0.0000 0.0000 0.0000 0.0000 0.0000 21.3269
#
#
#
# Elastic Compliance Matrix: (Units=1/GPa)
#
#
# Indices 1 2 3 4 5 6 
#
# 1 0.136904 -0.007108 -0.006696 0.000000 0.000000 0.000000
# 2 -0.007108 0.008418 -0.004142 0.000000 0.000000 0.000000
# 3 -0.006696 -0.004142 0.011292 0.000000 0.000000 0.000000
# 4 0.000000 0.000000 0.000000 0.063292 0.000000 0.000000
# 5 0.000000 0.000000 0.000000 0.000000 0.050899 0.000000
# 6 0.000000 0.000000 0.000000 0.000000 0.000000 0.046889
#
#
# Mechanical properties :
#
#
# Convention : Reuss Voigt Hill
#
# Bulk Modulus (GPa) = 8.28342 51.22143 29.75243
# Shear Modulus (GPa) = 12.69590 24.74431 18.72010
#
# Velocity S-wave (km/s) = 2.63873 3.68384 3.20419
# Velocity P-wave (km/s) = 3.71844 6.79603 5.47781
#
# Compressibility (1/GPa) = 0.12072303
#
# Stress axis : x y z
#
# Youngs Moduli (GPa) = 7.30437 118.78783 88.55571
#
# Poissons Ratio (x) = 0.84434 0.59296
# Poissons Ratio (y) = 0.05192 0.36681
# Poissons Ratio (z) = 0.04891 0.49204
#
# Static dielectric constant tensor:
#      x y z
#    x 1.641940 0.000000 0.000000 
#    y 0.000000 1.626770 0.000000 
#    z 0.000000 0.000000 1.617070 
# 
# From -- ./inp_files/66992.got.cif
#   From: 2010.05.17/outbox.cif.g08.bks.cpg/sg63_34_cif.got.tgz:66992.got - 2010.06.03 15:47:04.
