data_PCOD9470262
_publ_section_title
;
Structure prediction by ZEFSAII (Michael W. Deem and Ramdas Pophale) SiO2 
 PCOD9470262
Probable space group: C M C M
;
_chemical_formula_sum "Si O2"
_cell_formula_units_Z 112
_cell_length_a 7.258643
_cell_length_b 25.553513
_cell_length_c 26.423792
_cell_angle_alpha 90.000000
_cell_angle_beta 90.000000
_cell_angle_gamma 90.000000
_cell_volume 4901.186097
_symmetry_space_group_name_H-M "C M C M"
_symmetry_group_IT_number 63
_symmetry_cell_setting 'orthorhombic'
loop_
_space_group_symop_operation_xyz
x,y,z
-x,-y,1/2+z
x,-y,-z
-x,y,1/2-z
-x,-y,-z
x,y,1/2-z
-x,y,z
x,-y,1/2+z
1/2+x,1/2+y,z
1/2-x,1/2-y,1/2+z
1/2+x,1/2-y,-z
1/2-x,1/2+y,1/2-z
1/2-x,1/2-y,-z
1/2+x,1/2+y,1/2-z
1/2-x,1/2+y,z
1/2+x,1/2-y,1/2+z
loop_
_atom_site_type_symbol
_atom_site_label
_atom_site_fract_x
_atom_site_fract_y
_atom_site_fract_z
Si Si1 0.224079 0.521588 0.841612
Si Si2 0.212223 0.336112 0.896641
Si Si3 0.224312 0.635978 0.693592
Si Si4 0.224368 0.655250 0.989088
Si Si5 0.722481 0.216993 0.892688
Si Si6 0.724956 0.091824 0.305824
Si Si7 0.776095 0.461044 0.043989
O O1 0.282565 0.576386 0.817265
O O2 0.280724 0.468314 0.814647
O O3 0.281129 0.521520 0.900284
O O4 0.000000 0.521911 0.840524
O O5 0.218116 0.275640 0.881017
O O6 0.289652 0.372613 0.852482
O O7 0.000000 0.353251 0.902211
O O8 0.290649 0.339116 0.953422
O O9 0.280133 0.652096 0.750000
O O10 0.283464 0.675160 0.649342
O O11 0.000000 0.635847 0.692340
O O12 0.284282 0.698611 0.948511
O O13 0.277065 0.598399 0.967795
O O14 0.000000 0.657436 0.989761
O O15 0.500000 0.216513 0.892734
O O16 0.782499 0.109760 0.250000
O O17 0.500000 0.093110 0.306226
O O18 0.000000 0.461795 0.043925
O O19 0.714757 0.500000 0.000000
#
# Coordination Sequence:
#
# PCOD9470262 Si02
#       7
#    16  16  16  16  16  16  16
#     4   9  14  23  39  62  91 120 148 181 229 282
#     4  10  20  32  47  67  93 125 158 189 225 270
#     4   9  16  26  42  65  91 117 147 187 234 277
#     4   9  16  28  43  64  93 121 152 189 228 271
#     4  10  19  32  48  67  93 123 155 193 231 268
#     4   9  17  28  42  63  93 125 153 185 229 278
#     4   9  14  20  35  60  92 123 146 177 228 282
#
# _framework density 22.851610000000001
#
# number of rings (size 3 to 8) (size 9 to 14) (size 15 to 20)
#    0.000    2.714    1.429    1.714    0.000    5.714 
#    0.000    0.000    0.000    0.000    0.000    1.000 
#    0.000    4.571    0.000    0.000    0.000    0.000 
#
# Total GULP energy -313024.237140 kJ/mol
# GULP energy per Si atom -5589.718520 kJ/mol
# Density = 2.279960 g / cm^3
# Si number density = 22.851610 Si / 1000 Ang^3
#
#
#
# Elastic Constant Matrix: (Units=GPa)
#
#
# Indices 1 2 3 4 5 6 
#
# 1 101.8191 -10.0081 4.1061 0.0000 0.0000 0.0000
# 2 -10.0081 89.2613 56.9966 0.0000 0.0000 0.0000
# 3 4.1061 56.9966 185.1667 0.0000 0.0000 0.0000
# 4 0.0000 0.0000 0.0000 15.4983 0.0000 0.0000
# 5 0.0000 0.0000 0.0000 0.0000 -21.2428 0.0000
# 6 0.0000 0.0000 0.0000 0.0000 0.0000 -4.9343
#
#
#
# Elastic Compliance Matrix: (Units=1/GPa)
#
#
# Indices 1 2 3 4 5 6 
#
# 1 0.010004 0.001572 -0.000706 0.000000 0.000000 0.000000
# 2 0.001572 0.014191 -0.004403 0.000000 0.000000 0.000000
# 3 -0.000706 -0.004403 0.006771 0.000000 0.000000 0.000000
# 4 0.000000 0.000000 0.000000 0.064523 0.000000 0.000000
# 5 0.000000 0.000000 0.000000 0.000000 -0.047075 0.000000
# 6 0.000000 0.000000 0.000000 0.000000 0.000000 -0.202664
#
#
# Mechanical properties :
#
#
# Convention : Reuss Voigt Hill
#
# Bulk Modulus (GPa) = 41.85181 53.15960 47.50571
# Shear Modulus (GPa) = -35.91659 19.54107 -8.18776
#
# Velocity S-wave (km/s) = -3.96881 2.92743 -1.89494
# Velocity P-wave (km/s) = 1.62713 5.89406 4.00577
#
# Compressibility (1/GPa) = 0.02389383
#
# Stress axis : x y z
#
# Youngs Moduli (GPa) = 99.95639 70.46801 147.67811
#
# Poissons Ratio (x) = -0.11081 0.10424
# Poissons Ratio (y) = -0.15717 0.65022
# Poissons Ratio (z) = 0.07056 0.31027
#
# Static dielectric constant tensor:
#      x y z
#    x 1.944980 0.000000 0.000000 
#    y 0.000000 1.777360 0.000000 
#    z 0.000000 0.000000 1.815910 
# 
# From -- ./inp_files/61947.got.cif
#   From: 2010.05.17/outbox.cif.g08.bks.cpg/sg63_31_cif.got.tgz:61947.got - 2010.06.03 15:47:04.
