data_PCOD9470613
_publ_section_title
;
Structure prediction by ZEFSAII (Michael W. Deem and Ramdas Pophale) SiO2 
 PCOD9470613
Probable space group: C M C M
;
_chemical_formula_sum "Si O2"
_cell_formula_units_Z 88
_cell_length_a 20.606587
_cell_length_b 11.468615
_cell_length_c 15.186859
_cell_angle_alpha 90.000000
_cell_angle_beta 90.000000
_cell_angle_gamma 90.000000
_cell_volume 3589.095395
_symmetry_space_group_name_H-M "C M C M"
_symmetry_group_IT_number 63
_symmetry_cell_setting 'orthorhombic'
loop_
_space_group_symop_operation_xyz
x,y,z
-x,-y,1/2+z
x,-y,-z
-x,y,1/2-z
-x,-y,-z
x,y,1/2-z
-x,y,z
x,-y,1/2+z
1/2+x,1/2+y,z
1/2-x,1/2-y,1/2+z
1/2+x,1/2-y,-z
1/2-x,1/2+y,1/2-z
1/2-x,1/2-y,-z
1/2+x,1/2+y,1/2-z
1/2-x,1/2+y,z
1/2+x,1/2-y,1/2+z
loop_
_atom_site_type_symbol
_atom_site_label
_atom_site_fract_x
_atom_site_fract_y
_atom_site_fract_z
Si Si1 0.357508 0.986122 0.894505
Si Si2 0.000000 0.206696 0.900789
Si Si3 0.000000 0.057410 0.349349
Si Si4 0.856324 0.763007 0.459868
Si Si5 0.363863 0.326955 0.852114
Si Si6 0.280670 0.559223 0.654023
Si Si7 0.500000 0.022384 0.392599
O O1 0.348684 0.845869 0.893760
O O2 0.429611 0.023395 0.862984
O O3 0.296019 0.043270 0.850448
O O4 0.356123 0.000000 0.000000
O O5 0.931711 0.203831 0.950239
O O6 0.000000 0.340540 0.866098
O O7 0.000000 0.082902 0.851450
O O8 0.931988 0.111052 0.379614
O O9 0.000000 0.095770 0.250000
O O10 0.846426 0.745310 0.564632
O O11 0.809530 0.863249 0.423930
O O12 0.366848 0.283404 0.750000
O O13 0.312049 0.431441 0.852261
O O14 0.299981 0.608445 0.750000
O O15 0.500000 0.000000 0.500000
#
# Coordination Sequence:
#
# PCOD9470613 Si02
#       7
#    16   8   8  16  16  16   8
#     4  10  22  42  66  92 124 165 218 273 327 384
#     4  10  19  32  64  99 123 171 220 263 324 390
#     4  10  19  33  56  95 141 171 209 272 334 397
#     4  11  22  39  66  94 126 174 221 266 325 399
#     4  10  21  36  57  91 133 171 209 264 329 393
#     4  11  24  39  58  90 129 168 215 271 327 388
#     4   8  18  39  63  90 122 162 219 272 315 380
#
# _framework density 24.518713000000002
#
# number of rings (size 3 to 8) (size 9 to 14) (size 15 to 20)
#    0.000    1.818    1.818    2.182    0.000    4.364 
#    0.000    5.909    0.000    1.091    0.000    8.909 
#    0.000    0.000    0.000    0.000    0.000    0.000 
#
# Total GULP energy -245515.917187 kJ/mol
# GULP energy per Si atom -5579.907209 kJ/mol
# Density = 2.446291 g / cm^3
# Si number density = 24.518713 Si / 1000 Ang^3
#
#
#
# Elastic Constant Matrix: (Units=GPa)
#
#
# Indices 1 2 3 4 5 6 
#
# 1 176.4723 34.8706 39.5791 0.0000 0.0000 0.0000
# 2 34.8706 38.8336 15.4852 0.0000 0.0000 0.0000
# 3 39.5791 15.4852 87.2074 0.0000 0.0000 0.0000
# 4 0.0000 0.0000 0.0000 7.0843 0.0000 0.0000
# 5 0.0000 0.0000 0.0000 0.0000 22.3495 0.0000
# 6 0.0000 0.0000 0.0000 0.0000 0.0000 20.6571
#
#
#
# Elastic Compliance Matrix: (Units=1/GPa)
#
#
# Indices 1 2 3 4 5 6 
#
# 1 0.007298 -0.005631 -0.002312 0.000000 0.000000 0.000000
# 2 -0.005631 0.032058 -0.003137 0.000000 0.000000 0.000000
# 3 -0.002312 -0.003137 0.013073 0.000000 0.000000 0.000000
# 4 0.000000 0.000000 0.000000 0.141158 0.000000 0.000000
# 5 0.000000 0.000000 0.000000 0.000000 0.044744 0.000000
# 6 0.000000 0.000000 0.000000 0.000000 0.000000 0.048409
#
#
# Mechanical properties :
#
#
# Convention : Reuss Voigt Hill
#
# Bulk Modulus (GPa) = 33.03701 53.59811 43.31756
# Shear Modulus (GPa) = 15.67443 24.19007 19.93225
#
# Velocity S-wave (km/s) = 2.53115 3.14442 2.85430
# Velocity P-wave (km/s) = 4.69529 5.92374 5.34493
#
# Compressibility (1/GPa) = 0.03026908
#
# Stress axis : x y z
#
# Youngs Moduli (GPa) = 137.02562 31.19327 76.49169
#
# Poissons Ratio (x) = 0.17565 0.17687
# Poissons Ratio (y) = 0.77161 0.23994
# Poissons Ratio (z) = 0.31684 0.09785
#
# Static dielectric constant tensor:
#      x y z
#    x 1.952680 0.000000 0.000000 
#    y 0.000000 2.034310 0.000000 
#    z 0.000000 0.000000 1.947870 
# 
# From -- ./inp_files/35245.got.cif
#   From: 2010.05.17/outbox.cif.g08.bks.cpg/sg63_18_cif.got.tgz:35245.got - 2010.06.03 15:47:04.
