data_PCOD9470108
_publ_section_title
;
Structure prediction by ZEFSAII (Michael W. Deem and Ramdas Pophale) SiO2 
 PCOD9470108
Probable space group: C M C M
;
_chemical_formula_sum "Si O2"
_cell_formula_units_Z 104
_cell_length_a 22.490262
_cell_length_b 30.550553
_cell_length_c 8.868569
_cell_angle_alpha 90.000000
_cell_angle_beta 90.000000
_cell_angle_gamma 90.000000
_cell_volume 6093.504553
_symmetry_space_group_name_H-M "C M C M"
_symmetry_group_IT_number 63
_symmetry_cell_setting 'orthorhombic'
loop_
_space_group_symop_operation_xyz
x,y,z
-x,-y,1/2+z
x,-y,-z
-x,y,1/2-z
-x,-y,-z
x,y,1/2-z
-x,y,z
x,-y,1/2+z
1/2+x,1/2+y,z
1/2-x,1/2-y,1/2+z
1/2+x,1/2-y,-z
1/2-x,1/2+y,1/2-z
1/2-x,1/2-y,-z
1/2+x,1/2+y,1/2-z
1/2-x,1/2+y,z
1/2+x,1/2-y,1/2+z
loop_
_atom_site_type_symbol
_atom_site_label
_atom_site_fract_x
_atom_site_fract_y
_atom_site_fract_z
Si Si1 0.928598 0.306123 0.571134
Si Si2 0.649407 0.547123 0.069916
Si Si3 0.427764 0.285523 0.923915
Si Si4 0.000000 0.548448 0.069557
Si Si5 0.071200 0.122819 0.928156
Si Si6 0.278211 0.953586 0.070104
Si Si7 0.892814 0.603973 0.570692
O O1 0.918578 0.307479 0.750000
O O2 0.909329 0.259375 0.504385
O O3 0.897912 0.346883 0.490276
O O4 0.000000 0.310490 0.546169
O O5 0.650692 0.544130 0.250000
O O6 0.632559 0.500000 0.000000
O O7 0.604870 0.584515 0.014984
O O8 0.715343 0.557129 0.006560
O O9 0.408593 0.286493 0.750000
O O10 0.500000 0.285274 0.925592
O O11 0.409745 0.329641 0.009737
O O12 0.057432 0.574931 0.012020
O O13 0.000000 0.546158 0.250000
O O14 0.000000 0.500000 0.000000
O O15 0.083209 0.119834 0.750000
O O16 0.000000 0.118995 0.950236
O O17 0.269799 0.958650 0.250000
O O18 0.328695 0.917659 0.043464
O O19 0.298099 0.000000 0.000000
O O20 0.904437 0.396848 0.250000
#
# Coordination Sequence:
#
# PCOD9470108 Si02
#       7
#    16  16  16   8  16  16  16
#     4  10  19  31  49  75 106 141 179 221 269 319
#     4  11  22  37  58  81 108 142 178 218 260 311
#     4   9  17  30  50  76 107 142 177 216 260 313
#     4  12  24  36  50  72 104 140 176 222 277 330
#     4  10  20  35  56  83 114 144 175 214 260 312
#     4  10  21  37  56  77 101 136 180 223 265 316
#     4  11  22  35  53  76 104 138 178 225 273 321
#
# _framework density 17.067354999999999
#
# number of rings (size 3 to 8) (size 9 to 14) (size 15 to 20)
#    0.000    1.692    0.769    5.769    0.000    7.385 
#    0.000    0.000    0.000    0.923    0.000    0.000 
#    0.000    0.000    0.000    0.000    0.000    0.000 
#
# Total GULP energy -290424.331704 kJ/mol
# GULP energy per Si atom -5585.083302 kJ/mol
# Density = 1.702851 g / cm^3
# Si number density = 17.067355 Si / 1000 Ang^3
#
#
#
# Elastic Constant Matrix: (Units=GPa)
#
#
# Indices 1 2 3 4 5 6 
#
# 1 38.8677 61.9191 54.4502 0.0000 0.0000 0.0000
# 2 61.9191 162.5152 92.3261 0.0000 0.0000 0.0000
# 3 54.4502 92.3261 145.5371 0.0000 0.0000 0.0000
# 4 0.0000 0.0000 0.0000 37.2825 0.0000 0.0000
# 5 0.0000 0.0000 0.0000 0.0000 24.1684 0.0000
# 6 0.0000 0.0000 0.0000 0.0000 0.0000 5.7668
#
#
#
# Elastic Compliance Matrix: (Units=1/GPa)
#
#
# Indices 1 2 3 4 5 6 
#
# 1 0.088608 -0.023337 -0.018346 0.000000 0.000000 0.000000
# 2 -0.023337 0.015767 -0.001271 0.000000 0.000000 0.000000
# 3 -0.018346 -0.001271 0.014541 0.000000 0.000000 0.000000
# 4 0.000000 0.000000 0.000000 0.026822 0.000000 0.000000
# 5 0.000000 0.000000 0.000000 0.000000 0.041376 0.000000
# 6 0.000000 0.000000 0.000000 0.000000 0.000000 0.173406
#
#
# Mechanical properties :
#
#
# Convention : Reuss Voigt Hill
#
# Bulk Modulus (GPa) = 30.29667 84.92341 57.61004
# Shear Modulus (GPa) = 10.93056 22.65851 16.79454
#
# Velocity S-wave (km/s) = 2.53343 3.64757 3.14030
# Velocity P-wave (km/s) = 5.13298 8.22226 6.85394
#
# Compressibility (1/GPa) = 0.03300693
#
# Stress axis : x y z
#
# Youngs Moduli (GPa) = 11.28565 63.42360 68.76918
#
# Poissons Ratio (x) = 1.48014 1.26167
# Poissons Ratio (y) = 0.26338 0.08741
# Poissons Ratio (z) = 0.20705 0.08061
#
# Static dielectric constant tensor:
#      x y z
#    x 1.556360 0.000000 0.000000 
#    y 0.000000 1.560980 0.000000 
#    z 0.000000 0.000000 1.569440 
# 
# From -- ./inp_files/10811.got.cif
#   From: 2010.05.17/outbox.cif.g08.bks.cpg/sg63_6_cif.got.tgz:10811.got - 2010.06.03 15:47:04.
