data_PCOD9470207
_publ_section_title
;
Structure prediction by ZEFSAII (Michael W. Deem and Ramdas Pophale) SiO2 
 PCOD9470207
Probable space group: C M C M
;
_chemical_formula_sum "Si O2"
_cell_formula_units_Z 96
_cell_length_a 8.967774
_cell_length_b 21.833896
_cell_length_c 22.725064
_cell_angle_alpha 90.000000
_cell_angle_beta 90.000000
_cell_angle_gamma 90.000000
_cell_volume 4449.600366
_symmetry_space_group_name_H-M "C M C M"
_symmetry_group_IT_number 63
_symmetry_cell_setting 'orthorhombic'
loop_
_space_group_symop_operation_xyz
x,y,z
-x,-y,1/2+z
x,-y,-z
-x,y,1/2-z
-x,-y,-z
x,y,1/2-z
-x,y,z
x,-y,1/2+z
1/2+x,1/2+y,z
1/2-x,1/2-y,1/2+z
1/2+x,1/2-y,-z
1/2-x,1/2+y,1/2-z
1/2-x,1/2-y,-z
1/2+x,1/2+y,1/2-z
1/2-x,1/2+y,z
1/2+x,1/2-y,1/2+z
loop_
_atom_site_type_symbol
_atom_site_label
_atom_site_fract_x
_atom_site_fract_y
_atom_site_fract_z
Si Si1 0.821560 0.314667 0.383016
Si Si2 0.325297 0.570860 0.682109
Si Si3 0.669954 0.673592 0.495871
Si Si4 0.160412 0.433092 0.975671
Si Si5 0.329022 0.060389 0.335706
Si Si6 0.678604 0.683714 0.356344
O O1 0.753943 0.377783 0.358152
O O2 0.767661 0.301681 0.450280
O O3 0.778636 0.254466 0.344228
O O4 0.000000 0.318541 0.382576
O O5 0.312137 0.591502 0.750000
O O6 0.500000 0.567173 0.666440
O O7 0.256036 0.502236 0.680231
O O8 0.500000 0.692582 0.503474
O O9 0.699446 0.601223 0.502676
O O10 0.711679 0.679060 0.426916
O O11 0.169132 0.439437 0.906257
O O12 0.000000 0.401530 0.990183
O O13 0.154796 0.500000 0.000000
O O14 0.500000 0.058127 0.315298
O O15 0.254768 0.126830 0.322932
O O16 0.500000 0.677446 0.349671
#
# Coordination Sequence:
#
# PCOD9470207 Si02
#       6
#    16  16  16  16  16  16
#     4  11  22  37  59  86 119 158 198 241 289 342
#     4  11  25  44  64  85 111 145 189 244 301 353
#     4  10  19  31  51  81 118 158 195 231 276 336
#     4   9  17  29  46  73 110 148 186 228 274 328
#     4  10  20  35  59  87 114 147 187 234 285 339
#     4   9  20  37  57  86 124 162 196 232 280 340
#
# _framework density 21.57497
#
# number of rings (size 3 to 8) (size 9 to 14) (size 15 to 20)
#    0.000    2.000    0.000    3.500    0.000    5.667 
#    0.000    0.833    0.000    1.000    0.000    0.000 
#    0.000    0.000    0.000    0.000    0.000    0.000 
#
# Total GULP energy -267464.726422 kJ/mol
# GULP energy per Si atom -5572.181800 kJ/mol
# Density = 2.152586 g / cm^3
# Si number density = 21.574970 Si / 1000 Ang^3
#
#
#
# Elastic Constant Matrix: (Units=GPa)
#
#
# Indices 1 2 3 4 5 6 
#
# 1 93.4239 54.0122 32.7331 0.0000 0.0000 0.0000
# 2 54.0122 126.0072 23.1469 0.0000 0.0000 0.0000
# 3 32.7331 23.1469 44.4505 0.0000 0.0000 0.0000
# 4 0.0000 0.0000 0.0000 -5.9975 0.0000 0.0000
# 5 0.0000 0.0000 0.0000 0.0000 5.8391 0.0000
# 6 0.0000 0.0000 0.0000 0.0000 0.0000 33.0235
#
#
#
# Elastic Compliance Matrix: (Units=1/GPa)
#
#
# Indices 1 2 3 4 5 6 
#
# 1 0.017444 -0.005659 -0.009899 0.000000 0.000000 0.000000
# 2 -0.005659 0.010611 -0.001359 0.000000 0.000000 0.000000
# 3 -0.009899 -0.001359 0.030494 0.000000 0.000000 0.000000
# 4 0.000000 0.000000 0.000000 -0.166737 0.000000 0.000000
# 5 0.000000 0.000000 0.000000 0.000000 0.171259 0.000000
# 6 0.000000 0.000000 0.000000 0.000000 0.000000 0.030281
#
#
# Mechanical properties :
#
#
# Convention : Reuss Voigt Hill
#
# Bulk Modulus (GPa) = 40.45865 53.74067 47.09966
# Shear Modulus (GPa) = 36.92116 16.83899 26.88007
#
# Velocity S-wave (km/s) = 4.14127 2.79675 3.53355
# Velocity P-wave (km/s) = 6.45446 5.94911 6.20693
#
# Compressibility (1/GPa) = 0.02471659
#
# Stress axis : x y z
#
# Youngs Moduli (GPa) = 57.32721 94.23999 32.79358
#
# Poissons Ratio (x) = 0.53328 0.32462
# Poissons Ratio (y) = 0.32440 0.04455
# Poissons Ratio (z) = 0.56747 0.12803
#
# Static dielectric constant tensor:
#      x y z
#    x 1.804340 0.000000 0.000000 
#    y 0.000000 1.925880 0.000000 
#    z 0.000000 0.000000 1.932310 
# 
# From -- ./inp_files/59959.got.cif
#   From: 2010.05.17/outbox.cif.g08.bks.cpg/sg63_30_cif.got.tgz:59959.got - 2010.06.03 15:47:04.
