data_PCOD9470465
_publ_section_title
;
Structure prediction by ZEFSAII (Michael W. Deem and Ramdas Pophale) SiO2 
 PCOD9470465
Probable space group: C M C M
;
_chemical_formula_sum "Si O2"
_cell_formula_units_Z 96
_cell_length_a 32.697870
_cell_length_b 19.091220
_cell_length_c 8.656962
_cell_angle_alpha 90.000000
_cell_angle_beta 90.000000
_cell_angle_gamma 90.000000
_cell_volume 5404.041261
_symmetry_space_group_name_H-M "C M C M"
_symmetry_group_IT_number 63
_symmetry_cell_setting 'orthorhombic'
loop_
_space_group_symop_operation_xyz
x,y,z
-x,-y,1/2+z
x,-y,-z
-x,y,1/2-z
-x,-y,-z
x,y,1/2-z
-x,y,z
x,-y,1/2+z
1/2+x,1/2+y,z
1/2-x,1/2-y,1/2+z
1/2+x,1/2-y,-z
1/2-x,1/2+y,1/2-z
1/2-x,1/2-y,-z
1/2+x,1/2+y,1/2-z
1/2-x,1/2+y,z
1/2+x,1/2-y,1/2+z
loop_
_atom_site_type_symbol
_atom_site_label
_atom_site_fract_x
_atom_site_fract_y
_atom_site_fract_z
Si Si1 0.708311 0.921575 0.065833
Si Si2 0.544782 0.328459 0.066786
Si Si3 0.704983 0.421855 0.564774
Si Si4 0.129801 0.821775 0.933971
Si Si5 0.956139 0.340822 0.934176
Si Si6 0.366978 0.165527 0.435803
O O1 0.709500 0.923987 0.250000
O O2 0.751986 0.894955 0.002679
O O3 0.670733 0.875219 0.008358
O O4 0.703495 0.000000 0.000000
O O5 0.548458 0.342004 0.250000
O O6 0.500000 0.354449 0.014245
O O7 0.543947 0.243734 0.048487
O O8 0.585567 0.352565 0.981431
O O9 0.698923 0.500000 0.500000
O O10 0.708197 0.425191 0.750000
O O11 0.666892 0.372842 0.523345
O O12 0.130549 0.810548 0.750000
O O13 0.134874 0.747036 0.017085
O O14 0.956633 0.354608 0.750000
O O15 0.911470 0.363528 0.991789
O O16 0.000000 0.366542 0.998463
O O17 0.365736 0.160230 0.250000
#
# Coordination Sequence:
#
# PCOD9470465 Si02
#       6
#    16  16  16  16  16  16
#     4  11  22  37  56  75  98 129 167 208 251 303
#     4   8  14  26  45  69  98 133 169 202 241 293
#     4  10  21  37  55  74  98 130 169 208 251 305
#     4  10  20  32  49  77 107 132 163 208 256 298
#     4   7  11  22  42  68  96 126 160 196 234 279
#     4  10  19  32  52  77 105 135 167 205 248 295
#
# _framework density 17.764482000000001
#
# number of rings (size 3 to 8) (size 9 to 14) (size 15 to 20)
#    0.000    2.667    0.000    6.000    0.000    3.667 
#    0.000    0.000    0.000    2.500    0.000    0.000 
#    0.000    0.000    0.000    0.000    0.000    0.000 
#
# Total GULP energy -267397.385357 kJ/mol
# GULP energy per Si atom -5570.778862 kJ/mol
# Density = 1.772405 g / cm^3
# Si number density = 17.764482 Si / 1000 Ang^3
#
#
#
# Elastic Constant Matrix: (Units=GPa)
#
#
# Indices 1 2 3 4 5 6 
#
# 1 219.3878 57.9283 57.9216 0.0000 0.0000 0.0000
# 2 57.9283 26.8507 19.2743 0.0000 0.0000 0.0000
# 3 57.9216 19.2743 61.4654 0.0000 0.0000 0.0000
# 4 0.0000 0.0000 0.0000 22.1298 0.0000 0.0000
# 5 0.0000 0.0000 0.0000 0.0000 27.9079 0.0000
# 6 0.0000 0.0000 0.0000 0.0000 0.0000 -26.2833
#
#
#
# Elastic Compliance Matrix: (Units=1/GPa)
#
#
# Indices 1 2 3 4 5 6 
#
# 1 0.011260 -0.021521 -0.003863 0.000000 0.000000 0.000000
# 2 -0.021521 0.089191 -0.007689 0.000000 0.000000 0.000000
# 3 -0.003863 -0.007689 0.022320 0.000000 0.000000 0.000000
# 4 0.000000 0.000000 0.000000 0.045188 0.000000 0.000000
# 5 0.000000 0.000000 0.000000 0.000000 0.035832 0.000000
# 6 0.000000 0.000000 0.000000 0.000000 0.000000 -0.038047
#
#
# Mechanical properties :
#
#
# Convention : Reuss Voigt Hill
#
# Bulk Modulus (GPa) = 17.65917 64.21693 40.93805
# Shear Modulus (GPa) = 19.93895 16.25618 18.09757
#
# Velocity S-wave (km/s) = 3.35387 3.02833 3.19525
# Velocity P-wave (km/s) = 4.99602 6.96098 6.05869
#
# Compressibility (1/GPa) = 0.05662781
#
# Stress axis : x y z
#
# Youngs Moduli (GPa) = 88.80721 11.21185 44.80210
#
# Poissons Ratio (x) = 0.24129 0.17306
# Poissons Ratio (y) = 1.91118 0.34448
# Poissons Ratio (z) = 0.34304 0.08621
#
# Static dielectric constant tensor:
#      x y z
#    x 1.664420 0.000000 0.000000 
#    y 0.000000 1.574160 0.000000 
#    z 0.000000 0.000000 1.591100 
# 
# From -- ./inp_files/12420.got.cif
#   From: 2010.05.17/outbox.cif.g08.bks.cpg/sg63_7_cif.got.tgz:12420.got - 2010.06.03 15:47:04.
