data_PCOD9470977
_publ_section_title
;
Structure prediction by ZEFSAII (Michael W. Deem and Ramdas Pophale) SiO2 
 PCOD9470977
Probable space group: C M C M
;
_chemical_formula_sum "Si O2"
_cell_formula_units_Z 128
_cell_length_a 25.351154
_cell_length_b 30.520650
_cell_length_c 7.437592
_cell_angle_alpha 90.000000
_cell_angle_beta 90.000000
_cell_angle_gamma 90.000000
_cell_volume 5754.715565
_symmetry_space_group_name_H-M "C M C M"
_symmetry_group_IT_number 63
_symmetry_cell_setting 'orthorhombic'
loop_
_space_group_symop_operation_xyz
x,y,z
-x,-y,1/2+z
x,-y,-z
-x,y,1/2-z
-x,-y,-z
x,y,1/2-z
-x,y,z
x,-y,1/2+z
1/2+x,1/2+y,z
1/2-x,1/2-y,1/2+z
1/2+x,1/2-y,-z
1/2-x,1/2+y,1/2-z
1/2-x,1/2-y,-z
1/2+x,1/2+y,1/2-z
1/2-x,1/2+y,z
1/2+x,1/2-y,1/2+z
loop_
_atom_site_type_symbol
_atom_site_label
_atom_site_fract_x
_atom_site_fract_y
_atom_site_fract_z
Si Si1 0.762360 0.856886 0.467856
Si Si2 0.843358 0.692503 0.969142
Si Si3 0.854923 0.209785 0.041376
Si Si4 0.741251 0.048438 0.535188
Si Si5 0.061525 0.142419 0.469510
Si Si6 0.559683 0.134181 0.530311
Si Si7 0.939197 0.952761 0.964414
Si Si8 0.879766 0.451576 0.464460
O O1 0.764161 0.856253 0.250000
O O2 0.705502 0.837894 0.525228
O O3 0.806422 0.823552 0.532745
O O4 0.769104 0.907196 0.529341
O O5 0.841123 0.691896 0.750000
O O6 0.840154 0.742617 0.033146
O O7 0.898680 0.671193 0.023318
O O8 0.868151 0.218145 0.250000
O O9 0.903908 0.182706 0.962568
O O10 0.738750 0.052069 0.750000
O O11 0.680564 0.049687 0.465855
O O12 0.763518 0.000000 0.500000
O O13 0.063966 0.143214 0.250000
O O14 0.082384 0.094199 0.527960
O O15 0.000000 0.145563 0.517929
O O16 0.558711 0.133887 0.750000
O O17 0.500000 0.859265 0.530547
O O18 0.583991 0.087772 0.469898
O O19 0.941993 0.949591 0.750000
O O20 0.000000 0.954944 0.033189
O O21 0.913505 0.000000 0.000000
O O22 0.901270 0.500000 0.500000
O O23 0.875851 0.445992 0.250000
#
# Coordination Sequence:
#
# PCOD9470977 Si02
#       8
#    16  16  16  16  16  16  16  16
#     4  10  19  34  53  71  99 133 161 197 249 298
#     4   9  17  31  49  70  97 129 163 203 249 292
#     4  10  20  32  51  77  98 121 163 210 244 284
#     4   9  17  30  50  72  97 132 167 199 241 295
#     4   8  15  29  47  68  97 126 148 183 239 288
#     4   9  16  27  46  73 102 131 166 208 251 296
#     4   8  13  23  41  63  86 114 146 177 214 264
#     4   9  16  28  46  69  97 130 166 202 244 294
#
# _framework density 22.242628
#
# number of rings (size 3 to 8) (size 9 to 14) (size 15 to 20)
#    0.000    3.000    1.250    1.125    0.000    1.250 
#    0.000    3.750    0.000    4.875    0.000    0.000 
#    0.000    0.000    0.000    0.000    0.000    0.000 
#
# Total GULP energy -357025.225671 kJ/mol
# GULP energy per Si atom -5578.519151 kJ/mol
# Density = 2.219200 g / cm^3
# Si number density = 22.242628 Si / 1000 Ang^3
#
#
#
# Elastic Constant Matrix: (Units=GPa)
#
#
# Indices 1 2 3 4 5 6 
#
# 1 48.6582 44.4240 -10.9977 0.0000 0.0000 0.0000
# 2 44.4240 191.4704 -4.4527 0.0000 0.0000 0.0000
# 3 -10.9977 -4.4527 66.6340 0.0000 0.0000 0.0000
# 4 0.0000 0.0000 0.0000 12.4942 0.0000 0.0000
# 5 0.0000 0.0000 0.0000 0.0000 -4.3046 0.0000
# 6 0.0000 0.0000 0.0000 0.0000 0.0000 14.4451
#
#
#
# Elastic Compliance Matrix: (Units=1/GPa)
#
#
# Indices 1 2 3 4 5 6 
#
# 1 0.027131 -0.006200 0.004064 0.000000 0.000000 0.000000
# 2 -0.006200 0.006648 -0.000579 0.000000 0.000000 0.000000
# 3 0.004064 -0.000579 0.015639 0.000000 0.000000 0.000000
# 4 0.000000 0.000000 0.000000 0.080037 0.000000 0.000000
# 5 0.000000 0.000000 0.000000 0.000000 -0.232312 0.000000
# 6 0.000000 0.000000 0.000000 0.000000 0.000000 0.069227
#
#
# Mechanical properties :
#
#
# Convention : Reuss Voigt Hill
#
# Bulk Modulus (GPa) = 22.73442 40.52330 31.62886
# Shear Modulus (GPa) = -369.39235 23.04623 -173.17306
#
# Velocity S-wave (km/s) = -12.90095 3.22239 -8.83320
# Velocity P-wave (km/s) = 14.54887 5.66598 9.47539
#
# Compressibility (1/GPa) = 0.04398616
#
# Stress axis : x y z
#
# Youngs Moduli (GPa) = 36.85871 150.42536 63.94137
#
# Poissons Ratio (x) = 0.93267 -0.25983
# Poissons Ratio (y) = 0.22853 0.03703
# Poissons Ratio (z) = -0.14978 0.08711
#
# Static dielectric constant tensor:
#      x y z
#    x 1.787030 0.000000 0.000000 
#    y 0.000000 1.838040 0.000000 
#    z 0.000000 0.000000 1.884860 
# 
# From -- ./inp_files/24239.got.cif
#   From: 2010.05.17/outbox.cif.g08.bks.cpg/sg63_13_cif.got.tgz:24239.got - 2010.06.03 15:47:04.
