data_PCOD9470805
_publ_section_title
;
Structure prediction by ZEFSAII (Michael W. Deem and Ramdas Pophale) SiO2 
 PCOD9470805
Probable space group: C M C M
;
_chemical_formula_sum "Si O2"
_cell_formula_units_Z 88
_cell_length_a 20.250449
_cell_length_b 25.311328
_cell_length_c 8.426317
_cell_angle_alpha 90.000000
_cell_angle_beta 90.000000
_cell_angle_gamma 90.000000
_cell_volume 4319.041550
_symmetry_space_group_name_H-M "C M C M"
_symmetry_group_IT_number 63
_symmetry_cell_setting 'orthorhombic'
loop_
_space_group_symop_operation_xyz
x,y,z
-x,-y,1/2+z
x,-y,-z
-x,y,1/2-z
-x,-y,-z
x,y,1/2-z
-x,y,z
x,-y,1/2+z
1/2+x,1/2+y,z
1/2-x,1/2-y,1/2+z
1/2+x,1/2-y,-z
1/2-x,1/2+y,1/2-z
1/2-x,1/2-y,-z
1/2+x,1/2+y,1/2-z
1/2-x,1/2+y,z
1/2+x,1/2-y,1/2+z
loop_
_atom_site_type_symbol
_atom_site_label
_atom_site_fract_x
_atom_site_fract_y
_atom_site_fract_z
Si Si1 0.122669 0.130746 0.937549
Si Si2 0.733745 0.557007 0.060030
Si Si3 0.824975 0.243886 0.557594
Si Si4 0.428483 0.829927 0.556257
Si Si5 0.000000 0.938993 0.562066
Si Si6 0.889103 0.556157 0.439743
O O1 0.109987 0.133096 0.750000
O O2 0.136677 0.190580 0.994879
O O3 0.190668 0.100716 0.974734
O O4 0.063904 0.095501 0.010379
O O5 0.726483 0.561203 0.250000
O O6 0.811230 0.560694 0.020478
O O7 0.710107 0.500000 0.000000
O O8 0.823484 0.242843 0.750000
O O9 0.750000 0.250000 0.500000
O O10 0.868163 0.293879 0.503869
O O11 0.426034 0.830859 0.750000
O O12 0.500000 0.807960 0.510832
O O13 0.422289 0.890325 0.501433
O O14 0.000000 0.943185 0.750000
O O15 0.000000 0.000000 0.500000
O O16 0.914229 0.500000 0.500000
O O17 0.894663 0.555202 0.250000
#
# Coordination Sequence:
#
# PCOD9470805 Si02
#       6
#    16  16  16  16   8  16
#     4  11  23  38  59  87 118 154 198 248 304 363
#     4  10  19  33  54  80 113 149 190 239 292 349
#     4  10  22  39  63  89 117 155 199 252 301 356
#     4   9  18  34  57  82 110 148 192 232 279 342
#     4  12  26  44  64  88 122 164 205 254 309 374
#     4   9  18  32  53  81 111 146 187 233 282 338
#
# _framework density 20.374891000000002
#
# number of rings (size 3 to 8) (size 9 to 14) (size 15 to 20)
#    0.000    2.000    0.000    3.545    1.273    4.000 
#    0.000    0.909    0.000    1.091    0.000    0.000 
#    0.000    0.000    0.000    0.000    0.000    0.000 
#
# Total GULP energy -245640.859895 kJ/mol
# GULP energy per Si atom -5582.746816 kJ/mol
# Density = 2.032852 g / cm^3
# Si number density = 20.374891 Si / 1000 Ang^3
#
#
#
# Elastic Constant Matrix: (Units=GPa)
#
#
# Indices 1 2 3 4 5 6 
#
# 1 117.5118 77.5534 25.8270 0.0000 0.0000 0.0000
# 2 77.5534 160.3985 23.1431 0.0000 0.0000 0.0000
# 3 25.8270 23.1431 26.5693 0.0000 0.0000 0.0000
# 4 0.0000 0.0000 0.0000 24.2863 0.0000 0.0000
# 5 0.0000 0.0000 0.0000 0.0000 14.6729 0.0000
# 6 0.0000 0.0000 0.0000 0.0000 0.0000 36.5916
#
#
#
# Elastic Compliance Matrix: (Units=1/GPa)
#
#
# Indices 1 2 3 4 5 6 
#
# 1 0.014126 -0.005546 -0.008901 0.000000 0.000000 0.000000
# 2 -0.005546 0.009308 -0.002717 0.000000 0.000000 0.000000
# 3 -0.008901 -0.002717 0.048656 0.000000 0.000000 0.000000
# 4 0.000000 0.000000 0.000000 0.041175 0.000000 0.000000
# 5 0.000000 0.000000 0.000000 0.000000 0.068153 0.000000
# 6 0.000000 0.000000 0.000000 0.000000 0.000000 0.027329
#
#
# Mechanical properties :
#
#
# Convention : Reuss Voigt Hill
#
# Bulk Modulus (GPa) = 26.48078 61.94738 44.21408
# Shear Modulus (GPa) = 19.55717 26.97392 23.26555
#
# Velocity S-wave (km/s) = 3.10153 3.64246 3.38283
# Velocity P-wave (km/s) = 5.08439 6.93973 6.08321
#
# Compressibility (1/GPa) = 0.03776324
#
# Stress axis : x y z
#
# Youngs Moduli (GPa) = 70.79157 107.43621 20.55252
#
# Poissons Ratio (x) = 0.59581 0.18293
# Poissons Ratio (y) = 0.39259 0.05584
# Poissons Ratio (z) = 0.63009 0.29188
#
# Static dielectric constant tensor:
#      x y z
#    x 1.709710 0.000000 0.000000 
#    y 0.000000 1.715150 0.000000 
#    z 0.000000 0.000000 1.710330 
# 
# From -- ./inp_files/8228.got.cif
#   From: 2010.05.17/outbox.cif.g08.bks.cpg/sg63_5_cif.got.tgz:8228.got - 2010.06.03 15:47:04.
