data_PCOD9470412
_publ_section_title
;
Structure prediction by ZEFSAII (Michael W. Deem and Ramdas Pophale) SiO2 
 PCOD9470412
Probable space group: C M C M
;
_chemical_formula_sum "Si O2"
_cell_formula_units_Z 96
_cell_length_a 7.888163
_cell_length_b 24.052649
_cell_length_c 23.999328
_cell_angle_alpha 90.000000
_cell_angle_beta 90.000000
_cell_angle_gamma 90.000000
_cell_volume 4553.421682
_symmetry_space_group_name_H-M "C M C M"
_symmetry_group_IT_number 63
_symmetry_cell_setting 'orthorhombic'
loop_
_space_group_symop_operation_xyz
x,y,z
-x,-y,1/2+z
x,-y,-z
-x,y,1/2-z
-x,-y,-z
x,y,1/2-z
-x,y,z
x,-y,1/2+z
1/2+x,1/2+y,z
1/2-x,1/2-y,1/2+z
1/2+x,1/2-y,-z
1/2-x,1/2+y,1/2-z
1/2-x,1/2-y,-z
1/2+x,1/2+y,1/2-z
1/2-x,1/2+y,z
1/2+x,1/2-y,1/2+z
loop_
_atom_site_type_symbol
_atom_site_label
_atom_site_fract_x
_atom_site_fract_y
_atom_site_fract_z
Si Si1 0.201288 0.151540 0.750000
Si Si2 0.295516 0.220778 0.860559
Si Si3 0.306726 0.964710 0.444142
Si Si4 0.704667 0.158762 0.527845
Si Si5 0.209824 0.976923 0.250000
Si Si6 0.703943 0.336963 0.899773
Si Si7 0.193920 0.046209 0.354174
O O1 0.249331 0.185173 0.806134
O O2 0.267151 0.087571 0.750000
O O3 0.000000 0.147473 0.750000
O O4 0.500000 0.220916 0.862354
O O5 0.235598 0.194893 0.919563
O O6 0.237427 0.284937 0.862473
O O7 0.500000 0.958962 0.421857
O O8 0.239970 0.904065 0.458717
O O9 0.316361 0.000000 0.500000
O O10 0.197665 0.000505 0.402362
O O11 0.500000 0.159918 0.527769
O O12 0.757309 0.173336 0.465050
O O13 0.000000 0.974894 0.250000
O O14 0.269613 0.013043 0.302456
O O15 0.500000 0.339204 0.896742
O O16 0.771163 0.396449 0.877797
O O17 0.000000 0.059510 0.338501
#
# Coordination Sequence:
#
# PCOD9470412 Si02
#       7
#     8  16  16  16   8  16  16
#     4  11  23  40  61  83 105 137 184 233 274 320
#     4  10  22  39  58  81 111 148 186 224 273 329
#     4  10  19  32  51  77 110 145 179 222 275 324
#     4  10  20  35  56  81 113 151 185 225 277 327
#     4   9  20  38  57  79 109 139 176 227 278 322
#     4  10  21  35  55  84 113 144 184 226 271 327
#     4  10  20  35  56  81 109 145 184 225 274 326
#
# _framework density 21.083047000000001
#
# number of rings (size 3 to 8) (size 9 to 14) (size 15 to 20)
#    0.000    2.000    1.667    1.750    0.000    3.000 
#    0.000    3.750    0.000    0.000    0.000    0.000 
#    0.000    0.000    0.000    0.000    0.000    0.000 
#
# Total GULP energy -267768.085841 kJ/mol
# GULP energy per Si atom -5578.501788 kJ/mol
# Density = 2.103506 g / cm^3
# Si number density = 21.083047 Si / 1000 Ang^3
#
#
#
# Elastic Constant Matrix: (Units=GPa)
#
#
# Indices 1 2 3 4 5 6 
#
# 1 22.3651 17.4082 7.9907 0.0000 0.0000 0.0000
# 2 17.4082 121.6584 82.7051 0.0000 0.0000 0.0000
# 3 7.9907 82.7051 151.4455 0.0000 0.0000 0.0000
# 4 0.0000 0.0000 0.0000 25.9308 0.0000 0.0000
# 5 0.0000 0.0000 0.0000 0.0000 24.1397 0.0000
# 6 0.0000 0.0000 0.0000 0.0000 0.0000 14.2296
#
#
#
# Elastic Compliance Matrix: (Units=1/GPa)
#
#
# Indices 1 2 3 4 5 6 
#
# 1 0.050713 -0.008648 0.002047 0.000000 0.000000 0.000000
# 2 -0.008648 0.014548 -0.007488 0.000000 0.000000 0.000000
# 3 0.002047 -0.007488 0.010584 0.000000 0.000000 0.000000
# 4 0.000000 0.000000 0.000000 0.038564 0.000000 0.000000
# 5 0.000000 0.000000 0.000000 0.000000 0.041426 0.000000
# 6 0.000000 0.000000 0.000000 0.000000 0.000000 0.070276
#
#
# Mechanical properties :
#
#
# Convention : Reuss Voigt Hill
#
# Bulk Modulus (GPa) = 20.97929 56.85302 38.91615
# Shear Modulus (GPa) = 18.50630 25.35102 21.92866
#
# Velocity S-wave (km/s) = 2.96595 3.47138 3.22857
# Velocity P-wave (km/s) = 4.65849 6.56445 5.69182
#
# Compressibility (1/GPa) = 0.04766605
#
# Stress axis : x y z
#
# Youngs Moduli (GPa) = 19.71896 68.73837 94.47798
#
# Poissons Ratio (x) = 0.59446 -0.19340
# Poissons Ratio (y) = 0.17053 0.70749
# Poissons Ratio (z) = -0.04037 0.51474
#
# Static dielectric constant tensor:
#      x y z
#    x 1.810000 0.000000 0.000000 
#    y 0.000000 1.780940 0.000000 
#    z 0.000000 0.000000 1.671380 
# 
# From -- ./inp_files/60015.got.cif
#   From: 2010.05.17/outbox.cif.g08.bks.cpg/sg63_31_cif.got.tgz:60015.got - 2010.06.03 15:47:04.
