data_PCOD9470116
_publ_section_title
;
Structure prediction by ZEFSAII (Michael W. Deem and Ramdas Pophale) SiO2 
 PCOD9470116
Probable space group: C M C M
;
_chemical_formula_sum "Si O2"
_cell_formula_units_Z 104
_cell_length_a 27.375052
_cell_length_b 24.655498
_cell_length_c 9.123372
_cell_angle_alpha 90.000000
_cell_angle_beta 90.000000
_cell_angle_gamma 90.000000
_cell_volume 6157.779240
_symmetry_space_group_name_H-M "C M C M"
_symmetry_group_IT_number 63
_symmetry_cell_setting 'orthorhombic'
loop_
_space_group_symop_operation_xyz
x,y,z
-x,-y,1/2+z
x,-y,-z
-x,y,1/2-z
-x,-y,-z
x,y,1/2-z
-x,y,z
x,-y,1/2+z
1/2+x,1/2+y,z
1/2-x,1/2-y,1/2+z
1/2+x,1/2-y,-z
1/2-x,1/2+y,1/2-z
1/2-x,1/2-y,-z
1/2+x,1/2+y,1/2-z
1/2-x,1/2+y,z
1/2+x,1/2-y,1/2+z
loop_
_atom_site_type_symbol
_atom_site_label
_atom_site_fract_x
_atom_site_fract_y
_atom_site_fract_z
Si Si1 0.056023 0.054037 0.922579
Si Si2 0.112164 0.856122 0.916773
Si Si3 0.000000 0.560182 0.427804
Si Si4 0.054833 0.746515 0.916339
Si Si5 0.285267 0.311018 0.920700
Si Si6 0.686847 0.186771 0.925566
Si Si7 0.911559 0.643160 0.075662
O O1 0.056017 0.046355 0.750000
O O2 0.000000 0.063202 0.971828
O O3 0.088115 0.104258 0.969459
O O4 0.074404 0.000000 0.000000
O O5 0.099080 0.872438 0.750000
O O6 0.090993 0.795956 0.938071
O O7 0.170030 0.852150 0.929351
O O8 0.000000 0.500000 0.500000
O O9 0.049652 0.595000 0.466967
O O10 0.000000 0.555287 0.250000
O O11 0.062946 0.724808 0.750000
O O12 0.000000 0.768139 0.922932
O O13 0.061426 0.698734 0.030872
O O14 0.269963 0.305325 0.750000
O O15 0.307514 0.251590 0.963813
O O16 0.239815 0.331163 0.015769
O O17 0.682310 0.183062 0.750000
O O18 0.641493 0.154020 0.998041
O O19 0.904049 0.638923 0.250000
#
# Coordination Sequence:
#
# PCOD9470116 Si02
#       7
#    16  16   8  16  16  16  16
#     4  10  21  36  53  74 101 138 183 224 266 314
#     4  10  19  33  52  76 108 142 178 221 266 316
#     4  10  24  42  60  84 110 144 187 230 275 328
#     4  10  19  31  49  76 109 144 178 213 264 325
#     4   9  18  32  50  76 110 144 180 219 264 318
#     4  10  19  33  52  77 108 145 184 216 261 322
#     4  11  21  35  54  79 111 141 175 220 272 323
#
# _framework density 16.889205
#
# number of rings (size 3 to 8) (size 9 to 14) (size 15 to 20)
#    0.000    2.000    2.308    1.846    0.000    4.615 
#    0.000    0.000    0.000    0.923    0.000    4.308 
#    0.000    0.000    0.000    0.000    0.000    0.000 
#
# Total GULP energy -289574.475845 kJ/mol
# GULP energy per Si atom -5568.739920 kJ/mol
# Density = 1.685076 g / cm^3
# Si number density = 16.889205 Si / 1000 Ang^3
#
#
#
# Elastic Constant Matrix: (Units=GPa)
#
#
# Indices 1 2 3 4 5 6 
#
# 1 115.1656 34.2242 44.2378 0.0000 0.0000 0.0000
# 2 34.2242 35.4759 28.5119 0.0000 0.0000 0.0000
# 3 44.2378 28.5119 49.3866 0.0000 0.0000 0.0000
# 4 0.0000 0.0000 0.0000 28.4098 0.0000 0.0000
# 5 0.0000 0.0000 0.0000 0.0000 -0.6844 0.0000
# 6 0.0000 0.0000 0.0000 0.0000 0.0000 24.0049
#
#
#
# Elastic Compliance Matrix: (Units=1/GPa)
#
#
# Indices 1 2 3 4 5 6 
#
# 1 0.013972 -0.006381 -0.008831 0.000000 0.000000 0.000000
# 2 -0.006381 0.055503 -0.026327 0.000000 0.000000 0.000000
# 3 -0.008831 -0.026327 0.043358 0.000000 0.000000 0.000000
# 4 0.000000 0.000000 0.000000 0.035199 0.000000 0.000000
# 5 0.000000 0.000000 0.000000 0.000000 -1.461240 0.000000
# 6 0.000000 0.000000 0.000000 0.000000 0.000000 0.041658
#
#
# Mechanical properties :
#
#
# Convention : Reuss Voigt Hill
#
# Bulk Modulus (GPa) = 33.60896 45.99732 39.80314
# Shear Modulus (GPa) = -4.24249 16.54970 6.15360
#
# Velocity S-wave (km/s) = -1.58663 3.13373 1.91087
# Velocity P-wave (km/s) = 4.07263 6.35512 5.33732
#
# Compressibility (1/GPa) = 0.02975397
#
# Stress axis : x y z
#
# Youngs Moduli (GPa) = 71.57338 18.01688 23.06368
#
# Poissons Ratio (x) = 0.11497 0.20368
# Poissons Ratio (y) = 0.45672 0.60721
# Poissons Ratio (z) = 0.63207 0.47434
#
# Static dielectric constant tensor:
#      x y z
#    x 1.607800 0.000000 0.000000 
#    y 0.000000 1.559830 0.000000 
#    z 0.000000 0.000000 1.586000 
# 
# From -- ./inp_files/12899.got.cif
#   From: 2010.05.17/outbox.cif.g08.bks.cpg/sg63_7_cif.got.tgz:12899.got - 2010.06.03 15:47:04.
