data_PCOD9470323
_publ_section_title
;
Structure prediction by ZEFSAII (Michael W. Deem and Ramdas Pophale) SiO2 
 PCOD9470323
Probable space group: C M C M
;
_chemical_formula_sum "Si O2"
_cell_formula_units_Z 96
_cell_length_a 23.927136
_cell_length_b 24.729649
_cell_length_c 9.094460
_cell_angle_alpha 90.000000
_cell_angle_beta 90.000000
_cell_angle_gamma 90.000000
_cell_volume 5381.279970
_symmetry_space_group_name_H-M "C M C M"
_symmetry_group_IT_number 63
_symmetry_cell_setting 'orthorhombic'
loop_
_space_group_symop_operation_xyz
x,y,z
-x,-y,1/2+z
x,-y,-z
-x,y,1/2-z
-x,-y,-z
x,y,1/2-z
-x,y,z
x,-y,1/2+z
1/2+x,1/2+y,z
1/2-x,1/2-y,1/2+z
1/2+x,1/2-y,-z
1/2-x,1/2+y,1/2-z
1/2-x,1/2-y,-z
1/2+x,1/2+y,1/2-z
1/2-x,1/2+y,z
1/2+x,1/2-y,1/2+z
loop_
_atom_site_type_symbol
_atom_site_label
_atom_site_fract_x
_atom_site_fract_y
_atom_site_fract_z
Si Si1 0.934897 0.850936 0.576591
Si Si2 0.356747 0.851140 0.078965
Si Si3 0.562083 0.950595 0.081098
Si Si4 0.064500 0.733875 0.073402
Si Si5 0.228922 0.557910 0.924082
Si Si6 0.638077 0.442737 0.423841
O O1 0.922268 0.845391 0.750000
O O2 0.929282 0.793262 0.496442
O O3 0.895984 0.895243 0.501218
O O4 0.000000 0.867308 0.562896
O O5 0.346631 0.835004 0.250000
O O6 0.405491 0.895598 0.075145
O O7 0.304372 0.888034 0.025024
O O8 0.384619 0.802549 0.988346
O O9 0.557990 0.966483 0.250000
O O10 0.500000 0.943437 0.017908
O O11 0.590753 0.000000 0.000000
O O12 0.067348 0.735854 0.250000
O O13 0.000000 0.715358 0.034854
O O14 0.215285 0.552536 0.750000
O O15 0.295273 0.566510 0.940478
O O16 0.216438 0.500000 0.000000
O O17 0.624966 0.500000 0.500000
O O18 0.625759 0.445016 0.250000
#
# Coordination Sequence:
#
# PCOD9470323 Si02
#       6
#    16  16  16  16  16  16
#     4  10  21  38  60  84 109 138 172 212 262 318
#     4  10  19  32  50  72 100 137 181 222 262 311
#     4   9  17  27  40  61  90 124 163 211 264 310
#     4  10  21  36  54  78 107 139 177 222 270 318
#     4   9  19  34  53  78 108 143 181 223 268 313
#     4  10  20  36  58  84 114 144 175 212 258 313
#
# _framework density 17.839621000000001
#
# number of rings (size 3 to 8) (size 9 to 14) (size 15 to 20)
#    0.000    2.333    0.000    2.500    0.000    5.000 
#    0.000    2.500    0.000    0.000    0.000    0.000 
#    0.000    0.000    0.000    0.000    0.000    0.000 
#
# Total GULP energy -267414.839184 kJ/mol
# GULP energy per Si atom -5571.142483 kJ/mol
# Density = 1.779902 g / cm^3
# Si number density = 17.839621 Si / 1000 Ang^3
#
#
#
# Elastic Constant Matrix: (Units=GPa)
#
#
# Indices 1 2 3 4 5 6 
#
# 1 71.0280 60.2890 51.9531 0.0000 0.0000 0.0000
# 2 60.2890 105.2685 62.3969 0.0000 0.0000 0.0000
# 3 51.9531 62.3969 81.9042 0.0000 0.0000 0.0000
# 4 0.0000 0.0000 0.0000 35.6801 0.0000 0.0000
# 5 0.0000 0.0000 0.0000 0.0000 23.3235 0.0000
# 6 0.0000 0.0000 0.0000 0.0000 0.0000 41.4544
#
#
#
# Elastic Compliance Matrix: (Units=1/GPa)
#
#
# Indices 1 2 3 4 5 6 
#
# 1 0.032632 -0.011706 -0.011781 0.000000 0.000000 0.000000
# 2 -0.011706 0.021520 -0.008970 0.000000 0.000000 0.000000
# 3 -0.011781 -0.008970 0.026516 0.000000 0.000000 0.000000
# 4 0.000000 0.000000 0.000000 0.028027 0.000000 0.000000
# 5 0.000000 0.000000 0.000000 0.000000 0.042875 0.000000
# 6 0.000000 0.000000 0.000000 0.000000 0.000000 0.024123
#
#
# Mechanical properties :
#
#
# Convention : Reuss Voigt Hill
#
# Bulk Modulus (GPa) = 63.47247 67.49765 65.48506
# Shear Modulus (GPa) = 20.33691 25.66239 22.99965
#
# Velocity S-wave (km/s) = 3.38003 3.79688 3.59450
# Velocity P-wave (km/s) = 7.13369 7.55908 7.34946
#
# Compressibility (1/GPa) = 0.01575486
#
# Stress axis : x y z
#
# Youngs Moduli (GPa) = 30.64444 46.46792 37.71333
#
# Poissons Ratio (x) = 0.54394 0.44432
# Poissons Ratio (y) = 0.35872 0.33827
# Poissons Ratio (z) = 0.36104 0.41680
#
# Static dielectric constant tensor:
#      x y z
#    x 1.642490 0.000000 0.000000 
#    y 0.000000 1.588370 0.000000 
#    z 0.000000 0.000000 1.610700 
# 
# From -- ./inp_files/10477.got.cif
#   From: 2010.05.17/outbox.cif.g08.bks.cpg/sg63_6_cif.got.tgz:10477.got - 2010.06.03 15:47:04.
