data_PCOD9470265
_publ_section_title
;
Structure prediction by ZEFSAII (Michael W. Deem and Ramdas Pophale) SiO2 
 PCOD9470265
Probable space group: C M C M
;
_chemical_formula_sum "Si O2"
_cell_formula_units_Z 80
_cell_length_a 29.949638
_cell_length_b 7.041825
_cell_length_c 15.713135
_cell_angle_alpha 90.000000
_cell_angle_beta 90.000000
_cell_angle_gamma 90.000000
_cell_volume 3313.901894
_symmetry_space_group_name_H-M "C M C M"
_symmetry_group_IT_number 63
_symmetry_cell_setting 'orthorhombic'
loop_
_space_group_symop_operation_xyz
x,y,z
-x,-y,1/2+z
x,-y,-z
-x,y,1/2-z
-x,-y,-z
x,y,1/2-z
-x,y,z
x,-y,1/2+z
1/2+x,1/2+y,z
1/2-x,1/2-y,1/2+z
1/2+x,1/2-y,-z
1/2-x,1/2+y,1/2-z
1/2-x,1/2-y,-z
1/2+x,1/2+y,1/2-z
1/2-x,1/2+y,z
1/2+x,1/2-y,1/2+z
loop_
_atom_site_type_symbol
_atom_site_label
_atom_site_fract_x
_atom_site_fract_y
_atom_site_fract_z
Si Si1 0.378609 0.813962 0.653042
Si Si2 0.791307 0.552803 0.405307
Si Si3 0.698135 0.354386 0.844884
Si Si4 0.450063 0.771186 0.986520
Si Si5 0.099757 0.230035 0.152399
O O1 0.385930 0.752309 0.750000
O O2 0.326336 0.791837 0.627995
O O3 0.412817 0.731261 0.584570
O O4 0.388845 0.042822 0.649799
O O5 0.806471 0.500000 0.500000
O O6 0.738795 0.593438 0.406012
O O7 0.796796 0.373760 0.344357
O O8 0.706494 0.429079 0.750000
O O9 0.646290 0.378257 0.866957
O O10 0.500000 0.713634 0.961772
O O11 0.435328 0.692385 0.078236
O O12 0.450698 0.000000 0.000000
O O13 0.086292 0.189847 0.250000
#
# Coordination Sequence:
#
# PCOD9470265 Si02
#       5
#    16  16  16  16  16
#     4   9  16  27  41  58  85 120 154 190 237 285
#     4  11  20  31  48  70  96 129 165 202 242 289
#     4  10  19  32  48  68  96 129 163 198 241 293
#     4   9  16  25  38  58  84 114 151 191 230 280
#     4   8  15  27  42  60  86 119 151 188 236 285
#
# _framework density 24.140726000000001
#
# number of rings (size 3 to 8) (size 9 to 14) (size 15 to 20)
#    0.000    2.600    0.000    6.600    0.000    0.800 
#    0.000    4.000    0.000    0.000    0.000    0.000 
#    0.000    7.200    0.000   11.200    0.000   20.200 
#
# Total GULP energy -223564.980567 kJ/mol
# GULP energy per Si atom -5589.124514 kJ/mol
# Density = 2.408578 g / cm^3
# Si number density = 24.140726 Si / 1000 Ang^3
#
#
#
# Elastic Constant Matrix: (Units=GPa)
#
#
# Indices 1 2 3 4 5 6 
#
# 1 150.0795 0.7931 87.5228 0.0000 0.0000 0.0000
# 2 0.7931 63.7904 4.1495 0.0000 0.0000 0.0000
# 3 87.5228 4.1495 167.1813 0.0000 0.0000 0.0000
# 4 0.0000 0.0000 0.0000 2.7766 0.0000 0.0000
# 5 0.0000 0.0000 0.0000 0.0000 26.0147 0.0000
# 6 0.0000 0.0000 0.0000 0.0000 0.0000 20.6612
#
#
#
# Elastic Compliance Matrix: (Units=1/GPa)
#
#
# Indices 1 2 3 4 5 6 
#
# 1 0.009594 0.000208 -0.005028 0.000000 0.000000 0.000000
# 2 0.000208 0.015706 -0.000499 0.000000 0.000000 0.000000
# 3 -0.005028 -0.000499 0.008626 0.000000 0.000000 0.000000
# 4 0.000000 0.000000 0.000000 0.360154 0.000000 0.000000
# 5 0.000000 0.000000 0.000000 0.000000 0.038440 0.000000
# 6 0.000000 0.000000 0.000000 0.000000 0.000000 0.048400
#
#
# Mechanical properties :
#
#
# Convention : Reuss Voigt Hill
#
# Bulk Modulus (GPa) = 42.93873 62.88692 52.91282
# Shear Modulus (GPa) = 10.01361 29.12956 19.57158
#
# Velocity S-wave (km/s) = 2.03888 3.47746 2.85042
# Velocity P-wave (km/s) = 4.83406 6.49849 5.72706
#
# Compressibility (1/GPa) = 0.02328900
#
# Stress axis : x y z
#
# Youngs Moduli (GPa) = 104.22969 63.66919 115.92698
#
# Poissons Ratio (x) = -0.01323 0.58287
# Poissons Ratio (y) = -0.02166 0.05780
# Poissons Ratio (z) = 0.52406 0.03175
#
# Static dielectric constant tensor:
#      x y z
#    x 1.901910 0.000000 0.000000 
#    y 0.000000 2.047480 0.000000 
#    z 0.000000 0.000000 1.832790 
# 
# From -- ./inp_files/36436.got.cif
#   From: 2010.05.17/outbox.cif.g08.bks.cpg/sg63_19_cif.got.tgz:36436.got - 2010.06.03 15:47:04.
