data_PCOD9470129
_publ_section_title
;
Structure prediction by ZEFSAII (Michael W. Deem and Ramdas Pophale) SiO2 
 PCOD9470129
Probable space group: C M C M
;
_chemical_formula_sum "Si O2"
_cell_formula_units_Z 96
_cell_length_a 8.836673
_cell_length_b 18.952243
_cell_length_c 32.630532
_cell_angle_alpha 90.000000
_cell_angle_beta 90.000000
_cell_angle_gamma 90.000000
_cell_volume 5464.790972
_symmetry_space_group_name_H-M "C M C M"
_symmetry_group_IT_number 63
_symmetry_cell_setting 'orthorhombic'
loop_
_space_group_symop_operation_xyz
x,y,z
-x,-y,1/2+z
x,-y,-z
-x,y,1/2-z
-x,-y,-z
x,y,1/2-z
-x,y,z
x,-y,1/2+z
1/2+x,1/2+y,z
1/2-x,1/2-y,1/2+z
1/2+x,1/2-y,-z
1/2-x,1/2+y,1/2-z
1/2-x,1/2-y,-z
1/2+x,1/2+y,1/2-z
1/2-x,1/2+y,z
1/2+x,1/2-y,1/2+z
loop_
_atom_site_type_symbol
_atom_site_label
_atom_site_fract_x
_atom_site_fract_y
_atom_site_fract_z
Si Si1 0.318183 0.922520 0.164741
Si Si2 0.324032 0.590413 0.250000
Si Si3 0.174745 0.081164 0.750000
Si Si4 0.182256 0.671039 0.497055
Si Si5 0.683392 0.164899 0.586703
Si Si6 0.818463 0.169886 0.087358
Si Si7 0.680886 0.088927 0.335858
O O1 0.500000 0.916658 0.166725
O O2 0.252342 0.895699 0.207800
O O3 0.261227 0.880102 0.125146
O O4 0.282336 0.005510 0.160384
O O5 0.500000 0.610467 0.250000
O O6 0.315452 0.504640 0.250000
O O7 0.243801 0.613797 0.291840
O O8 0.000000 0.101273 0.750000
O O9 0.250000 0.750000 0.500000
O O10 0.225194 0.637892 0.541136
O O11 0.249463 0.640544 0.455169
O O12 0.000000 0.673963 0.494391
O O13 0.500000 0.162957 0.587942
O O14 0.726255 0.247238 0.590402
O O15 0.756090 0.129696 0.126671
O O16 0.000000 0.166386 0.085548
O O17 0.500000 0.096533 0.336945
#
# Coordination Sequence:
#
# PCOD9470129 Si02
#       7
#    16   8   8  16  16  16  16
#     4   9  17  32  52  71  92 122 160 196 231 277
#     4   9  17  31  50  69  94 127 159 191 230 283
#     4   9  17  29  46  71  98 123 153 189 234 283
#     4   9  16  29  49  71  95 124 160 198 237 284
#     4   8  16  31  51  72  92 121 161 198 232 278
#     4  10  19  32  50  71  97 128 162 197 235 283
#     4  10  19  31  50  74  97 122 156 198 239 279
#
# _framework density 17.567003
#
# number of rings (size 3 to 8) (size 9 to 14) (size 15 to 20)
#    0.000    2.833    0.000    3.000    0.000    2.667 
#    0.000    6.667    0.000    7.000    0.000    0.000 
#    0.000    0.000    0.000    0.000    0.000    0.000 
#
# Total GULP energy -267379.048246 kJ/mol
# GULP energy per Si atom -5570.396838 kJ/mol
# Density = 1.752702 g / cm^3
# Si number density = 17.567003 Si / 1000 Ang^3
#
#
#
# Elastic Constant Matrix: (Units=GPa)
#
#
# Indices 1 2 3 4 5 6 
#
# 1 52.0322 26.8894 63.6337 0.0000 0.0000 0.0000
# 2 26.8894 29.3303 59.6714 0.0000 0.0000 0.0000
# 3 63.6337 59.6714 230.9493 0.0000 0.0000 0.0000
# 4 0.0000 0.0000 0.0000 32.6389 0.0000 0.0000
# 5 0.0000 0.0000 0.0000 0.0000 34.3163 0.0000
# 6 0.0000 0.0000 0.0000 0.0000 0.0000 15.2025
#
#
#
# Elastic Compliance Matrix: (Units=1/GPa)
#
#
# Indices 1 2 3 4 5 6 
#
# 1 0.037519 -0.028176 -0.003058 0.000000 0.000000 0.000000
# 2 -0.028176 0.093035 -0.016275 0.000000 0.000000 0.000000
# 3 -0.003058 -0.016275 0.009377 0.000000 0.000000 0.000000
# 4 0.000000 0.000000 0.000000 0.030638 0.000000 0.000000
# 5 0.000000 0.000000 0.000000 0.000000 0.029141 0.000000
# 6 0.000000 0.000000 0.000000 0.000000 0.000000 0.065779
#
#
# Mechanical properties :
#
#
# Convention : Reuss Voigt Hill
#
# Bulk Modulus (GPa) = 22.26396 68.07787 45.17092
# Shear Modulus (GPa) = 13.31635 27.23936 20.27786
#
# Velocity S-wave (km/s) = 2.75623 3.94204 3.40121
# Velocity P-wave (km/s) = 4.77811 7.71731 6.41822
#
# Compressibility (1/GPa) = 0.04491564
#
# Stress axis : x y z
#
# Youngs Moduli (GPa) = 26.65298 10.74859 106.63879
#
# Poissons Ratio (x) = 0.30285 0.32608
# Poissons Ratio (y) = 0.75097 1.73551
# Poissons Ratio (z) = 0.08150 0.17493
#
# Static dielectric constant tensor:
#      x y z
#    x 1.587730 0.000000 0.000000 
#    y 0.000000 1.593580 0.000000 
#    z 0.000000 0.000000 1.623890 
# 
# From -- ./inp_files/67303.got.cif
#   From: 2010.05.17/outbox.cif.g08.bks.cpg/sg63_34_cif.got.tgz:67303.got - 2010.06.03 15:47:04.
