data_PCOD9470530
_publ_section_title
;
Structure prediction by ZEFSAII (Michael W. Deem and Ramdas Pophale) SiO2 
 PCOD9470530
Probable space group: C M C M
;
_chemical_formula_sum "Si O2"
_cell_formula_units_Z 64
_cell_length_a 14.258655
_cell_length_b 13.249138
_cell_length_c 14.518085
_cell_angle_alpha 90.000000
_cell_angle_beta 90.000000
_cell_angle_gamma 90.000000
_cell_volume 2742.682399
_symmetry_space_group_name_H-M "C M C M"
_symmetry_group_IT_number 63
_symmetry_cell_setting 'orthorhombic'
loop_
_space_group_symop_operation_xyz
x,y,z
-x,-y,1/2+z
x,-y,-z
-x,y,1/2-z
-x,-y,-z
x,y,1/2-z
-x,y,z
x,-y,1/2+z
1/2+x,1/2+y,z
1/2-x,1/2-y,1/2+z
1/2+x,1/2-y,-z
1/2-x,1/2+y,1/2-z
1/2-x,1/2-y,-z
1/2+x,1/2+y,1/2-z
1/2-x,1/2+y,z
1/2+x,1/2-y,1/2+z
loop_
_atom_site_type_symbol
_atom_site_label
_atom_site_fract_x
_atom_site_fract_y
_atom_site_fract_z
Si Si1 0.611889 0.256127 0.354412
Si Si2 0.389920 0.857389 0.466788
Si Si3 0.267423 0.458272 0.140379
Si Si4 0.391422 0.352243 0.859498
O O1 0.633091 0.223745 0.250000
O O2 0.500000 0.275305 0.361626
O O3 0.635384 0.171597 0.428882
O O4 0.666817 0.359545 0.372740
O O5 0.500000 0.882906 0.461769
O O6 0.326127 0.937715 0.415976
O O7 0.375230 0.751687 0.412227
O O8 0.248345 0.465204 0.250000
O O9 0.324795 0.556871 0.111538
O O10 0.379185 0.335129 0.750000
O O11 0.500000 0.381854 0.874550
#
# Coordination Sequence:
#
# PCOD9470530 Si02
#       4
#    16  16  16  16
#     4   9  18  33  53  79 111 147 189 237 286 333
#     4  10  20  34  56  84 113 148 189 233 282 339
#     4  10  19  32  53  80 113 150 185 229 285 340
#     4   9  18  33  54  83 116 148 187 234 281 333
#
# _framework density 23.334819
#
# number of rings (size 3 to 8) (size 9 to 14) (size 15 to 20)
#    0.000    2.500    0.000    2.250    0.000    5.500 
#    0.000    3.750    0.000    4.500    0.000   12.250 
#    0.000    0.000    0.000    0.000    0.000    0.500 
#
# Total GULP energy -179435.428432 kJ/mol
# GULP energy per Si atom -5607.357138 kJ/mol
# Density = 2.328171 g / cm^3
# Si number density = 23.334819 Si / 1000 Ang^3
#
#
#
# Elastic Constant Matrix: (Units=GPa)
#
#
# Indices 1 2 3 4 5 6 
#
# 1 117.3752 80.1909 70.2568 0.0000 0.0000 0.0000
# 2 80.1909 129.2580 76.6019 0.0000 0.0000 0.0000
# 3 70.2568 76.6019 92.0417 0.0000 0.0000 0.0000
# 4 0.0000 0.0000 0.0000 102.6106 0.0000 0.0000
# 5 0.0000 0.0000 0.0000 0.0000 28.2561 0.0000
# 6 0.0000 0.0000 0.0000 0.0000 0.0000 38.9241
#
#
#
# Elastic Compliance Matrix: (Units=1/GPa)
#
#
# Indices 1 2 3 4 5 6 
#
# 1 0.017685 -0.005864 -0.008619 0.000000 0.000000 0.000000
# 2 -0.005864 0.017210 -0.009847 0.000000 0.000000 0.000000
# 3 -0.008619 -0.009847 0.025639 0.000000 0.000000 0.000000
# 4 0.000000 0.000000 0.000000 0.009746 0.000000 0.000000
# 5 0.000000 0.000000 0.000000 0.000000 0.035391 0.000000
# 6 0.000000 0.000000 0.000000 0.000000 0.000000 0.025691
#
#
# Mechanical properties :
#
#
# Convention : Reuss Voigt Hill
#
# Bulk Modulus (GPa) = 84.21760 88.08601 86.15181
# Shear Modulus (GPa) = 27.17702 41.39983 34.28842
#
# Velocity S-wave (km/s) = 3.41641 4.21665 3.83745
# Velocity P-wave (km/s) = 7.19248 7.84459 7.52560
#
# Compressibility (1/GPa) = 0.01187400
#
# Stress axis : x y z
#
# Youngs Moduli (GPa) = 56.54573 58.10567 39.00304
#
# Poissons Ratio (x) = 0.34071 0.33617
# Poissons Ratio (y) = 0.33157 0.38407
# Poissons Ratio (z) = 0.48737 0.57218
#
# Static dielectric constant tensor:
#      x y z
#    x 1.854830 0.000000 0.000000 
#    y 0.000000 1.822860 0.000000 
#    z 0.000000 0.000000 1.870420 
# 
# From -- ./inp_files/31113.got.cif
#   From: 2010.05.17/outbox.cif.g08.bks.cpg/sg63_16_cif.got.tgz:31113.got - 2010.06.03 15:47:04.
