data_PCOD9470769
_publ_section_title
;
Structure prediction by ZEFSAII (Michael W. Deem and Ramdas Pophale) SiO2 
 PCOD9470769
Probable space group: C M C M
;
_chemical_formula_sum "Si O2"
_cell_formula_units_Z 112
_cell_length_a 29.841249
_cell_length_b 15.236745
_cell_length_c 14.390447
_cell_angle_alpha 90.000000
_cell_angle_beta 90.000000
_cell_angle_gamma 90.000000
_cell_volume 6543.098830
_symmetry_space_group_name_H-M "C M C M"
_symmetry_group_IT_number 63
_symmetry_cell_setting 'orthorhombic'
loop_
_space_group_symop_operation_xyz
x,y,z
-x,-y,1/2+z
x,-y,-z
-x,y,1/2-z
-x,-y,-z
x,y,1/2-z
-x,y,z
x,-y,1/2+z
1/2+x,1/2+y,z
1/2-x,1/2-y,1/2+z
1/2+x,1/2-y,-z
1/2-x,1/2+y,1/2-z
1/2-x,1/2-y,-z
1/2+x,1/2+y,1/2-z
1/2-x,1/2+y,z
1/2+x,1/2-y,1/2+z
loop_
_atom_site_type_symbol
_atom_site_label
_atom_site_fract_x
_atom_site_fract_y
_atom_site_fract_z
Si Si1 0.290676 0.747260 0.138341
Si Si2 0.643731 0.228714 0.472762
Si Si3 0.928006 0.508854 0.854544
Si Si4 0.169640 0.542144 0.398774
Si Si5 0.728944 0.548748 0.144485
Si Si6 0.050118 0.650016 0.490994
Si Si7 0.700668 0.639051 0.637699
O O1 0.299655 0.751196 0.250000
O O2 0.279736 0.646649 0.108273
O O3 0.246785 0.806732 0.121091
O O4 0.331128 0.776983 0.072168
O O5 0.659326 0.144696 0.412428
O O6 0.590574 0.218537 0.484051
O O7 0.661324 0.312739 0.417314
O O8 0.944562 0.513303 0.750000
O O9 0.873836 0.501965 0.854096
O O10 0.942374 0.591115 0.916860
O O11 0.944289 0.421481 0.908116
O O12 0.173156 0.500000 0.500000
O O13 0.217778 0.532280 0.353492
O O14 0.712200 0.552474 0.250000
O O15 0.707479 0.460767 0.103854
O O16 0.000000 0.686189 0.489498
O O17 0.693665 0.640824 0.750000
#
# Coordination Sequence:
#
# PCOD9470769 Si02
#       7
#    16  16  16  16  16  16  16
#     4  10  21  35  50  75 110 143 178 216 255 308
#     4  11  21  35  52  74 103 141 174 217 266 306
#     4  10  19  33  54  76 104 140 176 215 262 314
#     4  11  19  31  48  77 107 144 179 211 247 304
#     4  10  21  33  49  75 110 148 181 213 253 307
#     4  10  22  38  51  74 104 131 178 230 270 316
#     4  10  21  34  52  78 107 139 176 216 255 311
#
# _framework density 17.117270999999999
#
# number of rings (size 3 to 8) (size 9 to 14) (size 15 to 20)
#    0.000    1.714    4.286    2.571    2.000    4.000 
#    0.000    0.000    0.000    0.000    0.000    2.000 
#    0.000    3.429    0.000    0.000    0.000    0.000 
#
# Total GULP energy -312534.594037 kJ/mol
# GULP energy per Si atom -5580.974894 kJ/mol
# Density = 1.707831 g / cm^3
# Si number density = 17.117271 Si / 1000 Ang^3
#
#
#
# Elastic Constant Matrix: (Units=GPa)
#
#
# Indices 1 2 3 4 5 6 
#
# 1 120.5146 27.3129 27.3115 0.0000 0.0000 0.0000
# 2 27.3129 71.7254 18.2784 0.0000 0.0000 0.0000
# 3 27.3115 18.2784 90.1583 0.0000 0.0000 0.0000
# 4 0.0000 0.0000 0.0000 -8.2740 0.0000 0.0000
# 5 0.0000 0.0000 0.0000 0.0000 -14.0605 0.0000
# 6 0.0000 0.0000 0.0000 0.0000 0.0000 17.4856
#
#
#
# Elastic Compliance Matrix: (Units=1/GPa)
#
#
# Indices 1 2 3 4 5 6 
#
# 1 0.009499 -0.003041 -0.002261 0.000000 0.000000 0.000000
# 2 -0.003041 0.015675 -0.002257 0.000000 0.000000 0.000000
# 3 -0.002261 -0.002257 0.012234 0.000000 0.000000 0.000000
# 4 0.000000 0.000000 0.000000 -0.120860 0.000000 0.000000
# 5 0.000000 0.000000 0.000000 0.000000 -0.071121 0.000000
# 6 0.000000 0.000000 0.000000 0.000000 0.000000 0.057190
#
#
# Mechanical properties :
#
#
# Convention : Reuss Voigt Hill
#
# Bulk Modulus (GPa) = 44.86151 47.57823 46.21987
# Shear Modulus (GPa) = -66.81394 12.99658 -26.90868
#
# Velocity S-wave (km/s) = -6.25442 2.75847 -3.96917
# Velocity P-wave (km/s) = 5.08840 6.16452 2.46064
#
# Compressibility (1/GPa) = 0.02229082
#
# Stress axis : x y z
#
# Youngs Moduli (GPa) = 105.26988 63.79500 81.73894
#
# Poissons Ratio (x) = 0.19401 0.18482
# Poissons Ratio (y) = 0.32014 0.18446
# Poissons Ratio (z) = 0.23802 0.14397
#
# Static dielectric constant tensor:
#      x y z
#    x 1.574120 0.000000 0.000000 
#    y 0.000000 1.600550 0.000000 
#    z 0.000000 0.000000 1.631070 
# 
# From -- ./inp_files/37958.got.cif
#   From: 2010.05.17/outbox.cif.g08.bks.cpg/sg63_19_cif.got.tgz:37958.got - 2010.06.03 15:47:04.
