data_PCOD9470586
_publ_section_title
;
Structure prediction by ZEFSAII (Michael W. Deem and Ramdas Pophale) SiO2 
 PCOD9470586
Probable space group: C M C M
;
_chemical_formula_sum "Si O2"
_cell_formula_units_Z 88
_cell_length_a 13.321684
_cell_length_b 20.791945
_cell_length_c 18.719323
_cell_angle_alpha 90.000000
_cell_angle_beta 90.000000
_cell_angle_gamma 90.000000
_cell_volume 5184.947740
_symmetry_space_group_name_H-M "C M C M"
_symmetry_group_IT_number 63
_symmetry_cell_setting 'orthorhombic'
loop_
_space_group_symop_operation_xyz
x,y,z
-x,-y,1/2+z
x,-y,-z
-x,y,1/2-z
-x,-y,-z
x,y,1/2-z
-x,y,z
x,-y,1/2+z
1/2+x,1/2+y,z
1/2-x,1/2-y,1/2+z
1/2+x,1/2-y,-z
1/2-x,1/2+y,1/2-z
1/2-x,1/2-y,-z
1/2+x,1/2+y,1/2-z
1/2-x,1/2+y,z
1/2+x,1/2-y,1/2+z
loop_
_atom_site_type_symbol
_atom_site_label
_atom_site_fract_x
_atom_site_fract_y
_atom_site_fract_z
Si Si1 0.804519 0.008928 0.750000
Si Si2 0.618519 0.136624 0.094362
Si Si3 0.793345 0.098806 0.505839
Si Si4 0.113903 0.008858 0.098700
Si Si5 0.118170 0.575477 0.250000
Si Si6 0.619397 0.348631 0.250000
Si Si7 0.619142 0.288178 0.403953
O O1 0.819879 0.085296 0.750000
O O2 0.858905 0.982101 0.680209
O O3 0.690255 0.985880 0.750000
O O4 0.500000 0.125994 0.081312
O O5 0.638775 0.113996 0.176106
O O6 0.639560 0.212728 0.088478
O O7 0.688259 0.101769 0.036053
O O8 0.871268 0.073782 0.445900
O O9 0.820994 0.166044 0.542180
O O10 0.809496 0.044071 0.566264
O O11 0.000000 0.984626 0.090951
O O12 0.000000 0.559988 0.250000
O O13 0.500000 0.364814 0.250000
O O14 0.639786 0.309656 0.322339
O O15 0.500000 0.298509 0.415958
#
# Coordination Sequence:
#
# PCOD9470586 Si02
#       7
#     8  16  16  16   8   8  16
#     4  12  20  36  58  81 106 139 185 222 267 319
#     4  10  21  37  56  77 106 146 187 227 263 315
#     4  11  20  34  52  82 113 141 175 216 281 327
#     4  11  22  35  55  81 114 144 173 224 279 330
#     4  10  21  40  57  77 105 141 188 228 264 310
#     4  10  19  32  55  84 109 138 181 226 269 321
#     4  10  19  33  55  81 110 143 181 223 270 319
#
# _framework density 16.972206
#
# number of rings (size 3 to 8) (size 9 to 14) (size 15 to 20)
#    0.000    1.455    3.636    4.091    0.000    2.182 
#    0.000    2.727    0.000    0.000    0.000    0.000 
#    0.000    0.000    0.000    0.000    0.000    0.000 
#
# Total GULP energy -245391.190633 kJ/mol
# GULP energy per Si atom -5577.072514 kJ/mol
# Density = 1.693358 g / cm^3
# Si number density = 16.972206 Si / 1000 Ang^3
#
#
#
# Elastic Constant Matrix: (Units=GPa)
#
#
# Indices 1 2 3 4 5 6 
#
# 1 79.4075 46.5815 53.2111 0.0000 0.0000 0.0000
# 2 46.5815 62.4611 33.1631 0.0000 0.0000 0.0000
# 3 53.2111 33.1631 132.4314 0.0000 0.0000 0.0000
# 4 0.0000 0.0000 0.0000 25.5761 0.0000 0.0000
# 5 0.0000 0.0000 0.0000 0.0000 29.5086 0.0000
# 6 0.0000 0.0000 0.0000 0.0000 0.0000 26.8713
#
#
#
# Elastic Compliance Matrix: (Units=1/GPa)
#
#
# Indices 1 2 3 4 5 6 
#
# 1 0.026592 -0.016330 -0.006596 0.000000 0.000000 0.000000
# 2 -0.016330 0.028493 -0.000574 0.000000 0.000000 0.000000
# 3 -0.006596 -0.000574 0.010345 0.000000 0.000000 0.000000
# 4 0.000000 0.000000 0.000000 0.039099 0.000000 0.000000
# 5 0.000000 0.000000 0.000000 0.000000 0.033888 0.000000
# 6 0.000000 0.000000 0.000000 0.000000 0.000000 0.037214
#
#
# Mechanical properties :
#
#
# Convention : Reuss Voigt Hill
#
# Bulk Modulus (GPa) = 54.25425 60.02348 57.13886
# Shear Modulus (GPa) = 21.85565 25.81416 23.83491
#
# Velocity S-wave (km/s) = 3.59239 3.90419 3.75153
# Velocity P-wave (km/s) = 7.01733 7.46767 7.24600
#
# Compressibility (1/GPa) = 0.01843174
#
# Stress axis : x y z
#
# Youngs Moduli (GPa) = 37.60498 35.09659 96.66641
#
# Poissons Ratio (x) = 0.57312 0.63757
# Poissons Ratio (y) = 0.61408 0.05546
# Poissons Ratio (z) = 0.24803 0.02014
#
# Static dielectric constant tensor:
#      x y z
#    x 1.568220 0.000000 0.000000 
#    y 0.000000 1.570110 0.000000 
#    z 0.000000 0.000000 1.589460 
# 
# From -- ./inp_files/42300.got.cif
#   From: 2010.05.17/outbox.cif.g08.bks.cpg/sg63_22_cif.got.tgz:42300.got - 2010.06.03 15:47:04.
