data_PCOD9470550
_publ_section_title
;
Structure prediction by ZEFSAII (Michael W. Deem and Ramdas Pophale) SiO2 
 PCOD9470550
Probable space group: C M C M
;
_chemical_formula_sum "Si O2"
_cell_formula_units_Z 112
_cell_length_a 13.861358
_cell_length_b 15.159510
_cell_length_c 26.525204
_cell_angle_alpha 90.000000
_cell_angle_beta 90.000000
_cell_angle_gamma 90.000000
_cell_volume 5573.778125
_symmetry_space_group_name_H-M "C M C M"
_symmetry_group_IT_number 63
_symmetry_cell_setting 'orthorhombic'
loop_
_space_group_symop_operation_xyz
x,y,z
-x,-y,1/2+z
x,-y,-z
-x,y,1/2-z
-x,-y,-z
x,y,1/2-z
-x,y,z
x,-y,1/2+z
1/2+x,1/2+y,z
1/2-x,1/2-y,1/2+z
1/2+x,1/2-y,-z
1/2-x,1/2+y,1/2-z
1/2-x,1/2-y,-z
1/2+x,1/2+y,1/2-z
1/2-x,1/2+y,z
1/2+x,1/2-y,1/2+z
loop_
_atom_site_type_symbol
_atom_site_label
_atom_site_fract_x
_atom_site_fract_y
_atom_site_fract_z
Si Si1 0.110560 0.015020 0.558895
Si Si2 0.286956 0.778580 0.865680
Si Si3 0.885489 0.884931 0.189686
Si Si4 0.255415 0.466610 0.863555
Si Si5 0.609788 0.032395 0.554049
Si Si6 0.390034 0.759159 0.432016
Si Si7 0.884021 0.210081 0.957321
O O1 0.147369 0.115449 0.565705
O O2 0.000000 0.011026 0.574090
O O3 0.114852 0.000000 0.500000
O O4 0.169504 0.946269 0.591137
O O5 0.341058 0.705602 0.832496
O O6 0.277737 0.874319 0.840405
O O7 0.181035 0.750033 0.884899
O O8 0.345109 0.782994 0.919011
O O9 0.881996 0.883578 0.250000
O O10 0.000000 0.893498 0.175291
O O11 0.816554 0.964702 0.169960
O O12 0.167608 0.506724 0.895748
O O13 0.500000 0.997619 0.556799
O O14 0.606614 0.137816 0.553373
O O15 0.651408 0.000000 0.500000
O O16 0.500000 0.729295 0.421752
O O17 0.354489 0.715652 0.484471
O O18 0.000000 0.211597 0.957616
#
# Coordination Sequence:
#
# PCOD9470550 Si02
#       7
#    16  16  16  16  16  16  16
#     4  10  19  32  53  87 132 174 216 266 317 375
#     4  12  23  38  65  94 127 168 213 269 327 395
#     4  11  26  50  75  97 124 163 219 284 342 396
#     4  12  23  38  65  94 127 165 214 269 327 390
#     4  10  20  35  55  86 132 180 219 254 304 379
#     4  10  20  34  53  86 132 176 214 258 310 378
#     4  10  19  33  55  87 130 176 225 267 308 373
#
# _framework density 20.094090000000001
#
# number of rings (size 3 to 8) (size 9 to 14) (size 15 to 20)
#    0.000    1.286    2.857    3.429    0.000    5.143 
#    0.000    0.000    0.000    1.714    0.000    0.000 
#    0.000    0.000    0.000    0.000    0.000    0.000 
#
# Total GULP energy -312655.205125 kJ/mol
# GULP energy per Si atom -5583.128663 kJ/mol
# Density = 2.004835 g / cm^3
# Si number density = 20.094090 Si / 1000 Ang^3
#
#
#
# Elastic Constant Matrix: (Units=GPa)
#
#
# Indices 1 2 3 4 5 6 
#
# 1 106.7759 30.8365 42.6768 0.0000 0.0000 0.0000
# 2 30.8365 110.3356 31.0386 0.0000 0.0000 0.0000
# 3 42.6768 31.0386 87.4736 0.0000 0.0000 0.0000
# 4 0.0000 0.0000 0.0000 18.1176 0.0000 0.0000
# 5 0.0000 0.0000 0.0000 0.0000 32.0464 0.0000
# 6 0.0000 0.0000 0.0000 0.0000 0.0000 12.1017
#
#
#
# Elastic Compliance Matrix: (Units=1/GPa)
#
#
# Indices 1 2 3 4 5 6 
#
# 1 0.011980 -0.001893 -0.005173 0.000000 0.000000 0.000000
# 2 -0.001893 0.010367 -0.002755 0.000000 0.000000 0.000000
# 3 -0.005173 -0.002755 0.014933 0.000000 0.000000 0.000000
# 4 0.000000 0.000000 0.000000 0.055195 0.000000 0.000000
# 5 0.000000 0.000000 0.000000 0.000000 0.031205 0.000000
# 6 0.000000 0.000000 0.000000 0.000000 0.000000 0.082633
#
#
# Mechanical properties :
#
#
# Convention : Reuss Voigt Hill
#
# Bulk Modulus (GPa) = 56.69462 57.07654 56.88558
# Shear Modulus (GPa) = 21.56705 25.78866 23.67786
#
# Velocity S-wave (km/s) = 3.27968 3.58634 3.43643
# Velocity P-wave (km/s) = 6.52822 6.75392 6.64203
#
# Compressibility (1/GPa) = 0.01763836
#
# Stress axis : x y z
#
# Youngs Moduli (GPa) = 83.47504 96.45679 66.96368
#
# Poissons Ratio (x) = 0.18258 0.34640
# Poissons Ratio (y) = 0.15800 0.18450
# Poissons Ratio (z) = 0.43182 0.26576
#
# Static dielectric constant tensor:
#      x y z
#    x 1.761570 0.000000 0.000000 
#    y 0.000000 1.792480 0.000000 
#    z 0.000000 0.000000 1.690650 
# 
# From -- ./inp_files/69421.got.cif
#   From: 2010.05.17/outbox.cif.g08.bks.cpg/sg63_35_cif.got.tgz:69421.got - 2010.06.03 15:47:04.
