data_PCOD9470600
_publ_section_title
;
Structure prediction by ZEFSAII (Michael W. Deem and Ramdas Pophale) SiO2 
 PCOD9470600
Probable space group: C M C M
;
_chemical_formula_sum "Si O2"
_cell_formula_units_Z 100
_cell_length_a 7.422945
_cell_length_b 19.203947
_cell_length_c 28.234874
_cell_angle_alpha 90.000000
_cell_angle_beta 90.000000
_cell_angle_gamma 90.000000
_cell_volume 4024.876838
_symmetry_space_group_name_H-M "C M C M"
_symmetry_group_IT_number 63
_symmetry_cell_setting 'orthorhombic'
loop_
_space_group_symop_operation_xyz
x,y,z
-x,-y,1/2+z
x,-y,-z
-x,y,1/2-z
-x,-y,-z
x,y,1/2-z
-x,y,z
x,-y,1/2+z
1/2+x,1/2+y,z
1/2-x,1/2-y,1/2+z
1/2+x,1/2-y,-z
1/2-x,1/2+y,1/2-z
1/2-x,1/2-y,-z
1/2+x,1/2+y,1/2-z
1/2-x,1/2+y,z
1/2+x,1/2-y,1/2+z
loop_
_atom_site_type_symbol
_atom_site_label
_atom_site_fract_x
_atom_site_fract_y
_atom_site_fract_z
Si Si1 0.702651 0.793637 0.176472
Si Si2 0.782706 0.355105 0.974767
Si Si3 0.711093 0.291664 0.429936
Si Si4 0.720362 0.945006 0.177838
Si Si5 0.279506 0.361492 0.695757
Si Si6 0.000000 0.000646 0.750000
Si Si7 0.708127 0.043805 0.103557
O O1 0.500000 0.791480 0.195406
O O2 0.696313 0.802436 0.119899
O O3 0.780190 0.867421 0.192118
O O4 0.781700 0.718845 0.188318
O O5 0.721972 0.281740 0.951745
O O6 0.711995 0.417613 0.941988
O O7 0.000000 0.355351 0.972378
O O8 0.734856 0.349765 0.029792
O O9 0.500000 0.284278 0.419733
O O10 0.500000 0.950751 0.183448
O O11 0.841205 0.994093 0.209770
O O12 0.769583 0.970127 0.124793
O O13 0.224678 0.379105 0.750000
O O14 0.500000 0.363707 0.695523
O O15 0.217043 0.403509 0.649043
O O16 0.500000 0.032611 0.091785
#
# Coordination Sequence:
#
# PCOD9470600 Si02
#       7
#    16  16  16  16  16   4  16
#     4  10  21  40  60  85 122 163 197 253 309 366
#     4   9  18  34  56  85 119 157 200 244 307 370
#     4  10  19  32  56  88 119 152 200 252 302 367
#     4  10  25  44  65  91 126 162 213 257 309 371
#     4  10  22  36  57  85 117 153 197 247 308 363
#     4  12  26  44  68  94 114 180 210 262 304 374
#     4  10  21  40  60  86 120 159 197 255 305 363
#
# _framework density 24.845479000000001
#
# number of rings (size 3 to 8) (size 9 to 14) (size 15 to 20)
#    0.000    2.080    1.600    0.720    4.480    1.600 
#    0.000    0.800    0.000    4.800    0.000    0.000 
#    0.000    0.000    0.000    0.000    0.000    0.000 
#
# Total GULP energy -278684.791608 kJ/mol
# GULP energy per Si atom -5573.695832 kJ/mol
# Density = 2.478893 g / cm^3
# Si number density = 24.845479 Si / 1000 Ang^3
#
#
#
# Elastic Constant Matrix: (Units=GPa)
#
#
# Indices 1 2 3 4 5 6 
#
# 1 95.3811 -10.7093 -1.9728 0.0000 0.0000 0.0000
# 2 -10.7093 79.9716 -6.7694 0.0000 0.0000 0.0000
# 3 -1.9728 -6.7694 105.9838 0.0000 0.0000 0.0000
# 4 0.0000 0.0000 0.0000 0.7692 0.0000 0.0000
# 5 0.0000 0.0000 0.0000 0.0000 29.7647 0.0000
# 6 0.0000 0.0000 0.0000 0.0000 0.0000 7.1570
#
#
#
# Elastic Compliance Matrix: (Units=1/GPa)
#
#
# Indices 1 2 3 4 5 6 
#
# 1 0.010653 0.001451 0.000291 0.000000 0.000000 0.000000
# 2 0.001451 0.012770 0.000843 0.000000 0.000000 0.000000
# 3 0.000291 0.000843 0.009495 0.000000 0.000000 0.000000
# 4 0.000000 0.000000 0.000000 1.300083 0.000000 0.000000
# 5 0.000000 0.000000 0.000000 0.000000 0.033597 0.000000
# 6 0.000000 0.000000 0.000000 0.000000 0.000000 0.139723
#
#
# Mechanical properties :
#
#
# Convention : Reuss Voigt Hill
#
# Bulk Modulus (GPa) = 26.25514 26.93706 26.59610
# Shear Modulus (GPa) = 3.30284 27.59071 15.44678
#
# Velocity S-wave (km/s) = 1.15423 3.33602 2.49612
# Velocity P-wave (km/s) = 3.51662 5.06992 4.36295
#
# Compressibility (1/GPa) = 0.03808778
#
# Stress axis : x y z
#
# Youngs Moduli (GPa) = 93.86834 78.30786 105.32253
#
# Poissons Ratio (x) = -0.11364 -0.03065
# Poissons Ratio (y) = -0.13623 -0.08875
# Poissons Ratio (z) = -0.02731 -0.06599
#
# Static dielectric constant tensor:
#      x y z
#    x 1.956480 0.000000 0.000000 
#    y 0.000000 2.072290 0.000000 
#    z 0.000000 0.000000 2.011120 
# 
# From -- ./inp_files/67115.got.cif
#   From: 2010.05.17/outbox.cif.g08.bks.cpg/sg63_34_cif.got.tgz:67115.got - 2010.06.03 15:47:04.
