data_PCOD9470693
_publ_section_title
;
Structure prediction by ZEFSAII (Michael W. Deem and Ramdas Pophale) SiO2 
 PCOD9470693
Probable space group: C M C M
;
_chemical_formula_sum "Si O2"
_cell_formula_units_Z 56
_cell_length_a 19.098737
_cell_length_b 7.615770
_cell_length_c 13.777238
_cell_angle_alpha 90.000000
_cell_angle_beta 90.000000
_cell_angle_gamma 90.000000
_cell_volume 2003.921149
_symmetry_space_group_name_H-M "C M C M"
_symmetry_group_IT_number 63
_symmetry_cell_setting 'orthorhombic'
loop_
_space_group_symop_operation_xyz
x,y,z
-x,-y,1/2+z
x,-y,-z
-x,y,1/2-z
-x,-y,-z
x,y,1/2-z
-x,y,z
x,-y,1/2+z
1/2+x,1/2+y,z
1/2-x,1/2-y,1/2+z
1/2+x,1/2-y,-z
1/2-x,1/2+y,1/2-z
1/2-x,1/2-y,-z
1/2+x,1/2+y,1/2-z
1/2-x,1/2+y,z
1/2+x,1/2-y,1/2+z
loop_
_atom_site_type_symbol
_atom_site_label
_atom_site_fract_x
_atom_site_fract_y
_atom_site_fract_z
Si Si1 0.000000 0.504211 0.366361
Si Si2 0.139869 0.106535 0.639376
Si Si3 0.218545 0.263945 0.137288
Si Si4 0.376483 0.000000 0.000000
Si Si5 0.500000 0.580330 0.367852
O O1 0.931981 0.581923 0.420840
O O2 0.000000 0.290956 0.387109
O O3 0.000000 0.528284 0.250000
O O4 0.125231 0.160756 0.750000
O O5 0.187373 0.929648 0.637225
O O6 0.067626 0.029378 0.600047
O O7 0.200641 0.236999 0.603448
O O8 0.215691 0.324992 0.250000
O O9 0.168881 0.378963 0.070456
O O10 0.500000 0.577728 0.250000
#
# Coordination Sequence:
#
# PCOD9470693 Si02
#       5
#     8  16  16   8   8
#     4  10  19  33  52  81 114 146 189 236 278 337
#     4   9  18  33  57  80 110 148 189 236 283 331
#     4  10  20  35  53  83 115 146 188 238 284 335
#     4  11  20  30  56  83 110 150 186 233 288 332
#     4   9  15  31  55  75 101 147 192 224 265 337
#
# _framework density 27.945212999999999
#
# number of rings (size 3 to 8) (size 9 to 14) (size 15 to 20)
#    0.000    2.286    2.857    0.857    0.000    1.143 
#    0.000    0.000    0.000    6.000    0.000   26.000 
#    0.000    0.000    0.000    0.000    0.000    0.000 
#
# Total GULP energy -156793.972661 kJ/mol
# GULP energy per Si atom -5599.784738 kJ/mol
# Density = 2.788161 g / cm^3
# Si number density = 27.945213 Si / 1000 Ang^3
#
#
#
# Elastic Constant Matrix: (Units=GPa)
#
#
# Indices 1 2 3 4 5 6 
#
# 1 255.8848 12.3944 50.4557 0.0000 0.0000 0.0000
# 2 12.3944 84.6669 25.1548 0.0000 0.0000 0.0000
# 3 50.4557 25.1548 198.1610 0.0000 0.0000 0.0000
# 4 0.0000 0.0000 0.0000 42.0876 0.0000 0.0000
# 5 0.0000 0.0000 0.0000 0.0000 30.4980 0.0000
# 6 0.0000 0.0000 0.0000 0.0000 0.0000 -17.7528
#
#
#
# Elastic Compliance Matrix: (Units=1/GPa)
#
#
# Indices 1 2 3 4 5 6 
#
# 1 0.004122 -0.000303 -0.001011 0.000000 0.000000 0.000000
# 2 -0.000303 0.012296 -0.001484 0.000000 0.000000 0.000000
# 3 -0.001011 -0.001484 0.005492 0.000000 0.000000 0.000000
# 4 0.000000 0.000000 0.000000 0.023760 0.000000 0.000000
# 5 0.000000 0.000000 0.000000 0.000000 0.032789 0.000000
# 6 0.000000 0.000000 0.000000 0.000000 0.000000 -0.056329
#
#
# Mechanical properties :
#
#
# Convention : Reuss Voigt Hill
#
# Bulk Modulus (GPa) = 61.29435 79.41361 70.35398
# Shear Modulus (GPa) = 150.76472 41.01374 95.88923
#
# Velocity S-wave (km/s) = 7.35304 3.83515 5.86411
# Velocity P-wave (km/s) = 9.69902 6.93473 8.43094
#
# Compressibility (1/GPa) = 0.01631472
#
# Stress axis : x y z
#
# Youngs Moduli (GPa) = 242.59748 81.32606 182.07670
#
# Poissons Ratio (x) = 0.02464 0.18410
# Poissons Ratio (y) = 0.07351 0.27015
# Poissons Ratio (z) = 0.24529 0.12067
#
# Static dielectric constant tensor:
#      x y z
#    x 2.145130 0.000000 0.000000 
#    y 0.000000 2.252530 0.000000 
#    z 0.000000 0.000000 2.197130 
# 
# From -- ./inp_files/34798.got.cif
#   From: 2010.05.17/outbox.cif.g08.bks.cpg/sg63_18_cif.got.tgz:34798.got - 2010.06.03 15:47:04.
