data_PCOD9470283
_publ_section_title
;
Structure prediction by ZEFSAII (Michael W. Deem and Ramdas Pophale) SiO2 
 PCOD9470283
Probable space group: C M C M
;
_chemical_formula_sum "Si O2"
_cell_formula_units_Z 80
_cell_length_a 25.102256
_cell_length_b 19.339808
_cell_length_c 10.142441
_cell_angle_alpha 90.000000
_cell_angle_beta 90.000000
_cell_angle_gamma 90.000000
_cell_volume 4923.879347
_symmetry_space_group_name_H-M "C M C M"
_symmetry_group_IT_number 63
_symmetry_cell_setting 'orthorhombic'
loop_
_space_group_symop_operation_xyz
x,y,z
-x,-y,1/2+z
x,-y,-z
-x,y,1/2-z
-x,-y,-z
x,y,1/2-z
-x,y,z
x,-y,1/2+z
1/2+x,1/2+y,z
1/2-x,1/2-y,1/2+z
1/2+x,1/2-y,-z
1/2-x,1/2+y,1/2-z
1/2-x,1/2-y,-z
1/2+x,1/2+y,1/2-z
1/2-x,1/2+y,z
1/2+x,1/2-y,1/2+z
loop_
_atom_site_type_symbol
_atom_site_label
_atom_site_fract_x
_atom_site_fract_y
_atom_site_fract_z
Si Si1 0.254027 0.645009 0.595114
Si Si2 0.713017 0.000000 0.500000
Si Si3 0.559741 0.901351 0.250000
Si Si4 0.939636 0.345467 0.750000
Si Si5 0.673561 0.732548 0.098617
Si Si6 0.359533 0.972375 0.750000
Si Si7 0.060297 0.718145 0.535647
O O1 0.267767 0.647619 0.750000
O O2 0.245325 0.566521 0.550367
O O3 0.297479 0.682689 0.504361
O O4 0.199905 0.691044 0.579398
O O5 0.676637 0.974812 0.620703
O O6 0.500000 0.931358 0.250000
O O7 0.564616 0.851526 0.376658
O O8 0.603756 0.959645 0.250000
O O9 0.896892 0.405862 0.750000
O O10 0.934152 0.300922 0.882442
O O11 0.000000 0.374350 0.750000
O O12 0.685419 0.712576 0.250000
O O13 0.610336 0.736044 0.077707
O O14 0.000000 0.745203 0.559051
#
# Coordination Sequence:
#
# PCOD9470283 Si02
#       7
#    16   8   8   8  16   8  16
#     4  10  22  38  52  78 106 140 180 225 269 322
#     4  12  24  36  53  74 107 142 182 228 270 316
#     4  10  19  32  49  70 103 142 180 223 260 298
#     4  10  21  32  45  72 107 142 182 219 254 302
#     4  10  20  35  58  78 104 137 181 223 273 321
#     4  12  21  32  50  70 100 146 187 218 256 306
#     4  10  20  34  52  76 106 138 176 223 268 314
#
# _framework density 16.247350999999998
#
# number of rings (size 3 to 8) (size 9 to 14) (size 15 to 20)
#    0.000    1.600    2.000    3.900    2.800    0.000 
#    0.000    4.000    0.000    0.000    0.000    0.700 
#    0.000    0.000    0.000    0.000    0.000    0.000 
#
# Total GULP energy -223290.591502 kJ/mol
# GULP energy per Si atom -5582.264788 kJ/mol
# Density = 1.621037 g / cm^3
# Si number density = 16.247351 Si / 1000 Ang^3
#
#
#
# Elastic Constant Matrix: (Units=GPa)
#
#
# Indices 1 2 3 4 5 6 
#
# 1 96.0046 37.0487 39.6982 0.0000 0.0000 0.0000
# 2 37.0487 66.0379 35.9871 0.0000 0.0000 0.0000
# 3 39.6982 35.9871 123.1658 0.0000 0.0000 0.0000
# 4 0.0000 0.0000 0.0000 22.0911 0.0000 0.0000
# 5 0.0000 0.0000 0.0000 0.0000 9.0211 0.0000
# 6 0.0000 0.0000 0.0000 0.0000 0.0000 23.3560
#
#
#
# Elastic Compliance Matrix: (Units=1/GPa)
#
#
# Indices 1 2 3 4 5 6 
#
# 1 0.013977 -0.006407 -0.002633 0.000000 0.000000 0.000000
# 2 -0.006407 0.020947 -0.004055 0.000000 0.000000 0.000000
# 3 -0.002633 -0.004055 0.010153 0.000000 0.000000 0.000000
# 4 0.000000 0.000000 0.000000 0.045267 0.000000 0.000000
# 5 0.000000 0.000000 0.000000 0.000000 0.110851 0.000000
# 6 0.000000 0.000000 0.000000 0.000000 0.000000 0.042816
#
#
# Mechanical properties :
#
#
# Convention : Reuss Voigt Hill
#
# Bulk Modulus (GPa) = 52.94742 56.74180 54.84461
# Shear Modulus (GPa) = 18.08335 22.39193 20.23764
#
# Velocity S-wave (km/s) = 3.33979 3.71642 3.53313
# Velocity P-wave (km/s) = 6.89430 7.30858 7.10446
#
# Compressibility (1/GPa) = 0.01888666
#
# Stress axis : x y z
#
# Youngs Moduli (GPa) = 71.54429 47.73932 98.49509
#
# Poissons Ratio (x) = 0.30585 0.25936
# Poissons Ratio (y) = 0.45836 0.39944
# Poissons Ratio (z) = 0.18839 0.19360
#
# Static dielectric constant tensor:
#      x y z
#    x 1.553060 0.000000 0.000000 
#    y 0.000000 1.512870 0.000000 
#    z 0.000000 0.000000 1.553680 
# 
# From -- ./inp_files/12159.got.cif
#   From: 2010.05.17/outbox.cif.g08.bks.cpg/sg63_7_cif.got.tgz:12159.got - 2010.06.03 15:47:04.
