data_PCOD9470261
_publ_section_title
;
Structure prediction by ZEFSAII (Michael W. Deem and Ramdas Pophale) SiO2 
 PCOD9470261
Probable space group: C M C M
;
_chemical_formula_sum "Si O2"
_cell_formula_units_Z 72
_cell_length_a 33.931262
_cell_length_b 15.132932
_cell_length_c 8.664981
_cell_angle_alpha 90.000000
_cell_angle_beta 90.000000
_cell_angle_gamma 90.000000
_cell_volume 4449.289943
_symmetry_space_group_name_H-M "C M C M"
_symmetry_group_IT_number 63
_symmetry_cell_setting 'orthorhombic'
loop_
_space_group_symop_operation_xyz
x,y,z
-x,-y,1/2+z
x,-y,-z
-x,y,1/2-z
-x,-y,-z
x,y,1/2-z
-x,y,z
x,-y,1/2+z
1/2+x,1/2+y,z
1/2-x,1/2-y,1/2+z
1/2+x,1/2-y,-z
1/2-x,1/2+y,1/2-z
1/2-x,1/2-y,-z
1/2+x,1/2+y,1/2-z
1/2-x,1/2+y,z
1/2+x,1/2-y,1/2+z
loop_
_atom_site_type_symbol
_atom_site_label
_atom_site_fract_x
_atom_site_fract_y
_atom_site_fract_z
Si Si1 0.586660 0.400057 0.564382
Si Si2 0.683075 0.905698 0.935323
Si Si3 0.342661 0.283158 0.435324
Si Si4 0.000000 0.099122 0.435468
Si Si5 0.274970 0.404296 0.564604
O O1 0.591036 0.500000 0.500000
O O2 0.589046 0.404259 0.750000
O O3 0.620682 0.337452 0.501142
O O4 0.542903 0.364648 0.518469
O O5 0.682118 0.910214 0.750000
O O6 0.659014 0.819373 0.984839
O O7 0.729111 0.892385 0.979813
O O8 0.669897 0.000000 0.000000
O O9 0.343402 0.286503 0.250000
O O10 0.302995 0.330476 0.494003
O O11 0.000000 0.096321 0.250000
O O12 0.000000 0.000000 0.500000
O O13 0.287554 0.500000 0.500000
O O14 0.277977 0.403808 0.750000
#
# Coordination Sequence:
#
# PCOD9470261 Si02
#       5
#    16  16  16   8  16
#     4  10  19  32  49  71  97 126 154 185 223 269
#     4   9  20  35  50  66  88 119 158 198 236 273
#     4  11  21  32  46  69  96 122 153 192 231 273
#     4   8  16  30  48  68  93 122 153 182 217 266
#     4  10  19  32  48  67  91 123 157 192 231 273
#
# _framework density 16.182357
#
# number of rings (size 3 to 8) (size 9 to 14) (size 15 to 20)
#    0.000    2.222    0.000    3.333    0.000    3.556 
#    0.000    0.000    0.000    0.000    0.000    0.778 
#    0.000    0.000    0.000    0.000    0.000    0.000 
#
# Total GULP energy -200773.312677 kJ/mol
# GULP energy per Si atom -5577.036463 kJ/mol
# Density = 1.614552 g / cm^3
# Si number density = 16.182357 Si / 1000 Ang^3
#
#
#
# Elastic Constant Matrix: (Units=GPa)
#
#
# Indices 1 2 3 4 5 6 
#
# 1 75.4305 64.4470 27.4502 0.0000 0.0000 0.0000
# 2 64.4470 128.4725 32.7740 0.0000 0.0000 0.0000
# 3 27.4502 32.7740 41.3013 0.0000 0.0000 0.0000
# 4 0.0000 0.0000 0.0000 23.2643 0.0000 0.0000
# 5 0.0000 0.0000 0.0000 0.0000 10.5028 0.0000
# 6 0.0000 0.0000 0.0000 0.0000 0.0000 13.2993
#
#
#
# Elastic Compliance Matrix: (Units=1/GPa)
#
#
# Indices 1 2 3 4 5 6 
#
# 1 0.025367 -0.010562 -0.008478 0.000000 0.000000 0.000000
# 2 -0.010562 0.014157 -0.004214 0.000000 0.000000 0.000000
# 3 -0.008478 -0.004214 0.033191 0.000000 0.000000 0.000000
# 4 0.000000 0.000000 0.000000 0.042984 0.000000 0.000000
# 5 0.000000 0.000000 0.000000 0.000000 0.095213 0.000000
# 6 0.000000 0.000000 0.000000 0.000000 0.000000 0.075192
#
#
# Mechanical properties :
#
#
# Convention : Reuss Voigt Hill
#
# Bulk Modulus (GPa) = 38.15896 54.94963 46.55430
# Shear Modulus (GPa) = 14.64777 17.44883 16.04830
#
# Velocity S-wave (km/s) = 3.01187 3.28725 3.15257
# Velocity P-wave (km/s) = 5.97720 6.95976 6.48711
#
# Compressibility (1/GPa) = 0.02620616
#
# Stress axis : x y z
#
# Youngs Moduli (GPa) = 39.42172 70.63515 30.12829
#
# Poissons Ratio (x) = 0.74606 0.25543
# Poissons Ratio (y) = 0.41638 0.12697
# Poissons Ratio (z) = 0.33422 0.29768
#
# Static dielectric constant tensor:
#      x y z
#    x 1.559660 0.000000 0.000000 
#    y 0.000000 1.529270 0.000000 
#    z 0.000000 0.000000 1.542280 
# 
# From -- ./inp_files/13892.got.cif
#   From: 2010.05.17/outbox.cif.g08.bks.cpg/sg63_7_cif.got.tgz:13892.got - 2010.06.03 15:47:04.
