data_PCOD9470410
_publ_section_title
;
Structure prediction by ZEFSAII (Michael W. Deem and Ramdas Pophale) SiO2 
 PCOD9470410
Probable space group: C M C M
;
_chemical_formula_sum "Si O2"
_cell_formula_units_Z 80
_cell_length_a 7.355210
_cell_length_b 24.568412
_cell_length_c 19.700894
_cell_angle_alpha 90.000000
_cell_angle_beta 90.000000
_cell_angle_gamma 90.000000
_cell_volume 3560.066395
_symmetry_space_group_name_H-M "C M C M"
_symmetry_group_IT_number 63
_symmetry_cell_setting 'orthorhombic'
loop_
_space_group_symop_operation_xyz
x,y,z
-x,-y,1/2+z
x,-y,-z
-x,y,1/2-z
-x,-y,-z
x,y,1/2-z
-x,y,z
x,-y,1/2+z
1/2+x,1/2+y,z
1/2-x,1/2-y,1/2+z
1/2+x,1/2-y,-z
1/2-x,1/2+y,1/2-z
1/2-x,1/2-y,-z
1/2+x,1/2+y,1/2-z
1/2-x,1/2+y,z
1/2+x,1/2-y,1/2+z
loop_
_atom_site_type_symbol
_atom_site_label
_atom_site_fract_x
_atom_site_fract_y
_atom_site_fract_z
Si Si1 0.706767 0.912707 0.044831
Si Si2 0.784519 0.788455 0.064579
Si Si3 0.278031 0.201989 0.172008
Si Si4 0.721672 0.911622 0.893724
Si Si5 0.278325 0.977321 0.325446
O O1 0.500000 0.933890 0.040863
O O2 0.702987 0.847795 0.054505
O O3 0.786385 0.940304 0.111948
O O4 0.787203 0.922938 0.970316
O O5 0.719662 0.754803 0.129905
O O6 0.000000 0.796598 0.070619
O O7 0.750000 0.750000 0.000000
O O8 0.220834 0.202183 0.250000
O O9 0.500000 0.201692 0.171112
O O10 0.219244 0.146977 0.133850
O O11 0.500000 0.909697 0.896442
O O12 0.770411 0.960708 0.844047
O O13 0.215876 0.962142 0.250000
O O14 0.500000 0.974250 0.324030
#
# Coordination Sequence:
#
# PCOD9470410 Si02
#       5
#    16  16  16  16  16
#     4  10  19  32  51  77 105 135 172 212 256 308
#     4  11  21  35  54  77 104 136 172 212 258 310
#     4   9  17  29  48  75 102 128 167 217 260 298
#     4   9  15  27  48  74 102 132 168 213 256 297
#     4   9  17  28  46  75 108 137 168 212 262 305
#
# _framework density 22.471491
#
# number of rings (size 3 to 8) (size 9 to 14) (size 15 to 20)
#    0.000    2.400    2.000    1.800    0.000    5.600 
#    0.000    0.000    0.000    4.200    0.000    0.000 
#    0.000    0.000    0.000    0.000    0.000    0.000 
#
# Total GULP energy -223535.450276 kJ/mol
# GULP energy per Si atom -5588.386257 kJ/mol
# Density = 2.242035 g / cm^3
# Si number density = 22.471491 Si / 1000 Ang^3
#
#
#
# Elastic Constant Matrix: (Units=GPa)
#
#
# Indices 1 2 3 4 5 6 
#
# 1 86.7369 -9.1335 1.6112 0.0000 0.0000 0.0000
# 2 -9.1335 45.1415 16.8265 0.0000 0.0000 0.0000
# 3 1.6112 16.8265 177.1215 0.0000 0.0000 0.0000
# 4 0.0000 0.0000 0.0000 38.4657 0.0000 0.0000
# 5 0.0000 0.0000 0.0000 0.0000 -4.3134 0.0000
# 6 0.0000 0.0000 0.0000 0.0000 0.0000 8.1228
#
#
#
# Elastic Compliance Matrix: (Units=1/GPa)
#
#
# Indices 1 2 3 4 5 6 
#
# 1 0.011801 0.002517 -0.000346 0.000000 0.000000 0.000000
# 2 0.002517 0.023503 -0.002256 0.000000 0.000000 0.000000
# 3 -0.000346 -0.002256 0.005863 0.000000 0.000000 0.000000
# 4 0.000000 0.000000 0.000000 0.025997 0.000000 0.000000
# 5 0.000000 0.000000 0.000000 0.000000 -0.231834 0.000000
# 6 0.000000 0.000000 0.000000 0.000000 0.000000 0.123110
#
#
# Mechanical properties :
#
#
# Convention : Reuss Voigt Hill
#
# Bulk Modulus (GPa) = 24.39276 36.40091 30.39683
# Shear Modulus (GPa) = -180.34931 28.43473 -75.95729
#
# Velocity S-wave (km/s) = -8.96834 3.56106 -5.82022
# Velocity P-wave (km/s) = 9.81647 5.75692 5.62232
#
# Compressibility (1/GPa) = 0.04099578
#
# Stress axis : x y z
#
# Youngs Moduli (GPa) = 84.74169 42.54856 170.55306
#
# Poissons Ratio (x) = -0.10708 0.05909
# Poissons Ratio (y) = -0.21327 0.38470
# Poissons Ratio (z) = 0.02936 0.09597
#
# Static dielectric constant tensor:
#      x y z
#    x 1.951510 0.000000 0.000000 
#    y 0.000000 1.569910 0.000000 
#    z 0.000000 0.000000 1.807070 
# 
# From -- ./inp_files/40461.got.cif
#   From: 2010.05.17/outbox.cif.g08.bks.cpg/sg63_21_cif.got.tgz:40461.got - 2010.06.03 15:47:04.
