data_PCOD9470518
_publ_section_title
;
Structure prediction by ZEFSAII (Michael W. Deem and Ramdas Pophale) SiO2 
 PCOD9470518
Probable space group: C M C M
;
_chemical_formula_sum "Si O2"
_cell_formula_units_Z 80
_cell_length_a 7.713507
_cell_length_b 13.924020
_cell_length_c 31.348395
_cell_angle_alpha 90.000000
_cell_angle_beta 90.000000
_cell_angle_gamma 90.000000
_cell_volume 3366.912475
_symmetry_space_group_name_H-M "C M C M"
_symmetry_group_IT_number 63
_symmetry_cell_setting 'orthorhombic'
loop_
_space_group_symop_operation_xyz
x,y,z
-x,-y,1/2+z
x,-y,-z
-x,y,1/2-z
-x,-y,-z
x,y,1/2-z
-x,y,z
x,-y,1/2+z
1/2+x,1/2+y,z
1/2-x,1/2-y,1/2+z
1/2+x,1/2-y,-z
1/2-x,1/2+y,1/2-z
1/2-x,1/2-y,-z
1/2+x,1/2+y,1/2-z
1/2-x,1/2+y,z
1/2+x,1/2-y,1/2+z
loop_
_atom_site_type_symbol
_atom_site_label
_atom_site_fract_x
_atom_site_fract_y
_atom_site_fract_z
Si Si1 0.712476 0.556417 0.797842
Si Si2 0.208483 0.116481 0.465010
Si Si3 0.201405 0.220870 0.643727
Si Si4 0.793988 0.664836 0.944798
Si Si5 0.800235 0.067161 0.375952
O O1 0.772465 0.536758 0.750000
O O2 0.500000 0.551889 0.797248
O O3 0.759351 0.662065 0.815027
O O4 0.776965 0.484839 0.834743
O O5 0.269158 0.226813 0.456784
O O6 0.248213 0.099210 0.514678
O O7 0.278834 0.059461 0.423673
O O8 0.000000 0.114237 0.461782
O O9 0.220346 0.151010 0.602469
O O10 0.299024 0.318975 0.634169
O O11 0.000000 0.245406 0.648135
O O12 0.000000 0.666959 0.941298
O O13 0.000000 0.035677 0.378931
#
# Coordination Sequence:
#
# PCOD9470518 Si02
#       5
#    16  16  16  16  16
#     4   9  19  36  56  77 102 134 173 215 259 309
#     4   8  14  25  44  71 100 131 170 210 247 293
#     4  10  19  32  53  79 106 136 170 211 257 303
#     4   9  16  27  46  72 103 138 172 205 246 300
#     4   9  18  34  55  77 103 137 174 211 253 304
#
# _framework density 23.760643000000002
#
# number of rings (size 3 to 8) (size 9 to 14) (size 15 to 20)
#    0.000    3.000    0.000    2.400    0.000    5.600 
#    0.000    3.000    0.000   10.200    0.000    0.000 
#    0.000    0.000    0.000    0.000    0.000    0.000 
#
# Total GULP energy -223289.446638 kJ/mol
# GULP energy per Si atom -5582.236166 kJ/mol
# Density = 2.370656 g / cm^3
# Si number density = 23.760643 Si / 1000 Ang^3
#
#
#
# Elastic Constant Matrix: (Units=GPa)
#
#
# Indices 1 2 3 4 5 6 
#
# 1 47.5719 0.6803 5.2704 0.0000 0.0000 0.0000
# 2 0.6803 67.6592 57.1303 0.0000 0.0000 0.0000
# 3 5.2704 57.1303 213.2750 0.0000 0.0000 0.0000
# 4 0.0000 0.0000 0.0000 38.4170 0.0000 0.0000
# 5 0.0000 0.0000 0.0000 0.0000 15.0746 0.0000
# 6 0.0000 0.0000 0.0000 0.0000 0.0000 13.5023
#
#
#
# Elastic Compliance Matrix: (Units=1/GPa)
#
#
# Indices 1 2 3 4 5 6 
#
# 1 0.021083 0.000295 -0.000600 0.000000 0.000000 0.000000
# 2 0.000295 0.019104 -0.005125 0.000000 0.000000 0.000000
# 3 -0.000600 -0.005125 0.006076 0.000000 0.000000 0.000000
# 4 0.000000 0.000000 0.000000 0.026030 0.000000 0.000000
# 5 0.000000 0.000000 0.000000 0.000000 0.066337 0.000000
# 6 0.000000 0.000000 0.000000 0.000000 0.000000 0.074061
#
#
# Mechanical properties :
#
#
# Convention : Reuss Voigt Hill
#
# Bulk Modulus (GPa) = 28.24580 50.51866 39.38223
# Shear Modulus (GPa) = 21.24464 31.09379 26.16922
#
# Velocity S-wave (km/s) = 2.99341 3.62142 3.32229
# Velocity P-wave (km/s) = 4.88475 6.22847 5.59708
#
# Compressibility (1/GPa) = 0.03540349
#
# Stress axis : x y z
#
# Youngs Moduli (GPa) = 47.43144 52.34432 164.57155
#
# Poissons Ratio (x) = -0.01542 0.09873
# Poissons Ratio (y) = -0.01397 0.84339
# Poissons Ratio (z) = 0.02845 0.26825
#
# Static dielectric constant tensor:
#      x y z
#    x 1.830790 0.000000 0.000000 
#    y 0.000000 1.968290 0.000000 
#    z 0.000000 0.000000 1.929260 
# 
# From -- ./inp_files/71601.got.cif
#   From: 2010.05.17/outbox.cif.g08.bks.cpg/sg63_36_cif.got.tgz:71601.got - 2010.06.03 15:47:04.
