data_PCOD9470885
_publ_section_title
;
Structure prediction by ZEFSAII (Michael W. Deem and Ramdas Pophale) SiO2 
 PCOD9470885
Probable space group: C M C M
;
_chemical_formula_sum "Si O2"
_cell_formula_units_Z 112
_cell_length_a 33.626520
_cell_length_b 4.982822
_cell_length_c 34.286024
_cell_angle_alpha 90.000000
_cell_angle_beta 90.000000
_cell_angle_gamma 90.000000
_cell_volume 5744.793505
_symmetry_space_group_name_H-M "C M C M"
_symmetry_group_IT_number 63
_symmetry_cell_setting 'orthorhombic'
loop_
_space_group_symop_operation_xyz
x,y,z
-x,-y,1/2+z
x,-y,-z
-x,y,1/2-z
-x,-y,-z
x,y,1/2-z
-x,y,z
x,-y,1/2+z
1/2+x,1/2+y,z
1/2-x,1/2-y,1/2+z
1/2+x,1/2-y,-z
1/2-x,1/2+y,1/2-z
1/2-x,1/2-y,-z
1/2+x,1/2+y,1/2-z
1/2-x,1/2+y,z
1/2+x,1/2-y,1/2+z
loop_
_atom_site_type_symbol
_atom_site_label
_atom_site_fract_x
_atom_site_fract_y
_atom_site_fract_z
Si Si1 0.652417 0.098497 0.084760
Si Si2 0.455486 0.412801 0.594908
Si Si3 0.386066 0.649705 0.705793
Si Si4 0.669325 0.837412 0.294571
Si Si5 0.877203 0.107552 0.456387
Si Si6 0.925913 0.582953 0.136725
Si Si7 0.275546 0.850495 0.132390
O O1 0.640035 0.903438 0.049433
O O2 0.618034 0.075115 0.117500
O O3 0.691884 0.976992 0.103528
O O4 0.649479 0.401988 0.069472
O O5 0.500000 0.357436 0.581064
O O6 0.421323 0.384680 0.562378
O O7 0.444284 0.209095 0.630140
O O8 0.451539 0.712878 0.610908
O O9 0.400069 0.598725 0.750000
O O10 0.363809 0.380178 0.691371
O O11 0.352048 0.876333 0.706962
O O12 0.419580 0.779469 0.678486
O O13 0.680474 0.760719 0.250000
O O14 0.705444 0.858667 0.324410
O O15 0.878199 0.000000 0.500000
O O16 0.262464 0.543569 0.127235
#
# Coordination Sequence:
#
# PCOD9470885 Si02
#       7
#    16  16  16  16  16  16  16
#     4  10  21  37  58  83 112 143 197 235 270 343
#     4  10  21  35  56  89 120 146 177 222 283 347
#     4  10  19  33  56  81 108 146 197 245 276 314
#     4  10  21  35  53  80 115 149 187 238 289 333
#     4  10  21  38  63  87 110 147 183 230 284 338
#     4  10  19  34  59  79 110 155 192 232 272 324
#     4  12  24  36  57  82 116 155 188 236 291 334
#
# _framework density 19.495913999999999
#
# number of rings (size 3 to 8) (size 9 to 14) (size 15 to 20)
#    0.000    1.714    1.429    3.429    4.000    0.857 
#    0.000    0.000    0.000   16.286    0.000    0.000 
#    0.000    0.000    0.000    0.000    0.000    0.000 
#
# Total GULP energy -312473.564382 kJ/mol
# GULP energy per Si atom -5579.885078 kJ/mol
# Density = 1.945154 g / cm^3
# Si number density = 19.495914 Si / 1000 Ang^3
#
#
#
# Elastic Constant Matrix: (Units=GPa)
#
#
# Indices 1 2 3 4 5 6 
#
# 1 54.2497 -1.6566 27.2617 0.0000 0.0000 0.0000
# 2 -1.6566 75.7047 -1.8972 0.0000 0.0000 0.0000
# 3 27.2617 -1.8972 68.0146 0.0000 0.0000 0.0000
# 4 0.0000 0.0000 0.0000 22.9845 0.0000 0.0000
# 5 0.0000 0.0000 0.0000 0.0000 12.0421 0.0000
# 6 0.0000 0.0000 0.0000 0.0000 0.0000 15.0135
#
#
#
# Elastic Compliance Matrix: (Units=1/GPa)
#
#
# Indices 1 2 3 4 5 6 
#
# 1 0.023088 0.000273 -0.009247 0.000000 0.000000 0.000000
# 2 0.000273 0.013222 0.000259 0.000000 0.000000 0.000000
# 3 -0.009247 0.000259 0.018416 0.000000 0.000000 0.000000
# 4 0.000000 0.000000 0.000000 0.043508 0.000000 0.000000
# 5 0.000000 0.000000 0.000000 0.000000 0.083042 0.000000
# 6 0.000000 0.000000 0.000000 0.000000 0.000000 0.066607
#
#
# Mechanical properties :
#
#
# Convention : Reuss Voigt Hill
#
# Bulk Modulus (GPa) = 26.81090 27.26498 27.03794
# Shear Modulus (GPa) = 18.00226 21.62544 19.81385
#
# Velocity S-wave (km/s) = 3.04202 3.33412 3.19142
# Velocity P-wave (km/s) = 5.11082 5.37002 5.24202
#
# Compressibility (1/GPa) = 0.03729826
#
# Stress axis : x y z
#
# Youngs Moduli (GPa) = 43.31199 75.63328 54.30003
#
# Poissons Ratio (x) = -0.02068 0.50209
# Poissons Ratio (y) = -0.01185 -0.01407
# Poissons Ratio (z) = 0.40049 -0.01960
#
# Static dielectric constant tensor:
#      x y z
#    x 1.678070 0.000000 0.000000 
#    y 0.000000 1.672170 0.000000 
#    z 0.000000 0.000000 1.703710 
# 
# From -- ./inp_files/74538.got.cif
#   From: 2010.05.17/outbox.cif.g08.bks.cpg/sg63_38_cif.got.tgz:74538.got - 2010.06.03 15:47:04.
