data_PCOD9470859
_publ_section_title
;
Structure prediction by ZEFSAII (Michael W. Deem and Ramdas Pophale) SiO2 
 PCOD9470859
Probable space group: C M C M
;
_chemical_formula_sum "Si O2"
_cell_formula_units_Z 80
_cell_length_a 15.336327
_cell_length_b 16.409241
_cell_length_c 16.139758
_cell_angle_alpha 90.000000
_cell_angle_beta 90.000000
_cell_angle_gamma 90.000000
_cell_volume 4061.690920
_symmetry_space_group_name_H-M "C M C M"
_symmetry_group_IT_number 63
_symmetry_cell_setting 'orthorhombic'
loop_
_space_group_symop_operation_xyz
x,y,z
-x,-y,1/2+z
x,-y,-z
-x,y,1/2-z
-x,-y,-z
x,y,1/2-z
-x,y,z
x,-y,1/2+z
1/2+x,1/2+y,z
1/2-x,1/2-y,1/2+z
1/2+x,1/2-y,-z
1/2-x,1/2+y,1/2-z
1/2-x,1/2-y,-z
1/2+x,1/2+y,1/2-z
1/2-x,1/2+y,z
1/2+x,1/2-y,1/2+z
loop_
_atom_site_type_symbol
_atom_site_label
_atom_site_fract_x
_atom_site_fract_y
_atom_site_fract_z
Si Si1 0.354140 0.247109 0.510384
Si Si2 0.600261 0.622317 0.151194
Si Si3 0.900547 0.309073 0.654772
Si Si4 0.771839 0.462006 0.847126
Si Si5 0.094320 0.431113 0.070387
O O1 0.250000 0.250000 0.500000
O O2 0.384396 0.305635 0.584768
O O3 0.389810 0.258414 0.416621
O O4 0.389169 0.157861 0.534759
O O5 0.615313 0.644585 0.250000
O O6 0.500000 0.595384 0.145648
O O7 0.673535 0.556535 0.126015
O O8 0.886262 0.281647 0.750000
O O9 0.831800 0.381681 0.637195
O O10 0.000000 0.341168 0.650127
O O11 0.769056 0.471407 0.750000
O O12 0.821025 0.540205 0.880868
O O13 0.000000 0.432180 0.114978
O O14 0.088911 0.500000 0.000000
#
# Coordination Sequence:
#
# PCOD9470859 Si02
#       5
#    16  16  16  16  16
#     4  12  22  36  59  86 124 161 196 243 298 358
#     4  10  21  38  60  85 116 158 207 252 298 358
#     4  10  19  33  55  82 113 151 194 237 288 353
#     4  10  20  36  57  84 115 152 197 243 299 359
#     4  11  21  34  54  83 116 147 187 239 297 354
#
# _framework density 19.69623
#
# number of rings (size 3 to 8) (size 9 to 14) (size 15 to 20)
#    0.000    1.400    4.000    2.400    0.000    2.000 
#    0.000    0.000    0.000    7.800    0.000    2.800 
#    0.000    0.000    0.000    0.000    0.000    0.000 
#
# Total GULP energy -222884.311105 kJ/mol
# GULP energy per Si atom -5572.107778 kJ/mol
# Density = 1.965140 g / cm^3
# Si number density = 19.696230 Si / 1000 Ang^3
#
#
#
# Elastic Constant Matrix: (Units=GPa)
#
#
# Indices 1 2 3 4 5 6 
#
# 1 160.5129 26.6825 42.5899 0.0000 0.0000 0.0000
# 2 26.6825 35.9624 23.6542 0.0000 0.0000 0.0000
# 3 42.5899 23.6542 85.6415 0.0000 0.0000 0.0000
# 4 0.0000 0.0000 0.0000 16.3671 0.0000 0.0000
# 5 0.0000 0.0000 0.0000 0.0000 27.6531 0.0000
# 6 0.0000 0.0000 0.0000 0.0000 0.0000 7.1686
#
#
#
# Elastic Compliance Matrix: (Units=1/GPa)
#
#
# Indices 1 2 3 4 5 6 
#
# 1 0.007589 -0.003847 -0.002711 0.000000 0.000000 0.000000
# 2 -0.003847 0.035930 -0.008011 0.000000 0.000000 0.000000
# 3 -0.002711 -0.008011 0.015238 0.000000 0.000000 0.000000
# 4 0.000000 0.000000 0.000000 0.061098 0.000000 0.000000
# 5 0.000000 0.000000 0.000000 0.000000 0.036162 0.000000
# 6 0.000000 0.000000 0.000000 0.000000 0.000000 0.139497
#
#
# Mechanical properties :
#
#
# Convention : Reuss Voigt Hill
#
# Bulk Modulus (GPa) = 33.76315 51.99664 42.87990
# Shear Modulus (GPa) = 14.94654 22.85044 18.89849
#
# Velocity S-wave (km/s) = 2.75772 3.40978 3.10094
# Velocity P-wave (km/s) = 5.22677 6.47756 5.88549
#
# Compressibility (1/GPa) = 0.02961809
#
# Stress axis : x y z
#
# Youngs Moduli (GPa) = 131.76946 27.83165 65.62732
#
# Poissons Ratio (x) = 0.10708 0.17794
# Poissons Ratio (y) = 0.50695 0.52572
# Poissons Ratio (z) = 0.35728 0.22295
#
# Static dielectric constant tensor:
#      x y z
#    x 1.773650 0.000000 0.000000 
#    y 0.000000 1.686030 0.000000 
#    z 0.000000 0.000000 1.790780 
# 
# From -- ./inp_files/43940.got.cif
#   From: 2010.05.17/outbox.cif.g08.bks.cpg/sg63_22_cif.got.tgz:43940.got - 2010.06.03 15:47:04.
