data_PCOD9470634
_publ_section_title
;
Structure prediction by ZEFSAII (Michael W. Deem and Ramdas Pophale) SiO2 
 PCOD9470634
Probable space group: C M C M
;
_chemical_formula_sum "Si O2"
_cell_formula_units_Z 72
_cell_length_a 30.212675
_cell_length_b 14.344203
_cell_length_c 7.923144
_cell_angle_alpha 90.000000
_cell_angle_beta 90.000000
_cell_angle_gamma 90.000000
_cell_volume 3433.706344
_symmetry_space_group_name_H-M "C M C M"
_symmetry_group_IT_number 63
_symmetry_cell_setting 'orthorhombic'
loop_
_space_group_symop_operation_xyz
x,y,z
-x,-y,1/2+z
x,-y,-z
-x,y,1/2-z
-x,-y,-z
x,y,1/2-z
-x,y,z
x,-y,1/2+z
1/2+x,1/2+y,z
1/2-x,1/2-y,1/2+z
1/2+x,1/2-y,-z
1/2-x,1/2+y,1/2-z
1/2-x,1/2-y,-z
1/2+x,1/2+y,1/2-z
1/2-x,1/2+y,z
1/2+x,1/2-y,1/2+z
loop_
_atom_site_type_symbol
_atom_site_label
_atom_site_fract_x
_atom_site_fract_y
_atom_site_fract_z
Si Si1 0.726618 0.890048 0.048224
Si Si2 0.500000 0.608341 0.953565
Si Si3 0.322156 0.608881 0.546591
Si Si4 0.370335 0.892768 0.552474
Si Si5 0.088771 0.789023 0.042349
O O1 0.724899 0.882355 0.250000
O O2 0.774217 0.853161 0.984951
O O3 0.679714 0.855962 0.979350
O O4 0.727160 0.000000 0.000000
O O5 0.500000 0.614090 0.750000
O O6 0.544412 0.659828 0.014666
O O7 0.500000 0.500000 0.000000
O O8 0.324330 0.500000 0.500000
O O9 0.321280 0.616378 0.750000
O O10 0.366766 0.657609 0.486463
O O11 0.376786 0.893582 0.750000
O O12 0.404730 0.817340 0.482436
O O13 0.373992 0.000000 0.500000
O O14 0.088333 0.790504 0.250000
#
# Coordination Sequence:
#
# PCOD9470634 Si02
#       5
#    16   8  16  16  16
#     4   9  16  27  45  69  99 133 167 203 244 290
#     4  10  20  38  61  82 104 130 161 198 247 302
#     4   9  17  30  47  71 102 133 166 203 245 295
#     4  10  19  33  51  71  99 134 170 207 246 289
#     4   9  19  34  53  75 100 132 166 202 250 303
#
# _framework density 20.968596999999999
#
# number of rings (size 3 to 8) (size 9 to 14) (size 15 to 20)
#    0.000    2.667    0.000    3.333    0.000    1.778 
#    0.000    5.000    0.000    0.000    0.000    0.000 
#    0.000    0.000    0.000    0.000    0.000    0.000 
#
# Total GULP energy -200809.077467 kJ/mol
# GULP energy per Si atom -5578.029930 kJ/mol
# Density = 2.092087 g / cm^3
# Si number density = 20.968597 Si / 1000 Ang^3
#
#
#
# Elastic Constant Matrix: (Units=GPa)
#
#
# Indices 1 2 3 4 5 6 
#
# 1 164.5776 105.8749 1.1709 0.0000 0.0000 0.0000
# 2 105.8749 129.4737 3.2227 0.0000 0.0000 0.0000
# 3 1.1709 3.2227 18.4330 0.0000 0.0000 0.0000
# 4 0.0000 0.0000 0.0000 12.0330 0.0000 0.0000
# 5 0.0000 0.0000 0.0000 0.0000 8.1299 0.0000
# 6 0.0000 0.0000 0.0000 0.0000 0.0000 39.8696
#
#
#
# Elastic Compliance Matrix: (Units=1/GPa)
#
#
# Indices 1 2 3 4 5 6 
#
# 1 0.012840 -0.010525 0.001025 0.000000 0.000000 0.000000
# 2 -0.010525 0.016385 -0.002196 0.000000 0.000000 0.000000
# 3 0.001025 -0.002196 0.054569 0.000000 0.000000 0.000000
# 4 0.000000 0.000000 0.000000 0.083105 0.000000 0.000000
# 5 0.000000 0.000000 0.000000 0.000000 0.123002 0.000000
# 6 0.000000 0.000000 0.000000 0.000000 0.000000 0.025082
#
#
# Mechanical properties :
#
#
# Convention : Reuss Voigt Hill
#
# Bulk Modulus (GPa) = 16.55604 59.22459 37.89031
# Shear Modulus (GPa) = 13.94663 25.48755 19.71709
#
# Velocity S-wave (km/s) = 2.58179 3.49020 3.06978
# Velocity P-wave (km/s) = 4.09882 6.67441 5.53841
#
# Compressibility (1/GPa) = 0.06040092
#
# Stress axis : x y z
#
# Youngs Moduli (GPa) = 77.88341 61.03208 18.32529
#
# Poissons Ratio (x) = 0.64236 -0.01877
# Poissons Ratio (y) = 0.81972 0.04024
# Poissons Ratio (z) = -0.07979 0.13403
#
# Static dielectric constant tensor:
#      x y z
#    x 1.765990 0.000000 0.000000 
#    y 0.000000 1.774900 0.000000 
#    z 0.000000 0.000000 1.738100 
# 
# From -- ./inp_files/13918.got.cif
#   From: 2010.05.17/outbox.cif.g08.bks.cpg/sg63_7_cif.got.tgz:13918.got - 2010.06.03 15:47:04.
