data_PCOD9470471
_publ_section_title
;
Structure prediction by ZEFSAII (Michael W. Deem and Ramdas Pophale) SiO2 
 PCOD9470471
Probable space group: C M C M
;
_chemical_formula_sum "Si O2"
_cell_formula_units_Z 88
_cell_length_a 19.970124
_cell_length_b 25.233490
_cell_length_c 9.231436
_cell_angle_alpha 90.000000
_cell_angle_beta 90.000000
_cell_angle_gamma 90.000000
_cell_volume 4651.867604
_symmetry_space_group_name_H-M "C M C M"
_symmetry_group_IT_number 63
_symmetry_cell_setting 'orthorhombic'
loop_
_space_group_symop_operation_xyz
x,y,z
-x,-y,1/2+z
x,-y,-z
-x,y,1/2-z
-x,-y,-z
x,y,1/2-z
-x,y,z
x,-y,1/2+z
1/2+x,1/2+y,z
1/2-x,1/2-y,1/2+z
1/2+x,1/2-y,-z
1/2-x,1/2+y,1/2-z
1/2-x,1/2-y,-z
1/2+x,1/2+y,1/2-z
1/2-x,1/2+y,z
1/2+x,1/2-y,1/2+z
loop_
_atom_site_type_symbol
_atom_site_label
_atom_site_fract_x
_atom_site_fract_y
_atom_site_fract_z
Si Si1 0.132480 0.127606 0.923279
Si Si2 0.731512 0.446673 0.918260
Si Si3 0.821792 0.244943 0.575371
Si Si4 0.427127 0.831469 0.573636
Si Si5 0.000000 0.941522 0.425240
Si Si6 0.892639 0.552837 0.418631
O O1 0.139941 0.121835 0.750000
O O2 0.138075 0.190268 0.955257
O O3 0.065417 0.094446 0.962804
O O4 0.194640 0.101243 0.004763
O O5 0.713144 0.449477 0.750000
O O6 0.811807 0.442744 0.927899
O O7 0.710366 0.500000 0.000000
O O8 0.812946 0.247475 0.750000
O O9 0.750000 0.250000 0.500000
O O10 0.867497 0.293954 0.526194
O O11 0.423737 0.833279 0.750000
O O12 0.500000 0.809946 0.534052
O O13 0.420375 0.891877 0.523099
O O14 0.000000 0.949006 0.250000
O O15 0.000000 0.000000 0.500000
O O16 0.913866 0.500000 0.500000
O O17 0.910790 0.548013 0.250000
#
# Coordination Sequence:
#
# PCOD9470471 Si02
#       6
#    16  16  16  16   8  16
#     4  10  21  35  54  79 108 142 183 228 278 334
#     4  10  19  32  52  77 108 141 179 224 272 323
#     4  10  21  37  59  84 110 143 185 234 282 332
#     4   9  18  33  55  80 106 139 181 222 263 318
#     4  10  22  38  54  78 112 146 185 230 280 338
#     4   9  18  32  51  77 106 137 174 218 265 317
#
# _framework density 18.917134000000001
#
# number of rings (size 3 to 8) (size 9 to 14) (size 15 to 20)
#    0.000    2.364    0.000    2.182    1.273    5.455 
#    0.000    0.909    0.000    1.636    0.000    0.000 
#    0.000    0.000    0.000    0.000    0.000    0.000 
#
# Total GULP energy -245449.538196 kJ/mol
# GULP energy per Si atom -5578.398595 kJ/mol
# Density = 1.887408 g / cm^3
# Si number density = 18.917134 Si / 1000 Ang^3
#
#
#
# Elastic Constant Matrix: (Units=GPa)
#
#
# Indices 1 2 3 4 5 6 
#
# 1 97.5872 71.5443 29.8208 0.0000 0.0000 0.0000
# 2 71.5443 141.2930 37.6274 0.0000 0.0000 0.0000
# 3 29.8208 37.6274 20.2288 0.0000 0.0000 0.0000
# 4 0.0000 0.0000 0.0000 28.3737 0.0000 0.0000
# 5 0.0000 0.0000 0.0000 0.0000 4.1927 0.0000
# 6 0.0000 0.0000 0.0000 0.0000 0.0000 19.9139
#
#
#
# Elastic Compliance Matrix: (Units=1/GPa)
#
#
# Indices 1 2 3 4 5 6 
#
# 1 0.019999 -0.004509 -0.021096 0.000000 0.000000 0.000000
# 2 -0.004509 0.015041 -0.021331 0.000000 0.000000 0.000000
# 3 -0.021096 -0.021331 0.120211 0.000000 0.000000 0.000000
# 4 0.000000 0.000000 0.000000 0.035244 0.000000 0.000000
# 5 0.000000 0.000000 0.000000 0.000000 0.238511 0.000000
# 6 0.000000 0.000000 0.000000 0.000000 0.000000 0.050216
#
#
# Mechanical properties :
#
#
# Convention : Reuss Voigt Hill
#
# Bulk Modulus (GPa) = 16.29192 59.67712 37.98452
# Shear Modulus (GPa) = 8.42384 18.50382 13.46383
#
# Velocity S-wave (km/s) = 2.11251 3.13093 2.67071
# Velocity P-wave (km/s) = 3.81853 6.68471 5.44365
#
# Compressibility (1/GPa) = 0.06138013
#
# Stress axis : x y z
#
# Youngs Moduli (GPa) = 50.00204 66.48410 8.31870
#
# Poissons Ratio (x) = 0.29976 0.17549
# Poissons Ratio (y) = 0.22545 0.17745
# Poissons Ratio (z) = 1.05483 1.41819
#
# Static dielectric constant tensor:
#      x y z
#    x 1.659000 0.000000 0.000000 
#    y 0.000000 1.670400 0.000000 
#    z 0.000000 0.000000 1.631100 
# 
# From -- ./inp_files/8222.got.cif
#   From: 2010.05.17/outbox.cif.g08.bks.cpg/sg63_5_cif.got.tgz:8222.got - 2010.06.03 15:47:04.
