data_PCOD9470822
_publ_section_title
;
Structure prediction by ZEFSAII (Michael W. Deem and Ramdas Pophale) SiO2 
 PCOD9470822
Probable space group: C M C M
;
_chemical_formula_sum "Si O2"
_cell_formula_units_Z 84
_cell_length_a 16.051117
_cell_length_b 16.554481
_cell_length_c 14.552073
_cell_angle_alpha 90.000000
_cell_angle_beta 90.000000
_cell_angle_gamma 90.000000
_cell_volume 3866.746444
_symmetry_space_group_name_H-M "C M C M"
_symmetry_group_IT_number 63
_symmetry_cell_setting 'orthorhombic'
loop_
_space_group_symop_operation_xyz
x,y,z
-x,-y,1/2+z
x,-y,-z
-x,y,1/2-z
-x,-y,-z
x,y,1/2-z
-x,y,z
x,-y,1/2+z
1/2+x,1/2+y,z
1/2-x,1/2-y,1/2+z
1/2+x,1/2-y,-z
1/2-x,1/2+y,1/2-z
1/2-x,1/2-y,-z
1/2+x,1/2+y,1/2-z
1/2-x,1/2+y,z
1/2+x,1/2-y,1/2+z
loop_
_atom_site_type_symbol
_atom_site_label
_atom_site_fract_x
_atom_site_fract_y
_atom_site_fract_z
Si Si1 0.298440 0.377648 0.354124
Si Si2 0.089051 0.330027 0.529495
Si Si3 0.750999 0.189195 0.358318
Si Si4 0.632676 0.958870 0.099613
Si Si5 0.405975 0.357216 0.521440
Si Si6 0.500000 0.991390 0.750000
O O1 0.331852 0.374978 0.250000
O O2 0.259496 0.287126 0.373075
O O3 0.223637 0.441024 0.361704
O O4 0.365309 0.399424 0.432239
O O5 0.170564 0.347033 0.589978
O O6 0.095578 0.371919 0.430544
O O7 0.087039 0.234981 0.513251
O O8 0.000000 0.352459 0.573022
O O9 0.747107 0.175529 0.250000
O O10 0.834731 0.150658 0.400659
O O11 0.572780 0.000749 0.170515
O O12 0.634831 0.000000 0.000000
O O13 0.500000 0.384559 0.545978
#
# Coordination Sequence:
#
# PCOD9470822 Si02
#       6
#    16  16  16  16  16   4
#     4  10  19  37  59  79 109 149 196 237 281 347
#     4  10  19  35  55  81 115 151 186 232 287 345
#     4  10  19  33  54  83 117 150 189 233 285 348
#     4  12  23  38  58  81 116 156 198 237 281 329
#     4  10  19  33  57  85 116 144 182 240 296 341
#     4  12  26  40  56  86 110 160 210 240 266 332
#
# _framework density 21.723690999999999
#
# number of rings (size 3 to 8) (size 9 to 14) (size 15 to 20)
#    0.000    1.524    5.714    1.429    0.000    1.143 
#    1.714    3.810    0.000    0.571    0.000    0.000 
#    0.000    0.000    0.000    0.000    0.000    0.000 
#
# Total GULP energy -233892.572704 kJ/mol
# GULP energy per Si atom -5568.870779 kJ/mol
# Density = 2.167425 g / cm^3
# Si number density = 21.723691 Si / 1000 Ang^3
#
#
#
# Elastic Constant Matrix: (Units=GPa)
#
#
# Indices 1 2 3 4 5 6 
#
# 1 150.7043 2.2067 44.0951 0.0000 0.0000 0.0000
# 2 2.2067 10.7676 5.1261 0.0000 0.0000 0.0000
# 3 44.0951 5.1261 112.6483 0.0000 0.0000 0.0000
# 4 0.0000 0.0000 0.0000 -3.6115 0.0000 0.0000
# 5 0.0000 0.0000 0.0000 0.0000 31.8896 0.0000
# 6 0.0000 0.0000 0.0000 0.0000 0.0000 -4.3249
#
#
#
# Elastic Compliance Matrix: (Units=1/GPa)
#
#
# Indices 1 2 3 4 5 6 
#
# 1 0.007494 -0.000142 -0.002927 0.000000 0.000000 0.000000
# 2 -0.000142 0.094930 -0.004264 0.000000 0.000000 0.000000
# 3 -0.002927 -0.004264 0.010217 0.000000 0.000000 0.000000
# 4 0.000000 0.000000 0.000000 -0.276893 0.000000 0.000000
# 5 0.000000 0.000000 0.000000 0.000000 0.031358 0.000000
# 6 0.000000 0.000000 0.000000 0.000000 0.000000 -0.231218
#
#
# Mechanical properties :
#
#
# Convention : Reuss Voigt Hill
#
# Bulk Modulus (GPa) = 10.20676 41.88622 26.04649
# Shear Modulus (GPa) = -15.78348 19.63680 1.92666
#
# Velocity S-wave (km/s) = -2.69839 3.00981 0.94277
# Velocity P-wave (km/s) = 2.23602 5.60373 3.63332
#
# Compressibility (1/GPa) = 0.09797426
#
# Stress axis : x y z
#
# Youngs Moduli (GPa) = 133.43994 10.53406 97.87649
#
# Poissons Ratio (x) = 0.00150 0.28648
# Poissons Ratio (y) = 0.01900 0.41735
# Poissons Ratio (z) = 0.39058 0.04492
#
# Static dielectric constant tensor:
#      x y z
#    x 1.825250 0.000000 0.000000 
#    y 0.000000 1.920080 0.000000 
#    z 0.000000 0.000000 1.760820 
# 
# From -- ./inp_files/31787.got.cif
#   From: 2010.05.17/outbox.cif.g08.bks.cpg/sg63_16_cif.got.tgz:31787.got - 2010.06.03 15:47:04.
