data_PCOD9470165
_publ_section_title
;
Structure prediction by ZEFSAII (Michael W. Deem and Ramdas Pophale) SiO2 
 PCOD9470165
Probable space group: C M C M
;
_chemical_formula_sum "Si O2"
_cell_formula_units_Z 80
_cell_length_a 18.669975
_cell_length_b 28.183584
_cell_length_c 8.556900
_cell_angle_alpha 90.000000
_cell_angle_beta 90.000000
_cell_angle_gamma 90.000000
_cell_volume 4502.527903
_symmetry_space_group_name_H-M "C M C M"
_symmetry_group_IT_number 63
_symmetry_cell_setting 'orthorhombic'
loop_
_space_group_symop_operation_xyz
x,y,z
-x,-y,1/2+z
x,-y,-z
-x,y,1/2-z
-x,-y,-z
x,y,1/2-z
-x,y,z
x,-y,1/2+z
1/2+x,1/2+y,z
1/2-x,1/2-y,1/2+z
1/2+x,1/2-y,-z
1/2-x,1/2+y,1/2-z
1/2-x,1/2-y,-z
1/2+x,1/2+y,1/2-z
1/2-x,1/2+y,z
1/2+x,1/2-y,1/2+z
loop_
_atom_site_type_symbol
_atom_site_label
_atom_site_fract_x
_atom_site_fract_y
_atom_site_fract_z
Si Si1 0.272944 0.449282 0.064543
Si Si2 0.709979 0.147279 0.062695
Si Si3 0.140995 0.809390 0.560520
Si Si4 0.581885 0.207949 0.560842
Si Si5 0.080190 0.088935 0.061008
O O1 0.268509 0.448507 0.250000
O O2 0.249135 0.500000 0.000000
O O3 0.228195 0.405435 0.995234
O O4 0.355263 0.440473 0.012466
O O5 0.709269 0.147316 0.250000
O O6 0.777557 0.179951 0.009964
O O7 0.636962 0.168754 0.998655
O O8 0.140943 0.807711 0.750000
O O9 0.109312 0.759708 0.505185
O O10 0.094829 0.855853 0.518443
O O11 0.583220 0.208210 0.750000
O O12 0.500000 0.200291 0.511193
O O13 0.085624 0.085552 0.250000
O O14 0.000000 0.074873 0.014340
#
# Coordination Sequence:
#
# PCOD9470165 Si02
#       5
#    16  16  16  16  16
#     4  11  22  37  56  76  99 129 170 216 263 313
#     4  10  20  35  54  76 103 135 174 216 258 304
#     4   8  15  29  50  75 104 141 179 211 247 294
#     4  10  19  31  50  77 108 141 175 210 252 302
#     4   9  17  31  51  76 108 143 177 213 253 297
#
# _framework density 17.767797999999999
#
# number of rings (size 3 to 8) (size 9 to 14) (size 15 to 20)
#    0.000    2.400    0.000    4.800    0.000    3.600 
#    0.000    4.000    0.000    5.400    0.000    0.000 
#    0.000    0.000    0.000    0.000    0.000    0.000 
#
# Total GULP energy -223251.172875 kJ/mol
# GULP energy per Si atom -5581.279322 kJ/mol
# Density = 1.772736 g / cm^3
# Si number density = 17.767798 Si / 1000 Ang^3
#
#
#
# Elastic Constant Matrix: (Units=GPa)
#
#
# Indices 1 2 3 4 5 6 
#
# 1 104.1496 51.6748 28.3910 0.0000 0.0000 0.0000
# 2 51.6748 87.5268 19.2170 0.0000 0.0000 0.0000
# 3 28.3910 19.2170 38.0361 0.0000 0.0000 0.0000
# 4 0.0000 0.0000 0.0000 19.6028 0.0000 0.0000
# 5 0.0000 0.0000 0.0000 0.0000 24.9031 0.0000
# 6 0.0000 0.0000 0.0000 0.0000 0.0000 4.9230
#
#
#
# Elastic Compliance Matrix: (Units=1/GPa)
#
#
# Indices 1 2 3 4 5 6 
#
# 1 0.015373 -0.007375 -0.007749 0.000000 0.000000 0.000000
# 2 -0.007375 0.016388 -0.002775 0.000000 0.000000 0.000000
# 3 -0.007749 -0.002775 0.033477 0.000000 0.000000 0.000000
# 4 0.000000 0.000000 0.000000 0.051013 0.000000 0.000000
# 5 0.000000 0.000000 0.000000 0.000000 0.040156 0.000000
# 6 0.000000 0.000000 0.000000 0.000000 0.000000 0.203128
#
#
# Mechanical properties :
#
#
# Convention : Reuss Voigt Hill
#
# Bulk Modulus (GPa) = 33.96668 47.58648 40.77658
# Shear Modulus (GPa) = 12.34123 18.58109 15.46116
#
# Velocity S-wave (km/s) = 2.63836 3.23735 2.95308
# Velocity P-wave (km/s) = 5.33289 6.38862 5.88448
#
# Compressibility (1/GPa) = 0.02944062
#
# Stress axis : x y z
#
# Youngs Moduli (GPa) = 65.04953 61.01907 29.87143
#
# Poissons Ratio (x) = 0.45000 0.23147
# Poissons Ratio (y) = 0.47972 0.08290
# Poissons Ratio (z) = 0.50405 0.16934
#
# Static dielectric constant tensor:
#      x y z
#    x 1.595780 0.000000 0.000000 
#    y 0.000000 1.597830 0.000000 
#    z 0.000000 0.000000 1.605820 
# 
# From -- ./inp_files/6354.got.cif
#   From: 2010.05.17/outbox.cif.g08.bks.cpg/sg63_4_cif.got.tgz:6354.got - 2010.06.03 15:47:04.
