data_PCOD9470022
_publ_section_title
;
Structure prediction by ZEFSAII (Michael W. Deem and Ramdas Pophale) SiO2 
 PCOD9470022
Probable space group: C M C M
;
_chemical_formula_sum "Si O2"
_cell_formula_units_Z 80
_cell_length_a 7.354292
_cell_length_b 23.783758
_cell_length_c 21.205961
_cell_angle_alpha 90.000000
_cell_angle_beta 90.000000
_cell_angle_gamma 90.000000
_cell_volume 3709.191920
_symmetry_space_group_name_H-M "C M C M"
_symmetry_group_IT_number 63
_symmetry_cell_setting 'orthorhombic'
loop_
_space_group_symop_operation_xyz
x,y,z
-x,-y,1/2+z
x,-y,-z
-x,y,1/2-z
-x,-y,-z
x,y,1/2-z
-x,y,z
x,-y,1/2+z
1/2+x,1/2+y,z
1/2-x,1/2-y,1/2+z
1/2+x,1/2-y,-z
1/2-x,1/2+y,1/2-z
1/2-x,1/2-y,-z
1/2+x,1/2+y,1/2-z
1/2-x,1/2+y,z
1/2+x,1/2-y,1/2+z
loop_
_atom_site_type_symbol
_atom_site_label
_atom_site_fract_x
_atom_site_fract_y
_atom_site_fract_z
Si Si1 0.222351 0.934355 0.499249
Si Si2 0.778083 0.129620 0.872720
Si Si3 0.221224 0.060843 0.750000
Si Si4 0.722685 0.432290 0.750000
Si Si5 0.216204 0.870784 0.875370
Si Si6 0.782555 0.750507 0.177028
O O1 0.280381 0.900541 0.436901
O O2 0.283903 0.900076 0.561026
O O3 0.000000 0.934935 0.498848
O O4 0.278020 0.000000 0.500000
O O5 0.721728 0.092829 0.812734
O O6 0.717813 0.193176 0.858069
O O7 0.000000 0.130257 0.874349
O O8 0.000000 0.061407 0.750000
O O9 0.278608 0.996670 0.750000
O O10 0.500000 0.430646 0.750000
O O11 0.786308 0.401306 0.812736
O O12 0.245040 0.804837 0.863838
O O13 0.000000 0.879675 0.876517
O O14 0.715013 0.745715 0.250000
O O15 0.000000 0.755487 0.182031
#
# Coordination Sequence:
#
# PCOD9470022 Si02
#       6
#    16  16   8   8  16  16
#     4   9  17  29  46  71 102 128 154 198 250 290
#     4   9  16  27  44  67  95 126 160 198 238 282
#     4   9  14  23  42  67  93 121 156 199 242 278
#     4   9  16  25  41  67  95 121 154 193 236 286
#     4  10  19  31  48  72 100 129 157 194 245 291
#     4  10  19  32  49  70  96 127 165 205 238 275
#
# _framework density 21.568038999999999
#
# number of rings (size 3 to 8) (size 9 to 14) (size 15 to 20)
#    0.000    2.600    2.000    1.200    0.000    5.600 
#    0.000    0.000    0.000    0.600    0.000    5.600 
#    0.000    0.000    0.000    0.000    0.000    0.000 
#
# Total GULP energy -223427.569243 kJ/mol
# GULP energy per Si atom -5585.689231 kJ/mol
# Density = 2.151895 g / cm^3
# Si number density = 21.568039 Si / 1000 Ang^3
#
#
#
# Elastic Constant Matrix: (Units=GPa)
#
#
# Indices 1 2 3 4 5 6 
#
# 1 79.5873 -2.7888 9.3849 0.0000 0.0000 0.0000
# 2 -2.7888 236.0862 144.8673 0.0000 0.0000 0.0000
# 3 9.3849 144.8673 237.7014 0.0000 0.0000 0.0000
# 4 0.0000 0.0000 0.0000 28.5668 0.0000 0.0000
# 5 0.0000 0.0000 0.0000 0.0000 -12.6796 0.0000
# 6 0.0000 0.0000 0.0000 0.0000 0.0000 86.8656
#
#
#
# Elastic Compliance Matrix: (Units=1/GPa)
#
#
# Indices 1 2 3 4 5 6 
#
# 1 0.012702 0.000731 -0.000947 0.000000 0.000000 0.000000
# 2 0.000731 0.006808 -0.004178 0.000000 0.000000 0.000000
# 3 -0.000947 -0.004178 0.006791 0.000000 0.000000 0.000000
# 4 0.000000 0.000000 0.000000 0.035006 0.000000 0.000000
# 5 0.000000 0.000000 0.000000 0.000000 -0.078867 0.000000
# 6 0.000000 0.000000 0.000000 0.000000 0.000000 0.011512
#
#
# Mechanical properties :
#
#
# Convention : Reuss Voigt Hill
#
# Bulk Modulus (GPa) = 57.10060 95.14460 76.12260
# Shear Modulus (GPa) = 582.91370 47.34466 315.12918
#
# Velocity S-wave (km/s) = 16.45765 4.69030 12.10068
# Velocity P-wave (km/s) = 19.68936 8.57563 15.18572
#
# Compressibility (1/GPa) = 0.01751295
#
# Stress axis : x y z
#
# Youngs Moduli (GPa) = 78.72691 146.88284 147.26021
#
# Poissons Ratio (x) = -0.10741 0.13948
# Poissons Ratio (y) = -0.05757 0.61527
# Poissons Ratio (z) = 0.07457 0.61369
#
# Static dielectric constant tensor:
#      x y z
#    x 1.858360 0.000000 0.000000 
#    y 0.000000 1.746030 0.000000 
#    z 0.000000 0.000000 1.738420 
# 
# From -- ./inp_files/50891.got.cif
#   From: 2010.05.17/outbox.cif.g08.bks.cpg/sg63_26_cif.got.tgz:50891.got - 2010.06.03 15:47:04.
