data_PCOD9470431
_publ_section_title
;
Structure prediction by ZEFSAII (Michael W. Deem and Ramdas Pophale) SiO2 
 PCOD9470431
Probable space group: C M C M
;
_chemical_formula_sum "Si O2"
_cell_formula_units_Z 96
_cell_length_a 7.513463
_cell_length_b 30.285324
_cell_length_c 20.977019
_cell_angle_alpha 90.000000
_cell_angle_beta 90.000000
_cell_angle_gamma 90.000000
_cell_volume 4773.271615
_symmetry_space_group_name_H-M "C M C M"
_symmetry_group_IT_number 63
_symmetry_cell_setting 'orthorhombic'
loop_
_space_group_symop_operation_xyz
x,y,z
-x,-y,1/2+z
x,-y,-z
-x,y,1/2-z
-x,-y,-z
x,y,1/2-z
-x,y,z
x,-y,1/2+z
1/2+x,1/2+y,z
1/2-x,1/2-y,1/2+z
1/2+x,1/2-y,-z
1/2-x,1/2+y,1/2-z
1/2-x,1/2-y,-z
1/2+x,1/2+y,1/2-z
1/2-x,1/2+y,z
1/2+x,1/2-y,1/2+z
loop_
_atom_site_type_symbol
_atom_site_label
_atom_site_fract_x
_atom_site_fract_y
_atom_site_fract_z
Si Si1 0.213876 0.779136 0.562717
Si Si2 0.705973 0.375549 0.531557
Si Si3 0.217682 0.717881 0.822402
Si Si4 0.286175 0.467877 0.321481
Si Si5 0.211100 0.374003 0.115850
Si Si6 0.281747 0.472089 0.562281
O O1 0.250000 0.750000 0.500000
O O2 0.284667 0.828790 0.553599
O O3 0.277642 0.753626 0.625557
O O4 0.000000 0.781892 0.567408
O O5 0.500000 0.375335 0.552068
O O6 0.709845 0.376790 0.454772
O O7 0.782137 0.421751 0.556480
O O8 0.275333 0.725962 0.750000
O O9 0.273775 0.669461 0.846839
O O10 0.000000 0.718103 0.822248
O O11 0.217793 0.474776 0.250000
O O12 0.500000 0.472030 0.319636
O O13 0.246457 0.418554 0.345545
O O14 0.222383 0.502489 0.374436
O O15 0.000000 0.369464 0.107025
O O16 0.228122 0.500000 0.500000
O O17 0.500000 0.471558 0.561726
#
# Coordination Sequence:
#
# PCOD9470431 Si02
#       6
#    16  16  16  16  16  16
#     4  10  19  32  52  75 100 131 168 210 250 297
#     4  10  19  32  52  76 100 129 169 211 250 294
#     4   9  18  32  48  70 102 135 161 195 252 306
#     4  10  20  34  52  74 101 133 167 204 248 299
#     4  11  20  31  51  76 104 133 164 206 253 300
#     4   9  16  30  51  71  97 131 162 199 248 294
#
# _framework density 20.111992999999998
#
# number of rings (size 3 to 8) (size 9 to 14) (size 15 to 20)
#    0.000    2.167    3.333    1.000    0.000    1.000 
#    0.000    2.500    0.000    6.500    0.000    0.000 
#    0.000    1.333    0.000    0.000    0.000    0.000 
#
# Total GULP energy -268068.543226 kJ/mol
# GULP energy per Si atom -5584.761317 kJ/mol
# Density = 2.006622 g / cm^3
# Si number density = 20.111993 Si / 1000 Ang^3
#
#
#
# Elastic Constant Matrix: (Units=GPa)
#
#
# Indices 1 2 3 4 5 6 
#
# 1 54.6836 6.3694 -2.1956 0.0000 0.0000 0.0000
# 2 6.3694 222.3303 123.9404 0.0000 0.0000 0.0000
# 3 -2.1956 123.9404 163.9470 0.0000 0.0000 0.0000
# 4 0.0000 0.0000 0.0000 19.5375 0.0000 0.0000
# 5 0.0000 0.0000 0.0000 0.0000 5.1578 0.0000
# 6 0.0000 0.0000 0.0000 0.0000 0.0000 59.4135
#
#
#
# Elastic Compliance Matrix: (Units=1/GPa)
#
#
# Indices 1 2 3 4 5 6 
#
# 1 0.018466 -0.001153 0.001119 0.000000 0.000000 0.000000
# 2 -0.001153 0.007846 -0.005947 0.000000 0.000000 0.000000
# 3 0.001119 -0.005947 0.010610 0.000000 0.000000 0.000000
# 4 0.000000 0.000000 0.000000 0.051184 0.000000 0.000000
# 5 0.000000 0.000000 0.000000 0.000000 0.193879 0.000000
# 6 0.000000 0.000000 0.000000 0.000000 0.000000 0.016831
#
#
# Mechanical properties :
#
#
# Convention : Reuss Voigt Hill
#
# Bulk Modulus (GPa) = 40.06287 77.46549 58.76418
# Shear Modulus (GPa) = 15.66915 37.67820 26.67367
#
# Velocity S-wave (km/s) = 2.79426 4.33300 3.64573
# Velocity P-wave (km/s) = 5.51123 7.97708 6.85593
#
# Compressibility (1/GPa) = 0.02496077
#
# Stress axis : x y z
#
# Youngs Moduli (GPa) = 54.15298 127.45441 94.24923
#
# Poissons Ratio (x) = 0.14691 -0.10543
# Poissons Ratio (y) = 0.06242 0.56048
# Poissons Ratio (z) = -0.06058 0.75795
#
# Static dielectric constant tensor:
#      x y z
#    x 1.776480 0.000000 0.000000 
#    y 0.000000 1.702770 0.000000 
#    z 0.000000 0.000000 1.670860 
# 
# From -- ./inp_files/51412.got.cif
#   From: 2010.05.17/outbox.cif.g08.bks.cpg/sg63_26_cif.got.tgz:51412.got - 2010.06.03 15:47:04.
