data_PCOD9470942
_publ_section_title
;
Structure prediction by ZEFSAII (Michael W. Deem and Ramdas Pophale) SiO2 
 PCOD9470942
Probable space group: C M C M
;
_chemical_formula_sum "Si O2"
_cell_formula_units_Z 100
_cell_length_a 9.209124
_cell_length_b 30.468931
_cell_length_c 18.704964
_cell_angle_alpha 90.000000
_cell_angle_beta 90.000000
_cell_angle_gamma 90.000000
_cell_volume 5248.466321
_symmetry_space_group_name_H-M "C M C M"
_symmetry_group_IT_number 63
_symmetry_cell_setting 'orthorhombic'
loop_
_space_group_symop_operation_xyz
x,y,z
-x,-y,1/2+z
x,-y,-z
-x,y,1/2-z
-x,-y,-z
x,y,1/2-z
-x,y,z
x,-y,1/2+z
1/2+x,1/2+y,z
1/2-x,1/2-y,1/2+z
1/2+x,1/2-y,-z
1/2-x,1/2+y,1/2-z
1/2-x,1/2-y,-z
1/2+x,1/2+y,1/2-z
1/2-x,1/2+y,z
1/2+x,1/2-y,1/2+z
loop_
_atom_site_type_symbol
_atom_site_label
_atom_site_fract_x
_atom_site_fract_y
_atom_site_fract_z
Si Si1 0.666722 0.012224 0.084912
Si Si2 0.833176 0.072895 0.619573
Si Si3 0.666708 0.597236 0.048532
Si Si4 0.674432 0.756787 0.423324
Si Si5 0.160521 0.325434 0.612798
Si Si6 0.171097 0.658537 0.668646
Si Si7 0.000000 0.646215 0.250000
O O1 0.500000 0.018602 0.107196
O O2 0.741968 0.971881 0.125465
O O3 0.757638 0.056858 0.089532
O O4 0.665454 0.000000 0.000000
O O5 0.832330 0.084936 0.535146
O O6 0.760451 0.114133 0.657915
O O7 0.000000 0.066491 0.641593
O O8 0.500000 0.602924 0.070826
O O9 0.757556 0.641046 0.061435
O O10 0.500000 0.752884 0.427404
O O11 0.750000 0.750000 0.500000
O O12 0.743660 0.717678 0.376720
O O13 0.710995 0.803469 0.387383
O O14 0.123842 0.349505 0.686676
O O15 0.000000 0.313148 0.582877
O O16 0.190854 0.674727 0.750000
O O17 0.000000 0.648707 0.658612
#
# Coordination Sequence:
#
# PCOD9470942 Si02
#       7
#    16  16  16  16  16  16   4
#     4   9  17  30  53  84 115 149 186 228 287 346
#     4  10  20  34  54  84 118 147 186 237 287 341
#     4  10  19  33  57  88 117 148 187 241 295 340
#     4  11  23  39  61  91 119 150 191 242 293 345
#     4  10  21  38  58  80 114 149 194 233 284 340
#     4  10  23  40  58  79 112 155 196 232 283 346
#     4   8  24  40  58  80 110 160 192 236 286 340
#
# _framework density 19.053184000000002
#
# number of rings (size 3 to 8) (size 9 to 14) (size 15 to 20)
#    0.480    1.600    0.000    3.360    1.120    8.000 
#    0.000    1.200    1.760    0.000    0.000    0.000 
#    0.000    0.000    0.000    0.000    0.000    0.000 
#
# Total GULP energy -278394.820640 kJ/mol
# GULP energy per Si atom -5567.896413 kJ/mol
# Density = 1.900982 g / cm^3
# Si number density = 19.053184 Si / 1000 Ang^3
#
#
#
# Elastic Constant Matrix: (Units=GPa)
#
#
# Indices 1 2 3 4 5 6 
#
# 1 105.8561 39.1789 24.2777 0.0000 0.0000 0.0000
# 2 39.1789 77.8342 7.4079 0.0000 0.0000 0.0000
# 3 24.2777 7.4079 35.3122 0.0000 0.0000 0.0000
# 4 0.0000 0.0000 0.0000 12.3387 0.0000 0.0000
# 5 0.0000 0.0000 0.0000 0.0000 23.4548 0.0000
# 6 0.0000 0.0000 0.0000 0.0000 0.0000 34.5680
#
#
#
# Elastic Compliance Matrix: (Units=1/GPa)
#
#
# Indices 1 2 3 4 5 6 
#
# 1 0.013526 -0.006044 -0.008031 0.000000 0.000000 0.000000
# 2 -0.006044 0.015810 0.000839 0.000000 0.000000 0.000000
# 3 -0.008031 0.000839 0.033664 0.000000 0.000000 0.000000
# 4 0.000000 0.000000 0.000000 0.081046 0.000000 0.000000
# 5 0.000000 0.000000 0.000000 0.000000 0.042635 0.000000
# 6 0.000000 0.000000 0.000000 0.000000 0.000000 0.028928
#
#
# Mechanical properties :
#
#
# Convention : Reuss Voigt Hill
#
# Bulk Modulus (GPa) = 27.37681 40.08129 33.72905
# Shear Modulus (GPa) = 19.66501 23.94817 21.80659
#
# Velocity S-wave (km/s) = 3.21613 3.54914 3.38673
# Velocity P-wave (km/s) = 5.30954 6.15446 5.74755
#
# Compressibility (1/GPa) = 0.03652727
#
# Stress axis : x y z
#
# Youngs Moduli (GPa) = 73.93362 63.24991 29.70494
#
# Poissons Ratio (x) = 0.38228 0.23857
# Poissons Ratio (y) = 0.44685 -0.02491
# Poissons Ratio (z) = 0.59377 -0.05304
#
# Static dielectric constant tensor:
#      x y z
#    x 1.655480 0.000000 0.000000 
#    y 0.000000 1.654720 0.000000 
#    z 0.000000 0.000000 1.672770 
# 
# From -- ./inp_files/51528.got.cif
#   From: 2010.05.17/outbox.cif.g08.bks.cpg/sg63_26_cif.got.tgz:51528.got - 2010.06.03 15:47:04.
