data_PCOD9470163
_publ_section_title
;
Structure prediction by ZEFSAII (Michael W. Deem and Ramdas Pophale) SiO2 
 PCOD9470163
Probable space group: C M C M
;
_chemical_formula_sum "Si O2"
_cell_formula_units_Z 128
_cell_length_a 21.023944
_cell_length_b 20.259517
_cell_length_c 15.925739
_cell_angle_alpha 90.000000
_cell_angle_beta 90.000000
_cell_angle_gamma 90.000000
_cell_volume 6783.328859
_symmetry_space_group_name_H-M "C M C M"
_symmetry_group_IT_number 63
_symmetry_cell_setting 'orthorhombic'
loop_
_space_group_symop_operation_xyz
x,y,z
-x,-y,1/2+z
x,-y,-z
-x,y,1/2-z
-x,-y,-z
x,y,1/2-z
-x,y,z
x,-y,1/2+z
1/2+x,1/2+y,z
1/2-x,1/2-y,1/2+z
1/2+x,1/2-y,-z
1/2-x,1/2+y,1/2-z
1/2-x,1/2-y,-z
1/2+x,1/2+y,1/2-z
1/2-x,1/2+y,z
1/2+x,1/2-y,1/2+z
loop_
_atom_site_type_symbol
_atom_site_label
_atom_site_fract_x
_atom_site_fract_y
_atom_site_fract_z
Si Si1 0.426471 0.337616 0.087479
Si Si2 0.180307 0.741115 0.351502
Si Si3 0.191000 0.682676 0.853035
Si Si4 0.264348 0.896362 0.647771
Si Si5 0.618291 0.607751 0.409403
Si Si6 0.231911 0.457757 0.148184
Si Si7 0.069265 0.238755 0.347302
Si Si8 0.621381 0.468208 0.346654
O O1 0.500000 0.319095 0.082272
O O2 0.381440 0.277834 0.114635
O O3 0.417831 0.401286 0.147280
O O4 0.400464 0.366171 0.000130
O O5 0.177526 0.743735 0.250000
O O6 0.243807 0.781028 0.377800
O O7 0.192104 0.665302 0.376570
O O8 0.190376 0.684353 0.750000
O O9 0.194715 0.606726 0.881275
O O10 0.129256 0.721941 0.884342
O O11 0.257457 0.894871 0.750000
O O12 0.193589 0.889237 0.610040
O O13 0.289175 0.968913 0.622938
O O14 0.584473 0.661133 0.350271
O O15 0.597698 0.532092 0.396537
O O16 0.229820 0.455685 0.250000
O O17 0.306410 0.451864 0.124564
O O18 0.066054 0.258638 0.250000
O O19 0.000000 0.251333 0.386217
O O20 0.626007 0.489993 0.250000
#
# Coordination Sequence:
#
# PCOD9470163 Si02
#       8
#    16  16  16  16  16  16  16  16
#     4  12  26  38  49  73 111 150 184 222 268 322
#     4  10  19  35  57  78 101 137 184 230 268 312
#     4   9  15  28  51  77 103 132 170 219 266 312
#     4   9  17  32  57  84 105 133 180 230 272 319
#     4  11  21  35  53  76 110 141 173 217 275 330
#     4   8  14  27  51  79 102 126 163 216 268 307
#     4  10  19  31  50  77 106 137 172 214 270 333
#     4  10  20  36  57  77  99 139 188 226 262 311
#
# _framework density 18.869790999999999
#
# number of rings (size 3 to 8) (size 9 to 14) (size 15 to 20)
#    0.000    2.125    2.500    3.000    0.000    3.000 
#    0.000    0.000    0.000    0.750    0.000    3.500 
#    0.000    2.000    0.000    0.000    0.000    0.000 
#
# Total GULP energy -357088.289998 kJ/mol
# GULP energy per Si atom -5579.504531 kJ/mol
# Density = 1.882684 g / cm^3
# Si number density = 18.869791 Si / 1000 Ang^3
#
#
#
# Elastic Constant Matrix: (Units=GPa)
#
#
# Indices 1 2 3 4 5 6 
#
# 1 96.6706 66.4393 13.0069 0.0000 0.0000 0.0000
# 2 66.4393 134.3227 9.8960 0.0000 0.0000 0.0000
# 3 13.0069 9.8960 19.3872 0.0000 0.0000 0.0000
# 4 0.0000 0.0000 0.0000 5.5068 0.0000 0.0000
# 5 0.0000 0.0000 0.0000 0.0000 6.9104 0.0000
# 6 0.0000 0.0000 0.0000 0.0000 0.0000 15.6557
#
#
#
# Elastic Compliance Matrix: (Units=1/GPa)
#
#
# Indices 1 2 3 4 5 6 
#
# 1 0.016589 -0.007674 -0.007212 0.000000 0.000000 0.000000
# 2 -0.007674 0.011286 -0.000612 0.000000 0.000000 0.000000
# 3 -0.007212 -0.000612 0.056732 0.000000 0.000000 0.000000
# 4 0.000000 0.000000 0.000000 0.181595 0.000000 0.000000
# 5 0.000000 0.000000 0.000000 0.000000 0.144709 0.000000
# 6 0.000000 0.000000 0.000000 0.000000 0.000000 0.063875
#
#
# Mechanical properties :
#
#
# Convention : Reuss Voigt Hill
#
# Bulk Modulus (GPa) = 18.65353 47.67387 33.16370
# Shear Modulus (GPa) = 9.54834 16.35046 12.94940
#
# Velocity S-wave (km/s) = 2.25191 2.94681 2.62248
# Velocity P-wave (km/s) = 4.08269 6.07435 5.17523
#
# Compressibility (1/GPa) = 0.05360916
#
# Stress axis : x y z
#
# Youngs Moduli (GPa) = 60.28121 88.60870 17.62683
#
# Poissons Ratio (x) = 0.67998 0.12713
# Poissons Ratio (y) = 0.46259 0.01079
# Poissons Ratio (z) = 0.43477 0.05424
#
# Static dielectric constant tensor:
#      x y z
#    x 1.636640 0.000000 0.000000 
#    y 0.000000 1.676380 0.000000 
#    z 0.000000 0.000000 1.767840 
# 
# From -- ./inp_files/47523.got.cif
#   From: 2010.05.17/outbox.cif.g08.bks.cpg/sg63_24_cif.got.tgz:47523.got - 2010.06.03 15:47:04.
