data_PCOD9470957
_publ_section_title
;
Structure prediction by ZEFSAII (Michael W. Deem and Ramdas Pophale) SiO2 
 PCOD9470957
Probable space group: C M C M
;
_chemical_formula_sum "Si O2"
_cell_formula_units_Z 72
_cell_length_a 18.896231
_cell_length_b 15.027834
_cell_length_c 14.778822
_cell_angle_alpha 90.000000
_cell_angle_beta 90.000000
_cell_angle_gamma 90.000000
_cell_volume 4196.733551
_symmetry_space_group_name_H-M "C M C M"
_symmetry_group_IT_number 63
_symmetry_cell_setting 'orthorhombic'
loop_
_space_group_symop_operation_xyz
x,y,z
-x,-y,1/2+z
x,-y,-z
-x,y,1/2-z
-x,-y,-z
x,y,1/2-z
-x,y,z
x,-y,1/2+z
1/2+x,1/2+y,z
1/2-x,1/2-y,1/2+z
1/2+x,1/2-y,-z
1/2-x,1/2+y,1/2-z
1/2-x,1/2-y,-z
1/2+x,1/2+y,1/2-z
1/2-x,1/2+y,z
1/2+x,1/2-y,1/2+z
loop_
_atom_site_type_symbol
_atom_site_label
_atom_site_fract_x
_atom_site_fract_y
_atom_site_fract_z
Si Si1 0.173793 0.265499 0.043036
Si Si2 0.414663 0.004246 0.250000
Si Si3 0.085552 0.910947 0.945229
Si Si4 0.418585 0.613140 0.250000
Si Si5 0.918807 0.411081 0.559678
Si Si6 0.643461 0.197279 0.750000
O O1 0.126195 0.177630 0.026272
O O2 0.179515 0.286793 0.151315
O O3 0.250000 0.250000 0.000000
O O4 0.132709 0.343911 0.991245
O O5 0.500000 0.996082 0.250000
O O6 0.385404 0.903449 0.250000
O O7 0.395060 0.058599 0.340267
O O8 0.111637 0.923989 0.842259
O O9 0.000000 0.895885 0.946652
O O10 0.100302 0.000000 0.000000
O O11 0.500000 0.587447 0.250000
O O12 0.412764 0.720655 0.250000
O O13 0.921385 0.500000 0.500000
O O14 0.000000 0.375947 0.564838
#
# Coordination Sequence:
#
# PCOD9470957 Si02
#       6
#    16   8  16   8  16   8
#     4  11  23  37  57  81 117 152 190 231 286 345
#     4  10  19  33  59  91 120 148 186 236 292 347
#     4   9  18  35  57  80 106 140 186 232 272 318
#     4   8  15  28  53  82 105 130 176 232 271 313
#     4  10  20  35  58  88 117 147 186 236 289 340
#     4  10  19  35  54  81 108 150 192 230 275 340
#
# _framework density 17.156199000000001
#
# number of rings (size 3 to 8) (size 9 to 14) (size 15 to 20)
#    0.000    2.222    2.222    1.000    0.000    3.556 
#    0.000    2.222    0.000    4.000    0.000    0.000 
#    0.000    0.000    0.000    0.000    0.000    0.000 
#
# Total GULP energy -200411.029296 kJ/mol
# GULP energy per Si atom -5566.973036 kJ/mol
# Density = 1.711715 g / cm^3
# Si number density = 17.156199 Si / 1000 Ang^3
#
#
#
# Elastic Constant Matrix: (Units=GPa)
#
#
# Indices 1 2 3 4 5 6 
#
# 1 69.3030 56.2124 55.5003 0.0000 0.0000 0.0000
# 2 56.2124 116.0421 75.6433 0.0000 0.0000 0.0000
# 3 55.5003 75.6433 151.2101 0.0000 0.0000 0.0000
# 4 0.0000 0.0000 0.0000 31.7677 0.0000 0.0000
# 5 0.0000 0.0000 0.0000 0.0000 -2.9808 0.0000
# 6 0.0000 0.0000 0.0000 0.0000 0.0000 5.4946
#
#
#
# Elastic Compliance Matrix: (Units=1/GPa)
#
#
# Indices 1 2 3 4 5 6 
#
# 1 0.025918 -0.009428 -0.004796 0.000000 0.000000 0.000000
# 2 -0.009428 0.016217 -0.004652 0.000000 0.000000 0.000000
# 3 -0.004796 -0.004652 0.010701 0.000000 0.000000 0.000000
# 4 0.000000 0.000000 0.000000 0.031479 0.000000 0.000000
# 5 0.000000 0.000000 0.000000 0.000000 -0.335486 0.000000
# 6 0.000000 0.000000 0.000000 0.000000 0.000000 0.181996
#
#
# Mechanical properties :
#
#
# Convention : Reuss Voigt Hill
#
# Bulk Modulus (GPa) = 66.30222 79.02970 72.66596
# Shear Modulus (GPa) = -189.43996 16.80293 -86.31852
#
# Velocity S-wave (km/s) = -10.51953 3.13295 -7.10088
# Velocity P-wave (km/s) = 10.43154 7.69753 4.97821
#
# Compressibility (1/GPa) = 0.01508245
#
# Stress axis : x y z
#
# Youngs Moduli (GPa) = 38.58319 61.66208 93.44891
#
# Poissons Ratio (x) = 0.58138 0.44821
# Poissons Ratio (y) = 0.36378 0.43474
# Poissons Ratio (z) = 0.18506 0.28686
#
# Static dielectric constant tensor:
#      x y z
#    x 1.568770 0.000000 0.000000 
#    y 0.000000 1.551570 0.000000 
#    z 0.000000 0.000000 1.917340 
# 
# From -- ./inp_files/33712.got.cif
#   From: 2010.05.17/outbox.cif.g08.bks.cpg/sg63_17_cif.got.tgz:33712.got - 2010.06.03 15:47:04.
