data_PCOD9470393
_publ_section_title
;
Structure prediction by ZEFSAII (Michael W. Deem and Ramdas Pophale) SiO2 
 PCOD9470393
Probable space group: C M C M
;
_chemical_formula_sum "Si O2"
_cell_formula_units_Z 80
_cell_length_a 27.594696
_cell_length_b 19.201310
_cell_length_c 8.623841
_cell_angle_alpha 90.000000
_cell_angle_beta 90.000000
_cell_angle_gamma 90.000000
_cell_volume 4569.379342
_symmetry_space_group_name_H-M "C M C M"
_symmetry_group_IT_number 63
_symmetry_cell_setting 'orthorhombic'
loop_
_space_group_symop_operation_xyz
x,y,z
-x,-y,1/2+z
x,-y,-z
-x,y,1/2-z
-x,-y,-z
x,y,1/2-z
-x,y,z
x,-y,1/2+z
1/2+x,1/2+y,z
1/2-x,1/2-y,1/2+z
1/2+x,1/2-y,-z
1/2-x,1/2+y,1/2-z
1/2-x,1/2-y,-z
1/2+x,1/2+y,1/2-z
1/2-x,1/2+y,z
1/2+x,1/2-y,1/2+z
loop_
_atom_site_type_symbol
_atom_site_label
_atom_site_fract_x
_atom_site_fract_y
_atom_site_fract_z
Si Si1 0.653705 0.075149 0.563511
Si Si2 0.945925 0.645011 0.562538
Si Si3 0.102069 0.218355 0.936547
Si Si4 0.443777 0.426636 0.063292
Si Si5 0.200268 0.280701 0.063795
O O1 0.653677 0.072471 0.750000
O O2 0.598950 0.096305 0.512416
O O3 0.688537 0.139210 0.516705
O O4 0.667335 0.000000 0.500000
O O5 0.944656 0.647778 0.750000
O O6 0.933728 0.721718 0.498923
O O7 0.000000 0.622981 0.514450
O O8 0.102341 0.221085 0.750000
O O9 0.084816 0.141966 0.986632
O O10 0.154873 0.236815 0.000933
O O11 0.442999 0.428943 0.250000
O O12 0.500000 0.419954 0.013602
O O13 0.424837 0.500000 0.000000
O O14 0.200422 0.278401 0.250000
O O15 0.250000 0.250000 0.000000
#
# Coordination Sequence:
#
# PCOD9470393 Si02
#       5
#    16  16  16  16  16
#     4   9  19  34  52  76 105 134 166 205 248 296
#     4   9  18  32  49  72 104 140 175 210 248 292
#     4  10  19  32  51  75 102 131 168 213 256 301
#     4   9  18  31  47  70 101 135 170 208 250 297
#     4  10  21  38  58  79 101 128 166 209 254 303
#
# _framework density 17.507847999999999
#
# number of rings (size 3 to 8) (size 9 to 14) (size 15 to 20)
#    0.000    2.600    0.000    3.000    0.000    7.200 
#    0.000    3.000    0.000    0.000    0.000    0.000 
#    0.000    0.000    0.000    0.000    0.000    0.000 
#
# Total GULP energy -223060.327378 kJ/mol
# GULP energy per Si atom -5576.508184 kJ/mol
# Density = 1.746800 g / cm^3
# Si number density = 17.507848 Si / 1000 Ang^3
#
#
#
# Elastic Constant Matrix: (Units=GPa)
#
#
# Indices 1 2 3 4 5 6 
#
# 1 99.2233 56.3600 18.2950 0.0000 0.0000 0.0000
# 2 56.3600 149.2497 20.4047 0.0000 0.0000 0.0000
# 3 18.2950 20.4047 14.4690 0.0000 0.0000 0.0000
# 4 0.0000 0.0000 0.0000 31.3632 0.0000 0.0000
# 5 0.0000 0.0000 0.0000 0.0000 25.4173 0.0000
# 6 0.0000 0.0000 0.0000 0.0000 0.0000 10.5817
#
#
#
# Elastic Compliance Matrix: (Units=1/GPa)
#
#
# Indices 1 2 3 4 5 6 
#
# 1 0.014633 -0.003712 -0.013268 0.000000 0.000000 0.000000
# 2 -0.003712 0.009242 -0.008340 0.000000 0.000000 0.000000
# 3 -0.013268 -0.008340 0.097651 0.000000 0.000000 0.000000
# 4 0.000000 0.000000 0.000000 0.031885 0.000000 0.000000
# 5 0.000000 0.000000 0.000000 0.000000 0.039343 0.000000
# 6 0.000000 0.000000 0.000000 0.000000 0.000000 0.094503
#
#
# Mechanical properties :
#
#
# Convention : Reuss Voigt Hill
#
# Bulk Modulus (GPa) = 14.10701 50.34017 32.22359
# Shear Modulus (GPa) = 13.83027 24.66458 19.24743
#
# Velocity S-wave (km/s) = 2.81365 3.75743 3.31926
# Velocity P-wave (km/s) = 4.31631 6.90216 5.75631
#
# Compressibility (1/GPa) = 0.07088674
#
# Stress axis : x y z
#
# Youngs Moduli (GPa) = 68.33875 108.20071 10.24051
#
# Poissons Ratio (x) = 0.40162 0.13587
# Poissons Ratio (y) = 0.25366 0.08541
# Poissons Ratio (z) = 0.90671 0.90242
#
# Static dielectric constant tensor:
#      x y z
#    x 1.590020 0.000000 0.000000 
#    y 0.000000 1.586140 0.000000 
#    z 0.000000 0.000000 1.591400 
# 
# From -- ./inp_files/11981.got.cif
#   From: 2010.05.17/outbox.cif.g08.bks.cpg/sg63_6_cif.got.tgz:11981.got - 2010.06.03 15:47:04.
