data_PCOD9470523
_publ_section_title
;
Structure prediction by ZEFSAII (Michael W. Deem and Ramdas Pophale) SiO2 
 PCOD9470523
Probable space group: C M C M
;
_chemical_formula_sum "Si O2"
_cell_formula_units_Z 96
_cell_length_a 21.139373
_cell_length_b 24.700714
_cell_length_c 7.759748
_cell_angle_alpha 90.000000
_cell_angle_beta 90.000000
_cell_angle_gamma 90.000000
_cell_volume 4051.811444
_symmetry_space_group_name_H-M "C M C M"
_symmetry_group_IT_number 63
_symmetry_cell_setting 'orthorhombic'
loop_
_space_group_symop_operation_xyz
x,y,z
-x,-y,1/2+z
x,-y,-z
-x,y,1/2-z
-x,-y,-z
x,y,1/2-z
-x,y,z
x,-y,1/2+z
1/2+x,1/2+y,z
1/2-x,1/2-y,1/2+z
1/2+x,1/2-y,-z
1/2-x,1/2+y,1/2-z
1/2-x,1/2-y,-z
1/2+x,1/2+y,1/2-z
1/2-x,1/2+y,z
1/2+x,1/2-y,1/2+z
loop_
_atom_site_type_symbol
_atom_site_label
_atom_site_fract_x
_atom_site_fract_y
_atom_site_fract_z
Si Si1 0.612034 0.289541 0.539215
Si Si2 0.706063 0.440658 0.445853
Si Si3 0.751184 0.827311 0.946264
Si Si4 0.073029 0.441709 0.043077
Si Si5 0.569084 0.407925 0.541098
Si Si6 0.112644 0.674426 0.946302
O O1 0.612269 0.287729 0.750000
O O2 0.684827 0.299956 0.485147
O O3 0.575275 0.344203 0.493523
O O4 0.588127 0.231152 0.476716
O O5 0.726912 0.500000 0.500000
O O6 0.724844 0.430328 0.250000
O O7 0.733467 0.391297 0.554028
O O8 0.629918 0.437053 0.463456
O O9 0.740216 0.809557 0.750000
O O10 0.688211 0.818470 0.052880
O O11 0.074659 0.439246 0.250000
O O12 0.099978 0.384693 0.975175
O O13 0.000000 0.443420 0.984375
O O14 0.103013 0.500000 0.000000
O O15 0.573990 0.411408 0.750000
O O16 0.500000 0.428231 0.488461
O O17 0.088285 0.672344 0.750000
#
# Coordination Sequence:
#
# PCOD9470523 Si02
#       6
#    16  16  16  16  16  16
#     4   8  16  31  51  76 106 138 171 211 257 306
#     4  11  22  37  56  77 104 138 177 220 265 311
#     4  10  20  35  53  76 107 139 172 211 261 315
#     4   9  19  35  53  73 100 133 168 209 255 302
#     4   9  18  34  55  79 108 141 176 216 264 315
#     4  10  19  32  53  80 105 134 176 217 257 309
#
# _framework density 23.693107000000001
#
# number of rings (size 3 to 8) (size 9 to 14) (size 15 to 20)
#    0.000    2.500    0.000    3.500    0.000    2.667 
#    0.000    8.333    0.000    0.000    0.000    4.667 
#    0.000    0.000    0.000    0.000    0.000    0.000 
#
# Total GULP energy -268025.586435 kJ/mol
# GULP energy per Si atom -5583.866384 kJ/mol
# Density = 2.363918 g / cm^3
# Si number density = 23.693107 Si / 1000 Ang^3
#
#
#
# Elastic Constant Matrix: (Units=GPa)
#
#
# Indices 1 2 3 4 5 6 
#
# 1 34.2531 -4.8926 -4.8761 0.0000 0.0000 0.0000
# 2 -4.8926 166.6456 0.5130 0.0000 0.0000 0.0000
# 3 -4.8761 0.5130 55.5025 0.0000 0.0000 0.0000
# 4 0.0000 0.0000 0.0000 14.2414 0.0000 0.0000
# 5 0.0000 0.0000 0.0000 0.0000 10.0122 0.0000
# 6 0.0000 0.0000 0.0000 0.0000 0.0000 -3.0975
#
#
#
# Elastic Compliance Matrix: (Units=1/GPa)
#
#
# Indices 1 2 3 4 5 6 
#
# 1 0.029688 0.000864 0.002600 0.000000 0.000000 0.000000
# 2 0.000864 0.006026 0.000020 0.000000 0.000000 0.000000
# 3 0.002600 0.000020 0.018245 0.000000 0.000000 0.000000
# 4 0.000000 0.000000 0.000000 0.070218 0.000000 0.000000
# 5 0.000000 0.000000 0.000000 0.000000 0.099878 0.000000
# 6 0.000000 0.000000 0.000000 0.000000 0.000000 -0.322843
#
#
# Mechanical properties :
#
#
# Convention : Reuss Voigt Hill
#
# Bulk Modulus (GPa) = 16.41297 26.43222 21.42260
# Shear Modulus (GPa) = -58.51619 21.94169 -18.28725
#
# Velocity S-wave (km/s) = -4.97506 3.04646 -2.78121
# Velocity P-wave (km/s) = 5.10482 4.85333 1.11901
#
# Compressibility (1/GPa) = 0.06092742
#
# Stress axis : x y z
#
# Youngs Moduli (GPa) = 33.68371 165.94619 54.80817
#
# Poissons Ratio (x) = -0.14331 -0.14251
# Poissons Ratio (y) = -0.02909 -0.00111
# Poissons Ratio (z) = -0.08758 -0.00335
#
# Static dielectric constant tensor:
#      x y z
#    x 1.880970 0.000000 0.000000 
#    y 0.000000 1.948400 0.000000 
#    z 0.000000 0.000000 1.870230 
# 
# From -- ./inp_files/10499.got.cif
#   From: 2010.05.17/outbox.cif.g08.bks.cpg/sg63_6_cif.got.tgz:10499.got - 2010.06.03 15:47:04.
