data_PCOD9470842
_publ_section_title
;
Structure prediction by ZEFSAII (Michael W. Deem and Ramdas Pophale) SiO2 
 PCOD9470842
Probable space group: C M C M
;
_chemical_formula_sum "Si O2"
_cell_formula_units_Z 112
_cell_length_a 34.807188
_cell_length_b 9.688363
_cell_length_c 14.277985
_cell_angle_alpha 90.000000
_cell_angle_beta 90.000000
_cell_angle_gamma 90.000000
_cell_volume 4814.888813
_symmetry_space_group_name_H-M "C M C M"
_symmetry_group_IT_number 63
_symmetry_cell_setting 'orthorhombic'
loop_
_space_group_symop_operation_xyz
x,y,z
-x,-y,1/2+z
x,-y,-z
-x,y,1/2-z
-x,-y,-z
x,y,1/2-z
-x,y,z
x,-y,1/2+z
1/2+x,1/2+y,z
1/2-x,1/2-y,1/2+z
1/2+x,1/2-y,-z
1/2-x,1/2+y,1/2-z
1/2-x,1/2-y,-z
1/2+x,1/2+y,1/2-z
1/2-x,1/2+y,z
1/2+x,1/2-y,1/2+z
loop_
_atom_site_type_symbol
_atom_site_label
_atom_site_fract_x
_atom_site_fract_y
_atom_site_fract_z
Si Si1 0.415221 0.540845 0.362360
Si Si2 0.661965 0.345829 0.860910
Si Si3 0.204013 0.576538 0.359006
Si Si4 0.044616 0.194536 0.977880
Si Si5 0.624391 0.953132 0.105659
Si Si6 0.262330 0.786304 0.364891
Si Si7 0.542309 0.958086 0.853568
O O1 0.419170 0.555892 0.250000
O O2 0.370071 0.544410 0.389853
O O3 0.434557 0.403018 0.401999
O O4 0.435734 0.661105 0.423039
O O5 0.665588 0.365553 0.750000
O O6 0.705293 0.326177 0.894287
O O7 0.642145 0.197391 0.878972
O O8 0.214568 0.577119 0.250000
O O9 0.158202 0.556873 0.361148
O O10 0.222063 0.719306 0.395660
O O11 0.223730 0.436715 0.398804
O O12 0.046312 0.347683 0.936661
O O13 0.000000 0.157533 0.984118
O O14 0.581922 0.959367 0.147436
O O15 0.620114 0.000000 0.000000
O O16 0.263120 0.797543 0.250000
O O17 0.540846 0.889307 0.750000
O O18 0.500000 0.027848 0.864547
#
# Coordination Sequence:
#
# PCOD9470842 Si02
#       7
#    16  16  16  16  16  16  16
#     4  10  19  33  55  80 107 145 191 231 280 347
#     4   9  18  34  54  75 105 141 179 229 283 330
#     4   9  17  33  55  79 107 145 188 233 285 343
#     4  10  21  36  54  78 112 146 184 238 293 341
#     4  11  21  35  56  79 110 148 183 227 282 346
#     4   8  15  30  53  77 105 140 181 230 282 334
#     4  10  21  38  58  80 109 145 187 237 292 344
#
# _framework density 23.261181000000001
#
# number of rings (size 3 to 8) (size 9 to 14) (size 15 to 20)
#    0.000    2.429    0.000    4.286    0.000    2.000 
#    2.571    4.286    3.143    1.714    0.000    0.000 
#    0.000    0.000    0.000    0.000    0.000    0.000 
#
# Total GULP energy -312293.877147 kJ/mol
# GULP energy per Si atom -5576.676378 kJ/mol
# Density = 2.320824 g / cm^3
# Si number density = 23.261181 Si / 1000 Ang^3
#
#
#
# Elastic Constant Matrix: (Units=GPa)
#
#
# Indices 1 2 3 4 5 6 
#
# 1 118.2544 32.3615 9.4741 0.0000 0.0000 0.0000
# 2 32.3615 27.7632 7.4848 0.0000 0.0000 0.0000
# 3 9.4741 7.4848 102.7276 0.0000 0.0000 0.0000
# 4 0.0000 0.0000 0.0000 14.1204 0.0000 0.0000
# 5 0.0000 0.0000 0.0000 0.0000 24.2047 0.0000
# 6 0.0000 0.0000 0.0000 0.0000 0.0000 41.9522
#
#
#
# Elastic Compliance Matrix: (Units=1/GPa)
#
#
# Indices 1 2 3 4 5 6 
#
# 1 0.012418 -0.014450 -0.000092 0.000000 0.000000 0.000000
# 2 -0.014450 0.053555 -0.002569 0.000000 0.000000 0.000000
# 3 -0.000092 -0.002569 0.009930 0.000000 0.000000 0.000000
# 4 0.000000 0.000000 0.000000 0.070820 0.000000 0.000000
# 5 0.000000 0.000000 0.000000 0.000000 0.041314 0.000000
# 6 0.000000 0.000000 0.000000 0.000000 0.000000 0.023837
#
#
# Mechanical properties :
#
#
# Convention : Reuss Voigt Hill
#
# Bulk Modulus (GPa) = 23.99254 38.59844 31.29549
# Shear Modulus (GPa) = 19.23148 29.35046 24.29097
#
# Velocity S-wave (km/s) = 2.87847 3.55601 3.23502
# Velocity P-wave (km/s) = 4.62431 5.78703 5.23803
#
# Compressibility (1/GPa) = 0.04167962
#
# Stress axis : x y z
#
# Youngs Moduli (GPa) = 80.52738 18.67244 100.70273
#
# Poissons Ratio (x) = 0.26982 0.00931
# Poissons Ratio (y) = 1.16362 0.25874
# Poissons Ratio (z) = 0.00744 0.04798
#
# Static dielectric constant tensor:
#      x y z
#    x 1.911170 0.000000 0.000000 
#    y 0.000000 1.830820 0.000000 
#    z 0.000000 0.000000 2.085720 
# 
# From -- ./inp_files/38574.got.cif
#   From: 2010.05.17/outbox.cif.g08.bks.cpg/sg63_20_cif.got.tgz:38574.got - 2010.06.03 15:47:04.
