data_PCOD9470863
_publ_section_title
;
Structure prediction by ZEFSAII (Michael W. Deem and Ramdas Pophale) SiO2 
 PCOD9470863
Probable space group: C M C M
;
_chemical_formula_sum "Si O2"
_cell_formula_units_Z 80
_cell_length_a 7.822551
_cell_length_b 28.485806
_cell_length_c 16.934232
_cell_angle_alpha 90.000000
_cell_angle_beta 90.000000
_cell_angle_gamma 90.000000
_cell_volume 3773.483200
_symmetry_space_group_name_H-M "C M C M"
_symmetry_group_IT_number 63
_symmetry_cell_setting 'orthorhombic'
loop_
_space_group_symop_operation_xyz
x,y,z
-x,-y,1/2+z
x,-y,-z
-x,y,1/2-z
-x,-y,-z
x,y,1/2-z
-x,y,z
x,-y,1/2+z
1/2+x,1/2+y,z
1/2-x,1/2-y,1/2+z
1/2+x,1/2-y,-z
1/2-x,1/2+y,1/2-z
1/2-x,1/2-y,-z
1/2+x,1/2+y,1/2-z
1/2-x,1/2+y,z
1/2+x,1/2-y,1/2+z
loop_
_atom_site_type_symbol
_atom_site_label
_atom_site_fract_x
_atom_site_fract_y
_atom_site_fract_z
Si Si1 0.705463 0.735642 0.909849
Si Si2 0.692343 0.004958 0.750000
Si Si3 0.315934 0.407341 0.750000
Si Si4 0.793162 0.862760 0.452030
Si Si5 0.700346 0.833968 0.871919
Si Si6 0.796792 0.470387 0.423231
O O1 0.500000 0.736102 0.903238
O O2 0.760567 0.681789 0.897131
O O3 0.766690 0.780653 0.860395
O O4 0.750000 0.750000 0.000000
O O5 0.500000 0.025896 0.750000
O O6 0.682685 0.948820 0.750000
O O7 0.772500 0.017511 0.835403
O O8 0.500000 0.430829 0.750000
O O9 0.295961 0.373113 0.823271
O O10 0.722493 0.848235 0.537345
O O11 0.730381 0.914813 0.433719
O O12 0.000000 0.863521 0.454335
O O13 0.500000 0.835432 0.850576
O O14 0.730437 0.500000 0.500000
O O15 0.000000 0.480893 0.420398
#
# Coordination Sequence:
#
# PCOD9470863 Si02
#       6
#    16   8   8  16  16  16
#     4   8  16  30  50  76 104 135 172 216 264 320
#     4  10  22  40  59  80 109 145 188 233 277 338
#     4  12  24  36  53  80 111 139 176 231 285 326
#     4  10  19  33  55  83 111 139 179 230 279 324
#     4  10  19  34  55  78 108 147 185 218 266 333
#     4  10  21  37  57  80 108 147 192 232 277 338
#
# _framework density 21.200571
#
# number of rings (size 3 to 8) (size 9 to 14) (size 15 to 20)
#    0.000    2.200    0.000    3.300    0.000    4.400 
#    0.000    1.000    0.000    3.600    0.000    0.000 
#    0.000    0.000    0.000    0.000    0.000    0.000 
#
# Total GULP energy -222849.672542 kJ/mol
# GULP energy per Si atom -5571.241814 kJ/mol
# Density = 2.115232 g / cm^3
# Si number density = 21.200571 Si / 1000 Ang^3
#
#
#
# Elastic Constant Matrix: (Units=GPa)
#
#
# Indices 1 2 3 4 5 6 
#
# 1 38.5904 -10.9617 7.5386 0.0000 0.0000 0.0000
# 2 -10.9617 169.8354 65.1415 0.0000 0.0000 0.0000
# 3 7.5386 65.1415 94.9240 0.0000 0.0000 0.0000
# 4 0.0000 0.0000 0.0000 -3.1896 0.0000 0.0000
# 5 0.0000 0.0000 0.0000 0.0000 -2.1817 0.0000
# 6 0.0000 0.0000 0.0000 0.0000 0.0000 18.7503
#
#
#
# Elastic Compliance Matrix: (Units=1/GPa)
#
#
# Indices 1 2 3 4 5 6 
#
# 1 0.027846 0.003591 -0.004676 0.000000 0.000000 0.000000
# 2 0.003591 0.008455 -0.006087 0.000000 0.000000 0.000000
# 3 -0.004676 -0.006087 0.015083 0.000000 0.000000 0.000000
# 4 0.000000 0.000000 0.000000 -0.313518 0.000000 0.000000
# 5 0.000000 0.000000 0.000000 0.000000 -0.458354 0.000000
# 6 0.000000 0.000000 0.000000 0.000000 0.000000 0.053332
#
#
# Mechanical properties :
#
#
# Convention : Reuss Voigt Hill
#
# Bulk Modulus (GPa) = 26.99762 47.42073 37.20917
# Shear Modulus (GPa) = -7.80683 18.78457 5.48887
#
# Velocity S-wave (km/s) = -1.92103 2.97987 1.61079
# Velocity P-wave (km/s) = 2.80028 5.85284 4.58788
#
# Compressibility (1/GPa) = 0.03704031
#
# Stress axis : x y z
#
# Youngs Moduli (GPa) = 35.91124 118.27963 66.29848
#
# Poissons Ratio (x) = -0.42470 0.30998
# Poissons Ratio (y) = -0.12894 0.40356
# Poissons Ratio (z) = 0.16790 0.71998
#
# Static dielectric constant tensor:
#      x y z
#    x 1.806260 0.000000 0.000000 
#    y 0.000000 1.771190 0.000000 
#    z 0.000000 0.000000 1.808890 
# 
# From -- ./inp_files/40575.got.cif
#   From: 2010.05.17/outbox.cif.g08.bks.cpg/sg63_21_cif.got.tgz:40575.got - 2010.06.03 15:47:04.
