data_PCOD9470199
_publ_section_title
;
Structure prediction by ZEFSAII (Michael W. Deem and Ramdas Pophale) SiO2 
 PCOD9470199
Probable space group: C M C M
;
_chemical_formula_sum "Si O2"
_cell_formula_units_Z 116
_cell_length_a 31.700317
_cell_length_b 22.043918
_cell_length_c 7.755533
_cell_angle_alpha 90.000000
_cell_angle_beta 90.000000
_cell_angle_gamma 90.000000
_cell_volume 5419.560167
_symmetry_space_group_name_H-M "C M C M"
_symmetry_group_IT_number 63
_symmetry_cell_setting 'orthorhombic'
loop_
_space_group_symop_operation_xyz
x,y,z
-x,-y,1/2+z
x,-y,-z
-x,y,1/2-z
-x,-y,-z
x,y,1/2-z
-x,y,z
x,-y,1/2+z
1/2+x,1/2+y,z
1/2-x,1/2-y,1/2+z
1/2+x,1/2-y,-z
1/2-x,1/2+y,1/2-z
1/2-x,1/2-y,-z
1/2+x,1/2+y,1/2-z
1/2-x,1/2+y,z
1/2+x,1/2-y,1/2+z
loop_
_atom_site_type_symbol
_atom_site_label
_atom_site_fract_x
_atom_site_fract_y
_atom_site_fract_z
Si Si1 0.405897 0.931803 0.544934
Si Si2 0.631431 0.252775 0.543847
Si Si3 0.000000 0.885136 0.750000
Si Si4 0.452880 0.188635 0.041821
Si Si5 0.239788 0.930773 0.044286
Si Si6 0.352815 0.612507 0.453692
Si Si7 0.822182 0.633712 0.544746
Si Si8 0.058772 0.930904 0.448856
O O1 0.405051 0.927120 0.750000
O O2 0.436313 0.877595 0.480862
O O3 0.358904 0.916021 0.480949
O O4 0.418698 0.000000 0.500000
O O5 0.636957 0.253201 0.750000
O O6 0.582742 0.236641 0.508969
O O7 0.644648 0.318404 0.478712
O O8 0.659127 0.196731 0.473240
O O9 0.963512 0.890189 0.594910
O O10 0.454222 0.187285 0.250000
O O11 0.500000 0.201722 0.978040
O O12 0.238941 0.924928 0.250000
O O13 0.277464 0.888451 0.974517
O O14 0.193501 0.913940 0.979811
O O15 0.249822 0.000000 0.000000
O O16 0.361417 0.612773 0.250000
O O17 0.390845 0.576190 0.539238
O O18 0.817250 0.641389 0.750000
O O19 0.046637 0.918954 0.250000
O O20 0.047632 0.000000 0.500000
#
# Coordination Sequence:
#
# PCOD9470199 Si02
#       8
#    16  16   4  16  16  16  16  16
#     4  10  19  31  51  79 112 149 189 237 290 346
#     4   9  20  39  62  83 114 152 193 244 298 351
#     4  12  24  44  66  98 128 162 210 260 316 384
#     4   9  19  36  55  77 110 148 190 238 291 348
#     4  11  23  38  60  88 120 153 196 240 296 366
#     4  11  23  42  60  86 122 162 202 246 303 363
#     4   9  19  37  59  86 115 151 193 242 293 353
#     4  12  24  41  67  93 128 165 206 260 317 374
#
# _framework density 21.403949999999998
#
# number of rings (size 3 to 8) (size 9 to 14) (size 15 to 20)
#    0.000    1.793    1.379    2.483    0.000    4.966 
#    1.241    0.000    0.000    0.000    0.000    0.000 
#    0.000    0.000    0.000    0.000    0.000    0.000 
#
# Total GULP energy -323540.468449 kJ/mol
# GULP energy per Si atom -5578.283939 kJ/mol
# Density = 2.135523 g / cm^3
# Si number density = 21.403950 Si / 1000 Ang^3
#
#
#
# Elastic Constant Matrix: (Units=GPa)
#
#
# Indices 1 2 3 4 5 6 
#
# 1 141.0454 19.6318 15.1655 0.0000 0.0000 0.0000
# 2 19.6318 55.6347 3.6058 0.0000 0.0000 0.0000
# 3 15.1655 3.6058 90.0819 0.0000 0.0000 0.0000
# 4 0.0000 0.0000 0.0000 9.6366 0.0000 0.0000
# 5 0.0000 0.0000 0.0000 0.0000 31.9899 0.0000
# 6 0.0000 0.0000 0.0000 0.0000 0.0000 35.4478
#
#
#
# Elastic Compliance Matrix: (Units=1/GPa)
#
#
# Indices 1 2 3 4 5 6 
#
# 1 0.007577 -0.002598 -0.001172 0.000000 0.000000 0.000000
# 2 -0.002598 0.018912 -0.000320 0.000000 0.000000 0.000000
# 3 -0.001172 -0.000320 0.011311 0.000000 0.000000 0.000000
# 4 0.000000 0.000000 0.000000 0.103771 0.000000 0.000000
# 5 0.000000 0.000000 0.000000 0.000000 0.031260 0.000000
# 6 0.000000 0.000000 0.000000 0.000000 0.000000 0.028210
#
#
# Mechanical properties :
#
#
# Convention : Reuss Voigt Hill
#
# Bulk Modulus (GPa) = 33.75885 40.39646 37.07766
# Shear Modulus (GPa) = 22.82124 31.97212 27.39668
#
# Velocity S-wave (km/s) = 3.26884 3.86910 3.58157
# Velocity P-wave (km/s) = 5.48211 6.23492 5.87060
#
# Compressibility (1/GPa) = 0.02962186
#
# Stress axis : x y z
#
# Youngs Moduli (GPa) = 131.96972 52.87697 88.40901
#
# Poissons Ratio (x) = 0.13737 0.10359
# Poissons Ratio (y) = 0.34285 0.02826
# Poissons Ratio (z) = 0.15463 0.01690
#
# Static dielectric constant tensor:
#      x y z
#    x 1.764870 0.000000 0.000000 
#    y 0.000000 1.850180 0.000000 
#    z 0.000000 0.000000 1.779730 
# 
# From -- ./inp_files/14764.got.cif
#   From: 2010.05.17/outbox.cif.g08.bks.cpg/sg63_8_cif.got.tgz:14764.got - 2010.06.03 15:47:04.
