data_PCOD9470829
_publ_section_title
;
Structure prediction by ZEFSAII (Michael W. Deem and Ramdas Pophale) SiO2 
 PCOD9470829
Probable space group: C M C M
;
_chemical_formula_sum "Si O2"
_cell_formula_units_Z 72
_cell_length_a 14.246689
_cell_length_b 26.857499
_cell_length_c 9.968782
_cell_angle_alpha 90.000000
_cell_angle_beta 90.000000
_cell_angle_gamma 90.000000
_cell_volume 3814.359399
_symmetry_space_group_name_H-M "C M C M"
_symmetry_group_IT_number 63
_symmetry_cell_setting 'orthorhombic'
loop_
_space_group_symop_operation_xyz
x,y,z
-x,-y,1/2+z
x,-y,-z
-x,y,1/2-z
-x,-y,-z
x,y,1/2-z
-x,y,z
x,-y,1/2+z
1/2+x,1/2+y,z
1/2-x,1/2-y,1/2+z
1/2+x,1/2-y,-z
1/2-x,1/2+y,1/2-z
1/2-x,1/2-y,-z
1/2+x,1/2+y,1/2-z
1/2-x,1/2+y,z
1/2+x,1/2-y,1/2+z
loop_
_atom_site_type_symbol
_atom_site_label
_atom_site_fract_x
_atom_site_fract_y
_atom_site_fract_z
Si Si1 0.601788 0.115446 0.750000
Si Si2 0.736028 0.694528 0.750000
Si Si3 0.392573 0.720080 0.250000
Si Si4 0.392229 0.346972 0.485074
Si Si5 0.899066 0.558239 0.028563
Si Si6 0.690219 0.450070 0.594041
O O1 0.500000 0.140477 0.750000
O O2 0.685571 0.152600 0.750000
O O3 0.607758 0.083166 0.616623
O O4 0.801103 0.743944 0.750000
O O5 0.671701 0.682501 0.878558
O O6 0.500000 0.742455 0.250000
O O7 0.387705 0.684896 0.379238
O O8 0.500000 0.348789 0.437869
O O9 0.359788 0.403229 0.521812
O O10 0.800420 0.565342 0.100637
O O11 0.000000 0.573848 0.089565
O O12 0.904330 0.500000 0.000000
O O13 0.681708 0.500000 0.500000
O O14 0.658674 0.457923 0.750000
#
# Coordination Sequence:
#
# PCOD9470829 Si02
#       6
#     8   8   8  16  16  16
#     4  10  19  33  54  87 119 152 201 256 305 366
#     4  12  22  40  67  96 119 159 211 265 311 378
#     4  10  23  45  69  91 124 167 208 257 326 386
#     4  11  24  43  65  93 129 168 209 262 317 373
#     4   9  19  32  52  80 119 161 200 246 308 370
#     4  11  24  39  63  92 128 172 215 257 311 374
#
# _framework density 18.876041000000001
#
# number of rings (size 3 to 8) (size 9 to 14) (size 15 to 20)
#    0.000    1.556    3.333    1.333    7.778    0.889 
#    0.000    0.000    0.000    1.333    0.000    0.000 
#    0.000    0.000    0.000    0.000    0.000    0.000 
#
# Total GULP energy -200543.397307 kJ/mol
# GULP energy per Si atom -5570.649925 kJ/mol
# Density = 1.883308 g / cm^3
# Si number density = 18.876041 Si / 1000 Ang^3
#
#
#
# Elastic Constant Matrix: (Units=GPa)
#
#
# Indices 1 2 3 4 5 6 
#
# 1 140.5075 58.6512 37.5687 0.0000 0.0000 0.0000
# 2 58.6512 104.1663 40.0633 0.0000 0.0000 0.0000
# 3 37.5687 40.0633 114.7002 0.0000 0.0000 0.0000
# 4 0.0000 0.0000 0.0000 23.7920 0.0000 0.0000
# 5 0.0000 0.0000 0.0000 0.0000 43.8975 0.0000
# 6 0.0000 0.0000 0.0000 0.0000 0.0000 30.9566
#
#
#
# Elastic Compliance Matrix: (Units=1/GPa)
#
#
# Indices 1 2 3 4 5 6 
#
# 1 0.009504 -0.004799 -0.001437 0.000000 0.000000 0.000000
# 2 -0.004799 0.013513 -0.003148 0.000000 0.000000 0.000000
# 3 -0.001437 -0.003148 0.010289 0.000000 0.000000 0.000000
# 4 0.000000 0.000000 0.000000 0.042031 0.000000 0.000000
# 5 0.000000 0.000000 0.000000 0.000000 0.022780 0.000000
# 6 0.000000 0.000000 0.000000 0.000000 0.000000 0.032303
#
#
# Mechanical properties :
#
#
# Convention : Reuss Voigt Hill
#
# Bulk Modulus (GPa) = 68.78405 70.21560 69.49983
# Shear Modulus (GPa) = 32.46037 34.60195 33.53116
#
# Velocity S-wave (km/s) = 4.15138 4.28613 4.21929
# Velocity P-wave (km/s) = 7.71347 7.85962 7.78689
#
# Compressibility (1/GPa) = 0.01453825
#
# Stress axis : x y z
#
# Youngs Moduli (GPa) = 105.21443 74.00391 97.19514
#
# Poissons Ratio (x) = 0.35513 0.13966
# Poissons Ratio (y) = 0.50491 0.30597
# Poissons Ratio (z) = 0.15118 0.23297
#
# Static dielectric constant tensor:
#      x y z
#    x 1.708980 0.000000 0.000000 
#    y 0.000000 1.606330 0.000000 
#    z 0.000000 0.000000 1.552540 
# 
# From -- ./inp_files/4676.got.cif
#   From: 2010.05.17/outbox.cif.g08.bks.cpg/sg63_3_cif.got.tgz:4676.got - 2010.06.03 15:47:04.
