data_PCOD9470018
_publ_section_title
;
Structure prediction by ZEFSAII (Michael W. Deem and Ramdas Pophale) SiO2 
 PCOD9470018
Probable space group: C M C M
;
_chemical_formula_sum "Si O2"
_cell_formula_units_Z 120
_cell_length_a 27.551736
_cell_length_b 28.653191
_cell_length_c 8.250086
_cell_angle_alpha 90.000000
_cell_angle_beta 90.000000
_cell_angle_gamma 90.000000
_cell_volume 6512.990413
_symmetry_space_group_name_H-M "C M C M"
_symmetry_group_IT_number 63
_symmetry_cell_setting 'orthorhombic'
loop_
_space_group_symop_operation_xyz
x,y,z
-x,-y,1/2+z
x,-y,-z
-x,y,1/2-z
-x,-y,-z
x,y,1/2-z
-x,y,z
x,-y,1/2+z
1/2+x,1/2+y,z
1/2-x,1/2-y,1/2+z
1/2+x,1/2-y,-z
1/2-x,1/2+y,1/2-z
1/2-x,1/2-y,-z
1/2+x,1/2+y,1/2-z
1/2-x,1/2+y,z
1/2+x,1/2-y,1/2+z
loop_
_atom_site_type_symbol
_atom_site_label
_atom_site_fract_x
_atom_site_fract_y
_atom_site_fract_z
Si Si1 0.895251 0.945710 0.446379
Si Si2 0.711978 0.552796 0.556666
Si Si3 0.842734 0.188312 0.556275
Si Si4 0.756668 0.358348 0.942814
Si Si5 0.947644 0.290578 0.055904
Si Si6 0.155297 0.704611 0.444088
Si Si7 0.500000 0.554682 0.553189
Si Si8 0.553015 0.678846 0.055846
O O1 0.895710 0.942459 0.250000
O O2 0.841776 0.930511 0.503370
O O3 0.947525 0.926203 0.505432
O O4 0.896274 0.000000 0.500000
O O5 0.719333 0.500000 0.500000
O O6 0.710111 0.553494 0.750000
O O7 0.752683 0.588450 0.499414
O O8 0.841523 0.188341 0.750000
O O9 0.794025 0.164596 0.494985
O O10 0.841056 0.241984 0.494344
O O11 0.894168 0.164579 0.509782
O O12 0.759519 0.357816 0.750000
O O13 0.801970 0.328393 0.007953
O O14 0.945847 0.294984 0.250000
O O15 0.947141 0.234879 0.020887
O O16 0.000000 0.308693 0.998262
O O17 0.898950 0.311922 0.984141
O O18 0.160036 0.707105 0.250000
O O19 0.500000 0.500000 0.500000
O O20 0.500000 0.556592 0.750000
O O21 0.553146 0.672857 0.250000
O O22 0.500000 0.662136 0.992143
#
# Coordination Sequence:
#
# PCOD9470018 Si02
#       8
#    16  16  16  16  16  16   8  16
#     4   8  14  24  41  63  85 106 133 171 221 278
#     4  10  20  35  53  72  92 119 156 200 248 297
#     4  10  19  31  48  71  98 128 165 206 248 293
#     4  11  22  35  50  69  96 130 166 204 248 295
#     4   8  14  25  43  68  97 129 163 195 232 279
#     4   9  19  32  47  71 101 132 166 203 242 286
#     4   8  12  20  36  60  84 104 126 162 216 274
#     4   8  14  26  44  65  91 126 164 200 240 289
#
# _framework density 18.424716
#
# number of rings (size 3 to 8) (size 9 to 14) (size 15 to 20)
#    0.000    2.933    0.000    2.400    0.000    2.667 
#    0.000    2.667    1.467    0.000    0.000    0.000 
#    0.000    0.533    0.000    1.733    0.000    2.533 
#
# Total GULP energy -334443.295802 kJ/mol
# GULP energy per Si atom -5574.054930 kJ/mol
# Density = 1.838278 g / cm^3
# Si number density = 18.424716 Si / 1000 Ang^3
#
#
#
# Elastic Constant Matrix: (Units=GPa)
#
#
# Indices 1 2 3 4 5 6 
#
# 1 127.9118 69.7607 13.0976 0.0000 0.0000 0.0000
# 2 69.7607 71.4266 7.0689 0.0000 0.0000 0.0000
# 3 13.0976 7.0689 10.9696 0.0000 0.0000 0.0000
# 4 0.0000 0.0000 0.0000 15.0705 0.0000 0.0000
# 5 0.0000 0.0000 0.0000 0.0000 24.0865 0.0000
# 6 0.0000 0.0000 0.0000 0.0000 0.0000 36.7220
#
#
#
# Elastic Compliance Matrix: (Units=1/GPa)
#
#
# Indices 1 2 3 4 5 6 
#
# 1 0.017843 -0.016362 -0.010761 0.000000 0.000000 0.000000
# 2 -0.016362 0.029958 0.000231 0.000000 0.000000 0.000000
# 3 -0.010761 0.000231 0.103861 0.000000 0.000000 0.000000
# 4 0.000000 0.000000 0.000000 0.066355 0.000000 0.000000
# 5 0.000000 0.000000 0.000000 0.000000 0.041517 0.000000
# 6 0.000000 0.000000 0.000000 0.000000 0.000000 0.027232
#
#
# Mechanical properties :
#
#
# Convention : Reuss Voigt Hill
#
# Bulk Modulus (GPa) = 10.21676 43.35138 26.78407
# Shear Modulus (GPa) = 13.39849 23.20119 18.29984
#
# Velocity S-wave (km/s) = 2.69959 3.55243 3.15496
# Velocity P-wave (km/s) = 3.90823 6.35660 5.27639
#
# Compressibility (1/GPa) = 0.09787839
#
# Stress axis : x y z
#
# Youngs Moduli (GPa) = 56.04297 33.37986 9.62825
#
# Poissons Ratio (x) = 0.54617 0.10361
# Poissons Ratio (y) = 0.91699 -0.00223
# Poissons Ratio (z) = 0.60308 -0.00772
#
# Static dielectric constant tensor:
#      x y z
#    x 1.683780 0.000000 0.000000 
#    y 0.000000 1.653790 0.000000 
#    z 0.000000 0.000000 1.633200 
# 
# From -- ./inp_files/13175.got.cif
#   From: 2010.05.17/outbox.cif.g08.bks.cpg/sg63_7_cif.got.tgz:13175.got - 2010.06.03 15:47:04.
