data_PCOD9470789
_publ_section_title
;
Structure prediction by ZEFSAII (Michael W. Deem and Ramdas Pophale) SiO2 
 PCOD9470789
Probable space group: C M C M
;
_chemical_formula_sum "Si O2"
_cell_formula_units_Z 72
_cell_length_a 18.478380
_cell_length_b 24.366151
_cell_length_c 7.734157
_cell_angle_alpha 90.000000
_cell_angle_beta 90.000000
_cell_angle_gamma 90.000000
_cell_volume 3482.280966
_symmetry_space_group_name_H-M "C M C M"
_symmetry_group_IT_number 63
_symmetry_cell_setting 'orthorhombic'
loop_
_space_group_symop_operation_xyz
x,y,z
-x,-y,1/2+z
x,-y,-z
-x,y,1/2-z
-x,-y,-z
x,y,1/2-z
-x,y,z
x,-y,1/2+z
1/2+x,1/2+y,z
1/2-x,1/2-y,1/2+z
1/2+x,1/2-y,-z
1/2-x,1/2+y,1/2-z
1/2-x,1/2-y,-z
1/2+x,1/2+y,1/2-z
1/2-x,1/2+y,z
1/2+x,1/2-y,1/2+z
loop_
_atom_site_type_symbol
_atom_site_label
_atom_site_fract_x
_atom_site_fract_y
_atom_site_fract_z
Si Si1 0.000000 0.064095 0.958229
Si Si2 0.915867 0.243601 0.539874
Si Si3 0.283732 0.936597 0.545320
Si Si4 0.417313 0.867385 0.961750
Si Si5 0.859470 0.869897 0.042486
O O1 0.072406 0.094316 0.022604
O O2 0.000000 0.068935 0.750000
O O3 0.000000 0.000000 0.000000
O O4 0.913044 0.244535 0.750000
O O5 0.897342 0.305223 0.483137
O O6 0.867891 0.192661 0.478244
O O7 0.000000 0.232889 0.494325
O O8 0.289408 0.933901 0.750000
O O9 0.357931 0.910348 0.474486
O O10 0.215172 0.899872 0.495613
O O11 0.273414 0.000000 0.500000
O O12 0.417741 0.867649 0.750000
O O13 0.500000 0.878623 0.015702
O O14 0.866201 0.867548 0.250000
#
# Coordination Sequence:
#
# PCOD9470789 Si02
#       5
#     8  16  16  16  16
#     4  10  20  32  48  72 100 136 179 212 242 292
#     4   8  13  27  53  81 106 133 169 211 254 308
#     4  11  23  37  52  75 106 139 177 219 262 308
#     4   8  16  32  55  80 104 133 171 215 262 313
#     4  10  19  33  54  79 106 137 173 212 256 306
#
# _framework density 20.676103000000001
#
# number of rings (size 3 to 8) (size 9 to 14) (size 15 to 20)
#    0.000    2.667    1.111    2.667    0.000    4.000 
#    0.000    0.000    0.000    3.333    0.000    6.222 
#    0.000    0.000    0.000    0.000    0.000    0.000 
#
# Total GULP energy -200891.309541 kJ/mol
# GULP energy per Si atom -5580.314154 kJ/mol
# Density = 2.062904 g / cm^3
# Si number density = 20.676103 Si / 1000 Ang^3
#
#
#
# Elastic Constant Matrix: (Units=GPa)
#
#
# Indices 1 2 3 4 5 6 
#
# 1 106.0937 37.4324 0.7835 0.0000 0.0000 0.0000
# 2 37.4324 52.6922 -2.4504 0.0000 0.0000 0.0000
# 3 0.7835 -2.4504 29.2066 0.0000 0.0000 0.0000
# 4 0.0000 0.0000 0.0000 -3.2027 0.0000 0.0000
# 5 0.0000 0.0000 0.0000 0.0000 4.4742 0.0000
# 6 0.0000 0.0000 0.0000 0.0000 0.0000 39.8468
#
#
#
# Elastic Compliance Matrix: (Units=1/GPa)
#
#
# Indices 1 2 3 4 5 6 
#
# 1 0.012613 -0.009011 -0.001094 0.000000 0.000000 0.000000
# 2 -0.009011 0.025490 0.002380 0.000000 0.000000 0.000000
# 3 -0.001094 0.002380 0.034468 0.000000 0.000000 0.000000
# 4 0.000000 0.000000 0.000000 -0.312236 0.000000 0.000000
# 5 0.000000 0.000000 0.000000 0.000000 0.223502 0.000000
# 6 0.000000 0.000000 0.000000 0.000000 0.000000 0.025096
#
#
# Mechanical properties :
#
#
# Convention : Reuss Voigt Hill
#
# Bulk Modulus (GPa) = 17.50675 28.83596 23.17136
# Shear Modulus (GPa) = 115.14325 18.37212 66.75769
#
# Velocity S-wave (km/s) = 7.47061 2.98412 5.68836
# Velocity P-wave (km/s) = 9.10488 5.08430 7.37390
#
# Compressibility (1/GPa) = 0.05712081
#
# Stress axis : x y z
#
# Youngs Moduli (GPa) = 79.28280 39.23054 29.01250
#
# Poissons Ratio (x) = 0.35351 0.03175
# Poissons Ratio (y) = 0.71443 -0.06906
# Poissons Ratio (z) = 0.08677 -0.09338
#
# Static dielectric constant tensor:
#      x y z
#    x 1.737780 0.000000 0.000000 
#    y 0.000000 1.709510 0.000000 
#    z 0.000000 0.000000 1.770540 
# 
# From -- ./inp_files/4656.got.cif
#   From: 2010.05.17/outbox.cif.g08.bks.cpg/sg63_3_cif.got.tgz:4656.got - 2010.06.03 15:47:04.
