data_PCOD9470466
_publ_section_title
;
Structure prediction by ZEFSAII (Michael W. Deem and Ramdas Pophale) SiO2 
 PCOD9470466
Probable space group: C M C M
;
_chemical_formula_sum "Si O2"
_cell_formula_units_Z 80
_cell_length_a 8.814942
_cell_length_b 28.097033
_cell_length_c 18.712209
_cell_angle_alpha 90.000000
_cell_angle_beta 90.000000
_cell_angle_gamma 90.000000
_cell_volume 4634.522343
_symmetry_space_group_name_H-M "C M C M"
_symmetry_group_IT_number 63
_symmetry_cell_setting 'orthorhombic'
loop_
_space_group_symop_operation_xyz
x,y,z
-x,-y,1/2+z
x,-y,-z
-x,y,1/2-z
-x,-y,-z
x,y,1/2-z
-x,y,z
x,-y,1/2+z
1/2+x,1/2+y,z
1/2-x,1/2-y,1/2+z
1/2+x,1/2-y,-z
1/2-x,1/2+y,1/2-z
1/2-x,1/2-y,-z
1/2+x,1/2+y,1/2-z
1/2-x,1/2+y,z
1/2+x,1/2-y,1/2+z
loop_
_atom_site_type_symbol
_atom_site_label
_atom_site_fract_x
_atom_site_fract_y
_atom_site_fract_z
Si Si1 0.181757 0.399051 0.541577
Si Si2 0.318015 0.798945 0.027221
Si Si3 0.817235 0.350316 0.169181
Si Si4 0.183045 0.044259 0.332964
Si Si5 0.181896 0.943046 0.401765
O O1 0.226332 0.345243 0.519584
O O2 0.244594 0.415500 0.617457
O O3 0.248601 0.433259 0.479786
O O4 0.000000 0.401996 0.539685
O O5 0.500000 0.795541 0.024784
O O6 0.273552 0.812331 0.108522
O O7 0.250000 0.750000 0.000000
O O8 0.778573 0.336737 0.250000
O O9 0.740701 0.400049 0.147677
O O10 0.000000 0.356528 0.164471
O O11 0.228236 0.046610 0.250000
O O12 0.000000 0.047701 0.336273
O O13 0.226175 0.993335 0.367328
O O14 0.000000 0.941512 0.406948
#
# Coordination Sequence:
#
# PCOD9470466 Si02
#       5
#    16  16  16  16  16
#     4  10  21  36  53  75 102 132 170 212 252 299
#     4   9  19  35  54  75  98 127 165 209 256 305
#     4   9  18  33  52  76 105 132 163 208 258 305
#     4  10  21  35  50  73 106 140 173 208 246 292
#     4  10  19  32  52  77 105 136 170 207 247 295
#
# _framework density 17.261756999999999
#
# number of rings (size 3 to 8) (size 9 to 14) (size 15 to 20)
#    0.000    2.400    0.000    3.600    0.000    9.600 
#    0.000    1.000    0.000    3.600    0.000    0.000 
#    0.000    0.000    0.000    0.000    0.000    0.000 
#
# Total GULP energy -223202.541168 kJ/mol
# GULP energy per Si atom -5580.063529 kJ/mol
# Density = 1.722247 g / cm^3
# Si number density = 17.261757 Si / 1000 Ang^3
#
#
#
# Elastic Constant Matrix: (Units=GPa)
#
#
# Indices 1 2 3 4 5 6 
#
# 1 21.1554 34.2637 39.6095 0.0000 0.0000 0.0000
# 2 34.2637 112.1009 95.5108 0.0000 0.0000 0.0000
# 3 39.6095 95.5108 155.9530 0.0000 0.0000 0.0000
# 4 0.0000 0.0000 0.0000 17.3598 0.0000 0.0000
# 5 0.0000 0.0000 0.0000 0.0000 29.2907 0.0000
# 6 0.0000 0.0000 0.0000 0.0000 0.0000 30.6053
#
#
#
# Elastic Compliance Matrix: (Units=1/GPa)
#
#
# Indices 1 2 3 4 5 6 
#
# 1 0.108369 -0.020227 -0.015136 0.000000 0.000000 0.000000
# 2 -0.020227 0.022430 -0.008599 0.000000 0.000000 0.000000
# 3 -0.015136 -0.008599 0.015523 0.000000 0.000000 0.000000
# 4 0.000000 0.000000 0.000000 0.057604 0.000000 0.000000
# 5 0.000000 0.000000 0.000000 0.000000 0.034141 0.000000
# 6 0.000000 0.000000 0.000000 0.000000 0.000000 0.032674
#
#
# Mechanical properties :
#
#
# Convention : Reuss Voigt Hill
#
# Bulk Modulus (GPa) = 17.12427 69.77525 43.44976
# Shear Modulus (GPa) = 13.22292 23.43951 18.33122
#
# Velocity S-wave (km/s) = 2.77072 3.68895 3.26230
# Velocity P-wave (km/s) = 4.49196 7.65860 6.27821
#
# Compressibility (1/GPa) = 0.05839666
#
# Stress axis : x y z
#
# Youngs Moduli (GPa) = 9.22773 44.58404 64.42001
#
# Poissons Ratio (x) = 0.90179 0.97509
# Poissons Ratio (y) = 0.18665 0.55397
# Poissons Ratio (z) = 0.13968 0.38339
#
# Static dielectric constant tensor:
#      x y z
#    x 1.581120 0.000000 0.000000 
#    y 0.000000 1.559440 0.000000 
#    z 0.000000 0.000000 1.592150 
# 
# From -- ./inp_files/40489.got.cif
#   From: 2010.05.17/outbox.cif.g08.bks.cpg/sg63_21_cif.got.tgz:40489.got - 2010.06.03 15:47:04.
