data_PCOD9470816
_publ_section_title
;
Structure prediction by ZEFSAII (Michael W. Deem and Ramdas Pophale) SiO2 
 PCOD9470816
Probable space group: C M C M
;
_chemical_formula_sum "Si O2"
_cell_formula_units_Z 100
_cell_length_a 7.515744
_cell_length_b 29.835327
_cell_length_c 22.025458
_cell_angle_alpha 90.000000
_cell_angle_beta 90.000000
_cell_angle_gamma 90.000000
_cell_volume 4938.871524
_symmetry_space_group_name_H-M "C M C M"
_symmetry_group_IT_number 63
_symmetry_cell_setting 'orthorhombic'
loop_
_space_group_symop_operation_xyz
x,y,z
-x,-y,1/2+z
x,-y,-z
-x,y,1/2-z
-x,-y,-z
x,y,1/2-z
-x,y,z
x,-y,1/2+z
1/2+x,1/2+y,z
1/2-x,1/2-y,1/2+z
1/2+x,1/2-y,-z
1/2-x,1/2+y,1/2-z
1/2-x,1/2-y,-z
1/2+x,1/2+y,1/2-z
1/2-x,1/2+y,z
1/2+x,1/2-y,1/2+z
loop_
_atom_site_type_symbol
_atom_site_label
_atom_site_fract_x
_atom_site_fract_y
_atom_site_fract_z
Si Si1 0.787956 0.871351 0.906085
Si Si2 0.216705 0.794454 0.819737
Si Si3 0.785611 0.731380 0.931914
Si Si4 0.203389 0.363885 0.460268
Si Si5 0.500000 0.959389 0.750000
Si Si6 0.795206 0.964951 0.646152
Si Si7 0.215732 0.464622 0.449184
O O1 0.733623 0.843407 0.846573
O O2 0.751994 0.923827 0.899330
O O3 0.000000 0.864965 0.912922
O O4 0.703061 0.853985 0.967727
O O5 0.277693 0.787335 0.750000
O O6 0.275094 0.760667 0.873837
O O7 0.000000 0.792485 0.817647
O O8 0.716445 0.680208 0.929594
O O9 0.000000 0.730282 0.927483
O O10 0.750000 0.750000 0.000000
O O11 0.282667 0.413615 0.453855
O O12 0.000000 0.367265 0.438440
O O13 0.654970 0.960530 0.698324
O O14 0.000000 0.958649 0.665088
O O15 0.771300 0.012204 0.613173
O O16 0.279676 0.500000 0.500000
O O17 0.000000 0.463359 0.453587
#
# Coordination Sequence:
#
# PCOD9470816 Si02
#       7
#    16  16  16  16   4  16  16
#     4  10  20  33  53  86 116 147 191 242 300 369
#     4   9  18  33  53  76 113 155 194 242 302 362
#     4  10  19  33  54  82 112 149 196 249 300 360
#     4  10  20  32  55  84 118 149 193 246 309 371
#     4  12  26  44  62  82 124 176 206 250 312 354
#     4  11  24  40  62  90 122 160 208 252 301 370
#     4  10  19  35  58  84 120 159 195 249 317 370
#
# _framework density 20.247540999999998
#
# number of rings (size 3 to 8) (size 9 to 14) (size 15 to 20)
#    0.000    1.920    4.000    0.240    2.240    0.960 
#    0.000    0.000    1.760    1.440    0.000    0.000 
#    0.000    0.000    0.000    0.000    0.000    0.000 
#
# Total GULP energy -278377.972552 kJ/mol
# GULP energy per Si atom -5567.559451 kJ/mol
# Density = 2.020146 g / cm^3
# Si number density = 20.247541 Si / 1000 Ang^3
#
#
#
# Elastic Constant Matrix: (Units=GPa)
#
#
# Indices 1 2 3 4 5 6 
#
# 1 47.1070 3.5847 -1.6743 0.0000 0.0000 0.0000
# 2 3.5847 150.6692 46.7653 0.0000 0.0000 0.0000
# 3 -1.6743 46.7653 76.3486 0.0000 0.0000 0.0000
# 4 0.0000 0.0000 0.0000 -136.1579 0.0000 0.0000
# 5 0.0000 0.0000 0.0000 0.0000 27.3362 0.0000
# 6 0.0000 0.0000 0.0000 0.0000 0.0000 -46.9975
#
#
#
# Elastic Compliance Matrix: (Units=1/GPa)
#
#
# Indices 1 2 3 4 5 6 
#
# 1 0.021324 -0.000806 0.000961 0.000000 0.000000 0.000000
# 2 -0.000806 0.008226 -0.005056 0.000000 0.000000 0.000000
# 3 0.000961 -0.005056 0.016216 0.000000 0.000000 0.000000
# 4 0.000000 0.000000 0.000000 -0.007344 0.000000 0.000000
# 5 0.000000 0.000000 0.000000 0.000000 0.036582 0.000000
# 6 0.000000 0.000000 0.000000 0.000000 0.000000 -0.021278
#
#
# Mechanical properties :
#
#
# Convention : Reuss Voigt Hill
#
# Bulk Modulus (GPa) = 27.80559 41.27514 34.54036
# Shear Modulus (GPa) = 66.21332 -16.13389 25.03971
#
# Velocity S-wave (km/s) = 5.72476 -2.82588 3.52046
# Velocity P-wave (km/s) = 7.58023 3.12762 5.79836
#
# Compressibility (1/GPa) = 0.03596399
#
# Stress axis : x y z
#
# Youngs Moduli (GPa) = 46.89614 121.57278 61.66817
#
# Poissons Ratio (x) = 0.09794 -0.05927
# Poissons Ratio (y) = 0.03778 0.31179
# Poissons Ratio (z) = -0.04507 0.61467
#
# Static dielectric constant tensor:
#      x y z
#    x 1.748250 0.000000 0.000000 
#    y 0.000000 1.751790 0.000000 
#    z 0.000000 0.000000 1.683730 
# 
# From -- ./inp_files/51693.got.cif
#   From: 2010.05.17/outbox.cif.g08.bks.cpg/sg63_26_cif.got.tgz:51693.got - 2010.06.03 15:47:04.
