data_PCOD9470096
_publ_section_title
;
Structure prediction by ZEFSAII (Michael W. Deem and Ramdas Pophale) SiO2 
 PCOD9470096
Probable space group: C M C M
;
_chemical_formula_sum "Si O2"
_cell_formula_units_Z 96
_cell_length_a 14.815642
_cell_length_b 32.081470
_cell_length_c 9.343158
_cell_angle_alpha 90.000000
_cell_angle_beta 90.000000
_cell_angle_gamma 90.000000
_cell_volume 4440.873766
_symmetry_space_group_name_H-M "C M C M"
_symmetry_group_IT_number 63
_symmetry_cell_setting 'orthorhombic'
loop_
_space_group_symop_operation_xyz
x,y,z
-x,-y,1/2+z
x,-y,-z
-x,y,1/2-z
-x,-y,-z
x,y,1/2-z
-x,y,z
x,-y,1/2+z
1/2+x,1/2+y,z
1/2-x,1/2-y,1/2+z
1/2+x,1/2-y,-z
1/2-x,1/2+y,1/2-z
1/2-x,1/2-y,-z
1/2+x,1/2+y,1/2-z
1/2-x,1/2+y,z
1/2+x,1/2-y,1/2+z
loop_
_atom_site_type_symbol
_atom_site_label
_atom_site_fract_x
_atom_site_fract_y
_atom_site_fract_z
Si Si1 0.392522 0.538430 0.910322
Si Si2 0.855615 0.625541 0.586533
Si Si3 0.359864 0.207048 0.084835
Si Si4 0.891336 0.540818 0.086363
Si Si5 0.639894 0.369984 0.413555
Si Si6 0.639302 0.289575 0.585585
O O1 0.353043 0.539293 0.750000
O O2 0.500000 0.532155 0.897723
O O3 0.380602 0.584290 0.974687
O O4 0.355603 0.500000 0.000000
O O5 0.889730 0.623223 0.750000
O O6 0.889883 0.665655 0.499165
O O7 0.871169 0.582886 0.500889
O O8 0.748004 0.632176 0.594873
O O9 0.388577 0.206458 0.250000
O O10 0.249566 0.208489 0.085415
O O11 0.388225 0.248789 0.002625
O O12 0.856516 0.542387 0.250000
O O13 0.000000 0.537801 0.094858
O O14 0.859628 0.500000 0.000000
O O15 0.605049 0.367842 0.250000
O O16 0.607852 0.331598 0.507996
O O17 0.610810 0.287098 0.750000
#
# Coordination Sequence:
#
# PCOD9470096 Si02
#       6
#    16  16  16  16  16  16
#     4   9  18  33  51  69  92 125 163 199 237 284
#     4  10  19  31  49  74 102 128 158 199 243 286
#     4   9  16  27  44  67  97 130 161 195 237 286
#     4  10  21  37  55  73  95 126 163 199 238 288
#     4   9  18  31  47  71 100 128 159 198 244 289
#     4   9  16  26  43  68  96 127 161 197 239 286
#
# _framework density 21.617367000000002
#
# number of rings (size 3 to 8) (size 9 to 14) (size 15 to 20)
#    0.000    2.667    0.000    2.000    0.000    7.000 
#    0.000    1.667    0.000    1.000    0.000    2.333 
#    0.000    0.000    0.000    0.000    0.000    0.000 
#
# Total GULP energy -268090.737580 kJ/mol
# GULP energy per Si atom -5585.223700 kJ/mol
# Density = 2.156817 g / cm^3
# Si number density = 21.617367 Si / 1000 Ang^3
#
#
#
# Elastic Constant Matrix: (Units=GPa)
#
#
# Indices 1 2 3 4 5 6 
#
# 1 58.5785 -1.4092 6.4864 0.0000 0.0000 0.0000
# 2 -1.4092 262.0620 151.3560 0.0000 0.0000 0.0000
# 3 6.4864 151.3560 204.7738 0.0000 0.0000 0.0000
# 4 0.0000 0.0000 0.0000 37.5379 0.0000 0.0000
# 5 0.0000 0.0000 0.0000 0.0000 29.4626 0.0000
# 6 0.0000 0.0000 0.0000 0.0000 0.0000 36.3367
#
#
#
# Elastic Compliance Matrix: (Units=1/GPa)
#
#
# Indices 1 2 3 4 5 6 
#
# 1 0.017207 0.000711 -0.001070 0.000000 0.000000 0.000000
# 2 0.000711 0.006688 -0.004966 0.000000 0.000000 0.000000
# 3 -0.001070 -0.004966 0.008588 0.000000 0.000000 0.000000
# 4 0.000000 0.000000 0.000000 0.026640 0.000000 0.000000
# 5 0.000000 0.000000 0.000000 0.000000 0.033941 0.000000
# 6 0.000000 0.000000 0.000000 0.000000 0.000000 0.027520
#
#
# Mechanical properties :
#
#
# Convention : Reuss Voigt Hill
#
# Bulk Modulus (GPa) = 45.80537 93.14230 69.47384
# Shear Modulus (GPa) = 36.09822 45.26620 40.68221
#
# Velocity S-wave (km/s) = 4.09084 4.58096 4.34282
# Velocity P-wave (km/s) = 6.59912 8.43567 7.57328
#
# Compressibility (1/GPa) = 0.02183150
#
# Stress axis : x y z
#
# Youngs Moduli (GPa) = 58.11679 149.52990 116.44708
#
# Poissons Ratio (x) = -0.10628 0.12464
# Poissons Ratio (y) = -0.04131 0.57823
# Poissons Ratio (z) = 0.06221 0.74250
#
# Static dielectric constant tensor:
#      x y z
#    x 1.832390 0.000000 0.000000 
#    y 0.000000 1.743900 0.000000 
#    z 0.000000 0.000000 1.763890 
# 
# From -- ./inp_files/8509.got.cif
#   From: 2010.05.17/outbox.cif.g08.bks.cpg/sg63_5_cif.got.tgz:8509.got - 2010.06.03 15:47:04.
