data_PCOD9470684
_publ_section_title
;
Structure prediction by ZEFSAII (Michael W. Deem and Ramdas Pophale) SiO2 
 PCOD9470684
Probable space group: C M C M
;
_chemical_formula_sum "Si O2"
_cell_formula_units_Z 112
_cell_length_a 15.297234
_cell_length_b 27.524411
_cell_length_c 14.105109
_cell_angle_alpha 90.000000
_cell_angle_beta 90.000000
_cell_angle_gamma 90.000000
_cell_volume 5938.918847
_symmetry_space_group_name_H-M "C M C M"
_symmetry_group_IT_number 63
_symmetry_cell_setting 'orthorhombic'
loop_
_space_group_symop_operation_xyz
x,y,z
-x,-y,1/2+z
x,-y,-z
-x,y,1/2-z
-x,-y,-z
x,y,1/2-z
-x,y,z
x,-y,1/2+z
1/2+x,1/2+y,z
1/2-x,1/2-y,1/2+z
1/2+x,1/2-y,-z
1/2-x,1/2+y,1/2-z
1/2-x,1/2-y,-z
1/2+x,1/2+y,1/2-z
1/2-x,1/2+y,z
1/2+x,1/2-y,1/2+z
loop_
_atom_site_type_symbol
_atom_site_label
_atom_site_fract_x
_atom_site_fract_y
_atom_site_fract_z
Si Si1 0.352483 0.737510 0.361192
Si Si2 0.848916 0.705895 0.359556
Si Si3 0.898461 0.130040 0.142777
Si Si4 0.604466 0.556654 0.977743
Si Si5 0.764310 0.884937 0.137051
Si Si6 0.092424 0.189777 0.635323
Si Si7 0.102343 0.340862 0.043224
O O1 0.374188 0.744370 0.250000
O O2 0.249776 0.725681 0.368970
O O3 0.393423 0.685978 0.391720
O O4 0.378880 0.786869 0.413146
O O5 0.863682 0.692922 0.250000
O O6 0.904182 0.753565 0.385185
O O7 0.871974 0.664335 0.432995
O O8 0.858638 0.128303 0.250000
O O9 0.000000 0.118195 0.152929
O O10 0.866714 0.091007 0.066326
O O11 0.500000 0.564308 0.957806
O O12 0.671204 0.571974 0.894868
O O13 0.613968 0.500000 0.000000
O O14 0.754894 0.884069 0.250000
O O15 0.821447 0.838023 0.104144
O O16 0.669334 0.878405 0.091380
O O17 0.093232 0.185631 0.750000
O O18 0.000000 0.169030 0.600878
O O19 0.000000 0.351817 0.055435
#
# Coordination Sequence:
#
# PCOD9470684 Si02
#       7
#    16  16  16  16  16  16  16
#     4  10  19  33  52  76 110 153 196 238 283 338
#     4  10  20  34  50  73 109 152 198 246 291 335
#     4   9  18  32  51  77 110 147 186 229 282 349
#     4  10  22  39  61  89 116 144 186 243 305 365
#     4  11  23  39  57  82 116 154 196 242 293 350
#     4   9  17  30  48  72 105 145 189 235 283 337
#     4  12  24  35  54  83 118 162 204 243 286 341
#
# _framework density 18.858651999999999
#
# number of rings (size 3 to 8) (size 9 to 14) (size 15 to 20)
#    0.000    1.857    1.429    3.000    2.000    4.000 
#    0.000    1.429    0.000    0.429    0.000    0.000 
#    0.000    0.000    0.000    0.000    0.000    0.000 
#
# Total GULP energy -312458.822583 kJ/mol
# GULP energy per Si atom -5579.621832 kJ/mol
# Density = 1.881573 g / cm^3
# Si number density = 18.858652 Si / 1000 Ang^3
#
#
#
# Elastic Constant Matrix: (Units=GPa)
#
#
# Indices 1 2 3 4 5 6 
#
# 1 102.6091 26.6747 35.1909 0.0000 0.0000 0.0000
# 2 26.6747 55.0411 33.3230 0.0000 0.0000 0.0000
# 3 35.1909 33.3230 83.1161 0.0000 0.0000 0.0000
# 4 0.0000 0.0000 0.0000 19.2594 0.0000 0.0000
# 5 0.0000 0.0000 0.0000 0.0000 14.7020 0.0000
# 6 0.0000 0.0000 0.0000 0.0000 0.0000 18.9197
#
#
#
# Elastic Compliance Matrix: (Units=1/GPa)
#
#
# Indices 1 2 3 4 5 6 
#
# 1 0.011916 -0.003592 -0.003605 0.000000 0.000000 0.000000
# 2 -0.003592 0.025075 -0.008532 0.000000 0.000000 0.000000
# 3 -0.003605 -0.008532 0.016978 0.000000 0.000000 0.000000
# 4 0.000000 0.000000 0.000000 0.051923 0.000000 0.000000
# 5 0.000000 0.000000 0.000000 0.000000 0.068018 0.000000
# 6 0.000000 0.000000 0.000000 0.000000 0.000000 0.052855
#
#
# Mechanical properties :
#
#
# Convention : Reuss Voigt Hill
#
# Bulk Modulus (GPa) = 44.42387 47.90485 46.16436
# Shear Modulus (GPa) = 18.81635 20.28141 19.54888
#
# Velocity S-wave (km/s) = 3.16216 3.28295 3.22312
# Velocity P-wave (km/s) = 6.07780 6.31091 6.19545
#
# Compressibility (1/GPa) = 0.02251042
#
# Stress axis : x y z
#
# Youngs Moduli (GPa) = 83.92110 39.88096 58.89874
#
# Poissons Ratio (x) = 0.14327 0.21232
# Poissons Ratio (y) = 0.30148 0.50252
# Poissons Ratio (z) = 0.30253 0.34026
#
# Static dielectric constant tensor:
#      x y z
#    x 1.703660 0.000000 0.000000 
#    y 0.000000 1.634430 0.000000 
#    z 0.000000 0.000000 1.733470 
# 
# From -- ./inp_files/32572.got.cif
#   From: 2010.05.17/outbox.cif.g08.bks.cpg/sg63_17_cif.got.tgz:32572.got - 2010.06.03 15:47:04.
