data_PCOD9470256
_publ_section_title
;
Structure prediction by ZEFSAII (Michael W. Deem and Ramdas Pophale) SiO2 
 PCOD9470256
Probable space group: C M C M
;
_chemical_formula_sum "Si O2"
_cell_formula_units_Z 88
_cell_length_a 19.744007
_cell_length_b 33.057707
_cell_length_c 9.062280
_cell_angle_alpha 90.000000
_cell_angle_beta 90.000000
_cell_angle_gamma 90.000000
_cell_volume 5914.874018
_symmetry_space_group_name_H-M "C M C M"
_symmetry_group_IT_number 63
_symmetry_cell_setting 'orthorhombic'
loop_
_space_group_symop_operation_xyz
x,y,z
-x,-y,1/2+z
x,-y,-z
-x,y,1/2-z
-x,-y,-z
x,y,1/2-z
-x,y,z
x,-y,1/2+z
1/2+x,1/2+y,z
1/2-x,1/2-y,1/2+z
1/2+x,1/2-y,-z
1/2-x,1/2+y,1/2-z
1/2-x,1/2-y,-z
1/2+x,1/2+y,1/2-z
1/2-x,1/2+y,z
1/2+x,1/2-y,1/2+z
loop_
_atom_site_type_symbol
_atom_site_label
_atom_site_fract_x
_atom_site_fract_y
_atom_site_fract_z
Si Si1 0.000000 0.956227 0.073932
Si Si2 0.849082 0.955599 0.427503
Si Si3 0.577145 0.335506 0.073504
Si Si4 0.281213 0.188410 0.581076
Si Si5 0.796580 0.120370 0.425393
Si Si6 0.354228 0.255322 0.418346
O O1 0.074168 0.939362 0.036905
O O2 0.000000 0.960249 0.250000
O O3 0.000000 0.000000 0.000000
O O4 0.842860 0.958027 0.250000
O O5 0.798139 0.923271 0.496757
O O6 0.842634 0.000000 0.500000
O O7 0.590339 0.342104 0.250000
O O8 0.500000 0.347884 0.043829
O O9 0.587287 0.287476 0.045764
O O10 0.634087 0.357896 0.979721
O O11 0.291900 0.176420 0.750000
O O12 0.262970 0.149712 0.482705
O O13 0.340605 0.217116 0.521122
O O14 0.213764 0.216801 0.577044
O O15 0.795631 0.116705 0.250000
O O16 0.362494 0.241459 0.250000
#
# Coordination Sequence:
#
# PCOD9470256 Si02
#       6
#     8  16  16  16  16  16
#     4   8  16  28  42  54  66  88 118 152 188 230
#     4  10  19  32  45  58  74  98 128 161 201 243
#     4   9  18  31  44  58  79 106 133 161 197 238
#     4   9  16  27  42  58  75  98 126 158 195 234
#     4  11  21  30  41  59  79 101 130 167 203 237
#     4   8  14  25  41  59  77  98 124 157 193 231
#
# _framework density 14.877746
#
# number of rings (size 3 to 8) (size 9 to 14) (size 15 to 20)
#    0.000    2.727    0.000    3.818    1.273    5.455 
#    0.000    0.000    0.000    0.000    0.000    0.000 
#    0.000    0.000    0.000    0.000    0.000    0.909 
#
# Total GULP energy -245009.500364 kJ/mol
# GULP energy per Si atom -5568.397736 kJ/mol
# Density = 1.484388 g / cm^3
# Si number density = 14.877746 Si / 1000 Ang^3
#
#
#
# Elastic Constant Matrix: (Units=GPa)
#
#
# Indices 1 2 3 4 5 6 
#
# 1 7.6311 12.1666 10.2592 0.0000 0.0000 0.0000
# 2 12.1666 77.2736 48.7712 0.0000 0.0000 0.0000
# 3 10.2592 48.7712 77.3624 0.0000 0.0000 0.0000
# 4 0.0000 0.0000 0.0000 25.0732 0.0000 0.0000
# 5 0.0000 0.0000 0.0000 0.0000 12.2421 0.0000
# 6 0.0000 0.0000 0.0000 0.0000 0.0000 23.0115
#
#
#
# Elastic Compliance Matrix: (Units=1/GPa)
#
#
# Indices 1 2 3 4 5 6 
#
# 1 0.179450 -0.021980 -0.009940 0.000000 0.000000 0.000000
# 2 -0.021980 0.024185 -0.012332 0.000000 0.000000 0.000000
# 3 -0.009940 -0.012332 0.022019 0.000000 0.000000 0.000000
# 4 0.000000 0.000000 0.000000 0.039883 0.000000 0.000000
# 5 0.000000 0.000000 0.000000 0.000000 0.081685 0.000000
# 6 0.000000 0.000000 0.000000 0.000000 0.000000 0.043457
#
#
# Mechanical properties :
#
#
# Convention : Reuss Voigt Hill
#
# Bulk Modulus (GPa) = 7.29135 33.85124 20.57130
# Shear Modulus (GPa) = 9.52561 18.13671 13.83116
#
# Velocity S-wave (km/s) = 2.53308 3.49528 3.05233
# Velocity P-wave (km/s) = 3.66971 6.25233 5.12632
#
# Compressibility (1/GPa) = 0.13714873
#
# Stress axis : x y z
#
# Youngs Moduli (GPa) = 5.57258 41.34764 45.41573
#
# Poissons Ratio (x) = 0.90884 0.45144
# Poissons Ratio (y) = 0.12249 0.56007
# Poissons Ratio (z) = 0.05539 0.50990
#
# Static dielectric constant tensor:
#      x y z
#    x 1.489430 0.000000 0.000000 
#    y 0.000000 1.517440 0.000000 
#    z 0.000000 0.000000 1.492840 
# 
# From -- ./inp_files/11024.got.cif
#   From: 2010.05.17/outbox.cif.g08.bks.cpg/sg63_6_cif.got.tgz:11024.got - 2010.06.03 15:47:04.
