data_PCOD9470341
_publ_section_title
;
Structure prediction by ZEFSAII (Michael W. Deem and Ramdas Pophale) SiO2 
 PCOD9470341
Probable space group: C M C M
;
_chemical_formula_sum "Si O2"
_cell_formula_units_Z 96
_cell_length_a 13.280137
_cell_length_b 22.041239
_cell_length_c 19.662963
_cell_angle_alpha 90.000000
_cell_angle_beta 90.000000
_cell_angle_gamma 90.000000
_cell_volume 5755.559144
_symmetry_space_group_name_H-M "C M C M"
_symmetry_group_IT_number 63
_symmetry_cell_setting 'orthorhombic'
loop_
_space_group_symop_operation_xyz
x,y,z
-x,-y,1/2+z
x,-y,-z
-x,y,1/2-z
-x,-y,-z
x,y,1/2-z
-x,y,z
x,-y,1/2+z
1/2+x,1/2+y,z
1/2-x,1/2-y,1/2+z
1/2+x,1/2-y,-z
1/2-x,1/2+y,1/2-z
1/2-x,1/2-y,-z
1/2+x,1/2+y,1/2-z
1/2-x,1/2+y,z
1/2+x,1/2-y,1/2+z
loop_
_atom_site_type_symbol
_atom_site_label
_atom_site_fract_x
_atom_site_fract_y
_atom_site_fract_z
Si Si1 0.617199 0.103549 0.171531
Si Si2 0.278631 0.830393 0.944472
Si Si3 0.882949 0.892970 0.171785
Si Si4 0.616730 0.935420 0.028779
Si Si5 0.682543 0.963307 0.173723
Si Si6 0.119258 0.199015 0.953539
O O1 0.617618 0.122069 0.250000
O O2 0.500000 0.108585 0.147418
O O3 0.696256 0.141968 0.128606
O O4 0.652361 0.033689 0.168003
O O5 0.328303 0.764069 0.944413
O O6 0.333199 0.877721 0.994631
O O7 0.167664 0.826492 0.976714
O O8 0.873730 0.868845 0.250000
O O9 0.800919 0.946763 0.166622
O O10 0.860983 0.844251 0.112114
O O11 0.000000 0.911960 0.163551
O O12 0.500000 0.934866 0.010865
O O13 0.629934 0.932609 0.109651
O O14 0.658569 0.000000 0.000000
O O15 0.651960 0.943468 0.250000
O O16 0.000000 0.205991 0.958838
#
# Coordination Sequence:
#
# PCOD9470341 Si02
#       6
#    16  16  16  16  16  16
#     4  10  20  34  54  80 107 135 171 217 265 311
#     4  11  21  35  54  78 105 135 172 218 262 309
#     4   9  18  34  54  75 102 137 178 218 254 299
#     4  11  20  31  51  77 105 136 169 209 257 312
#     4  10  19  32  50  75 107 137 166 207 258 309
#     4  10  21  36  54  76 103 138 177 217 261 304
#
# _framework density 16.679525999999999
#
# number of rings (size 3 to 8) (size 9 to 14) (size 15 to 20)
#    0.000    1.833    3.333    2.000    0.000    1.667 
#    0.000    2.500    0.000    4.500    0.000    0.000 
#    0.000    0.000    0.000    0.000    0.000    0.000 
#
# Total GULP energy -267277.789029 kJ/mol
# GULP energy per Si atom -5568.287271 kJ/mol
# Density = 1.664156 g / cm^3
# Si number density = 16.679526 Si / 1000 Ang^3
#
#
#
# Elastic Constant Matrix: (Units=GPa)
#
#
# Indices 1 2 3 4 5 6 
#
# 1 37.0445 -6.2581 12.6721 0.0000 0.0000 0.0000
# 2 -6.2581 12.3514 2.8415 0.0000 0.0000 0.0000
# 3 12.6721 2.8415 88.2881 0.0000 0.0000 0.0000
# 4 0.0000 0.0000 0.0000 24.8918 0.0000 0.0000
# 5 0.0000 0.0000 0.0000 0.0000 28.3398 0.0000
# 6 0.0000 0.0000 0.0000 0.0000 0.0000 22.7326
#
#
#
# Elastic Compliance Matrix: (Units=1/GPa)
#
#
# Indices 1 2 3 4 5 6 
#
# 1 0.031644 0.017206 -0.005096 0.000000 0.000000 0.000000
# 2 0.017206 0.090922 -0.005396 0.000000 0.000000 0.000000
# 3 -0.005096 -0.005396 0.012232 0.000000 0.000000 0.000000
# 4 0.000000 0.000000 0.000000 0.040174 0.000000 0.000000
# 5 0.000000 0.000000 0.000000 0.000000 0.035286 0.000000
# 6 0.000000 0.000000 0.000000 0.000000 0.000000 0.043990
#
#
# Mechanical properties :
#
#
# Convention : Reuss Voigt Hill
#
# Bulk Modulus (GPa) = 6.74647 17.35500 12.05073
# Shear Modulus (GPa) = 17.22787 23.75475 20.49131
#
# Velocity S-wave (km/s) = 3.21732 3.77793 3.50884
# Velocity P-wave (km/s) = 4.22553 5.42752 4.86380
#
# Compressibility (1/GPa) = 0.14822572
#
# Stress axis : x y z
#
# Youngs Moduli (GPa) = 31.60127 10.99848 81.75543
#
# Poissons Ratio (x) = -0.18924 0.41660
# Poissons Ratio (y) = -0.54372 0.44113
# Poissons Ratio (z) = 0.16103 0.05935
#
# Static dielectric constant tensor:
#      x y z
#    x 1.558040 0.000000 0.000000 
#    y 0.000000 1.557310 0.000000 
#    z 0.000000 0.000000 1.608650 
# 
# From -- ./inp_files/42523.got.cif
#   From: 2010.05.17/outbox.cif.g08.bks.cpg/sg63_22_cif.got.tgz:42523.got - 2010.06.03 15:47:04.
