data_PCOD9470793
_publ_section_title
;
Structure prediction by ZEFSAII (Michael W. Deem and Ramdas Pophale) SiO2 
 PCOD9470793
Probable space group: C M C M
;
_chemical_formula_sum "Si O2"
_cell_formula_units_Z 80
_cell_length_a 9.056995
_cell_length_b 28.230365
_cell_length_c 16.340471
_cell_angle_alpha 90.000000
_cell_angle_beta 90.000000
_cell_angle_gamma 90.000000
_cell_volume 4177.968794
_symmetry_space_group_name_H-M "C M C M"
_symmetry_group_IT_number 63
_symmetry_cell_setting 'orthorhombic'
loop_
_space_group_symop_operation_xyz
x,y,z
-x,-y,1/2+z
x,-y,-z
-x,y,1/2-z
-x,-y,-z
x,y,1/2-z
-x,y,z
x,-y,1/2+z
1/2+x,1/2+y,z
1/2-x,1/2-y,1/2+z
1/2+x,1/2-y,-z
1/2-x,1/2+y,1/2-z
1/2-x,1/2-y,-z
1/2+x,1/2+y,1/2-z
1/2-x,1/2+y,z
1/2+x,1/2-y,1/2+z
loop_
_atom_site_type_symbol
_atom_site_label
_atom_site_fract_x
_atom_site_fract_y
_atom_site_fract_z
Si Si1 0.830169 0.481506 0.404731
Si Si2 0.179118 0.712313 0.934874
Si Si3 0.831523 0.072837 0.127173
Si Si4 0.320827 0.756751 0.250000
Si Si5 0.668925 0.610595 0.942848
Si Si6 0.180016 0.849720 0.750000
O O1 0.823651 0.500000 0.500000
O O2 0.759762 0.525649 0.357885
O O3 0.744902 0.432104 0.392917
O O4 0.000000 0.474412 0.384202
O O5 0.220139 0.722746 0.839287
O O6 0.240021 0.659211 0.948773
O O7 0.000000 0.714582 0.942382
O O8 0.250000 0.750000 0.000000
O O9 0.774037 0.118847 0.173548
O O10 0.000000 0.063917 0.152950
O O11 0.835644 0.087712 0.033007
O O12 0.500000 0.757604 0.250000
O O13 0.264251 0.703009 0.250000
O O14 0.500000 0.619920 0.916695
O O15 0.000000 0.846200 0.750000
#
# Coordination Sequence:
#
# PCOD9470793 Si02
#       6
#    16  16  16   8  16   8
#     4   9  17  30  49  74 104 135 171 218 270 325
#     4  11  22  38  60  85 113 148 191 236 284 336
#     4   9  17  30  51  77 104 136 174 215 263 323
#     4   9  20  38  58  81 112 149 188 231 280 337
#     4  10  19  33  54  79 107 141 182 225 271 325
#     4   9  16  30  52  75 100 133 174 217 262 317
#
# _framework density 19.148060999999998
#
# number of rings (size 3 to 8) (size 9 to 14) (size 15 to 20)
#    0.000    2.400    0.000    3.000    0.000    6.400 
#    0.000    3.500    0.000    2.400    0.000    0.000 
#    0.000    0.000    0.000    0.000    0.000    0.000 
#
# Total GULP energy -222766.477592 kJ/mol
# GULP energy per Si atom -5569.161940 kJ/mol
# Density = 1.910448 g / cm^3
# Si number density = 19.148061 Si / 1000 Ang^3
#
#
#
# Elastic Constant Matrix: (Units=GPa)
#
#
# Indices 1 2 3 4 5 6 
#
# 1 94.6285 65.8077 28.3237 0.0000 0.0000 0.0000
# 2 65.8077 149.1382 27.7165 0.0000 0.0000 0.0000
# 3 28.3237 27.7165 59.7156 0.0000 0.0000 0.0000
# 4 0.0000 0.0000 0.0000 -46.6317 0.0000 0.0000
# 5 0.0000 0.0000 0.0000 0.0000 -0.4144 0.0000
# 6 0.0000 0.0000 0.0000 0.0000 0.0000 36.5821
#
#
#
# Elastic Compliance Matrix: (Units=1/GPa)
#
#
# Indices 1 2 3 4 5 6 
#
# 1 0.016436 -0.006351 -0.004848 0.000000 0.000000 0.000000
# 2 -0.006351 0.009793 -0.001533 0.000000 0.000000 0.000000
# 3 -0.004848 -0.001533 0.019757 0.000000 0.000000 0.000000
# 4 0.000000 0.000000 0.000000 -0.021445 0.000000 0.000000
# 5 0.000000 0.000000 0.000000 0.000000 -2.413042 0.000000
# 6 0.000000 0.000000 0.000000 0.000000 0.000000 0.027336
#
#
# Mechanical properties :
#
#
# Convention : Reuss Voigt Hill
#
# Bulk Modulus (GPa) = 48.72913 60.79756 54.76335
# Shear Modulus (GPa) = -2.14697 10.01614 3.93459
#
# Velocity S-wave (km/s) = -1.06004 2.28960 1.43502
# Velocity P-wave (km/s) = 4.89955 6.22976 5.60426
#
# Compressibility (1/GPa) = 0.02052160
#
# Stress axis : x y z
#
# Youngs Moduli (GPa) = 60.84385 102.11832 50.61574
#
# Poissons Ratio (x) = 0.64859 0.24537
# Poissons Ratio (y) = 0.38644 0.07758
# Poissons Ratio (z) = 0.29495 0.15651
#
# Static dielectric constant tensor:
#      x y z
#    x 1.665260 0.000000 0.000000 
#    y 0.000000 1.641300 0.000000 
#    z 0.000000 0.000000 1.748340 
# 
# From -- ./inp_files/40598.got.cif
#   From: 2010.05.17/outbox.cif.g08.bks.cpg/sg63_21_cif.got.tgz:40598.got - 2010.06.03 15:47:04.
