data_PCOD9470636
_publ_section_title
;
Structure prediction by ZEFSAII (Michael W. Deem and Ramdas Pophale) SiO2 
 PCOD9470636
Probable space group: C M C M
;
_chemical_formula_sum "Si O2"
_cell_formula_units_Z 96
_cell_length_a 21.680874
_cell_length_b 31.515775
_cell_length_c 8.425946
_cell_angle_alpha 90.000000
_cell_angle_beta 90.000000
_cell_angle_gamma 90.000000
_cell_volume 5757.360824
_symmetry_space_group_name_H-M "C M C M"
_symmetry_group_IT_number 63
_symmetry_cell_setting 'orthorhombic'
loop_
_space_group_symop_operation_xyz
x,y,z
-x,-y,1/2+z
x,-y,-z
-x,y,1/2-z
-x,-y,-z
x,y,1/2-z
-x,y,z
x,-y,1/2+z
1/2+x,1/2+y,z
1/2-x,1/2-y,1/2+z
1/2+x,1/2-y,-z
1/2-x,1/2+y,1/2-z
1/2-x,1/2-y,-z
1/2+x,1/2+y,1/2-z
1/2-x,1/2+y,z
1/2+x,1/2-y,1/2+z
loop_
_atom_site_type_symbol
_atom_site_label
_atom_site_fract_x
_atom_site_fract_y
_atom_site_fract_z
Si Si1 0.095190 0.653855 0.063027
Si Si2 0.432855 0.750296 0.556518
Si Si3 0.801437 0.216746 0.939069
Si Si4 0.202175 0.544574 0.940007
Si Si5 0.434188 0.935854 0.062221
Si Si6 0.260992 0.865578 0.564118
O O1 0.080584 0.647344 0.250000
O O2 0.072211 0.699973 0.014744
O O3 0.169128 0.651993 0.046451
O O4 0.069124 0.614668 0.965162
O O5 0.432125 0.748502 0.750000
O O6 0.500000 0.733854 0.503865
O O7 0.370122 0.728062 0.500208
O O8 0.802126 0.221169 0.750000
O O9 0.750000 0.250000 0.000000
O O10 0.782380 0.169099 0.983862
O O11 0.199964 0.544800 0.750000
O O12 0.131123 0.547855 0.004370
O O13 0.228293 0.500000 0.000000
O O14 0.237127 0.586902 0.995330
O O15 0.434268 0.944848 0.250000
O O16 0.500000 0.950829 0.993759
O O17 0.247060 0.867637 0.750000
#
# Coordination Sequence:
#
# PCOD9470636 Si02
#       6
#    16  16  16  16  16  16
#     4   9  16  28  45  64  87 120 163 204 240 283
#     4   9  17  29  45  67  96 129 166 205 242 284
#     4  11  20  32  50  73 100 132 168 207 247 293
#     4  10  20  34  50  69  92 121 155 200 250 296
#     4   9  18  30  42  60  88 120 156 199 246 291
#     4  10  19  33  51  72  94 123 163 205 246 293
#
# _framework density 16.674306000000001
#
# number of rings (size 3 to 8) (size 9 to 14) (size 15 to 20)
#    0.000    2.333    1.667    2.000    0.000    2.667 
#    0.000    0.000    0.000    3.000    0.000    0.000 
#    0.000    0.667    0.000    1.833    0.000    2.667 
#
# Total GULP energy -267649.152459 kJ/mol
# GULP energy per Si atom -5576.024010 kJ/mol
# Density = 1.663635 g / cm^3
# Si number density = 16.674306 Si / 1000 Ang^3
#
#
#
# Elastic Constant Matrix: (Units=GPa)
#
#
# Indices 1 2 3 4 5 6 
#
# 1 90.9955 56.9428 19.2726 0.0000 0.0000 0.0000
# 2 56.9428 108.8880 14.3642 0.0000 0.0000 0.0000
# 3 19.2726 14.3642 25.3944 0.0000 0.0000 0.0000
# 4 0.0000 0.0000 0.0000 24.1222 0.0000 0.0000
# 5 0.0000 0.0000 0.0000 0.0000 9.7153 0.0000
# 6 0.0000 0.0000 0.0000 0.0000 0.0000 -3.0502
#
#
#
# Elastic Compliance Matrix: (Units=1/GPa)
#
#
# Indices 1 2 3 4 5 6 
#
# 1 0.018073 -0.008258 -0.009045 0.000000 0.000000 0.000000
# 2 -0.008258 0.013698 -0.001481 0.000000 0.000000 0.000000
# 3 -0.009045 -0.001481 0.047081 0.000000 0.000000 0.000000
# 4 0.000000 0.000000 0.000000 0.041456 0.000000 0.000000
# 5 0.000000 0.000000 0.000000 0.000000 0.102930 0.000000
# 6 0.000000 0.000000 0.000000 0.000000 0.000000 -0.327846
#
#
# Mechanical properties :
#
#
# Convention : Reuss Voigt Hill
#
# Bulk Modulus (GPa) = 24.22252 45.15970 34.69111
# Shear Modulus (GPa) = -93.84409 15.13736 -39.35337
#
# Velocity S-wave (km/s) = -7.51018 3.01628 -4.86338
# Velocity P-wave (km/s) = 7.78752 6.26680 3.26899
#
# Compressibility (1/GPa) = 0.04128389
#
# Stress axis : x y z
#
# Youngs Moduli (GPa) = 55.33139 73.00555 21.24006
#
# Poissons Ratio (x) = 0.60288 0.19212
# Poissons Ratio (y) = 0.45693 0.03145
# Poissons Ratio (z) = 0.50047 0.10810
#
# Static dielectric constant tensor:
#      x y z
#    x 1.596310 0.000000 0.000000 
#    y 0.000000 1.562060 0.000000 
#    z 0.000000 0.000000 1.580940 
# 
# From -- ./inp_files/10683.got.cif
#   From: 2010.05.17/outbox.cif.g08.bks.cpg/sg63_6_cif.got.tgz:10683.got - 2010.06.03 15:47:04.
