data_PCOD9470881
_publ_section_title
;
Structure prediction by ZEFSAII (Michael W. Deem and Ramdas Pophale) SiO2 
 PCOD9470881
Probable space group: C M C M
;
_chemical_formula_sum "Si O2"
_cell_formula_units_Z 128
_cell_length_a 22.530292
_cell_length_b 11.834462
_cell_length_c 26.609625
_cell_angle_alpha 90.000000
_cell_angle_beta 90.000000
_cell_angle_gamma 90.000000
_cell_volume 7095.027679
_symmetry_space_group_name_H-M "C M C M"
_symmetry_group_IT_number 63
_symmetry_cell_setting 'orthorhombic'
loop_
_space_group_symop_operation_xyz
x,y,z
-x,-y,1/2+z
x,-y,-z
-x,y,1/2-z
-x,-y,-z
x,y,1/2-z
-x,y,z
x,-y,1/2+z
1/2+x,1/2+y,z
1/2-x,1/2-y,1/2+z
1/2+x,1/2-y,-z
1/2-x,1/2+y,1/2-z
1/2-x,1/2-y,-z
1/2+x,1/2+y,1/2-z
1/2-x,1/2+y,z
1/2+x,1/2-y,1/2+z
loop_
_atom_site_type_symbol
_atom_site_label
_atom_site_fract_x
_atom_site_fract_y
_atom_site_fract_z
Si Si1 0.071144 0.568907 0.889479
Si Si2 0.071365 0.308142 0.904422
Si Si3 0.661474 0.370613 0.370141
Si Si4 0.928768 0.738561 0.521733
Si Si5 0.850937 0.318250 0.192862
Si Si6 0.746356 0.498570 0.695059
Si Si7 0.764325 0.193953 0.121216
Si Si8 0.841514 0.933980 0.549423
O O1 0.088518 0.437397 0.892457
O O2 0.090056 0.639832 0.939174
O O3 0.096587 0.627706 0.839742
O O4 0.000000 0.571706 0.888807
O O5 0.107444 0.217790 0.871062
O O6 0.000000 0.296230 0.898335
O O7 0.085687 0.287073 0.963483
O O8 0.686548 0.434321 0.320818
O O9 0.718872 0.295855 0.386201
O O10 0.646837 0.470914 0.408684
O O11 0.897368 0.854294 0.537882
O O12 0.000000 0.748185 0.524931
O O13 0.866380 0.283327 0.250000
O O14 0.799146 0.411548 0.197071
O O15 0.820205 0.226006 0.156908
O O16 0.739768 0.444877 0.750000
O O17 0.763599 0.408305 0.652841
O O18 0.789828 0.146476 0.069833
O O19 0.823404 0.000000 0.500000
#
# Coordination Sequence:
#
# PCOD9470881 Si02
#       8
#    16  16  16  16  16  16  16  16
#     4  10  20  35  55  81 112 144 184 232 276 322
#     4  10  20  36  57  81 110 146 188 229 274 329
#     4  10  21  35  55  83 112 145 180 229 276 328
#     4  10  20  36  58  80 106 148 193 231 271 323
#     4  10  19  33  56  80 105 140 180 225 277 327
#     4   9  19  35  57  82 106 139 184 228 273 330
#     4  10  20  36  54  77 112 145 182 223 273 328
#     4  11  21  36  54  80 113 145 184 225 276 332
#
# _framework density 18.040803
#
# number of rings (size 3 to 8) (size 9 to 14) (size 15 to 20)
#    0.000    2.000    2.500    1.500    0.000    3.500 
#    0.000    0.625    0.000    1.125    0.000    0.000 
#    0.000    0.000    0.000    0.000    0.000    0.000 
#
# Total GULP energy -356698.565196 kJ/mol
# GULP energy per Si atom -5573.415081 kJ/mol
# Density = 1.799974 g / cm^3
# Si number density = 18.040803 Si / 1000 Ang^3
#
#
#
# Elastic Constant Matrix: (Units=GPa)
#
#
# Indices 1 2 3 4 5 6 
#
# 1 31.8844 17.6402 12.0939 0.0000 0.0000 0.0000
# 2 17.6402 65.5591 -2.4276 0.0000 0.0000 0.0000
# 3 12.0939 -2.4276 30.1424 0.0000 0.0000 0.0000
# 4 0.0000 0.0000 0.0000 20.4474 0.0000 0.0000
# 5 0.0000 0.0000 0.0000 0.0000 11.7404 0.0000
# 6 0.0000 0.0000 0.0000 0.0000 0.0000 30.7776
#
#
#
# Elastic Compliance Matrix: (Units=1/GPa)
#
#
# Indices 1 2 3 4 5 6 
#
# 1 0.046017 -0.013105 -0.019519 0.000000 0.000000 0.000000
# 2 -0.013105 0.019031 0.006791 0.000000 0.000000 0.000000
# 3 -0.019519 0.006791 0.041554 0.000000 0.000000 0.000000
# 4 0.000000 0.000000 0.000000 0.048906 0.000000 0.000000
# 5 0.000000 0.000000 0.000000 0.000000 0.085176 0.000000
# 6 0.000000 0.000000 0.000000 0.000000 0.000000 0.032491
#
#
# Mechanical properties :
#
#
# Convention : Reuss Voigt Hill
#
# Bulk Modulus (GPa) = 18.20275 20.24433 19.22354
# Shear Modulus (GPa) = 14.57077 19.27837 16.92457
#
# Velocity S-wave (km/s) = 2.84501 3.27249 3.06621
# Velocity P-wave (km/s) = 4.57207 5.05220 4.81812
#
# Compressibility (1/GPa) = 0.05493674
#
# Stress axis : x y z
#
# Youngs Moduli (GPa) = 21.73107 52.54585 24.06506
#
# Poissons Ratio (x) = 0.68860 0.46972
# Poissons Ratio (y) = 0.28478 -0.16342
# Poissons Ratio (z) = 0.42416 -0.35682
#
# Static dielectric constant tensor:
#      x y z
#    x 1.610310 0.000000 0.000000 
#    y 0.000000 1.640300 0.000000 
#    z 0.000000 0.000000 1.629680 
# 
# From -- ./inp_files/70811.got.cif
#   From: 2010.05.17/outbox.cif.g08.bks.cpg/sg63_36_cif.got.tgz:70811.got - 2010.06.03 15:47:04.
