data_PCOD9470504
_publ_section_title
;
Structure prediction by ZEFSAII (Michael W. Deem and Ramdas Pophale) SiO2 
 PCOD9470504
Probable space group: C M C M
;
_chemical_formula_sum "Si O2"
_cell_formula_units_Z 80
_cell_length_a 22.161412
_cell_length_b 14.452928
_cell_length_c 13.792680
_cell_angle_alpha 90.000000
_cell_angle_beta 90.000000
_cell_angle_gamma 90.000000
_cell_volume 4417.758054
_symmetry_space_group_name_H-M "C M C M"
_symmetry_group_IT_number 63
_symmetry_cell_setting 'orthorhombic'
loop_
_space_group_symop_operation_xyz
x,y,z
-x,-y,1/2+z
x,-y,-z
-x,y,1/2-z
-x,-y,-z
x,y,1/2-z
-x,y,z
x,-y,1/2+z
1/2+x,1/2+y,z
1/2-x,1/2-y,1/2+z
1/2+x,1/2-y,-z
1/2-x,1/2+y,1/2-z
1/2-x,1/2-y,-z
1/2+x,1/2+y,1/2-z
1/2-x,1/2+y,z
1/2+x,1/2-y,1/2+z
loop_
_atom_site_type_symbol
_atom_site_label
_atom_site_fract_x
_atom_site_fract_y
_atom_site_fract_z
Si Si1 0.302154 0.222563 0.865267
Si Si2 0.138000 0.601003 0.025816
Si Si3 0.931061 0.758906 0.132799
Si Si4 0.178727 0.119832 0.633437
Si Si5 0.734238 0.575560 0.366363
O O1 0.311801 0.208191 0.750000
O O2 0.233707 0.189630 0.888110
O O3 0.303752 0.331707 0.886608
O O4 0.345354 0.160070 0.930149
O O5 0.094312 0.663239 0.090540
O O6 0.201178 0.583442 0.082174
O O7 0.113253 0.500000 0.000000
O O8 0.928872 0.755087 0.250000
O O9 0.884260 0.838210 0.098755
O O10 0.000000 0.775673 0.103581
O O11 0.174284 0.116545 0.750000
O O12 0.199903 0.017856 0.604563
O O13 0.744488 0.573029 0.250000
#
# Coordination Sequence:
#
# PCOD9470504 Si02
#       5
#    16  16  16  16  16
#     4  10  20  33  51  82 118 144 175 225 282 330
#     4  12  22  32  55  84 112 144 180 225 278 328
#     4  10  22  40  59  79 108 146 186 227 264 315
#     4   9  17  32  55  81 110 139 177 221 271 327
#     4  10  19  32  52  83 116 143 174 224 281 332
#
# _framework density 18.108733000000001
#
# number of rings (size 3 to 8) (size 9 to 14) (size 15 to 20)
#    0.000    1.800    4.000    1.200    0.000    1.200 
#    0.000    0.000    0.000    3.000    0.000    2.800 
#    0.000    0.000    0.000    0.000    0.000    0.000 
#
# Total GULP energy -223400.749337 kJ/mol
# GULP energy per Si atom -5585.018733 kJ/mol
# Density = 1.806752 g / cm^3
# Si number density = 18.108733 Si / 1000 Ang^3
#
#
#
# Elastic Constant Matrix: (Units=GPa)
#
#
# Indices 1 2 3 4 5 6 
#
# 1 80.3686 47.6788 19.7503 0.0000 0.0000 0.0000
# 2 47.6788 153.8723 17.4562 0.0000 0.0000 0.0000
# 3 19.7503 17.4562 51.8648 0.0000 0.0000 0.0000
# 4 0.0000 0.0000 0.0000 23.3357 0.0000 0.0000
# 5 0.0000 0.0000 0.0000 0.0000 15.3112 0.0000
# 6 0.0000 0.0000 0.0000 0.0000 0.0000 15.3087
#
#
#
# Elastic Compliance Matrix: (Units=1/GPa)
#
#
# Indices 1 2 3 4 5 6 
#
# 1 0.016268 -0.004510 -0.004677 0.000000 0.000000 0.000000
# 2 -0.004510 0.008007 -0.000978 0.000000 0.000000 0.000000
# 3 -0.004677 -0.000978 0.021391 0.000000 0.000000 0.000000
# 4 0.000000 0.000000 0.000000 0.042853 0.000000 0.000000
# 5 0.000000 0.000000 0.000000 0.000000 0.065311 0.000000
# 6 0.000000 0.000000 0.000000 0.000000 0.000000 0.065322
#
#
# Mechanical properties :
#
#
# Convention : Reuss Voigt Hill
#
# Bulk Modulus (GPa) = 39.46825 50.65295 45.06060
# Shear Modulus (GPa) = 20.16724 24.20583 22.18654
#
# Velocity S-wave (km/s) = 3.34080 3.66005 3.50406
# Velocity P-wave (km/s) = 6.06001 6.77448 6.42718
#
# Compressibility (1/GPa) = 0.02533682
#
# Stress axis : x y z
#
# Youngs Moduli (GPa) = 61.47188 124.88610 46.74893
#
# Poissons Ratio (x) = 0.56325 0.21864
# Poissons Ratio (y) = 0.27724 0.04570
# Poissons Ratio (z) = 0.28749 0.12208
#
# Static dielectric constant tensor:
#      x y z
#    x 1.579810 0.000000 0.000000 
#    y 0.000000 1.643180 0.000000 
#    z 0.000000 0.000000 1.664220 
# 
# From -- ./inp_files/35079.got.cif
#   From: 2010.05.17/outbox.cif.g08.bks.cpg/sg63_18_cif.got.tgz:35079.got - 2010.06.03 15:47:04.
