data_PCOD9470667
_publ_section_title
;
Structure prediction by ZEFSAII (Michael W. Deem and Ramdas Pophale) SiO2 
 PCOD9470667
Probable space group: C M C M
;
_chemical_formula_sum "Si O2"
_cell_formula_units_Z 112
_cell_length_a 12.197024
_cell_length_b 17.781610
_cell_length_c 28.809631
_cell_angle_alpha 90.000000
_cell_angle_beta 90.000000
_cell_angle_gamma 90.000000
_cell_volume 6248.311247
_symmetry_space_group_name_H-M "C M C M"
_symmetry_group_IT_number 63
_symmetry_cell_setting 'orthorhombic'
loop_
_space_group_symop_operation_xyz
x,y,z
-x,-y,1/2+z
x,-y,-z
-x,y,1/2-z
-x,-y,-z
x,y,1/2-z
-x,y,z
x,-y,1/2+z
1/2+x,1/2+y,z
1/2-x,1/2-y,1/2+z
1/2+x,1/2-y,-z
1/2-x,1/2+y,1/2-z
1/2-x,1/2-y,-z
1/2+x,1/2+y,1/2-z
1/2-x,1/2+y,z
1/2+x,1/2-y,1/2+z
loop_
_atom_site_type_symbol
_atom_site_label
_atom_site_fract_x
_atom_site_fract_y
_atom_site_fract_z
Si Si1 0.270892 0.382355 0.803044
Si Si2 0.727920 0.165196 0.444224
Si Si3 0.130488 0.314721 0.456142
Si Si4 0.374590 0.030534 0.696365
Si Si5 0.725360 0.609606 0.622993
Si Si6 0.624873 0.551577 0.107053
Si Si7 0.125521 0.267688 0.853262
O O1 0.312187 0.380228 0.750000
O O2 0.178872 0.447846 0.805974
O O3 0.355845 0.407328 0.843000
O O4 0.211193 0.305463 0.817769
O O5 0.819683 0.230720 0.449989
O O6 0.662054 0.159864 0.491939
O O7 0.790575 0.090696 0.428072
O O8 0.649291 0.190758 0.402216
O O9 0.197697 0.365171 0.419638
O O10 0.000000 0.316219 0.448713
O O11 0.370920 0.054203 0.750000
O O12 0.500000 0.027709 0.680799
O O13 0.304068 0.085197 0.664833
O O14 0.653897 0.536160 0.611580
O O15 0.652750 0.680625 0.637920
O O16 0.500000 0.562059 0.092362
O O17 0.000000 0.278178 0.838777
#
# Coordination Sequence:
#
# PCOD9470667 Si02
#       7
#    16  16  16  16  16  16  16
#     4   9  19  34  54  79 100 127 174 217 250 302
#     4   9  20  35  54  78 100 134 181 218 254 309
#     4  10  19  35  56  77 105 136 172 220 267 305
#     4   9  17  32  52  72  99 134 168 206 252 299
#     4  10  21  33  50  79 108 136 173 210 253 313
#     4  10  20  37  56  75 106 140 171 210 258 310
#     4  10  19  33  52  74 104 136 168 212 262 305
#
# _framework density 17.924842999999999
#
# number of rings (size 3 to 8) (size 9 to 14) (size 15 to 20)
#    0.000    2.429    0.000    2.143    0.000    2.286 
#    0.000    6.429    0.000    2.571    0.000    0.000 
#    0.000    0.000    0.000    0.000    0.000    0.000 
#
# Total GULP energy -312388.219752 kJ/mol
# GULP energy per Si atom -5578.361067 kJ/mol
# Density = 1.788405 g / cm^3
# Si number density = 17.924843 Si / 1000 Ang^3
#
#
#
# Elastic Constant Matrix: (Units=GPa)
#
#
# Indices 1 2 3 4 5 6 
#
# 1 44.3881 5.9857 -14.5772 0.0000 0.0000 0.0000
# 2 5.9857 80.3626 4.9356 0.0000 0.0000 0.0000
# 3 -14.5772 4.9356 39.2052 0.0000 0.0000 0.0000
# 4 0.0000 0.0000 0.0000 21.6700 0.0000 0.0000
# 5 0.0000 0.0000 0.0000 0.0000 17.6624 0.0000
# 6 0.0000 0.0000 0.0000 0.0000 0.0000 7.1952
#
#
#
# Elastic Compliance Matrix: (Units=1/GPa)
#
#
# Indices 1 2 3 4 5 6 
#
# 1 0.026177 -0.002567 0.010056 0.000000 0.000000 0.000000
# 2 -0.002567 0.012792 -0.002565 0.000000 0.000000 0.000000
# 3 0.010056 -0.002565 0.029569 0.000000 0.000000 0.000000
# 4 0.000000 0.000000 0.000000 0.046147 0.000000 0.000000
# 5 0.000000 0.000000 0.000000 0.000000 0.056617 0.000000
# 6 0.000000 0.000000 0.000000 0.000000 0.000000 0.138982
#
#
# Mechanical properties :
#
#
# Convention : Reuss Voigt Hill
#
# Bulk Modulus (GPa) = 12.75732 17.40492 15.08112
# Shear Modulus (GPa) = 15.31083 20.47963 17.89523
#
# Velocity S-wave (km/s) = 2.92579 3.38380 3.16309
# Velocity P-wave (km/s) = 4.30653 4.99978 4.66605
#
# Compressibility (1/GPa) = 0.07838634
#
# Stress axis : x y z
#
# Youngs Moduli (GPa) = 38.20101 78.17161 33.81935
#
# Poissons Ratio (x) = 0.20070 -0.34010
# Poissons Ratio (y) = 0.09808 0.08675
# Poissons Ratio (z) = -0.38416 0.20052
#
# Static dielectric constant tensor:
#      x y z
#    x 1.577040 0.000000 0.000000 
#    y 0.000000 1.601390 0.000000 
#    z 0.000000 0.000000 1.613860 
# 
# From -- ./inp_files/72859.got.cif
#   From: 2010.05.17/outbox.cif.g08.bks.cpg/sg63_37_cif.got.tgz:72859.got - 2010.06.03 15:47:04.
