data_PCOD9470326
_publ_section_title
;
Structure prediction by ZEFSAII (Michael W. Deem and Ramdas Pophale) SiO2 
 PCOD9470326
Probable space group: C M C M
;
_chemical_formula_sum "Si O2"
_cell_formula_units_Z 116
_cell_length_a 24.929279
_cell_length_b 30.529375
_cell_length_c 8.787578
_cell_angle_alpha 90.000000
_cell_angle_beta 90.000000
_cell_angle_gamma 90.000000
_cell_volume 6688.008625
_symmetry_space_group_name_H-M "C M C M"
_symmetry_group_IT_number 63
_symmetry_cell_setting 'orthorhombic'
loop_
_space_group_symop_operation_xyz
x,y,z
-x,-y,1/2+z
x,-y,-z
-x,y,1/2-z
-x,-y,-z
x,y,1/2-z
-x,y,z
x,-y,1/2+z
1/2+x,1/2+y,z
1/2-x,1/2-y,1/2+z
1/2+x,1/2-y,-z
1/2-x,1/2+y,1/2-z
1/2-x,1/2-y,-z
1/2+x,1/2+y,1/2-z
1/2-x,1/2+y,z
1/2+x,1/2-y,1/2+z
loop_
_atom_site_type_symbol
_atom_site_label
_atom_site_fract_x
_atom_site_fract_y
_atom_site_fract_z
Si Si1 0.500000 0.344601 0.250000
Si Si2 0.364841 0.454176 0.569025
Si Si3 0.605932 0.367946 0.417563
Si Si4 0.809790 0.295381 0.932294
Si Si5 0.157785 0.390695 0.933637
Si Si6 0.754277 0.546231 0.931896
Si Si7 0.938670 0.452917 0.933125
Si Si8 0.815861 0.202301 0.431044
O O1 0.548024 0.347626 0.380196
O O2 0.385365 0.500000 0.500000
O O3 0.361992 0.457582 0.750000
O O4 0.397540 0.411744 0.516910
O O5 0.304843 0.447729 0.502303
O O6 0.627728 0.381331 0.250000
O O7 0.646235 0.333104 0.490312
O O8 0.812495 0.288096 0.750000
O O9 0.841656 0.339380 0.970864
O O10 0.747098 0.303832 0.971032
O O11 0.828833 0.251574 0.015116
O O12 0.164915 0.394286 0.750000
O O13 0.103403 0.415682 0.977169
O O14 0.206793 0.415378 0.013756
O O15 0.751496 0.543500 0.750000
O O16 0.774829 0.500000 0.000000
O O17 0.938093 0.456015 0.750000
O O18 0.000000 0.443780 0.981455
O O19 0.922901 0.500000 0.000000
O O20 0.820793 0.198263 0.250000
#
# Coordination Sequence:
#
# PCOD9470326 Si02
#       8
#     4  16  16  16  16  16  16  16
#     4   8  24  40  64  84 110 144 198 232 262 328
#     4  11  21  35  57  84 114 147 182 223 276 334
#     4  10  20  39  61  81 111 145 187 229 273 318
#     4   9  19  33  51  81 116 146 177 216 276 341
#     4  10  19  32  50  72 108 143 181 232 276 327
#     4  11  21  32  48  76 110 148 186 224 276 342
#     4   9  18  32  50  70  94 133 183 227 270 318
#     4  10  19  33  57  85 112 146 183 223 273 332
#
# _framework density 17.344474999999999
#
# number of rings (size 3 to 8) (size 9 to 14) (size 15 to 20)
#    0.414    1.655    0.000    5.379    0.000    3.862 
#    0.000    1.724    1.517    0.000    0.000    0.000 
#    0.000    0.000    0.000    0.000    0.000    0.000 
#
# Total GULP energy -323015.263234 kJ/mol
# GULP energy per Si atom -5569.228676 kJ/mol
# Density = 1.730500 g / cm^3
# Si number density = 17.344475 Si / 1000 Ang^3
#
#
#
# Elastic Constant Matrix: (Units=GPa)
#
#
# Indices 1 2 3 4 5 6 
#
# 1 40.3549 26.5936 15.6486 0.0000 0.0000 0.0000
# 2 26.5936 84.5157 29.3113 0.0000 0.0000 0.0000
# 3 15.6486 29.3113 74.8619 0.0000 0.0000 0.0000
# 4 0.0000 0.0000 0.0000 30.6152 0.0000 0.0000
# 5 0.0000 0.0000 0.0000 0.0000 18.3891 0.0000
# 6 0.0000 0.0000 0.0000 0.0000 0.0000 16.7328
#
#
#
# Elastic Compliance Matrix: (Units=1/GPa)
#
#
# Indices 1 2 3 4 5 6 
#
# 1 0.031899 -0.008939 -0.003168 0.000000 0.000000 0.000000
# 2 -0.008939 0.016196 -0.004473 0.000000 0.000000 0.000000
# 3 -0.003168 -0.004473 0.015772 0.000000 0.000000 0.000000
# 4 0.000000 0.000000 0.000000 0.032664 0.000000 0.000000
# 5 0.000000 0.000000 0.000000 0.000000 0.054380 0.000000
# 6 0.000000 0.000000 0.000000 0.000000 0.000000 0.059763
#
#
# Mechanical properties :
#
#
# Convention : Reuss Voigt Hill
#
# Bulk Modulus (GPa) = 32.56549 38.09326 35.32938
# Shear Modulus (GPa) = 19.67976 21.69268 20.68622
#
# Velocity S-wave (km/s) = 3.37210 3.54036 3.45725
# Velocity P-wave (km/s) = 5.82905 6.22275 6.02912
#
# Compressibility (1/GPa) = 0.03070735
#
# Stress axis : x y z
#
# Youngs Moduli (GPa) = 31.34877 61.74365 63.40550
#
# Poissons Ratio (x) = 0.55190 0.20088
# Poissons Ratio (y) = 0.28021 0.28361
# Poissons Ratio (z) = 0.09932 0.27617
#
# Static dielectric constant tensor:
#      x y z
#    x 1.574720 0.000000 0.000000 
#    y 0.000000 1.591010 0.000000 
#    z 0.000000 0.000000 1.586070 
# 
# From -- ./inp_files/13387.got.cif
#   From: 2010.05.17/outbox.cif.g08.bks.cpg/sg63_7_cif.got.tgz:13387.got - 2010.06.03 15:47:04.
