data_PCOD9470227
_publ_section_title
;
Structure prediction by ZEFSAII (Michael W. Deem and Ramdas Pophale) SiO2 
 PCOD9470227
Probable space group: C M C M
;
_chemical_formula_sum "Si O2"
_cell_formula_units_Z 64
_cell_length_a 13.964947
_cell_length_b 13.072704
_cell_length_c 14.767350
_cell_angle_alpha 90.000000
_cell_angle_beta 90.000000
_cell_angle_gamma 90.000000
_cell_volume 2695.921782
_symmetry_space_group_name_H-M "C M C M"
_symmetry_group_IT_number 63
_symmetry_cell_setting 'orthorhombic'
loop_
_space_group_symop_operation_xyz
x,y,z
-x,-y,1/2+z
x,-y,-z
-x,y,1/2-z
-x,-y,-z
x,y,1/2-z
-x,y,z
x,-y,1/2+z
1/2+x,1/2+y,z
1/2-x,1/2-y,1/2+z
1/2+x,1/2-y,-z
1/2-x,1/2+y,1/2-z
1/2-x,1/2-y,-z
1/2+x,1/2+y,1/2-z
1/2-x,1/2+y,z
1/2+x,1/2-y,1/2+z
loop_
_atom_site_type_symbol
_atom_site_label
_atom_site_fract_x
_atom_site_fract_y
_atom_site_fract_z
Si Si1 0.615605 0.159625 0.649172
Si Si2 0.797145 0.434743 0.643654
Si Si3 0.384691 0.748815 0.965873
Si Si4 0.889926 0.955710 0.141794
O O1 0.650013 0.188759 0.750000
O O2 0.500000 0.158967 0.650857
O O3 0.646956 0.234686 0.569376
O O4 0.650938 0.044519 0.629811
O O5 0.805546 0.410762 0.750000
O O6 0.845237 0.346326 0.587181
O O7 0.686337 0.456878 0.621799
O O8 0.500000 0.753256 0.964424
O O9 0.361053 0.644031 0.914887
O O10 0.884167 0.933711 0.250000
O O11 0.000000 0.983913 0.121242
#
# Coordination Sequence:
#
# PCOD9470227 Si02
#       4
#    16  16  16  16
#     4   9  18  32  51  79 113 145 181 231 288 337
#     4  10  19  31  52  81 112 145 182 230 284 333
#     4  10  19  33  57  84 109 144 189 233 278 334
#     4   9  19  35  54  79 111 147 189 232 274 330
#
# _framework density 23.739560999999998
#
# number of rings (size 3 to 8) (size 9 to 14) (size 15 to 20)
#    0.000    2.500    0.000    2.250    0.000    5.500 
#    0.000    0.000    0.000    7.500    0.000   10.500 
#    0.000    0.000    0.000    0.000    0.000    0.500 
#
# Total GULP energy -179343.260487 kJ/mol
# GULP energy per Si atom -5604.476890 kJ/mol
# Density = 2.368553 g / cm^3
# Si number density = 23.739561 Si / 1000 Ang^3
#
#
#
# Elastic Constant Matrix: (Units=GPa)
#
#
# Indices 1 2 3 4 5 6 
#
# 1 39.6128 17.0237 19.7167 0.0000 0.0000 0.0000
# 2 17.0237 97.8110 81.3543 0.0000 0.0000 0.0000
# 3 19.7167 81.3543 105.6555 0.0000 0.0000 0.0000
# 4 0.0000 0.0000 0.0000 -9.3466 0.0000 0.0000
# 5 0.0000 0.0000 0.0000 0.0000 23.0086 0.0000
# 6 0.0000 0.0000 0.0000 0.0000 0.0000 37.1885
#
#
#
# Elastic Compliance Matrix: (Units=1/GPa)
#
#
# Indices 1 2 3 4 5 6 
#
# 1 0.027904 -0.001461 -0.004082 0.000000 0.000000 0.000000
# 2 -0.001461 0.028511 -0.021681 0.000000 0.000000 0.000000
# 3 -0.004082 -0.021681 0.026920 0.000000 0.000000 0.000000
# 4 0.000000 0.000000 0.000000 -0.106990 0.000000 0.000000
# 5 0.000000 0.000000 0.000000 0.000000 0.043462 0.000000
# 6 0.000000 0.000000 0.000000 0.000000 0.000000 0.026890
#
#
# Mechanical properties :
#
#
# Convention : Reuss Voigt Hill
#
# Bulk Modulus (GPa) = 34.61702 53.25208 43.93455
# Shear Modulus (GPa) = 45.13673 18.50240 31.81956
#
# Velocity S-wave (km/s) = 4.36515 2.79479 3.66506
# Velocity P-wave (km/s) = 6.32612 5.73541 6.03799
#
# Compressibility (1/GPa) = 0.02888752
#
# Stress axis : x y z
#
# Youngs Moduli (GPa) = 35.83695 35.07420 37.14648
#
# Poissons Ratio (x) = 0.05126 0.15163
# Poissons Ratio (y) = 0.05237 0.80536
# Poissons Ratio (z) = 0.14629 0.76043
#
# Static dielectric constant tensor:
#      x y z
#    x 1.903360 0.000000 0.000000 
#    y 0.000000 1.809290 0.000000 
#    z 0.000000 0.000000 1.925130 
# 
# From -- ./inp_files/31088.got.cif
#   From: 2010.05.17/outbox.cif.g08.bks.cpg/sg63_16_cif.got.tgz:31088.got - 2010.06.03 15:47:04.
