data_PCOD9470671
_publ_section_title
;
Structure prediction by ZEFSAII (Michael W. Deem and Ramdas Pophale) SiO2 
 PCOD9470671
Probable space group: C M C M
;
_chemical_formula_sum "Si O2"
_cell_formula_units_Z 104
_cell_length_a 28.569541
_cell_length_b 24.498019
_cell_length_c 8.828268
_cell_angle_alpha 90.000000
_cell_angle_beta 90.000000
_cell_angle_gamma 90.000000
_cell_volume 6178.879685
_symmetry_space_group_name_H-M "C M C M"
_symmetry_group_IT_number 63
_symmetry_cell_setting 'orthorhombic'
loop_
_space_group_symop_operation_xyz
x,y,z
-x,-y,1/2+z
x,-y,-z
-x,y,1/2-z
-x,-y,-z
x,y,1/2-z
-x,y,z
x,-y,1/2+z
1/2+x,1/2+y,z
1/2-x,1/2-y,1/2+z
1/2+x,1/2-y,-z
1/2-x,1/2+y,1/2-z
1/2-x,1/2-y,-z
1/2+x,1/2+y,1/2-z
1/2-x,1/2+y,z
1/2+x,1/2-y,1/2+z
loop_
_atom_site_type_symbol
_atom_site_label
_atom_site_fract_x
_atom_site_fract_y
_atom_site_fract_z
Si Si1 0.172394 0.351439 0.432151
Si Si2 0.556893 0.556084 0.576456
Si Si3 0.500000 0.060658 0.068160
Si Si4 0.136823 0.762951 0.068439
Si Si5 0.267626 0.307017 0.431747
Si Si6 0.602926 0.060989 0.067725
Si Si7 0.054717 0.828849 0.569496
O O1 0.168970 0.353172 0.250000
O O2 0.150873 0.294401 0.492577
O O3 0.227749 0.350399 0.476411
O O4 0.143113 0.400490 0.503019
O O5 0.573352 0.500000 0.500000
O O6 0.572709 0.560109 0.750000
O O7 0.500000 0.553732 0.577777
O O8 0.568994 0.610633 0.485655
O O9 0.500000 0.057023 0.250000
O O10 0.550861 0.084255 0.025323
O O11 0.500000 0.000000 0.000000
O O12 0.136325 0.756228 0.250000
O O13 0.177575 0.807356 0.027795
O O14 0.087796 0.785169 0.009844
O O15 0.265579 0.303788 0.250000
O O16 0.250000 0.250000 0.500000
O O17 0.605768 0.058394 0.250000
O O18 0.606379 0.000000 0.000000
O O19 0.059113 0.825215 0.750000
O O20 0.000000 0.821251 0.529424
#
# Coordination Sequence:
#
# PCOD9470671 Si02
#       7
#    16  16   8  16  16  16  16
#     4  10  19  33  52  76 102 129 163 206 252 303
#     4   9  16  27  45  68  92 121 159 199 236 276
#     4   8  16  30  48  68  94 126 164 204 243 288
#     4  10  19  33  52  74  99 131 168 208 252 300
#     4   8  16  30  50  73  96 121 155 198 242 287
#     4  10  19  33  52  75 101 133 171 213 257 305
#     4  10  20  33  48  69 100 134 166 201 244 295
#
# _framework density 16.831530999999998
#
# number of rings (size 3 to 8) (size 9 to 14) (size 15 to 20)
#    0.000    2.615    0.000    2.308    0.000    4.615 
#    1.385    0.000    0.000    0.923    0.000    4.308 
#    0.000    0.000    0.000    0.000    0.000    0.000 
#
# Total GULP energy -289505.173869 kJ/mol
# GULP energy per Si atom -5567.407190 kJ/mol
# Density = 1.679322 g / cm^3
# Si number density = 16.831531 Si / 1000 Ang^3
#
#
#
# Elastic Constant Matrix: (Units=GPa)
#
#
# Indices 1 2 3 4 5 6 
#
# 1 96.7047 46.0041 39.4092 0.0000 0.0000 0.0000
# 2 46.0041 62.3770 25.9694 0.0000 0.0000 0.0000
# 3 39.4092 25.9694 52.9542 0.0000 0.0000 0.0000
# 4 0.0000 0.0000 0.0000 29.7095 0.0000 0.0000
# 5 0.0000 0.0000 0.0000 0.0000 19.6145 0.0000
# 6 0.0000 0.0000 0.0000 0.0000 0.0000 25.9557
#
#
#
# Elastic Compliance Matrix: (Units=1/GPa)
#
#
# Indices 1 2 3 4 5 6 
#
# 1 0.018854 -0.010132 -0.009062 0.000000 0.000000 0.000000
# 2 -0.010132 0.025590 -0.005009 0.000000 0.000000 0.000000
# 3 -0.009062 -0.005009 0.028085 0.000000 0.000000 0.000000
# 4 0.000000 0.000000 0.000000 0.033659 0.000000 0.000000
# 5 0.000000 0.000000 0.000000 0.000000 0.050983 0.000000
# 6 0.000000 0.000000 0.000000 0.000000 0.000000 0.038527
#
#
# Mechanical properties :
#
#
# Convention : Reuss Voigt Hill
#
# Bulk Modulus (GPa) = 41.45675 48.31126 44.88400
# Shear Modulus (GPa) = 19.82986 21.76617 20.79802
#
# Velocity S-wave (km/s) = 3.43612 3.59998 3.51901
# Velocity P-wave (km/s) = 6.35818 6.78564 6.57539
#
# Compressibility (1/GPa) = 0.02412152
#
# Stress axis : x y z
#
# Youngs Moduli (GPa) = 53.03941 39.07850 35.60610
#
# Poissons Ratio (x) = 0.39595 0.32268
# Poissons Ratio (y) = 0.53740 0.17835
# Poissons Ratio (z) = 0.48067 0.19574
#
# Static dielectric constant tensor:
#      x y z
#    x 1.614080 0.000000 0.000000 
#    y 0.000000 1.537820 0.000000 
#    z 0.000000 0.000000 1.563780 
# 
# From -- ./inp_files/12847.got.cif
#   From: 2010.05.17/outbox.cif.g08.bks.cpg/sg63_7_cif.got.tgz:12847.got - 2010.06.03 15:47:04.
