data_PCOD9470558
_publ_section_title
;
Structure prediction by ZEFSAII (Michael W. Deem and Ramdas Pophale) SiO2 
 PCOD9470558
Probable space group: C M C M
;
_chemical_formula_sum "Si O2"
_cell_formula_units_Z 128
_cell_length_a 24.341016
_cell_length_b 12.853493
_cell_length_c 22.980933
_cell_angle_alpha 90.000000
_cell_angle_beta 90.000000
_cell_angle_gamma 90.000000
_cell_volume 7189.977375
_symmetry_space_group_name_H-M "C M C M"
_symmetry_group_IT_number 63
_symmetry_cell_setting 'orthorhombic'
loop_
_space_group_symop_operation_xyz
x,y,z
-x,-y,1/2+z
x,-y,-z
-x,y,1/2-z
-x,-y,-z
x,y,1/2-z
-x,y,z
x,-y,1/2+z
1/2+x,1/2+y,z
1/2-x,1/2-y,1/2+z
1/2+x,1/2-y,-z
1/2-x,1/2+y,1/2-z
1/2-x,1/2-y,-z
1/2+x,1/2+y,1/2-z
1/2-x,1/2+y,z
1/2+x,1/2-y,1/2+z
loop_
_atom_site_type_symbol
_atom_site_label
_atom_site_fract_x
_atom_site_fract_y
_atom_site_fract_z
Si Si1 0.386000 0.388759 0.023079
Si Si2 0.680529 0.550037 0.815110
Si Si3 0.251356 0.758518 0.686574
Si Si4 0.561517 0.527234 0.638456
Si Si5 0.806531 0.298734 0.978730
Si Si6 0.162685 0.338990 0.107696
Si Si7 0.779199 0.549529 0.373432
Si Si8 0.062094 0.203730 0.405632
O O1 0.426377 0.421338 0.075229
O O2 0.342751 0.300165 0.042730
O O3 0.361735 0.500000 0.000000
O O4 0.417107 0.335832 0.968834
O O5 0.691498 0.506872 0.750000
O O6 0.706154 0.664391 0.816576
O O7 0.615766 0.553703 0.825329
O O8 0.715948 0.489724 0.864519
O O9 0.224242 0.754890 0.750000
O O10 0.206829 0.740785 0.635816
O O11 0.283462 0.864795 0.676629
O O12 0.500000 0.556583 0.658370
O O13 0.562949 0.402258 0.631514
O O14 0.793991 0.387550 0.931770
O O15 0.750000 0.250000 0.000000
O O16 0.832162 0.344600 0.037855
O O17 0.181345 0.450310 0.132261
O O18 0.103330 0.290141 0.118831
O O19 0.000000 0.241974 0.409631
#
# Coordination Sequence:
#
# PCOD9470558 Si02
#       8
#    16  16  16  16  16  16  16  16
#     4   9  19  31  52  77 110 140 176 218 270 321
#     4  10  22  36  53  78 109 143 177 220 273 332
#     4  10  20  36  55  78 107 141 177 218 274 331
#     4  10  19  32  54  79 104 138 179 224 269 317
#     4  11  21  32  50  80 111 145 171 215 267 324
#     4  10  21  35  52  80 109 142 177 220 266 323
#     4  11  21  34  53  76 112 140 178 214 269 324
#     4   9  18  34  53  76 107 143 180 218 263 317
#
# _framework density 17.802558999999999
#
# number of rings (size 3 to 8) (size 9 to 14) (size 15 to 20)
#    0.000    2.000    1.250    2.625    5.250    2.250 
#    0.000    0.000    0.000   10.125    0.000    0.000 
#    0.000    0.000    0.000    0.000    0.000    0.000 
#
# Total GULP energy -356590.209629 kJ/mol
# GULP energy per Si atom -5571.722025 kJ/mol
# Density = 1.776204 g / cm^3
# Si number density = 17.802559 Si / 1000 Ang^3
#
#
#
# Elastic Constant Matrix: (Units=GPa)
#
#
# Indices 1 2 3 4 5 6 
#
# 1 126.3630 52.4976 22.3814 0.0000 0.0000 0.0000
# 2 52.4976 103.3289 20.7064 0.0000 0.0000 0.0000
# 3 22.3814 20.7064 58.2792 0.0000 0.0000 0.0000
# 4 0.0000 0.0000 0.0000 21.8795 0.0000 0.0000
# 5 0.0000 0.0000 0.0000 0.0000 11.4855 0.0000
# 6 0.0000 0.0000 0.0000 0.0000 0.0000 23.1241
#
#
#
# Elastic Compliance Matrix: (Units=1/GPa)
#
#
# Indices 1 2 3 4 5 6 
#
# 1 0.010300 -0.004781 -0.002257 0.000000 0.000000 0.000000
# 2 -0.004781 0.012639 -0.002655 0.000000 0.000000 0.000000
# 3 -0.002257 -0.002655 0.018969 0.000000 0.000000 0.000000
# 4 0.000000 0.000000 0.000000 0.045705 0.000000 0.000000
# 5 0.000000 0.000000 0.000000 0.000000 0.087066 0.000000
# 6 0.000000 0.000000 0.000000 0.000000 0.000000 0.043245
#
#
# Mechanical properties :
#
#
# Convention : Reuss Voigt Hill
#
# Bulk Modulus (GPa) = 44.39937 53.23798 48.81867
# Shear Modulus (GPa) = 20.42363 24.12354 22.27358
#
# Velocity S-wave (km/s) = 3.39075 3.68511 3.54099
# Velocity P-wave (km/s) = 6.35009 6.93371 6.64830
#
# Compressibility (1/GPa) = 0.02252284
#
# Stress axis : x y z
#
# Youngs Moduli (GPa) = 97.09185 79.12270 52.71850
#
# Poissons Ratio (x) = 0.37825 0.11898
# Poissons Ratio (y) = 0.46415 0.13994
# Poissons Ratio (z) = 0.21913 0.21003
#
# Static dielectric constant tensor:
#      x y z
#    x 1.611750 0.000000 0.000000 
#    y 0.000000 1.632760 0.000000 
#    z 0.000000 0.000000 1.665420 
# 
# From -- ./inp_files/65192.got.cif
#   From: 2010.05.17/outbox.cif.g08.bks.cpg/sg63_33_cif.got.tgz:65192.got - 2010.06.03 15:47:04.
