data_PCOD9470114
_publ_section_title
;
Structure prediction by ZEFSAII (Michael W. Deem and Ramdas Pophale) SiO2 
 PCOD9470114
Probable space group: C M C M
;
_chemical_formula_sum "Si O2"
_cell_formula_units_Z 80
_cell_length_a 7.684952
_cell_length_b 18.509281
_cell_length_c 27.347241
_cell_angle_alpha 90.000000
_cell_angle_beta 90.000000
_cell_angle_gamma 90.000000
_cell_volume 3889.951852
_symmetry_space_group_name_H-M "C M C M"
_symmetry_group_IT_number 63
_symmetry_cell_setting 'orthorhombic'
loop_
_space_group_symop_operation_xyz
x,y,z
-x,-y,1/2+z
x,-y,-z
-x,y,1/2-z
-x,-y,-z
x,y,1/2-z
-x,y,z
x,-y,1/2+z
1/2+x,1/2+y,z
1/2-x,1/2-y,1/2+z
1/2+x,1/2-y,-z
1/2-x,1/2+y,1/2-z
1/2-x,1/2-y,-z
1/2+x,1/2+y,1/2-z
1/2-x,1/2+y,z
1/2+x,1/2-y,1/2+z
loop_
_atom_site_type_symbol
_atom_site_label
_atom_site_fract_x
_atom_site_fract_y
_atom_site_fract_z
Si Si1 0.213399 0.459585 0.250000
Si Si2 0.213811 0.543221 0.451946
Si Si3 0.209088 0.708481 0.049974
Si Si4 0.703987 0.034129 0.854906
Si Si5 0.207253 0.291052 0.250000
Si Si6 0.294286 0.701997 0.643269
O O1 0.275427 0.489632 0.198083
O O2 0.265280 0.375128 0.250000
O O3 0.000000 0.461249 0.250000
O O4 0.269357 0.500000 0.500000
O O5 0.271492 0.626138 0.452688
O O6 0.276699 0.503308 0.402977
O O7 0.000000 0.542387 0.452128
O O8 0.274044 0.750776 0.098051
O O9 0.000000 0.705252 0.054439
O O10 0.250000 0.750000 0.000000
O O11 0.500000 0.015712 0.854112
O O12 0.716853 0.121157 0.857814
O O13 0.265700 0.262968 0.303040
O O14 0.000000 0.289633 0.250000
O O15 0.500000 0.692697 0.636998
#
# Coordination Sequence:
#
# PCOD9470114 Si02
#       6
#     8  16  16  16   8  16
#     4   7  12  23  42  69  91 111 149 195 232 270
#     4   9  17  30  49  71  94 124 167 213 247 284
#     4  10  21  35  51  74 102 133 169 210 258 305
#     4   9  16  29  50  72  95 127 168 206 239 288
#     4   9  17  31  52  75  99 133 175 205 234 292
#     4  10  19  31  49  76 108 133 159 205 259 301
#
# _framework density 20.565808000000001
#
# number of rings (size 3 to 8) (size 9 to 14) (size 15 to 20)
#    0.000    2.800    0.000    3.300    0.000    3.200 
#    0.000    2.000    0.000    8.400    0.000    0.000 
#    0.000    0.000    0.000    0.000    0.000    0.000 
#
# Total GULP energy -223017.403432 kJ/mol
# GULP energy per Si atom -5575.435086 kJ/mol
# Density = 2.051900 g / cm^3
# Si number density = 20.565808 Si / 1000 Ang^3
#
#
#
# Elastic Constant Matrix: (Units=GPa)
#
#
# Indices 1 2 3 4 5 6 
#
# 1 31.5267 -10.5062 -1.2508 0.0000 0.0000 0.0000
# 2 -10.5062 91.7068 98.3199 0.0000 0.0000 0.0000
# 3 -1.2508 98.3199 262.6828 0.0000 0.0000 0.0000
# 4 0.0000 0.0000 0.0000 35.0824 0.0000 0.0000
# 5 0.0000 0.0000 0.0000 0.0000 14.6603 0.0000
# 6 0.0000 0.0000 0.0000 0.0000 0.0000 8.7840
#
#
#
# Elastic Compliance Matrix: (Units=1/GPa)
#
#
# Indices 1 2 3 4 5 6 
#
# 1 0.033686 0.006159 -0.002145 0.000000 0.000000 0.000000
# 2 0.006159 0.019339 -0.007209 0.000000 0.000000 0.000000
# 3 -0.002145 -0.007209 0.006495 0.000000 0.000000 0.000000
# 4 0.000000 0.000000 0.000000 0.028504 0.000000 0.000000
# 5 0.000000 0.000000 0.000000 0.000000 0.068212 0.000000
# 6 0.000000 0.000000 0.000000 0.000000 0.000000 0.113844
#
#
# Mechanical properties :
#
#
# Convention : Reuss Voigt Hill
#
# Bulk Modulus (GPa) = 18.82183 62.11581 40.46882
# Shear Modulus (GPa) = 16.99640 31.66222 24.32931
#
# Velocity S-wave (km/s) = 2.87791 3.92797 3.44321
# Velocity P-wave (km/s) = 4.49611 7.13029 5.96054
#
# Compressibility (1/GPa) = 0.05312981
#
# Stress axis : x y z
#
# Youngs Moduli (GPa) = 29.68557 51.70980 153.96645
#
# Poissons Ratio (x) = -0.31846 0.33021
# Poissons Ratio (y) = -0.18282 1.10994
# Poissons Ratio (z) = 0.06367 0.37278
#
# Static dielectric constant tensor:
#      x y z
#    x 1.772950 0.000000 0.000000 
#    y 0.000000 1.695350 0.000000 
#    z 0.000000 0.000000 1.771070 
# 
# From -- ./inp_files/66687.got.cif
#   From: 2010.05.17/outbox.cif.g08.bks.cpg/sg63_34_cif.got.tgz:66687.got - 2010.06.03 15:47:04.
