data_PCOD9470147
_publ_section_title
;
Structure prediction by ZEFSAII (Michael W. Deem and Ramdas Pophale) SiO2 
 PCOD9470147
Probable space group: C M C M
;
_chemical_formula_sum "Si O2"
_cell_formula_units_Z 96
_cell_length_a 31.723192
_cell_length_b 19.625916
_cell_length_c 9.105491
_cell_angle_alpha 90.000000
_cell_angle_beta 90.000000
_cell_angle_gamma 90.000000
_cell_volume 5669.048662
_symmetry_space_group_name_H-M "C M C M"
_symmetry_group_IT_number 63
_symmetry_cell_setting 'orthorhombic'
loop_
_space_group_symop_operation_xyz
x,y,z
-x,-y,1/2+z
x,-y,-z
-x,y,1/2-z
-x,-y,-z
x,y,1/2-z
-x,y,z
x,-y,1/2+z
1/2+x,1/2+y,z
1/2-x,1/2-y,1/2+z
1/2+x,1/2-y,-z
1/2-x,1/2+y,1/2-z
1/2-x,1/2-y,-z
1/2+x,1/2+y,1/2-z
1/2-x,1/2+y,z
1/2+x,1/2-y,1/2+z
loop_
_atom_site_type_symbol
_atom_site_label
_atom_site_fract_x
_atom_site_fract_y
_atom_site_fract_z
Si Si1 0.793355 0.166300 0.580490
Si Si2 0.619505 0.333818 0.925603
Si Si3 0.951129 0.073872 0.925444
Si Si4 0.377685 0.172830 0.574528
Si Si5 0.791622 0.332279 0.581006
Si Si6 0.048010 0.427506 0.426630
O O1 0.795974 0.144913 0.750000
O O2 0.835011 0.145469 0.491486
O O3 0.791770 0.249246 0.578416
O O4 0.749831 0.143821 0.505267
O O5 0.618764 0.343791 0.750000
O O6 0.615191 0.252862 0.955983
O O7 0.582074 0.374813 0.002624
O O8 0.944718 0.069157 0.750000
O O9 0.000000 0.094753 0.950973
O O10 0.945664 0.000000 0.000000
O O11 0.371710 0.166751 0.750000
O O12 0.335337 0.148135 0.495178
O O13 0.417863 0.128539 0.529674
O O14 0.789947 0.353738 0.750000
O O15 0.057138 0.500000 0.500000
O O16 0.049699 0.434588 0.250000
O O17 0.000000 0.407996 0.466154
#
# Coordination Sequence:
#
# PCOD9470147 Si02
#       6
#    16  16  16  16  16  16
#     4   9  16  27  44  67  98 132 163 197 240 290
#     4  10  19  31  50  76 103 130 163 203 246 291
#     4  10  21  37  55  74  98 130 167 204 244 293
#     4   9  18  31  48  72 101 131 163 201 247 296
#     4   9  16  26  43  68  97 128 163 201 241 288
#     4   9  18  33  51  70  94 127 166 204 243 291
#
# _framework density 16.934059000000001
#
# number of rings (size 3 to 8) (size 9 to 14) (size 15 to 20)
#    0.000    2.667    0.000    2.000    0.000    7.000 
#    0.000    1.667    0.000    3.000    0.000    4.667 
#    0.000    0.000    0.000    0.000    0.000    0.000 
#
# Total GULP energy -267594.112192 kJ/mol
# GULP energy per Si atom -5574.877337 kJ/mol
# Density = 1.689552 g / cm^3
# Si number density = 16.934059 Si / 1000 Ang^3
#
#
#
# Elastic Constant Matrix: (Units=GPa)
#
#
# Indices 1 2 3 4 5 6 
#
# 1 183.0025 77.1589 93.8014 0.0000 0.0000 0.0000
# 2 77.1589 43.1281 45.9292 0.0000 0.0000 0.0000
# 3 93.8014 45.9292 96.1613 0.0000 0.0000 0.0000
# 4 0.0000 0.0000 0.0000 22.0805 0.0000 0.0000
# 5 0.0000 0.0000 0.0000 0.0000 30.6665 0.0000
# 6 0.0000 0.0000 0.0000 0.0000 0.0000 -10.2675
#
#
#
# Elastic Compliance Matrix: (Units=1/GPa)
#
#
# Indices 1 2 3 4 5 6 
#
# 1 0.023754 -0.036271 -0.005848 0.000000 0.000000 0.000000
# 2 -0.036271 0.102572 -0.013610 0.000000 0.000000 0.000000
# 3 -0.005848 -0.013610 0.022604 0.000000 0.000000 0.000000
# 4 0.000000 0.000000 0.000000 0.045289 0.000000 0.000000
# 5 0.000000 0.000000 0.000000 0.000000 0.032609 0.000000
# 6 0.000000 0.000000 0.000000 0.000000 0.000000 -0.097394
#
#
# Mechanical properties :
#
#
# Convention : Reuss Voigt Hill
#
# Bulk Modulus (GPa) = 26.68614 84.00788 55.34701
# Shear Modulus (GPa) = 19.73310 15.52273 17.62791
#
# Velocity S-wave (km/s) = 3.41734 3.03092 3.22991
# Velocity P-wave (km/s) = 5.60036 7.87179 6.83115
#
# Compressibility (1/GPa) = 0.03747263
#
# Stress axis : x y z
#
# Youngs Moduli (GPa) = 42.09738 9.74930 44.24016
#
# Poissons Ratio (x) = 0.35361 0.25870
# Poissons Ratio (y) = 1.52690 0.60212
# Poissons Ratio (z) = 0.24617 0.13269
#
# Static dielectric constant tensor:
#      x y z
#    x 1.563660 0.000000 0.000000 
#    y 0.000000 1.544920 0.000000 
#    z 0.000000 0.000000 1.566780 
# 
# From -- ./inp_files/12400.got.cif
#   From: 2010.05.17/outbox.cif.g08.bks.cpg/sg63_7_cif.got.tgz:12400.got - 2010.06.03 15:47:04.
