data_PCOD9470081
_publ_section_title
;
Structure prediction by ZEFSAII (Michael W. Deem and Ramdas Pophale) SiO2 
 PCOD9470081
Probable space group: C M C M
;
_chemical_formula_sum "Si O2"
_cell_formula_units_Z 104
_cell_length_a 7.684781
_cell_length_b 27.732989
_cell_length_c 31.229641
_cell_angle_alpha 90.000000
_cell_angle_beta 90.000000
_cell_angle_gamma 90.000000
_cell_volume 6655.721892
_symmetry_space_group_name_H-M "C M C M"
_symmetry_group_IT_number 63
_symmetry_cell_setting 'orthorhombic'
loop_
_space_group_symop_operation_xyz
x,y,z
-x,-y,1/2+z
x,-y,-z
-x,y,1/2-z
-x,-y,-z
x,y,1/2-z
-x,y,z
x,-y,1/2+z
1/2+x,1/2+y,z
1/2-x,1/2-y,1/2+z
1/2+x,1/2-y,-z
1/2-x,1/2+y,1/2-z
1/2-x,1/2-y,-z
1/2+x,1/2+y,1/2-z
1/2-x,1/2+y,z
1/2+x,1/2-y,1/2+z
loop_
_atom_site_type_symbol
_atom_site_label
_atom_site_fract_x
_atom_site_fract_y
_atom_site_fract_z
Si Si1 0.000000 0.411523 0.700617
Si Si2 0.000000 0.535052 0.542315
Si Si3 0.791372 0.283948 0.040881
Si Si4 0.194002 0.106821 0.522362
Si Si5 0.000000 0.457401 0.885121
Si Si6 0.207515 0.169695 0.200774
Si Si7 0.298367 0.610503 0.080022
Si Si8 0.289910 0.284589 0.885034
O O1 0.000000 0.454429 0.666303
O O2 0.168721 0.376721 0.694157
O O3 0.000000 0.427280 0.750000
O O4 0.000000 0.500000 0.500000
O O5 0.834422 0.570061 0.540250
O O6 0.000000 0.504997 0.586175
O O7 0.719638 0.337632 0.035677
O O8 0.725325 0.257663 0.084089
O O9 0.000000 0.287905 0.042771
O O10 0.750000 0.250000 0.000000
O O11 0.211808 0.106313 0.470974
O O12 0.000000 0.091100 0.533874
O O13 0.830520 0.427478 0.899509
O O14 0.233044 0.185440 0.250000
O O15 0.257351 0.209026 0.164770
O O16 0.000000 0.158680 0.195449
O O17 0.500000 0.603871 0.092967
O O18 0.243571 0.664269 0.093516
O O19 0.500000 0.281111 0.886318
#
# Coordination Sequence:
#
# PCOD9470081 Si02
#       8
#     8   8  16  16   8  16  16  16
#     4  10  20  32  50  78 104 130 168 210 255 310
#     4  12  24  38  54  76 100 136 180 216 269 310
#     4  11  20  31  49  73 105 140 176 213 248 297
#     4  11  22  38  51  71 106 138 176 222 252 298
#     4  12  22  34  54  76  98 144 168 210 265 304
#     4   9  17  31  49  70 103 138 161 199 253 306
#     4  10  19  31  49  73 105 131 171 212 241 301
#     4   9  17  29  46  73 102 137 170 199 244 297
#
# _framework density 15.625652000000001
#
# number of rings (size 3 to 8) (size 9 to 14) (size 15 to 20)
#    0.000    1.692    5.385    0.462    0.000    0.923 
#    4.154    0.000    0.000    0.000    0.000    1.077 
#    0.000    1.231    0.000    0.000    0.000    0.000 
#
# Total GULP energy -289965.191528 kJ/mol
# GULP energy per Si atom -5576.253683 kJ/mol
# Density = 1.559009 g / cm^3
# Si number density = 15.625652 Si / 1000 Ang^3
#
#
#
# Elastic Constant Matrix: (Units=GPa)
#
#
# Indices 1 2 3 4 5 6 
#
# 1 78.1904 36.0013 34.8524 0.0000 0.0000 0.0000
# 2 36.0013 81.6286 51.3919 0.0000 0.0000 0.0000
# 3 34.8524 51.3919 116.6671 0.0000 0.0000 0.0000
# 4 0.0000 0.0000 0.0000 20.4405 0.0000 0.0000
# 5 0.0000 0.0000 0.0000 0.0000 10.8507 0.0000
# 6 0.0000 0.0000 0.0000 0.0000 0.0000 16.3328
#
#
#
# Elastic Compliance Matrix: (Units=1/GPa)
#
#
# Indices 1 2 3 4 5 6 
#
# 1 0.016515 -0.005781 -0.002387 0.000000 0.000000 0.000000
# 2 -0.005781 0.018975 -0.006632 0.000000 0.000000 0.000000
# 3 -0.002387 -0.006632 0.012206 0.000000 0.000000 0.000000
# 4 0.000000 0.000000 0.000000 0.048923 0.000000 0.000000
# 5 0.000000 0.000000 0.000000 0.000000 0.092160 0.000000
# 6 0.000000 0.000000 0.000000 0.000000 0.000000 0.061227
#
#
# Mechanical properties :
#
#
# Convention : Reuss Voigt Hill
#
# Bulk Modulus (GPa) = 55.25846 57.88638 56.57242
# Shear Modulus (GPa) = 17.50473 19.80749 18.65611
#
# Velocity S-wave (km/s) = 3.35065 3.56424 3.45909
# Velocity P-wave (km/s) = 7.09999 7.35286 7.22753
#
# Compressibility (1/GPa) = 0.01809678
#
# Stress axis : x y z
#
# Youngs Moduli (GPa) = 60.55100 52.69976 81.92832
#
# Poissons Ratio (x) = 0.30465 0.19557
# Poissons Ratio (y) = 0.35004 0.54333
# Poissons Ratio (z) = 0.14454 0.34949
#
# Static dielectric constant tensor:
#      x y z
#    x 1.607780 0.000000 0.000000 
#    y 0.000000 1.497700 0.000000 
#    z 0.000000 0.000000 1.545500 
# 
# From -- ./inp_files/72025.got.cif
#   From: 2010.05.17/outbox.cif.g08.bks.cpg/sg63_37_cif.got.tgz:72025.got - 2010.06.03 15:47:04.
