data_PCOD9470122
_publ_section_title
;
Structure prediction by ZEFSAII (Michael W. Deem and Ramdas Pophale) SiO2 
 PCOD9470122
Probable space group: C M C M
;
_chemical_formula_sum "Si O2"
_cell_formula_units_Z 96
_cell_length_a 7.405192
_cell_length_b 26.351599
_cell_length_c 24.193253
_cell_angle_alpha 90.000000
_cell_angle_beta 90.000000
_cell_angle_gamma 90.000000
_cell_volume 4721.038732
_symmetry_space_group_name_H-M "C M C M"
_symmetry_group_IT_number 63
_symmetry_cell_setting 'orthorhombic'
loop_
_space_group_symop_operation_xyz
x,y,z
-x,-y,1/2+z
x,-y,-z
-x,y,1/2-z
-x,-y,-z
x,y,1/2-z
-x,y,z
x,-y,1/2+z
1/2+x,1/2+y,z
1/2-x,1/2-y,1/2+z
1/2+x,1/2-y,-z
1/2-x,1/2+y,1/2-z
1/2-x,1/2-y,-z
1/2+x,1/2+y,1/2-z
1/2-x,1/2+y,z
1/2+x,1/2-y,1/2+z
loop_
_atom_site_type_symbol
_atom_site_label
_atom_site_fract_x
_atom_site_fract_y
_atom_site_fract_z
Si Si1 0.218063 0.911320 0.114976
Si Si2 0.212326 0.556750 0.492861
Si Si3 0.720547 0.201633 0.313470
Si Si4 0.780044 0.816532 0.186583
Si Si5 0.788849 0.392308 0.616967
Si Si6 0.218433 0.991950 0.813423
O O1 0.281147 0.860496 0.145585
O O2 0.000000 0.911557 0.116977
O O3 0.279987 0.961192 0.148514
O O4 0.270831 0.915485 0.051236
O O5 0.289641 0.500000 0.500000
O O6 0.289226 0.587701 0.441018
O O7 0.000000 0.549875 0.480132
O O8 0.774740 0.191141 0.250000
O O9 0.500000 0.200899 0.313594
O O10 0.775605 0.259142 0.327623
O O11 0.786747 0.158206 0.354653
O O12 0.726155 0.827179 0.250000
O O13 0.000000 0.816956 0.186106
O O14 0.775468 0.439001 0.659598
O O15 0.000000 0.381154 0.607225
O O16 0.278473 0.996944 0.750000
O O17 0.000000 0.992828 0.813283
#
# Coordination Sequence:
#
# PCOD9470122 Si02
#       6
#    16  16  16  16  16  16
#     4  10  19  31  50  72  94 123 159 194 232 284
#     4  10  20  34  48  65  95 133 165 196 237 277
#     4   8  14  26  47  73  95 117 152 197 239 278
#     4   8  14  27  48  73  98 121 150 194 242 283
#     4  10  19  32  50  70  93 125 165 200 231 276
#     4  10  20  31  45  70 100 123 147 189 243 289
#
# _framework density 20.334508
#
# number of rings (size 3 to 8) (size 9 to 14) (size 15 to 20)
#    0.000    2.667    1.667    2.000    0.000    4.000 
#    0.000    0.833    0.000    2.500    0.000    2.333 
#    0.000    0.000    0.000    0.000    0.000    0.000 
#
# Total GULP energy -267982.545550 kJ/mol
# GULP energy per Si atom -5582.969699 kJ/mol
# Density = 2.028823 g / cm^3
# Si number density = 20.334508 Si / 1000 Ang^3
#
#
#
# Elastic Constant Matrix: (Units=GPa)
#
#
# Indices 1 2 3 4 5 6 
#
# 1 63.0613 -6.9806 -11.2625 0.0000 0.0000 0.0000
# 2 -6.9806 141.1150 68.3495 0.0000 0.0000 0.0000
# 3 -11.2625 68.3495 118.5415 0.0000 0.0000 0.0000
# 4 0.0000 0.0000 0.0000 23.2460 0.0000 0.0000
# 5 0.0000 0.0000 0.0000 0.0000 21.4221 0.0000
# 6 0.0000 0.0000 0.0000 0.0000 0.0000 -1.2413
#
#
#
# Elastic Compliance Matrix: (Units=1/GPa)
#
#
# Indices 1 2 3 4 5 6 
#
# 1 0.016132 0.000077 0.001488 0.000000 0.000000 0.000000
# 2 0.000077 0.009833 -0.005662 0.000000 0.000000 0.000000
# 3 0.001488 -0.005662 0.011842 0.000000 0.000000 0.000000
# 4 0.000000 0.000000 0.000000 0.043018 0.000000 0.000000
# 5 0.000000 0.000000 0.000000 0.000000 0.046681 0.000000
# 6 0.000000 0.000000 0.000000 0.000000 0.000000 -0.805639
#
#
# Mechanical properties :
#
#
# Convention : Reuss Voigt Hill
#
# Bulk Modulus (GPa) = 33.76882 46.99230 40.38056
# Shear Modulus (GPa) = -7.57496 26.85946 9.64225
#
# Velocity S-wave (km/s) = -1.93217 3.63834 2.17993
# Velocity P-wave (km/s) = 3.41541 6.38825 5.12225
#
# Compressibility (1/GPa) = 0.02961312
#
# Stress axis : x y z
#
# Youngs Moduli (GPa) = 61.98894 101.70180 84.44583
#
# Poissons Ratio (x) = -0.00785 -0.12567
# Poissons Ratio (y) = -0.00479 0.47814
# Poissons Ratio (z) = -0.09225 0.57584
#
# Static dielectric constant tensor:
#      x y z
#    x 1.756770 0.000000 0.000000 
#    y 0.000000 1.699990 0.000000 
#    z 0.000000 0.000000 1.692080 
# 
# From -- ./inp_files/59848.got.cif
#   From: 2010.05.17/outbox.cif.g08.bks.cpg/sg63_30_cif.got.tgz:59848.got - 2010.06.03 15:47:04.
