data_PCOD9470103
_publ_section_title
;
Structure prediction by ZEFSAII (Michael W. Deem and Ramdas Pophale) SiO2 
 PCOD9470103
Probable space group: C M C M
;
_chemical_formula_sum "Si O2"
_cell_formula_units_Z 96
_cell_length_a 21.973030
_cell_length_b 25.762096
_cell_length_c 7.729555
_cell_angle_alpha 90.000000
_cell_angle_beta 90.000000
_cell_angle_gamma 90.000000
_cell_volume 4375.479311
_symmetry_space_group_name_H-M "C M C M"
_symmetry_group_IT_number 63
_symmetry_cell_setting 'orthorhombic'
loop_
_space_group_symop_operation_xyz
x,y,z
-x,-y,1/2+z
x,-y,-z
-x,y,1/2-z
-x,-y,-z
x,y,1/2-z
-x,y,z
x,-y,1/2+z
1/2+x,1/2+y,z
1/2-x,1/2-y,1/2+z
1/2+x,1/2-y,-z
1/2-x,1/2+y,1/2-z
1/2-x,1/2-y,-z
1/2+x,1/2+y,1/2-z
1/2-x,1/2+y,z
1/2+x,1/2-y,1/2+z
loop_
_atom_site_type_symbol
_atom_site_label
_atom_site_fract_x
_atom_site_fract_y
_atom_site_fract_z
Si Si1 0.932378 0.327697 0.461549
Si Si2 0.401042 0.942929 0.042129
Si Si3 0.161934 0.861845 0.544100
Si Si4 0.762198 0.442871 0.044249
Si Si5 0.322287 0.247649 0.958789
Si Si6 0.431548 0.556420 0.457983
O O1 0.931017 0.326831 0.250000
O O2 0.929015 0.388284 0.516429
O O3 0.871632 0.295796 0.518735
O O4 0.000000 0.307219 0.511982
O O5 0.400541 0.940535 0.250000
O O6 0.331228 0.942343 0.976356
O O7 0.427086 0.000000 0.000000
O O8 0.153145 0.857190 0.750000
O O9 0.224167 0.893740 0.519680
O O10 0.157587 0.804130 0.474799
O O11 0.110361 0.898901 0.470112
O O12 0.764241 0.438729 0.250000
O O13 0.736459 0.500000 0.000000
O O14 0.324975 0.244994 0.750000
O O15 0.250000 0.250000 0.000000
O O16 0.406378 0.500000 0.500000
O O17 0.433550 0.560825 0.250000
O O18 0.500000 0.559057 0.525677
#
# Coordination Sequence:
#
# PCOD9470103 Si02
#       6
#    16  16  16  16  16  16
#     4   9  18  34  56  80 106 138 178 221 263 313
#     4   9  18  32  51  76 104 134 168 207 254 309
#     4  10  20  32  49  74 100 129 170 215 258 309
#     4  10  19  31  49  74 106 139 171 210 257 308
#     4  10  21  37  57  80 106 139 180 225 271 319
#     4   9  18  32  48  68  97 130 163 203 252 304
#
# _framework density 21.940453999999999
#
# number of rings (size 3 to 8) (size 9 to 14) (size 15 to 20)
#    0.000    2.500    0.000    2.000    0.000    5.667 
#    0.000    4.167    0.000    1.500    0.000    2.333 
#    0.000    0.000    0.000    0.000    0.000    0.000 
#
# Total GULP energy -267592.203769 kJ/mol
# GULP energy per Si atom -5574.837579 kJ/mol
# Density = 2.189052 g / cm^3
# Si number density = 21.940454 Si / 1000 Ang^3
#
#
#
# Elastic Constant Matrix: (Units=GPa)
#
#
# Indices 1 2 3 4 5 6 
#
# 1 145.8165 85.5951 1.4755 0.0000 0.0000 0.0000
# 2 85.5951 178.1793 6.1825 0.0000 0.0000 0.0000
# 3 1.4755 6.1825 32.5830 0.0000 0.0000 0.0000
# 4 0.0000 0.0000 0.0000 18.1915 0.0000 0.0000
# 5 0.0000 0.0000 0.0000 0.0000 9.3176 0.0000
# 6 0.0000 0.0000 0.0000 0.0000 0.0000 19.9718
#
#
#
# Elastic Compliance Matrix: (Units=1/GPa)
#
#
# Indices 1 2 3 4 5 6 
#
# 1 0.009558 -0.004607 0.000441 0.000000 0.000000 0.000000
# 2 -0.004607 0.007870 -0.001285 0.000000 0.000000 0.000000
# 3 0.000441 -0.001285 0.030915 0.000000 0.000000 0.000000
# 4 0.000000 0.000000 0.000000 0.054971 0.000000 0.000000
# 5 0.000000 0.000000 0.000000 0.000000 0.107324 0.000000
# 6 0.000000 0.000000 0.000000 0.000000 0.000000 0.050071
#
#
# Mechanical properties :
#
#
# Convention : Reuss Voigt Hill
#
# Bulk Modulus (GPa) = 26.70795 60.34280 43.52538
# Shear Modulus (GPa) = 17.60014 27.05121 22.32567
#
# Velocity S-wave (km/s) = 2.83535 3.51513 3.19338
# Velocity P-wave (km/s) = 4.78730 6.63608 5.78601
#
# Compressibility (1/GPa) = 0.03744203
#
# Stress axis : x y z
#
# Youngs Moduli (GPa) = 104.62868 127.06661 32.34711
#
# Poissons Ratio (x) = 0.58535 -0.01427
# Poissons Ratio (y) = 0.48199 0.04156
# Poissons Ratio (z) = -0.04617 0.16324
#
# Static dielectric constant tensor:
#      x y z
#    x 1.848820 0.000000 0.000000 
#    y 0.000000 1.821550 0.000000 
#    z 0.000000 0.000000 1.814690 
# 
# From -- ./inp_files/10410.got.cif
#   From: 2010.05.17/outbox.cif.g08.bks.cpg/sg63_6_cif.got.tgz:10410.got - 2010.06.03 15:47:04.
