data_PCOD9470744
_publ_section_title
;
Structure prediction by ZEFSAII (Michael W. Deem and Ramdas Pophale) SiO2 
 PCOD9470744
Probable space group: C M C M
;
_chemical_formula_sum "Si O2"
_cell_formula_units_Z 96
_cell_length_a 7.720391
_cell_length_b 24.264845
_cell_length_c 26.142646
_cell_angle_alpha 90.000000
_cell_angle_beta 90.000000
_cell_angle_gamma 90.000000
_cell_volume 4897.408824
_symmetry_space_group_name_H-M "C M C M"
_symmetry_group_IT_number 63
_symmetry_cell_setting 'orthorhombic'
loop_
_space_group_symop_operation_xyz
x,y,z
-x,-y,1/2+z
x,-y,-z
-x,y,1/2-z
-x,-y,-z
x,y,1/2-z
-x,y,z
x,-y,1/2+z
1/2+x,1/2+y,z
1/2-x,1/2-y,1/2+z
1/2+x,1/2-y,-z
1/2-x,1/2+y,1/2-z
1/2-x,1/2-y,-z
1/2+x,1/2+y,1/2-z
1/2-x,1/2+y,z
1/2+x,1/2-y,1/2+z
loop_
_atom_site_type_symbol
_atom_site_label
_atom_site_fract_x
_atom_site_fract_y
_atom_site_fract_z
Si Si1 0.205295 0.121959 0.149437
Si Si2 0.297177 0.802880 0.942897
Si Si3 0.208809 0.504153 0.191056
Si Si4 0.211201 0.687060 0.750000
Si Si5 0.787384 0.614980 0.847291
Si Si6 0.297890 0.181525 0.943419
Si Si7 0.287827 0.686512 0.250000
O O1 0.277657 0.149175 0.098233
O O2 0.241674 0.057969 0.159221
O O3 0.271437 0.154864 0.199266
O O4 0.000000 0.129940 0.147151
O O5 0.500000 0.790461 0.949405
O O6 0.214448 0.745125 0.925250
O O7 0.224574 0.818805 0.998931
O O8 0.271584 0.508609 0.250000
O O9 0.267842 0.447114 0.165488
O O10 0.000000 0.502021 0.193302
O O11 0.265726 0.654280 0.699490
O O12 0.267868 0.750203 0.750000
O O13 0.000000 0.687289 0.750000
O O14 0.724636 0.640821 0.900623
O O15 0.000000 0.615342 0.848011
O O16 0.500000 0.166863 0.948273
O O17 0.500000 0.685384 0.250000
#
# Coordination Sequence:
#
# PCOD9470744 Si02
#       7
#    16  16  16   8  16  16   8
#     4  11  21  35  53  75 103 140 181 217 259 316
#     4  10  20  34  53  79 108 139 176 220 269 314
#     4  10  19  33  53  78 105 135 170 215 265 310
#     4   9  14  23  44  75 103 123 156 207 256 305
#     4   9  16  29  51  78 104 133 171 211 258 314
#     4   9  18  34  56  79 106 141 178 216 262 321
#     4   9  18  29  47  75 101 127 166 213 258 309
#
# _framework density 19.602201999999998
#
# number of rings (size 3 to 8) (size 9 to 14) (size 15 to 20)
#    0.000    2.333    1.667    2.000    0.000    3.333 
#    0.000    1.667    0.000    5.000    0.000    0.000 
#    0.000    0.000    0.000    0.000    0.000    0.000 
#
# Total GULP energy -267935.915692 kJ/mol
# GULP energy per Si atom -5581.998244 kJ/mol
# Density = 1.955759 g / cm^3
# Si number density = 19.602202 Si / 1000 Ang^3
#
#
#
# Elastic Constant Matrix: (Units=GPa)
#
#
# Indices 1 2 3 4 5 6 
#
# 1 31.8291 -8.7745 2.0546 0.0000 0.0000 0.0000
# 2 -8.7745 146.5374 77.2360 0.0000 0.0000 0.0000
# 3 2.0546 77.2360 118.9486 0.0000 0.0000 0.0000
# 4 0.0000 0.0000 0.0000 24.1923 0.0000 0.0000
# 5 0.0000 0.0000 0.0000 0.0000 7.6293 0.0000
# 6 0.0000 0.0000 0.0000 0.0000 0.0000 20.3767
#
#
#
# Elastic Compliance Matrix: (Units=1/GPa)
#
#
# Indices 1 2 3 4 5 6 
#
# 1 0.032538 0.003412 -0.002778 0.000000 0.000000 0.000000
# 2 0.003412 0.010733 -0.007028 0.000000 0.000000 0.000000
# 3 -0.002778 -0.007028 0.013018 0.000000 0.000000 0.000000
# 4 0.000000 0.000000 0.000000 0.041335 0.000000 0.000000
# 5 0.000000 0.000000 0.000000 0.000000 0.131074 0.000000
# 6 0.000000 0.000000 0.000000 0.000000 0.000000 0.049076
#
#
# Mechanical properties :
#
#
# Convention : Reuss Voigt Hill
#
# Bulk Modulus (GPa) = 22.98730 48.70526 35.84628
# Shear Modulus (GPa) = 16.39012 25.55960 20.97486
#
# Velocity S-wave (km/s) = 2.89474 3.61489 3.27467
# Velocity P-wave (km/s) = 4.78801 6.50569 5.71179
#
# Compressibility (1/GPa) = 0.04350229
#
# Stress axis : x y z
#
# Youngs Moduli (GPa) = 30.73351 93.17240 76.81438
#
# Poissons Ratio (x) = -0.31794 0.21337
# Poissons Ratio (y) = -0.10488 0.53985
# Poissons Ratio (z) = 0.08537 0.65481
#
# Static dielectric constant tensor:
#      x y z
#    x 1.738440 0.000000 0.000000 
#    y 0.000000 1.651610 0.000000 
#    z 0.000000 0.000000 1.691810 
# 
# From -- ./inp_files/60046.got.cif
#   From: 2010.05.17/outbox.cif.g08.bks.cpg/sg63_31_cif.got.tgz:60046.got - 2010.06.03 15:47:04.
