data_PCOD9470925
_publ_section_title
;
Structure prediction by ZEFSAII (Michael W. Deem and Ramdas Pophale) SiO2 
 PCOD9470925
Probable space group: C M C M
;
_chemical_formula_sum "Si O2"
_cell_formula_units_Z 80
_cell_length_a 7.436839
_cell_length_b 18.930073
_cell_length_c 26.487129
_cell_angle_alpha 90.000000
_cell_angle_beta 90.000000
_cell_angle_gamma 90.000000
_cell_volume 3728.855509
_symmetry_space_group_name_H-M "C M C M"
_symmetry_group_IT_number 63
_symmetry_cell_setting 'orthorhombic'
loop_
_space_group_symop_operation_xyz
x,y,z
-x,-y,1/2+z
x,-y,-z
-x,y,1/2-z
-x,-y,-z
x,y,1/2-z
-x,y,z
x,-y,1/2+z
1/2+x,1/2+y,z
1/2-x,1/2-y,1/2+z
1/2+x,1/2-y,-z
1/2-x,1/2+y,1/2-z
1/2-x,1/2-y,-z
1/2+x,1/2+y,1/2-z
1/2-x,1/2+y,z
1/2+x,1/2-y,1/2+z
loop_
_atom_site_type_symbol
_atom_site_label
_atom_site_fract_x
_atom_site_fract_y
_atom_site_fract_z
Si Si1 0.280925 0.916750 0.055355
Si Si2 0.783068 0.421009 0.941723
Si Si3 0.709889 0.333428 0.657154
Si Si4 0.717733 0.573067 0.250000
Si Si5 0.720898 0.826539 0.349426
Si Si6 0.211492 0.407340 0.250000
O O1 0.500000 0.916538 0.055246
O O2 0.220900 0.863644 0.098681
O O3 0.226176 0.997618 0.066721
O O4 0.224049 0.899572 0.998124
O O5 0.723459 0.370615 0.896961
O O6 0.000000 0.420774 0.941559
O O7 0.500000 0.324953 0.669772
O O8 0.783328 0.385042 0.700460
O O9 0.783299 0.254132 0.655556
O O10 0.500000 0.572710 0.250000
O O11 0.769701 0.491357 0.250000
O O12 0.500000 0.826822 0.350557
O O13 0.781719 0.871981 0.301233
O O14 0.000000 0.391028 0.250000
#
# Coordination Sequence:
#
# PCOD9470925 Si02
#       6
#    16  16  16   8  16   8
#     4   8  15  29  49  71  97 128 160 199 243 280
#     4   9  17  31  51  73  96 125 163 203 240 278
#     4  10  20  33  49  70  99 131 158 191 239 291
#     4  10  21  35  49  69  99 128 152 190 248 294
#     4   9  17  30  49  73  98 125 160 197 234 282
#     4  10  19  33  57  79  91 118 168 208 228 272
#
# _framework density 21.454302999999999
#
# number of rings (size 3 to 8) (size 9 to 14) (size 15 to 20)
#    0.000    2.800    0.000    3.000    0.000    5.600 
#    0.000    3.000    0.000    3.600    0.000    0.000 
#    0.000    0.000    0.000    0.000    0.000    0.000 
#
# Total GULP energy -223376.937244 kJ/mol
# GULP energy per Si atom -5584.423431 kJ/mol
# Density = 2.140547 g / cm^3
# Si number density = 21.454303 Si / 1000 Ang^3
#
#
#
# Elastic Constant Matrix: (Units=GPa)
#
#
# Indices 1 2 3 4 5 6 
#
# 1 59.0060 -12.2177 -11.2836 0.0000 0.0000 0.0000
# 2 -12.2177 177.3266 127.2713 0.0000 0.0000 0.0000
# 3 -11.2836 127.2713 175.8734 0.0000 0.0000 0.0000
# 4 0.0000 0.0000 0.0000 -7.3986 0.0000 0.0000
# 5 0.0000 0.0000 0.0000 0.0000 14.7361 0.0000
# 6 0.0000 0.0000 0.0000 0.0000 0.0000 62.6020
#
#
#
# Elastic Compliance Matrix: (Units=1/GPa)
#
#
# Indices 1 2 3 4 5 6 
#
# 1 0.017215 0.000819 0.000512 0.000000 0.000000 0.000000
# 2 0.000819 0.011772 -0.008467 0.000000 0.000000 0.000000
# 3 0.000512 -0.008467 0.011846 0.000000 0.000000 0.000000
# 4 0.000000 0.000000 0.000000 -0.135161 0.000000 0.000000
# 5 0.000000 0.000000 0.000000 0.000000 0.067861 0.000000
# 6 0.000000 0.000000 0.000000 0.000000 0.000000 0.015974
#
#
# Mechanical properties :
#
#
# Convention : Reuss Voigt Hill
#
# Bulk Modulus (GPa) = 37.64922 68.86067 53.25494
# Shear Modulus (GPa) = 395.83393 34.55030 215.19211
#
# Velocity S-wave (km/s) = 13.59785 4.01735 10.02598
# Velocity P-wave (km/s) = 16.25183 7.32700 12.60569
#
# Compressibility (1/GPa) = 0.02656098
#
# Stress axis : x y z
#
# Youngs Moduli (GPa) = 58.08941 84.94459 84.41922
#
# Poissons Ratio (x) = -0.06953 -0.04323
# Poissons Ratio (y) = -0.04755 0.71474
# Poissons Ratio (z) = -0.02975 0.71919
#
# Static dielectric constant tensor:
#      x y z
#    x 1.831370 0.000000 0.000000 
#    y 0.000000 1.724170 0.000000 
#    z 0.000000 0.000000 1.745520 
# 
# From -- ./inp_files/52430.got.cif
#   From: 2010.05.17/outbox.cif.g08.bks.cpg/sg63_27_cif.got.tgz:52430.got - 2010.06.03 15:47:04.
