data_PCOD9470953
_publ_section_title
;
Structure prediction by ZEFSAII (Michael W. Deem and Ramdas Pophale) SiO2 
 PCOD9470953
Probable space group: C M C M
;
_chemical_formula_sum "Si O2"
_cell_formula_units_Z 76
_cell_length_a 12.145540
_cell_length_b 14.879899
_cell_length_c 24.044648
_cell_angle_alpha 90.000000
_cell_angle_beta 90.000000
_cell_angle_gamma 90.000000
_cell_volume 4345.454787
_symmetry_space_group_name_H-M "C M C M"
_symmetry_group_IT_number 63
_symmetry_cell_setting 'orthorhombic'
loop_
_space_group_symop_operation_xyz
x,y,z
-x,-y,1/2+z
x,-y,-z
-x,y,1/2-z
-x,-y,-z
x,y,1/2-z
-x,y,z
x,-y,1/2+z
1/2+x,1/2+y,z
1/2-x,1/2-y,1/2+z
1/2+x,1/2-y,-z
1/2-x,1/2+y,1/2-z
1/2-x,1/2-y,-z
1/2+x,1/2+y,1/2-z
1/2-x,1/2+y,z
1/2+x,1/2-y,1/2+z
loop_
_atom_site_type_symbol
_atom_site_label
_atom_site_fract_x
_atom_site_fract_y
_atom_site_fract_z
Si Si1 0.500000 0.074456 0.750000
Si Si2 0.631437 0.684589 0.870151
Si Si3 0.712291 0.944866 0.750000
Si Si4 0.000000 0.245859 0.312953
Si Si5 0.632238 0.497634 0.064821
Si Si6 0.631573 0.389357 0.250000
Si Si7 0.720458 0.656929 0.359827
O O1 0.605951 0.009891 0.750000
O O2 0.500000 0.146148 0.801532
O O3 0.500000 0.698374 0.871441
O O4 0.657878 0.598238 0.907450
O O5 0.664233 0.661514 0.806321
O O6 0.697076 0.772347 0.887358
O O7 0.815539 0.012709 0.750000
O O8 0.722206 0.883928 0.804720
O O9 0.890798 0.209710 0.342554
O O10 0.000000 0.207160 0.250000
O O11 0.500000 0.510070 0.069403
O O12 0.689190 0.575689 0.099846
O O13 0.661659 0.500000 0.000000
O O14 0.500000 0.397596 0.250000
#
# Coordination Sequence:
#
# PCOD9470953 Si02
#       7
#     4  16   8   8  16   8  16
#     4  10  24  38  52  84 134 156 180 228 286 354
#     4  10  22  38  58  85 120 146 188 238 282 345
#     4  12  22  33  60  86 120 156 186 223 288 351
#     4  10  22  36  53  86 118 146 189 237 278 345
#     4  10  22  40  61  85 110 149 201 246 287 331
#     4  10  19  33  59  85 113 149 188 230 279 334
#     4  12  22  36  62  85 115 154 193 231 291 344
#
# _framework density 17.489538
#
# number of rings (size 3 to 8) (size 9 to 14) (size 15 to 20)
#    0.316    1.053    4.211    1.895    2.947    0.842 
#    0.000    0.000    0.000    0.632    0.000    0.000 
#    0.000    0.000    0.000    0.000    0.000    0.000 
#
# Total GULP energy -212179.453891 kJ/mol
# GULP energy per Si atom -5583.669839 kJ/mol
# Density = 1.744973 g / cm^3
# Si number density = 17.489538 Si / 1000 Ang^3
#
#
#
# Elastic Constant Matrix: (Units=GPa)
#
#
# Indices 1 2 3 4 5 6 
#
# 1 51.7178 68.8149 38.9790 0.0000 0.0000 0.0000
# 2 68.8149 152.7104 67.1007 0.0000 0.0000 0.0000
# 3 38.9790 67.1007 112.1113 0.0000 0.0000 0.0000
# 4 0.0000 0.0000 0.0000 -4.6851 0.0000 0.0000
# 5 0.0000 0.0000 0.0000 0.0000 -1.3819 0.0000
# 6 0.0000 0.0000 0.0000 0.0000 0.0000 29.2769
#
#
#
# Elastic Compliance Matrix: (Units=1/GPa)
#
#
# Indices 1 2 3 4 5 6 
#
# 1 0.050548 -0.020428 -0.005348 0.000000 0.000000 0.000000
# 2 -0.020428 0.017141 -0.003157 0.000000 0.000000 0.000000
# 3 -0.005348 -0.003157 0.012668 0.000000 0.000000 0.000000
# 4 0.000000 0.000000 0.000000 -0.213442 0.000000 0.000000
# 5 0.000000 0.000000 0.000000 0.000000 -0.723623 0.000000
# 6 0.000000 0.000000 0.000000 0.000000 0.000000 0.034157
#
#
# Mechanical properties :
#
#
# Convention : Reuss Voigt Hill
#
# Bulk Modulus (GPa) = 44.46109 74.03651 59.24880
# Shear Modulus (GPa) = -6.60337 14.08497 3.74080
#
# Velocity S-wave (km/s) = -1.94520 2.84092 1.46408
# Velocity P-wave (km/s) = 4.52014 7.29280 6.06698
#
# Compressibility (1/GPa) = 0.02249157
#
# Stress axis : x y z
#
# Youngs Moduli (GPa) = 19.78337 58.34067 78.93703
#
# Poissons Ratio (x) = 1.19179 0.42214
# Poissons Ratio (y) = 0.40414 0.24917
# Poissons Ratio (z) = 0.10580 0.18416
#
# Static dielectric constant tensor:
#      x y z
#    x 1.588480 0.000000 0.000000 
#    y 0.000000 1.586090 0.000000 
#    z 0.000000 0.000000 1.592780 
# 
# From -- ./inp_files/61213.got.cif
#   From: 2010.05.17/outbox.cif.g08.bks.cpg/sg63_31_cif.got.tgz:61213.got - 2010.06.03 15:47:04.
