data_PCOD9470125
_publ_section_title
;
Structure prediction by ZEFSAII (Michael W. Deem and Ramdas Pophale) SiO2 
 PCOD9470125
Probable space group: C M C M
;
_chemical_formula_sum "Si O2"
_cell_formula_units_Z 96
_cell_length_a 8.778841
_cell_length_b 28.274640
_cell_length_c 23.930790
_cell_angle_alpha 90.000000
_cell_angle_beta 90.000000
_cell_angle_gamma 90.000000
_cell_volume 5940.066446
_symmetry_space_group_name_H-M "C M C M"
_symmetry_group_IT_number 63
_symmetry_cell_setting 'orthorhombic'
loop_
_space_group_symop_operation_xyz
x,y,z
-x,-y,1/2+z
x,-y,-z
-x,y,1/2-z
-x,-y,-z
x,y,1/2-z
-x,y,z
x,-y,1/2+z
1/2+x,1/2+y,z
1/2-x,1/2-y,1/2+z
1/2+x,1/2-y,-z
1/2-x,1/2+y,1/2-z
1/2-x,1/2-y,-z
1/2+x,1/2+y,1/2-z
1/2-x,1/2+y,z
1/2+x,1/2-y,1/2+z
loop_
_atom_site_type_symbol
_atom_site_label
_atom_site_fract_x
_atom_site_fract_y
_atom_site_fract_z
Si Si1 0.681319 0.929307 0.184407
Si Si2 0.818236 0.015095 0.584364
Si Si3 0.181383 0.173544 0.684986
Si Si4 0.182787 0.320040 0.974184
Si Si5 0.816713 0.429648 0.520355
Si Si6 0.318402 0.234133 0.588360
O O1 0.713530 0.937681 0.250000
O O2 0.500000 0.931803 0.175694
O O3 0.764373 0.965878 0.143992
O O4 0.738648 0.876330 0.171113
O O5 0.753881 0.051153 0.537439
O O6 0.000000 0.013124 0.580526
O O7 0.747066 0.964592 0.567729
O O8 0.215594 0.184286 0.750000
O O9 0.240522 0.213417 0.643272
O O10 0.000000 0.167826 0.679397
O O11 0.223553 0.375020 0.970137
O O12 0.262273 0.285976 0.929555
O O13 0.000000 0.315692 0.968040
O O14 0.222205 0.299719 0.035639
O O15 0.000000 0.433725 0.517241
O O16 0.500000 0.233451 0.594815
#
# Coordination Sequence:
#
# PCOD9470125 Si02
#       6
#    16  16  16  16  16  16
#     4  10  20  34  52  73  98 129 165 202 242 291
#     4  11  21  32  49  74 103 131 162 201 246 293
#     4  10  20  33  50  73 101 131 162 199 243 288
#     4   9  19  33  49  71  98 129 163 200 242 286
#     4  10  19  33  52  72  99 133 168 203 241 288
#     4  10  19  31  50  74 100 130 162 198 241 289
#
# _framework density 16.161435000000001
#
# number of rings (size 3 to 8) (size 9 to 14) (size 15 to 20)
#    0.000    2.000    0.000    5.500    0.000    5.333 
#    0.000    0.000    0.000    1.000    0.000    7.000 
#    0.000    0.000    0.000    0.000    0.000    0.000 
#
# Total GULP energy -267988.100115 kJ/mol
# GULP energy per Si atom -5583.085419 kJ/mol
# Density = 1.612465 g / cm^3
# Si number density = 16.161435 Si / 1000 Ang^3
#
#
#
# Elastic Constant Matrix: (Units=GPa)
#
#
# Indices 1 2 3 4 5 6 
#
# 1 72.7136 54.8488 39.6915 0.0000 0.0000 0.0000
# 2 54.8488 134.5846 56.4375 0.0000 0.0000 0.0000
# 3 39.6915 56.4375 64.8244 0.0000 0.0000 0.0000
# 4 0.0000 0.0000 0.0000 24.1901 0.0000 0.0000
# 5 0.0000 0.0000 0.0000 0.0000 25.9352 0.0000
# 6 0.0000 0.0000 0.0000 0.0000 0.0000 28.7317
#
#
#
# Elastic Compliance Matrix: (Units=1/GPa)
#
#
# Indices 1 2 3 4 5 6 
#
# 1 0.022940 -0.005448 -0.009303 0.000000 0.000000 0.000000
# 2 -0.005448 0.012997 -0.007979 0.000000 0.000000 0.000000
# 3 -0.009303 -0.007979 0.028070 0.000000 0.000000 0.000000
# 4 0.000000 0.000000 0.000000 0.041339 0.000000 0.000000
# 5 0.000000 0.000000 0.000000 0.000000 0.038558 0.000000
# 6 0.000000 0.000000 0.000000 0.000000 0.000000 0.034805
#
#
# Mechanical properties :
#
#
# Convention : Reuss Voigt Hill
#
# Bulk Modulus (GPa) = 53.92118 63.78646 58.85382
# Shear Modulus (GPa) = 21.70603 23.84772 22.77688
#
# Velocity S-wave (km/s) = 3.66878 3.84551 3.75818
# Velocity P-wave (km/s) = 7.16820 7.69879 7.43823
#
# Compressibility (1/GPa) = 0.01854559
#
# Stress axis : x y z
#
# Youngs Moduli (GPa) = 43.59171 76.94285 35.62571
#
# Poissons Ratio (x) = 0.41917 0.33143
# Poissons Ratio (y) = 0.23748 0.28427
# Poissons Ratio (z) = 0.40554 0.61396
#
# Static dielectric constant tensor:
#      x y z
#    x 1.538590 0.000000 0.000000 
#    y 0.000000 1.522000 0.000000 
#    z 0.000000 0.000000 1.529440 
# 
# From -- ./inp_files/60200.got.cif
#   From: 2010.05.17/outbox.cif.g08.bks.cpg/sg63_31_cif.got.tgz:60200.got - 2010.06.03 15:47:04.
