data_PCOD9470932
_publ_section_title
;
Structure prediction by ZEFSAII (Michael W. Deem and Ramdas Pophale) SiO2 
 PCOD9470932
Probable space group: C M C M
;
_chemical_formula_sum "Si O2"
_cell_formula_units_Z 80
_cell_length_a 14.557499
_cell_length_b 18.128256
_cell_length_c 15.519525
_cell_angle_alpha 90.000000
_cell_angle_beta 90.000000
_cell_angle_gamma 90.000000
_cell_volume 4095.634751
_symmetry_space_group_name_H-M "C M C M"
_symmetry_group_IT_number 63
_symmetry_cell_setting 'orthorhombic'
loop_
_space_group_symop_operation_xyz
x,y,z
-x,-y,1/2+z
x,-y,-z
-x,y,1/2-z
-x,-y,-z
x,y,1/2-z
-x,y,z
x,-y,1/2+z
1/2+x,1/2+y,z
1/2-x,1/2-y,1/2+z
1/2+x,1/2-y,-z
1/2-x,1/2+y,1/2-z
1/2-x,1/2-y,-z
1/2+x,1/2+y,1/2-z
1/2-x,1/2+y,z
1/2+x,1/2-y,1/2+z
loop_
_atom_site_type_symbol
_atom_site_label
_atom_site_fract_x
_atom_site_fract_y
_atom_site_fract_z
Si Si1 0.261705 0.077311 0.482763
Si Si2 0.895063 0.077320 0.347035
Si Si3 0.600603 0.750953 0.375486
Si Si4 0.283694 0.662902 0.844151
Si Si5 0.605675 0.791302 0.573414
O O1 0.178846 0.057366 0.418452
O O2 0.221938 0.110740 0.572042
O O3 0.327195 0.138499 0.438374
O O4 0.312565 0.000000 0.500000
O O5 0.873196 0.052053 0.250000
O O6 0.893439 0.166731 0.346640
O O7 0.000000 0.054879 0.367723
O O8 0.500000 0.780270 0.352008
O O9 0.683435 0.799410 0.342291
O O10 0.607196 0.753152 0.479141
O O11 0.302930 0.629415 0.750000
O O12 0.353389 0.730336 0.862674
O O13 0.500000 0.810923 0.593228
#
# Coordination Sequence:
#
# PCOD9470932 Si02
#       5
#    16  16  16  16  16
#     4  11  23  39  58  85 123 160 193 235 289 352
#     4  10  19  33  57  85 111 146 192 240 290 341
#     4   9  16  31  57  84 109 137 181 245 299 335
#     4  11  21  36  58  87 116 149 196 244 295 347
#     4  10  20  37  59  83 114 152 197 243 287 337
#
# _framework density 19.532993000000001
#
# number of rings (size 3 to 8) (size 9 to 14) (size 15 to 20)
#    0.000    1.800    4.000    1.800    0.000    3.200 
#    0.000    0.000    0.000    0.000    0.000    2.800 
#    0.000    0.000    0.000    0.000    0.000    0.000 
#
# Total GULP energy -223136.707906 kJ/mol
# GULP energy per Si atom -5578.417698 kJ/mol
# Density = 1.948854 g / cm^3
# Si number density = 19.532993 Si / 1000 Ang^3
#
#
#
# Elastic Constant Matrix: (Units=GPa)
#
#
# Indices 1 2 3 4 5 6 
#
# 1 100.3765 24.5884 54.1036 0.0000 0.0000 0.0000
# 2 24.5884 72.4262 9.1490 0.0000 0.0000 0.0000
# 3 54.1036 9.1490 82.8725 0.0000 0.0000 0.0000
# 4 0.0000 0.0000 0.0000 -32.2934 0.0000 0.0000
# 5 0.0000 0.0000 0.0000 0.0000 2.2156 0.0000
# 6 0.0000 0.0000 0.0000 0.0000 0.0000 5.3268
#
#
#
# Elastic Compliance Matrix: (Units=1/GPa)
#
#
# Indices 1 2 3 4 5 6 
#
# 1 0.016611 -0.004330 -0.010366 0.000000 0.000000 0.000000
# 2 -0.004330 0.015131 0.001156 0.000000 0.000000 0.000000
# 3 -0.010366 0.001156 0.018707 0.000000 0.000000 0.000000
# 4 0.000000 0.000000 0.000000 -0.030966 0.000000 0.000000
# 5 0.000000 0.000000 0.000000 0.000000 0.451337 0.000000
# 6 0.000000 0.000000 0.000000 0.000000 0.000000 0.187729
#
#
# Mechanical properties :
#
#
# Convention : Reuss Voigt Hill
#
# Bulk Modulus (GPa) = 42.79211 47.92859 45.36035
# Shear Modulus (GPa) = 7.21065 6.23875 6.72470
#
# Velocity S-wave (km/s) = 1.92342 1.78910 1.85747
# Velocity P-wave (km/s) = 5.18535 5.37200 5.27950
#
# Compressibility (1/GPa) = 0.02336879
#
# Stress axis : x y z
#
# Youngs Moduli (GPa) = 60.20236 66.08938 53.45653
#
# Poissons Ratio (x) = 0.28615 0.55415
# Poissons Ratio (y) = 0.26066 -0.06181
# Poissons Ratio (z) = 0.62408 -0.07642
#
# Static dielectric constant tensor:
#      x y z
#    x 1.684830 0.000000 0.000000 
#    y 0.000000 1.658670 0.000000 
#    z 0.000000 0.000000 1.719960 
# 
# From -- ./inp_files/31660.got.cif
#   From: 2010.05.17/outbox.cif.g08.bks.cpg/sg63_16_cif.got.tgz:31660.got - 2010.06.03 15:47:04.
