data_PCOD9470864
_publ_section_title
;
Structure prediction by ZEFSAII (Michael W. Deem and Ramdas Pophale) SiO2 
 PCOD9470864
Probable space group: C M C M
;
_chemical_formula_sum "Si O2"
_cell_formula_units_Z 80
_cell_length_a 12.987540
_cell_length_b 17.926847
_cell_length_c 16.030671
_cell_angle_alpha 90.000000
_cell_angle_beta 90.000000
_cell_angle_gamma 90.000000
_cell_volume 3732.351275
_symmetry_space_group_name_H-M "C M C M"
_symmetry_group_IT_number 63
_symmetry_cell_setting 'orthorhombic'
loop_
_space_group_symop_operation_xyz
x,y,z
-x,-y,1/2+z
x,-y,-z
-x,y,1/2-z
-x,-y,-z
x,y,1/2-z
-x,y,z
x,-y,1/2+z
1/2+x,1/2+y,z
1/2-x,1/2-y,1/2+z
1/2+x,1/2-y,-z
1/2-x,1/2+y,1/2-z
1/2-x,1/2-y,-z
1/2+x,1/2+y,1/2-z
1/2-x,1/2+y,z
1/2+x,1/2-y,1/2+z
loop_
_atom_site_type_symbol
_atom_site_label
_atom_site_fract_x
_atom_site_fract_y
_atom_site_fract_z
Si Si1 0.294502 0.331396 0.402500
Si Si2 0.886122 0.601142 0.344214
Si Si3 0.613211 0.050967 0.916980
Si Si4 0.304207 0.316722 0.906619
Si Si5 0.500000 0.413535 0.394918
Si Si6 0.000000 0.088274 0.100013
O O1 0.208537 0.394865 0.410445
O O2 0.327768 0.304029 0.495484
O O3 0.234160 0.260236 0.365195
O O4 0.397673 0.368990 0.366335
O O5 0.872556 0.628176 0.250000
O O6 0.882675 0.511884 0.346024
O O7 0.796344 0.632101 0.400451
O O8 0.000000 0.623912 0.373889
O O9 0.500000 0.088006 0.915536
O O10 0.617998 0.000000 0.000000
O O11 0.399805 0.364484 0.872772
O O12 0.500000 0.414690 0.497567
O O13 0.500000 0.501641 0.371324
#
# Coordination Sequence:
#
# PCOD9470864 Si02
#       6
#    16  16  16  16   8   8
#     4  10  20  31  53  83 114 138 181 235 283 323
#     4  10  21  37  57  79 109 150 189 224 274 340
#     4  10  19  33  55  83 111 143 182 233 280 333
#     4  10  20  33  52  80 113 146 180 226 282 335
#     4   9  18  30  48  76 111 149 173 220 279 337
#     4   9  18  32  51  74 110 146 180 217 280 338
#
# _framework density 21.43421
#
# number of rings (size 3 to 8) (size 9 to 14) (size 15 to 20)
#    0.000    2.200    2.000    1.200    5.600    0.000 
#    0.000    1.500    0.000    0.000    0.000    0.000 
#    0.000    0.000    0.000    0.000    0.000    0.000 
#
# Total GULP energy -222918.915435 kJ/mol
# GULP energy per Si atom -5572.972886 kJ/mol
# Density = 2.138542 g / cm^3
# Si number density = 21.434210 Si / 1000 Ang^3
#
#
#
# Elastic Constant Matrix: (Units=GPa)
#
#
# Indices 1 2 3 4 5 6 
#
# 1 190.6978 93.6529 2.1598 0.0000 0.0000 0.0000
# 2 93.6529 127.2380 -2.6705 0.0000 0.0000 0.0000
# 3 2.1598 -2.6705 26.0778 0.0000 0.0000 0.0000
# 4 0.0000 0.0000 0.0000 2.3528 0.0000 0.0000
# 5 0.0000 0.0000 0.0000 0.0000 3.3124 0.0000
# 6 0.0000 0.0000 0.0000 0.0000 0.0000 37.4119
#
#
#
# Elastic Compliance Matrix: (Units=1/GPa)
#
#
# Indices 1 2 3 4 5 6 
#
# 1 0.008257 -0.006105 -0.001309 0.000000 0.000000 0.000000
# 2 -0.006105 0.012390 0.001774 0.000000 0.000000 0.000000
# 3 -0.001309 0.001774 0.038637 0.000000 0.000000 0.000000
# 4 0.000000 0.000000 0.000000 0.425034 0.000000 0.000000
# 5 0.000000 0.000000 0.000000 0.000000 0.301893 0.000000
# 6 0.000000 0.000000 0.000000 0.000000 0.000000 0.026729
#
#
# Mechanical properties :
#
#
# Convention : Reuss Voigt Hill
#
# Bulk Modulus (GPa) = 20.83125 58.92200 39.87662
# Shear Modulus (GPa) = 5.95081 25.34018 15.64549
#
# Velocity S-wave (km/s) = 1.66804 3.44209 2.70465
# Velocity P-wave (km/s) = 3.66737 6.58382 5.32899
#
# Compressibility (1/GPa) = 0.04800480
#
# Stress axis : x y z
#
# Youngs Moduli (GPa) = 121.11090 80.71003 25.88198
#
# Poissons Ratio (x) = 0.49273 0.03388
# Poissons Ratio (y) = 0.73937 -0.04593
# Poissons Ratio (z) = 0.15854 -0.14321
#
# Static dielectric constant tensor:
#      x y z
#    x 1.765940 0.000000 0.000000 
#    y 0.000000 1.817310 0.000000 
#    z 0.000000 0.000000 1.768480 
# 
# From -- ./inp_files/52468.got.cif
#   From: 2010.05.17/outbox.cif.g08.bks.cpg/sg63_27_cif.got.tgz:52468.got - 2010.06.03 15:47:04.
