data_PCOD9470291
_publ_section_title
;
Structure prediction by ZEFSAII (Michael W. Deem and Ramdas Pophale) SiO2 
 PCOD9470291
Probable space group: C M C M
;
_chemical_formula_sum "Si O2"
_cell_formula_units_Z 100
_cell_length_a 25.400159
_cell_length_b 21.037833
_cell_length_c 9.318050
_cell_angle_alpha 90.000000
_cell_angle_beta 90.000000
_cell_angle_gamma 90.000000
_cell_volume 4979.233296
_symmetry_space_group_name_H-M "C M C M"
_symmetry_group_IT_number 63
_symmetry_cell_setting 'orthorhombic'
loop_
_space_group_symop_operation_xyz
x,y,z
-x,-y,1/2+z
x,-y,-z
-x,y,1/2-z
-x,-y,-z
x,y,1/2-z
-x,y,z
x,-y,1/2+z
1/2+x,1/2+y,z
1/2-x,1/2-y,1/2+z
1/2+x,1/2-y,-z
1/2-x,1/2+y,1/2-z
1/2-x,1/2-y,-z
1/2+x,1/2+y,1/2-z
1/2-x,1/2+y,z
1/2+x,1/2-y,1/2+z
loop_
_atom_site_type_symbol
_atom_site_label
_atom_site_fract_x
_atom_site_fract_y
_atom_site_fract_z
Si Si1 0.000000 0.112901 0.250000
Si Si2 0.304822 0.563215 0.578196
Si Si3 0.364860 0.941546 0.089092
Si Si4 0.390990 0.624398 0.091104
Si Si5 0.059539 0.638043 0.414312
Si Si6 0.221339 0.670607 0.585526
Si Si7 0.642832 0.747073 0.583308
O O1 0.047547 0.114757 0.373413
O O2 0.283648 0.500000 0.500000
O O3 0.303778 0.555206 0.750000
O O4 0.362922 0.574925 0.514436
O O5 0.272292 0.628305 0.545320
O O6 0.374297 0.962360 0.250000
O O7 0.323778 0.883920 0.088970
O O8 0.417664 0.915556 0.016940
O O9 0.343328 0.000000 0.000000
O O10 0.364941 0.620607 0.250000
O O11 0.379079 0.691951 0.018275
O O12 0.060665 0.615262 0.250000
O O13 0.098864 0.697645 0.421236
O O14 0.000000 0.656506 0.450834
O O15 0.226606 0.694400 0.750000
O O16 0.197040 0.723224 0.479079
O O17 0.648818 0.726982 0.750000
#
# Coordination Sequence:
#
# PCOD9470291 Si02
#       7
#     4  16  16  16  16  16  16
#     4   8  24  44  68  92 122 164 212 252 322 382
#     4  11  23  41  67  95 127 165 210 261 314 380
#     4  10  19  32  49  71 103 143 189 240 289 351
#     4  10  22  42  65  91 124 160 207 255 311 375
#     4   9  19  33  49  72 102 142 189 242 296 352
#     4   9  20  37  57  88 124 163 202 241 301 365
#     4  10  20  35  59  92 126 158 202 253 307 364
#
# _framework density 20.083413
#
# number of rings (size 3 to 8) (size 9 to 14) (size 15 to 20)
#    0.480    1.760    0.000    2.400    1.120    3.840 
#    0.000    1.600    0.000    0.000    0.000    0.000 
#    0.000    0.000    0.000    0.000    0.000    0.000 
#
# Total GULP energy -278369.131312 kJ/mol
# GULP energy per Si atom -5567.382626 kJ/mol
# Density = 2.003770 g / cm^3
# Si number density = 20.083413 Si / 1000 Ang^3
#
#
#
# Elastic Constant Matrix: (Units=GPa)
#
#
# Indices 1 2 3 4 5 6 
#
# 1 139.2225 11.6620 37.3447 0.0000 0.0000 0.0000
# 2 11.6620 38.5994 22.1869 0.0000 0.0000 0.0000
# 3 37.3447 22.1869 91.9194 0.0000 0.0000 0.0000
# 4 0.0000 0.0000 0.0000 30.6372 0.0000 0.0000
# 5 0.0000 0.0000 0.0000 0.0000 23.5323 0.0000
# 6 0.0000 0.0000 0.0000 0.0000 0.0000 9.0289
#
#
#
# Elastic Compliance Matrix: (Units=1/GPa)
#
#
# Indices 1 2 3 4 5 6 
#
# 1 0.008075 -0.000643 -0.003125 0.000000 0.000000 0.000000
# 2 -0.000643 0.030132 -0.007012 0.000000 0.000000 0.000000
# 3 -0.003125 -0.007012 0.013841 0.000000 0.000000 0.000000
# 4 0.000000 0.000000 0.000000 0.032640 0.000000 0.000000
# 5 0.000000 0.000000 0.000000 0.000000 0.042495 0.000000
# 6 0.000000 0.000000 0.000000 0.000000 0.000000 0.110755
#
#
# Mechanical properties :
#
#
# Convention : Reuss Voigt Hill
#
# Bulk Modulus (GPa) = 32.80037 45.79205 39.29621
# Shear Modulus (GPa) = 18.54180 25.87620 22.20900
#
# Velocity S-wave (km/s) = 3.04178 3.59337 3.32902
# Velocity P-wave (km/s) = 5.35762 6.32984 5.86391
#
# Compressibility (1/GPa) = 0.03048746
#
# Stress axis : x y z
#
# Youngs Moduli (GPa) = 123.83938 33.18755 72.24749
#
# Poissons Ratio (x) = 0.02135 0.22580
# Poissons Ratio (y) = 0.07965 0.50658
# Poissons Ratio (z) = 0.38705 0.23270
#
# Static dielectric constant tensor:
#      x y z
#    x 1.729030 0.000000 0.000000 
#    y 0.000000 1.735960 0.000000 
#    z 0.000000 0.000000 1.690220 
# 
# From -- ./inp_files/12579.got.cif
#   From: 2010.05.17/outbox.cif.g08.bks.cpg/sg63_7_cif.got.tgz:12579.got - 2010.06.03 15:47:04.
