data_PCOD9470630
_publ_section_title
;
Structure prediction by ZEFSAII (Michael W. Deem and Ramdas Pophale) SiO2 
 PCOD9470630
Probable space group: C M C M
;
_chemical_formula_sum "Si O2"
_cell_formula_units_Z 96
_cell_length_a 24.616372
_cell_length_b 8.544187
_cell_length_c 26.206935
_cell_angle_alpha 90.000000
_cell_angle_beta 90.000000
_cell_angle_gamma 90.000000
_cell_volume 5512.023020
_symmetry_space_group_name_H-M "C M C M"
_symmetry_group_IT_number 63
_symmetry_cell_setting 'orthorhombic'
loop_
_space_group_symop_operation_xyz
x,y,z
-x,-y,1/2+z
x,-y,-z
-x,y,1/2-z
-x,-y,-z
x,y,1/2-z
-x,y,z
x,-y,1/2+z
1/2+x,1/2+y,z
1/2-x,1/2-y,1/2+z
1/2+x,1/2-y,-z
1/2-x,1/2+y,1/2-z
1/2-x,1/2-y,-z
1/2+x,1/2+y,1/2-z
1/2-x,1/2+y,z
1/2+x,1/2-y,1/2+z
loop_
_atom_site_type_symbol
_atom_site_label
_atom_site_fract_x
_atom_site_fract_y
_atom_site_fract_z
Si Si1 0.679680 0.703215 0.307825
Si Si2 0.561402 0.808985 0.500612
Si Si3 0.769986 0.904257 0.550108
Si Si4 0.214726 0.885959 0.349807
Si Si5 0.846535 0.670249 0.078067
Si Si6 0.866651 0.695566 0.908507
O O1 0.666185 0.745724 0.250000
O O2 0.734543 0.794540 0.325653
O O3 0.692173 0.518747 0.312625
O O4 0.635047 0.745314 0.350526
O O5 0.500000 0.757272 0.510404
O O6 0.604899 0.761389 0.543854
O O7 0.583471 0.759821 0.445093
O O8 0.561999 0.000000 0.500000
O O9 0.709263 0.837294 0.545373
O O10 0.814188 0.775122 0.564945
O O11 0.784842 0.000000 0.500000
O O12 0.767754 0.017045 0.599657
O O13 0.169736 0.766833 0.371685
O O14 0.861155 0.491564 0.091040
#
# Coordination Sequence:
#
# PCOD9470630 Si02
#       6
#    16  16  16  16  16  16
#     4  11  21  34  49  70 102 135 172 213 256 299
#     4   9  19  32  51  78 106 135 167 204 247 297
#     4  11  19  28  47  78 107 137 164 197 244 314
#     4  11  20  32  47  73 104 139 166 202 251 309
#     4  11  18  30  51  74 106 137 167 197 251 310
#     4  10  19  33  50  74 105 138 170 207 250 300
#
# _framework density 17.416474000000001
#
# number of rings (size 3 to 8) (size 9 to 14) (size 15 to 20)
#    0.000    1.500    5.000    3.000    0.000    2.000 
#    0.000    0.833    0.000   13.000    0.000    0.000 
#    0.000    4.667    0.000    0.000    0.000    0.000 
#
# Total GULP energy -267918.012231 kJ/mol
# GULP energy per Si atom -5581.625255 kJ/mol
# Density = 1.737683 g / cm^3
# Si number density = 17.416474 Si / 1000 Ang^3
#
#
#
# Elastic Constant Matrix: (Units=GPa)
#
#
# Indices 1 2 3 4 5 6 
#
# 1 82.4594 9.1146 26.4510 0.0000 0.0000 0.0000
# 2 9.1146 58.8700 18.1712 0.0000 0.0000 0.0000
# 3 26.4510 18.1712 118.6202 0.0000 0.0000 0.0000
# 4 0.0000 0.0000 0.0000 19.2501 0.0000 0.0000
# 5 0.0000 0.0000 0.0000 0.0000 11.0754 0.0000
# 6 0.0000 0.0000 0.0000 0.0000 0.0000 11.8629
#
#
#
# Elastic Compliance Matrix: (Units=1/GPa)
#
#
# Indices 1 2 3 4 5 6 
#
# 1 0.013140 -0.001186 -0.002748 0.000000 0.000000 0.000000
# 2 -0.001186 0.017937 -0.002483 0.000000 0.000000 0.000000
# 3 -0.002748 -0.002483 0.009424 0.000000 0.000000 0.000000
# 4 0.000000 0.000000 0.000000 0.051948 0.000000 0.000000
# 5 0.000000 0.000000 0.000000 0.000000 0.090291 0.000000
# 6 0.000000 0.000000 0.000000 0.000000 0.000000 0.084297
#
#
# Mechanical properties :
#
#
# Convention : Reuss Voigt Hill
#
# Bulk Modulus (GPa) = 36.14695 40.82479 38.48587
# Shear Modulus (GPa) = 17.29553 22.18518 19.74036
#
# Velocity S-wave (km/s) = 3.15470 3.57291 3.37030
# Velocity P-wave (km/s) = 5.83687 6.36491 6.10660
#
# Compressibility (1/GPa) = 0.02766485
#
# Stress axis : x y z
#
# Youngs Moduli (GPa) = 76.10410 55.75159 106.11741
#
# Poissons Ratio (x) = 0.06613 0.29165
# Poissons Ratio (y) = 0.09026 0.26351
# Poissons Ratio (z) = 0.20916 0.13844
#
# Static dielectric constant tensor:
#      x y z
#    x 1.586180 0.000000 0.000000 
#    y 0.000000 1.660250 0.000000 
#    z 0.000000 0.000000 1.617570 
# 
# From -- ./inp_files/70629.got.cif
#   From: 2010.05.17/outbox.cif.g08.bks.cpg/sg63_36_cif.got.tgz:70629.got - 2010.06.03 15:47:04.
