data_PCOD9470929
_publ_section_title
;
Structure prediction by ZEFSAII (Michael W. Deem and Ramdas Pophale) SiO2 
 PCOD9470929
Probable space group: C M C M
;
_chemical_formula_sum "Si O2"
_cell_formula_units_Z 116
_cell_length_a 9.071664
_cell_length_b 22.334036
_cell_length_c 31.462169
_cell_angle_alpha 90.000000
_cell_angle_beta 90.000000
_cell_angle_gamma 90.000000
_cell_volume 6374.451596
_symmetry_space_group_name_H-M "C M C M"
_symmetry_group_IT_number 63
_symmetry_cell_setting 'orthorhombic'
loop_
_space_group_symop_operation_xyz
x,y,z
-x,-y,1/2+z
x,-y,-z
-x,y,1/2-z
-x,-y,-z
x,y,1/2-z
-x,y,z
x,-y,1/2+z
1/2+x,1/2+y,z
1/2-x,1/2-y,1/2+z
1/2+x,1/2-y,-z
1/2-x,1/2+y,1/2-z
1/2-x,1/2-y,-z
1/2+x,1/2+y,1/2-z
1/2-x,1/2+y,z
1/2+x,1/2-y,1/2+z
loop_
_atom_site_type_symbol
_atom_site_label
_atom_site_fract_x
_atom_site_fract_y
_atom_site_fract_z
Si Si1 0.000000 0.403385 0.750000
Si Si2 0.177440 0.120142 0.404622
Si Si3 0.176141 0.747213 0.620299
Si Si4 0.675301 0.428880 0.502945
Si Si5 0.823275 0.198202 0.797849
Si Si6 0.824035 0.068884 0.663401
Si Si7 0.163336 0.550446 0.170899
Si Si8 0.676382 0.120020 0.580618
O O1 0.126611 0.409723 0.787866
O O2 0.217569 0.190047 0.400705
O O3 0.219342 0.094054 0.450453
O O4 0.252557 0.084920 0.366139
O O5 0.000000 0.114418 0.400743
O O6 0.250666 0.738344 0.666011
O O7 0.214198 0.688854 0.592443
O O8 0.000000 0.746779 0.625934
O O9 0.697551 0.500000 0.500000
O O10 0.500000 0.417115 0.497456
O O11 0.763787 0.397460 0.465297
O O12 0.774196 0.211658 0.750000
O O13 0.791053 0.128869 0.809643
O O14 0.000000 0.205500 0.799658
O O15 0.755477 0.080169 0.616756
O O16 0.000000 0.062661 0.660321
O O17 0.751719 0.009559 0.682409
O O18 0.000000 0.531555 0.155097
O O19 0.500000 0.112985 0.583216
#
# Coordination Sequence:
#
# PCOD9470929 Si02
#       8
#     4  16  16  16  16  16  16  16
#     4   8  24  40  54  80 118 148 186 232 294 338
#     4  10  21  39  60  80 111 151 191 234 281 334
#     4   9  20  38  55  78 110 148 188 231 284 336
#     4  10  21  36  57  85 114 146 188 234 282 337
#     4   9  19  34  53  80 108 140 184 234 280 332
#     4  10  19  33  57  83 113 149 185 229 283 337
#     4  10  21  38  56  81 113 146 185 229 286 337
#     4  10  20  35  55  84 118 150 186 231 280 336
#
# _framework density 18.197642999999999
#
# number of rings (size 3 to 8) (size 9 to 14) (size 15 to 20)
#    0.414    1.931    0.000    2.069    0.966    4.414 
#    1.241    1.034    0.000    0.000    0.000    0.000 
#    0.000    0.000    0.000    0.000    0.000    0.000 
#
# Total GULP energy -322998.835084 kJ/mol
# GULP energy per Si atom -5568.945432 kJ/mol
# Density = 1.815622 g / cm^3
# Si number density = 18.197643 Si / 1000 Ang^3
#
#
#
# Elastic Constant Matrix: (Units=GPa)
#
#
# Indices 1 2 3 4 5 6 
#
# 1 33.2322 20.8051 30.9296 0.0000 0.0000 0.0000
# 2 20.8051 39.1775 25.3894 0.0000 0.0000 0.0000
# 3 30.9296 25.3894 130.5535 0.0000 0.0000 0.0000
# 4 0.0000 0.0000 0.0000 11.7512 0.0000 0.0000
# 5 0.0000 0.0000 0.0000 0.0000 36.0954 0.0000
# 6 0.0000 0.0000 0.0000 0.0000 0.0000 20.7765
#
#
#
# Elastic Compliance Matrix: (Units=1/GPa)
#
#
# Indices 1 2 3 4 5 6 
#
# 1 0.051240 -0.022133 -0.007835 0.000000 0.000000 0.000000
# 2 -0.022133 0.038766 -0.002295 0.000000 0.000000 0.000000
# 3 -0.007835 -0.002295 0.009962 0.000000 0.000000 0.000000
# 4 0.000000 0.000000 0.000000 0.085097 0.000000 0.000000
# 5 0.000000 0.000000 0.000000 0.000000 0.027704 0.000000
# 6 0.000000 0.000000 0.000000 0.000000 0.000000 0.048131
#
#
# Mechanical properties :
#
#
# Convention : Reuss Voigt Hill
#
# Bulk Modulus (GPa) = 28.21579 39.69016 33.95297
# Shear Modulus (GPa) = 14.82610 22.11389 18.46999
#
# Velocity S-wave (km/s) = 2.85744 3.48976 3.18931
# Velocity P-wave (km/s) = 5.14057 6.17219 5.67985
#
# Compressibility (1/GPa) = 0.03544115
#
# Stress axis : x y z
#
# Youngs Moduli (GPa) = 19.51595 25.79561 100.37842
#
# Poissons Ratio (x) = 0.57094 0.78646
# Poissons Ratio (y) = 0.43195 0.23041
# Poissons Ratio (z) = 0.15291 0.05921
#
# Static dielectric constant tensor:
#      x y z
#    x 1.615520 0.000000 0.000000 
#    y 0.000000 1.637350 0.000000 
#    z 0.000000 0.000000 1.595710 
# 
# From -- ./inp_files/72100.got.cif
#   From: 2010.05.17/outbox.cif.g08.bks.cpg/sg63_37_cif.got.tgz:72100.got - 2010.06.03 15:47:04.
