data_PCOD9470888
_publ_section_title
;
Structure prediction by ZEFSAII (Michael W. Deem and Ramdas Pophale) SiO2 
 PCOD9470888
Probable space group: C M C M
;
_chemical_formula_sum "Si O2"
_cell_formula_units_Z 88
_cell_length_a 8.055454
_cell_length_b 24.495678
_cell_length_c 21.240923
_cell_angle_alpha 90.000000
_cell_angle_beta 90.000000
_cell_angle_gamma 90.000000
_cell_volume 4191.339798
_symmetry_space_group_name_H-M "C M C M"
_symmetry_group_IT_number 63
_symmetry_cell_setting 'orthorhombic'
loop_
_space_group_symop_operation_xyz
x,y,z
-x,-y,1/2+z
x,-y,-z
-x,y,1/2-z
-x,-y,-z
x,y,1/2-z
-x,y,z
x,-y,1/2+z
1/2+x,1/2+y,z
1/2-x,1/2-y,1/2+z
1/2+x,1/2-y,-z
1/2-x,1/2+y,1/2-z
1/2-x,1/2-y,-z
1/2+x,1/2+y,1/2-z
1/2-x,1/2+y,z
1/2+x,1/2-y,1/2+z
loop_
_atom_site_type_symbol
_atom_site_label
_atom_site_fract_x
_atom_site_fract_y
_atom_site_fract_z
Si Si1 0.500000 0.348451 0.517047
Si Si2 0.683825 0.805011 0.579920
Si Si3 0.500000 0.569150 0.595910
Si Si4 0.313176 0.092875 0.176689
Si Si5 0.000000 0.048936 0.388473
Si Si6 0.183680 0.594100 0.677389
Si Si7 0.692922 0.774486 0.320120
O O1 0.333747 0.314138 0.531336
O O2 0.500000 0.380419 0.451796
O O3 0.500000 0.398375 0.566934
O O4 0.500000 0.806000 0.550955
O O5 0.692963 0.854064 0.631593
O O6 0.709852 0.751643 0.622400
O O7 0.500000 0.506848 0.572535
O O8 0.335398 0.573636 0.637355
O O9 0.289446 0.107596 0.250000
O O10 0.500000 0.069480 0.170291
O O11 0.165052 0.054174 0.153989
O O12 0.197187 0.576317 0.750000
O O13 0.193331 0.660153 0.677319
O O14 0.000000 0.578801 0.653759
O O15 0.754288 0.758438 0.250000
O O16 0.500000 0.756232 0.324974
#
# Coordination Sequence:
#
# PCOD9470888 Si02
#       7
#     8  16   8  16   8  16  16
#     4  10  23  42  56  80 114 146 192 247 277 330
#     4  10  19  33  56  82 116 152 188 225 277 333
#     4  12  24  40  63  81 104 152 200 234 284 328
#     4   9  18  32  51  83 119 144 174 226 289 350
#     4  10  22  38  57  79 106 148 194 241 285 330
#     4   9  21  40  60  86 118 145 182 233 279 335
#     4   9  17  32  57  86 117 151 182 222 278 335
#
# _framework density 20.995673
#
# number of rings (size 3 to 8) (size 9 to 14) (size 15 to 20)
#    0.000    2.364    0.909    2.455    1.273    4.000 
#    0.000    2.727    0.000    5.455    0.000    0.000 
#    0.000    0.000    0.000    0.000    0.000    0.000 
#
# Total GULP energy -245712.858143 kJ/mol
# GULP energy per Si atom -5584.383140 kJ/mol
# Density = 2.094789 g / cm^3
# Si number density = 20.995673 Si / 1000 Ang^3
#
#
#
# Elastic Constant Matrix: (Units=GPa)
#
#
# Indices 1 2 3 4 5 6 
#
# 1 152.3084 18.2748 46.0123 0.0000 0.0000 0.0000
# 2 18.2748 27.2122 -0.8474 0.0000 0.0000 0.0000
# 3 46.0123 -0.8474 32.5701 0.0000 0.0000 0.0000
# 4 0.0000 0.0000 0.0000 -6.1986 0.0000 0.0000
# 5 0.0000 0.0000 0.0000 0.0000 13.6950 0.0000
# 6 0.0000 0.0000 0.0000 0.0000 0.0000 -26.0511
#
#
#
# Elastic Compliance Matrix: (Units=1/GPa)
#
#
# Indices 1 2 3 4 5 6 
#
# 1 0.013631 -0.009762 -0.019511 0.000000 0.000000 0.000000
# 2 -0.009762 0.043769 0.014930 0.000000 0.000000 0.000000
# 3 -0.019511 0.014930 0.058655 0.000000 0.000000 0.000000
# 4 0.000000 0.000000 0.000000 -0.161328 0.000000 0.000000
# 5 0.000000 0.000000 0.000000 0.000000 0.073019 0.000000
# 6 0.000000 0.000000 0.000000 0.000000 0.000000 -0.038386
#
#
# Mechanical properties :
#
#
# Convention : Reuss Voigt Hill
#
# Bulk Modulus (GPa) = 11.44579 37.66333 24.55456
# Shear Modulus (GPa) = 105.99989 6.19913 56.09951
#
# Velocity S-wave (km/s) = 7.11310 1.72017 5.17470
# Velocity P-wave (km/s) = 8.53960 4.68219 6.88650
#
# Compressibility (1/GPa) = 0.08736838
#
# Stress axis : x y z
#
# Youngs Moduli (GPa) = 73.36140 22.84729 17.04889
#
# Poissons Ratio (x) = 0.22303 0.33264
# Poissons Ratio (y) = 0.71614 -0.25453
# Poissons Ratio (z) = 1.43135 -0.34110
#
# Static dielectric constant tensor:
#      x y z
#    x 1.756010 0.000000 0.000000 
#    y 0.000000 1.753590 0.000000 
#    z 0.000000 0.000000 1.728730 
# 
# From -- ./inp_files/51106.got.cif
#   From: 2010.05.17/outbox.cif.g08.bks.cpg/sg63_26_cif.got.tgz:51106.got - 2010.06.03 15:47:04.
