data_PCOD9470997
_publ_section_title
;
Structure prediction by ZEFSAII (Michael W. Deem and Ramdas Pophale) SiO2 
 PCOD9470997
Probable space group: C M C M
;
_chemical_formula_sum "Si O2"
_cell_formula_units_Z 80
_cell_length_a 17.351138
_cell_length_b 14.366178
_cell_length_c 14.757978
_cell_angle_alpha 90.000000
_cell_angle_beta 90.000000
_cell_angle_gamma 90.000000
_cell_volume 3678.714343
_symmetry_space_group_name_H-M "C M C M"
_symmetry_group_IT_number 63
_symmetry_cell_setting 'orthorhombic'
loop_
_space_group_symop_operation_xyz
x,y,z
-x,-y,1/2+z
x,-y,-z
-x,y,1/2-z
-x,-y,-z
x,y,1/2-z
-x,y,z
x,-y,1/2+z
1/2+x,1/2+y,z
1/2-x,1/2-y,1/2+z
1/2+x,1/2-y,-z
1/2-x,1/2+y,1/2-z
1/2-x,1/2-y,-z
1/2+x,1/2+y,1/2-z
1/2-x,1/2+y,z
1/2+x,1/2-y,1/2+z
loop_
_atom_site_type_symbol
_atom_site_label
_atom_site_fract_x
_atom_site_fract_y
_atom_site_fract_z
Si Si1 0.915928 0.202740 0.538164
Si Si2 0.136121 0.404401 0.008970
Si Si3 0.753565 0.903054 0.650354
Si Si4 0.582229 0.587615 0.352667
Si Si5 0.743729 0.319473 0.354759
O O1 0.909108 0.312564 0.519887
O O2 0.916872 0.153870 0.439744
O O3 0.838345 0.175014 0.592435
O O4 0.000000 0.182757 0.581207
O O5 0.187259 0.374849 0.096255
O O6 0.089319 0.500000 0.000000
O O7 0.198862 0.423950 0.931092
O O8 0.720309 0.920246 0.750000
O O9 0.834045 0.958179 0.642194
O O10 0.766536 0.790914 0.643536
O O11 0.583185 0.630208 0.250000
O O12 0.500000 0.535641 0.358112
O O13 0.735032 0.345957 0.250000
#
# Coordination Sequence:
#
# PCOD9470997 Si02
#       5
#    16  16  16  16  16
#     4  10  19  34  55  79 105 135 179 220 256 305
#     4  11  21  33  49  77 113 142 171 207 263 319
#     4   9  16  31  52  72  96 130 180 225 254 295
#     4   9  15  25  49  79 101 124 163 220 269 297
#     4  10  19  34  54  74  99 137 184 224 256 298
#
# _framework density 21.746728000000001
#
# number of rings (size 3 to 8) (size 9 to 14) (size 15 to 20)
#    0.000    2.200    4.000    1.200    0.000    1.600 
#    0.000    0.000    0.000    2.400    0.000    8.400 
#    0.000    0.000    0.000    0.000    0.000    0.000 
#
# Total GULP energy -222776.635461 kJ/mol
# GULP energy per Si atom -5569.415887 kJ/mol
# Density = 2.169723 g / cm^3
# Si number density = 21.746728 Si / 1000 Ang^3
#
#
#
# Elastic Constant Matrix: (Units=GPa)
#
#
# Indices 1 2 3 4 5 6 
#
# 1 120.1935 -6.8451 41.9490 0.0000 0.0000 0.0000
# 2 -6.8451 102.2395 24.1990 0.0000 0.0000 0.0000
# 3 41.9490 24.1990 105.0533 0.0000 0.0000 0.0000
# 4 0.0000 0.0000 0.0000 5.8741 0.0000 0.0000
# 5 0.0000 0.0000 0.0000 0.0000 20.9399 0.0000
# 6 0.0000 0.0000 0.0000 0.0000 0.0000 -7.4270
#
#
#
# Elastic Compliance Matrix: (Units=1/GPa)
#
#
# Indices 1 2 3 4 5 6 
#
# 1 0.009938 0.001697 -0.004359 0.000000 0.000000 0.000000
# 2 0.001697 0.010635 -0.003127 0.000000 0.000000 0.000000
# 3 -0.004359 -0.003127 0.011980 0.000000 0.000000 0.000000
# 4 0.000000 0.000000 0.000000 0.170239 0.000000 0.000000
# 5 0.000000 0.000000 0.000000 0.000000 0.047756 0.000000
# 6 0.000000 0.000000 0.000000 0.000000 0.000000 -0.134644
#
#
# Mechanical properties :
#
#
# Convention : Reuss Voigt Hill
#
# Bulk Modulus (GPa) = 47.67851 49.56578 48.62215
# Shear Modulus (GPa) = 37.18190 21.75630 29.46910
#
# Velocity S-wave (km/s) = 4.13942 3.16640 3.68517
# Velocity P-wave (km/s) = 6.69466 6.01747 6.36508
#
# Compressibility (1/GPa) = 0.02097381
#
# Stress axis : x y z
#
# Youngs Moduli (GPa) = 100.62358 94.03082 83.47177
#
# Poissons Ratio (x) = -0.15959 0.36388
# Poissons Ratio (y) = -0.17078 0.26105
# Poissons Ratio (z) = 0.43865 0.29407
#
# Static dielectric constant tensor:
#      x y z
#    x 1.847640 0.000000 0.000000 
#    y 0.000000 1.906950 0.000000 
#    z 0.000000 0.000000 1.768980 
# 
# From -- ./inp_files/33845.got.cif
#   From: 2010.05.17/outbox.cif.g08.bks.cpg/sg63_17_cif.got.tgz:33845.got - 2010.06.03 15:47:04.
