data_PCOD9470664
_publ_section_title
;
Structure prediction by ZEFSAII (Michael W. Deem and Ramdas Pophale) SiO2 
 PCOD9470664
Probable space group: C M C M
;
_chemical_formula_sum "Si O2"
_cell_formula_units_Z 128
_cell_length_a 11.274355
_cell_length_b 28.554460
_cell_length_c 23.387554
_cell_angle_alpha 90.000000
_cell_angle_beta 90.000000
_cell_angle_gamma 90.000000
_cell_volume 7529.228202
_symmetry_space_group_name_H-M "C M C M"
_symmetry_group_IT_number 63
_symmetry_cell_setting 'orthorhombic'
loop_
_space_group_symop_operation_xyz
x,y,z
-x,-y,1/2+z
x,-y,-z
-x,y,1/2-z
-x,-y,-z
x,y,1/2-z
-x,y,z
x,-y,1/2+z
1/2+x,1/2+y,z
1/2-x,1/2-y,1/2+z
1/2+x,1/2-y,-z
1/2-x,1/2+y,1/2-z
1/2-x,1/2-y,-z
1/2+x,1/2+y,1/2-z
1/2-x,1/2+y,z
1/2+x,1/2-y,1/2+z
loop_
_atom_site_type_symbol
_atom_site_label
_atom_site_fract_x
_atom_site_fract_y
_atom_site_fract_z
Si Si1 0.224884 0.696212 0.573311
Si Si2 0.635738 0.388195 0.604830
Si Si3 0.360411 0.298283 0.546458
Si Si4 0.140469 0.835773 0.185290
Si Si5 0.638230 0.530359 0.181899
Si Si6 0.632324 0.555073 0.986152
Si Si7 0.267847 0.066310 0.684271
Si Si8 0.128499 0.405690 0.072037
O O1 0.307343 0.695686 0.516840
O O2 0.161951 0.746344 0.569688
O O3 0.295109 0.689842 0.632825
O O4 0.142762 0.650395 0.568335
O O5 0.500000 0.379647 0.624748
O O6 0.690608 0.338127 0.588935
O O7 0.689549 0.424061 0.650402
O O8 0.631919 0.416526 0.545443
O O9 0.500000 0.306970 0.541913
O O10 0.176452 0.820862 0.250000
O O11 0.174391 0.890769 0.181062
O O12 0.000000 0.830089 0.180152
O O13 0.640589 0.536582 0.250000
O O14 0.500000 0.524821 0.164125
O O15 0.706691 0.482704 0.168428
O O16 0.500000 0.563286 0.959202
O O17 0.750181 0.572357 0.953648
O O18 0.640854 0.500000 0.000000
O O19 0.308633 0.063454 0.750000
O O20 0.365933 0.079295 0.638211
O O21 0.000000 0.419685 0.047176
#
# Coordination Sequence:
#
# PCOD9470664 Si02
#       8
#    16  16  16  16  16  16  16  16
#     4  10  20  33  51  73 101 138 177 220 271 319
#     4   9  17  30  48  72 100 130 166 211 262 311
#     4  10  19  33  52  73  99 134 179 224 265 318
#     4   9  17  30  50  76 104 134 174 223 270 317
#     4   9  16  28  49  77 105 131 166 214 263 310
#     4  10  20  34  53  76 103 137 173 210 258 313
#     4   9  18  31  48  72 102 139 176 209 254 314
#     4  11  22  34  50  76 109 140 174 218 267 317
#
# _framework density 17.000415
#
# number of rings (size 3 to 8) (size 9 to 14) (size 15 to 20)
#    0.000    2.375    1.250    1.875    0.000    5.500 
#    0.000    0.625    0.000    1.875    0.000    0.000 
#    0.000    0.000    0.000    0.000    0.000    0.000 
#
# Total GULP energy -356415.737873 kJ/mol
# GULP energy per Si atom -5568.995904 kJ/mol
# Density = 1.696172 g / cm^3
# Si number density = 17.000415 Si / 1000 Ang^3
#
#
#
# Elastic Constant Matrix: (Units=GPa)
#
#
# Indices 1 2 3 4 5 6 
#
# 1 78.2753 25.1029 28.0306 0.0000 0.0000 0.0000
# 2 25.1029 110.4329 35.6949 0.0000 0.0000 0.0000
# 3 28.0306 35.6949 59.0852 0.0000 0.0000 0.0000
# 4 0.0000 0.0000 0.0000 31.1991 0.0000 0.0000
# 5 0.0000 0.0000 0.0000 0.0000 7.5710 0.0000
# 6 0.0000 0.0000 0.0000 0.0000 0.0000 5.1989
#
#
#
# Elastic Compliance Matrix: (Units=1/GPa)
#
#
# Indices 1 2 3 4 5 6 
#
# 1 0.015570 -0.001431 -0.006522 0.000000 0.000000 0.000000
# 2 -0.001431 0.011384 -0.006198 0.000000 0.000000 0.000000
# 3 -0.006522 -0.006198 0.023763 0.000000 0.000000 0.000000
# 4 0.000000 0.000000 0.000000 0.032052 0.000000 0.000000
# 5 0.000000 0.000000 0.000000 0.000000 0.132083 0.000000
# 6 0.000000 0.000000 0.000000 0.000000 0.000000 0.192347
#
#
# Mechanical properties :
#
#
# Convention : Reuss Voigt Hill
#
# Bulk Modulus (GPa) = 44.61432 47.27225 45.94328
# Shear Modulus (GPa) = 11.28733 19.39146 15.33939
#
# Velocity S-wave (km/s) = 2.57951 3.38101 3.00708
# Velocity P-wave (km/s) = 5.93059 6.56571 6.25621
#
# Compressibility (1/GPa) = 0.02241433
#
# Stress axis : x y z
#
# Youngs Moduli (GPa) = 64.22634 87.84168 42.08144
#
# Poissons Ratio (x) = 0.12572 0.27445
# Poissons Ratio (y) = 0.09192 0.26084
# Poissons Ratio (z) = 0.41888 0.54448
#
# Static dielectric constant tensor:
#      x y z
#    x 1.588520 0.000000 0.000000 
#    y 0.000000 1.583090 0.000000 
#    z 0.000000 0.000000 1.593370 
# 
# From -- ./inp_files/62192.got.cif
#   From: 2010.05.17/outbox.cif.g08.bks.cpg/sg63_32_cif.got.tgz:62192.got - 2010.06.03 15:47:04.
