data_PCOD9470371
_publ_section_title
;
Structure prediction by ZEFSAII (Michael W. Deem and Ramdas Pophale) SiO2 
 PCOD9470371
Probable space group: C M C M
;
_chemical_formula_sum "Si O2"
_cell_formula_units_Z 104
_cell_length_a 21.244840
_cell_length_b 32.984216
_cell_length_c 8.401619
_cell_angle_alpha 90.000000
_cell_angle_beta 90.000000
_cell_angle_gamma 90.000000
_cell_volume 5887.387393
_symmetry_space_group_name_H-M "C M C M"
_symmetry_group_IT_number 63
_symmetry_cell_setting 'orthorhombic'
loop_
_space_group_symop_operation_xyz
x,y,z
-x,-y,1/2+z
x,-y,-z
-x,y,1/2-z
-x,-y,-z
x,y,1/2-z
-x,y,z
x,-y,1/2+z
1/2+x,1/2+y,z
1/2-x,1/2-y,1/2+z
1/2+x,1/2-y,-z
1/2-x,1/2+y,1/2-z
1/2-x,1/2-y,-z
1/2+x,1/2+y,1/2-z
1/2-x,1/2+y,z
1/2+x,1/2-y,1/2+z
loop_
_atom_site_type_symbol
_atom_site_label
_atom_site_fract_x
_atom_site_fract_y
_atom_site_fract_z
Si Si1 0.429897 0.677235 0.055940
Si Si2 0.760934 0.955778 0.060428
Si Si3 0.693811 0.369031 0.557185
Si Si4 0.429180 0.228849 0.558371
Si Si5 0.130836 0.417251 0.057366
Si Si6 0.176457 0.331818 0.562489
Si Si7 0.000000 0.454624 0.058428
O O1 0.429262 0.676759 0.250000
O O2 0.500000 0.664175 0.005466
O O3 0.372325 0.649482 0.002052
O O4 0.421323 0.724241 0.008570
O O5 0.766031 0.955574 0.250000
O O6 0.687598 0.947774 0.016733
O O7 0.795426 0.915375 0.996576
O O8 0.781288 0.000000 0.000000
O O9 0.695295 0.368907 0.750000
O O10 0.752007 0.340157 0.502115
O O11 0.430565 0.227949 0.750000
O O12 0.500000 0.215307 0.504678
O O13 0.369807 0.202188 0.506445
O O14 0.131356 0.411870 0.250000
O O15 0.063650 0.433316 0.004988
O O16 0.144349 0.374702 0.975812
O O17 0.180778 0.324646 0.750000
O O18 0.000000 0.453985 0.250000
O O19 0.000000 0.500000 0.000000
#
# Coordination Sequence:
#
# PCOD9470371 Si02
#       7
#    16  16  16  16  16  16   8
#     4   8  15  31  55  78  97 125 165 201 240 294
#     4  10  19  32  51  73  98 128 162 199 242 292
#     4   9  18  33  52  75 102 128 159 202 247 292
#     4   9  18  32  50  70  95 131 172 209 242 285
#     4   9  19  33  47  65  91 126 165 203 242 287
#     4  10  20  31  45  70 101 130 162 202 249 291
#     4  10  20  32  46  64  86 116 158 204 248 288
#
# _framework density 17.664881000000001
#
# number of rings (size 3 to 8) (size 9 to 14) (size 15 to 20)
#    0.000    2.769    0.000    2.308    1.077    2.769 
#    0.000    0.769    0.000    1.846    0.000    0.000 
#    0.000    0.000    0.000    0.000    0.000    0.000 
#
# Total GULP energy -289712.553277 kJ/mol
# GULP energy per Si atom -5571.395255 kJ/mol
# Density = 1.762468 g / cm^3
# Si number density = 17.664881 Si / 1000 Ang^3
#
#
#
# Elastic Constant Matrix: (Units=GPa)
#
#
# Indices 1 2 3 4 5 6 
#
# 1 168.0594 94.1879 22.6206 0.0000 0.0000 0.0000
# 2 94.1879 95.2846 19.0365 0.0000 0.0000 0.0000
# 3 22.6206 19.0365 8.5141 0.0000 0.0000 0.0000
# 4 0.0000 0.0000 0.0000 19.4922 0.0000 0.0000
# 5 0.0000 0.0000 0.0000 0.0000 15.4667 0.0000
# 6 0.0000 0.0000 0.0000 0.0000 0.0000 13.5703
#
#
#
# Elastic Compliance Matrix: (Units=1/GPa)
#
#
# Indices 1 2 3 4 5 6 
#
# 1 0.013911 -0.011507 -0.011231 0.000000 0.000000 0.000000
# 2 -0.011507 0.028486 -0.033120 0.000000 0.000000 0.000000
# 3 -0.011231 -0.033120 0.221342 0.000000 0.000000 0.000000
# 4 0.000000 0.000000 0.000000 0.051302 0.000000 0.000000
# 5 0.000000 0.000000 0.000000 0.000000 0.064655 0.000000
# 6 0.000000 0.000000 0.000000 0.000000 0.000000 0.073690
#
#
# Mechanical properties :
#
#
# Convention : Reuss Voigt Hill
#
# Bulk Modulus (GPa) = 6.57788 60.39424 33.48606
# Shear Modulus (GPa) = 8.11981 18.77339 13.44660
#
# Velocity S-wave (km/s) = 2.14629 3.26352 2.76199
# Velocity P-wave (km/s) = 3.14227 6.96160 5.40082
#
# Compressibility (1/GPa) = 0.15202473
#
# Stress axis : x y z
#
# Youngs Moduli (GPa) = 71.88519 35.10437 4.51789
#
# Poissons Ratio (x) = 0.40395 0.05074
# Poissons Ratio (y) = 0.82720 0.14963
# Poissons Ratio (z) = 0.80732 1.16264
#
# Static dielectric constant tensor:
#      x y z
#    x 1.624050 0.000000 0.000000 
#    y 0.000000 1.575230 0.000000 
#    z 0.000000 0.000000 1.608430 
# 
# From -- ./inp_files/9162.got.cif
#   From: 2010.05.17/outbox.cif.g08.bks.cpg/sg63_5_cif.got.tgz:9162.got - 2010.06.03 15:47:04.
