data_PCOD9470696
_publ_section_title
;
Structure prediction by ZEFSAII (Michael W. Deem and Ramdas Pophale) SiO2 
 PCOD9470696
Probable space group: C M C M
;
_chemical_formula_sum "Si O2"
_cell_formula_units_Z 64
_cell_length_a 11.014612
_cell_length_b 16.927637
_cell_length_c 18.276813
_cell_angle_alpha 90.000000
_cell_angle_beta 90.000000
_cell_angle_gamma 90.000000
_cell_volume 3407.736524
_symmetry_space_group_name_H-M "C M C M"
_symmetry_group_IT_number 63
_symmetry_cell_setting 'orthorhombic'
loop_
_space_group_symop_operation_xyz
x,y,z
-x,-y,1/2+z
x,-y,-z
-x,y,1/2-z
-x,-y,-z
x,y,1/2-z
-x,y,z
x,-y,1/2+z
1/2+x,1/2+y,z
1/2-x,1/2-y,1/2+z
1/2+x,1/2-y,-z
1/2-x,1/2+y,1/2-z
1/2-x,1/2-y,-z
1/2+x,1/2+y,1/2-z
1/2-x,1/2+y,z
1/2+x,1/2-y,1/2+z
loop_
_atom_site_type_symbol
_atom_site_label
_atom_site_fract_x
_atom_site_fract_y
_atom_site_fract_z
Si Si1 0.644854 0.193679 0.403697
Si Si2 0.000000 0.140209 0.396869
Si Si3 0.693745 0.644217 0.983255
Si Si4 0.500000 0.736814 0.250000
Si Si5 0.500000 0.547023 0.601845
Si Si6 0.500000 0.647544 0.750000
Si Si7 0.227394 0.732779 0.250000
O O1 0.500000 0.194566 0.394426
O O2 0.687100 0.281545 0.429003
O O3 0.679974 0.137564 0.473006
O O4 0.705196 0.181546 0.323872
O O5 0.111790 0.165369 0.446733
O O6 0.000000 0.182887 0.321060
O O7 0.000000 0.046126 0.388181
O O8 0.620186 0.574449 0.943289
O O9 0.362415 0.772251 0.250000
O O10 0.500000 0.593738 0.677824
O O11 0.380111 0.702344 0.750000
#
# Coordination Sequence:
#
# PCOD9470696 Si02
#       7
#    16   8  16   4   8   4   8
#     4  11  19  32  56  80 113 148 181 242 280 349
#     4  11  21  37  55  79 119 143 183 237 272 335
#     4  10  19  33  52  84 109 137 187 228 290 320
#     4  12  25  36  54  98 105 150 184 238 298 330
#     4  11  21  37  59  79 115 151 189 229 276 339
#     4  12  21  40  58  90 105 158 192 218 290 358
#     4  12  20  36  56  78 126 134 190 238 284 340
#
# _framework density 18.780792999999999
#
# number of rings (size 3 to 8) (size 9 to 14) (size 15 to 20)
#    0.000    1.000    8.750    1.875    0.000    0.000 
#    0.000    0.000    0.000    3.000    0.000    1.750 
#    0.000    0.000    0.000    0.000    0.000    0.000 
#
# Total GULP energy -178177.358641 kJ/mol
# GULP energy per Si atom -5568.042458 kJ/mol
# Density = 1.873805 g / cm^3
# Si number density = 18.780793 Si / 1000 Ang^3
#
#
#
# Elastic Constant Matrix: (Units=GPa)
#
#
# Indices 1 2 3 4 5 6 
#
# 1 115.1291 10.3749 24.4545 0.0000 0.0000 0.0000
# 2 10.3749 45.9936 11.3926 0.0000 0.0000 0.0000
# 3 24.4545 11.3926 130.9902 0.0000 0.0000 0.0000
# 4 0.0000 0.0000 0.0000 17.4254 0.0000 0.0000
# 5 0.0000 0.0000 0.0000 0.0000 3.4863 0.0000
# 6 0.0000 0.0000 0.0000 0.0000 0.0000 -153.6942
#
#
#
# Elastic Compliance Matrix: (Units=1/GPa)
#
#
# Indices 1 2 3 4 5 6 
#
# 1 0.009170 -0.001681 -0.001566 0.000000 0.000000 0.000000
# 2 -0.001681 0.022529 -0.001646 0.000000 0.000000 0.000000
# 3 -0.001566 -0.001646 0.008070 0.000000 0.000000 0.000000
# 4 0.000000 0.000000 0.000000 0.057387 0.000000 0.000000
# 5 0.000000 0.000000 0.000000 0.000000 0.286834 0.000000
# 6 0.000000 0.000000 0.000000 0.000000 0.000000 -0.006506
#
#
# Mechanical properties :
#
#
# Convention : Reuss Voigt Hill
#
# Bulk Modulus (GPa) = 33.35077 42.72855 38.03966
# Shear Modulus (GPa) = 12.58615 -10.16375 1.21120
#
# Velocity S-wave (km/s) = 2.59155 -2.32885 0.80394
# Velocity P-wave (km/s) = 5.17217 3.94578 4.60003
#
# Compressibility (1/GPa) = 0.02998431
#
# Stress axis : x y z
#
# Youngs Moduli (GPa) = 109.05204 44.38745 123.92195
#
# Poissons Ratio (x) = 0.07460 0.19403
# Poissons Ratio (y) = 0.18328 0.20393
# Poissons Ratio (z) = 0.17075 0.07305
#
# Static dielectric constant tensor:
#      x y z
#    x 1.882160 0.000000 0.000000 
#    y 0.000000 1.626870 0.000000 
#    z 0.000000 0.000000 1.709360 
# 
# From -- ./inp_files/41809.got.cif
#   From: 2010.05.17/outbox.cif.g08.bks.cpg/sg63_21_cif.got.tgz:41809.got - 2010.06.03 15:47:04.
