data_PCOD9470118
_publ_section_title
;
Structure prediction by ZEFSAII (Michael W. Deem and Ramdas Pophale) SiO2 
 PCOD9470118
Probable space group: C M C M
;
_chemical_formula_sum "Si O2"
_cell_formula_units_Z 96
_cell_length_a 23.781098
_cell_length_b 26.478164
_cell_length_c 8.598469
_cell_angle_alpha 90.000000
_cell_angle_beta 90.000000
_cell_angle_gamma 90.000000
_cell_volume 5414.282352
_symmetry_space_group_name_H-M "C M C M"
_symmetry_group_IT_number 63
_symmetry_cell_setting 'orthorhombic'
loop_
_space_group_symop_operation_xyz
x,y,z
-x,-y,1/2+z
x,-y,-z
-x,y,1/2-z
-x,-y,-z
x,y,1/2-z
-x,y,z
x,-y,1/2+z
1/2+x,1/2+y,z
1/2-x,1/2-y,1/2+z
1/2+x,1/2-y,-z
1/2-x,1/2+y,1/2-z
1/2-x,1/2-y,-z
1/2+x,1/2+y,1/2-z
1/2-x,1/2+y,z
1/2+x,1/2-y,1/2+z
loop_
_atom_site_type_symbol
_atom_site_label
_atom_site_fract_x
_atom_site_fract_y
_atom_site_fract_z
Si Si1 0.564646 0.748269 0.437237
Si Si2 0.868531 0.848291 0.068804
Si Si3 0.317462 0.444360 0.564717
Si Si4 0.241964 0.195125 0.069049
Si Si5 0.354714 0.158191 0.564275
Si Si6 0.308326 0.054422 0.565997
O O1 0.565960 0.744605 0.250000
O O2 0.500000 0.751204 0.488815
O O3 0.593330 0.697089 0.501177
O O4 0.597514 0.800605 0.475789
O O5 0.880560 0.853787 0.250000
O O6 0.863691 0.903431 0.990374
O O7 0.805430 0.829338 0.036619
O O8 0.330356 0.500000 0.500000
O O9 0.315780 0.444474 0.750000
O O10 0.253302 0.432741 0.506744
O O11 0.224709 0.194594 0.250000
O O12 0.250000 0.250000 0.000000
O O13 0.302052 0.170802 0.043463
O O14 0.342312 0.166078 0.750000
O O15 0.356002 0.097502 0.543592
O O16 0.298382 0.050151 0.750000
O O17 0.324900 0.000000 0.500000
#
# Coordination Sequence:
#
# PCOD9470118 Si02
#       6
#    16  16  16  16  16  16
#     4  10  22  40  60  81 106 142 189 238 286 335
#     4  12  23  36  55  81 114 149 185 227 275 334
#     4  11  21  34  53  80 115 151 186 222 270 328
#     4  12  22  32  50  79 112 146 180 221 276 337
#     4  10  20  34  54  78 110 146 183 227 277 334
#     4  10  19  31  49  76 112 149 184 222 270 329
#
# _framework density 17.730882000000001
#
# number of rings (size 3 to 8) (size 9 to 14) (size 15 to 20)
#    0.000    1.167    3.333    6.000    0.000    1.000 
#    0.000    0.000    0.000    1.000    0.000    0.000 
#    0.000    0.000    0.000    0.000    0.000    0.667 
#
# Total GULP energy -267477.361488 kJ/mol
# GULP energy per Si atom -5572.445031 kJ/mol
# Density = 1.769053 g / cm^3
# Si number density = 17.730882 Si / 1000 Ang^3
#
#
#
# Elastic Constant Matrix: (Units=GPa)
#
#
# Indices 1 2 3 4 5 6 
#
# 1 80.9622 58.5071 25.5427 0.0000 0.0000 0.0000
# 2 58.5071 166.3845 47.2568 0.0000 0.0000 0.0000
# 3 25.5427 47.2568 75.1075 0.0000 0.0000 0.0000
# 4 0.0000 0.0000 0.0000 1.6147 0.0000 0.0000
# 5 0.0000 0.0000 0.0000 0.0000 14.3306 0.0000
# 6 0.0000 0.0000 0.0000 0.0000 0.0000 3.9116
#
#
#
# Elastic Compliance Matrix: (Units=1/GPa)
#
#
# Indices 1 2 3 4 5 6 
#
# 1 0.016921 -0.005255 -0.002448 0.000000 0.000000 0.000000
# 2 -0.005255 0.008950 -0.003844 0.000000 0.000000 0.000000
# 3 -0.002448 -0.003844 0.016565 0.000000 0.000000 0.000000
# 4 0.000000 0.000000 0.000000 0.619303 0.000000 0.000000
# 5 0.000000 0.000000 0.000000 0.000000 0.069781 0.000000
# 6 0.000000 0.000000 0.000000 0.000000 0.000000 0.255648
#
#
# Mechanical properties :
#
#
# Convention : Reuss Voigt Hill
#
# Bulk Modulus (GPa) = 51.70051 65.00747 58.35399
# Shear Modulus (GPa) = 4.91783 16.71457 10.81620
#
# Velocity S-wave (km/s) = 1.66722 3.07364 2.47254
# Velocity P-wave (km/s) = 5.73828 7.02420 6.41355
#
# Compressibility (1/GPa) = 0.01934217
#
# Stress axis : x y z
#
# Youngs Moduli (GPa) = 59.09752 111.73526 60.36643
#
# Poissons Ratio (x) = 0.58714 0.14780
# Poissons Ratio (y) = 0.31054 0.23205
# Poissons Ratio (z) = 0.14469 0.42951
#
# Static dielectric constant tensor:
#      x y z
#    x 1.594160 0.000000 0.000000 
#    y 0.000000 1.655350 0.000000 
#    z 0.000000 0.000000 1.588770 
# 
# From -- ./inp_files/8627.got.cif
#   From: 2010.05.17/outbox.cif.g08.bks.cpg/sg63_5_cif.got.tgz:8627.got - 2010.06.03 15:47:04.
