data_PCOD9470837
_publ_section_title
;
Structure prediction by ZEFSAII (Michael W. Deem and Ramdas Pophale) SiO2 
 PCOD9470837
Probable space group: C M C M
;
_chemical_formula_sum "Si O2"
_cell_formula_units_Z 80
_cell_length_a 7.365669
_cell_length_b 25.812906
_cell_length_c 18.207621
_cell_angle_alpha 90.000000
_cell_angle_beta 90.000000
_cell_angle_gamma 90.000000
_cell_volume 3461.802627
_symmetry_space_group_name_H-M "C M C M"
_symmetry_group_IT_number 63
_symmetry_cell_setting 'orthorhombic'
loop_
_space_group_symop_operation_xyz
x,y,z
-x,-y,1/2+z
x,-y,-z
-x,y,1/2-z
-x,-y,-z
x,y,1/2-z
-x,y,z
x,-y,1/2+z
1/2+x,1/2+y,z
1/2-x,1/2-y,1/2+z
1/2+x,1/2-y,-z
1/2-x,1/2+y,1/2-z
1/2-x,1/2-y,-z
1/2+x,1/2+y,1/2-z
1/2-x,1/2+y,z
1/2+x,1/2-y,1/2+z
loop_
_atom_site_type_symbol
_atom_site_label
_atom_site_fract_x
_atom_site_fract_y
_atom_site_fract_z
Si Si1 0.707355 0.638639 0.103267
Si Si2 0.213072 0.974381 0.574591
Si Si3 0.221812 0.757302 0.668363
Si Si4 0.779666 0.666446 0.938622
Si Si5 0.218737 0.426610 0.332754
O O1 0.500000 0.631739 0.129442
O O2 0.790661 0.581385 0.097128
O O3 0.786562 0.684492 0.152447
O O4 0.708146 0.661046 0.020585
O O5 0.000000 0.964626 0.559125
O O6 0.290046 0.000000 0.500000
O O7 0.229586 0.017026 0.637604
O O8 0.273760 0.739787 0.750000
O O9 0.278555 0.717559 0.605202
O O10 0.000000 0.757750 0.666209
O O11 0.721326 0.616858 0.890498
O O12 0.000000 0.666314 0.942905
O O13 0.283133 0.417244 0.250000
O O14 0.000000 0.423982 0.331511
#
# Coordination Sequence:
#
# PCOD9470837 Si02
#       5
#    16  16  16  16  16
#     4  10  20  34  55  79 104 136 176 217 257 310
#     4  10  20  35  53  76 107 141 176 216 259 307
#     4   9  18  33  53  77 104 135 173 216 260 308
#     4  10  19  33  55  79 104 135 171 215 263 312
#     4  10  21  35  53  79 107 137 175 217 263 314
#
# _framework density 23.109349000000002
#
# number of rings (size 3 to 8) (size 9 to 14) (size 15 to 20)
#    0.000    2.200    2.000    1.200    0.000    4.800 
#    0.000    2.000    0.000    3.600    0.000    0.000 
#    0.000    0.000    0.000    0.000    0.000    0.000 
#
# Total GULP energy -223585.591316 kJ/mol
# GULP energy per Si atom -5589.639783 kJ/mol
# Density = 2.305675 g / cm^3
# Si number density = 23.109349 Si / 1000 Ang^3
#
#
#
# Elastic Constant Matrix: (Units=GPa)
#
#
# Indices 1 2 3 4 5 6 
#
# 1 85.4368 -0.9409 -15.2028 0.0000 0.0000 0.0000
# 2 -0.9409 115.0303 -12.7809 0.0000 0.0000 0.0000
# 3 -15.2028 -12.7809 40.8893 0.0000 0.0000 0.0000
# 4 0.0000 0.0000 0.0000 -24.6200 0.0000 0.0000
# 5 0.0000 0.0000 0.0000 0.0000 14.0513 0.0000
# 6 0.0000 0.0000 0.0000 0.0000 0.0000 -7.2190
#
#
#
# Elastic Compliance Matrix: (Units=1/GPa)
#
#
# Indices 1 2 3 4 5 6 
#
# 1 0.012580 0.000645 0.004879 0.000000 0.000000 0.000000
# 2 0.000645 0.009039 0.003065 0.000000 0.000000 0.000000
# 3 0.004879 0.003065 0.027228 0.000000 0.000000 0.000000
# 4 0.000000 0.000000 0.000000 -0.040617 0.000000 0.000000
# 5 0.000000 0.000000 0.000000 0.000000 0.071168 0.000000
# 6 0.000000 0.000000 0.000000 0.000000 0.000000 -0.138524
#
#
# Mechanical properties :
#
#
# Convention : Reuss Voigt Hill
#
# Bulk Modulus (GPa) = 15.14569 20.38970 17.76770
# Shear Modulus (GPa) = -92.08791 14.46120 -38.81335
#
# Velocity S-wave (km/s) = -6.31944 2.50426 -4.10268
# Velocity P-wave (km/s) = 6.83219 4.14778 3.83893
#
# Compressibility (1/GPa) = 0.06602537
#
# Stress axis : x y z
#
# Youngs Moduli (GPa) = 79.49245 110.62915 36.72645
#
# Poissons Ratio (x) = -0.07135 -0.17918
# Poissons Ratio (y) = -0.05127 -0.11257
# Poissons Ratio (z) = -0.38783 -0.33910
#
# Static dielectric constant tensor:
#      x y z
#    x 1.878580 0.000000 0.000000 
#    y 0.000000 1.854700 0.000000 
#    z 0.000000 0.000000 1.803660 
# 
# From -- ./inp_files/29688.got.cif
#   From: 2010.05.17/outbox.cif.g08.bks.cpg/sg63_15_cif.got.tgz:29688.got - 2010.06.03 15:47:04.
