data_PCOD9470033
_publ_section_title
;
Structure prediction by ZEFSAII (Michael W. Deem and Ramdas Pophale) SiO2 
 PCOD9470033
Probable space group: C M C M
;
_chemical_formula_sum "Si O2"
_cell_formula_units_Z 96
_cell_length_a 22.861414
_cell_length_b 21.284191
_cell_length_c 8.838584
_cell_angle_alpha 90.000000
_cell_angle_beta 90.000000
_cell_angle_gamma 90.000000
_cell_volume 4300.737440
_symmetry_space_group_name_H-M "C M C M"
_symmetry_group_IT_number 63
_symmetry_cell_setting 'orthorhombic'
loop_
_space_group_symop_operation_xyz
x,y,z
-x,-y,1/2+z
x,-y,-z
-x,y,1/2-z
-x,-y,-z
x,y,1/2-z
-x,y,z
x,-y,1/2+z
1/2+x,1/2+y,z
1/2-x,1/2-y,1/2+z
1/2+x,1/2-y,-z
1/2-x,1/2+y,1/2-z
1/2-x,1/2-y,-z
1/2+x,1/2+y,1/2-z
1/2-x,1/2+y,z
1/2+x,1/2-y,1/2+z
loop_
_atom_site_type_symbol
_atom_site_label
_atom_site_fract_x
_atom_site_fract_y
_atom_site_fract_z
Si Si1 0.588412 0.064574 0.928364
Si Si2 0.686149 0.758945 0.581350
Si Si3 0.176997 0.930381 0.428844
Si Si4 0.063408 0.929630 0.570223
Si Si5 0.204602 0.595672 0.081956
Si Si6 0.934148 0.289502 0.067104
O O1 0.580100 0.060257 0.750000
O O2 0.567589 0.135104 0.974162
O O3 0.656665 0.065147 0.974677
O O4 0.564261 0.000000 0.000000
O O5 0.686917 0.728655 0.750000
O O6 0.750000 0.750000 0.500000
O O7 0.685037 0.833519 0.601495
O O8 0.622802 0.752115 0.497456
O O9 0.178323 0.933691 0.250000
O O10 0.117894 0.898608 0.488255
O O11 0.233658 0.900346 0.500265
O O12 0.177624 0.000000 0.500000
O O13 0.073763 0.934646 0.750000
O O14 0.000000 0.899714 0.546552
O O15 0.059892 0.000000 0.500000
O O16 0.208640 0.565890 0.250000
O O17 0.929388 0.286827 0.250000
O O18 0.000000 0.267038 0.024656
#
# Coordination Sequence:
#
# PCOD9470033 Si02
#       6
#    16  16  16  16  16  16
#     4  10  19  31  48  73 108 149 189 226 266 313
#     4  10  21  37  60  85 108 137 174 222 276 330
#     4  11  20  29  44  66  94 128 163 202 248 299
#     4   9  16  26  40  58  82 114 153 195 237 285
#     4  10  20  34  50  71  99 131 170 213 259 311
#     4   9  19  36  57  82 114 151 190 232 278 330
#
# _framework density 22.321753999999999
#
# number of rings (size 3 to 8) (size 9 to 14) (size 15 to 20)
#    0.000    2.167    0.000    5.000    0.000    4.333 
#    0.000    0.000    0.000    1.000    0.000    7.000 
#    0.000    0.000    0.000    0.000    0.000    0.000 
#
# Total GULP energy -267441.543049 kJ/mol
# GULP energy per Si atom -5571.698814 kJ/mol
# Density = 2.227095 g / cm^3
# Si number density = 22.321754 Si / 1000 Ang^3
#
#
#
# Elastic Constant Matrix: (Units=GPa)
#
#
# Indices 1 2 3 4 5 6 
#
# 1 194.9683 3.1518 59.4392 0.0000 0.0000 0.0000
# 2 3.1518 59.9208 8.0271 0.0000 0.0000 0.0000
# 3 59.4392 8.0271 101.1688 0.0000 0.0000 0.0000
# 4 0.0000 0.0000 0.0000 15.9742 0.0000 0.0000
# 5 0.0000 0.0000 0.0000 0.0000 29.9114 0.0000
# 6 0.0000 0.0000 0.0000 0.0000 0.0000 45.0242
#
#
#
# Elastic Compliance Matrix: (Units=1/GPa)
#
#
# Indices 1 2 3 4 5 6 
#
# 1 0.006250 0.000165 -0.003685 0.000000 0.000000 0.000000
# 2 0.000165 0.016872 -0.001436 0.000000 0.000000 0.000000
# 3 -0.003685 -0.001436 0.012163 0.000000 0.000000 0.000000
# 4 0.000000 0.000000 0.000000 0.062601 0.000000 0.000000
# 5 0.000000 0.000000 0.000000 0.000000 0.033432 0.000000
# 6 0.000000 0.000000 0.000000 0.000000 0.000000 0.022210
#
#
# Mechanical properties :
#
#
# Convention : Reuss Voigt Hill
#
# Bulk Modulus (GPa) = 39.41016 55.25490 47.33253
# Shear Modulus (GPa) = 29.08696 37.21127 33.14911
#
# Velocity S-wave (km/s) = 3.61373 4.08737 3.85783
# Velocity P-wave (km/s) = 5.92502 6.86171 6.41050
#
# Compressibility (1/GPa) = 0.02537417
#
# Stress axis : x y z
#
# Youngs Moduli (GPa) = 160.00503 59.26860 82.21380
#
# Poissons Ratio (x) = -0.00977 0.30296
# Poissons Ratio (y) = -0.02639 0.11803
# Poissons Ratio (z) = 0.58962 0.08509
#
# Static dielectric constant tensor:
#      x y z
#    x 1.910560 0.000000 0.000000 
#    y 0.000000 1.604200 0.000000 
#    z 0.000000 0.000000 1.813080 
# 
# From -- ./inp_files/10719.got.cif
#   From: 2010.05.17/outbox.cif.g08.bks.cpg/sg63_6_cif.got.tgz:10719.got - 2010.06.03 15:47:04.
