data_PCOD9470701
_publ_section_title
;
Structure prediction by ZEFSAII (Michael W. Deem and Ramdas Pophale) SiO2 
 PCOD9470701
Probable space group: C M C M
;
_chemical_formula_sum "Si O2"
_cell_formula_units_Z 112
_cell_length_a 21.242972
_cell_length_b 12.305922
_cell_length_c 22.215231
_cell_angle_alpha 90.000000
_cell_angle_beta 90.000000
_cell_angle_gamma 90.000000
_cell_volume 5807.380316
_symmetry_space_group_name_H-M "C M C M"
_symmetry_group_IT_number 63
_symmetry_cell_setting 'orthorhombic'
loop_
_space_group_symop_operation_xyz
x,y,z
-x,-y,1/2+z
x,-y,-z
-x,y,1/2-z
-x,-y,-z
x,y,1/2-z
-x,y,z
x,-y,1/2+z
1/2+x,1/2+y,z
1/2-x,1/2-y,1/2+z
1/2+x,1/2-y,-z
1/2-x,1/2+y,1/2-z
1/2-x,1/2-y,-z
1/2+x,1/2+y,1/2-z
1/2-x,1/2+y,z
1/2+x,1/2-y,1/2+z
loop_
_atom_site_type_symbol
_atom_site_label
_atom_site_fract_x
_atom_site_fract_y
_atom_site_fract_z
Si Si1 0.928204 0.093712 0.905461
Si Si2 0.668750 0.293899 0.018397
Si Si3 0.706368 0.140233 0.575523
Si Si4 0.928783 0.695965 0.179697
Si Si5 0.208192 0.209136 0.179780
Si Si6 0.072930 0.108158 0.319438
Si Si7 0.682025 0.096066 0.387197
O O1 0.885537 0.125535 0.961606
O O2 0.921689 0.193356 0.858170
O O3 0.000000 0.088278 0.925245
O O4 0.914149 0.985653 0.868015
O O5 0.733257 0.357740 0.031674
O O6 0.672052 0.191205 0.063925
O O7 0.664709 0.236915 0.953782
O O8 0.723744 0.182339 0.642094
O O9 0.679779 0.020668 0.581694
O O10 0.922549 0.719969 0.250000
O O11 0.875228 0.613060 0.158962
O O12 0.000000 0.654999 0.168553
O O13 0.225586 0.215611 0.250000
O O14 0.133098 0.187401 0.176706
O O15 0.251634 0.118559 0.146651
O O16 0.074079 0.065793 0.250000
O O17 0.000000 0.147816 0.328620
#
# Coordination Sequence:
#
# PCOD9470701 Si02
#       7
#    16  16  16  16  16  16  16
#     4   9  16  29  51  76 100 126 160 205 251 289
#     4   9  19  34  52  75  98 125 163 204 246 293
#     4  10  20  35  53  71  98 132 163 199 246 297
#     4   9  17  29  46  72 103 130 160 200 245 291
#     4  10  21  34  50  75 101 126 163 207 245 288
#     4   9  17  31  51  74 102 135 166 198 243 296
#     4  10  19  33  53  74  97 129 167 206 244 287
#
# _framework density 19.285803999999999
#
# number of rings (size 3 to 8) (size 9 to 14) (size 15 to 20)
#    0.000    2.571    0.000    2.143    0.000    2.857 
#    0.000    7.857    0.000    6.857    0.000    0.000 
#    0.000    0.000    0.000    0.000    0.000    0.000 
#
# Total GULP energy -312086.709638 kJ/mol
# GULP energy per Si atom -5572.976958 kJ/mol
# Density = 1.924191 g / cm^3
# Si number density = 19.285804 Si / 1000 Ang^3
#
#
#
# Elastic Constant Matrix: (Units=GPa)
#
#
# Indices 1 2 3 4 5 6 
#
# 1 54.9405 6.5016 3.5039 0.0000 0.0000 0.0000
# 2 6.5016 27.5400 -6.5570 0.0000 0.0000 0.0000
# 3 3.5039 -6.5570 57.9949 0.0000 0.0000 0.0000
# 4 0.0000 0.0000 0.0000 21.7068 0.0000 0.0000
# 5 0.0000 0.0000 0.0000 0.0000 30.0709 0.0000
# 6 0.0000 0.0000 0.0000 0.0000 0.0000 17.1825
#
#
#
# Elastic Compliance Matrix: (Units=1/GPa)
#
#
# Indices 1 2 3 4 5 6 
#
# 1 0.018885 -0.004861 -0.001691 0.000000 0.000000 0.000000
# 2 -0.004861 0.038566 0.004654 0.000000 0.000000 0.000000
# 3 -0.001691 0.004654 0.017871 0.000000 0.000000 0.000000
# 4 0.000000 0.000000 0.000000 0.046068 0.000000 0.000000
# 5 0.000000 0.000000 0.000000 0.000000 0.033255 0.000000
# 6 0.000000 0.000000 0.000000 0.000000 0.000000 0.058199
#
#
# Mechanical properties :
#
#
# Convention : Reuss Voigt Hill
#
# Bulk Modulus (GPa) = 13.98058 16.37472 15.17765
# Shear Modulus (GPa) = 20.79167 22.92719 21.85943
#
# Velocity S-wave (km/s) = 3.28698 3.45166 3.37032
# Velocity P-wave (km/s) = 4.65516 4.93905 4.79920
#
# Compressibility (1/GPa) = 0.07152780
#
# Stress axis : x y z
#
# Youngs Moduli (GPa) = 52.95342 25.92930 55.95587
#
# Poissons Ratio (x) = 0.12604 0.09459
# Poissons Ratio (y) = 0.25739 -0.26042
# Poissons Ratio (z) = 0.08952 -0.12068
#
# Static dielectric constant tensor:
#      x y z
#    x 1.713750 0.000000 0.000000 
#    y 0.000000 1.653810 0.000000 
#    z 0.000000 0.000000 1.697610 
# 
# From -- ./inp_files/57613.got.cif
#   From: 2010.05.17/outbox.cif.g08.bks.cpg/sg63_29_cif.got.tgz:57613.got - 2010.06.03 15:47:04.
