data_PCOD9470206
_publ_section_title
;
Structure prediction by ZEFSAII (Michael W. Deem and Ramdas Pophale) SiO2 
 PCOD9470206
Probable space group: C M C M
;
_chemical_formula_sum "Si O2"
_cell_formula_units_Z 100
_cell_length_a 15.215084
_cell_length_b 21.152128
_cell_length_c 15.430941
_cell_angle_alpha 90.000000
_cell_angle_beta 90.000000
_cell_angle_gamma 90.000000
_cell_volume 4966.161412
_symmetry_space_group_name_H-M "C M C M"
_symmetry_group_IT_number 63
_symmetry_cell_setting 'orthorhombic'
loop_
_space_group_symop_operation_xyz
x,y,z
-x,-y,1/2+z
x,-y,-z
-x,y,1/2-z
-x,-y,-z
x,y,1/2-z
-x,y,z
x,-y,1/2+z
1/2+x,1/2+y,z
1/2-x,1/2-y,1/2+z
1/2+x,1/2-y,-z
1/2-x,1/2+y,1/2-z
1/2-x,1/2-y,-z
1/2+x,1/2+y,1/2-z
1/2-x,1/2+y,z
1/2+x,1/2-y,1/2+z
loop_
_atom_site_type_symbol
_atom_site_label
_atom_site_fract_x
_atom_site_fract_y
_atom_site_fract_z
Si Si1 0.639001 0.469612 0.650743
Si Si2 0.106627 0.177866 0.347609
Si Si3 0.836305 0.486812 0.897943
Si Si4 0.892457 0.283927 0.481612
Si Si5 0.102603 0.382280 0.342411
Si Si6 0.106169 0.345714 0.653123
Si Si7 0.000000 0.000000 0.000000
O O1 0.611131 0.483283 0.750000
O O2 0.640508 0.393212 0.642215
O O3 0.737119 0.493517 0.635292
O O4 0.575765 0.495319 0.576624
O O5 0.128889 0.200846 0.250000
O O6 0.134879 0.222945 0.426180
O O7 0.000000 0.174249 0.350868
O O8 0.890695 0.543060 0.854640
O O9 0.869423 0.416967 0.874638
O O10 0.840567 0.500000 0.000000
O O11 0.862311 0.343931 0.424234
O O12 0.862715 0.296648 0.579606
O O13 0.000000 0.282380 0.484889
O O14 0.143228 0.364345 0.250000
O O15 0.000000 0.364790 0.339028
O O16 0.140147 0.333489 0.750000
O O17 0.000000 0.342585 0.655454
#
# Coordination Sequence:
#
# PCOD9470206 Si02
#       7
#    16  16  16  16  16  16   4
#     4  11  23  40  62  87 115 147 187 241 296 350
#     4   9  17  33  58  84 107 139 184 236 293 342
#     4  12  22  35  54  80 116 153 193 237 287 340
#     4   9  17  30  52  82 111 142 185 238 277 331
#     4  10  19  31  51  81 118 154 186 227 281 340
#     4  10  20  34  53  78 114 163 201 228 271 335
#     4  12  22  40  64  90 110 140 186 238 296 356
#
# _framework density 20.136277
#
# number of rings (size 3 to 8) (size 9 to 14) (size 15 to 20)
#    0.000    1.760    3.200    2.640    0.000    3.840 
#    0.000    0.800    0.000    1.920    0.000    0.000 
#    0.000    0.000    0.000    0.000    0.000    0.000 
#
# Total GULP energy -278509.150669 kJ/mol
# GULP energy per Si atom -5570.183013 kJ/mol
# Density = 2.009045 g / cm^3
# Si number density = 20.136277 Si / 1000 Ang^3
#
#
#
# Elastic Constant Matrix: (Units=GPa)
#
#
# Indices 1 2 3 4 5 6 
#
# 1 27.0047 2.9156 19.4769 0.0000 0.0000 0.0000
# 2 2.9156 17.1547 31.9805 0.0000 0.0000 0.0000
# 3 19.4769 31.9805 204.2140 0.0000 0.0000 0.0000
# 4 0.0000 0.0000 0.0000 24.7455 0.0000 0.0000
# 5 0.0000 0.0000 0.0000 0.0000 15.2542 0.0000
# 6 0.0000 0.0000 0.0000 0.0000 0.0000 14.4056
#
#
#
# Elastic Compliance Matrix: (Units=1/GPa)
#
#
# Indices 1 2 3 4 5 6 
#
# 1 0.039768 0.000441 -0.003862 0.000000 0.000000 0.000000
# 2 0.000441 0.082334 -0.012936 0.000000 0.000000 0.000000
# 3 -0.003862 -0.012936 0.007291 0.000000 0.000000 0.000000
# 4 0.000000 0.000000 0.000000 0.040411 0.000000 0.000000
# 5 0.000000 0.000000 0.000000 0.000000 0.065556 0.000000
# 6 0.000000 0.000000 0.000000 0.000000 0.000000 0.069417
#
#
# Mechanical properties :
#
#
# Convention : Reuss Voigt Hill
#
# Bulk Modulus (GPa) = 10.34352 39.67992 25.01172
# Shear Modulus (GPa) = 13.52382 23.81441 18.66912
#
# Velocity S-wave (km/s) = 2.59436 3.44272 3.04820
# Velocity P-wave (km/s) = 3.75795 5.96251 4.98366
#
# Compressibility (1/GPa) = 0.09667891
#
# Stress axis : x y z
#
# Youngs Moduli (GPa) = 25.14557 12.14570 137.15677
#
# Poissons Ratio (x) = -0.00535 0.52969
# Poissons Ratio (y) = -0.01108 1.77422
# Poissons Ratio (z) = 0.09711 0.15711
#
# Static dielectric constant tensor:
#      x y z
#    x 1.706660 0.000000 0.000000 
#    y 0.000000 1.692380 0.000000 
#    z 0.000000 0.000000 1.754280 
# 
# From -- ./inp_files/34167.got.cif
#   From: 2010.05.17/outbox.cif.g08.bks.cpg/sg63_18_cif.got.tgz:34167.got - 2010.06.03 15:47:04.
