data_PCOD9470964
_publ_section_title
;
Structure prediction by ZEFSAII (Michael W. Deem and Ramdas Pophale) SiO2 
 PCOD9470964
Probable space group: C M C M
;
_chemical_formula_sum "Si O2"
_cell_formula_units_Z 96
_cell_length_a 26.041244
_cell_length_b 15.129292
_cell_length_c 15.157990
_cell_angle_alpha 90.000000
_cell_angle_beta 90.000000
_cell_angle_gamma 90.000000
_cell_volume 5972.029550
_symmetry_space_group_name_H-M "C M C M"
_symmetry_group_IT_number 63
_symmetry_cell_setting 'orthorhombic'
loop_
_space_group_symop_operation_xyz
x,y,z
-x,-y,1/2+z
x,-y,-z
-x,y,1/2-z
-x,-y,-z
x,y,1/2-z
-x,y,z
x,-y,1/2+z
1/2+x,1/2+y,z
1/2-x,1/2-y,1/2+z
1/2+x,1/2-y,-z
1/2-x,1/2+y,1/2-z
1/2-x,1/2-y,-z
1/2+x,1/2+y,1/2-z
1/2-x,1/2+y,z
1/2+x,1/2-y,1/2+z
loop_
_atom_site_type_symbol
_atom_site_label
_atom_site_fract_x
_atom_site_fract_y
_atom_site_fract_z
Si Si1 0.738778 0.991195 0.894217
Si Si2 0.632833 0.080495 0.435500
Si Si3 0.060649 0.713209 0.147408
Si Si4 0.317366 0.339662 0.849203
Si Si5 0.141551 0.773682 0.019733
Si Si6 0.266910 0.314366 0.151777
O O1 0.683016 0.947167 0.879967
O O2 0.784162 0.928440 0.860901
O O3 0.743179 0.088343 0.854722
O O4 0.743193 0.000000 0.000000
O O5 0.587011 0.118627 0.375863
O O6 0.647950 0.167485 0.492764
O O7 0.619351 0.000000 0.500000
O O8 0.069917 0.734056 0.250000
O O9 0.091029 0.778389 0.081076
O O10 0.000000 0.711899 0.131580
O O11 0.338420 0.335672 0.750000
O O12 0.276288 0.260039 0.860450
O O13 0.357476 0.325061 0.928009
O O14 0.189795 0.804598 0.077875
O O15 0.289210 0.300999 0.250000
#
# Coordination Sequence:
#
# PCOD9470964 Si02
#       6
#    16  16  16  16  16  16
#     4  11  19  31  49  73 107 145 178 205 253 315
#     4   9  19  31  51  74 104 141 173 214 257 313
#     4   9  19  35  57  79  99 133 180 226 273 315
#     4  11  20  32  48  71 105 142 179 214 253 311
#     4  10  19  34  51  70 104 136 168 217 263 301
#     4  11  21  31  48  73 103 141 178 213 258 309
#
# _framework density 16.074936999999998
#
# number of rings (size 3 to 8) (size 9 to 14) (size 15 to 20)
#    1.000    0.833    3.333    3.500    0.000    1.667 
#    0.000    0.833    0.000    0.500    0.000    2.333 
#    0.000    2.667    0.000    0.000    0.000    0.167 
#
# Total GULP energy -267325.308209 kJ/mol
# GULP energy per Si atom -5569.277254 kJ/mol
# Density = 1.603835 g / cm^3
# Si number density = 16.074937 Si / 1000 Ang^3
#
#
#
# Elastic Constant Matrix: (Units=GPa)
#
#
# Indices 1 2 3 4 5 6 
#
# 1 66.2436 5.9605 43.6292 0.0000 0.0000 0.0000
# 2 5.9605 44.2268 -1.3593 0.0000 0.0000 0.0000
# 3 43.6292 -1.3593 108.6431 0.0000 0.0000 0.0000
# 4 0.0000 0.0000 0.0000 7.2572 0.0000 0.0000
# 5 0.0000 0.0000 0.0000 0.0000 15.3253 0.0000
# 6 0.0000 0.0000 0.0000 0.0000 0.0000 13.7964
#
#
#
# Elastic Compliance Matrix: (Units=1/GPa)
#
#
# Indices 1 2 3 4 5 6 
#
# 1 0.020936 -0.003081 -0.008446 0.000000 0.000000 0.000000
# 2 -0.003081 0.023073 0.001526 0.000000 0.000000 0.000000
# 3 -0.008446 0.001526 0.012615 0.000000 0.000000 0.000000
# 4 0.000000 0.000000 0.000000 0.137794 0.000000 0.000000
# 5 0.000000 0.000000 0.000000 0.000000 0.065252 0.000000
# 6 0.000000 0.000000 0.000000 0.000000 0.000000 0.072482
#
#
# Mechanical properties :
#
#
# Convention : Reuss Voigt Hill
#
# Bulk Modulus (GPa) = 27.30622 35.06381 31.18502
# Shear Modulus (GPa) = 13.72265 18.66799 16.19532
#
# Velocity S-wave (km/s) = 2.92493 3.41150 3.17754
# Velocity P-wave (km/s) = 5.33204 6.11374 5.73622
#
# Compressibility (1/GPa) = 0.03662169
#
# Stress axis : x y z
#
# Youngs Moduli (GPa) = 47.76532 43.34094 79.26889
#
# Poissons Ratio (x) = 0.13354 0.66950
# Poissons Ratio (y) = 0.14717 -0.12096
# Poissons Ratio (z) = 0.40342 -0.06614
#
# Static dielectric constant tensor:
#      x y z
#    x 1.517000 0.000000 0.000000 
#    y 0.000000 1.540760 0.000000 
#    z 0.000000 0.000000 1.575690 
# 
# From -- ./inp_files/38638.got.cif
#   From: 2010.05.17/outbox.cif.g08.bks.cpg/sg63_20_cif.got.tgz:38638.got - 2010.06.03 15:47:04.
