data_PCOD9470389
_publ_section_title
;
Structure prediction by ZEFSAII (Michael W. Deem and Ramdas Pophale) SiO2 
 PCOD9470389
Probable space group: C M C M
;
_chemical_formula_sum "Si O2"
_cell_formula_units_Z 80
_cell_length_a 15.303111
_cell_length_b 31.556574
_cell_length_c 7.339453
_cell_angle_alpha 90.000000
_cell_angle_beta 90.000000
_cell_angle_gamma 90.000000
_cell_volume 3544.322806
_symmetry_space_group_name_H-M "C M C M"
_symmetry_group_IT_number 63
_symmetry_cell_setting 'orthorhombic'
loop_
_space_group_symop_operation_xyz
x,y,z
-x,-y,1/2+z
x,-y,-z
-x,y,1/2-z
-x,-y,-z
x,y,1/2-z
-x,y,z
x,-y,1/2+z
1/2+x,1/2+y,z
1/2-x,1/2-y,1/2+z
1/2+x,1/2-y,-z
1/2-x,1/2+y,1/2-z
1/2-x,1/2-y,-z
1/2+x,1/2+y,1/2-z
1/2-x,1/2+y,z
1/2+x,1/2-y,1/2+z
loop_
_atom_site_type_symbol
_atom_site_label
_atom_site_fract_x
_atom_site_fract_y
_atom_site_fract_z
Si Si1 0.905239 0.058200 0.031517
Si Si2 0.733200 0.799468 0.967786
Si Si3 0.407409 0.341319 0.531062
Si Si4 0.101004 0.370750 0.527329
Si Si5 0.710801 0.046424 0.467294
O O1 0.906162 0.050308 0.250000
O O2 0.905019 0.108613 0.003596
O O3 0.810696 0.044377 0.959246
O O4 0.000000 0.043390 0.959106
O O5 0.730971 0.804520 0.750000
O O6 0.820102 0.821491 0.042364
O O7 0.650246 0.827329 0.031099
O O8 0.750000 0.750000 0.000000
O O9 0.407001 0.334911 0.750000
O O10 0.500000 0.324266 0.462263
O O11 0.100443 0.371480 0.750000
O O12 0.156083 0.412593 0.468815
O O13 0.000000 0.372367 0.469190
O O14 0.718460 0.052222 0.250000
O O15 0.669985 0.000000 0.500000
#
# Coordination Sequence:
#
# PCOD9470389 Si02
#       5
#    16  16  16  16  16
#     4   8  13  24  45  70  93 121 159 198 235 282
#     4  10  19  32  51  75  99 126 161 200 244 294
#     4   8  13  24  45  69  90 116 155 197 230 271
#     4   9  18  34  54  73  98 135 174 206 241 295
#     4  10  19  32  51  75 100 130 169 210 250 294
#
# _framework density 22.571308999999999
#
# number of rings (size 3 to 8) (size 9 to 14) (size 15 to 20)
#    0.000    3.000    2.000    1.200    0.000    1.600 
#    0.000    1.000    0.000    1.200    0.000    2.800 
#    0.000    0.000    0.000    0.000    0.000    0.000 
#
# Total GULP energy -222966.567364 kJ/mol
# GULP energy per Si atom -5574.164184 kJ/mol
# Density = 2.251994 g / cm^3
# Si number density = 22.571309 Si / 1000 Ang^3
#
#
#
# Elastic Constant Matrix: (Units=GPa)
#
#
# Indices 1 2 3 4 5 6 
#
# 1 203.4790 110.9480 10.4210 0.0000 0.0000 0.0000
# 2 110.9480 146.3145 8.4116 0.0000 0.0000 0.0000
# 3 10.4210 8.4116 85.8014 0.0000 0.0000 0.0000
# 4 0.0000 0.0000 0.0000 15.8837 0.0000 0.0000
# 5 0.0000 0.0000 0.0000 0.0000 -17.6502 0.0000
# 6 0.0000 0.0000 0.0000 0.0000 0.0000 -7.2422
#
#
#
# Elastic Compliance Matrix: (Units=1/GPa)
#
#
# Indices 1 2 3 4 5 6 
#
# 1 0.008392 -0.006341 -0.000398 0.000000 0.000000 0.000000
# 2 -0.006341 0.011664 -0.000373 0.000000 0.000000 0.000000
# 3 -0.000398 -0.000373 0.011740 0.000000 0.000000 0.000000
# 4 0.000000 0.000000 0.000000 0.062958 0.000000 0.000000
# 5 0.000000 0.000000 0.000000 0.000000 -0.056657 0.000000
# 6 0.000000 0.000000 0.000000 0.000000 0.000000 -0.138079
#
#
# Mechanical properties :
#
#
# Convention : Reuss Voigt Hill
#
# Bulk Modulus (GPa) = 56.90731 77.23955 67.07343
# Shear Modulus (GPa) = -62.57756 18.58588 -21.99584
#
# Velocity S-wave (km/s) = -5.27111 2.87266 -3.12509
# Velocity P-wave (km/s) = 3.43207 6.73034 4.09379
#
# Compressibility (1/GPa) = 0.01757243
#
# Stress axis : x y z
#
# Youngs Moduli (GPa) = 119.15739 85.73221 85.18086
#
# Poissons Ratio (x) = 0.54362 0.03387
# Poissons Ratio (y) = 0.75556 0.03181
# Poissons Ratio (z) = 0.04738 0.03201
#
# Static dielectric constant tensor:
#      x y z
#    x 1.846120 0.000000 0.000000 
#    y 0.000000 1.837620 0.000000 
#    z 0.000000 0.000000 1.867230 
# 
# From -- ./inp_files/19657.got.cif
#   From: 2010.05.17/outbox.cif.g08.bks.cpg/sg63_10_cif.got.tgz:19657.got - 2010.06.03 15:47:04.
