data_PCOD9470100
_publ_section_title
;
Structure prediction by ZEFSAII (Michael W. Deem and Ramdas Pophale) SiO2 
 PCOD9470100
Probable space group: C M C M
;
_chemical_formula_sum "Si O2"
_cell_formula_units_Z 96
_cell_length_a 23.118010
_cell_length_b 11.521762
_cell_length_c 20.133524
_cell_angle_alpha 90.000000
_cell_angle_beta 90.000000
_cell_angle_gamma 90.000000
_cell_volume 5362.769663
_symmetry_space_group_name_H-M "C M C M"
_symmetry_group_IT_number 63
_symmetry_cell_setting 'orthorhombic'
loop_
_space_group_symop_operation_xyz
x,y,z
-x,-y,1/2+z
x,-y,-z
-x,y,1/2-z
-x,-y,-z
x,y,1/2-z
-x,y,z
x,-y,1/2+z
1/2+x,1/2+y,z
1/2-x,1/2-y,1/2+z
1/2+x,1/2-y,-z
1/2-x,1/2+y,1/2-z
1/2-x,1/2-y,-z
1/2+x,1/2+y,1/2-z
1/2-x,1/2+y,z
1/2+x,1/2-y,1/2+z
loop_
_atom_site_type_symbol
_atom_site_label
_atom_site_fract_x
_atom_site_fract_y
_atom_site_fract_z
Si Si1 0.873221 0.523225 0.675474
Si Si2 0.257554 0.591588 0.049744
Si Si3 0.143970 0.244544 0.824402
Si Si4 0.153796 0.769100 0.033091
Si Si5 0.565124 0.887375 0.453206
Si Si6 0.243687 0.061218 0.823522
O O1 0.894827 0.544805 0.750000
O O2 0.859355 0.384793 0.671037
O O3 0.914967 0.567640 0.618649
O O4 0.811392 0.585957 0.666524
O O5 0.209446 0.691111 0.055465
O O6 0.272377 0.527679 0.118176
O O7 0.228134 0.500000 0.000000
O O8 0.314387 0.633919 0.010732
O O9 0.118675 0.217313 0.750000
O O10 0.121890 0.201732 0.897025
O O11 0.205472 0.177103 0.823258
O O12 0.110558 0.700353 0.985680
O O13 0.500000 0.839652 0.450928
O O14 0.565089 0.000000 0.500000
O O15 0.237963 0.007082 0.750000
#
# Coordination Sequence:
#
# PCOD9470100 Si02
#       6
#    16  16  16  16  16  16
#     4  10  20  34  51  72 104 139 172 211 259 314
#     4  11  20  30  50  77 104 140 168 206 258 326
#     4  10  19  31  49  74 105 137 168 211 256 310
#     4  11  21  32  51  76 107 135 175 213 258 312
#     4  11  22  36  53  73 101 135 175 219 259 303
#     4  10  19  31  49  77 109 136 167 207 263 320
#
# _framework density 17.901198999999998
#
# number of rings (size 3 to 8) (size 9 to 14) (size 15 to 20)
#    0.000    1.500    5.000    1.500    2.333    0.333 
#    0.000    0.833    0.000    1.000    0.000    0.000 
#    0.000    0.000    0.000    0.000    0.000    0.000 
#
# Total GULP energy -267215.689594 kJ/mol
# GULP energy per Si atom -5566.993533 kJ/mol
# Density = 1.786045 g / cm^3
# Si number density = 17.901199 Si / 1000 Ang^3
#
#
#
# Elastic Constant Matrix: (Units=GPa)
#
#
# Indices 1 2 3 4 5 6 
#
# 1 49.7396 24.3922 44.0688 0.0000 0.0000 0.0000
# 2 24.3922 33.2410 31.4568 0.0000 0.0000 0.0000
# 3 44.0688 31.4568 178.5824 0.0000 0.0000 0.0000
# 4 0.0000 0.0000 0.0000 33.3118 0.0000 0.0000
# 5 0.0000 0.0000 0.0000 0.0000 -13.7010 0.0000
# 6 0.0000 0.0000 0.0000 0.0000 0.0000 10.7236
#
#
#
# Elastic Compliance Matrix: (Units=1/GPa)
#
#
# Indices 1 2 3 4 5 6 
#
# 1 0.034625 -0.020787 -0.004883 0.000000 0.000000 0.000000
# 2 -0.020787 0.048580 -0.003428 0.000000 0.000000 0.000000
# 3 -0.004883 -0.003428 0.007408 0.000000 0.000000 0.000000
# 4 0.000000 0.000000 0.000000 0.030019 0.000000 0.000000
# 5 0.000000 0.000000 0.000000 0.000000 -0.072987 0.000000
# 6 0.000000 0.000000 0.000000 0.000000 0.000000 0.093252
#
#
# Mechanical properties :
#
#
# Convention : Reuss Voigt Hill
#
# Bulk Modulus (GPa) = 30.84637 51.26652 41.05645
# Shear Modulus (GPa) = 23.82098 16.84322 20.33210
#
# Velocity S-wave (km/s) = 3.65182 3.07074 3.37381
# Velocity P-wave (km/s) = 5.92030 6.42443 6.17751
#
# Compressibility (1/GPa) = 0.03241872
#
# Stress axis : x y z
#
# Youngs Moduli (GPa) = 28.88114 20.58441 134.98254
#
# Poissons Ratio (x) = 0.42789 0.65909
# Poissons Ratio (y) = 0.60035 0.46268
# Poissons Ratio (z) = 0.14102 0.07056
#
# Static dielectric constant tensor:
#      x y z
#    x 1.598220 0.000000 0.000000 
#    y 0.000000 1.627850 0.000000 
#    z 0.000000 0.000000 1.691480 
# 
# From -- ./inp_files/56552.got.cif
#   From: 2010.05.17/outbox.cif.g08.bks.cpg/sg63_29_cif.got.tgz:56552.got - 2010.06.03 15:47:04.
