data_PCOD9470378
_publ_section_title
;
Structure prediction by ZEFSAII (Michael W. Deem and Ramdas Pophale) SiO2 
 PCOD9470378
Probable space group: C M C M
;
_chemical_formula_sum "Si O2"
_cell_formula_units_Z 80
_cell_length_a 19.461220
_cell_length_b 27.071131
_cell_length_c 8.566004
_cell_angle_alpha 90.000000
_cell_angle_beta 90.000000
_cell_angle_gamma 90.000000
_cell_volume 4512.889871
_symmetry_space_group_name_H-M "C M C M"
_symmetry_group_IT_number 63
_symmetry_cell_setting 'orthorhombic'
loop_
_space_group_symop_operation_xyz
x,y,z
-x,-y,1/2+z
x,-y,-z
-x,y,1/2-z
-x,-y,-z
x,y,1/2-z
-x,y,z
x,-y,1/2+z
1/2+x,1/2+y,z
1/2-x,1/2-y,1/2+z
1/2+x,1/2-y,-z
1/2-x,1/2+y,1/2-z
1/2-x,1/2-y,-z
1/2+x,1/2+y,1/2-z
1/2-x,1/2+y,z
1/2+x,1/2-y,1/2+z
loop_
_atom_site_type_symbol
_atom_site_label
_atom_site_fract_x
_atom_site_fract_y
_atom_site_fract_z
Si Si1 0.420406 0.053167 0.561398
Si Si2 0.920036 0.053409 0.063094
Si Si3 0.328340 0.144166 0.939953
Si Si4 0.328080 0.252337 0.562683
Si Si5 0.668527 0.356097 0.063094
O O1 0.418514 0.052388 0.750000
O O2 0.500000 0.059723 0.513529
O O3 0.373859 0.098476 0.505334
O O4 0.396627 0.000000 0.500000
O O5 0.917079 0.052864 0.250000
O O6 0.000000 0.059688 0.015144
O O7 0.875013 0.098289 0.999643
O O8 0.896799 0.000000 0.000000
O O9 0.328132 0.143075 0.750000
O O10 0.356913 0.198465 0.983712
O O11 0.248565 0.139600 0.988884
O O12 0.327648 0.255384 0.750000
O O13 0.250000 0.250000 0.500000
O O14 0.358528 0.302861 0.495611
O O15 0.667736 0.356170 0.250000
#
# Coordination Sequence:
#
# PCOD9470378 Si02
#       5
#    16  16  16  16  16
#     4   9  17  31  49  67  91 124 159 195 237 282
#     4  10  21  37  55  74  98 129 164 202 246 298
#     4   8  16  30  48  71  97 127 164 203 240 283
#     4   9  16  29  48  70  98 130 165 204 248 295
#     4  10  19  32  51  74 101 130 162 202 246 295
#
# _framework density 17.727
#
# number of rings (size 3 to 8) (size 9 to 14) (size 15 to 20)
#    0.000    2.800    0.000    3.000    0.000    2.000 
#    0.000    9.000    0.000    3.600    0.000    0.000 
#    0.000    0.000    0.000    0.000    0.000    0.000 
#
# Total GULP energy -222863.172664 kJ/mol
# GULP energy per Si atom -5571.579317 kJ/mol
# Density = 1.768665 g / cm^3
# Si number density = 17.727000 Si / 1000 Ang^3
#
#
#
# Elastic Constant Matrix: (Units=GPa)
#
#
# Indices 1 2 3 4 5 6 
#
# 1 48.8771 80.6051 17.4938 0.0000 0.0000 0.0000
# 2 80.6051 229.0972 39.5306 0.0000 0.0000 0.0000
# 3 17.4938 39.5306 34.1499 0.0000 0.0000 0.0000
# 4 0.0000 0.0000 0.0000 35.1649 0.0000 0.0000
# 5 0.0000 0.0000 0.0000 0.0000 18.2627 0.0000
# 6 0.0000 0.0000 0.0000 0.0000 0.0000 -39.9268
#
#
#
# Elastic Compliance Matrix: (Units=1/GPa)
#
#
# Indices 1 2 3 4 5 6 
#
# 1 0.049883 -0.016422 -0.006544 0.000000 0.000000 0.000000
# 2 -0.016422 0.010860 -0.004159 0.000000 0.000000 0.000000
# 3 -0.006544 -0.004159 0.037450 0.000000 0.000000 0.000000
# 4 0.000000 0.000000 0.000000 0.028437 0.000000 0.000000
# 5 0.000000 0.000000 0.000000 0.000000 0.054756 0.000000
# 6 0.000000 0.000000 0.000000 0.000000 0.000000 -0.025046
#
#
# Mechanical properties :
#
#
# Convention : Reuss Voigt Hill
#
# Bulk Modulus (GPa) = 22.75691 65.26480 44.01085
# Shear Modulus (GPa) = 22.19855 14.33315 18.26585
#
# Velocity S-wave (km/s) = 3.54255 2.84658 3.21346
# Velocity P-wave (km/s) = 5.44042 6.90656 6.21686
#
# Compressibility (1/GPa) = 0.04394270
#
# Stress axis : x y z
#
# Youngs Moduli (GPa) = 20.04681 92.07772 26.70234
#
# Poissons Ratio (x) = 1.51206 0.17475
# Poissons Ratio (y) = 0.32920 0.11106
# Poissons Ratio (z) = 0.13120 0.38298
#
# Static dielectric constant tensor:
#      x y z
#    x 1.556780 0.000000 0.000000 
#    y 0.000000 1.620940 0.000000 
#    z 0.000000 0.000000 1.603460 
# 
# From -- ./inp_files/6456.got.cif
#   From: 2010.05.17/outbox.cif.g08.bks.cpg/sg63_4_cif.got.tgz:6456.got - 2010.06.03 15:47:04.
