data_PCOD9470467
_publ_section_title
;
Structure prediction by ZEFSAII (Michael W. Deem and Ramdas Pophale) SiO2 
 PCOD9470467
Probable space group: C M C M
;
_chemical_formula_sum "Si O2"
_cell_formula_units_Z 96
_cell_length_a 24.832282
_cell_length_b 23.973988
_cell_length_c 8.728784
_cell_angle_alpha 90.000000
_cell_angle_beta 90.000000
_cell_angle_gamma 90.000000
_cell_volume 5196.496772
_symmetry_space_group_name_H-M "C M C M"
_symmetry_group_IT_number 63
_symmetry_cell_setting 'orthorhombic'
loop_
_space_group_symop_operation_xyz
x,y,z
-x,-y,1/2+z
x,-y,-z
-x,y,1/2-z
-x,-y,-z
x,y,1/2-z
-x,y,z
x,-y,1/2+z
1/2+x,1/2+y,z
1/2-x,1/2-y,1/2+z
1/2+x,1/2-y,-z
1/2-x,1/2+y,1/2-z
1/2-x,1/2-y,-z
1/2+x,1/2+y,1/2-z
1/2-x,1/2+y,z
1/2+x,1/2-y,1/2+z
loop_
_atom_site_type_symbol
_atom_site_label
_atom_site_fract_x
_atom_site_fract_y
_atom_site_fract_z
Si Si1 0.333122 0.233103 0.065116
Si Si2 0.057658 0.062858 0.434792
Si Si3 0.434504 0.942259 0.074856
Si Si4 0.238189 0.837939 0.066582
Si Si5 0.438962 0.176361 0.065576
Si Si6 0.823972 0.937696 0.566127
O O1 0.331177 0.230276 0.250000
O O2 0.307153 0.292108 0.019805
O O3 0.394039 0.220566 0.015089
O O4 0.293901 0.185905 0.997987
O O5 0.057668 0.060460 0.250000
O O6 0.116268 0.085446 0.480576
O O7 0.000000 0.089075 0.482741
O O8 0.057115 0.000000 0.500000
O O9 0.416388 0.938575 0.250000
O O10 0.500000 0.944787 0.074543
O O11 0.421242 0.885505 0.986448
O O12 0.415300 0.000000 0.000000
O O13 0.240379 0.840245 0.250000
O O14 0.220847 0.896852 0.999213
O O15 0.440790 0.176870 0.250000
O O16 0.500000 0.186479 0.008732
O O17 0.821382 0.939756 0.750000
O O18 0.819143 0.000000 0.500000
#
# Coordination Sequence:
#
# PCOD9470467 Si02
#       6
#    16  16  16  16  16  16
#     4   9  19  36  56  76  99 131 171 210 249 298
#     4   8  14  25  42  65  94 129 166 200 238 289
#     4   9  16  26  42  66  97 132 167 200 238 290
#     4  10  20  35  55  77 101 132 172 213 252 297
#     4   9  17  31  52  76 102 131 163 204 253 301
#     4  10  19  32  52  77 106 137 169 210 258 304
#
# _framework density 18.473984000000002
#
# number of rings (size 3 to 8) (size 9 to 14) (size 15 to 20)
#    0.000    2.833    0.000    1.500    0.000    4.000 
#    0.000    1.667    0.000    5.000    0.000    0.000 
#    0.000    0.000    0.000    0.000    0.000    0.000 
#
# Total GULP energy -267331.261526 kJ/mol
# GULP energy per Si atom -5569.401282 kJ/mol
# Density = 1.843194 g / cm^3
# Si number density = 18.473984 Si / 1000 Ang^3
#
#
#
# Elastic Constant Matrix: (Units=GPa)
#
#
# Indices 1 2 3 4 5 6 
#
# 1 76.2181 42.0388 17.1579 0.0000 0.0000 0.0000
# 2 42.0388 51.4571 8.8430 0.0000 0.0000 0.0000
# 3 17.1579 8.8430 13.3272 0.0000 0.0000 0.0000
# 4 0.0000 0.0000 0.0000 20.3667 0.0000 0.0000
# 5 0.0000 0.0000 0.0000 0.0000 17.6825 0.0000
# 6 0.0000 0.0000 0.0000 0.0000 0.0000 15.2100
#
#
#
# Elastic Compliance Matrix: (Units=1/GPa)
#
#
# Indices 1 2 3 4 5 6 
#
# 1 0.029836 -0.020061 -0.025100 0.000000 0.000000 0.000000
# 2 -0.020061 0.035424 0.002323 0.000000 0.000000 0.000000
# 3 -0.025100 0.002323 0.105808 0.000000 0.000000 0.000000
# 4 0.000000 0.000000 0.000000 0.049100 0.000000 0.000000
# 5 0.000000 0.000000 0.000000 0.000000 0.056553 0.000000
# 6 0.000000 0.000000 0.000000 0.000000 0.000000 0.065746
#
#
# Mechanical properties :
#
#
# Convention : Reuss Voigt Hill
#
# Bulk Modulus (GPa) = 11.71094 30.78689 21.24892
# Shear Modulus (GPa) = 10.95030 15.51601 13.23315
#
# Velocity S-wave (km/s) = 2.43727 2.90122 2.67931
# Velocity P-wave (km/s) = 3.77800 5.28431 4.59332
#
# Compressibility (1/GPa) = 0.08539024
#
# Stress axis : x y z
#
# Youngs Moduli (GPa) = 33.51681 28.22948 9.45106
#
# Poissons Ratio (x) = 0.56632 0.23722
# Poissons Ratio (y) = 0.67239 -0.02195
# Poissons Ratio (z) = 0.84128 -0.06557
#
# Static dielectric constant tensor:
#      x y z
#    x 1.693050 0.000000 0.000000 
#    y 0.000000 1.615790 0.000000 
#    z 0.000000 0.000000 1.616010 
# 
# From -- ./inp_files/10442.got.cif
#   From: 2010.05.17/outbox.cif.g08.bks.cpg/sg63_6_cif.got.tgz:10442.got - 2010.06.03 15:47:04.
