data_PCOD9470554
_publ_section_title
;
Structure prediction by ZEFSAII (Michael W. Deem and Ramdas Pophale) SiO2 
 PCOD9470554
Probable space group: C M C M
;
_chemical_formula_sum "Si O2"
_cell_formula_units_Z 96
_cell_length_a 25.563374
_cell_length_b 14.706054
_cell_length_c 14.513519
_cell_angle_alpha 90.000000
_cell_angle_beta 90.000000
_cell_angle_gamma 90.000000
_cell_volume 5456.159481
_symmetry_space_group_name_H-M "C M C M"
_symmetry_group_IT_number 63
_symmetry_cell_setting 'orthorhombic'
loop_
_space_group_symop_operation_xyz
x,y,z
-x,-y,1/2+z
x,-y,-z
-x,y,1/2-z
-x,-y,-z
x,y,1/2-z
-x,y,z
x,-y,1/2+z
1/2+x,1/2+y,z
1/2-x,1/2-y,1/2+z
1/2+x,1/2-y,-z
1/2-x,1/2+y,1/2-z
1/2-x,1/2-y,-z
1/2+x,1/2+y,1/2-z
1/2-x,1/2+y,z
1/2+x,1/2-y,1/2+z
loop_
_atom_site_type_symbol
_atom_site_label
_atom_site_fract_x
_atom_site_fract_y
_atom_site_fract_z
Si Si1 0.245014 0.106834 0.851340
Si Si2 0.826095 0.594360 0.012738
Si Si3 0.137768 0.208352 0.470752
Si Si4 0.371122 0.419804 0.356483
Si Si5 0.755737 0.178046 0.143502
Si Si6 0.940259 0.904285 0.639706
O O1 0.267887 0.090336 0.750000
O O2 0.190298 0.054607 0.858095
O O3 0.236263 0.216336 0.858071
O O4 0.282849 0.083562 0.932934
O O5 0.791414 0.617575 0.103223
O O6 0.856736 0.500000 0.000000
O O7 0.857862 0.684913 0.989318
O O8 0.125911 0.157109 0.566313
O O9 0.193016 0.177303 0.422767
O O10 0.091809 0.178471 0.402910
O O11 0.382186 0.391868 0.250000
O O12 0.407985 0.503835 0.381461
O O13 0.768721 0.156123 0.250000
O O14 0.940612 0.896551 0.750000
O O15 0.000000 0.909520 0.606864
#
# Coordination Sequence:
#
# PCOD9470554 Si02
#       6
#    16  16  16  16  16  16
#     4   9  17  32  49  71 103 141 181 218 265 318
#     4  11  22  33  49  76 108 146 188 226 260 313
#     4  11  20  36  54  77 108 145 185 222 273 322
#     4  10  19  32  54  78 105 140 180 220 270 330
#     4  10  19  33  51  73 102 145 188 225 264 319
#     4  10  23  40  59  85 111 137 176 226 280 337
#
# _framework density 17.594794
#
# number of rings (size 3 to 8) (size 9 to 14) (size 15 to 20)
#    0.000    1.833    3.333    2.000    2.333    2.667 
#    0.000    0.000    0.000    0.500    0.000    0.000 
#    0.000    2.667    0.000    0.000    0.000    0.000 
#
# Total GULP energy -267772.688743 kJ/mol
# GULP energy per Si atom -5578.597682 kJ/mol
# Density = 1.755475 g / cm^3
# Si number density = 17.594794 Si / 1000 Ang^3
#
#
#
# Elastic Constant Matrix: (Units=GPa)
#
#
# Indices 1 2 3 4 5 6 
#
# 1 78.2617 40.9667 23.5508 0.0000 0.0000 0.0000
# 2 40.9667 119.4100 38.9936 0.0000 0.0000 0.0000
# 3 23.5508 38.9936 77.9543 0.0000 0.0000 0.0000
# 4 0.0000 0.0000 0.0000 16.6581 0.0000 0.0000
# 5 0.0000 0.0000 0.0000 0.0000 20.2223 0.0000
# 6 0.0000 0.0000 0.0000 0.0000 0.0000 18.1516
#
#
#
# Elastic Compliance Matrix: (Units=1/GPa)
#
#
# Indices 1 2 3 4 5 6 
#
# 1 0.015969 -0.004665 -0.002491 0.000000 0.000000 0.000000
# 2 -0.004665 0.011372 -0.004279 0.000000 0.000000 0.000000
# 3 -0.002491 -0.004279 0.015721 0.000000 0.000000 0.000000
# 4 0.000000 0.000000 0.000000 0.060031 0.000000 0.000000
# 5 0.000000 0.000000 0.000000 0.000000 0.049450 0.000000
# 6 0.000000 0.000000 0.000000 0.000000 0.000000 0.055092
#
#
# Mechanical properties :
#
#
# Convention : Reuss Voigt Hill
#
# Bulk Modulus (GPa) = 49.52431 53.62755 51.57593
# Shear Modulus (GPa) = 21.07598 22.48073 21.77835
#
# Velocity S-wave (km/s) = 3.46476 3.57836 3.52202
# Velocity P-wave (km/s) = 6.64938 6.90060 6.77615
#
# Compressibility (1/GPa) = 0.02019210
#
# Stress axis : x y z
#
# Youngs Moduli (GPa) = 62.62026 87.93194 63.60899
#
# Poissons Ratio (x) = 0.41023 0.15844
# Poissons Ratio (y) = 0.29214 0.27219
# Poissons Ratio (z) = 0.15598 0.37628
#
# Static dielectric constant tensor:
#      x y z
#    x 1.580170 0.000000 0.000000 
#    y 0.000000 1.676380 0.000000 
#    z 0.000000 0.000000 1.638080 
# 
# From -- ./inp_files/35299.got.cif
#   From: 2010.05.17/outbox.cif.g08.bks.cpg/sg63_18_cif.got.tgz:35299.got - 2010.06.03 15:47:04.
