data_PCOD9470222
_publ_section_title
;
Structure prediction by ZEFSAII (Michael W. Deem and Ramdas Pophale) SiO2 
 PCOD9470222
Probable space group: C M C M
;
_chemical_formula_sum "Si O2"
_cell_formula_units_Z 96
_cell_length_a 24.278660
_cell_length_b 21.868448
_cell_length_c 7.462920
_cell_angle_alpha 90.000000
_cell_angle_beta 90.000000
_cell_angle_gamma 90.000000
_cell_volume 3962.337473
_symmetry_space_group_name_H-M "C M C M"
_symmetry_group_IT_number 63
_symmetry_cell_setting 'orthorhombic'
loop_
_space_group_symop_operation_xyz
x,y,z
-x,-y,1/2+z
x,-y,-z
-x,y,1/2-z
-x,-y,-z
x,y,1/2-z
-x,y,z
x,-y,1/2+z
1/2+x,1/2+y,z
1/2-x,1/2-y,1/2+z
1/2+x,1/2-y,-z
1/2-x,1/2+y,1/2-z
1/2-x,1/2-y,-z
1/2+x,1/2+y,1/2-z
1/2-x,1/2+y,z
1/2+x,1/2-y,1/2+z
loop_
_atom_site_type_symbol
_atom_site_label
_atom_site_fract_x
_atom_site_fract_y
_atom_site_fract_z
Si Si1 0.000000 0.409509 0.967929
Si Si2 0.665713 0.348462 0.970155
Si Si3 0.061348 0.927760 0.535626
Si Si4 0.617831 0.086896 0.045534
Si Si5 0.880519 0.726445 0.955924
Si Si6 0.762365 0.433241 0.535849
Si Si7 0.500000 0.764868 0.963249
O O1 0.940961 0.432071 0.036594
O O2 0.000000 0.337202 0.008400
O O3 0.000000 0.414821 0.750000
O O4 0.665086 0.348048 0.750000
O O5 0.612829 0.388083 0.030235
O O6 0.659688 0.278338 0.027887
O O7 0.721351 0.381323 0.030215
O O8 0.060098 0.920142 0.750000
O O9 0.000000 0.910759 0.466868
O O10 0.069498 0.000000 0.500000
O O11 0.617324 0.064276 0.250000
O O12 0.675645 0.068430 0.960600
O O13 0.618487 0.161151 0.050824
O O14 0.867612 0.712953 0.750000
O O15 0.941597 0.756859 0.963900
O O16 0.737985 0.500000 0.500000
O O17 0.766948 0.424928 0.750000
O O18 0.500000 0.757830 0.750000
#
# Coordination Sequence:
#
# PCOD9470222 Si02
#       7
#     8  16  16  16  16  16   8
#     4   7  12  27  50  72  96 130 163 194 243 309
#     4   9  19  33  50  74 104 138 176 219 270 320
#     4   9  17  30  48  67  93 130 171 217 265 309
#     4   9  18  34  55  77 107 141 174 215 271 325
#     4  10  19  31  52  80 108 141 180 219 260 319
#     4  10  21  38  57  76 101 139 181 225 274 325
#     4   9  17  31  49  74 111 146 175 210 259 313
#
# _framework density 24.228124000000001
#
# number of rings (size 3 to 8) (size 9 to 14) (size 15 to 20)
#    0.000    2.833    0.000    2.250    1.167    1.333 
#    0.000    3.750    0.000    0.000    0.000    0.000 
#    0.000    0.000    0.000    0.000    0.000    0.000 
#
# Total GULP energy -268099.409267 kJ/mol
# GULP energy per Si atom -5585.404360 kJ/mol
# Density = 2.417298 g / cm^3
# Si number density = 24.228124 Si / 1000 Ang^3
#
#
#
# Elastic Constant Matrix: (Units=GPa)
#
#
# Indices 1 2 3 4 5 6 
#
# 1 116.9747 52.3216 9.5852 0.0000 0.0000 0.0000
# 2 52.3216 93.5806 -5.0921 0.0000 0.0000 0.0000
# 3 9.5852 -5.0921 78.4970 0.0000 0.0000 0.0000
# 4 0.0000 0.0000 0.0000 4.9572 0.0000 0.0000
# 5 0.0000 0.0000 0.0000 0.0000 -3.3725 0.0000
# 6 0.0000 0.0000 0.0000 0.0000 0.0000 26.8521
#
#
#
# Elastic Compliance Matrix: (Units=1/GPa)
#
#
# Indices 1 2 3 4 5 6 
#
# 1 0.011662 -0.006621 -0.001854 0.000000 0.000000 0.000000
# 2 -0.006621 0.014483 0.001748 0.000000 0.000000 0.000000
# 3 -0.001854 0.001748 0.013079 0.000000 0.000000 0.000000
# 4 0.000000 0.000000 0.000000 0.201726 0.000000 0.000000
# 5 0.000000 0.000000 0.000000 0.000000 -0.296514 0.000000
# 6 0.000000 0.000000 0.000000 0.000000 0.000000 0.037241
#
#
# Mechanical properties :
#
#
# Convention : Reuss Voigt Hill
#
# Bulk Modulus (GPa) = 38.80371 44.74242 41.77307
# Shear Modulus (GPa) = 1343.05980 21.16985 682.11483
#
# Velocity S-wave (km/s) = 23.56995 2.95917 16.79731
# Velocity P-wave (km/s) = 27.50953 5.49389 19.83629
#
# Compressibility (1/GPa) = 0.02577073
#
# Stress axis : x y z
#
# Youngs Moduli (GPa) = 85.74536 69.04568 76.45794
#
# Poissons Ratio (x) = 0.45718 0.14172
# Poissons Ratio (y) = 0.56776 -0.13365
# Poissons Ratio (z) = 0.15894 -0.12070
#
# Static dielectric constant tensor:
#      x y z
#    x 1.964760 0.000000 0.000000 
#    y 0.000000 1.902210 0.000000 
#    z 0.000000 0.000000 1.896200 
# 
# From -- ./inp_files/10575.got.cif
#   From: 2010.05.17/outbox.cif.g08.bks.cpg/sg63_6_cif.got.tgz:10575.got - 2010.06.03 15:47:04.
