data_PCOD9470840
_publ_section_title
;
Structure prediction by ZEFSAII (Michael W. Deem and Ramdas Pophale) SiO2 
 PCOD9470840
Probable space group: C M C M
;
_chemical_formula_sum "Si O2"
_cell_formula_units_Z 96
_cell_length_a 15.996373
_cell_length_b 22.933370
_cell_length_c 14.415705
_cell_angle_alpha 90.000000
_cell_angle_beta 90.000000
_cell_angle_gamma 90.000000
_cell_volume 5288.412056
_symmetry_space_group_name_H-M "C M C M"
_symmetry_group_IT_number 63
_symmetry_cell_setting 'orthorhombic'
loop_
_space_group_symop_operation_xyz
x,y,z
-x,-y,1/2+z
x,-y,-z
-x,y,1/2-z
-x,-y,-z
x,y,1/2-z
-x,y,z
x,-y,1/2+z
1/2+x,1/2+y,z
1/2-x,1/2-y,1/2+z
1/2+x,1/2-y,-z
1/2-x,1/2+y,1/2-z
1/2-x,1/2-y,-z
1/2+x,1/2+y,1/2-z
1/2-x,1/2+y,z
1/2+x,1/2-y,1/2+z
loop_
_atom_site_type_symbol
_atom_site_label
_atom_site_fract_x
_atom_site_fract_y
_atom_site_fract_z
Si Si1 0.407184 0.527779 0.641418
Si Si2 0.324606 0.351852 0.140821
Si Si3 0.905184 0.555098 0.646727
Si Si4 0.259129 0.968765 0.901448
Si Si5 0.098658 0.273654 0.854159
Si Si6 0.323835 0.139651 0.499538
O O1 0.416765 0.538694 0.750000
O O2 0.500000 0.513830 0.604688
O O3 0.370091 0.589239 0.605544
O O4 0.334215 0.479787 0.634628
O O5 0.300456 0.360540 0.250000
O O6 0.382285 0.295085 0.137146
O O7 0.246021 0.341819 0.074036
O O8 0.901219 0.582633 0.750000
O O9 0.834209 0.504866 0.646346
O O10 0.885527 0.599975 0.563349
O O11 0.000000 0.532071 0.634732
O O12 0.284079 0.903063 0.921953
O O13 0.255945 0.000000 0.000000
O O14 0.129732 0.291137 0.750000
O O15 0.000000 0.283652 0.855334
O O16 0.137201 0.308287 0.940544
#
# Coordination Sequence:
#
# PCOD9470840 Si02
#       6
#    16  16  16  16  16  16
#     4  10  19  33  55  80 107 141 179 225 277 329
#     4  10  19  36  59  81 108 140 182 234 280 331
#     4  10  20  34  54  80 112 150 190 229 273 328
#     4  10  20  33  49  77 110 144 180 222 271 331
#     4  10  22  38  55  79 110 147 192 235 278 331
#     4  11  21  35  55  82 111 147 182 231 282 337
#
# _framework density 18.152896999999999
#
# number of rings (size 3 to 8) (size 9 to 14) (size 15 to 20)
#    0.000    1.833    3.333    2.500    0.000    7.333 
#    0.000    1.667    0.000    0.000    0.000    0.000 
#    0.000    0.000    0.000    0.000    0.000    0.000 
#
# Total GULP energy -267265.049328 kJ/mol
# GULP energy per Si atom -5568.021861 kJ/mol
# Density = 1.811158 g / cm^3
# Si number density = 18.152897 Si / 1000 Ang^3
#
#
#
# Elastic Constant Matrix: (Units=GPa)
#
#
# Indices 1 2 3 4 5 6 
#
# 1 116.5018 18.2235 36.0292 0.0000 0.0000 0.0000
# 2 18.2235 50.0331 16.5854 0.0000 0.0000 0.0000
# 3 36.0292 16.5854 75.2789 0.0000 0.0000 0.0000
# 4 0.0000 0.0000 0.0000 20.4870 0.0000 0.0000
# 5 0.0000 0.0000 0.0000 0.0000 41.6863 0.0000
# 6 0.0000 0.0000 0.0000 0.0000 0.0000 -84.3917
#
#
#
# Elastic Compliance Matrix: (Units=1/GPa)
#
#
# Indices 1 2 3 4 5 6 
#
# 1 0.010312 -0.002287 -0.004431 0.000000 0.000000 0.000000
# 2 -0.002287 0.022069 -0.003768 0.000000 0.000000 0.000000
# 3 -0.004431 -0.003768 0.016235 0.000000 0.000000 0.000000
# 4 0.000000 0.000000 0.000000 0.048811 0.000000 0.000000
# 5 0.000000 0.000000 0.000000 0.000000 0.023989 0.000000
# 6 0.000000 0.000000 0.000000 0.000000 0.000000 -0.011850
#
#
# Mechanical properties :
#
#
# Convention : Reuss Voigt Hill
#
# Bulk Modulus (GPa) = 36.17497 42.61001 39.39249
# Shear Modulus (GPa) = 35.77756 6.95469 21.36612
#
# Velocity S-wave (km/s) = 4.44430 1.95946 3.43448
# Velocity P-wave (km/s) = 6.80492 5.35193 6.12168
#
# Compressibility (1/GPa) = 0.02764343
#
# Stress axis : x y z
#
# Youngs Moduli (GPa) = 96.97681 45.31310 61.59550
#
# Poissons Ratio (x) = 0.10363 0.27296
# Poissons Ratio (y) = 0.22177 0.23207
# Poissons Ratio (z) = 0.42975 0.17072
#
# Static dielectric constant tensor:
#      x y z
#    x 1.688200 0.000000 0.000000 
#    y 0.000000 1.621100 0.000000 
#    z 0.000000 0.000000 1.662730 
# 
# From -- ./inp_files/31931.got.cif
#   From: 2010.05.17/outbox.cif.g08.bks.cpg/sg63_16_cif.got.tgz:31931.got - 2010.06.03 15:47:04.
