data_PCOD9470551
_publ_section_title
;
Structure prediction by ZEFSAII (Michael W. Deem and Ramdas Pophale) SiO2 
 PCOD9470551
Probable space group: C M C M
;
_chemical_formula_sum "Si O2"
_cell_formula_units_Z 96
_cell_length_a 16.321244
_cell_length_b 12.603443
_cell_length_c 22.277247
_cell_angle_alpha 90.000000
_cell_angle_beta 90.000000
_cell_angle_gamma 90.000000
_cell_volume 4582.515886
_symmetry_space_group_name_H-M "C M C M"
_symmetry_group_IT_number 63
_symmetry_cell_setting 'orthorhombic'
loop_
_space_group_symop_operation_xyz
x,y,z
-x,-y,1/2+z
x,-y,-z
-x,y,1/2-z
-x,-y,-z
x,y,1/2-z
-x,y,z
x,-y,1/2+z
1/2+x,1/2+y,z
1/2-x,1/2-y,1/2+z
1/2+x,1/2-y,-z
1/2-x,1/2+y,1/2-z
1/2-x,1/2-y,-z
1/2+x,1/2+y,1/2-z
1/2-x,1/2+y,z
1/2+x,1/2-y,1/2+z
loop_
_atom_site_type_symbol
_atom_site_label
_atom_site_fract_x
_atom_site_fract_y
_atom_site_fract_z
Si Si1 0.658167 0.714181 0.518636
Si Si2 0.662001 0.875065 0.622215
Si Si3 0.500000 0.179141 0.976398
Si Si4 0.271217 0.783924 0.182282
Si Si5 0.596045 0.618195 0.320936
Si Si6 0.000000 0.471909 0.902284
Si Si7 0.201555 0.966835 0.403025
O O1 0.750000 0.750000 0.500000
O O2 0.582681 0.749197 0.476620
O O3 0.664567 0.593243 0.539867
O O4 0.638018 0.779231 0.578858
O O5 0.581510 0.942421 0.634049
O O6 0.726696 0.948050 0.586206
O O7 0.709084 0.816566 0.675690
O O8 0.500000 0.102533 0.036747
O O9 0.500000 0.092797 0.923783
O O10 0.271034 0.824181 0.250000
O O11 0.357367 0.728863 0.167322
O O12 0.244598 0.875635 0.137282
O O13 0.610564 0.593240 0.250000
O O14 0.500000 0.627063 0.330652
O O15 0.634802 0.528455 0.363334
#
# Coordination Sequence:
#
# PCOD9470551 Si02
#       7
#    16  16   8  16  16   8  16
#     4  10  20  33  53  76 107 137 179 222 265 315
#     4   9  19  34  53  78 101 138 172 217 265 311
#     4   9  18  30  50  75  96 134 172 215 258 309
#     4   9  18  34  53  76 106 136 171 214 265 322
#     4   9  18  33  54  78 104 138 179 221 269 326
#     4   9  16  32  51  70 100 130 171 212 262 304
#     4  10  19  32  54  76 104 140 176 214 268 319
#
# _framework density 20.949192
#
# number of rings (size 3 to 8) (size 9 to 14) (size 15 to 20)
#    0.000    2.667    0.000    1.500    1.167    2.667 
#    3.000    0.417   14.667    1.000    0.000    0.000 
#    0.000    0.000    0.000    0.000    0.000    0.000 
#
# Total GULP energy -267754.195291 kJ/mol
# GULP energy per Si atom -5578.212402 kJ/mol
# Density = 2.090151 g / cm^3
# Si number density = 20.949192 Si / 1000 Ang^3
#
#
#
# Elastic Constant Matrix: (Units=GPa)
#
#
# Indices 1 2 3 4 5 6 
#
# 1 120.9284 25.1356 10.4853 0.0000 0.0000 0.0000
# 2 25.1356 99.9179 23.9927 0.0000 0.0000 0.0000
# 3 10.4853 23.9927 29.1379 0.0000 0.0000 0.0000
# 4 0.0000 0.0000 0.0000 22.8941 0.0000 0.0000
# 5 0.0000 0.0000 0.0000 0.0000 18.4209 0.0000
# 6 0.0000 0.0000 0.0000 0.0000 0.0000 26.2215
#
#
#
# Elastic Compliance Matrix: (Units=1/GPa)
#
#
# Indices 1 2 3 4 5 6 
#
# 1 0.008791 -0.001810 -0.001673 0.000000 0.000000 0.000000
# 2 -0.001810 0.012847 -0.009927 0.000000 0.000000 0.000000
# 3 -0.001673 -0.009927 0.043096 0.000000 0.000000 0.000000
# 4 0.000000 0.000000 0.000000 0.043679 0.000000 0.000000
# 5 0.000000 0.000000 0.000000 0.000000 0.054286 0.000000
# 6 0.000000 0.000000 0.000000 0.000000 0.000000 0.038137
#
#
# Mechanical properties :
#
#
# Convention : Reuss Voigt Hill
#
# Bulk Modulus (GPa) = 26.37593 41.02347 33.69970
# Shear Modulus (GPa) = 20.80781 26.19870 23.50325
#
# Velocity S-wave (km/s) = 3.15501 3.54019 3.35314
# Velocity P-wave (km/s) = 5.08821 6.02789 5.57787
#
# Compressibility (1/GPa) = 0.03791336
#
# Stress axis : x y z
#
# Youngs Moduli (GPa) = 113.75821 77.83756 23.20391
#
# Poissons Ratio (x) = 0.14085 0.03883
# Poissons Ratio (y) = 0.20586 0.23036
# Poissons Ratio (z) = 0.19035 0.77273
#
# Static dielectric constant tensor:
#      x y z
#    x 1.769120 0.000000 0.000000 
#    y 0.000000 1.780190 0.000000 
#    z 0.000000 0.000000 1.767300 
# 
# From -- ./inp_files/73369.got.cif
#   From: 2010.05.17/outbox.cif.g08.bks.cpg/sg63_37_cif.got.tgz:73369.got - 2010.06.03 15:47:04.
