data_PCOD9470015
_publ_section_title
;
Structure prediction by ZEFSAII (Michael W. Deem and Ramdas Pophale) SiO2 
 PCOD9470015
Probable space group: C M C M
;
_chemical_formula_sum "Si O2"
_cell_formula_units_Z 96
_cell_length_a 8.787654
_cell_length_b 25.880832
_cell_length_c 26.171929
_cell_angle_alpha 90.000000
_cell_angle_beta 90.000000
_cell_angle_gamma 90.000000
_cell_volume 5952.328839
_symmetry_space_group_name_H-M "C M C M"
_symmetry_group_IT_number 63
_symmetry_cell_setting 'orthorhombic'
loop_
_space_group_symop_operation_xyz
x,y,z
-x,-y,1/2+z
x,-y,-z
-x,y,1/2-z
-x,-y,-z
x,y,1/2-z
-x,y,z
x,-y,1/2+z
1/2+x,1/2+y,z
1/2-x,1/2-y,1/2+z
1/2+x,1/2-y,-z
1/2-x,1/2+y,1/2-z
1/2-x,1/2-y,-z
1/2+x,1/2+y,1/2-z
1/2-x,1/2+y,z
1/2+x,1/2-y,1/2+z
loop_
_atom_site_type_symbol
_atom_site_label
_atom_site_fract_x
_atom_site_fract_y
_atom_site_fract_z
Si Si1 0.682792 0.307803 0.496743
Si Si2 0.817432 0.308882 0.109201
Si Si3 0.315470 0.311150 0.890586
Si Si4 0.818339 0.886836 0.190004
Si Si5 0.316055 0.604665 0.309354
Si Si6 0.325053 0.995627 0.311996
O O1 0.500000 0.306109 0.492892
O O2 0.750000 0.250000 0.500000
O O3 0.751809 0.329743 0.444644
O O4 0.724103 0.330775 0.552281
O O5 0.766973 0.248728 0.115218
O O6 0.758511 0.343426 0.155441
O O7 0.000000 0.309450 0.107013
O O8 0.500000 0.310222 0.888321
O O9 0.262539 0.349263 0.846128
O O10 0.777604 0.880476 0.250000
O O11 0.762378 0.943626 0.172955
O O12 0.000000 0.883844 0.185716
O O13 0.271491 0.613076 0.250000
O O14 0.500000 0.602647 0.310715
O O15 0.252377 0.549401 0.327246
O O16 0.322750 0.996049 0.250000
O O17 0.500000 0.993403 0.328709
#
# Coordination Sequence:
#
# PCOD9470015 Si02
#       6
#    16  16  16  16  16  16
#     4   9  16  29  47  66  91 124 163 201 234 274
#     4  10  19  31  48  71  97 125 158 195 237 282
#     4   8  16  29  46  69  95 125 159 191 227 275
#     4  10  20  33  49  70  95 124 157 191 231 280
#     4   9  16  28  47  69  93 122 155 189 225 270
#     4   9  17  30  47  67  91 120 155 192 229 271
#
# _framework density 16.128140999999999
#
# number of rings (size 3 to 8) (size 9 to 14) (size 15 to 20)
#    0.000    2.833    0.000    3.000    0.000    3.667 
#    0.000    6.667    0.000    3.000    0.000    7.000 
#    0.000    0.000    0.000    0.000    0.000    0.000 
#
# Total GULP energy -267252.149539 kJ/mol
# GULP energy per Si atom -5567.753115 kJ/mol
# Density = 1.609143 g / cm^3
# Si number density = 16.128141 Si / 1000 Ang^3
#
#
#
# Elastic Constant Matrix: (Units=GPa)
#
#
# Indices 1 2 3 4 5 6 
#
# 1 47.1483 32.0663 40.0045 0.0000 0.0000 0.0000
# 2 32.0663 101.1406 69.8137 0.0000 0.0000 0.0000
# 3 40.0045 69.8137 106.0389 0.0000 0.0000 0.0000
# 4 0.0000 0.0000 0.0000 -1.9404 0.0000 0.0000
# 5 0.0000 0.0000 0.0000 0.0000 22.7677 0.0000
# 6 0.0000 0.0000 0.0000 0.0000 0.0000 23.6771
#
#
#
# Elastic Compliance Matrix: (Units=1/GPa)
#
#
# Indices 1 2 3 4 5 6 
#
# 1 0.031785 -0.003300 -0.009819 0.000000 0.000000 0.000000
# 2 -0.003300 0.018466 -0.010913 0.000000 0.000000 0.000000
# 3 -0.009819 -0.010913 0.020319 0.000000 0.000000 0.000000
# 4 0.000000 0.000000 0.000000 -0.515357 0.000000 0.000000
# 5 0.000000 0.000000 0.000000 0.000000 0.043922 0.000000
# 6 0.000000 0.000000 0.000000 0.000000 0.000000 0.042235
#
#
# Mechanical properties :
#
#
# Convention : Reuss Voigt Hill
#
# Bulk Modulus (GPa) = 44.42892 59.78854 52.10873
# Shear Modulus (GPa) = -16.49814 16.39711 -0.05051
#
# Velocity S-wave (km/s) = -3.20181 3.19200 -0.17716
# Velocity P-wave (km/s) = 3.73342 7.12296 5.68661
#
# Compressibility (1/GPa) = 0.02250786
#
# Stress axis : x y z
#
# Youngs Moduli (GPa) = 31.46146 54.15323 49.21390
#
# Poissons Ratio (x) = 0.17870 0.48322
# Poissons Ratio (y) = 0.10382 0.53706
# Poissons Ratio (z) = 0.30891 0.59096
#
# Static dielectric constant tensor:
#      x y z
#    x 1.542490 0.000000 0.000000 
#    y 0.000000 1.531160 0.000000 
#    z 0.000000 0.000000 1.569610 
# 
# From -- ./inp_files/59885.got.cif
#   From: 2010.05.17/outbox.cif.g08.bks.cpg/sg63_30_cif.got.tgz:59885.got - 2010.06.03 15:47:04.
