data_PCOD9470720
_publ_section_title
;
Structure prediction by ZEFSAII (Michael W. Deem and Ramdas Pophale) SiO2 
 PCOD9470720
Probable space group: C M C M
;
_chemical_formula_sum "Si O2"
_cell_formula_units_Z 80
_cell_length_a 29.115924
_cell_length_b 18.055437
_cell_length_c 8.866166
_cell_angle_alpha 90.000000
_cell_angle_beta 90.000000
_cell_angle_gamma 90.000000
_cell_volume 4660.949952
_symmetry_space_group_name_H-M "C M C M"
_symmetry_group_IT_number 63
_symmetry_cell_setting 'orthorhombic'
loop_
_space_group_symop_operation_xyz
x,y,z
-x,-y,1/2+z
x,-y,-z
-x,y,1/2-z
-x,-y,-z
x,y,1/2-z
-x,y,z
x,-y,1/2+z
1/2+x,1/2+y,z
1/2-x,1/2-y,1/2+z
1/2+x,1/2-y,-z
1/2-x,1/2+y,1/2-z
1/2-x,1/2-y,-z
1/2+x,1/2+y,1/2-z
1/2-x,1/2+y,z
1/2+x,1/2-y,1/2+z
loop_
_atom_site_type_symbol
_atom_site_label
_atom_site_fract_x
_atom_site_fract_y
_atom_site_fract_z
Si Si1 0.055638 0.924929 0.578595
Si Si2 0.359476 0.793775 0.069039
Si Si3 0.946789 0.232593 0.570035
Si Si4 0.782705 0.187415 0.430813
Si Si5 0.706547 0.919491 0.931524
O O1 0.072820 0.918060 0.750000
O O2 0.064490 0.850521 0.486018
O O3 0.000000 0.931078 0.585858
O O4 0.072690 0.000000 0.500000
O O5 0.359284 0.801223 0.250000
O O6 0.333192 0.716344 0.027595
O O7 0.410668 0.787347 0.006579
O O8 0.330144 0.860436 0.996639
O O9 0.942914 0.236221 0.750000
O O10 0.000000 0.247270 0.528292
O O11 0.780332 0.191024 0.250000
O O12 0.750000 0.250000 0.500000
O O13 0.757693 0.111187 0.474239
O O14 0.702968 0.921249 0.750000
O O15 0.699001 0.000000 0.000000
#
# Coordination Sequence:
#
# PCOD9470720 Si02
#       5
#    16  16  16  16  16
#     4   9  16  27  44  65  89 119 157 202 250 297
#     4  10  19  33  53  76 102 134 172 212 256 303
#     4  10  20  33  49  71 100 136 178 220 260 303
#     4   8  16  30  49  72  98 127 159 198 243 295
#     4  10  19  33  53  78 106 134 166 204 250 304
#
# _framework density 17.163882999999998
#
# number of rings (size 3 to 8) (size 9 to 14) (size 15 to 20)
#    0.000    2.600    0.000    2.400    0.000    5.200 
#    0.000    1.000    0.000    3.000    0.000    0.000 
#    0.000    0.000    0.000    0.000    0.000    0.000 
#
# Total GULP energy -222743.600193 kJ/mol
# GULP energy per Si atom -5568.590005 kJ/mol
# Density = 1.712482 g / cm^3
# Si number density = 17.163883 Si / 1000 Ang^3
#
#
#
# Elastic Constant Matrix: (Units=GPa)
#
#
# Indices 1 2 3 4 5 6 
#
# 1 94.3076 52.8058 42.4188 0.0000 0.0000 0.0000
# 2 52.8058 101.4926 40.3359 0.0000 0.0000 0.0000
# 3 42.4188 40.3359 63.8665 0.0000 0.0000 0.0000
# 4 0.0000 0.0000 0.0000 27.6171 0.0000 0.0000
# 5 0.0000 0.0000 0.0000 0.0000 19.1662 0.0000
# 6 0.0000 0.0000 0.0000 0.0000 0.0000 16.0046
#
#
#
# Elastic Compliance Matrix: (Units=1/GPa)
#
#
# Indices 1 2 3 4 5 6 
#
# 1 0.017473 -0.005980 -0.007829 0.000000 0.000000 0.000000
# 2 -0.005980 0.015201 -0.005629 0.000000 0.000000 0.000000
# 3 -0.007829 -0.005629 0.024412 0.000000 0.000000 0.000000
# 4 0.000000 0.000000 0.000000 0.036209 0.000000 0.000000
# 5 0.000000 0.000000 0.000000 0.000000 0.052175 0.000000
# 6 0.000000 0.000000 0.000000 0.000000 0.000000 0.062482
#
#
# Mechanical properties :
#
#
# Convention : Reuss Voigt Hill
#
# Bulk Modulus (GPa) = 54.90901 58.97641 56.94271
# Shear Modulus (GPa) = 19.77074 20.83133 20.30104
#
# Velocity S-wave (km/s) = 3.39762 3.48756 3.44288
# Velocity P-wave (km/s) = 6.88856 7.11708 7.00375
#
# Compressibility (1/GPa) = 0.01821195
#
# Stress axis : x y z
#
# Youngs Moduli (GPa) = 57.23060 65.78390 40.96290
#
# Poissons Ratio (x) = 0.39338 0.32068
# Poissons Ratio (y) = 0.34223 0.23058
# Poissons Ratio (z) = 0.44804 0.37029
#
# Static dielectric constant tensor:
#      x y z
#    x 1.603240 0.000000 0.000000 
#    y 0.000000 1.566110 0.000000 
#    z 0.000000 0.000000 1.575670 
# 
# From -- ./inp_files/11993.got.cif
#   From: 2010.05.17/outbox.cif.g08.bks.cpg/sg63_6_cif.got.tgz:11993.got - 2010.06.03 15:47:04.
