data_PCOD9470999
_publ_section_title
;
Structure prediction by ZEFSAII (Michael W. Deem and Ramdas Pophale) SiO2 
 PCOD9470999
Probable space group: C M C M
;
_chemical_formula_sum "Si O2"
_cell_formula_units_Z 80
_cell_length_a 15.659112
_cell_length_b 21.131138
_cell_length_c 14.223085
_cell_angle_alpha 90.000000
_cell_angle_beta 90.000000
_cell_angle_gamma 90.000000
_cell_volume 4706.345672
_symmetry_space_group_name_H-M "C M C M"
_symmetry_group_IT_number 63
_symmetry_cell_setting 'orthorhombic'
loop_
_space_group_symop_operation_xyz
x,y,z
-x,-y,1/2+z
x,-y,-z
-x,y,1/2-z
-x,-y,-z
x,y,1/2-z
-x,y,z
x,-y,1/2+z
1/2+x,1/2+y,z
1/2-x,1/2-y,1/2+z
1/2+x,1/2-y,-z
1/2-x,1/2+y,1/2-z
1/2-x,1/2-y,-z
1/2+x,1/2+y,1/2-z
1/2-x,1/2+y,z
1/2+x,1/2-y,1/2+z
loop_
_atom_site_type_symbol
_atom_site_label
_atom_site_fract_x
_atom_site_fract_y
_atom_site_fract_z
Si Si1 0.094750 0.310179 0.554476
Si Si2 0.404709 0.574549 0.482416
Si Si3 0.266459 0.356900 0.640769
Si Si4 0.362173 0.327073 0.359696
Si Si5 0.831979 0.287592 0.144080
O O1 0.172374 0.350735 0.596668
O O2 0.105312 0.239328 0.597118
O O3 0.108658 0.305620 0.442456
O O4 0.000000 0.333378 0.577073
O O5 0.398334 0.500000 0.500000
O O6 0.500000 0.588073 0.443784
O O7 0.329817 0.597533 0.414349
O O8 0.394739 0.615164 0.577877
O O9 0.260060 0.373397 0.750000
O O10 0.307256 0.286435 0.633977
O O11 0.385714 0.331035 0.250000
O O12 0.258923 0.323322 0.365532
O O13 0.865088 0.297793 0.250000
#
# Coordination Sequence:
#
# PCOD9470999 Si02
#       5
#    16  16  16  16  16
#     4  11  19  31  55  84 111 137 170 215 271 325
#     4  11  23  37  54  77 106 142 184 222 259 307
#     4  10  20  36  54  76 109 141 176 219 265 318
#     4  10  19  34  54  76 107 140 173 217 265 315
#     4   9  17  31  54  80 106 139 175 212 264 323
#
# _framework density 16.998325999999999
#
# number of rings (size 3 to 8) (size 9 to 14) (size 15 to 20)
#    0.000    1.800    4.000    3.600    0.000    4.400 
#    0.000    4.000    0.000    0.600    0.000    0.000 
#    0.000    0.000    0.000    0.000    0.000    0.000 
#
# Total GULP energy -223211.114439 kJ/mol
# GULP energy per Si atom -5580.277861 kJ/mol
# Density = 1.695964 g / cm^3
# Si number density = 16.998326 Si / 1000 Ang^3
#
#
#
# Elastic Constant Matrix: (Units=GPa)
#
#
# Indices 1 2 3 4 5 6 
#
# 1 122.2568 50.3686 71.3236 0.0000 0.0000 0.0000
# 2 50.3686 55.3856 27.5948 0.0000 0.0000 0.0000
# 3 71.3236 27.5948 120.9796 0.0000 0.0000 0.0000
# 4 0.0000 0.0000 0.0000 3.4619 0.0000 0.0000
# 5 0.0000 0.0000 0.0000 0.0000 1.4991 0.0000
# 6 0.0000 0.0000 0.0000 0.0000 0.0000 20.2568
#
#
#
# Elastic Compliance Matrix: (Units=1/GPa)
#
#
# Indices 1 2 3 4 5 6 
#
# 1 0.017692 -0.012290 -0.007627 0.000000 0.000000 0.000000
# 2 -0.012290 0.028907 0.000652 0.000000 0.000000 0.000000
# 3 -0.007627 0.000652 0.012614 0.000000 0.000000 0.000000
# 4 0.000000 0.000000 0.000000 0.288861 0.000000 0.000000
# 5 0.000000 0.000000 0.000000 0.000000 0.667065 0.000000
# 6 0.000000 0.000000 0.000000 0.000000 0.000000 0.049366
#
#
# Mechanical properties :
#
#
# Convention : Reuss Voigt Hill
#
# Bulk Modulus (GPa) = 48.34918 66.35511 57.35215
# Shear Modulus (GPa) = 4.50479 14.99923 9.75201
#
# Velocity S-wave (km/s) = 1.62969 2.97373 2.39781
# Velocity P-wave (km/s) = 5.66096 7.13525 6.44043
#
# Compressibility (1/GPa) = 0.02068288
#
# Stress axis : x y z
#
# Youngs Moduli (GPa) = 56.52119 34.59392 79.27751
#
# Poissons Ratio (x) = 0.42515 0.60468
# Poissons Ratio (y) = 0.69462 -0.05168
# Poissons Ratio (z) = 0.43111 -0.02255
#
# Static dielectric constant tensor:
#      x y z
#    x 1.591470 0.000000 0.000000 
#    y 0.000000 1.532800 0.000000 
#    z 0.000000 0.000000 1.588940 
# 
# From -- ./inp_files/31647.got.cif
#   From: 2010.05.17/outbox.cif.g08.bks.cpg/sg63_16_cif.got.tgz:31647.got - 2010.06.03 15:47:04.
