data_PCOD9470637
_publ_section_title
;
Structure prediction by ZEFSAII (Michael W. Deem and Ramdas Pophale) SiO2 
 PCOD9470637
Probable space group: C M C M
;
_chemical_formula_sum "Si O2"
_cell_formula_units_Z 112
_cell_length_a 19.682972
_cell_length_b 17.788364
_cell_length_c 14.947519
_cell_angle_alpha 90.000000
_cell_angle_beta 90.000000
_cell_angle_gamma 90.000000
_cell_volume 5233.542997
_symmetry_space_group_name_H-M "C M C M"
_symmetry_group_IT_number 63
_symmetry_cell_setting 'orthorhombic'
loop_
_space_group_symop_operation_xyz
x,y,z
-x,-y,1/2+z
x,-y,-z
-x,y,1/2-z
-x,-y,-z
x,y,1/2-z
-x,y,z
x,-y,1/2+z
1/2+x,1/2+y,z
1/2-x,1/2-y,1/2+z
1/2+x,1/2-y,-z
1/2-x,1/2+y,1/2-z
1/2-x,1/2-y,-z
1/2+x,1/2+y,1/2-z
1/2-x,1/2+y,z
1/2+x,1/2-y,1/2+z
loop_
_atom_site_type_symbol
_atom_site_label
_atom_site_fract_x
_atom_site_fract_y
_atom_site_fract_z
Si Si1 0.284380 0.873236 0.358246
Si Si2 0.187000 0.102336 0.149336
Si Si3 0.360331 0.551905 0.643287
Si Si4 0.216759 0.721386 0.142150
Si Si5 0.075982 0.794651 0.411553
Si Si6 0.073301 0.779052 0.623380
Si Si7 0.573566 0.101740 0.648112
O O1 0.293510 0.867100 0.250000
O O2 0.216650 0.920300 0.371152
O O3 0.264719 0.789802 0.392033
O O4 0.352700 0.912131 0.394549
O O5 0.206105 0.076311 0.250000
O O6 0.253507 0.141924 0.107076
O O7 0.134170 0.170351 0.155972
O O8 0.144779 0.033338 0.107928
O O9 0.376078 0.551699 0.750000
O O10 0.407268 0.617089 0.603188
O O11 0.224512 0.718548 0.250000
O O12 0.139171 0.746076 0.125720
O O13 0.075879 0.779073 0.516547
O O14 0.000000 0.777830 0.376007
O O15 0.075634 0.692781 0.652960
O O16 0.000000 0.810749 0.650281
O O17 0.573106 0.071879 0.750000
O O18 0.500000 0.081574 0.606801
#
# Coordination Sequence:
#
# PCOD9470637 Si02
#       7
#    16  16  16  16  16  16  16
#     4   8  13  26  45  67  91 115 151 198 239 280
#     4  10  19  33  51  72  98 129 162 199 246 295
#     4   9  19  33  50  69  94 129 165 201 243 291
#     4   9  17  31  52  73  93 122 162 206 244 280
#     4  10  21  35  50  71 100 134 169 202 239 286
#     4  10  20  31  46  71 102 129 156 197 243 286
#     4   9  15  25  45  70  94 121 154 196 245 290
#
# _framework density 21.400417000000001
#
# number of rings (size 3 to 8) (size 9 to 14) (size 15 to 20)
#    0.000    2.714    1.429    1.714    0.000    3.714 
#    0.000    2.857    0.000    0.857    0.000    4.000 
#    0.000    3.429    0.000    0.000    0.000    0.000 
#
# Total GULP energy -311850.457848 kJ/mol
# GULP energy per Si atom -5568.758176 kJ/mol
# Density = 2.135171 g / cm^3
# Si number density = 21.400417 Si / 1000 Ang^3
#
#
#
# Elastic Constant Matrix: (Units=GPa)
#
#
# Indices 1 2 3 4 5 6 
#
# 1 121.6681 -11.3151 -0.2204 0.0000 0.0000 0.0000
# 2 -11.3151 26.2886 -0.7421 0.0000 0.0000 0.0000
# 3 -0.2204 -0.7421 33.6905 0.0000 0.0000 0.0000
# 4 0.0000 0.0000 0.0000 -24.6478 0.0000 0.0000
# 5 0.0000 0.0000 0.0000 0.0000 17.0228 0.0000
# 6 0.0000 0.0000 0.0000 0.0000 0.0000 13.9693
#
#
#
# Elastic Compliance Matrix: (Units=1/GPa)
#
#
# Indices 1 2 3 4 5 6 
#
# 1 0.008562 0.003689 0.000137 0.000000 0.000000 0.000000
# 2 0.003689 0.039653 0.000898 0.000000 0.000000 0.000000
# 3 0.000137 0.000898 0.029703 0.000000 0.000000 0.000000
# 4 0.000000 0.000000 0.000000 -0.040572 0.000000 0.000000
# 5 0.000000 0.000000 0.000000 0.000000 0.058745 0.000000
# 6 0.000000 0.000000 0.000000 0.000000 0.000000 0.071586
#
#
# Mechanical properties :
#
#
# Convention : Reuss Voigt Hill
#
# Bulk Modulus (GPa) = 11.44612 17.45468 14.45040
# Shear Modulus (GPa) = 26.68799 14.19719 20.44259
#
# Velocity S-wave (km/s) = 3.53523 2.57846 3.09405
# Velocity P-wave (km/s) = 4.69297 4.12778 4.41942
#
# Compressibility (1/GPa) = 0.08736582
#
# Stress axis : x y z
#
# Youngs Moduli (GPa) = 116.78926 25.21903 33.66710
#
# Poissons Ratio (x) = -0.09304 -0.00462
# Poissons Ratio (y) = -0.43087 -0.03022
# Poissons Ratio (z) = -0.01603 -0.02263
#
# Static dielectric constant tensor:
#      x y z
#    x 1.858280 0.000000 0.000000 
#    y 0.000000 1.804540 0.000000 
#    z 0.000000 0.000000 1.827450 
# 
# From -- ./inp_files/47361.got.cif
#   From: 2010.05.17/outbox.cif.g08.bks.cpg/sg63_24_cif.got.tgz:47361.got - 2010.06.03 15:47:04.
