data_PCOD9470792
_publ_section_title
;
Structure prediction by ZEFSAII (Michael W. Deem and Ramdas Pophale) SiO2 
 PCOD9470792
Probable space group: C M C M
;
_chemical_formula_sum "Si O2"
_cell_formula_units_Z 80
_cell_length_a 27.513868
_cell_length_b 18.982928
_cell_length_c 8.638418
_cell_angle_alpha 90.000000
_cell_angle_beta 90.000000
_cell_angle_gamma 90.000000
_cell_volume 4511.791949
_symmetry_space_group_name_H-M "C M C M"
_symmetry_group_IT_number 63
_symmetry_cell_setting 'orthorhombic'
loop_
_space_group_symop_operation_xyz
x,y,z
-x,-y,1/2+z
x,-y,-z
-x,y,1/2-z
-x,-y,-z
x,y,1/2-z
-x,y,z
x,-y,1/2+z
1/2+x,1/2+y,z
1/2-x,1/2-y,1/2+z
1/2+x,1/2-y,-z
1/2-x,1/2+y,1/2-z
1/2-x,1/2-y,-z
1/2+x,1/2+y,1/2-z
1/2-x,1/2+y,z
1/2+x,1/2-y,1/2+z
loop_
_atom_site_type_symbol
_atom_site_label
_atom_site_fract_x
_atom_site_fract_y
_atom_site_fract_z
Si Si1 0.446262 0.359407 0.937548
Si Si2 0.104593 0.284657 0.435301
Si Si3 0.655550 0.423888 0.563806
Si Si4 0.700954 0.283584 0.065587
Si Si5 0.557340 0.924457 0.934859
O O1 0.447374 0.363943 0.750000
O O2 0.500000 0.378749 0.995747
O O3 0.432990 0.278414 0.976035
O O4 0.399928 0.405287 0.988520
O O5 0.110371 0.283617 0.250000
O O6 0.155376 0.263902 0.512760
O O7 0.085336 0.359343 0.491085
O O8 0.669350 0.500000 0.500000
O O9 0.656505 0.423376 0.750000
O O10 0.689366 0.360981 0.502503
O O11 0.703175 0.287486 0.250000
O O12 0.750000 0.250000 0.000000
O O13 0.562562 0.923420 0.750000
O O14 0.500000 0.917183 0.972723
O O15 0.573595 0.000000 0.000000
#
# Coordination Sequence:
#
# PCOD9470792 Si02
#       5
#    16  16  16  16  16
#     4   8  15  28  48  75 107 143 180 215 253 302
#     4  10  19  33  54  79 107 140 179 223 271 322
#     4  10  20  35  55  81 112 146 182 220 265 314
#     4  11  22  39  61  83 107 137 176 222 272 325
#     4  10  20  33  50  75 108 146 185 224 269 321
#
# _framework density 17.731314999999999
#
# number of rings (size 3 to 8) (size 9 to 14) (size 15 to 20)
#    0.000    2.200    0.000    5.400    0.000    2.400 
#    0.000    1.000    0.000   11.400    0.000    0.000 
#    0.000    0.000    0.000    0.000    0.000    0.000 
#
# Total GULP energy -223262.646880 kJ/mol
# GULP energy per Si atom -5581.566172 kJ/mol
# Density = 1.769096 g / cm^3
# Si number density = 17.731315 Si / 1000 Ang^3
#
#
#
# Elastic Constant Matrix: (Units=GPa)
#
#
# Indices 1 2 3 4 5 6 
#
# 1 100.9950 56.6024 42.4152 0.0000 0.0000 0.0000
# 2 56.6024 143.4978 55.4907 0.0000 0.0000 0.0000
# 3 42.4152 55.4907 85.9418 0.0000 0.0000 0.0000
# 4 0.0000 0.0000 0.0000 29.2674 0.0000 0.0000
# 5 0.0000 0.0000 0.0000 0.0000 24.2557 0.0000
# 6 0.0000 0.0000 0.0000 0.0000 0.0000 10.5099
#
#
#
# Elastic Compliance Matrix: (Units=1/GPa)
#
#
# Indices 1 2 3 4 5 6 
#
# 1 0.013863 -0.003762 -0.004413 0.000000 0.000000 0.000000
# 2 -0.003762 0.010308 -0.004799 0.000000 0.000000 0.000000
# 3 -0.004413 -0.004799 0.016913 0.000000 0.000000 0.000000
# 4 0.000000 0.000000 0.000000 0.034168 0.000000 0.000000
# 5 0.000000 0.000000 0.000000 0.000000 0.041227 0.000000
# 6 0.000000 0.000000 0.000000 0.000000 0.000000 0.095148
#
#
# Mechanical properties :
#
#
# Convention : Reuss Voigt Hill
#
# Bulk Modulus (GPa) = 66.06837 71.05015 68.55926
# Shear Modulus (GPa) = 20.60825 24.53502 22.57164
#
# Velocity S-wave (km/s) = 3.41288 3.72386 3.57176
# Velocity P-wave (km/s) = 7.27132 7.65813 7.46723
#
# Compressibility (1/GPa) = 0.01513584
#
# Stress axis : x y z
#
# Youngs Moduli (GPa) = 72.13396 97.00733 59.12734
#
# Poissons Ratio (x) = 0.36492 0.26093
# Poissons Ratio (y) = 0.27135 0.28378
# Poissons Ratio (z) = 0.31833 0.46558
#
# Static dielectric constant tensor:
#      x y z
#    x 1.599160 0.000000 0.000000 
#    y 0.000000 1.583660 0.000000 
#    z 0.000000 0.000000 1.590120 
# 
# From -- ./inp_files/12011.got.cif
#   From: 2010.05.17/outbox.cif.g08.bks.cpg/sg63_7_cif.got.tgz:12011.got - 2010.06.03 15:47:04.
