data_PCOD9470632
_publ_section_title
;
Structure prediction by ZEFSAII (Michael W. Deem and Ramdas Pophale) SiO2 
 PCOD9470632
Probable space group: C M C M
;
_chemical_formula_sum "Si O2"
_cell_formula_units_Z 64
_cell_length_a 23.109613
_cell_length_b 7.765183
_cell_length_c 14.772191
_cell_angle_alpha 90.000000
_cell_angle_beta 90.000000
_cell_angle_gamma 90.000000
_cell_volume 2650.875200
_symmetry_space_group_name_H-M "C M C M"
_symmetry_group_IT_number 63
_symmetry_cell_setting 'orthorhombic'
loop_
_space_group_symop_operation_xyz
x,y,z
-x,-y,1/2+z
x,-y,-z
-x,y,1/2-z
-x,-y,-z
x,y,1/2-z
-x,y,z
x,-y,1/2+z
1/2+x,1/2+y,z
1/2-x,1/2-y,1/2+z
1/2+x,1/2-y,-z
1/2-x,1/2+y,1/2-z
1/2-x,1/2-y,-z
1/2+x,1/2+y,1/2-z
1/2-x,1/2+y,z
1/2+x,1/2-y,1/2+z
loop_
_atom_site_type_symbol
_atom_site_label
_atom_site_fract_x
_atom_site_fract_y
_atom_site_fract_z
Si Si1 0.155528 0.613789 0.904544
Si Si2 0.372498 0.656269 0.937208
Si Si3 0.568386 0.172346 0.750000
Si Si4 0.567724 0.409902 0.250000
Si Si5 0.770196 0.955858 0.642865
O O1 0.102734 0.598258 0.835625
O O2 0.194640 0.780267 0.873388
O O3 0.204844 0.469332 0.891938
O O4 0.128894 0.677181 0.999622
O O5 0.404962 0.663480 0.841929
O O6 0.308130 0.594741 0.910883
O O7 0.397170 0.500000 0.000000
O O8 0.500000 0.137679 0.750000
O O9 0.576628 0.381518 0.750000
O O10 0.500000 0.376659 0.250000
O O11 0.770165 0.991906 0.750000
#
# Coordination Sequence:
#
# PCOD9470632 Si02
#       5
#    16  16   8   8  16
#     4  11  21  35  56  85 116 150 183 236 282 347
#     4  10  19  33  50  78 113 145 183 227 284 335
#     4  11  20  33  53  80 111 146 182 229 280 325
#     4  11  20  33  53  76 115 156 190 233 278 333
#     4  11  18  34  54  79 115 147 184 231 289 336
#
# _framework density 24.142970999999999
#
# number of rings (size 3 to 8) (size 9 to 14) (size 15 to 20)
#    0.000    1.250    8.750    0.750    0.000    1.500 
#    0.000    0.000    0.000    0.000    0.000    7.000 
#    0.000   13.000    0.000    0.000    0.000    0.000 
#
# Total GULP energy -179222.878151 kJ/mol
# GULP energy per Si atom -5600.714942 kJ/mol
# Density = 2.408802 g / cm^3
# Si number density = 24.142971 Si / 1000 Ang^3
#
#
#
# Elastic Constant Matrix: (Units=GPa)
#
#
# Indices 1 2 3 4 5 6 
#
# 1 182.4236 20.2559 78.0655 0.0000 0.0000 0.0000
# 2 20.2559 92.2807 13.0869 0.0000 0.0000 0.0000
# 3 78.0655 13.0869 216.3710 0.0000 0.0000 0.0000
# 4 0.0000 0.0000 0.0000 -3.6058 0.0000 0.0000
# 5 0.0000 0.0000 0.0000 0.0000 -7.1156 0.0000
# 6 0.0000 0.0000 0.0000 0.0000 0.0000 27.6097
#
#
#
# Elastic Compliance Matrix: (Units=1/GPa)
#
#
# Indices 1 2 3 4 5 6 
#
# 1 0.006595 -0.001120 -0.002312 0.000000 0.000000 0.000000
# 2 -0.001120 0.011120 -0.000269 0.000000 0.000000 0.000000
# 3 -0.002312 -0.000269 0.005472 0.000000 0.000000 0.000000
# 4 0.000000 0.000000 0.000000 -0.277334 0.000000 0.000000
# 5 0.000000 0.000000 0.000000 0.000000 -0.140536 0.000000
# 6 0.000000 0.000000 0.000000 0.000000 0.000000 0.036219
#
#
# Mechanical properties :
#
#
# Convention : Reuss Voigt Hill
#
# Bulk Modulus (GPa) = 63.34206 79.32133 71.33170
# Shear Modulus (GPa) = -14.45920 28.68881 7.11480
#
# Velocity S-wave (km/s) = -2.44990 3.45090 1.71853
# Velocity P-wave (km/s) = 4.27674 6.98601 5.79202
#
# Compressibility (1/GPa) = 0.01578730
#
# Stress axis : x y z
#
# Youngs Moduli (GPa) = 151.62038 89.92485 182.74714
#
# Poissons Ratio (x) = 0.10070 0.42249
# Poissons Ratio (y) = 0.16979 0.04908
# Poissons Ratio (z) = 0.35052 0.02415
#
# Static dielectric constant tensor:
#      x y z
#    x 1.827050 0.000000 0.000000 
#    y 0.000000 2.104720 0.000000 
#    z 0.000000 0.000000 2.185730 
# 
# From -- ./inp_files/36221.got.cif
#   From: 2010.05.17/outbox.cif.g08.bks.cpg/sg63_19_cif.got.tgz:36221.got - 2010.06.03 15:47:04.
