data_PCOD9470512
_publ_section_title
;
Structure prediction by ZEFSAII (Michael W. Deem and Ramdas Pophale) SiO2 
 PCOD9470512
Probable space group: C M C M
;
_chemical_formula_sum "Si O2"
_cell_formula_units_Z 112
_cell_length_a 13.379774
_cell_length_b 16.889141
_cell_length_c 28.975850
_cell_angle_alpha 90.000000
_cell_angle_beta 90.000000
_cell_angle_gamma 90.000000
_cell_volume 6547.756554
_symmetry_space_group_name_H-M "C M C M"
_symmetry_group_IT_number 63
_symmetry_cell_setting 'orthorhombic'
loop_
_space_group_symop_operation_xyz
x,y,z
-x,-y,1/2+z
x,-y,-z
-x,y,1/2-z
-x,-y,-z
x,y,1/2-z
-x,y,z
x,-y,1/2+z
1/2+x,1/2+y,z
1/2-x,1/2-y,1/2+z
1/2+x,1/2-y,-z
1/2-x,1/2+y,1/2-z
1/2-x,1/2-y,-z
1/2+x,1/2+y,1/2-z
1/2-x,1/2+y,z
1/2+x,1/2-y,1/2+z
loop_
_atom_site_type_symbol
_atom_site_label
_atom_site_fract_x
_atom_site_fract_y
_atom_site_fract_z
Si Si1 0.616542 0.748959 0.625686
Si Si2 0.804418 0.928079 0.125140
Si Si3 0.713765 0.285350 0.694764
Si Si4 0.226425 0.214516 0.050142
Si Si5 0.116475 0.327183 0.378455
Si Si6 0.383298 0.452841 0.547921
Si Si7 0.115223 0.045618 0.305041
O O1 0.500000 0.766864 0.627222
O O2 0.634786 0.654228 0.621607
O O3 0.677892 0.776076 0.671012
O O4 0.674027 0.786363 0.581856
O O5 0.689261 0.902778 0.120438
O O6 0.839446 0.989404 0.086621
O O7 0.828637 0.971899 0.172670
O O8 0.714996 0.274969 0.750000
O O9 0.645619 0.221297 0.667991
O O10 0.668829 0.371673 0.683383
O O11 0.151616 0.271262 0.079136
O O12 0.177532 0.128534 0.046003
O O13 0.250000 0.250000 0.000000
O O14 0.000000 0.344315 0.380337
O O15 0.376992 0.500000 0.500000
O O16 0.500000 0.435945 0.557417
O O17 0.114666 0.039083 0.250000
O O18 0.000000 0.047225 0.321236
#
# Coordination Sequence:
#
# PCOD9470512 Si02
#       7
#    16  16  16  16  16  16  16
#     4  10  21  35  53  78 108 143 177 214 263 316
#     4  10  20  34  52  77 108 134 169 217 261 312
#     4   9  19  35  55  79 105 136 180 225 260 308
#     4  10  21  37  57  80 107 136 176 221 259 310
#     4  10  21  36  55  78 106 142 177 212 261 316
#     4  11  21  34  56  81 104 134 172 217 267 311
#     4  10  19  32  53  78 103 133 171 219 270 311
#
# _framework density 17.105094999999999
#
# number of rings (size 3 to 8) (size 9 to 14) (size 15 to 20)
#    0.000    2.286    0.000    5.571    0.000    5.714 
#    0.000    2.857    0.000    2.571    0.000    0.000 
#    0.000    0.000    0.000    0.000    0.000    0.000 
#
# Total GULP energy -312496.391975 kJ/mol
# GULP energy per Si atom -5580.292714 kJ/mol
# Density = 1.706616 g / cm^3
# Si number density = 17.105095 Si / 1000 Ang^3
#
#
#
# Elastic Constant Matrix: (Units=GPa)
#
#
# Indices 1 2 3 4 5 6 
#
# 1 163.8537 65.7909 47.2279 0.0000 0.0000 0.0000
# 2 65.7909 118.1800 46.5592 0.0000 0.0000 0.0000
# 3 47.2279 46.5592 88.6892 0.0000 0.0000 0.0000
# 4 0.0000 0.0000 0.0000 30.3746 0.0000 0.0000
# 5 0.0000 0.0000 0.0000 0.0000 10.4443 0.0000
# 6 0.0000 0.0000 0.0000 0.0000 0.0000 13.7319
#
#
#
# Elastic Compliance Matrix: (Units=1/GPa)
#
#
# Indices 1 2 3 4 5 6 
#
# 1 0.008280 -0.003621 -0.002508 0.000000 0.000000 0.000000
# 2 -0.003621 0.012252 -0.004503 0.000000 0.000000 0.000000
# 3 -0.002508 -0.004503 0.014975 0.000000 0.000000 0.000000
# 4 0.000000 0.000000 0.000000 0.032922 0.000000 0.000000
# 5 0.000000 0.000000 0.000000 0.000000 0.095746 0.000000
# 6 0.000000 0.000000 0.000000 0.000000 0.000000 0.072823
#
#
# Mechanical properties :
#
#
# Convention : Reuss Voigt Hill
#
# Bulk Modulus (GPa) = 70.21899 76.65324 73.43611
# Shear Modulus (GPa) = 19.01056 24.98648 21.99852
#
# Velocity S-wave (km/s) = 3.33738 3.82614 3.59009
# Velocity P-wave (km/s) = 7.48274 8.02680 7.75954
#
# Compressibility (1/GPa) = 0.01424116
#
# Stress axis : x y z
#
# Youngs Moduli (GPa) = 120.77343 81.61988 66.77755
#
# Poissons Ratio (x) = 0.29558 0.16748
# Poissons Ratio (y) = 0.43737 0.30073
# Poissons Ratio (z) = 0.30291 0.36757
#
# Static dielectric constant tensor:
#      x y z
#    x 1.569150 0.000000 0.000000 
#    y 0.000000 1.561790 0.000000 
#    z 0.000000 0.000000 1.523390 
# 
# From -- ./inp_files/69385.got.cif
#   From: 2010.05.17/outbox.cif.g08.bks.cpg/sg63_35_cif.got.tgz:69385.got - 2010.06.03 15:47:04.
