data_PCOD9470502
_publ_section_title
;
Structure prediction by ZEFSAII (Michael W. Deem and Ramdas Pophale) SiO2 
 PCOD9470502
Probable space group: C M C M
;
_chemical_formula_sum "Si O2"
_cell_formula_units_Z 56
_cell_length_a 10.408156
_cell_length_b 22.901858
_cell_length_c 14.082603
_cell_angle_alpha 90.000000
_cell_angle_beta 90.000000
_cell_angle_gamma 90.000000
_cell_volume 3356.815306
_symmetry_space_group_name_H-M "C M C M"
_symmetry_group_IT_number 63
_symmetry_cell_setting 'orthorhombic'
loop_
_space_group_symop_operation_xyz
x,y,z
-x,-y,1/2+z
x,-y,-z
-x,y,1/2-z
-x,-y,-z
x,y,1/2-z
-x,y,z
x,-y,1/2+z
1/2+x,1/2+y,z
1/2-x,1/2-y,1/2+z
1/2+x,1/2-y,-z
1/2-x,1/2+y,1/2-z
1/2-x,1/2-y,-z
1/2+x,1/2+y,1/2-z
1/2-x,1/2+y,z
1/2+x,1/2-y,1/2+z
loop_
_atom_site_type_symbol
_atom_site_label
_atom_site_fract_x
_atom_site_fract_y
_atom_site_fract_z
Si Si1 0.000000 0.737276 0.144660
Si Si2 0.500000 0.135634 0.636614
Si Si3 0.000000 0.230925 0.436431
Si Si4 0.853487 0.433002 0.508575
Si Si5 0.241160 0.839723 0.858659
O O1 0.126698 0.697180 0.137937
O O2 0.000000 0.765136 0.250000
O O3 0.000000 0.775812 0.050292
O O4 0.500000 0.137902 0.750000
O O5 0.500000 0.200525 0.591947
O O6 0.379628 0.099974 0.591530
O O7 0.125743 0.200787 0.393706
O O8 0.813710 0.500000 0.500000
O O9 0.762087 0.394757 0.573551
O O10 0.000000 0.433501 0.551139
O O11 0.218820 0.857345 0.750000
#
# Coordination Sequence:
#
# PCOD9470502 Si02
#       5
#     8   8   8  16  16
#     4  10  20  33  57  81 108 147 185 223 272 325
#     4  10  19  32  52  81 112 139 174 229 289 321
#     4  12  22  37  53  84 123 142 178 226 281 338
#     4   9  19  36  53  80 109 139 188 231 273 310
#     4  11  21  36  57  83 112 151 185 222 275 336
#
# _framework density 16.682479000000001
#
# number of rings (size 3 to 8) (size 9 to 14) (size 15 to 20)
#    0.857    0.857    4.286    2.143    0.000    1.143 
#    0.000    0.714    0.000    0.000    0.000    0.000 
#    0.000    0.000    0.000    0.000    0.000    0.000 
#
# Total GULP energy -155978.588256 kJ/mol
# GULP energy per Si atom -5570.663866 kJ/mol
# Density = 1.664451 g / cm^3
# Si number density = 16.682479 Si / 1000 Ang^3
#
#
#
# Elastic Constant Matrix: (Units=GPa)
#
#
# Indices 1 2 3 4 5 6 
#
# 1 76.0062 39.4269 32.9821 0.0000 0.0000 0.0000
# 2 39.4269 90.2684 46.5660 0.0000 0.0000 0.0000
# 3 32.9821 46.5660 147.6862 0.0000 0.0000 0.0000
# 4 0.0000 0.0000 0.0000 7.5221 0.0000 0.0000
# 5 0.0000 0.0000 0.0000 0.0000 17.7744 0.0000
# 6 0.0000 0.0000 0.0000 0.0000 0.0000 0.3081
#
#
#
# Elastic Compliance Matrix: (Units=1/GPa)
#
#
# Indices 1 2 3 4 5 6 
#
# 1 0.017393 -0.006680 -0.001778 0.000000 0.000000 0.000000
# 2 -0.006680 0.015795 -0.003489 0.000000 0.000000 0.000000
# 3 -0.001778 -0.003489 0.008268 0.000000 0.000000 0.000000
# 4 0.000000 0.000000 0.000000 0.132941 0.000000 0.000000
# 5 0.000000 0.000000 0.000000 0.000000 0.056261 0.000000
# 6 0.000000 0.000000 0.000000 0.000000 0.000000 3.245492
#
#
# Mechanical properties :
#
#
# Convention : Reuss Voigt Hill
#
# Bulk Modulus (GPa) = 56.93507 61.32341 59.12924
# Shear Modulus (GPa) = 1.42617 18.11999 9.77308
#
# Velocity S-wave (km/s) = 0.92561 3.29928 2.42302
# Velocity P-wave (km/s) = 5.94517 7.16608 6.58399
#
# Compressibility (1/GPa) = 0.01756387
#
# Stress axis : x y z
#
# Youngs Moduli (GPa) = 57.49284 63.31040 120.94536
#
# Poissons Ratio (x) = 0.42289 0.21507
# Poissons Ratio (y) = 0.38403 0.42192
# Poissons Ratio (z) = 0.10224 0.22086
#
# Static dielectric constant tensor:
#      x y z
#    x 1.550960 0.000000 0.000000 
#    y 0.000000 1.545000 0.000000 
#    z 0.000000 0.000000 1.582810 
# 
# From -- ./inp_files/27423.got.cif
#   From: 2010.05.17/outbox.cif.g08.bks.cpg/sg63_14_cif.got.tgz:27423.got - 2010.06.03 15:47:04.
