data_PCOD9470351
_publ_section_title
;
Structure prediction by ZEFSAII (Michael W. Deem and Ramdas Pophale) SiO2 
 PCOD9470351
Probable space group: C M C M
;
_chemical_formula_sum "Si O2"
_cell_formula_units_Z 112
_cell_length_a 19.542950
_cell_length_b 12.506037
_cell_length_c 28.626895
_cell_angle_alpha 90.000000
_cell_angle_beta 90.000000
_cell_angle_gamma 90.000000
_cell_volume 6996.552144
_symmetry_space_group_name_H-M "C M C M"
_symmetry_group_IT_number 63
_symmetry_cell_setting 'orthorhombic'
loop_
_space_group_symop_operation_xyz
x,y,z
-x,-y,1/2+z
x,-y,-z
-x,y,1/2-z
-x,-y,-z
x,y,1/2-z
-x,y,z
x,-y,1/2+z
1/2+x,1/2+y,z
1/2-x,1/2-y,1/2+z
1/2+x,1/2-y,-z
1/2-x,1/2+y,1/2-z
1/2-x,1/2-y,-z
1/2+x,1/2+y,1/2-z
1/2-x,1/2+y,z
1/2+x,1/2-y,1/2+z
loop_
_atom_site_type_symbol
_atom_site_label
_atom_site_fract_x
_atom_site_fract_y
_atom_site_fract_z
Si Si1 0.702665 0.013124 0.304651
Si Si2 0.831108 0.283177 0.633877
Si Si3 0.078614 0.874903 0.305119
Si Si4 0.920710 0.636052 0.449440
Si Si5 0.177264 0.703097 0.638431
Si Si6 0.079532 0.379012 0.442429
Si Si7 0.858938 0.092898 0.196104
O O1 0.682566 0.017387 0.250000
O O2 0.670198 0.108378 0.335199
O O3 0.784086 0.036823 0.306647
O O4 0.685231 0.899309 0.327516
O O5 0.871806 0.195750 0.663764
O O6 0.869906 0.305963 0.585701
O O7 0.753774 0.242908 0.626187
O O8 0.096337 0.863780 0.250000
O O9 0.000000 0.842524 0.311398
O O10 0.088422 0.999839 0.316866
O O11 0.907450 0.656905 0.504188
O O12 0.914411 0.508059 0.442208
O O13 0.000000 0.664445 0.439609
O O14 0.132475 0.669731 0.594002
O O15 0.142051 0.802269 0.664795
O O16 0.000000 0.353787 0.431056
O O17 0.869956 0.123868 0.250000
#
# Coordination Sequence:
#
# PCOD9470351 Si02
#       7
#    16  16  16  16  16  16  16
#     4  10  19  32  50  76 108 138 171 219 262 302
#     4  11  20  32  55  81 106 132 178 221 264 307
#     4  10  20  34  51  74 108 145 179 212 249 307
#     4   9  18  35  57  77 101 134 170 214 268 321
#     4  11  20  32  55  79 106 136 175 219 265 306
#     4   9  19  36  56  76 101 134 171 213 267 324
#     4   9  19  33  49  72 104 144 181 205 246 311
#
# _framework density 16.007884000000001
#
# number of rings (size 3 to 8) (size 9 to 14) (size 15 to 20)
#    0.000    2.143    2.857    2.143    0.000    2.286 
#    0.000    0.000    0.000    3.000    0.000    3.000 
#    0.000    0.000    0.000    0.000    0.000    0.000 
#
# Total GULP energy -312283.615313 kJ/mol
# GULP energy per Si atom -5576.493131 kJ/mol
# Density = 1.597145 g / cm^3
# Si number density = 16.007884 Si / 1000 Ang^3
#
#
#
# Elastic Constant Matrix: (Units=GPa)
#
#
# Indices 1 2 3 4 5 6 
#
# 1 71.0496 38.2269 62.2306 0.0000 0.0000 0.0000
# 2 38.2269 78.4219 53.1058 0.0000 0.0000 0.0000
# 3 62.2306 53.1058 103.7011 0.0000 0.0000 0.0000
# 4 0.0000 0.0000 0.0000 27.1961 0.0000 0.0000
# 5 0.0000 0.0000 0.0000 0.0000 26.4084 0.0000
# 6 0.0000 0.0000 0.0000 0.0000 0.0000 10.2153
#
#
#
# Elastic Compliance Matrix: (Units=1/GPa)
#
#
# Indices 1 2 3 4 5 6 
#
# 1 0.030380 -0.003771 -0.016300 0.000000 0.000000 0.000000
# 2 -0.003771 0.019989 -0.007974 0.000000 0.000000 0.000000
# 3 -0.016300 -0.007974 0.023508 0.000000 0.000000 0.000000
# 4 0.000000 0.000000 0.000000 0.036770 0.000000 0.000000
# 5 0.000000 0.000000 0.000000 0.000000 0.037867 0.000000
# 6 0.000000 0.000000 0.000000 0.000000 0.000000 0.097892
#
#
# Mechanical properties :
#
#
# Convention : Reuss Voigt Hill
#
# Bulk Modulus (GPa) = 56.21632 62.25546 59.23589
# Shear Modulus (GPa) = 16.21137 19.40456 17.80797
#
# Velocity S-wave (km/s) = 3.18577 3.48543 3.33896
# Velocity P-wave (km/s) = 6.98042 7.42782 7.20759
#
# Compressibility (1/GPa) = 0.01778843
#
# Stress axis : x y z
#
# Youngs Moduli (GPa) = 32.91607 50.02664 42.53861
#
# Poissons Ratio (x) = 0.18865 0.69338
# Poissons Ratio (y) = 0.12412 0.33919
# Poissons Ratio (z) = 0.53653 0.39890
#
# Static dielectric constant tensor:
#      x y z
#    x 1.530330 0.000000 0.000000 
#    y 0.000000 1.522640 0.000000 
#    z 0.000000 0.000000 1.513880 
# 
# From -- ./inp_files/64654.got.cif
#   From: 2010.05.17/outbox.cif.g08.bks.cpg/sg63_33_cif.got.tgz:64654.got - 2010.06.03 15:47:04.
