data_PCOD9470776
_publ_section_title
;
Structure prediction by ZEFSAII (Michael W. Deem and Ramdas Pophale) SiO2 
 PCOD9470776
Probable space group: C M C M
;
_chemical_formula_sum "Si O2"
_cell_formula_units_Z 96
_cell_length_a 24.474359
_cell_length_b 14.572012
_cell_length_c 14.227734
_cell_angle_alpha 90.000000
_cell_angle_beta 90.000000
_cell_angle_gamma 90.000000
_cell_volume 5074.188345
_symmetry_space_group_name_H-M "C M C M"
_symmetry_group_IT_number 63
_symmetry_cell_setting 'orthorhombic'
loop_
_space_group_symop_operation_xyz
x,y,z
-x,-y,1/2+z
x,-y,-z
-x,y,1/2-z
-x,-y,-z
x,y,1/2-z
-x,y,z
x,-y,1/2+z
1/2+x,1/2+y,z
1/2-x,1/2-y,1/2+z
1/2+x,1/2-y,-z
1/2-x,1/2+y,1/2-z
1/2-x,1/2-y,-z
1/2+x,1/2+y,1/2-z
1/2-x,1/2+y,z
1/2+x,1/2-y,1/2+z
loop_
_atom_site_type_symbol
_atom_site_label
_atom_site_fract_x
_atom_site_fract_y
_atom_site_fract_z
Si Si1 0.760551 0.607472 0.520021
Si Si2 0.653855 0.585019 0.862668
Si Si3 0.641864 0.186681 0.857938
Si Si4 0.435086 0.735961 0.637783
Si Si5 0.183933 0.118566 0.142093
Si Si6 0.434841 0.895504 0.493797
O O1 0.770632 0.500000 0.500000
O O2 0.709206 0.620398 0.589780
O O3 0.812560 0.650566 0.569415
O O4 0.736573 0.642076 0.421079
O O5 0.657646 0.590048 0.750000
O O6 0.602537 0.648700 0.889531
O O7 0.654990 0.476425 0.888045
O O8 0.653886 0.160352 0.750000
O O9 0.643250 0.296416 0.863420
O O10 0.585904 0.146259 0.896298
O O11 0.428225 0.752180 0.750000
O O12 0.500000 0.718884 0.621784
O O13 0.418111 0.825264 0.577124
O O14 0.201357 0.107365 0.250000
O O15 0.500000 0.899066 0.497262
O O16 0.413897 0.000000 0.500000
#
# Coordination Sequence:
#
# PCOD9470776 Si02
#       6
#    16  16  16  16  16  16
#     4  10  19  33  54  77 107 144 182 222 264 312
#     4   9  17  32  54  81 112 144 178 218 268 316
#     4  11  22  36  54  78 107 140 181 222 265 321
#     4   9  18  34  58  85 110 140 182 226 263 308
#     4   9  19  33  51  78 113 148 177 213 264 320
#     4  10  22  40  58  77 104 137 175 222 275 324
#
# _framework density 18.919283
#
# number of rings (size 3 to 8) (size 9 to 14) (size 15 to 20)
#    0.000    2.333    0.000    2.500    0.000    1.667 
#    0.000    5.000    0.000    9.500    0.000    0.000 
#    0.000    0.000    0.000    0.000    0.000    0.000 
#
# Total GULP energy -267561.025322 kJ/mol
# GULP energy per Si atom -5574.188028 kJ/mol
# Density = 1.887622 g / cm^3
# Si number density = 18.919283 Si / 1000 Ang^3
#
#
#
# Elastic Constant Matrix: (Units=GPa)
#
#
# Indices 1 2 3 4 5 6 
#
# 1 31.9132 25.6199 21.0926 0.0000 0.0000 0.0000
# 2 25.6199 79.8559 49.3857 0.0000 0.0000 0.0000
# 3 21.0926 49.3857 80.2293 0.0000 0.0000 0.0000
# 4 0.0000 0.0000 0.0000 26.9873 0.0000 0.0000
# 5 0.0000 0.0000 0.0000 0.0000 27.7634 0.0000
# 6 0.0000 0.0000 0.0000 0.0000 0.0000 15.0411
#
#
#
# Elastic Compliance Matrix: (Units=1/GPa)
#
#
# Indices 1 2 3 4 5 6 
#
# 1 0.043216 -0.011042 -0.004565 0.000000 0.000000 0.000000
# 2 -0.011042 0.023041 -0.011280 0.000000 0.000000 0.000000
# 3 -0.004565 -0.011280 0.020608 0.000000 0.000000 0.000000
# 4 0.000000 0.000000 0.000000 0.037054 0.000000 0.000000
# 5 0.000000 0.000000 0.000000 0.000000 0.036019 0.000000
# 6 0.000000 0.000000 0.000000 0.000000 0.000000 0.066484
#
#
# Mechanical properties :
#
#
# Convention : Reuss Voigt Hill
#
# Bulk Modulus (GPa) = 30.21906 42.68833 36.45369
# Shear Modulus (GPa) = 17.16872 20.35173 18.76022
#
# Velocity S-wave (km/s) = 3.01570 3.28337 3.15237
# Velocity P-wave (km/s) = 5.30407 6.08164 5.70612
#
# Compressibility (1/GPa) = 0.03309170
#
# Stress axis : x y z
#
# Youngs Moduli (GPa) = 23.13933 43.40065 48.52490
#
# Poissons Ratio (x) = 0.47923 0.22151
# Poissons Ratio (y) = 0.25550 0.54737
# Poissons Ratio (z) = 0.10563 0.48957
#
# Static dielectric constant tensor:
#      x y z
#    x 1.641640 0.000000 0.000000 
#    y 0.000000 1.692150 0.000000 
#    z 0.000000 0.000000 1.675560 
# 
# From -- ./inp_files/35348.got.cif
#   From: 2010.05.17/outbox.cif.g08.bks.cpg/sg63_18_cif.got.tgz:35348.got - 2010.06.03 15:47:04.
