data_PCOD9470981
_publ_section_title
;
Structure prediction by ZEFSAII (Michael W. Deem and Ramdas Pophale) SiO2 
 PCOD9470981
Probable space group: C M C M
;
_chemical_formula_sum "Si O2"
_cell_formula_units_Z 80
_cell_length_a 28.056405
_cell_length_b 18.388968
_cell_length_c 8.224036
_cell_angle_alpha 90.000000
_cell_angle_beta 90.000000
_cell_angle_gamma 90.000000
_cell_volume 4243.013190
_symmetry_space_group_name_H-M "C M C M"
_symmetry_group_IT_number 63
_symmetry_cell_setting 'orthorhombic'
loop_
_space_group_symop_operation_xyz
x,y,z
-x,-y,1/2+z
x,-y,-z
-x,y,1/2-z
-x,-y,-z
x,y,1/2-z
-x,y,z
x,-y,1/2+z
1/2+x,1/2+y,z
1/2-x,1/2-y,1/2+z
1/2+x,1/2-y,-z
1/2-x,1/2+y,1/2-z
1/2-x,1/2-y,-z
1/2+x,1/2+y,1/2-z
1/2-x,1/2+y,z
1/2+x,1/2-y,1/2+z
loop_
_atom_site_type_symbol
_atom_site_label
_atom_site_fract_x
_atom_site_fract_y
_atom_site_fract_z
Si Si1 0.286130 0.921333 0.054911
Si Si2 0.653455 0.216665 0.552127
Si Si3 0.080562 0.078544 0.561080
Si Si4 0.448403 0.734464 0.443544
Si Si5 0.317953 0.377650 0.556239
O O1 0.284156 0.919012 0.250000
O O2 0.318960 0.854670 0.995742
O O3 0.232803 0.910141 0.988551
O O4 0.304123 0.000000 0.000000
O O5 0.652138 0.213869 0.750000
O O6 0.599075 0.226055 0.492277
O O7 0.680104 0.292008 0.510655
O O8 0.069768 0.086008 0.750000
O O9 0.059057 0.148316 0.470718
O O10 0.137558 0.084818 0.531962
O O11 0.064284 0.000000 0.500000
O O12 0.449117 0.746966 0.250000
O O13 0.500000 0.756135 0.511354
O O14 0.326129 0.383625 0.750000
#
# Coordination Sequence:
#
# PCOD9470981 Si02
#       5
#    16  16  16  16  16
#     4  11  21  33  49  73 104 135 167 202 245 294
#     4   8  17  33  53  75  99 128 164 205 246 294
#     4  11  21  33  49  72 104 138 170 203 242 288
#     4   9  18  35  57  77  96 123 163 210 257 300
#     4  10  19  34  53  74 100 132 171 207 244 289
#
# _framework density 18.854524999999999
#
# number of rings (size 3 to 8) (size 9 to 14) (size 15 to 20)
#    0.000    2.200    0.000    5.400    0.000    0.800 
#    0.000    9.000    0.000    0.600    0.000    0.000 
#    0.000    0.000    0.000    0.000    0.000    0.200 
#
# Total GULP energy -223324.006104 kJ/mol
# GULP energy per Si atom -5583.100153 kJ/mol
# Density = 1.881161 g / cm^3
# Si number density = 18.854525 Si / 1000 Ang^3
#
#
#
# Elastic Constant Matrix: (Units=GPa)
#
#
# Indices 1 2 3 4 5 6 
#
# 1 70.5884 18.3642 -9.0136 0.0000 0.0000 0.0000
# 2 18.3642 73.4339 -5.7365 0.0000 0.0000 0.0000
# 3 -9.0136 -5.7365 21.0804 0.0000 0.0000 0.0000
# 4 0.0000 0.0000 0.0000 19.8208 0.0000 0.0000
# 5 0.0000 0.0000 0.0000 0.0000 10.2527 0.0000
# 6 0.0000 0.0000 0.0000 0.0000 0.0000 -15.2931
#
#
#
# Elastic Compliance Matrix: (Units=1/GPa)
#
#
# Indices 1 2 3 4 5 6 
#
# 1 0.015820 -0.003502 0.005811 0.000000 0.000000 0.000000
# 2 -0.003502 0.014689 0.002500 0.000000 0.000000 0.000000
# 3 0.005811 0.002500 0.050602 0.000000 0.000000 0.000000
# 4 0.000000 0.000000 0.000000 0.050452 0.000000 0.000000
# 5 0.000000 0.000000 0.000000 0.000000 0.097535 0.000000
# 6 0.000000 0.000000 0.000000 0.000000 0.000000 -0.065389
#
#
# Mechanical properties :
#
#
# Convention : Reuss Voigt Hill
#
# Bulk Modulus (GPa) = 11.02192 19.14790 15.08491
# Shear Modulus (GPa) = 27.12458 13.72198 20.42328
#
# Velocity S-wave (km/s) = 3.79703 2.70067 3.29478
# Velocity P-wave (km/s) = 5.00817 4.46122 4.74258
#
# Compressibility (1/GPa) = 0.09072833
#
# Stress axis : x y z
#
# Youngs Moduli (GPa) = 63.21192 68.07918 19.76190
#
# Poissons Ratio (x) = 0.23843 -0.11484
# Poissons Ratio (y) = 0.22138 -0.04940
# Poissons Ratio (z) = -0.36734 -0.17018
#
# Static dielectric constant tensor:
#      x y z
#    x 1.678620 0.000000 0.000000 
#    y 0.000000 1.643140 0.000000 
#    z 0.000000 0.000000 1.656020 
# 
# From -- ./inp_files/11975.got.cif
#   From: 2010.05.17/outbox.cif.g08.bks.cpg/sg63_6_cif.got.tgz:11975.got - 2010.06.03 15:47:04.
