data_PCOD9470541
_publ_section_title
;
Structure prediction by ZEFSAII (Michael W. Deem and Ramdas Pophale) SiO2 
 PCOD9470541
Probable space group: C M C M
;
_chemical_formula_sum "Si O2"
_cell_formula_units_Z 112
_cell_length_a 30.102542
_cell_length_b 11.724526
_cell_length_c 14.566732
_cell_angle_alpha 90.000000
_cell_angle_beta 90.000000
_cell_angle_gamma 90.000000
_cell_volume 5141.153788
_symmetry_space_group_name_H-M "C M C M"
_symmetry_group_IT_number 63
_symmetry_cell_setting 'orthorhombic'
loop_
_space_group_symop_operation_xyz
x,y,z
-x,-y,1/2+z
x,-y,-z
-x,y,1/2-z
-x,-y,-z
x,y,1/2-z
-x,y,z
x,-y,1/2+z
1/2+x,1/2+y,z
1/2-x,1/2-y,1/2+z
1/2+x,1/2-y,-z
1/2-x,1/2+y,1/2-z
1/2-x,1/2-y,-z
1/2+x,1/2+y,1/2-z
1/2-x,1/2+y,z
1/2+x,1/2-y,1/2+z
loop_
_atom_site_type_symbol
_atom_site_label
_atom_site_fract_x
_atom_site_fract_y
_atom_site_fract_z
Si Si1 0.329177 0.263709 0.503664
Si Si2 0.205043 0.381717 0.644660
Si Si3 0.861991 0.423231 0.141103
Si Si4 0.124208 0.864616 0.348492
Si Si5 0.301130 0.451105 0.852856
Si Si6 0.949511 0.955983 0.603945
Si Si7 0.450095 0.805803 0.139473
O O1 0.293413 0.217654 0.430053
O O2 0.336341 0.165916 0.578148
O O3 0.372162 0.288158 0.438902
O O4 0.317710 0.373765 0.563690
O O5 0.204751 0.340152 0.750000
O O6 0.160596 0.454516 0.626621
O O7 0.248263 0.461721 0.636450
O O8 0.856844 0.398692 0.250000
O O9 0.913424 0.400476 0.116235
O O10 0.120566 0.803889 0.250000
O O11 0.170420 0.934444 0.352644
O O12 0.085999 0.959800 0.351557
O O13 0.308674 0.399480 0.750000
O O14 0.936294 0.823163 0.611609
O O15 0.000000 0.964065 0.641031
O O16 0.950964 0.000000 0.500000
O O17 0.452275 0.803416 0.250000
O O18 0.500000 0.826513 0.103701
#
# Coordination Sequence:
#
# PCOD9470541 Si02
#       7
#    16  16  16  16  16  16  16
#     4  12  22  36  58  82 112 150 189 229 274 332
#     4  10  23  41  58  81 112 146 186 232 281 335
#     4  10  21  37  58  83 112 145 186 237 287 332
#     4  11  23  37  54  80 116 154 187 225 277 336
#     4  10  22  39  59  84 113 144 183 230 281 336
#     4  10  19  32  53  82 114 146 184 233 286 340
#     4   9  17  31  54  82 108 138 181 231 279 327
#
# _framework density 21.784991999999999
#
# number of rings (size 3 to 8) (size 9 to 14) (size 15 to 20)
#    0.000    1.714    0.000    5.143    0.000    6.571 
#    0.000    2.857    0.000    2.571    0.000    2.000 
#    0.000    0.000    0.000    0.000    0.000    0.000 
#
# Total GULP energy -312643.112179 kJ/mol
# GULP energy per Si atom -5582.912717 kJ/mol
# Density = 2.173541 g / cm^3
# Si number density = 21.784992 Si / 1000 Ang^3
#
#
#
# Elastic Constant Matrix: (Units=GPa)
#
#
# Indices 1 2 3 4 5 6 
#
# 1 69.8515 16.1558 24.1578 0.0000 0.0000 0.0000
# 2 16.1558 39.6203 38.8068 0.0000 0.0000 0.0000
# 3 24.1578 38.8068 96.3755 0.0000 0.0000 0.0000
# 4 0.0000 0.0000 0.0000 32.1281 0.0000 0.0000
# 5 0.0000 0.0000 0.0000 0.0000 138.3638 0.0000
# 6 0.0000 0.0000 0.0000 0.0000 0.0000 22.5413
#
#
#
# Elastic Compliance Matrix: (Units=1/GPa)
#
#
# Indices 1 2 3 4 5 6 
#
# 1 0.016110 -0.004316 -0.002300 0.000000 0.000000 0.000000
# 2 -0.004316 0.042833 -0.016165 0.000000 0.000000 0.000000
# 3 -0.002300 -0.016165 0.017462 0.000000 0.000000 0.000000
# 4 0.000000 0.000000 0.000000 0.031125 0.000000 0.000000
# 5 0.000000 0.000000 0.000000 0.000000 0.007227 0.000000
# 6 0.000000 0.000000 0.000000 0.000000 0.000000 0.044363
#
#
# Mechanical properties :
#
#
# Convention : Reuss Voigt Hill
#
# Bulk Modulus (GPa) = 32.42399 40.45425 36.43912
# Shear Modulus (GPa) = 23.25971 47.05510 35.15741
#
# Velocity S-wave (km/s) = 3.27110 4.65260 4.02162
# Velocity P-wave (km/s) = 5.40211 6.89002 6.19092
#
# Compressibility (1/GPa) = 0.03084136
#
# Stress axis : x y z
#
# Youngs Moduli (GPa) = 62.07380 23.34654 57.26776
#
# Poissons Ratio (x) = 0.10076 0.13173
# Poissons Ratio (y) = 0.26791 0.92575
# Poissons Ratio (z) = 0.14278 0.37740
#
# Static dielectric constant tensor:
#      x y z
#    x 1.836810 0.000000 0.000000 
#    y 0.000000 1.784390 0.000000 
#    z 0.000000 0.000000 1.828800 
# 
# From -- ./inp_files/38520.got.cif
#   From: 2010.05.17/outbox.cif.g08.bks.cpg/sg63_20_cif.got.tgz:38520.got - 2010.06.03 15:47:04.
