data_PCOD9470899
_publ_section_title
;
Structure prediction by ZEFSAII (Michael W. Deem and Ramdas Pophale) SiO2 
 PCOD9470899
Probable space group: C M C M
;
_chemical_formula_sum "Si O2"
_cell_formula_units_Z 96
_cell_length_a 14.169929
_cell_length_b 19.724772
_cell_length_c 16.479001
_cell_angle_alpha 90.000000
_cell_angle_beta 90.000000
_cell_angle_gamma 90.000000
_cell_volume 4605.858018
_symmetry_space_group_name_H-M "C M C M"
_symmetry_group_IT_number 63
_symmetry_cell_setting 'orthorhombic'
loop_
_space_group_symop_operation_xyz
x,y,z
-x,-y,1/2+z
x,-y,-z
-x,y,1/2-z
-x,-y,-z
x,y,1/2-z
-x,y,z
x,-y,1/2+z
1/2+x,1/2+y,z
1/2-x,1/2-y,1/2+z
1/2+x,1/2-y,-z
1/2-x,1/2+y,1/2-z
1/2-x,1/2-y,-z
1/2+x,1/2+y,1/2-z
1/2-x,1/2+y,z
1/2+x,1/2-y,1/2+z
loop_
_atom_site_type_symbol
_atom_site_label
_atom_site_fract_x
_atom_site_fract_y
_atom_site_fract_z
Si Si1 0.611044 0.139136 0.114202
Si Si2 0.105371 0.515886 0.656762
Si Si3 0.394550 0.260912 0.656140
Si Si4 0.107470 0.856901 0.002252
Si Si5 0.295541 0.924978 0.473982
Si Si6 0.310809 0.719149 0.659368
O O1 0.500000 0.151939 0.120225
O O2 0.665115 0.200681 0.154975
O O3 0.630322 0.064286 0.149905
O O4 0.644898 0.131289 0.021287
O O5 0.097865 0.531776 0.750000
O O6 0.181384 0.566535 0.619371
O O7 0.000000 0.524154 0.619117
O O8 0.390095 0.288304 0.750000
O O9 0.500000 0.229798 0.648335
O O10 0.386651 0.314408 0.581801
O O11 0.301940 0.215003 0.648415
O O12 0.188006 0.913719 0.001847
O O13 0.136077 0.813405 0.082397
O O14 0.000000 0.880422 0.010479
O O15 0.329382 0.000000 0.500000
O O16 0.337244 0.694467 0.750000
#
# Coordination Sequence:
#
# PCOD9470899 Si02
#       6
#    16  16  16  16  16  16
#     4  10  19  33  56  84 113 144 184 233 285 342
#     4   9  18  34  56  82 112 146 188 239 288 335
#     4   9  19  37  60  84 111 145 187 235 283 333
#     4  11  23  39  59  83 116 151 189 237 285 338
#     4  10  21  37  56  80 109 150 197 236 282 331
#     4  11  22  37  59  87 119 152 186 226 284 351
#
# _framework density 20.843019999999999
#
# number of rings (size 3 to 8) (size 9 to 14) (size 15 to 20)
#    0.000    2.000    1.667    2.000    0.000    5.000 
#    0.000    0.833    0.000    2.000    0.000    2.333 
#    0.000    0.000    0.000    0.000    0.000    0.000 
#
# Total GULP energy -267576.054426 kJ/mol
# GULP energy per Si atom -5574.501134 kJ/mol
# Density = 2.079558 g / cm^3
# Si number density = 20.843020 Si / 1000 Ang^3
#
#
#
# Elastic Constant Matrix: (Units=GPa)
#
#
# Indices 1 2 3 4 5 6 
#
# 1 80.8231 10.7469 14.2865 0.0000 0.0000 0.0000
# 2 10.7469 36.4774 9.1879 0.0000 0.0000 0.0000
# 3 14.2865 9.1879 104.7955 0.0000 0.0000 0.0000
# 4 0.0000 0.0000 0.0000 14.0090 0.0000 0.0000
# 5 0.0000 0.0000 0.0000 0.0000 31.0596 0.0000
# 6 0.0000 0.0000 0.0000 0.0000 0.0000 22.1125
#
#
#
# Elastic Compliance Matrix: (Units=1/GPa)
#
#
# Indices 1 2 3 4 5 6 
#
# 1 0.013098 -0.003486 -0.001480 0.000000 0.000000 0.000000
# 2 -0.003486 0.028961 -0.002064 0.000000 0.000000 0.000000
# 3 -0.001480 -0.002064 0.009925 0.000000 0.000000 0.000000
# 4 0.000000 0.000000 0.000000 0.071383 0.000000 0.000000
# 5 0.000000 0.000000 0.000000 0.000000 0.032196 0.000000
# 6 0.000000 0.000000 0.000000 0.000000 0.000000 0.045223
#
#
# Mechanical properties :
#
#
# Convention : Reuss Voigt Hill
#
# Bulk Modulus (GPa) = 26.36840 32.28208 29.32524
# Shear Modulus (GPa) = 21.97919 25.96118 23.97019
#
# Velocity S-wave (km/s) = 3.25085 3.53307 3.39489
# Velocity P-wave (km/s) = 5.17388 5.67145 5.42837
#
# Compressibility (1/GPa) = 0.03792418
#
# Stress axis : x y z
#
# Youngs Moduli (GPa) = 76.34842 34.52897 100.75464
#
# Poissons Ratio (x) = 0.12037 0.14911
# Poissons Ratio (y) = 0.26616 0.20795
# Poissons Ratio (z) = 0.11299 0.07127
#
# Static dielectric constant tensor:
#      x y z
#    x 1.744720 0.000000 0.000000 
#    y 0.000000 1.742410 0.000000 
#    z 0.000000 0.000000 1.886970 
# 
# From -- ./inp_files/31872.got.cif
#   From: 2010.05.17/outbox.cif.g08.bks.cpg/sg63_16_cif.got.tgz:31872.got - 2010.06.03 15:47:04.
