data_PCOD9470663
_publ_section_title
;
Structure prediction by ZEFSAII (Michael W. Deem and Ramdas Pophale) SiO2 
 PCOD9470663
Probable space group: C M C M
;
_chemical_formula_sum "Si O2"
_cell_formula_units_Z 120
_cell_length_a 27.892421
_cell_length_b 28.632551
_cell_length_c 8.607556
_cell_angle_alpha 90.000000
_cell_angle_beta 90.000000
_cell_angle_gamma 90.000000
_cell_volume 6874.262492
_symmetry_space_group_name_H-M "C M C M"
_symmetry_group_IT_number 63
_symmetry_cell_setting 'orthorhombic'
loop_
_space_group_symop_operation_xyz
x,y,z
-x,-y,1/2+z
x,-y,-z
-x,y,1/2-z
-x,-y,-z
x,y,1/2-z
-x,y,z
x,-y,1/2+z
1/2+x,1/2+y,z
1/2-x,1/2-y,1/2+z
1/2+x,1/2-y,-z
1/2-x,1/2+y,1/2-z
1/2-x,1/2-y,-z
1/2+x,1/2+y,1/2-z
1/2-x,1/2+y,z
1/2+x,1/2-y,1/2+z
loop_
_atom_site_type_symbol
_atom_site_label
_atom_site_fract_x
_atom_site_fract_y
_atom_site_fract_z
Si Si1 0.113443 0.450147 0.563858
Si Si2 0.203666 0.601729 0.936259
Si Si3 0.946177 0.640119 0.063002
Si Si4 0.296620 0.723049 0.062540
Si Si5 0.193433 0.115469 0.063552
Si Si6 0.106407 0.946787 0.062939
Si Si7 0.142250 0.308025 0.436510
Si Si8 0.000000 0.052677 0.562989
O O1 0.098610 0.500000 0.500000
O O2 0.116773 0.450850 0.750000
O O3 0.164745 0.435535 0.493712
O O4 0.076120 0.409829 0.516733
O O5 0.207135 0.600934 0.750000
O O6 0.181014 0.652167 0.984913
O O7 0.255696 0.594646 0.009050
O O8 0.946821 0.641231 0.250000
O O9 0.000000 0.646241 0.004989
O O10 0.908698 0.678025 0.003970
O O11 0.293082 0.722268 0.250000
O O12 0.304195 0.669859 0.010005
O O13 0.340105 0.757036 0.017044
O O14 0.250000 0.750000 0.000000
O O15 0.190779 0.114858 0.250000
O O16 0.148652 0.086494 0.997787
O O17 0.108444 0.948556 0.250000
O O18 0.052731 0.928684 0.015726
O O19 0.111854 0.000000 0.000000
O O20 0.140142 0.310277 0.250000
O O21 0.000000 0.052293 0.750000
O O22 0.000000 0.000000 0.500000
#
# Coordination Sequence:
#
# PCOD9470663 Si02
#       8
#    16  16  16  16  16  16  16   8
#     4  10  20  34  51  73 103 137 175 219 268 319
#     4  10  19  33  52  73 101 136 174 213 259 315
#     4   9  19  35  54  76 102 134 175 222 269 318
#     4  10  20  34  54  80 109 139 175 216 260 310
#     4  11  22  34  52  81 113 142 175 215 261 312
#     4  10  20  36  57  81 109 140 176 216 259 308
#     4   9  18  33  53  77 102 132 172 216 261 313
#     4   8  16  32  56  80 100 130 170 212 254 302
#
# _framework density 17.456417999999999
#
# number of rings (size 3 to 8) (size 9 to 14) (size 15 to 20)
#    0.000    2.267    1.333    1.600    0.000    3.733 
#    0.000    2.667    1.467    0.000    0.000    0.000 
#    0.000    0.000    0.000    0.000    0.000    0.000 
#
# Total GULP energy -334562.578555 kJ/mol
# GULP energy per Si atom -5576.042976 kJ/mol
# Density = 1.741669 g / cm^3
# Si number density = 17.456418 Si / 1000 Ang^3
#
#
#
# Elastic Constant Matrix: (Units=GPa)
#
#
# Indices 1 2 3 4 5 6 
#
# 1 173.6455 55.4018 30.9993 0.0000 0.0000 0.0000
# 2 55.4018 73.1124 18.2473 0.0000 0.0000 0.0000
# 3 30.9993 18.2473 28.6965 0.0000 0.0000 0.0000
# 4 0.0000 0.0000 0.0000 20.9956 0.0000 0.0000
# 5 0.0000 0.0000 0.0000 0.0000 25.8301 0.0000
# 6 0.0000 0.0000 0.0000 0.0000 0.0000 16.3879
#
#
#
# Elastic Compliance Matrix: (Units=1/GPa)
#
#
# Indices 1 2 3 4 5 6 
#
# 1 0.008372 -0.004858 -0.005955 0.000000 0.000000 0.000000
# 2 -0.004858 0.019076 -0.006883 0.000000 0.000000 0.000000
# 3 -0.005955 -0.006883 0.045657 0.000000 0.000000 0.000000
# 4 0.000000 0.000000 0.000000 0.047629 0.000000 0.000000
# 5 0.000000 0.000000 0.000000 0.000000 0.038715 0.000000
# 6 0.000000 0.000000 0.000000 0.000000 0.000000 0.061021
#
#
# Mechanical properties :
#
#
# Convention : Reuss Voigt Hill
#
# Bulk Modulus (GPa) = 26.51498 53.86124 40.18811
# Shear Modulus (GPa) = 18.62682 24.02977 21.32829
#
# Velocity S-wave (km/s) = 3.27011 3.71422 3.49922
# Velocity P-wave (km/s) = 5.42959 7.02251 6.27678
#
# Compressibility (1/GPa) = 0.03771453
#
# Stress axis : x y z
#
# Youngs Moduli (GPa) = 119.44976 52.42117 21.90269
#
# Poissons Ratio (x) = 0.25464 0.13042
# Poissons Ratio (y) = 0.58024 0.15075
# Poissons Ratio (z) = 0.71129 0.36080
#
# Static dielectric constant tensor:
#      x y z
#    x 1.596600 0.000000 0.000000 
#    y 0.000000 1.589510 0.000000 
#    z 0.000000 0.000000 1.594880 
# 
# From -- ./inp_files/13158.got.cif
#   From: 2010.05.17/outbox.cif.g08.bks.cpg/sg63_7_cif.got.tgz:13158.got - 2010.06.03 15:47:04.
