data_PCOD9470490
_publ_section_title
;
Structure prediction by ZEFSAII (Michael W. Deem and Ramdas Pophale) SiO2 
 PCOD9470490
Probable space group: C M C M
;
_chemical_formula_sum "Si O2"
_cell_formula_units_Z 112
_cell_length_a 30.101525
_cell_length_b 11.509315
_cell_length_c 14.861054
_cell_angle_alpha 90.000000
_cell_angle_beta 90.000000
_cell_angle_gamma 90.000000
_cell_volume 5148.581444
_symmetry_space_group_name_H-M "C M C M"
_symmetry_group_IT_number 63
_symmetry_cell_setting 'orthorhombic'
loop_
_space_group_symop_operation_xyz
x,y,z
-x,-y,1/2+z
x,-y,-z
-x,y,1/2-z
-x,-y,-z
x,y,1/2-z
-x,y,z
x,-y,1/2+z
1/2+x,1/2+y,z
1/2-x,1/2-y,1/2+z
1/2+x,1/2-y,-z
1/2-x,1/2+y,1/2-z
1/2-x,1/2-y,-z
1/2+x,1/2+y,1/2-z
1/2-x,1/2+y,z
1/2+x,1/2-y,1/2+z
loop_
_atom_site_type_symbol
_atom_site_label
_atom_site_fract_x
_atom_site_fract_y
_atom_site_fract_z
Si Si1 0.638490 0.061355 0.853737
Si Si2 0.550565 0.554192 0.400487
Si Si3 0.049865 0.316927 0.142749
Si Si4 0.333795 0.248925 0.505617
Si Si5 0.705030 0.537980 0.100598
Si Si6 0.293883 0.142988 0.152745
Si Si7 0.625266 0.377182 0.347491
O O1 0.646701 0.103988 0.750000
O O2 0.585999 0.081816 0.870540
O O3 0.658811 0.135823 0.934656
O O4 0.661948 0.936315 0.855862
O O5 0.549299 0.500000 0.500000
O O6 0.500000 0.547872 0.363813
O O7 0.563082 0.690867 0.397495
O O8 0.586424 0.472478 0.353324
O O9 0.048251 0.297404 0.250000
O O10 0.000000 0.345563 0.111280
O O11 0.322800 0.345995 0.579247
O O12 0.294341 0.224433 0.434168
O O13 0.371802 0.295168 0.435966
O O14 0.750533 0.563230 0.149927
O O15 0.671420 0.448343 0.145361
O O16 0.717287 0.500000 0.000000
O O17 0.293655 0.202650 0.250000
O O18 0.620959 0.318072 0.250000
#
# Coordination Sequence:
#
# PCOD9470490 Si02
#       7
#    16  16  16  16  16  16  16
#     4  10  21  36  58  84 110 145 190 237 282 328
#     4  10  19  32  52  79 112 148 187 234 286 339
#     4   9  17  31  53  81 109 138 179 231 281 328
#     4  11  22  38  57  80 114 151 185 228 277 333
#     4  10  21  37  57  80 109 144 184 229 276 328
#     4  11  23  39  58  82 111 146 187 231 281 333
#     4  11  22  36  55  82 116 151 185 225 278 337
#
# _framework density 21.753564999999998
#
# number of rings (size 3 to 8) (size 9 to 14) (size 15 to 20)
#    0.000    1.714    0.000    6.000    0.000    4.286 
#    0.000    2.857    0.000    2.571    0.000    2.000 
#    0.000    0.000    0.000    0.000    0.000    0.000 
#
# Total GULP energy -312317.919861 kJ/mol
# GULP energy per Si atom -5577.105712 kJ/mol
# Density = 2.170405 g / cm^3
# Si number density = 21.753565 Si / 1000 Ang^3
#
#
#
# Elastic Constant Matrix: (Units=GPa)
#
#
# Indices 1 2 3 4 5 6 
#
# 1 89.5259 20.4023 28.2796 0.0000 0.0000 0.0000
# 2 20.4023 38.4995 8.9510 0.0000 0.0000 0.0000
# 3 28.2796 8.9510 81.7790 0.0000 0.0000 0.0000
# 4 0.0000 0.0000 0.0000 24.9507 0.0000 0.0000
# 5 0.0000 0.0000 0.0000 0.0000 -22.8685 0.0000
# 6 0.0000 0.0000 0.0000 0.0000 0.0000 19.7281
#
#
#
# Elastic Compliance Matrix: (Units=1/GPa)
#
#
# Indices 1 2 3 4 5 6 
#
# 1 0.013935 -0.006428 -0.004115 0.000000 0.000000 0.000000
# 2 -0.006428 0.029618 -0.001019 0.000000 0.000000 0.000000
# 3 -0.004115 -0.001019 0.013763 0.000000 0.000000 0.000000
# 4 0.000000 0.000000 0.000000 0.040079 0.000000 0.000000
# 5 0.000000 0.000000 0.000000 0.000000 -0.043728 0.000000
# 6 0.000000 0.000000 0.000000 0.000000 0.000000 0.050689
#
#
# Mechanical properties :
#
#
# Convention : Reuss Voigt Hill
#
# Bulk Modulus (GPa) = 29.24737 36.11890 32.68314
# Shear Modulus (GPa) = 36.00346 14.50683 25.25514
#
# Velocity S-wave (km/s) = 4.07266 2.58519 3.41099
# Velocity P-wave (km/s) = 5.96569 5.05476 5.52902
#
# Compressibility (1/GPa) = 0.03419111
#
# Stress axis : x y z
#
# Youngs Moduli (GPa) = 71.76336 33.76376 72.66041
#
# Poissons Ratio (x) = 0.21702 0.29901
# Poissons Ratio (y) = 0.46128 0.07404
# Poissons Ratio (z) = 0.29532 0.03441
#
# Static dielectric constant tensor:
#      x y z
#    x 1.832920 0.000000 0.000000 
#    y 0.000000 1.835270 0.000000 
#    z 0.000000 0.000000 1.826970 
# 
# From -- ./inp_files/38586.got.cif
#   From: 2010.05.17/outbox.cif.g08.bks.cpg/sg63_20_cif.got.tgz:38586.got - 2010.06.03 15:47:04.
