data_PCOD9470737
_publ_section_title
;
Structure prediction by ZEFSAII (Michael W. Deem and Ramdas Pophale) SiO2 
 PCOD9470737
Probable space group: C M C M
;
_chemical_formula_sum "Si O2"
_cell_formula_units_Z 80
_cell_length_a 14.958675
_cell_length_b 31.097606
_cell_length_c 8.978342
_cell_angle_alpha 90.000000
_cell_angle_beta 90.000000
_cell_angle_gamma 90.000000
_cell_volume 4176.535987
_symmetry_space_group_name_H-M "C M C M"
_symmetry_group_IT_number 63
_symmetry_cell_setting 'orthorhombic'
loop_
_space_group_symop_operation_xyz
x,y,z
-x,-y,1/2+z
x,-y,-z
-x,y,1/2-z
-x,-y,-z
x,y,1/2-z
-x,y,z
x,-y,1/2+z
1/2+x,1/2+y,z
1/2-x,1/2-y,1/2+z
1/2+x,1/2-y,-z
1/2-x,1/2+y,1/2-z
1/2-x,1/2-y,-z
1/2+x,1/2+y,1/2-z
1/2-x,1/2+y,z
1/2+x,1/2-y,1/2+z
loop_
_atom_site_type_symbol
_atom_site_label
_atom_site_fract_x
_atom_site_fract_y
_atom_site_fract_z
Si Si1 0.000000 0.800900 0.569108
Si Si2 0.500000 0.203007 0.568817
Si Si3 0.347287 0.633077 0.070922
Si Si4 0.347650 0.862991 0.068653
Si Si5 0.138517 0.456935 0.420179
Si Si6 0.143289 0.956069 0.421990
O O1 0.086404 0.828625 0.526308
O O2 0.000000 0.799242 0.750000
O O3 0.000000 0.751952 0.514412
O O4 0.500000 0.204042 0.750000
O O5 0.586913 0.175522 0.525793
O O6 0.342460 0.630609 0.250000
O O7 0.249725 0.641244 0.002509
O O8 0.381596 0.587333 0.008217
O O9 0.339681 0.864312 0.250000
O O10 0.386248 0.909713 0.021245
O O11 0.107900 0.500000 0.500000
O O12 0.109897 0.459406 0.250000
O O13 0.247538 0.456943 0.423942
O O14 0.115523 0.954416 0.250000
O O15 0.112858 0.000000 0.500000
#
# Coordination Sequence:
#
# PCOD9470737 Si02
#       6
#     8   8  16  16  16  16
#     4   9  20  36  54  77 102 134 177 221 270 322
#     4   9  18  36  58  75  99 136 176 221 271 324
#     4  10  19  33  53  77 107 139 173 216 262 313
#     4   9  18  33  54  78 102 134 177 218 261 315
#     4   8  14  24  41  68  99 129 162 198 238 291
#     4   9  16  28  48  76 107 139 175 211 253 306
#
# _framework density 19.154629
#
# number of rings (size 3 to 8) (size 9 to 14) (size 15 to 20)
#    0.000    3.000    0.000    2.400    0.000    5.600 
#    0.000    3.500    0.000    3.600    0.000    0.000 
#    0.000    0.000    0.000    0.000    0.000    0.000 
#
# Total GULP energy -223092.892869 kJ/mol
# GULP energy per Si atom -5577.322322 kJ/mol
# Density = 1.911103 g / cm^3
# Si number density = 19.154629 Si / 1000 Ang^3
#
#
#
# Elastic Constant Matrix: (Units=GPa)
#
#
# Indices 1 2 3 4 5 6 
#
# 1 91.4669 83.5392 28.6726 0.0000 0.0000 0.0000
# 2 83.5392 235.3816 56.9805 0.0000 0.0000 0.0000
# 3 28.6726 56.9805 51.3007 0.0000 0.0000 0.0000
# 4 0.0000 0.0000 0.0000 24.7010 0.0000 0.0000
# 5 0.0000 0.0000 0.0000 0.0000 -4.1923 0.0000
# 6 0.0000 0.0000 0.0000 0.0000 0.0000 38.2210
#
#
#
# Elastic Compliance Matrix: (Units=1/GPa)
#
#
# Indices 1 2 3 4 5 6 
#
# 1 0.016690 -0.005013 -0.003760 0.000000 0.000000 0.000000
# 2 -0.005013 0.007317 -0.005325 0.000000 0.000000 0.000000
# 3 -0.003760 -0.005325 0.027509 0.000000 0.000000 0.000000
# 4 0.000000 0.000000 0.000000 0.040484 0.000000 0.000000
# 5 0.000000 0.000000 0.000000 0.000000 -0.238531 0.000000
# 6 0.000000 0.000000 0.000000 0.000000 0.000000 0.026164
#
#
# Mechanical properties :
#
#
# Convention : Reuss Voigt Hill
#
# Bulk Modulus (GPa) = 42.88254 79.61489 61.24872
# Shear Modulus (GPa) = -59.24319 25.67640 -16.78340
#
# Velocity S-wave (km/s) = -5.56741 3.66523 -2.96329
# Velocity P-wave (km/s) = 4.34648 7.71793 4.50968
#
# Compressibility (1/GPa) = 0.02331951
#
# Stress axis : x y z
#
# Youngs Moduli (GPa) = 59.91447 136.67323 36.35206
#
# Poissons Ratio (x) = 0.68519 0.13669
# Poissons Ratio (y) = 0.30037 0.19357
# Poissons Ratio (z) = 0.22528 0.72775
#
# Static dielectric constant tensor:
#      x y z
#    x 1.693130 0.000000 0.000000 
#    y 0.000000 1.669010 0.000000 
#    z 0.000000 0.000000 1.644280 
# 
# From -- ./inp_files/6513.got.cif
#   From: 2010.05.17/outbox.cif.g08.bks.cpg/sg63_4_cif.got.tgz:6513.got - 2010.06.03 15:47:04.
