data_PCOD9470217
_publ_section_title
;
Structure prediction by ZEFSAII (Michael W. Deem and Ramdas Pophale) SiO2 
 PCOD9470217
Probable space group: C M C M
;
_chemical_formula_sum "Si O2"
_cell_formula_units_Z 96
_cell_length_a 7.398495
_cell_length_b 20.534348
_cell_length_c 29.914762
_cell_angle_alpha 90.000000
_cell_angle_beta 90.000000
_cell_angle_gamma 90.000000
_cell_volume 4544.748494
_symmetry_space_group_name_H-M "C M C M"
_symmetry_group_IT_number 63
_symmetry_cell_setting 'orthorhombic'
loop_
_space_group_symop_operation_xyz
x,y,z
-x,-y,1/2+z
x,-y,-z
-x,y,1/2-z
-x,-y,-z
x,y,1/2-z
-x,y,z
x,-y,1/2+z
1/2+x,1/2+y,z
1/2-x,1/2-y,1/2+z
1/2+x,1/2-y,-z
1/2-x,1/2+y,1/2-z
1/2-x,1/2-y,-z
1/2+x,1/2+y,1/2-z
1/2-x,1/2+y,z
1/2+x,1/2-y,1/2+z
loop_
_atom_site_type_symbol
_atom_site_label
_atom_site_fract_x
_atom_site_fract_y
_atom_site_fract_z
Si Si1 0.284262 0.681032 0.522566
Si Si2 0.211302 0.998386 0.123815
Si Si3 0.717805 0.101560 0.300889
Si Si4 0.279725 0.248630 0.198404
Si Si5 0.718515 0.559325 0.033287
Si Si6 0.221342 0.850125 0.377042
O O1 0.500000 0.671916 0.525515
O O2 0.250000 0.750000 0.500000
O O3 0.212623 0.624655 0.489921
O O4 0.219924 0.673524 0.573652
O O5 0.224809 0.044071 0.166710
O O6 0.288211 0.038336 0.081756
O O7 0.000000 0.988541 0.113328
O O8 0.282002 0.925009 0.129334
O O9 0.777833 0.090603 0.250000
O O10 0.500000 0.102180 0.300997
O O11 0.776033 0.174788 0.314165
O O12 0.224694 0.260972 0.250000
O O13 0.500000 0.249212 0.198467
O O14 0.219036 0.301941 0.162539
O O15 0.500000 0.566563 0.036765
O O16 0.754400 0.500000 0.000000
O O17 0.000000 0.848727 0.375899
#
# Coordination Sequence:
#
# PCOD9470217 Si02
#       6
#    16  16  16  16  16  16
#     4  10  20  33  50  73 101 132 166 204 244 292
#     4  10  19  31  52  78  99 127 168 209 246 288
#     4   9  19  35  52  71  99 133 162 195 250 308
#     4   8  15  29  48  69  94 124 159 200 243 286
#     4   9  16  31  51  70 100 138 166 194 244 300
#     4   9  17  30  49  73  98 127 166 206 242 283
#
# _framework density 21.123280000000001
#
# number of rings (size 3 to 8) (size 9 to 14) (size 15 to 20)
#    0.000    2.833    1.667    1.000    2.333    1.000 
#    0.000    2.500    0.000    2.000    0.000    0.000 
#    0.000    0.000    0.000    0.000    0.000    0.000 
#
# Total GULP energy -267898.792150 kJ/mol
# GULP energy per Si atom -5581.224836 kJ/mol
# Density = 2.107520 g / cm^3
# Si number density = 21.123280 Si / 1000 Ang^3
#
#
#
# Elastic Constant Matrix: (Units=GPa)
#
#
# Indices 1 2 3 4 5 6 
#
# 1 66.7366 -5.2326 -4.4281 0.0000 0.0000 0.0000
# 2 -5.2326 197.6327 121.6840 0.0000 0.0000 0.0000
# 3 -4.4281 121.6840 151.4165 0.0000 0.0000 0.0000
# 4 0.0000 0.0000 0.0000 35.0461 0.0000 0.0000
# 5 0.0000 0.0000 0.0000 0.0000 5.1280 0.0000
# 6 0.0000 0.0000 0.0000 0.0000 0.0000 -46.8192
#
#
#
# Elastic Compliance Matrix: (Units=1/GPa)
#
#
# Indices 1 2 3 4 5 6 
#
# 1 0.015020 0.000252 0.000237 0.000000 0.000000 0.000000
# 2 0.000252 0.010020 -0.008045 0.000000 0.000000 0.000000
# 3 0.000237 -0.008045 0.013077 0.000000 0.000000 0.000000
# 4 0.000000 0.000000 0.000000 0.028534 0.000000 0.000000
# 5 0.000000 0.000000 0.000000 0.000000 0.195009 0.000000
# 6 0.000000 0.000000 0.000000 0.000000 0.000000 -0.021359
#
#
# Mechanical properties :
#
#
# Convention : Reuss Voigt Hill
#
# Bulk Modulus (GPa) = 43.47162 71.09249 57.28205
# Shear Modulus (GPa) = 19.00556 18.92180 18.96368
#
# Velocity S-wave (km/s) = 3.00283 2.99620 2.99952
# Velocity P-wave (km/s) = 5.71378 6.76008 6.25883
#
# Compressibility (1/GPa) = 0.02300351
#
# Stress axis : x y z
#
# Youngs Moduli (GPa) = 66.57906 99.80072 76.47281
#
# Poissons Ratio (x) = -0.02513 -0.01811
# Poissons Ratio (y) = -0.01677 0.61523
# Poissons Ratio (z) = -0.01577 0.80290
#
# Static dielectric constant tensor:
#      x y z
#    x 3.926620 0.000000 0.000000 
#    y 0.000000 1.734330 0.000000 
#    z 0.000000 0.000000 1.688210 
# 
# From -- ./inp_files/59931.got.cif
#   From: 2010.05.17/outbox.cif.g08.bks.cpg/sg63_30_cif.got.tgz:59931.got - 2010.06.03 15:47:04.
