data_PCOD9470078
_publ_section_title
;
Structure prediction by ZEFSAII (Michael W. Deem and Ramdas Pophale) SiO2 
 PCOD9470078
Probable space group: C M C M
;
_chemical_formula_sum "Si O2"
_cell_formula_units_Z 80
_cell_length_a 19.309525
_cell_length_b 27.482793
_cell_length_c 8.473156
_cell_angle_alpha 90.000000
_cell_angle_beta 90.000000
_cell_angle_gamma 90.000000
_cell_volume 4496.531702
_symmetry_space_group_name_H-M "C M C M"
_symmetry_group_IT_number 63
_symmetry_cell_setting 'orthorhombic'
loop_
_space_group_symop_operation_xyz
x,y,z
-x,-y,1/2+z
x,-y,-z
-x,y,1/2-z
-x,-y,-z
x,y,1/2-z
-x,y,z
x,-y,1/2+z
1/2+x,1/2+y,z
1/2-x,1/2-y,1/2+z
1/2+x,1/2-y,-z
1/2-x,1/2+y,1/2-z
1/2-x,1/2-y,-z
1/2+x,1/2+y,1/2-z
1/2-x,1/2+y,z
1/2+x,1/2-y,1/2+z
loop_
_atom_site_type_symbol
_atom_site_label
_atom_site_fract_x
_atom_site_fract_y
_atom_site_fract_z
Si Si1 0.640141 0.447201 0.560848
Si Si2 0.423823 0.944814 0.559049
Si Si3 0.785571 0.798760 0.939072
Si Si4 0.218179 0.600449 0.441975
Si Si5 0.421750 0.346736 0.060844
O O1 0.618110 0.500000 0.500000
O O2 0.636841 0.446595 0.750000
O O3 0.719923 0.436095 0.511246
O O4 0.597160 0.401150 0.497759
O O5 0.422338 0.945059 0.750000
O O6 0.500000 0.926319 0.509991
O O7 0.357233 0.915307 0.501465
O O8 0.417700 0.000000 0.500000
O O9 0.786309 0.798149 0.750000
O O10 0.741206 0.845849 0.992295
O O11 0.750000 0.750000 0.000000
O O12 0.863310 0.810078 0.997177
O O13 0.216921 0.600334 0.250000
O O14 0.418711 0.346509 0.250000
O O15 0.500000 0.334502 0.010804
#
# Coordination Sequence:
#
# PCOD9470078 Si02
#       5
#    16  16  16  16  16
#     4  10  19  31  49  73 103 138 174 212 253 303
#     4   9  16  27  44  66  94 127 160 195 237 284
#     4  10  20  36  57  78 102 132 169 212 257 307
#     4   8  16  30  47  69  96 128 167 207 246 293
#     4  10  21  37  56  78 104 134 170 212 259 312
#
# _framework density 17.791491000000001
#
# number of rings (size 3 to 8) (size 9 to 14) (size 15 to 20)
#    0.000    2.600    0.000    3.600    0.000    2.000 
#    0.000    6.000    0.000    3.600    0.000    0.000 
#    0.000    0.000    0.000    0.000    0.000    0.000 
#
# Total GULP energy -223029.797773 kJ/mol
# GULP energy per Si atom -5575.744944 kJ/mol
# Density = 1.775100 g / cm^3
# Si number density = 17.791491 Si / 1000 Ang^3
#
#
#
# Elastic Constant Matrix: (Units=GPa)
#
#
# Indices 1 2 3 4 5 6 
#
# 1 165.9899 63.0545 31.8753 0.0000 0.0000 0.0000
# 2 63.0545 97.4226 23.3714 0.0000 0.0000 0.0000
# 3 31.8753 23.3714 37.0438 0.0000 0.0000 0.0000
# 4 0.0000 0.0000 0.0000 28.5647 0.0000 0.0000
# 5 0.0000 0.0000 0.0000 0.0000 20.9779 0.0000
# 6 0.0000 0.0000 0.0000 0.0000 0.0000 13.0523
#
#
#
# Elastic Compliance Matrix: (Units=1/GPa)
#
#
# Indices 1 2 3 4 5 6 
#
# 1 0.008602 -0.004468 -0.004583 0.000000 0.000000 0.000000
# 2 -0.004468 0.014416 -0.005251 0.000000 0.000000 0.000000
# 3 -0.004583 -0.005251 0.034251 0.000000 0.000000 0.000000
# 4 0.000000 0.000000 0.000000 0.035008 0.000000 0.000000
# 5 0.000000 0.000000 0.000000 0.000000 0.047669 0.000000
# 6 0.000000 0.000000 0.000000 0.000000 0.000000 0.076615
#
#
# Mechanical properties :
#
#
# Convention : Reuss Voigt Hill
#
# Bulk Modulus (GPa) = 34.88433 59.67318 47.27876
# Shear Modulus (GPa) = 19.62948 24.66265 22.14606
#
# Velocity S-wave (km/s) = 3.32521 3.72722 3.53194
# Velocity P-wave (km/s) = 5.86452 7.22052 6.57756
#
# Compressibility (1/GPa) = 0.02866616
#
# Stress axis : x y z
#
# Youngs Moduli (GPa) = 116.25614 69.36786 29.19616
#
# Poissons Ratio (x) = 0.30993 0.13380
# Poissons Ratio (y) = 0.51942 0.15330
# Poissons Ratio (z) = 0.53277 0.36423
#
# Static dielectric constant tensor:
#      x y z
#    x 1.635960 0.000000 0.000000 
#    y 0.000000 1.579870 0.000000 
#    z 0.000000 0.000000 1.604490 
# 
# From -- ./inp_files/6362.got.cif
#   From: 2010.05.17/outbox.cif.g08.bks.cpg/sg63_4_cif.got.tgz:6362.got - 2010.06.03 15:47:04.
