data_PCOD9470543
_publ_section_title
;
Structure prediction by ZEFSAII (Michael W. Deem and Ramdas Pophale) SiO2 
 PCOD9470543
Probable space group: C M C M
;
_chemical_formula_sum "Si O2"
_cell_formula_units_Z 88
_cell_length_a 17.764634
_cell_length_b 29.809667
_cell_length_c 8.942914
_cell_angle_alpha 90.000000
_cell_angle_beta 90.000000
_cell_angle_gamma 90.000000
_cell_volume 4735.790077
_symmetry_space_group_name_H-M "C M C M"
_symmetry_group_IT_number 63
_symmetry_cell_setting 'orthorhombic'
loop_
_space_group_symop_operation_xyz
x,y,z
-x,-y,1/2+z
x,-y,-z
-x,y,1/2-z
-x,-y,-z
x,y,1/2-z
-x,y,z
x,-y,1/2+z
1/2+x,1/2+y,z
1/2-x,1/2-y,1/2+z
1/2+x,1/2-y,-z
1/2-x,1/2+y,1/2-z
1/2-x,1/2-y,-z
1/2+x,1/2+y,1/2-z
1/2-x,1/2+y,z
1/2+x,1/2-y,1/2+z
loop_
_atom_site_type_symbol
_atom_site_label
_atom_site_fract_x
_atom_site_fract_y
_atom_site_fract_z
Si Si1 0.361833 0.102841 0.428863
Si Si2 0.091613 0.213670 0.577953
Si Si3 0.000000 0.549260 0.929111
Si Si4 0.409638 0.193162 0.927606
Si Si5 0.088069 0.879352 0.929841
Si Si6 0.709432 0.548937 0.429045
O O1 0.373894 0.101905 0.250000
O O2 0.427505 0.075762 0.511779
O O3 0.366817 0.153566 0.487541
O O4 0.283501 0.078225 0.462580
O O5 0.115765 0.216681 0.750000
O O6 0.113769 0.257967 0.487084
O O7 0.115487 0.166904 0.503973
O O8 0.000000 0.213069 0.575396
O O9 0.000000 0.547039 0.750000
O O10 0.000000 0.500000 0.000000
O O11 0.398711 0.189825 0.750000
O O12 0.500000 0.187902 0.956405
O O13 0.094134 0.874685 0.750000
O O14 0.137742 0.921622 0.977579
O O15 0.000000 0.885700 0.966400
O O16 0.712787 0.500000 0.500000
O O17 0.705768 0.543684 0.250000
#
# Coordination Sequence:
#
# PCOD9470543 Si02
#       6
#    16  16   8  16  16  16
#     4  11  22  37  56  80 112 148 188 234 280 328
#     4   9  17  30  52  83 115 146 183 227 277 330
#     4  12  24  38  56  80 108 144 192 238 281 332
#     4  10  19  32  53  82 114 149 189 230 274 329
#     4   9  18  36  60  84 112 145 183 228 279 336
#     4  10  23  40  58  82 111 146 185 230 285 338
#
# _framework density 18.581904999999999
#
# number of rings (size 3 to 8) (size 9 to 14) (size 15 to 20)
#    0.000    2.000    0.909    3.000    0.000    6.909 
#    0.000    0.909    0.000    0.000    0.000    0.000 
#    0.000    0.000    0.000    0.000    0.000    0.000 
#
# Total GULP energy -245728.391070 kJ/mol
# GULP energy per Si atom -5584.736161 kJ/mol
# Density = 1.853961 g / cm^3
# Si number density = 18.581905 Si / 1000 Ang^3
#
#
#
# Elastic Constant Matrix: (Units=GPa)
#
#
# Indices 1 2 3 4 5 6 
#
# 1 68.2842 69.9917 50.4587 0.0000 0.0000 0.0000
# 2 69.9917 164.4899 67.6170 0.0000 0.0000 0.0000
# 3 50.4587 67.6170 78.5056 0.0000 0.0000 0.0000
# 4 0.0000 0.0000 0.0000 33.7944 0.0000 0.0000
# 5 0.0000 0.0000 0.0000 0.0000 7.7156 0.0000
# 6 0.0000 0.0000 0.0000 0.0000 0.0000 30.2406
#
#
#
# Elastic Compliance Matrix: (Units=1/GPa)
#
#
# Indices 1 2 3 4 5 6 
#
# 1 0.034215 -0.008544 -0.014632 0.000000 0.000000 0.000000
# 2 -0.008544 0.011545 -0.004452 0.000000 0.000000 0.000000
# 3 -0.014632 -0.004452 0.025978 0.000000 0.000000 0.000000
# 4 0.000000 0.000000 0.000000 0.029591 0.000000 0.000000
# 5 0.000000 0.000000 0.000000 0.000000 0.129607 0.000000
# 6 0.000000 0.000000 0.000000 0.000000 0.000000 0.033068
#
#
# Mechanical properties :
#
#
# Convention : Reuss Voigt Hill
#
# Bulk Modulus (GPa) = 60.67845 76.37939 68.52892
# Shear Modulus (GPa) = 15.39630 22.56429 18.98030
#
# Velocity S-wave (km/s) = 2.88160 3.48848 3.19946
# Velocity P-wave (km/s) = 6.61793 7.57756 7.11394
#
# Compressibility (1/GPa) = 0.01648032
#
# Stress axis : x y z
#
# Youngs Moduli (GPa) = 29.22734 86.61737 38.49453
#
# Poissons Ratio (x) = 0.74002 0.56327
# Poissons Ratio (y) = 0.24971 0.17140
# Poissons Ratio (z) = 0.42767 0.38566
#
# Static dielectric constant tensor:
#      x y z
#    x 1.633400 0.000000 0.000000 
#    y 0.000000 1.618970 0.000000 
#    z 0.000000 0.000000 1.619700 
# 
# From -- ./inp_files/6896.got.cif
#   From: 2010.05.17/outbox.cif.g08.bks.cpg/sg63_4_cif.got.tgz:6896.got - 2010.06.03 15:47:04.
