data_PCOD9470353
_publ_section_title
;
Structure prediction by ZEFSAII (Michael W. Deem and Ramdas Pophale) SiO2 
 PCOD9470353
Probable space group: C M C M
;
_chemical_formula_sum "Si O2"
_cell_formula_units_Z 64
_cell_length_a 23.617101
_cell_length_b 12.655304
_cell_length_c 9.926132
_cell_angle_alpha 90.000000
_cell_angle_beta 90.000000
_cell_angle_gamma 90.000000
_cell_volume 2966.738142
_symmetry_space_group_name_H-M "C M C M"
_symmetry_group_IT_number 63
_symmetry_cell_setting 'orthorhombic'
loop_
_space_group_symop_operation_xyz
x,y,z
-x,-y,1/2+z
x,-y,-z
-x,y,1/2-z
-x,-y,-z
x,y,1/2-z
-x,y,z
x,-y,1/2+z
1/2+x,1/2+y,z
1/2-x,1/2-y,1/2+z
1/2+x,1/2-y,-z
1/2-x,1/2+y,1/2-z
1/2-x,1/2-y,-z
1/2+x,1/2+y,1/2-z
1/2-x,1/2+y,z
1/2+x,1/2-y,1/2+z
loop_
_atom_site_type_symbol
_atom_site_label
_atom_site_fract_x
_atom_site_fract_y
_atom_site_fract_z
Si Si1 0.431308 0.162535 0.250000
Si Si2 0.224354 0.407545 0.408547
Si Si3 0.679562 0.668905 0.097776
Si Si4 0.567088 0.253636 0.535360
Si Si5 0.433201 0.927049 0.250000
O O1 0.500000 0.156778 0.250000
O O2 0.416748 0.225271 0.383556
O O3 0.407138 0.043302 0.250000
O O4 0.197376 0.500000 0.500000
O O5 0.227373 0.433893 0.250000
O O6 0.284883 0.387072 0.481277
O O7 0.193874 0.293908 0.416820
O O8 0.697213 0.638219 0.250000
O O9 0.611873 0.660458 0.085471
O O10 0.500000 0.279306 0.547209
O O11 0.576923 0.147047 0.622160
O O12 0.500000 0.945592 0.250000
#
# Coordination Sequence:
#
# PCOD9470353 Si02
#       5
#     8  16  16  16   8
#     4   9  18  28  42  67 105 149 191 227 263 320
#     4  10  22  40  62  85 111 147 188 239 289 332
#     4  10  21  38  58  85 116 149 191 233 278 336
#     4  10  19  32  50  77 112 151 186 224 277 333
#     4   9  16  28  44  65 101 147 189 221 261 322
#
# _framework density 21.572513000000001
#
# number of rings (size 3 to 8) (size 9 to 14) (size 15 to 20)
#    0.000    2.250    1.250    1.500    1.750    6.000 
#    0.000    0.000    0.000    0.750    0.000    0.000 
#    0.000    0.000    0.000    0.000    0.000    0.000 
#
# Total GULP energy -178553.273426 kJ/mol
# GULP energy per Si atom -5579.789795 kJ/mol
# Density = 2.152341 g / cm^3
# Si number density = 21.572513 Si / 1000 Ang^3
#
#
#
# Elastic Constant Matrix: (Units=GPa)
#
#
# Indices 1 2 3 4 5 6 
#
# 1 92.6336 9.6663 16.1297 0.0000 0.0000 0.0000
# 2 9.6663 38.6983 19.8177 0.0000 0.0000 0.0000
# 3 16.1297 19.8177 166.9781 0.0000 0.0000 0.0000
# 4 0.0000 0.0000 0.0000 109.0524 0.0000 0.0000
# 5 0.0000 0.0000 0.0000 0.0000 -54.3206 0.0000
# 6 0.0000 0.0000 0.0000 0.0000 0.0000 10.9761
#
#
#
# Elastic Compliance Matrix: (Units=1/GPa)
#
#
# Indices 1 2 3 4 5 6 
#
# 1 0.011183 -0.002385 -0.000797 0.000000 0.000000 0.000000
# 2 -0.002385 0.028022 -0.003095 0.000000 0.000000 0.000000
# 3 -0.000797 -0.003095 0.006433 0.000000 0.000000 0.000000
# 4 0.000000 0.000000 0.000000 0.009170 0.000000 0.000000
# 5 0.000000 0.000000 0.000000 0.000000 -0.018409 0.000000
# 6 0.000000 0.000000 0.000000 0.000000 0.000000 0.091107
#
#
# Mechanical properties :
#
#
# Convention : Reuss Voigt Hill
#
# Bulk Modulus (GPa) = 30.22730 43.28195 36.75463
# Shear Modulus (GPa) = 33.09323 29.98799 31.54061
#
# Velocity S-wave (km/s) = 3.92094 3.73245 3.82786
# Velocity P-wave (km/s) = 5.87714 6.21948 6.05073
#
# Compressibility (1/GPa) = 0.03308268
#
# Stress axis : x y z
#
# Youngs Moduli (GPa) = 89.42214 35.68640 155.44392
#
# Poissons Ratio (x) = 0.08512 0.12392
# Poissons Ratio (y) = 0.21328 0.48116
# Poissons Ratio (z) = 0.07128 0.11046
#
# Static dielectric constant tensor:
#      x y z
#    x 1.832810 0.000000 0.000000 
#    y 0.000000 1.777080 0.000000 
#    z 0.000000 0.000000 1.800780 
# 
# From -- ./inp_files/9670.got.cif
#   From: 2010.05.17/outbox.cif.g08.bks.cpg/sg63_5_cif.got.tgz:9670.got - 2010.06.03 15:47:04.
