data_PCOD9470077
_publ_section_title
;
Structure prediction by ZEFSAII (Michael W. Deem and Ramdas Pophale) SiO2 
 PCOD9470077
Probable space group: C M C M
;
_chemical_formula_sum "Si O2"
_cell_formula_units_Z 96
_cell_length_a 8.771867
_cell_length_b 33.297129
_cell_length_c 19.043928
_cell_angle_alpha 90.000000
_cell_angle_beta 90.000000
_cell_angle_gamma 90.000000
_cell_volume 5562.312156
_symmetry_space_group_name_H-M "C M C M"
_symmetry_group_IT_number 63
_symmetry_cell_setting 'orthorhombic'
loop_
_space_group_symop_operation_xyz
x,y,z
-x,-y,1/2+z
x,-y,-z
-x,y,1/2-z
-x,-y,-z
x,y,1/2-z
-x,y,z
x,-y,1/2+z
1/2+x,1/2+y,z
1/2-x,1/2-y,1/2+z
1/2+x,1/2-y,-z
1/2-x,1/2+y,1/2-z
1/2-x,1/2-y,-z
1/2+x,1/2+y,1/2-z
1/2-x,1/2+y,z
1/2+x,1/2-y,1/2+z
loop_
_atom_site_type_symbol
_atom_site_label
_atom_site_fract_x
_atom_site_fract_y
_atom_site_fract_z
Si Si1 0.680917 0.621820 0.959112
Si Si2 0.816969 0.759752 0.832286
Si Si3 0.316782 0.167523 0.668126
Si Si4 0.684608 0.043322 0.471317
Si Si5 0.684929 0.083741 0.171131
Si Si6 0.682188 0.835215 0.909136
O O1 0.500000 0.619499 0.962471
O O2 0.736273 0.637076 0.883871
O O3 0.752373 0.579181 0.980884
O O4 0.741937 0.653206 0.017287
O O5 0.780165 0.766448 0.750000
O O6 0.774962 0.713751 0.849394
O O7 0.736567 0.792978 0.879110
O O8 0.000000 0.763231 0.839549
O O9 0.280254 0.160834 0.750000
O O10 0.500000 0.164249 0.660604
O O11 0.500000 0.045025 0.472936
O O12 0.733072 0.053590 0.391155
O O13 0.732482 0.000000 0.500000
O O14 0.741579 0.075936 0.250000
O O15 0.500000 0.082086 0.173452
O O16 0.724572 0.128630 0.144654
O O17 0.500000 0.835917 0.917289
#
# Coordination Sequence:
#
# PCOD9470077 Si02
#       6
#    16  16  16  16  16  16
#     4  11  22  35  53  76 102 132 168 212 261 309
#     4   9  18  32  50  74 104 136 171 214 261 302
#     4   9  19  37  57  74  98 135 176 216 256 300
#     4   9  18  34  55  77 103 134 168 207 254 313
#     4   8  14  26  46  72  99 127 163 206 246 287
#     4  10  19  31  49  73 102 136 174 213 254 306
#
# _framework density 17.259008000000001
#
# number of rings (size 3 to 8) (size 9 to 14) (size 15 to 20)
#    0.000    2.667    0.000    4.500    0.000    3.000 
#    0.000    2.500    0.000    7.500    0.000    0.000 
#    0.000    0.000    0.000    0.000    0.000    0.000 
#
# Total GULP energy -267697.690593 kJ/mol
# GULP energy per Si atom -5577.035221 kJ/mol
# Density = 1.721973 g / cm^3
# Si number density = 17.259008 Si / 1000 Ang^3
#
#
#
# Elastic Constant Matrix: (Units=GPa)
#
#
# Indices 1 2 3 4 5 6 
#
# 1 28.2588 30.5087 34.3421 0.0000 0.0000 0.0000
# 2 30.5087 93.9466 79.0538 0.0000 0.0000 0.0000
# 3 34.3421 79.0538 112.3217 0.0000 0.0000 0.0000
# 4 0.0000 0.0000 0.0000 21.3034 0.0000 0.0000
# 5 0.0000 0.0000 0.0000 0.0000 9.3927 0.0000
# 6 0.0000 0.0000 0.0000 0.0000 0.0000 23.7481
#
#
#
# Elastic Compliance Matrix: (Units=1/GPa)
#
#
# Indices 1 2 3 4 5 6 
#
# 1 0.059844 -0.009902 -0.011328 0.000000 0.000000 0.000000
# 2 -0.009902 0.027743 -0.016499 0.000000 0.000000 0.000000
# 3 -0.011328 -0.016499 0.023979 0.000000 0.000000 0.000000
# 4 0.000000 0.000000 0.000000 0.046941 0.000000 0.000000
# 5 0.000000 0.000000 0.000000 0.000000 0.106465 0.000000
# 6 0.000000 0.000000 0.000000 0.000000 0.000000 0.042109
#
#
# Mechanical properties :
#
#
# Convention : Reuss Voigt Hill
#
# Bulk Modulus (GPa) = 27.69409 58.03736 42.86572
# Shear Modulus (GPa) = 12.67190 16.93035 14.80113
#
# Velocity S-wave (km/s) = 2.71259 3.13542 2.93164
# Velocity P-wave (km/s) = 5.08840 6.84165 6.02909
#
# Compressibility (1/GPa) = 0.03610878
#
# Stress axis : x y z
#
# Youngs Moduli (GPa) = 16.71005 36.04521 41.70400
#
# Poissons Ratio (x) = 0.35691 0.47244
# Poissons Ratio (y) = 0.16546 0.68805
# Poissons Ratio (z) = 0.18930 0.59469
#
# Static dielectric constant tensor:
#      x y z
#    x 1.572730 0.000000 0.000000 
#    y 0.000000 1.563710 0.000000 
#    z 0.000000 0.000000 1.588010 
# 
# From -- ./inp_files/51398.got.cif
#   From: 2010.05.17/outbox.cif.g08.bks.cpg/sg63_26_cif.got.tgz:51398.got - 2010.06.03 15:47:04.
