data_PCOD9470951
_publ_section_title
;
Structure prediction by ZEFSAII (Michael W. Deem and Ramdas Pophale) SiO2 
 PCOD9470951
Probable space group: C M C M
;
_chemical_formula_sum "Si O2"
_cell_formula_units_Z 112
_cell_length_a 15.235845
_cell_length_b 14.938028
_cell_length_c 24.038692
_cell_angle_alpha 90.000000
_cell_angle_beta 90.000000
_cell_angle_gamma 90.000000
_cell_volume 5471.049548
_symmetry_space_group_name_H-M "C M C M"
_symmetry_group_IT_number 63
_symmetry_cell_setting 'orthorhombic'
loop_
_space_group_symop_operation_xyz
x,y,z
-x,-y,1/2+z
x,-y,-z
-x,y,1/2-z
-x,-y,-z
x,y,1/2-z
-x,y,z
x,-y,1/2+z
1/2+x,1/2+y,z
1/2-x,1/2-y,1/2+z
1/2+x,1/2-y,-z
1/2-x,1/2+y,1/2-z
1/2-x,1/2-y,-z
1/2+x,1/2+y,1/2-z
1/2-x,1/2+y,z
1/2+x,1/2-y,1/2+z
loop_
_atom_site_type_symbol
_atom_site_label
_atom_site_fract_x
_atom_site_fract_y
_atom_site_fract_z
Si Si1 0.600782 0.431997 0.543016
Si Si2 0.404764 0.753240 0.894779
Si Si3 0.758576 0.200009 0.316448
Si Si4 0.650333 0.234163 0.983593
Si Si5 0.393597 0.156175 0.631301
Si Si6 0.095733 0.940160 0.356164
Si Si7 0.773245 0.488500 0.312659
O O1 0.647142 0.500000 0.500000
O O2 0.500000 0.425525 0.525521
O O3 0.629017 0.331075 0.541261
O O4 0.603915 0.475291 0.603452
O O5 0.500000 0.781536 0.872129
O O6 0.325330 0.774177 0.853854
O O7 0.404315 0.645285 0.896832
O O8 0.394977 0.786917 0.957637
O O9 0.749680 0.217134 0.250000
O O10 0.841089 0.260546 0.338342
O O11 0.755198 0.091608 0.323518
O O12 0.627211 0.166911 0.934327
O O13 0.750000 0.250000 0.000000
O O14 0.500000 0.158447 0.640408
O O15 0.345422 0.064465 0.651108
O O16 0.181026 0.935906 0.318456
O O17 0.000000 0.942033 0.327907
O O18 0.806627 0.484902 0.250000
#
# Coordination Sequence:
#
# PCOD9470951 Si02
#       7
#    16  16  16  16  16  16  16
#     4  10  19  33  58  93 129 165 210 260 325 402
#     4  11  22  40  65  97 133 168 216 274 336 402
#     4  11  25  46  70  98 132 179 235 288 342 405
#     4  12  22  39  63  97 138 180 218 273 335 411
#     4  12  26  46  71 102 140 184 233 283 345 416
#     4  10  20  36  63  98 131 166 212 270 336 404
#     4  11  25  45  67  95 134 176 226 284 348 412
#
# _framework density 20.471392000000002
#
# number of rings (size 3 to 8) (size 9 to 14) (size 15 to 20)
#    0.000    1.000    4.286    2.571    0.000    4.000 
#    0.000    5.000    0.000    1.714    0.000    0.000 
#    0.000    0.000    0.000    0.000    0.000    0.000 
#
# Total GULP energy -312082.398613 kJ/mol
# GULP energy per Si atom -5572.899975 kJ/mol
# Density = 2.042480 g / cm^3
# Si number density = 20.471392 Si / 1000 Ang^3
#
#
#
# Elastic Constant Matrix: (Units=GPa)
#
#
# Indices 1 2 3 4 5 6 
#
# 1 142.7929 16.4992 48.6772 0.0000 0.0000 0.0000
# 2 16.4992 45.3950 34.5223 0.0000 0.0000 0.0000
# 3 48.6772 34.5223 77.1238 0.0000 0.0000 0.0000
# 4 0.0000 0.0000 0.0000 19.3050 0.0000 0.0000
# 5 0.0000 0.0000 0.0000 0.0000 7.9557 0.0000
# 6 0.0000 0.0000 0.0000 0.0000 0.0000 22.0107
#
#
#
# Elastic Compliance Matrix: (Units=1/GPa)
#
#
# Indices 1 2 3 4 5 6 
#
# 1 0.008998 0.001590 -0.006391 0.000000 0.000000 0.000000
# 2 0.001590 0.033679 -0.016079 0.000000 0.000000 0.000000
# 3 -0.006391 -0.016079 0.024197 0.000000 0.000000 0.000000
# 4 0.000000 0.000000 0.000000 0.051800 0.000000 0.000000
# 5 0.000000 0.000000 0.000000 0.000000 0.125697 0.000000
# 6 0.000000 0.000000 0.000000 0.000000 0.000000 0.045432
#
#
# Mechanical properties :
#
#
# Convention : Reuss Voigt Hill
#
# Bulk Modulus (GPa) = 39.81818 51.63435 45.72626
# Shear Modulus (GPa) = 14.70876 20.89513 17.80195
#
# Velocity S-wave (km/s) = 2.68340 3.19830 2.95210
# Velocity P-wave (km/s) = 5.39386 6.23829 5.83138
#
# Compressibility (1/GPa) = 0.02511416
#
# Stress axis : x y z
#
# Youngs Moduli (GPa) = 111.13537 29.69238 41.32767
#
# Poissons Ratio (x) = -0.04720 0.26411
# Poissons Ratio (y) = -0.17667 0.66449
# Poissons Ratio (z) = 0.71024 0.47741
#
# Static dielectric constant tensor:
#      x y z
#    x 1.783420 0.000000 0.000000 
#    y 0.000000 1.909540 0.000000 
#    z 0.000000 0.000000 1.737630 
# 
# From -- ./inp_files/63019.got.cif
#   From: 2010.05.17/outbox.cif.g08.bks.cpg/sg63_32_cif.got.tgz:63019.got - 2010.06.03 15:47:04.
