data_PCOD9470699
_publ_section_title
;
Structure prediction by ZEFSAII (Michael W. Deem and Ramdas Pophale) SiO2 
 PCOD9470699
Probable space group: C M C M
;
_chemical_formula_sum "Si O2"
_cell_formula_units_Z 96
_cell_length_a 17.671592
_cell_length_b 21.505632
_cell_length_c 14.356524
_cell_angle_alpha 90.000000
_cell_angle_beta 90.000000
_cell_angle_gamma 90.000000
_cell_volume 5456.035499
_symmetry_space_group_name_H-M "C M C M"
_symmetry_group_IT_number 63
_symmetry_cell_setting 'orthorhombic'
loop_
_space_group_symop_operation_xyz
x,y,z
-x,-y,1/2+z
x,-y,-z
-x,y,1/2-z
-x,-y,-z
x,y,1/2-z
-x,y,z
x,-y,1/2+z
1/2+x,1/2+y,z
1/2-x,1/2-y,1/2+z
1/2+x,1/2-y,-z
1/2-x,1/2+y,1/2-z
1/2-x,1/2-y,-z
1/2+x,1/2+y,1/2-z
1/2-x,1/2+y,z
1/2+x,1/2-y,1/2+z
loop_
_atom_site_type_symbol
_atom_site_label
_atom_site_fract_x
_atom_site_fract_y
_atom_site_fract_z
Si Si1 0.585109 0.290934 0.515278
Si Si2 0.583659 0.035463 0.360664
Si Si3 0.177318 0.416856 0.141104
Si Si4 0.821862 0.844362 0.356221
Si Si5 0.268242 0.286523 0.641002
Si Si6 0.869657 0.343361 0.967509
O O1 0.500000 0.304879 0.545953
O O2 0.615201 0.336910 0.434685
O O3 0.648931 0.289462 0.595600
O O4 0.587766 0.222000 0.469848
O O5 0.587996 0.045272 0.250000
O O6 0.500000 0.009305 0.382175
O O7 0.593529 0.101076 0.410019
O O8 0.647455 0.985044 0.385131
O O9 0.158271 0.406197 0.250000
O O10 0.266452 0.403119 0.131295
O O11 0.137844 0.368661 0.072077
O O12 0.850996 0.843925 0.250000
O O13 0.767543 0.783023 0.365403
O O14 0.268179 0.303726 0.750000
O O15 0.211722 0.328798 0.579756
#
# Coordination Sequence:
#
# PCOD9470699 Si02
#       6
#    16  16  16  16  16  16
#     4  11  21  32  50  78 106 134 173 219 270 314
#     4  10  22  36  50  78 114 143 176 215 255 306
#     4  10  19  33  53  72 101 142 179 213 252 300
#     4   9  17  34  53  71  98 133 177 219 257 308
#     4  10  19  34  53  73 100 138 178 218 262 312
#     4  11  19  35  54  76 104 144 179 210 254 317
#
# _framework density 17.595192999999998
#
# number of rings (size 3 to 8) (size 9 to 14) (size 15 to 20)
#    0.000    1.833    3.333    2.500    0.000    3.333 
#    0.000    0.000    0.000    0.000    0.000    2.333 
#    0.000    4.000    0.000    0.000    0.000    0.000 
#
# Total GULP energy -267692.311496 kJ/mol
# GULP energy per Si atom -5576.923156 kJ/mol
# Density = 1.755515 g / cm^3
# Si number density = 17.595193 Si / 1000 Ang^3
#
#
#
# Elastic Constant Matrix: (Units=GPa)
#
#
# Indices 1 2 3 4 5 6 
#
# 1 91.8397 14.7530 31.1415 0.0000 0.0000 0.0000
# 2 14.7530 55.6278 18.9435 0.0000 0.0000 0.0000
# 3 31.1415 18.9435 77.1975 0.0000 0.0000 0.0000
# 4 0.0000 0.0000 0.0000 25.4187 0.0000 0.0000
# 5 0.0000 0.0000 0.0000 0.0000 17.8376 0.0000
# 6 0.0000 0.0000 0.0000 0.0000 0.0000 13.7787
#
#
#
# Elastic Compliance Matrix: (Units=1/GPa)
#
#
# Indices 1 2 3 4 5 6 
#
# 1 0.012774 -0.001782 -0.004716 0.000000 0.000000 0.000000
# 2 -0.001782 0.019864 -0.004156 0.000000 0.000000 0.000000
# 3 -0.004716 -0.004156 0.015876 0.000000 0.000000 0.000000
# 4 0.000000 0.000000 0.000000 0.039341 0.000000 0.000000
# 5 0.000000 0.000000 0.000000 0.000000 0.056061 0.000000
# 6 0.000000 0.000000 0.000000 0.000000 0.000000 0.072576
#
#
# Mechanical properties :
#
#
# Convention : Reuss Voigt Hill
#
# Bulk Modulus (GPa) = 36.75456 39.37122 38.06289
# Shear Modulus (GPa) = 20.25373 22.06212 21.15793
#
# Velocity S-wave (km/s) = 3.39646 3.54485 3.47145
# Velocity P-wave (km/s) = 6.02624 6.25934 6.14389
#
# Compressibility (1/GPa) = 0.02720751
#
# Stress axis : x y z
#
# Youngs Moduli (GPa) = 78.28521 50.34136 62.98862
#
# Poissons Ratio (x) = 0.08970 0.29704
# Poissons Ratio (y) = 0.13949 0.26176
# Poissons Ratio (z) = 0.36917 0.20920
#
# Static dielectric constant tensor:
#      x y z
#    x 1.612190 0.000000 0.000000 
#    y 0.000000 1.593180 0.000000 
#    z 0.000000 0.000000 1.624140 
# 
# From -- ./inp_files/31902.got.cif
#   From: 2010.05.17/outbox.cif.g08.bks.cpg/sg63_16_cif.got.tgz:31902.got - 2010.06.03 15:47:04.
