data_PCOD9470927
_publ_section_title
;
Structure prediction by ZEFSAII (Michael W. Deem and Ramdas Pophale) SiO2 
 PCOD9470927
Probable space group: C M C M
;
_chemical_formula_sum "Si O2"
_cell_formula_units_Z 100
_cell_length_a 20.880360
_cell_length_b 33.395307
_cell_length_c 8.924658
_cell_angle_alpha 90.000000
_cell_angle_beta 90.000000
_cell_angle_gamma 90.000000
_cell_volume 6223.217861
_symmetry_space_group_name_H-M "C M C M"
_symmetry_group_IT_number 63
_symmetry_cell_setting 'orthorhombic'
loop_
_space_group_symop_operation_xyz
x,y,z
-x,-y,1/2+z
x,-y,-z
-x,y,1/2-z
-x,-y,-z
x,y,1/2-z
-x,y,z
x,-y,1/2+z
1/2+x,1/2+y,z
1/2-x,1/2-y,1/2+z
1/2+x,1/2-y,-z
1/2-x,1/2+y,1/2-z
1/2-x,1/2-y,-z
1/2+x,1/2+y,1/2-z
1/2-x,1/2+y,z
1/2+x,1/2-y,1/2+z
loop_
_atom_site_type_symbol
_atom_site_label
_atom_site_fract_x
_atom_site_fract_y
_atom_site_fract_z
Si Si1 0.679180 0.749407 0.571468
Si Si2 0.771088 0.884863 0.073018
Si Si3 0.572831 0.903691 0.929516
Si Si4 0.000000 0.161800 0.250000
Si Si5 0.144531 0.330989 0.426499
Si Si6 0.694839 0.043573 0.070552
Si Si7 0.631489 0.670273 0.415548
O O1 0.684013 0.748031 0.750000
O O2 0.750000 0.750000 0.500000
O O3 0.644500 0.789700 0.516055
O O4 0.643491 0.710277 0.509641
O O5 0.779588 0.891143 0.250000
O O6 0.713949 0.852201 0.053881
O O7 0.746230 0.925176 0.995024
O O8 0.833596 0.866265 0.997420
O O9 0.576974 0.897303 0.750000
O O10 0.500000 0.914773 0.966881
O O11 0.625226 0.937423 0.968094
O O12 0.593972 0.863112 0.011864
O O13 0.942563 0.163002 0.121961
O O14 0.135170 0.323629 0.250000
O O15 0.700127 0.041705 0.250000
O O16 0.701755 0.000000 0.000000
O O17 0.662970 0.675743 0.250000
#
# Coordination Sequence:
#
# PCOD9470927 Si02
#       7
#    16  16  16   4  16  16  16
#     4  12  22  33  54  82 109 145 188 241 292 334
#     4  10  19  33  57  83 110 140 180 234 282 331
#     4   9  19  36  53  72 105 153 200 234 277 334
#     4   8  24  40  58  80 114 156 182 228 272 336
#     4  10  20  33  50  78 107 141 188 243 288 328
#     4  10  20  34  54  83 117 145 179 234 285 336
#     4  10  20  38  57  79 111 146 187 223 278 333
#
# _framework density 16.068857000000001
#
# number of rings (size 3 to 8) (size 9 to 14) (size 15 to 20)
#    0.480    1.440    1.600    3.360    0.000    2.560 
#    1.440    1.600    0.000    0.000    0.000    0.560 
#    0.000    0.000    0.000    0.000    0.000    0.000 
#
# Total GULP energy -278372.228983 kJ/mol
# GULP energy per Si atom -5567.444580 kJ/mol
# Density = 1.603228 g / cm^3
# Si number density = 16.068857 Si / 1000 Ang^3
#
#
#
# Elastic Constant Matrix: (Units=GPa)
#
#
# Indices 1 2 3 4 5 6 
#
# 1 108.6577 62.7409 52.0491 0.0000 0.0000 0.0000
# 2 62.7409 136.0580 71.4122 0.0000 0.0000 0.0000
# 3 52.0491 71.4122 107.0455 0.0000 0.0000 0.0000
# 4 0.0000 0.0000 0.0000 29.2950 0.0000 0.0000
# 5 0.0000 0.0000 0.0000 0.0000 26.0373 0.0000
# 6 0.0000 0.0000 0.0000 0.0000 0.0000 8.3710
#
#
#
# Elastic Compliance Matrix: (Units=1/GPa)
#
#
# Indices 1 2 3 4 5 6 
#
# 1 0.013428 -0.004255 -0.003690 0.000000 0.000000 0.000000
# 2 -0.004255 0.012658 -0.006376 0.000000 0.000000 0.000000
# 3 -0.003690 -0.006376 0.015390 0.000000 0.000000 0.000000
# 4 0.000000 0.000000 0.000000 0.034135 0.000000 0.000000
# 5 0.000000 0.000000 0.000000 0.000000 0.038406 0.000000
# 6 0.000000 0.000000 0.000000 0.000000 0.000000 0.119461
#
#
# Mechanical properties :
#
#
# Convention : Reuss Voigt Hill
#
# Bulk Modulus (GPa) = 77.92137 80.46283 79.19210
# Shear Modulus (GPa) = 18.76887 23.77794 21.27340
#
# Velocity S-wave (km/s) = 3.42135 3.85093 3.64248
# Velocity P-wave (km/s) = 8.01280 8.36393 8.19025
#
# Compressibility (1/GPa) = 0.01283345
#
# Stress axis : x y z
#
# Youngs Moduli (GPa) = 74.47131 78.99941 64.97905
#
# Poissons Ratio (x) = 0.33615 0.23980
# Poissons Ratio (y) = 0.31688 0.41428
# Poissons Ratio (z) = 0.27484 0.50367
#
# Static dielectric constant tensor:
#      x y z
#    x 1.525170 0.000000 0.000000 
#    y 0.000000 1.519760 0.000000 
#    z 0.000000 0.000000 1.549760 
# 
# From -- ./inp_files/9182.got.cif
#   From: 2010.05.17/outbox.cif.g08.bks.cpg/sg63_5_cif.got.tgz:9182.got - 2010.06.03 15:47:04.
