data_PCOD9470220
_publ_section_title
;
Structure prediction by ZEFSAII (Michael W. Deem and Ramdas Pophale) SiO2 
 PCOD9470220
Probable space group: C M C M
;
_chemical_formula_sum "Si O2"
_cell_formula_units_Z 104
_cell_length_a 22.435190
_cell_length_b 28.288014
_cell_length_c 9.706225
_cell_angle_alpha 90.000000
_cell_angle_beta 90.000000
_cell_angle_gamma 90.000000
_cell_volume 6160.026275
_symmetry_space_group_name_H-M "C M C M"
_symmetry_group_IT_number 63
_symmetry_cell_setting 'orthorhombic'
loop_
_space_group_symop_operation_xyz
x,y,z
-x,-y,1/2+z
x,-y,-z
-x,y,1/2-z
-x,-y,-z
x,y,1/2-z
-x,y,z
x,-y,1/2+z
1/2+x,1/2+y,z
1/2-x,1/2-y,1/2+z
1/2+x,1/2-y,-z
1/2-x,1/2+y,1/2-z
1/2-x,1/2-y,-z
1/2+x,1/2+y,1/2-z
1/2-x,1/2+y,z
1/2+x,1/2-y,1/2+z
loop_
_atom_site_type_symbol
_atom_site_label
_atom_site_fract_x
_atom_site_fract_y
_atom_site_fract_z
Si Si1 0.319196 0.208516 0.908780
Si Si2 0.431796 0.041427 0.407794
Si Si3 0.000000 0.048806 0.586993
Si Si4 0.325073 0.297915 0.408397
Si Si5 0.836251 0.378518 0.593777
Si Si6 0.127828 0.096230 0.913952
Si Si7 0.730114 0.546702 0.084919
O O1 0.336152 0.210482 0.750000
O O2 0.247210 0.200760 0.915146
O O3 0.339353 0.255964 0.986487
O O4 0.343276 0.163382 0.987935
O O5 0.431640 0.025107 0.250000
O O6 0.500000 0.050107 0.450315
O O7 0.393058 0.087900 0.414553
O O8 0.405796 0.000000 0.500000
O O9 0.940327 0.079956 0.561642
O O10 0.000000 0.036623 0.750000
O O11 0.000000 0.000000 0.500000
O O12 0.340742 0.285799 0.250000
O O13 0.355309 0.348589 0.439540
O O14 0.829678 0.359801 0.750000
O O15 0.779328 0.412149 0.567504
O O16 0.140788 0.087875 0.750000
O O17 0.169935 0.065378 0.012892
O O18 0.723974 0.537836 0.250000
O O19 0.748116 0.500000 0.000000
#
# Coordination Sequence:
#
# PCOD9470220 Si02
#       7
#    16  16   8  16  16  16  16
#     4  10  19  31  52  80 106 134 168 207 256 310
#     4   9  18  33  52  73  99 134 174 211 249 298
#     4  10  22  38  58  80 106 140 182 226 267 318
#     4   9  18  33  53  76 104 135 166 208 258 309
#     4  10  20  33  50  75 105 136 170 211 257 305
#     4  10  20  37  57  78 104 137 177 219 264 314
#     4  11  22  33  49  75 107 139 170 210 259 310
#
# _framework density 16.883044999999999
#
# number of rings (size 3 to 8) (size 9 to 14) (size 15 to 20)
#    0.000    2.154    1.538    1.846    0.000    4.308 
#    0.000    0.000    1.692    0.000    0.000    0.000 
#    0.000    0.000    0.000    0.000    0.000    0.000 
#
# Total GULP energy -289865.264980 kJ/mol
# GULP energy per Si atom -5574.332019 kJ/mol
# Density = 1.684462 g / cm^3
# Si number density = 16.883045 Si / 1000 Ang^3
#
#
#
# Elastic Constant Matrix: (Units=GPa)
#
#
# Indices 1 2 3 4 5 6 
#
# 1 56.3794 20.2712 25.3397 0.0000 0.0000 0.0000
# 2 20.2712 95.6784 71.9333 0.0000 0.0000 0.0000
# 3 25.3397 71.9333 92.9415 0.0000 0.0000 0.0000
# 4 0.0000 0.0000 0.0000 33.9502 0.0000 0.0000
# 5 0.0000 0.0000 0.0000 0.0000 22.4113 0.0000
# 6 0.0000 0.0000 0.0000 0.0000 0.0000 16.2101
#
#
#
# Elastic Compliance Matrix: (Units=1/GPa)
#
#
# Indices 1 2 3 4 5 6 
#
# 1 0.020218 -0.000333 -0.005255 0.000000 0.000000 0.000000
# 2 -0.000333 0.025003 -0.019260 0.000000 0.000000 0.000000
# 3 -0.005255 -0.019260 0.027099 0.000000 0.000000 0.000000
# 4 0.000000 0.000000 0.000000 0.029455 0.000000 0.000000
# 5 0.000000 0.000000 0.000000 0.000000 0.044620 0.000000
# 6 0.000000 0.000000 0.000000 0.000000 0.000000 0.061690
#
#
# Mechanical properties :
#
#
# Convention : Reuss Voigt Hill
#
# Bulk Modulus (GPa) = 44.20103 53.34307 48.77205
# Shear Modulus (GPa) = 18.84502 23.01131 20.92817
#
# Velocity S-wave (km/s) = 3.34460 3.69587 3.52461
# Velocity P-wave (km/s) = 6.41503 7.06235 6.74646
#
# Compressibility (1/GPa) = 0.02262391
#
# Stress axis : x y z
#
# Youngs Moduli (GPa) = 49.45986 39.99593 36.90208
#
# Poissons Ratio (x) = 0.01333 0.19390
# Poissons Ratio (y) = 0.01648 0.71074
# Poissons Ratio (z) = 0.25989 0.77033
#
# Static dielectric constant tensor:
#      x y z
#    x 1.570730 0.000000 0.000000 
#    y 0.000000 1.555970 0.000000 
#    z 0.000000 0.000000 1.573240 
# 
# From -- ./inp_files/10853.got.cif
#   From: 2010.05.17/outbox.cif.g08.bks.cpg/sg63_6_cif.got.tgz:10853.got - 2010.06.03 15:47:04.
