data_PCOD9470992
_publ_section_title
;
Structure prediction by ZEFSAII (Michael W. Deem and Ramdas Pophale) SiO2 
 PCOD9470992
Probable space group: C M C M
;
_chemical_formula_sum "Si O2"
_cell_formula_units_Z 112
_cell_length_a 19.473355
_cell_length_b 12.197462
_cell_length_c 29.056941
_cell_angle_alpha 90.000000
_cell_angle_beta 90.000000
_cell_angle_gamma 90.000000
_cell_volume 6901.764661
_symmetry_space_group_name_H-M "C M C M"
_symmetry_group_IT_number 63
_symmetry_cell_setting 'orthorhombic'
loop_
_space_group_symop_operation_xyz
x,y,z
-x,-y,1/2+z
x,-y,-z
-x,y,1/2-z
-x,-y,-z
x,y,1/2-z
-x,y,z
x,-y,1/2+z
1/2+x,1/2+y,z
1/2-x,1/2-y,1/2+z
1/2+x,1/2-y,-z
1/2-x,1/2+y,1/2-z
1/2-x,1/2-y,-z
1/2+x,1/2+y,1/2-z
1/2-x,1/2+y,z
1/2+x,1/2-y,1/2+z
loop_
_atom_site_type_symbol
_atom_site_label
_atom_site_fract_x
_atom_site_fract_y
_atom_site_fract_z
Si Si1 0.192191 0.317271 0.557193
Si Si2 0.918815 0.464736 0.803623
Si Si3 0.166831 0.898611 0.383160
Si Si4 0.324264 0.038894 0.614493
Si Si5 0.080180 0.951729 0.949982
Si Si6 0.420002 0.702674 0.696350
Si Si7 0.845749 0.733480 0.544426
O O1 0.168109 0.209762 0.584764
O O2 0.175236 0.426348 0.585298
O O3 0.159097 0.316997 0.506601
O O4 0.274180 0.300771 0.550956
O O5 0.903969 0.491472 0.750000
O O6 0.870778 0.524515 0.840368
O O7 0.908557 0.333427 0.809193
O O8 0.000000 0.486338 0.811546
O O9 0.128418 0.865506 0.336756
O O10 0.244762 0.935545 0.374256
O O11 0.125774 0.990694 0.411187
O O12 0.349030 0.138218 0.582072
O O13 0.094769 0.822526 0.951166
O O14 0.000000 0.975560 0.942626
O O15 0.100293 0.000000 0.000000
O O16 0.409151 0.676932 0.750000
O O17 0.500000 0.681962 0.685258
#
# Coordination Sequence:
#
# PCOD9470992 Si02
#       7
#    16  16  16  16  16  16  16
#     4  10  19  34  53  77 110 144 181 228 265 317
#     4   9  19  37  59  80 107 142 179 226 284 337
#     4  11  20  33  57  80 109 142 181 225 278 316
#     4  11  21  33  58  84 109 142 184 227 276 327
#     4  11  22  36  53  77 112 150 187 220 263 330
#     4   9  18  34  56  79 103 137 179 225 276 323
#     4  10  21  34  53  77 111 150 183 218 269 321
#
# _framework density 16.227734000000002
#
# number of rings (size 3 to 8) (size 9 to 14) (size 15 to 20)
#    0.000    1.857    4.286    1.714    0.000    1.143 
#    0.000    0.714    0.000    2.571    0.000    2.000 
#    0.000    0.000    0.000    0.000    0.000    0.000 
#
# Total GULP energy -312468.516117 kJ/mol
# GULP energy per Si atom -5579.794931 kJ/mol
# Density = 1.619080 g / cm^3
# Si number density = 16.227734 Si / 1000 Ang^3
#
#
#
# Elastic Constant Matrix: (Units=GPa)
#
#
# Indices 1 2 3 4 5 6 
#
# 1 73.3305 46.5070 78.3416 0.0000 0.0000 0.0000
# 2 46.5070 78.3969 60.9516 0.0000 0.0000 0.0000
# 3 78.3416 60.9516 128.9372 0.0000 0.0000 0.0000
# 4 0.0000 0.0000 0.0000 24.4251 0.0000 0.0000
# 5 0.0000 0.0000 0.0000 0.0000 27.6017 0.0000
# 6 0.0000 0.0000 0.0000 0.0000 0.0000 21.4318
#
#
#
# Elastic Compliance Matrix: (Units=1/GPa)
#
#
# Indices 1 2 3 4 5 6 
#
# 1 0.041805 -0.007987 -0.021625 0.000000 0.000000 0.000000
# 2 -0.007987 0.021694 -0.005402 0.000000 0.000000 0.000000
# 3 -0.021625 -0.005402 0.023449 0.000000 0.000000 0.000000
# 4 0.000000 0.000000 0.000000 0.040941 0.000000 0.000000
# 5 0.000000 0.000000 0.000000 0.000000 0.036230 0.000000
# 6 0.000000 0.000000 0.000000 0.000000 0.000000 0.046660
#
#
# Mechanical properties :
#
#
# Convention : Reuss Voigt Hill
#
# Bulk Modulus (GPa) = 59.10459 72.47389 65.78924
# Shear Modulus (GPa) = 17.45528 21.01603 19.23565
#
# Velocity S-wave (km/s) = 3.28326 3.60261 3.44664
# Velocity P-wave (km/s) = 7.13261 7.87798 7.51454
#
# Compressibility (1/GPa) = 0.01691916
#
# Stress axis : x y z
#
# Youngs Moduli (GPa) = 23.92059 46.09598 42.64622
#
# Poissons Ratio (x) = 0.36817 0.92222
# Poissons Ratio (y) = 0.19105 0.23039
# Poissons Ratio (z) = 0.51728 0.24903
#
# Static dielectric constant tensor:
#      x y z
#    x 1.538900 0.000000 0.000000 
#    y 0.000000 1.524240 0.000000 
#    z 0.000000 0.000000 1.523750 
# 
# From -- ./inp_files/64615.got.cif
#   From: 2010.05.17/outbox.cif.g08.bks.cpg/sg63_33_cif.got.tgz:64615.got - 2010.06.03 15:47:04.
