data_PCOD9470479
_publ_section_title
;
Structure prediction by ZEFSAII (Michael W. Deem and Ramdas Pophale) SiO2 
 PCOD9470479
Probable space group: C M C M
;
_chemical_formula_sum "Si O2"
_cell_formula_units_Z 72
_cell_length_a 16.501496
_cell_length_b 27.836531
_cell_length_c 8.790342
_cell_angle_alpha 90.000000
_cell_angle_beta 90.000000
_cell_angle_gamma 90.000000
_cell_volume 4037.794415
_symmetry_space_group_name_H-M "C M C M"
_symmetry_group_IT_number 63
_symmetry_cell_setting 'orthorhombic'
loop_
_space_group_symop_operation_xyz
x,y,z
-x,-y,1/2+z
x,-y,-z
-x,y,1/2-z
-x,-y,-z
x,y,1/2-z
-x,y,z
x,-y,1/2+z
1/2+x,1/2+y,z
1/2-x,1/2-y,1/2+z
1/2+x,1/2-y,-z
1/2-x,1/2+y,1/2-z
1/2-x,1/2-y,-z
1/2+x,1/2+y,1/2-z
1/2-x,1/2+y,z
1/2+x,1/2-y,1/2+z
loop_
_atom_site_type_symbol
_atom_site_label
_atom_site_fract_x
_atom_site_fract_y
_atom_site_fract_z
Si Si1 0.839672 0.396700 0.933183
Si Si2 0.754959 0.197306 0.430646
Si Si3 0.184584 0.050511 0.570467
Si Si4 0.500000 0.054298 0.567269
Si Si5 0.408252 0.353712 0.430312
O O1 0.847142 0.398407 0.750000
O O2 0.812755 0.342338 0.979060
O O3 0.764844 0.429826 0.986878
O O4 0.920841 0.417085 0.008680
O O5 0.749372 0.200772 0.250000
O O6 0.750000 0.250000 0.500000
O O7 0.841165 0.175530 0.479275
O O8 0.201872 0.045970 0.750000
O O9 0.115428 0.090534 0.551119
O O10 0.161026 0.000000 0.500000
O O11 0.500000 0.051524 0.750000
O O12 0.500000 0.000000 0.500000
O O13 0.400523 0.342724 0.250000
O O14 0.500000 0.344196 0.477750
#
# Coordination Sequence:
#
# PCOD9470479 Si02
#       5
#    16  16  16   8  16
#     4  10  21  38  57  80 110 145 187 231 276 331
#     4  10  21  38  61  84 109 143 182 228 280 332
#     4  10  19  32  52  78 109 146 185 223 268 321
#     4  12  24  38  58  84 116 152 188 234 285 338
#     4   9  19  36  56  79 109 144 181 223 269 319
#
# _framework density 17.831516000000001
#
# number of rings (size 3 to 8) (size 9 to 14) (size 15 to 20)
#    0.000    2.000    0.000    3.667    0.000    4.444 
#    2.000    0.000    0.000    0.000    0.000    0.000 
#    0.000    0.000    0.000    0.000    0.000    0.000 
#
# Total GULP energy -200943.058250 kJ/mol
# GULP energy per Si atom -5581.751618 kJ/mol
# Density = 1.779093 g / cm^3
# Si number density = 17.831516 Si / 1000 Ang^3
#
#
#
# Elastic Constant Matrix: (Units=GPa)
#
#
# Indices 1 2 3 4 5 6 
#
# 1 104.2283 48.8317 41.4540 0.0000 0.0000 0.0000
# 2 48.8317 143.3560 60.0605 0.0000 0.0000 0.0000
# 3 41.4540 60.0605 79.2270 0.0000 0.0000 0.0000
# 4 0.0000 0.0000 0.0000 35.5451 0.0000 0.0000
# 5 0.0000 0.0000 0.0000 0.0000 27.4634 0.0000
# 6 0.0000 0.0000 0.0000 0.0000 0.0000 9.6574
#
#
#
# Elastic Compliance Matrix: (Units=1/GPa)
#
#
# Indices 1 2 3 4 5 6 
#
# 1 0.012588 -0.002240 -0.004888 0.000000 0.000000 0.000000
# 2 -0.002240 0.010621 -0.006880 0.000000 0.000000 0.000000
# 3 -0.004888 -0.006880 0.020395 0.000000 0.000000 0.000000
# 4 0.000000 0.000000 0.000000 0.028133 0.000000 0.000000
# 5 0.000000 0.000000 0.000000 0.000000 0.036412 0.000000
# 6 0.000000 0.000000 0.000000 0.000000 0.000000 0.103547
#
#
# Mechanical properties :
#
#
# Convention : Reuss Voigt Hill
#
# Bulk Modulus (GPa) = 64.15103 69.72264 66.93684
# Shear Modulus (GPa) = 20.41583 26.29754 23.35669
#
# Velocity S-wave (km/s) = 3.38735 3.84445 3.62312
# Velocity P-wave (km/s) = 7.16611 7.67412 7.42446
#
# Compressibility (1/GPa) = 0.01558821
#
# Stress axis : x y z
#
# Youngs Moduli (GPa) = 79.44119 94.15457 49.03168
#
# Poissons Ratio (x) = 0.21089 0.23969
# Poissons Ratio (y) = 0.17793 0.33731
# Poissons Ratio (z) = 0.38834 0.64774
#
# Static dielectric constant tensor:
#      x y z
#    x 1.581800 0.000000 0.000000 
#    y 0.000000 1.607220 0.000000 
#    z 0.000000 0.000000 1.603400 
# 
# From -- ./inp_files/4610.got.cif
#   From: 2010.05.17/outbox.cif.g08.bks.cpg/sg63_3_cif.got.tgz:4610.got - 2010.06.03 15:47:04.
