data_PCOD9470963
_publ_section_title
;
Structure prediction by ZEFSAII (Michael W. Deem and Ramdas Pophale) SiO2 
 PCOD9470963
Probable space group: C M C M
;
_chemical_formula_sum "Si O2"
_cell_formula_units_Z 64
_cell_length_a 21.718988
_cell_length_b 18.781642
_cell_length_c 8.517446
_cell_angle_alpha 90.000000
_cell_angle_beta 90.000000
_cell_angle_gamma 90.000000
_cell_volume 3474.421728
_symmetry_space_group_name_H-M "C M C M"
_symmetry_group_IT_number 63
_symmetry_cell_setting 'orthorhombic'
loop_
_space_group_symop_operation_xyz
x,y,z
-x,-y,1/2+z
x,-y,-z
-x,y,1/2-z
-x,-y,-z
x,y,1/2-z
-x,y,z
x,-y,1/2+z
1/2+x,1/2+y,z
1/2-x,1/2-y,1/2+z
1/2+x,1/2-y,-z
1/2-x,1/2+y,1/2-z
1/2-x,1/2-y,-z
1/2+x,1/2+y,1/2-z
1/2-x,1/2+y,z
1/2+x,1/2-y,1/2+z
loop_
_atom_site_type_symbol
_atom_site_label
_atom_site_fract_x
_atom_site_fract_y
_atom_site_fract_z
Si Si1 0.382912 0.665742 0.938077
Si Si2 0.500000 0.080049 0.440448
Si Si3 0.118400 0.668448 0.440878
Si Si4 0.500000 0.419888 0.936654
Si Si5 0.246933 0.168814 0.438445
O O1 0.385099 0.664814 0.750000
O O2 0.387924 0.748804 0.990182
O O3 0.439402 0.621143 0.003994
O O4 0.316017 0.637833 0.992776
O O5 0.500000 0.080277 0.250000
O O6 0.561052 0.121848 0.494578
O O7 0.500000 0.000000 0.500000
O O8 0.117306 0.669423 0.250000
O O9 0.185967 0.639095 0.486095
O O10 0.500000 0.421032 0.750000
O O11 0.500000 0.500000 0.000000
O O12 0.243008 0.168704 0.250000
O O13 0.250000 0.250000 0.500000
#
# Coordination Sequence:
#
# PCOD9470963 Si02
#       5
#    16   8  16   8  16
#     4  10  19  35  58  82 104 135 175 218 266 320
#     4  10  19  34  50  70 100 138 177 214 254 302
#     4   8  16  31  54  77 104 140 176 212 260 316
#     4  12  25  40  56  78 108 142 175 216 264 320
#     4   9  16  29  50  79 108 137 173 219 268 317
#
# _framework density 18.420331999999998
#
# number of rings (size 3 to 8) (size 9 to 14) (size 15 to 20)
#    0.000    2.500    0.000    4.875    0.000    2.000 
#    0.000   10.000    0.000    3.000    0.000    0.000 
#    0.000    0.000    0.000    0.000    0.000    0.000 
#
# Total GULP energy -178399.811667 kJ/mol
# GULP energy per Si atom -5574.994115 kJ/mol
# Density = 1.837841 g / cm^3
# Si number density = 18.420332 Si / 1000 Ang^3
#
#
#
# Elastic Constant Matrix: (Units=GPa)
#
#
# Indices 1 2 3 4 5 6 
#
# 1 241.0619 90.1495 51.7891 0.0000 0.0000 0.0000
# 2 90.1495 81.6763 24.9671 0.0000 0.0000 0.0000
# 3 51.7891 24.9671 65.5225 0.0000 0.0000 0.0000
# 4 0.0000 0.0000 0.0000 24.1865 0.0000 0.0000
# 5 0.0000 0.0000 0.0000 0.0000 29.8648 0.0000
# 6 0.0000 0.0000 0.0000 0.0000 0.0000 -5.7888
#
#
#
# Elastic Compliance Matrix: (Units=1/GPa)
#
#
# Indices 1 2 3 4 5 6 
#
# 1 0.007609 -0.007425 -0.003185 0.000000 0.000000 0.000000
# 2 -0.007425 0.021103 -0.002172 0.000000 0.000000 0.000000
# 3 -0.003185 -0.002172 0.018607 0.000000 0.000000 0.000000
# 4 0.000000 0.000000 0.000000 0.041345 0.000000 0.000000
# 5 0.000000 0.000000 0.000000 0.000000 0.033484 0.000000
# 6 0.000000 0.000000 0.000000 0.000000 0.000000 -0.172748
#
#
# Mechanical properties :
#
#
# Convention : Reuss Voigt Hill
#
# Bulk Modulus (GPa) = 45.96794 80.23021 63.09908
# Shear Modulus (GPa) = -281.18219 24.40952 -128.38634
#
# Velocity S-wave (km/s) = -12.36847 3.64420 -8.35760
# Velocity P-wave (km/s) = 13.37770 7.83305 7.66832
#
# Compressibility (1/GPa) = 0.02175429
#
# Stress axis : x y z
#
# Youngs Moduli (GPa) = 131.41723 47.38686 53.74253
#
# Poissons Ratio (x) = 0.35185 0.17118
# Poissons Ratio (y) = 0.97579 0.11675
# Poissons Ratio (z) = 0.41858 0.10294
#
# Static dielectric constant tensor:
#      x y z
#    x 1.672120 0.000000 0.000000 
#    y 0.000000 1.595180 0.000000 
#    z 0.000000 0.000000 1.604320 
# 
# From -- ./inp_files/7508.got.cif
#   From: 2010.05.17/outbox.cif.g08.bks.cpg/sg63_4_cif.got.tgz:7508.got - 2010.06.03 15:47:04.
