data_PCOD9470573
_publ_section_title
;
Structure prediction by ZEFSAII (Michael W. Deem and Ramdas Pophale) SiO2 
 PCOD9470573
Probable space group: C M C M
;
_chemical_formula_sum "Si O2"
_cell_formula_units_Z 80
_cell_length_a 9.476171
_cell_length_b 15.390589
_cell_length_c 29.317917
_cell_angle_alpha 90.000000
_cell_angle_beta 90.000000
_cell_angle_gamma 90.000000
_cell_volume 4275.837982
_symmetry_space_group_name_H-M "C M C M"
_symmetry_group_IT_number 63
_symmetry_cell_setting 'orthorhombic'
loop_
_space_group_symop_operation_xyz
x,y,z
-x,-y,1/2+z
x,-y,-z
-x,y,1/2-z
-x,-y,-z
x,y,1/2-z
-x,y,z
x,-y,1/2+z
1/2+x,1/2+y,z
1/2-x,1/2-y,1/2+z
1/2+x,1/2-y,-z
1/2-x,1/2+y,1/2-z
1/2-x,1/2-y,-z
1/2+x,1/2+y,1/2-z
1/2-x,1/2+y,z
1/2+x,1/2-y,1/2+z
loop_
_atom_site_type_symbol
_atom_site_label
_atom_site_fract_x
_atom_site_fract_y
_atom_site_fract_z
Si Si1 0.336429 0.863275 0.040704
Si Si2 0.832502 0.098975 0.349791
Si Si3 0.331511 0.594177 0.630546
Si Si4 0.330947 0.750850 0.802183
Si Si5 0.663119 0.347091 0.547257
O O1 0.500000 0.889034 0.040932
O O2 0.251914 0.902107 0.083199
O O3 0.329814 0.758007 0.046231
O O4 0.261870 0.882792 0.992658
O O5 0.745591 0.161328 0.317168
O O6 0.796875 0.122061 0.402343
O O7 0.000000 0.114924 0.344079
O O8 0.805377 0.996903 0.344283
O O9 0.500000 0.599175 0.621252
O O10 0.290774 0.674660 0.662647
O O11 0.296386 0.728018 0.750000
O O12 0.500000 0.761480 0.805314
O O13 0.500000 0.372130 0.538818
#
# Coordination Sequence:
#
# PCOD9470573 Si02
#       5
#    16  16  16  16  16
#     4  10  19  32  54  82 114 151 192 230 272 327
#     4  10  21  38  60  86 112 147 191 232 274 330
#     4  10  21  37  59  84 114 149 185 228 281 335
#     4  10  22  40  60  83 112 144 180 229 287 339
#     4   9  18  33  53  79 113 150 191 230 273 327
#
# _framework density 18.709782000000001
#
# number of rings (size 3 to 8) (size 9 to 14) (size 15 to 20)
#    0.000    2.200    2.000    0.600    0.000    4.400 
#    0.000    6.000    0.000    0.000    0.000    0.000 
#    0.000    0.000    0.000    0.000    0.000    0.000 
#
# Total GULP energy -223382.753327 kJ/mol
# GULP energy per Si atom -5584.568833 kJ/mol
# Density = 1.866720 g / cm^3
# Si number density = 18.709782 Si / 1000 Ang^3
#
#
#
# Elastic Constant Matrix: (Units=GPa)
#
#
# Indices 1 2 3 4 5 6 
#
# 1 28.2761 8.9392 17.3005 0.0000 0.0000 0.0000
# 2 8.9392 30.5874 -1.5662 0.0000 0.0000 0.0000
# 3 17.3005 -1.5662 45.5064 0.0000 0.0000 0.0000
# 4 0.0000 0.0000 0.0000 5.6828 0.0000 0.0000
# 5 0.0000 0.0000 0.0000 0.0000 30.9509 0.0000
# 6 0.0000 0.0000 0.0000 0.0000 0.0000 23.8913
#
#
#
# Elastic Compliance Matrix: (Units=1/GPa)
#
#
# Indices 1 2 3 4 5 6 
#
# 1 0.053414 -0.016680 -0.020881 0.000000 0.000000 0.000000
# 2 -0.016680 0.037959 0.007648 0.000000 0.000000 0.000000
# 3 -0.020881 0.007648 0.030177 0.000000 0.000000 0.000000
# 4 0.000000 0.000000 0.000000 0.175970 0.000000 0.000000
# 5 0.000000 0.000000 0.000000 0.000000 0.032309 0.000000
# 6 0.000000 0.000000 0.000000 0.000000 0.000000 0.041856
#
#
# Mechanical properties :
#
#
# Convention : Reuss Voigt Hill
#
# Bulk Modulus (GPa) = 16.20099 17.07965 16.64032
# Shear Modulus (GPa) = 11.05983 17.41810 14.23896
#
# Velocity S-wave (km/s) = 2.43394 3.05448 2.76169
# Velocity P-wave (km/s) = 4.07145 4.64632 4.36835
#
# Compressibility (1/GPa) = 0.06172460
#
# Stress axis : x y z
#
# Youngs Moduli (GPa) = 18.72152 26.34388 33.13824
#
# Poissons Ratio (x) = 0.43941 0.69196
# Poissons Ratio (y) = 0.31227 -0.25343
# Poissons Ratio (z) = 0.39092 -0.20147
#
# Static dielectric constant tensor:
#      x y z
#    x 1.625740 0.000000 0.000000 
#    y 0.000000 1.660730 0.000000 
#    z 0.000000 0.000000 1.617010 
# 
# From -- ./inp_files/71603.got.cif
#   From: 2010.05.17/outbox.cif.g08.bks.cpg/sg63_36_cif.got.tgz:71603.got - 2010.06.03 15:47:04.
