data_PCOD9470244
_publ_section_title
;
Structure prediction by ZEFSAII (Michael W. Deem and Ramdas Pophale) SiO2 
 PCOD9470244
Probable space group: C M C M
;
_chemical_formula_sum "Si O2"
_cell_formula_units_Z 116
_cell_length_a 7.269292
_cell_length_b 24.151231
_cell_length_c 26.395629
_cell_angle_alpha 90.000000
_cell_angle_beta 90.000000
_cell_angle_gamma 90.000000
_cell_volume 4634.078665
_symmetry_space_group_name_H-M "C M C M"
_symmetry_group_IT_number 63
_symmetry_cell_setting 'orthorhombic'
loop_
_space_group_symop_operation_xyz
x,y,z
-x,-y,1/2+z
x,-y,-z
-x,y,1/2-z
-x,-y,-z
x,y,1/2-z
-x,y,z
x,-y,1/2+z
1/2+x,1/2+y,z
1/2-x,1/2-y,1/2+z
1/2+x,1/2-y,-z
1/2-x,1/2+y,1/2-z
1/2-x,1/2-y,-z
1/2+x,1/2+y,1/2-z
1/2-x,1/2+y,z
1/2+x,1/2-y,1/2+z
loop_
_atom_site_type_symbol
_atom_site_label
_atom_site_fract_x
_atom_site_fract_y
_atom_site_fract_z
Si Si1 0.276445 0.304086 0.693933
Si Si2 0.500000 0.190967 0.750000
Si Si3 0.213144 0.349474 0.962002
Si Si4 0.774430 0.843653 0.163321
Si Si5 0.276622 0.945489 0.467774
Si Si6 0.792625 0.242018 0.589561
Si Si7 0.721686 0.413842 0.858085
Si Si8 0.292575 0.535416 0.851531
O O1 0.212092 0.289465 0.750000
O O2 0.500000 0.298621 0.693787
O O3 0.203048 0.273223 0.644341
O O4 0.233935 0.368445 0.683784
O O5 0.338940 0.187662 0.705936
O O6 0.292318 0.288937 0.947093
O O7 0.217135 0.387940 0.911638
O O8 0.000000 0.339035 0.974478
O O9 0.289535 0.389195 0.005342
O O10 0.719402 0.817189 0.108532
O O11 0.716164 0.907555 0.169946
O O12 0.000000 0.840317 0.167079
O O13 0.500000 0.944134 0.466085
O O14 0.204796 0.953419 0.411572
O O15 0.225787 0.000000 0.500000
O O16 0.000000 0.232229 0.571780
O O17 0.500000 0.417466 0.862189
O O18 0.792891 0.474915 0.846100
O O19 0.500000 0.531534 0.831210
#
# Coordination Sequence:
#
# PCOD9470244 Si02
#       8
#    16   4  16  16  16  16  16  16
#     4   9  18  30  49  76 104 134 181 234 290 357
#     4  12  26  44  72  90 114 160 208 252 300 356
#     4   9  17  32  52  81 113 151 189 237 301 347
#     4  10  24  44  64  92 120 156 203 251 300 358
#     4  10  19  31  54  85 116 153 201 249 289 352
#     4   9  19  35  56  77 113 149 184 241 297 352
#     4   9  17  31  50  75 106 146 184 234 294 350
#     4  10  21  37  57  80 118 157 194 244 299 353
#
# _framework density 25.031945
#
# number of rings (size 3 to 8) (size 9 to 14) (size 15 to 20)
#    0.000    2.483    1.379    0.207    2.897    1.103 
#    1.241    0.690    0.000    0.000    0.000    0.000 
#    0.000    0.000    0.000    0.000    0.000    0.000 
#
# Total GULP energy -323404.268188 kJ/mol
# GULP energy per Si atom -5575.935658 kJ/mol
# Density = 2.497497 g / cm^3
# Si number density = 25.031945 Si / 1000 Ang^3
#
#
#
# Elastic Constant Matrix: (Units=GPa)
#
#
# Indices 1 2 3 4 5 6 
#
# 1 122.5622 4.0884 0.7613 0.0000 0.0000 0.0000
# 2 4.0884 138.5380 20.4781 0.0000 0.0000 0.0000
# 3 0.7613 20.4781 52.0646 0.0000 0.0000 0.0000
# 4 0.0000 0.0000 0.0000 18.9216 0.0000 0.0000
# 5 0.0000 0.0000 0.0000 0.0000 22.8637 0.0000
# 6 0.0000 0.0000 0.0000 0.0000 0.0000 0.9170
#
#
#
# Elastic Compliance Matrix: (Units=1/GPa)
#
#
# Indices 1 2 3 4 5 6 
#
# 1 0.008167 -0.000237 -0.000026 0.000000 0.000000 0.000000
# 2 -0.000237 0.007671 -0.003014 0.000000 0.000000 0.000000
# 3 -0.000026 -0.003014 0.020393 0.000000 0.000000 0.000000
# 4 0.000000 0.000000 0.000000 0.052850 0.000000 0.000000
# 5 0.000000 0.000000 0.000000 0.000000 0.043737 0.000000
# 6 0.000000 0.000000 0.000000 0.000000 0.000000 1.090503
#
#
# Mechanical properties :
#
#
# Convention : Reuss Voigt Hill
#
# Bulk Modulus (GPa) = 33.69642 40.42447 37.06045
# Shear Modulus (GPa) = 4.03302 27.72961 15.88131
#
# Velocity S-wave (km/s) = 1.27069 3.33193 2.52155
# Velocity P-wave (km/s) = 3.95518 5.56655 4.82856
#
# Compressibility (1/GPa) = 0.02967674
#
# Stress axis : x y z
#
# Youngs Moduli (GPa) = 122.44103 130.36642 49.03739
#
# Poissons Ratio (x) = 0.03092 0.00128
# Poissons Ratio (y) = 0.02904 0.14778
# Poissons Ratio (z) = 0.00320 0.39287
#
# Static dielectric constant tensor:
#      x y z
#    x 1.966890 0.000000 0.000000 
#    y 0.000000 2.111570 0.000000 
#    z 0.000000 0.000000 1.945060 
# 
# From -- ./inp_files/60440.got.cif
#   From: 2010.05.17/outbox.cif.g08.bks.cpg/sg63_31_cif.got.tgz:60440.got - 2010.06.03 15:47:04.
