data_PCOD9470211
_publ_section_title
;
Structure prediction by ZEFSAII (Michael W. Deem and Ramdas Pophale) SiO2 
 PCOD9470211
Probable space group: C M C M
;
_chemical_formula_sum "Si O2"
_cell_formula_units_Z 112
_cell_length_a 23.384838
_cell_length_b 12.713251
_cell_length_c 20.576901
_cell_angle_alpha 90.000000
_cell_angle_beta 90.000000
_cell_angle_gamma 90.000000
_cell_volume 6117.457420
_symmetry_space_group_name_H-M "C M C M"
_symmetry_group_IT_number 63
_symmetry_cell_setting 'orthorhombic'
loop_
_space_group_symop_operation_xyz
x,y,z
-x,-y,1/2+z
x,-y,-z
-x,y,1/2-z
-x,-y,-z
x,y,1/2-z
-x,y,z
x,-y,1/2+z
1/2+x,1/2+y,z
1/2-x,1/2-y,1/2+z
1/2+x,1/2-y,-z
1/2-x,1/2+y,1/2-z
1/2-x,1/2-y,-z
1/2+x,1/2+y,1/2-z
1/2-x,1/2+y,z
1/2+x,1/2-y,1/2+z
loop_
_atom_site_type_symbol
_atom_site_label
_atom_site_fract_x
_atom_site_fract_y
_atom_site_fract_z
Si Si1 0.565256 0.705119 0.351153
Si Si2 0.434118 0.627682 0.498727
Si Si3 0.168958 0.651004 0.822582
Si Si4 0.435295 0.471355 0.177992
Si Si5 0.844437 0.164103 0.899431
Si Si6 0.268064 0.173644 0.173807
Si Si7 0.234418 0.519558 0.923641
O O1 0.500000 0.731728 0.335148
O O2 0.569141 0.673598 0.426669
O O3 0.607892 0.795810 0.331493
O O4 0.579857 0.593843 0.318674
O O5 0.423595 0.500000 0.500000
O O6 0.500000 0.643397 0.520837
O O7 0.385312 0.686833 0.539514
O O8 0.173718 0.602673 0.750000
O O9 0.215592 0.744492 0.825038
O O10 0.184316 0.575670 0.882394
O O11 0.438287 0.427280 0.250000
O O12 0.500000 0.466844 0.149532
O O13 0.386676 0.410058 0.141153
O O14 0.821367 0.261064 0.856749
O O15 0.789516 0.096253 0.921072
O O16 0.277127 0.141769 0.250000
O O17 0.253706 0.082617 0.121558
O O18 0.221877 0.500000 0.000000
#
# Coordination Sequence:
#
# PCOD9470211 Si02
#       7
#    16  16  16  16  16  16  16
#     4  10  20  33  55  85 114 146 182 225 280 334
#     4  10  19  32  52  83 122 154 178 219 282 340
#     4  10  22  39  60  82 112 148 185 231 282 332
#     4  10  19  31  51  83 118 148 183 228 277 337
#     4  11  21  34  58  80 113 150 190 225 280 335
#     4  10  23  40  57  81 112 149 190 233 282 331
#     4  11  25  38  57  84 112 148 191 237 278 327
#
# _framework density 18.308261000000002
#
# number of rings (size 3 to 8) (size 9 to 14) (size 15 to 20)
#    0.000    1.714    1.429    3.000    4.000    4.857 
#    0.000    0.000    0.000    2.143    0.000    0.000 
#    0.000    0.000    0.000    0.000    0.000    0.000 
#
# Total GULP energy -312222.317766 kJ/mol
# GULP energy per Si atom -5575.398532 kJ/mol
# Density = 1.826659 g / cm^3
# Si number density = 18.308261 Si / 1000 Ang^3
#
#
#
# Elastic Constant Matrix: (Units=GPa)
#
#
# Indices 1 2 3 4 5 6 
#
# 1 35.6128 -1.8747 11.2525 0.0000 0.0000 0.0000
# 2 -1.8747 27.0654 28.7394 0.0000 0.0000 0.0000
# 3 11.2525 28.7394 143.0395 0.0000 0.0000 0.0000
# 4 0.0000 0.0000 0.0000 24.6589 0.0000 0.0000
# 5 0.0000 0.0000 0.0000 0.0000 20.5367 0.0000
# 6 0.0000 0.0000 0.0000 0.0000 0.0000 15.6715
#
#
#
# Elastic Compliance Matrix: (Units=1/GPa)
#
#
# Indices 1 2 3 4 5 6 
#
# 1 0.029477 0.005726 -0.003469 0.000000 0.000000 0.000000
# 2 0.005726 0.048080 -0.010111 0.000000 0.000000 0.000000
# 3 -0.003469 -0.010111 0.009295 0.000000 0.000000 0.000000
# 4 0.000000 0.000000 0.000000 0.040553 0.000000 0.000000
# 5 0.000000 0.000000 0.000000 0.000000 0.048693 0.000000
# 6 0.000000 0.000000 0.000000 0.000000 0.000000 0.063810
#
#
# Mechanical properties :
#
#
# Convention : Reuss Voigt Hill
#
# Bulk Modulus (GPa) = 14.05589 31.32800 22.69195
# Shear Modulus (GPa) = 17.89978 23.34680 20.62329
#
# Velocity S-wave (km/s) = 3.13019 3.57488 3.35990
# Velocity P-wave (km/s) = 4.55611 5.84707 5.24149
#
# Compressibility (1/GPa) = 0.07114454
#
# Stress axis : x y z
#
# Youngs Moduli (GPa) = 33.92427 20.79857 107.57981
#
# Poissons Ratio (x) = -0.11909 0.37323
# Poissons Ratio (y) = -0.19424 1.08770
# Poissons Ratio (z) = 0.11769 0.21029
#
# Static dielectric constant tensor:
#      x y z
#    x 1.559770 0.000000 0.000000 
#    y 0.000000 1.617320 0.000000 
#    z 0.000000 0.000000 1.677750 
# 
# From -- ./inp_files/57575.got.cif
#   From: 2010.05.17/outbox.cif.g08.bks.cpg/sg63_29_cif.got.tgz:57575.got - 2010.06.03 15:47:04.
