data_PCOD9470750
_publ_section_title
;
Structure prediction by ZEFSAII (Michael W. Deem and Ramdas Pophale) SiO2 
 PCOD9470750
Probable space group: C M C M
;
_chemical_formula_sum "Si O2"
_cell_formula_units_Z 88
_cell_length_a 34.473820
_cell_length_b 5.218345
_cell_length_c 26.474733
_cell_angle_alpha 90.000000
_cell_angle_beta 90.000000
_cell_angle_gamma 90.000000
_cell_volume 4762.706146
_symmetry_space_group_name_H-M "C M C M"
_symmetry_group_IT_number 63
_symmetry_cell_setting 'orthorhombic'
loop_
_space_group_symop_operation_xyz
x,y,z
-x,-y,1/2+z
x,-y,-z
-x,y,1/2-z
-x,-y,-z
x,y,1/2-z
-x,y,z
x,-y,1/2+z
1/2+x,1/2+y,z
1/2-x,1/2-y,1/2+z
1/2+x,1/2-y,-z
1/2-x,1/2+y,1/2-z
1/2-x,1/2-y,-z
1/2+x,1/2+y,1/2-z
1/2-x,1/2+y,z
1/2+x,1/2-y,1/2+z
loop_
_atom_site_type_symbol
_atom_site_label
_atom_site_fract_x
_atom_site_fract_y
_atom_site_fract_z
Si Si1 0.953860 0.483604 0.344856
Si Si2 0.088867 0.013282 0.692876
Si Si3 0.598398 0.982572 0.442835
Si Si4 0.223371 0.960721 0.361850
Si Si5 0.358907 0.485846 0.405415
Si Si6 0.725780 0.453273 0.750000
O O1 0.935649 0.730584 0.317681
O O2 0.935745 0.476801 0.401326
O O3 0.000000 0.495140 0.345834
O O4 0.938591 0.230466 0.316892
O O5 0.103736 0.011083 0.750000
O O6 0.122096 0.001545 0.650524
O O7 0.624320 0.729756 0.434836
O O8 0.583924 0.000000 0.500000
O O9 0.624871 0.228144 0.430413
O O10 0.253788 0.193738 0.367429
O O11 0.207404 0.983308 0.304006
O O12 0.187193 0.984119 0.399066
O O13 0.762287 0.653825 0.750000
#
# Coordination Sequence:
#
# PCOD9470750 Si02
#       6
#    16  16  16  16  16   8
#     4  10  21  36  55  83 110 138 183 223 262 320
#     4  10  21  35  53  80 114 151 180 210 259 318
#     4  10  21  39  59  79 104 139 181 227 279 320
#     4  10  19  33  53  78 109 141 177 221 267 310
#     4  10  21  36  57  81 107 143 182 223 266 327
#     4   8  16  28  44  72 102 134 167 200 253 308
#
# _framework density 18.476890000000001
#
# number of rings (size 3 to 8) (size 9 to 14) (size 15 to 20)
#    0.000    2.182    0.000    2.727    1.273    2.545 
#    0.000    0.000    0.000   17.455    0.000    0.000 
#    0.000    0.000    0.000    0.000    0.000    0.000 
#
# Total GULP energy -245555.887584 kJ/mol
# GULP energy per Si atom -5580.815627 kJ/mol
# Density = 1.843484 g / cm^3
# Si number density = 18.476890 Si / 1000 Ang^3
#
#
#
# Elastic Constant Matrix: (Units=GPa)
#
#
# Indices 1 2 3 4 5 6 
#
# 1 50.0014 1.8351 -15.5681 0.0000 0.0000 0.0000
# 2 1.8351 109.5509 11.3693 0.0000 0.0000 0.0000
# 3 -15.5681 11.3693 91.4839 0.0000 0.0000 0.0000
# 4 0.0000 0.0000 0.0000 -13.6304 0.0000 0.0000
# 5 0.0000 0.0000 0.0000 0.0000 9.1255 0.0000
# 6 0.0000 0.0000 0.0000 0.0000 0.0000 -8.6246
#
#
#
# Elastic Compliance Matrix: (Units=1/GPa)
#
#
# Indices 1 2 3 4 5 6 
#
# 1 0.021177 -0.000738 0.003696 0.000000 0.000000 0.000000
# 2 -0.000738 0.009273 -0.001278 0.000000 0.000000 0.000000
# 3 0.003696 -0.001278 0.011719 0.000000 0.000000 0.000000
# 4 0.000000 0.000000 0.000000 -0.073365 0.000000 0.000000
# 5 0.000000 0.000000 0.000000 0.000000 0.109583 0.000000
# 6 0.000000 0.000000 0.000000 0.000000 0.000000 -0.115948
#
#
# Mechanical properties :
#
#
# Convention : Reuss Voigt Hill
#
# Bulk Modulus (GPa) = 21.96483 27.36764 24.66624
# Shear Modulus (GPa) = -194.22489 14.26742 -89.97874
#
# Velocity S-wave (km/s) = -10.26382 2.78182 -6.98596
# Velocity P-wave (km/s) = 11.33789 5.01618 7.18977
#
# Compressibility (1/GPa) = 0.04552732
#
# Stress axis : x y z
#
# Youngs Moduli (GPa) = 47.22071 107.83786 85.33444
#
# Poissons Ratio (x) = 0.07961 -0.31536
# Poissons Ratio (y) = 0.03486 0.10906
# Poissons Ratio (z) = -0.17451 0.13782
#
# Static dielectric constant tensor:
#      x y z
#    x 1.586560 0.000000 0.000000 
#    y 0.000000 1.620480 0.000000 
#    z 0.000000 0.000000 1.639560 
# 
# From -- ./inp_files/65700.got.cif
#   From: 2010.05.17/outbox.cif.g08.bks.cpg/sg63_33_cif.got.tgz:65700.got - 2010.06.03 15:47:04.
