data_PCOD9470800
_publ_section_title
;
Structure prediction by ZEFSAII (Michael W. Deem and Ramdas Pophale) SiO2 
 PCOD9470800
Probable space group: C M C M
;
_chemical_formula_sum "Si O2"
_cell_formula_units_Z 80
_cell_length_a 12.801678
_cell_length_b 19.561006
_cell_length_c 18.862749
_cell_angle_alpha 90.000000
_cell_angle_beta 90.000000
_cell_angle_gamma 90.000000
_cell_volume 4723.490772
_symmetry_space_group_name_H-M "C M C M"
_symmetry_group_IT_number 63
_symmetry_cell_setting 'orthorhombic'
loop_
_space_group_symop_operation_xyz
x,y,z
-x,-y,1/2+z
x,-y,-z
-x,y,1/2-z
-x,-y,-z
x,y,1/2-z
-x,y,z
x,-y,1/2+z
1/2+x,1/2+y,z
1/2-x,1/2-y,1/2+z
1/2+x,1/2-y,-z
1/2-x,1/2+y,1/2-z
1/2-x,1/2-y,-z
1/2+x,1/2+y,1/2-z
1/2-x,1/2+y,z
1/2+x,1/2-y,1/2+z
loop_
_atom_site_type_symbol
_atom_site_label
_atom_site_fract_x
_atom_site_fract_y
_atom_site_fract_z
Si Si1 0.879788 0.995900 0.668430
Si Si2 0.881023 0.074947 0.535151
Si Si3 0.192860 0.392068 0.831578
Si Si4 0.000000 0.476620 0.884709
Si Si5 0.500000 0.110412 0.969551
Si Si6 0.292805 0.176309 0.021535
O O1 0.873790 0.016809 0.750000
O O2 0.854314 0.058228 0.616572
O O3 0.000000 0.975722 0.652381
O O4 0.801503 0.932905 0.659010
O O5 0.796923 0.122826 0.499789
O O6 0.000000 0.100877 0.529418
O O7 0.877199 0.000000 0.500000
O O8 0.186077 0.367207 0.750000
O O9 0.184472 0.336251 0.894484
O O10 0.102018 0.448315 0.844795
O O11 0.000000 0.556931 0.904125
O O12 0.000000 0.437151 0.960056
O O13 0.396483 0.155897 0.977708
O O14 0.250000 0.250000 0.000000
#
# Coordination Sequence:
#
# PCOD9470800 Si02
#       6
#    16  16  16   8   8  16
#     4   9  17  30  51  82 109 132 170 226 280 318
#     4  10  19  33  56  81 106 138 183 232 272 319
#     4  10  19  33  54  80 108 140 182 224 277 335
#     4   9  17  32  58  82 107 133 177 231 280 321
#     4   9  20  34  54  82 109 140 179 233 275 328
#     4  11  23  36  54  79 115 150 188 226 277 337
#
# _framework density 16.936627000000001
#
# number of rings (size 3 to 8) (size 9 to 14) (size 15 to 20)
#    0.000    2.200    2.000    1.500    4.200    0.000 
#    0.000    1.000    0.000    2.400    0.000    0.000 
#    0.000    0.000    0.000    0.000    0.000    0.000 
#
# Total GULP energy -222897.502839 kJ/mol
# GULP energy per Si atom -5572.437571 kJ/mol
# Density = 1.689808 g / cm^3
# Si number density = 16.936627 Si / 1000 Ang^3
#
#
#
# Elastic Constant Matrix: (Units=GPa)
#
#
# Indices 1 2 3 4 5 6 
#
# 1 83.7294 46.8164 34.1890 0.0000 0.0000 0.0000
# 2 46.8164 77.9294 41.7406 0.0000 0.0000 0.0000
# 3 34.1890 41.7406 103.2822 0.0000 0.0000 0.0000
# 4 0.0000 0.0000 0.0000 16.9724 0.0000 0.0000
# 5 0.0000 0.0000 0.0000 0.0000 22.8325 0.0000
# 6 0.0000 0.0000 0.0000 0.0000 0.0000 19.9864
#
#
#
# Elastic Compliance Matrix: (Units=1/GPa)
#
#
# Indices 1 2 3 4 5 6 
#
# 1 0.018322 -0.009902 -0.002063 0.000000 0.000000 0.000000
# 2 -0.009902 0.021729 -0.005504 0.000000 0.000000 0.000000
# 3 -0.002063 -0.005504 0.012589 0.000000 0.000000 0.000000
# 4 0.000000 0.000000 0.000000 0.058919 0.000000 0.000000
# 5 0.000000 0.000000 0.000000 0.000000 0.043797 0.000000
# 6 0.000000 0.000000 0.000000 0.000000 0.000000 0.050034
#
#
# Mechanical properties :
#
#
# Convention : Reuss Voigt Hill
#
# Bulk Modulus (GPa) = 56.48928 56.71479 56.60203
# Shear Modulus (GPa) = 20.30621 21.43791 20.87206
#
# Velocity S-wave (km/s) = 3.46635 3.56163 3.51431
# Velocity P-wave (km/s) = 7.03182 7.10442 7.06821
#
# Compressibility (1/GPa) = 0.01770247
#
# Stress axis : x y z
#
# Youngs Moduli (GPa) = 54.57802 46.02205 79.43152
#
# Poissons Ratio (x) = 0.45571 0.16389
# Poissons Ratio (y) = 0.54044 0.43716
# Poissons Ratio (z) = 0.11261 0.25329
#
# Static dielectric constant tensor:
#      x y z
#    x 1.616780 0.000000 0.000000 
#    y 0.000000 1.540020 0.000000 
#    z 0.000000 0.000000 1.631070 
# 
# From -- ./inp_files/52435.got.cif
#   From: 2010.05.17/outbox.cif.g08.bks.cpg/sg63_27_cif.got.tgz:52435.got - 2010.06.03 15:47:04.
