data_PCOD9470601
_publ_section_title
;
Structure prediction by ZEFSAII (Michael W. Deem and Ramdas Pophale) SiO2 
 PCOD9470601
Probable space group: C M C M
;
_chemical_formula_sum "Si O2"
_cell_formula_units_Z 80
_cell_length_a 8.877067
_cell_length_b 29.525688
_cell_length_c 15.930521
_cell_angle_alpha 90.000000
_cell_angle_beta 90.000000
_cell_angle_gamma 90.000000
_cell_volume 4175.413619
_symmetry_space_group_name_H-M "C M C M"
_symmetry_group_IT_number 63
_symmetry_cell_setting 'orthorhombic'
loop_
_space_group_symop_operation_xyz
x,y,z
-x,-y,1/2+z
x,-y,-z
-x,y,1/2-z
-x,-y,-z
x,y,1/2-z
-x,y,z
x,-y,1/2+z
1/2+x,1/2+y,z
1/2-x,1/2-y,1/2+z
1/2+x,1/2-y,-z
1/2-x,1/2+y,1/2-z
1/2-x,1/2-y,-z
1/2+x,1/2+y,1/2-z
1/2-x,1/2+y,z
1/2+x,1/2-y,1/2+z
loop_
_atom_site_type_symbol
_atom_site_label
_atom_site_fract_x
_atom_site_fract_y
_atom_site_fract_z
Si Si1 0.180047 0.947136 0.998745
Si Si2 0.320445 0.201027 0.585775
Si Si3 0.320262 0.106947 0.343758
Si Si4 0.178613 0.801869 0.598038
Si Si5 0.819454 0.604014 0.843344
O O1 0.241737 0.922975 0.082001
O O2 0.000000 0.943351 0.996597
O O3 0.246633 0.922352 0.917275
O O4 0.221977 0.000000 0.000000
O O5 0.500000 0.201174 0.565007
O O6 0.228079 0.195872 0.499641
O O7 0.286926 0.250195 0.624778
O O8 0.291252 0.157532 0.642669
O O9 0.279543 0.091048 0.250000
O O10 0.500000 0.105265 0.352804
O O11 0.265600 0.158590 0.354863
O O12 0.000000 0.809402 0.605946
O O13 0.770487 0.590325 0.750000
O O14 0.000000 0.597564 0.849437
#
# Coordination Sequence:
#
# PCOD9470601 Si02
#       5
#    16  16  16  16  16
#     4  11  25  44  65  89 117 150 193 249 309 363
#     4   9  18  33  55  85 123 163 200 239 287 347
#     4  11  24  41  62  89 121 158 202 248 295 353
#     4  10  19  32  56  88 122 160 201 243 290 345
#     4  10  21  38  62  91 122 158 199 240 288 352
#
# _framework density 19.159777999999999
#
# number of rings (size 3 to 8) (size 9 to 14) (size 15 to 20)
#    0.000    1.800    2.000    1.800    0.000    6.000 
#    0.000    6.000    0.000    0.000    0.000    0.000 
#    0.000    0.000    0.000    0.000    0.000    0.000 
#
# Total GULP energy -223443.190707 kJ/mol
# GULP energy per Si atom -5586.079768 kJ/mol
# Density = 1.911617 g / cm^3
# Si number density = 19.159778 Si / 1000 Ang^3
#
#
#
# Elastic Constant Matrix: (Units=GPa)
#
#
# Indices 1 2 3 4 5 6 
#
# 1 37.5907 49.8081 49.7523 0.0000 0.0000 0.0000
# 2 49.8081 131.1483 85.5838 0.0000 0.0000 0.0000
# 3 49.7523 85.5838 150.3207 0.0000 0.0000 0.0000
# 4 0.0000 0.0000 0.0000 -4.8737 0.0000 0.0000
# 5 0.0000 0.0000 0.0000 0.0000 7.2948 0.0000
# 6 0.0000 0.0000 0.0000 0.0000 0.0000 26.4999
#
#
#
# Elastic Compliance Matrix: (Units=1/GPa)
#
#
# Indices 1 2 3 4 5 6 
#
# 1 0.064412 -0.016788 -0.011761 0.000000 0.000000 0.000000
# 2 -0.016788 0.016508 -0.003842 0.000000 0.000000 0.000000
# 3 -0.011761 -0.003842 0.012733 0.000000 0.000000 0.000000
# 4 0.000000 0.000000 0.000000 -0.205181 0.000000 0.000000
# 5 0.000000 0.000000 0.000000 0.000000 0.137085 0.000000
# 6 0.000000 0.000000 0.000000 0.000000 0.000000 0.037736
#
#
# Mechanical properties :
#
#
# Convention : Reuss Voigt Hill
#
# Bulk Modulus (GPa) = 34.63704 76.59425 55.61564
# Shear Modulus (GPa) = 36.31109 14.71187 25.51148
#
# Velocity S-wave (km/s) = 4.35808 2.77402 3.65295
# Velocity P-wave (km/s) = 6.59098 7.09391 6.84707
#
# Compressibility (1/GPa) = 0.02887083
#
# Stress axis : x y z
#
# Youngs Moduli (GPa) = 15.52494 60.57566 78.53872
#
# Poissons Ratio (x) = 1.01695 0.92367
# Poissons Ratio (y) = 0.26064 0.30178
# Poissons Ratio (z) = 0.18258 0.23276
#
# Static dielectric constant tensor:
#      x y z
#    x 1.640020 0.000000 0.000000 
#    y 0.000000 1.667570 0.000000 
#    z 0.000000 0.000000 1.656290 
# 
# From -- ./inp_files/40705.got.cif
#   From: 2010.05.17/outbox.cif.g08.bks.cpg/sg63_21_cif.got.tgz:40705.got - 2010.06.03 15:47:04.
