data_PCOD9470926
_publ_section_title
;
Structure prediction by ZEFSAII (Michael W. Deem and Ramdas Pophale) SiO2 
 PCOD9470926
Probable space group: C M C M
;
_chemical_formula_sum "Si O2"
_cell_formula_units_Z 96
_cell_length_a 7.843164
_cell_length_b 25.540720
_cell_length_c 24.651940
_cell_angle_alpha 90.000000
_cell_angle_beta 90.000000
_cell_angle_gamma 90.000000
_cell_volume 4938.277992
_symmetry_space_group_name_H-M "C M C M"
_symmetry_group_IT_number 63
_symmetry_cell_setting 'orthorhombic'
loop_
_space_group_symop_operation_xyz
x,y,z
-x,-y,1/2+z
x,-y,-z
-x,y,1/2-z
-x,-y,-z
x,y,1/2-z
-x,y,z
x,-y,1/2+z
1/2+x,1/2+y,z
1/2-x,1/2-y,1/2+z
1/2+x,1/2-y,-z
1/2-x,1/2+y,1/2-z
1/2-x,1/2-y,-z
1/2+x,1/2+y,1/2-z
1/2-x,1/2+y,z
1/2+x,1/2-y,1/2+z
loop_
_atom_site_type_symbol
_atom_site_label
_atom_site_fract_x
_atom_site_fract_y
_atom_site_fract_z
Si Si1 0.794121 0.226660 0.558681
Si Si2 0.290472 0.140820 0.250000
Si Si3 0.292181 0.981247 0.750000
Si Si4 0.201359 0.487832 0.368285
Si Si5 0.300348 0.815886 0.636672
Si Si6 0.293539 0.606901 0.558058
Si Si7 0.800721 0.087776 0.436319
O O1 0.750000 0.250000 0.500000
O O2 0.726960 0.266299 0.604548
O O3 0.735240 0.166876 0.564084
O O4 0.000000 0.225804 0.561933
O O5 0.500000 0.140858 0.250000
O O6 0.241486 0.079796 0.250000
O O7 0.228917 0.168730 0.304718
O O8 0.500000 0.983209 0.750000
O O9 0.234610 0.006995 0.806454
O O10 0.231578 0.431948 0.395509
O O11 0.280930 0.532705 0.406184
O O12 0.000000 0.498920 0.367418
O O13 0.500000 0.804730 0.645397
O O14 0.287163 0.866661 0.598219
O O15 0.500000 0.605952 0.559338
O O16 0.238664 0.586859 0.498379
O O17 0.000000 0.101869 0.438065
#
# Coordination Sequence:
#
# PCOD9470926 Si02
#       7
#    16   8   8  16  16  16  16
#     4  10  20  35  56  81 110 143 181 222 266 321
#     4   9  16  32  55  80 110 138 172 232 279 306
#     4   9  18  34  55  78 106 138 176 230 279 312
#     4  11  22  37  57  80 106 141 188 229 267 327
#     4  10  19  33  57  83 107 140 185 223 262 320
#     4  10  22  38  52  77 117 150 175 219 279 323
#     4  11  21  34  54  80 115 146 170 218 282 326
#
# _framework density 19.439973999999999
#
# number of rings (size 3 to 8) (size 9 to 14) (size 15 to 20)
#    0.000    1.833    3.333    1.500    0.000    4.000 
#    0.000    3.750    0.000    2.000    0.000    0.000 
#    0.000    0.000    0.000    0.000    0.000    0.000 
#
# Total GULP energy -268051.540664 kJ/mol
# GULP energy per Si atom -5584.407097 kJ/mol
# Density = 1.939573 g / cm^3
# Si number density = 19.439974 Si / 1000 Ang^3
#
#
#
# Elastic Constant Matrix: (Units=GPa)
#
#
# Indices 1 2 3 4 5 6 
#
# 1 21.8960 -8.5515 3.2457 0.0000 0.0000 0.0000
# 2 -8.5515 135.2145 97.7661 0.0000 0.0000 0.0000
# 3 3.2457 97.7661 197.2279 0.0000 0.0000 0.0000
# 4 0.0000 0.0000 0.0000 34.4570 0.0000 0.0000
# 5 0.0000 0.0000 0.0000 0.0000 12.4328 0.0000
# 6 0.0000 0.0000 0.0000 0.0000 0.0000 17.5567
#
#
#
# Elastic Compliance Matrix: (Units=1/GPa)
#
#
# Indices 1 2 3 4 5 6 
#
# 1 0.048420 0.005671 -0.003608 0.000000 0.000000 0.000000
# 2 0.005671 0.012191 -0.006137 0.000000 0.000000 0.000000
# 3 -0.003608 -0.006137 0.008172 0.000000 0.000000 0.000000
# 4 0.000000 0.000000 0.000000 0.029022 0.000000 0.000000
# 5 0.000000 0.000000 0.000000 0.000000 0.080432 0.000000
# 6 0.000000 0.000000 0.000000 0.000000 0.000000 0.056958
#
#
# Mechanical properties :
#
#
# Convention : Reuss Voigt Hill
#
# Bulk Modulus (GPa) = 16.49189 59.91766 38.20478
# Shear Modulus (GPa) = 18.97141 30.34784 24.65963
#
# Velocity S-wave (km/s) = 3.12732 3.95537 3.56547
# Velocity P-wave (km/s) = 4.64135 7.19366 6.05355
#
# Compressibility (1/GPa) = 0.06063585
#
# Stress axis : x y z
#
# Youngs Moduli (GPa) = 20.65262 82.02541 122.37562
#
# Poissons Ratio (x) = -0.46517 0.44153
# Poissons Ratio (y) = -0.11712 0.75097
# Poissons Ratio (z) = 0.07451 0.50336
#
# Static dielectric constant tensor:
#      x y z
#    x 1.729410 0.000000 0.000000 
#    y 0.000000 1.649270 0.000000 
#    z 0.000000 0.000000 1.678600 
# 
# From -- ./inp_files/60036.got.cif
#   From: 2010.05.17/outbox.cif.g08.bks.cpg/sg63_31_cif.got.tgz:60036.got - 2010.06.03 15:47:04.
