data_PCOD9470101
_publ_section_title
;
Structure prediction by ZEFSAII (Michael W. Deem and Ramdas Pophale) SiO2 
 PCOD9470101
Probable space group: C M C M
;
_chemical_formula_sum "Si O2"
_cell_formula_units_Z 80
_cell_length_a 19.131947
_cell_length_b 27.650265
_cell_length_c 8.641250
_cell_angle_alpha 90.000000
_cell_angle_beta 90.000000
_cell_angle_gamma 90.000000
_cell_volume 4571.250669
_symmetry_space_group_name_H-M "C M C M"
_symmetry_group_IT_number 63
_symmetry_cell_setting 'orthorhombic'
loop_
_space_group_symop_operation_xyz
x,y,z
-x,-y,1/2+z
x,-y,-z
-x,y,1/2-z
-x,-y,-z
x,y,1/2-z
-x,y,z
x,-y,1/2+z
1/2+x,1/2+y,z
1/2-x,1/2-y,1/2+z
1/2+x,1/2-y,-z
1/2-x,1/2+y,1/2-z
1/2-x,1/2-y,-z
1/2+x,1/2+y,1/2-z
1/2-x,1/2+y,z
1/2+x,1/2-y,1/2+z
loop_
_atom_site_type_symbol
_atom_site_label
_atom_site_fract_x
_atom_site_fract_y
_atom_site_fract_z
Si Si1 0.921737 0.348765 0.938092
Si Si2 0.420058 0.445887 0.565019
Si Si3 0.652255 0.051787 0.064302
Si Si4 0.780412 0.299699 0.936059
Si Si5 0.285834 0.396679 0.434389
O O1 0.923012 0.347855 0.750000
O O2 0.897052 0.403014 0.981477
O O3 0.860316 0.312016 0.985908
O O4 0.000000 0.338316 0.993853
O O5 0.410825 0.500000 0.500000
O O6 0.410934 0.446581 0.750000
O O7 0.500000 0.431068 0.530760
O O8 0.362248 0.412271 0.488712
O O9 0.655080 0.050160 0.250000
O O10 0.728820 0.065417 0.999980
O O11 0.629580 0.000000 0.000000
O O12 0.778742 0.299199 0.750000
O O13 0.750000 0.250000 0.000000
O O14 0.735502 0.344890 0.996736
O O15 0.281230 0.395770 0.250000
#
# Coordination Sequence:
#
# PCOD9470101 Si02
#       5
#    16  16  16  16  16
#     4   8  16  32  53  76 102 133 169 210 255 301
#     4  10  20  34  52  75 105 139 174 214 261 312
#     4  10  19  31  49  74 105 139 174 211 251 301
#     4  10  20  36  58  80 103 132 169 214 263 314
#     4  11  21  34  53  75 102 135 174 217 258 307
#
# _framework density 17.500682000000001
#
# number of rings (size 3 to 8) (size 9 to 14) (size 15 to 20)
#    0.000    2.200    0.000    5.400    0.000    1.600 
#    0.000    1.000    0.000   24.600    0.000    0.000 
#    0.000    0.000    0.000    0.000    0.000    0.000 
#
# Total GULP energy -223231.271129 kJ/mol
# GULP energy per Si atom -5580.781778 kJ/mol
# Density = 1.746085 g / cm^3
# Si number density = 17.500682 Si / 1000 Ang^3
#
#
#
# Elastic Constant Matrix: (Units=GPa)
#
#
# Indices 1 2 3 4 5 6 
#
# 1 151.7781 77.1869 46.1704 0.0000 0.0000 0.0000
# 2 77.1869 107.1150 32.0214 0.0000 0.0000 0.0000
# 3 46.1704 32.0214 75.0701 0.0000 0.0000 0.0000
# 4 0.0000 0.0000 0.0000 33.0846 0.0000 0.0000
# 5 0.0000 0.0000 0.0000 0.0000 17.5521 0.0000
# 6 0.0000 0.0000 0.0000 0.0000 0.0000 9.3893
#
#
#
# Elastic Compliance Matrix: (Units=1/GPa)
#
#
# Indices 1 2 3 4 5 6 
#
# 1 0.011362 -0.006990 -0.004006 0.000000 0.000000 0.000000
# 2 -0.006990 0.015000 -0.002100 0.000000 0.000000 0.000000
# 3 -0.004006 -0.002100 0.016681 0.000000 0.000000 0.000000
# 4 0.000000 0.000000 0.000000 0.030226 0.000000 0.000000
# 5 0.000000 0.000000 0.000000 0.000000 0.056973 0.000000
# 6 0.000000 0.000000 0.000000 0.000000 0.000000 0.106504
#
#
# Mechanical properties :
#
#
# Convention : Reuss Voigt Hill
#
# Bulk Modulus (GPa) = 59.34252 71.63562 65.48907
# Shear Modulus (GPa) = 18.61821 23.91082 21.26451
#
# Velocity S-wave (km/s) = 3.26522 3.70033 3.48956
# Velocity P-wave (km/s) = 6.94247 7.69925 7.33063
#
# Compressibility (1/GPa) = 0.01685132
#
# Stress axis : x y z
#
# Youngs Moduli (GPa) = 88.01335 66.66608 59.95014
#
# Poissons Ratio (x) = 0.46597 0.24019
# Poissons Ratio (y) = 0.61518 0.12587
# Poissons Ratio (z) = 0.35262 0.13997
#
# Static dielectric constant tensor:
#      x y z
#    x 1.608760 0.000000 0.000000 
#    y 0.000000 1.575560 0.000000 
#    z 0.000000 0.000000 1.510880 
# 
# From -- ./inp_files/6387.got.cif
#   From: 2010.05.17/outbox.cif.g08.bks.cpg/sg63_4_cif.got.tgz:6387.got - 2010.06.03 15:47:04.
