data_PCOD9470959
_publ_section_title
;
Structure prediction by ZEFSAII (Michael W. Deem and Ramdas Pophale) SiO2 
 PCOD9470959
Probable space group: C M C M
;
_chemical_formula_sum "Si O2"
_cell_formula_units_Z 64
_cell_length_a 15.499545
_cell_length_b 22.848321
_cell_length_c 9.610888
_cell_angle_alpha 90.000000
_cell_angle_beta 90.000000
_cell_angle_gamma 90.000000
_cell_volume 3403.586224
_symmetry_space_group_name_H-M "C M C M"
_symmetry_group_IT_number 63
_symmetry_cell_setting 'orthorhombic'
loop_
_space_group_symop_operation_xyz
x,y,z
-x,-y,1/2+z
x,-y,-z
-x,y,1/2-z
-x,-y,-z
x,y,1/2-z
-x,y,z
x,-y,1/2+z
1/2+x,1/2+y,z
1/2-x,1/2-y,1/2+z
1/2+x,1/2-y,-z
1/2-x,1/2+y,1/2-z
1/2-x,1/2-y,-z
1/2+x,1/2+y,1/2-z
1/2-x,1/2+y,z
1/2+x,1/2-y,1/2+z
loop_
_atom_site_type_symbol
_atom_site_label
_atom_site_fract_x
_atom_site_fract_y
_atom_site_fract_z
Si Si1 0.101422 0.889982 0.411194
Si Si2 0.000000 0.439611 0.414700
Si Si3 0.284745 0.696055 0.410006
Si Si4 0.284433 0.500000 0.000000
Si Si5 0.349346 0.091464 0.399350
O O1 0.111748 0.871997 0.250000
O O2 0.139705 0.839872 0.511471
O O3 0.154797 0.950350 0.432450
O O4 0.000000 0.899810 0.438458
O O5 0.000000 0.500000 0.500000
O O6 0.914199 0.408955 0.472051
O O7 0.000000 0.446574 0.250000
O O8 0.307671 0.711733 0.250000
O O9 0.250000 0.750000 0.500000
O O10 0.207025 0.649559 0.403333
O O11 0.218158 0.537744 0.092541
O O12 0.395251 0.087538 0.250000
#
# Coordination Sequence:
#
# PCOD9470959 Si02
#       5
#    16   8  16   8  16
#     4  10  21  37  59  89 123 158 195 239 287 341
#     4  12  24  36  56  84 120 154 192 239 290 347
#     4  10  22  41  64  87 114 152 196 244 294 347
#     4  10  19  33  60  88 120 154 196 229 289 340
#     4  10  21  37  58  85 116 151 194 240 292 344
#
# _framework density 18.803695999999999
#
# number of rings (size 3 to 8) (size 9 to 14) (size 15 to 20)
#    0.000    1.750    1.250    3.000    0.000    6.500 
#    2.250    0.000    0.000    0.000    0.000    0.000 
#    0.000    0.000    0.000    0.000    0.000    0.000 
#
# Total GULP energy -178455.648555 kJ/mol
# GULP energy per Si atom -5576.739017 kJ/mol
# Density = 1.876090 g / cm^3
# Si number density = 18.803696 Si / 1000 Ang^3
#
#
#
# Elastic Constant Matrix: (Units=GPa)
#
#
# Indices 1 2 3 4 5 6 
#
# 1 107.1284 28.5321 64.6735 0.0000 0.0000 0.0000
# 2 28.5321 101.9467 52.3603 0.0000 0.0000 0.0000
# 3 64.6735 52.3603 172.3798 0.0000 0.0000 0.0000
# 4 0.0000 0.0000 0.0000 15.9645 0.0000 0.0000
# 5 0.0000 0.0000 0.0000 0.0000 28.9791 0.0000
# 6 0.0000 0.0000 0.0000 0.0000 0.0000 14.1945
#
#
#
# Elastic Compliance Matrix: (Units=1/GPa)
#
#
# Indices 1 2 3 4 5 6 
#
# 1 0.012203 -0.001260 -0.004195 0.000000 0.000000 0.000000
# 2 -0.001260 0.011752 -0.003097 0.000000 0.000000 0.000000
# 3 -0.004195 -0.003097 0.008316 0.000000 0.000000 0.000000
# 4 0.000000 0.000000 0.000000 0.062639 0.000000 0.000000
# 5 0.000000 0.000000 0.000000 0.000000 0.034508 0.000000
# 6 0.000000 0.000000 0.000000 0.000000 0.000000 0.070450
#
#
# Mechanical properties :
#
#
# Convention : Reuss Voigt Hill
#
# Bulk Modulus (GPa) = 65.93833 74.73183 70.33508
# Shear Modulus (GPa) = 22.51956 27.55353 25.03655
#
# Velocity S-wave (km/s) = 3.46441 3.83211 3.65289
# Velocity P-wave (km/s) = 7.15162 7.70776 7.43489
#
# Compressibility (1/GPa) = 0.01516569
#
# Stress axis : x y z
#
# Youngs Moduli (GPa) = 81.94617 85.08902 120.25179
#
# Poissons Ratio (x) = 0.10725 0.50452
# Poissons Ratio (y) = 0.10329 0.37240
# Poissons Ratio (z) = 0.34380 0.26351
#
# Static dielectric constant tensor:
#      x y z
#    x 1.684010 0.000000 0.000000 
#    y 0.000000 1.638490 0.000000 
#    z 0.000000 0.000000 1.669590 
# 
# From -- ./inp_files/4339.got.cif
#   From: 2010.05.17/outbox.cif.g08.bks.cpg/sg63_3_cif.got.tgz:4339.got - 2010.06.03 15:47:04.
