data_PCOD9470830
_publ_section_title
;
Structure prediction by ZEFSAII (Michael W. Deem and Ramdas Pophale) SiO2 
 PCOD9470830
Probable space group: C M C M
;
_chemical_formula_sum "Si O2"
_cell_formula_units_Z 116
_cell_length_a 18.263188
_cell_length_b 23.583299
_cell_length_c 14.493541
_cell_angle_alpha 90.000000
_cell_angle_beta 90.000000
_cell_angle_gamma 90.000000
_cell_volume 6242.458306
_symmetry_space_group_name_H-M "C M C M"
_symmetry_group_IT_number 63
_symmetry_cell_setting 'orthorhombic'
loop_
_space_group_symop_operation_xyz
x,y,z
-x,-y,1/2+z
x,-y,-z
-x,y,1/2-z
-x,-y,-z
x,y,1/2-z
-x,y,z
x,-y,1/2+z
1/2+x,1/2+y,z
1/2-x,1/2-y,1/2+z
1/2+x,1/2-y,-z
1/2-x,1/2+y,1/2-z
1/2-x,1/2-y,-z
1/2+x,1/2+y,1/2-z
1/2-x,1/2+y,z
1/2+x,1/2-y,1/2+z
loop_
_atom_site_type_symbol
_atom_site_label
_atom_site_fract_x
_atom_site_fract_y
_atom_site_fract_z
Si Si1 0.149299 0.674208 0.647337
Si Si2 0.080903 0.751809 0.996749
Si Si3 0.582500 0.060629 0.613021
Si Si4 0.080953 0.858734 0.859339
Si Si5 0.760630 0.122793 0.359465
Si Si6 0.000000 0.387713 0.750000
Si Si7 0.888644 0.432063 0.601282
Si Si8 0.710246 0.250862 0.141988
O O1 0.128467 0.695407 0.750000
O O2 0.097834 0.697857 0.567101
O O3 0.139908 0.607033 0.647111
O O4 0.229281 0.700167 0.628221
O O5 0.082407 0.803955 0.924809
O O6 0.000000 0.747897 0.038001
O O7 0.142241 0.757718 0.074339
O O8 0.500000 0.072767 0.646134
O O9 0.582030 0.065587 0.502338
O O10 0.602800 0.996315 0.638067
O O11 0.087445 0.843444 0.750000
O O12 0.155426 0.892091 0.883134
O O13 0.000000 0.885531 0.870755
O O14 0.751957 0.114525 0.250000
O O15 0.695099 0.088168 0.404467
O O16 0.747794 0.189871 0.377698
O O17 0.064236 0.392536 0.831206
O O18 0.688865 0.250960 0.250000
#
# Coordination Sequence:
#
# PCOD9470830 Si02
#       8
#    16  16  16  16  16   4  16  16
#     4  11  23  36  57  80 110 150 188 230 279 332
#     4  11  21  34  53  79 108 144 183 224 278 333
#     4  11  23  38  53  79 118 149 188 228 275 331
#     4   9  18  32  52  78 109 134 168 226 281 332
#     4  10  19  33  55  77 102 144 187 223 281 336
#     4  12  20  38  60  76 116 152 196 240 262 320
#     4  11  22  37  55  81 110 154 189 233 274 324
#     4  10  22  39  52  77 110 145 190 233 274 334
#
# _framework density 18.582422999999999
#
# number of rings (size 3 to 8) (size 9 to 14) (size 15 to 20)
#    0.000    1.517    3.448    2.483    2.897    1.931 
#    1.241    0.000    0.000    0.000    0.000    2.897 
#    0.000    2.207    0.000    0.000    0.000    0.000 
#
# Total GULP energy -323233.773378 kJ/mol
# GULP energy per Si atom -5572.996093 kJ/mol
# Density = 1.854013 g / cm^3
# Si number density = 18.582423 Si / 1000 Ang^3
#
#
#
# Elastic Constant Matrix: (Units=GPa)
#
#
# Indices 1 2 3 4 5 6 
#
# 1 151.0395 32.8123 38.2945 0.0000 0.0000 0.0000
# 2 32.8123 43.1907 8.4394 0.0000 0.0000 0.0000
# 3 38.2945 8.4394 73.0787 0.0000 0.0000 0.0000
# 4 0.0000 0.0000 0.0000 17.3252 0.0000 0.0000
# 5 0.0000 0.0000 0.0000 0.0000 4.6220 0.0000
# 6 0.0000 0.0000 0.0000 0.0000 0.0000 10.0933
#
#
#
# Elastic Compliance Matrix: (Units=1/GPa)
#
#
# Indices 1 2 3 4 5 6 
#
# 1 0.008938 -0.006011 -0.003990 0.000000 0.000000 0.000000
# 2 -0.006011 0.027730 -0.000053 0.000000 0.000000 0.000000
# 3 -0.003990 -0.000053 0.015781 0.000000 0.000000 0.000000
# 4 0.000000 0.000000 0.000000 0.057720 0.000000 0.000000
# 5 0.000000 0.000000 0.000000 0.000000 0.216355 0.000000
# 6 0.000000 0.000000 0.000000 0.000000 0.000000 0.099076
#
#
# Mechanical properties :
#
#
# Convention : Reuss Voigt Hill
#
# Bulk Modulus (GPa) = 30.91894 47.37791 39.14842
# Shear Modulus (GPa) = 10.95325 18.92561 14.93943
#
# Velocity S-wave (km/s) = 2.43048 3.19481 2.83849
# Velocity P-wave (km/s) = 4.95492 6.25783 5.64410
#
# Compressibility (1/GPa) = 0.03234263
#
# Stress axis : x y z
#
# Youngs Moduli (GPa) = 111.88055 36.06219 63.36914
#
# Poissons Ratio (x) = 0.21676 0.25282
# Poissons Ratio (y) = 0.67249 0.00333
# Poissons Ratio (z) = 0.44636 0.00190
#
# Static dielectric constant tensor:
#      x y z
#    x 1.673760 0.000000 0.000000 
#    y 0.000000 1.655420 0.000000 
#    z 0.000000 0.000000 1.671920 
# 
# From -- ./inp_files/34394.got.cif
#   From: 2010.05.17/outbox.cif.g08.bks.cpg/sg63_18_cif.got.tgz:34394.got - 2010.06.03 15:47:04.
