data_PCOD9470250
_publ_section_title
;
Structure prediction by ZEFSAII (Michael W. Deem and Ramdas Pophale) SiO2 
 PCOD9470250
Probable space group: C M C M
;
_chemical_formula_sum "Si O2"
_cell_formula_units_Z 100
_cell_length_a 7.485748
_cell_length_b 29.038973
_cell_length_c 22.408256
_cell_angle_alpha 90.000000
_cell_angle_beta 90.000000
_cell_angle_gamma 90.000000
_cell_volume 4871.071599
_symmetry_space_group_name_H-M "C M C M"
_symmetry_group_IT_number 63
_symmetry_cell_setting 'orthorhombic'
loop_
_space_group_symop_operation_xyz
x,y,z
-x,-y,1/2+z
x,-y,-z
-x,y,1/2-z
-x,-y,-z
x,y,1/2-z
-x,y,z
x,-y,1/2+z
1/2+x,1/2+y,z
1/2-x,1/2-y,1/2+z
1/2+x,1/2-y,-z
1/2-x,1/2+y,1/2-z
1/2-x,1/2-y,-z
1/2+x,1/2+y,1/2-z
1/2-x,1/2+y,z
1/2+x,1/2-y,1/2+z
loop_
_atom_site_type_symbol
_atom_site_label
_atom_site_fract_x
_atom_site_fract_y
_atom_site_fract_z
Si Si1 0.708426 0.322911 0.026830
Si Si2 0.786000 0.430072 0.609576
Si Si3 0.000000 0.055488 0.750000
Si Si4 0.287974 0.338240 0.683366
Si Si5 0.283890 0.733247 0.089656
Si Si6 0.218223 0.530234 0.851630
Si Si7 0.297075 0.073362 0.976002
O O1 0.500000 0.332536 0.017372
O O2 0.727554 0.285702 0.079423
O O3 0.797652 0.371876 0.035583
O O4 0.777700 0.296587 0.967767
O O5 0.734274 0.383419 0.642909
O O6 0.742335 0.475462 0.647167
O O7 0.714527 0.433254 0.541704
O O8 0.000000 0.428530 0.604533
O O9 0.841295 0.053104 0.801991
O O10 0.214628 0.344224 0.750000
O O11 0.500000 0.331412 0.688534
O O12 0.218976 0.293740 0.647724
O O13 0.500000 0.732990 0.088596
O O14 0.273403 0.548758 0.917156
O O15 0.000000 0.536560 0.844170
O O16 0.500000 0.055945 0.980495
#
# Coordination Sequence:
#
# PCOD9470250 Si02
#       7
#    16  16   4  16  16  16  16
#     4  10  19  31  56  85 112 144 195 250 301 360
#     4  10  21  37  59  88 123 159 198 251 308 368
#     4  12  26  44  66  90 116 176 212 260 308 374
#     4  10  21  35  55  82 118 157 199 245 301 373
#     4   9  18  34  51  79 114 152 191 245 301 360
#     4  10  24  43  64  91 125 162 210 261 309 370
#     4  10  20  38  62  89 121 159 197 254 318 365
#
# _framework density 20.529364999999999
#
# number of rings (size 3 to 8) (size 9 to 14) (size 15 to 20)
#    0.000    2.080    1.600    1.200    3.360    3.520 
#    0.000    0.800    1.760    0.000    0.000    0.000 
#    0.000    0.000    0.000    0.000    0.000    0.000 
#
# Total GULP energy -278500.038429 kJ/mol
# GULP energy per Si atom -5570.000769 kJ/mol
# Density = 2.048264 g / cm^3
# Si number density = 20.529365 Si / 1000 Ang^3
#
#
#
# Elastic Constant Matrix: (Units=GPa)
#
#
# Indices 1 2 3 4 5 6 
#
# 1 77.9404 -1.9998 13.7156 0.0000 0.0000 0.0000
# 2 -1.9998 48.0076 -2.6176 0.0000 0.0000 0.0000
# 3 13.7156 -2.6176 108.9289 0.0000 0.0000 0.0000
# 4 0.0000 0.0000 0.0000 -9.8601 0.0000 0.0000
# 5 0.0000 0.0000 0.0000 0.0000 14.2255 0.0000
# 6 0.0000 0.0000 0.0000 0.0000 0.0000 14.3053
#
#
#
# Elastic Compliance Matrix: (Units=1/GPa)
#
#
# Indices 1 2 3 4 5 6 
#
# 1 0.013131 0.000457 -0.001642 0.000000 0.000000 0.000000
# 2 0.000457 0.020873 0.000444 0.000000 0.000000 0.000000
# 3 -0.001642 0.000444 0.009398 0.000000 0.000000 0.000000
# 4 0.000000 0.000000 0.000000 -0.101418 0.000000 0.000000
# 5 0.000000 0.000000 0.000000 0.000000 0.070296 0.000000
# 6 0.000000 0.000000 0.000000 0.000000 0.000000 0.069904
#
#
# Mechanical properties :
#
#
# Convention : Reuss Voigt Hill
#
# Bulk Modulus (GPa) = 23.85484 28.11927 25.98706
# Shear Modulus (GPa) = 51.20877 18.78605 34.99741
#
# Velocity S-wave (km/s) = 4.99983 3.02831 4.13334
# Velocity P-wave (km/s) = 6.70643 5.09455 5.95527
#
# Compressibility (1/GPa) = 0.04192022
#
# Stress axis : x y z
#
# Youngs Moduli (GPa) = 76.15524 47.90810 106.40829
#
# Poissons Ratio (x) = -0.02191 0.17476
# Poissons Ratio (y) = -0.03484 -0.04724
# Poissons Ratio (z) = 0.12508 -0.02127
#
# Static dielectric constant tensor:
#      x y z
#    x 1.781690 0.000000 0.000000 
#    y 0.000000 1.711310 0.000000 
#    z 0.000000 0.000000 1.747030 
# 
# From -- ./inp_files/51472.got.cif
#   From: 2010.05.17/outbox.cif.g08.bks.cpg/sg63_26_cif.got.tgz:51472.got - 2010.06.03 15:47:04.
