data_PCOD9470937
_publ_section_title
;
Structure prediction by ZEFSAII (Michael W. Deem and Ramdas Pophale) SiO2 
 PCOD9470937
Probable space group: C M C M
;
_chemical_formula_sum "Si O2"
_cell_formula_units_Z 96
_cell_length_a 22.225426
_cell_length_b 7.730327
_cell_length_c 27.053182
_cell_angle_alpha 90.000000
_cell_angle_beta 90.000000
_cell_angle_gamma 90.000000
_cell_volume 4648.002078
_symmetry_space_group_name_H-M "C M C M"
_symmetry_group_IT_number 63
_symmetry_cell_setting 'orthorhombic'
loop_
_space_group_symop_operation_xyz
x,y,z
-x,-y,1/2+z
x,-y,-z
-x,y,1/2-z
-x,-y,-z
x,y,1/2-z
-x,y,z
x,-y,1/2+z
1/2+x,1/2+y,z
1/2-x,1/2-y,1/2+z
1/2+x,1/2-y,-z
1/2-x,1/2+y,1/2-z
1/2-x,1/2-y,-z
1/2+x,1/2+y,1/2-z
1/2-x,1/2+y,z
1/2+x,1/2-y,1/2+z
loop_
_atom_site_type_symbol
_atom_site_label
_atom_site_fract_x
_atom_site_fract_y
_atom_site_fract_z
Si Si1 0.163546 0.430366 0.165569
Si Si2 0.428974 0.198399 0.912778
Si Si3 0.931819 0.803459 0.020626
Si Si4 0.936362 0.327030 0.801676
Si Si5 0.391535 0.584535 0.618851
Si Si6 0.708031 0.549808 0.191287
O O1 0.123806 0.403757 0.115722
O O2 0.116711 0.537905 0.197227
O O3 0.225510 0.536507 0.167955
O O4 0.181941 0.243499 0.186712
O O5 0.500000 0.153558 0.904288
O O6 0.418907 0.396968 0.894384
O O7 0.418400 0.192810 0.971833
O O8 0.887006 0.812828 0.066937
O O9 0.000000 0.760583 0.037746
O O10 0.933916 0.000000 0.000000
O O11 0.932798 0.225847 0.750000
O O12 0.933549 0.198282 0.846806
O O13 0.000000 0.422092 0.803070
O O14 0.333660 0.560352 0.653965
O O15 0.708824 0.499602 0.250000
#
# Coordination Sequence:
#
# PCOD9470937 Si02
#       6
#    16  16  16  16  16  16
#     4  11  23  39  58  80 107 145 190 236 281 331
#     4   9  18  35  61  90 117 146 182 226 278 335
#     4   8  14  29  55  85 116 148 181 220 271 330
#     4  11  22  35  53  80 114 146 179 228 284 332
#     4  10  19  33  57  87 116 149 185 224 270 330
#     4  11  22  37  57  78 106 148 193 232 272 327
#
# _framework density 20.654035
#
# number of rings (size 3 to 8) (size 9 to 14) (size 15 to 20)
#    0.000    2.000    0.000    6.000    0.000    0.000 
#    0.000    1.667    0.000   19.000    0.000    0.000 
#    0.000    0.000    0.000    0.000    0.000    0.000 
#
# Total GULP energy -267444.678102 kJ/mol
# GULP energy per Si atom -5571.764127 kJ/mol
# Density = 2.060703 g / cm^3
# Si number density = 20.654035 Si / 1000 Ang^3
#
#
#
# Elastic Constant Matrix: (Units=GPa)
#
#
# Indices 1 2 3 4 5 6 
#
# 1 165.9682 37.1115 55.5418 0.0000 0.0000 0.0000
# 2 37.1115 45.4589 48.7618 0.0000 0.0000 0.0000
# 3 55.5418 48.7618 148.5131 0.0000 0.0000 0.0000
# 4 0.0000 0.0000 0.0000 25.4205 0.0000 0.0000
# 5 0.0000 0.0000 0.0000 0.0000 18.0527 0.0000
# 6 0.0000 0.0000 0.0000 0.0000 0.0000 8.7013
#
#
#
# Elastic Compliance Matrix: (Units=1/GPa)
#
#
# Indices 1 2 3 4 5 6 
#
# 1 0.007513 -0.004816 -0.001229 0.000000 0.000000 0.000000
# 2 -0.004816 0.037044 -0.010362 0.000000 0.000000 0.000000
# 3 -0.001229 -0.010362 0.010595 0.000000 0.000000 0.000000
# 4 0.000000 0.000000 0.000000 0.039338 0.000000 0.000000
# 5 0.000000 0.000000 0.000000 0.000000 0.055393 0.000000
# 6 0.000000 0.000000 0.000000 0.000000 0.000000 0.114926
#
#
# Mechanical properties :
#
#
# Convention : Reuss Voigt Hill
#
# Bulk Modulus (GPa) = 44.76288 71.41894 58.09091
# Shear Modulus (GPa) = 16.38977 25.00322 20.69649
#
# Velocity S-wave (km/s) = 2.82004 3.48310 3.16896
# Velocity P-wave (km/s) = 5.68535 7.12950 6.44798
#
# Compressibility (1/GPa) = 0.02233994
#
# Stress axis : x y z
#
# Youngs Moduli (GPa) = 133.09820 26.99503 94.38366
#
# Poissons Ratio (x) = 0.13000 0.11597
# Poissons Ratio (y) = 0.64095 0.97798
# Poissons Ratio (z) = 0.16354 0.27972
#
# Static dielectric constant tensor:
#      x y z
#    x 1.735520 0.000000 0.000000 
#    y 0.000000 1.783640 0.000000 
#    z 0.000000 0.000000 1.771680 
# 
# From -- ./inp_files/70295.got.cif
#   From: 2010.05.17/outbox.cif.g08.bks.cpg/sg63_36_cif.got.tgz:70295.got - 2010.06.03 15:47:04.
