data_PCOD9470617
_publ_section_title
;
Structure prediction by ZEFSAII (Michael W. Deem and Ramdas Pophale) SiO2 
 PCOD9470617
Probable space group: C M C M
;
_chemical_formula_sum "Si O2"
_cell_formula_units_Z 128
_cell_length_a 22.998303
_cell_length_b 19.609562
_cell_length_c 16.439665
_cell_angle_alpha 90.000000
_cell_angle_beta 90.000000
_cell_angle_gamma 90.000000
_cell_volume 7414.069422
_symmetry_space_group_name_H-M "C M C M"
_symmetry_group_IT_number 63
_symmetry_cell_setting 'orthorhombic'
loop_
_space_group_symop_operation_xyz
x,y,z
-x,-y,1/2+z
x,-y,-z
-x,y,1/2-z
-x,-y,-z
x,y,1/2-z
-x,y,z
x,-y,1/2+z
1/2+x,1/2+y,z
1/2-x,1/2-y,1/2+z
1/2+x,1/2-y,-z
1/2-x,1/2+y,1/2-z
1/2-x,1/2-y,-z
1/2+x,1/2+y,1/2-z
1/2-x,1/2+y,z
1/2+x,1/2-y,1/2+z
loop_
_atom_site_type_symbol
_atom_site_label
_atom_site_fract_x
_atom_site_fract_y
_atom_site_fract_z
Si Si1 0.430764 0.305613 0.157178
Si Si2 0.753133 0.232788 0.658255
Si Si3 0.860420 0.418562 0.991142
Si Si4 0.241407 0.880035 0.589287
Si Si5 0.232435 0.971810 0.340742
Si Si6 0.666319 0.633998 0.943554
Si Si7 0.844934 0.374381 0.340741
Si Si8 0.569854 0.856034 0.657766
O O1 0.414126 0.325401 0.250000
O O2 0.500000 0.312929 0.150355
O O3 0.396996 0.348041 0.089251
O O4 0.417453 0.224771 0.148736
O O5 0.774218 0.219232 0.750000
O O6 0.751771 0.312413 0.640780
O O7 0.794114 0.194293 0.594930
O O8 0.690168 0.196733 0.652588
O O9 0.795483 0.390383 0.972787
O O10 0.898458 0.396510 0.913696
O O11 0.858565 0.500000 0.000000
O O12 0.881057 0.387183 0.077426
O O13 0.182540 0.870061 0.537694
O O14 0.239875 0.949153 0.640203
O O15 0.209578 0.961363 0.250000
O O16 0.190017 0.935553 0.403971
O O17 0.294258 0.932479 0.344197
O O18 0.871661 0.378356 0.250000
O O19 0.587918 0.876170 0.750000
O O20 0.500000 0.864276 0.652682
#
# Coordination Sequence:
#
# PCOD9470617 Si02
#       8
#    16  16  16  16  16  16  16  16
#     4   9  18  34  55  78 100 128 172 219 264 315
#     4  10  20  31  46  70 102 139 174 206 254 312
#     4  12  21  33  53  76 106 142 179 212 259 316
#     4  12  21  31  46  78 109 137 170 213 252 321
#     4  10  19  33  49  66 103 145 173 204 253 310
#     4  11  19  31  51  74 105 133 165 213 264 307
#     4   9  19  34  48  69 103 140 178 217 252 300
#     4   9  21  39  57  79 106 134 172 225 274 311
#
# _framework density 17.264472999999999
#
# number of rings (size 3 to 8) (size 9 to 14) (size 15 to 20)
#    0.000    1.750    3.750    4.500    1.750    2.750 
#    0.000    0.000    0.000    1.875    0.000    0.000 
#    0.000    1.500    0.000    0.000    0.000    0.000 
#
# Total GULP energy -357049.434135 kJ/mol
# GULP energy per Si atom -5578.897408 kJ/mol
# Density = 1.722518 g / cm^3
# Si number density = 17.264473 Si / 1000 Ang^3
#
#
#
# Elastic Constant Matrix: (Units=GPa)
#
#
# Indices 1 2 3 4 5 6 
#
# 1 30.0838 5.5004 19.8194 0.0000 0.0000 0.0000
# 2 5.5004 92.4573 10.9866 0.0000 0.0000 0.0000
# 3 19.8194 10.9866 78.7696 0.0000 0.0000 0.0000
# 4 0.0000 0.0000 0.0000 22.1703 0.0000 0.0000
# 5 0.0000 0.0000 0.0000 0.0000 25.8668 0.0000
# 6 0.0000 0.0000 0.0000 0.0000 0.0000 8.5859
#
#
#
# Elastic Compliance Matrix: (Units=1/GPa)
#
#
# Indices 1 2 3 4 5 6 
#
# 1 0.039977 -0.001203 -0.009891 0.000000 0.000000 0.000000
# 2 -0.001203 0.011034 -0.001236 0.000000 0.000000 0.000000
# 3 -0.009891 -0.001236 0.015356 0.000000 0.000000 0.000000
# 4 0.000000 0.000000 0.000000 0.045105 0.000000 0.000000
# 5 0.000000 0.000000 0.000000 0.000000 0.038660 0.000000
# 6 0.000000 0.000000 0.000000 0.000000 0.000000 0.116470
#
#
# Mechanical properties :
#
#
# Convention : Reuss Voigt Hill
#
# Bulk Modulus (GPa) = 23.97682 30.43597 27.20639
# Shear Modulus (GPa) = 16.38460 22.32487 19.35473
#
# Velocity S-wave (km/s) = 3.08398 3.59989 3.35188
# Velocity P-wave (km/s) = 5.15746 5.91155 5.54733
#
# Compressibility (1/GPa) = 0.04170695
#
# Stress axis : x y z
#
# Youngs Moduli (GPa) = 25.01461 90.62659 65.11962
#
# Poissons Ratio (x) = 0.10902 0.64409
# Poissons Ratio (y) = 0.03009 0.08051
# Poissons Ratio (z) = 0.24742 0.11205
#
# Static dielectric constant tensor:
#      x y z
#    x 1.582900 0.000000 0.000000 
#    y 0.000000 1.577110 0.000000 
#    z 0.000000 0.000000 1.631920 
# 
# From -- ./inp_files/48447.got.cif
#   From: 2010.05.17/outbox.cif.g08.bks.cpg/sg63_25_cif.got.tgz:48447.got - 2010.06.03 15:47:04.
