data_PCOD9470659
_publ_section_title
;
Structure prediction by ZEFSAII (Michael W. Deem and Ramdas Pophale) SiO2 
 PCOD9470659
Probable space group: C M C M
;
_chemical_formula_sum "Si O2"
_cell_formula_units_Z 128
_cell_length_a 28.384113
_cell_length_b 11.786697
_cell_length_c 23.255759
_cell_angle_alpha 90.000000
_cell_angle_beta 90.000000
_cell_angle_gamma 90.000000
_cell_volume 7780.329046
_symmetry_space_group_name_H-M "C M C M"
_symmetry_group_IT_number 63
_symmetry_cell_setting 'orthorhombic'
loop_
_space_group_symop_operation_xyz
x,y,z
-x,-y,1/2+z
x,-y,-z
-x,y,1/2-z
-x,-y,-z
x,y,1/2-z
-x,y,z
x,-y,1/2+z
1/2+x,1/2+y,z
1/2-x,1/2-y,1/2+z
1/2+x,1/2-y,-z
1/2-x,1/2+y,1/2-z
1/2-x,1/2-y,-z
1/2+x,1/2+y,1/2-z
1/2-x,1/2+y,z
1/2+x,1/2-y,1/2+z
loop_
_atom_site_type_symbol
_atom_site_label
_atom_site_fract_x
_atom_site_fract_y
_atom_site_fract_z
Si Si1 0.715212 0.483937 0.184671
Si Si2 0.789430 0.196917 0.397953
Si Si3 0.443504 0.183994 0.528181
Si Si4 0.555379 0.044587 0.090056
Si Si5 0.819109 0.375104 0.187816
Si Si6 0.364555 0.365533 0.506966
Si Si7 0.626337 0.893074 0.816343
Si Si8 0.184251 0.781679 0.392077
O O1 0.698110 0.498089 0.250000
O O2 0.717366 0.599805 0.149692
O O3 0.767400 0.431252 0.187771
O O4 0.686541 0.393184 0.147582
O O5 0.819763 0.293620 0.366350
O O6 0.819738 0.149660 0.450580
O O7 0.737319 0.246086 0.411467
O O8 0.500000 0.208336 0.534316
O O9 0.436925 0.122621 0.466218
O O10 0.409394 0.292935 0.529604
O O11 0.429795 0.084354 0.573411
O O12 0.500000 0.038817 0.099592
O O13 0.580157 0.099269 0.144766
O O14 0.824989 0.315870 0.250000
O O15 0.854530 0.478833 0.184800
O O16 0.374472 0.500000 0.500000
O O17 0.347739 0.310374 0.446788
O O18 0.621044 0.855259 0.750000
O O19 0.662989 0.816289 0.851771
#
# Coordination Sequence:
#
# PCOD9470659 Si02
#       8
#    16  16  16  16  16  16  16  16
#     4  10  19  33  52  71  99 141 185 220 257 309
#     4  11  21  35  52  74 106 145 181 225 269 310
#     4   9  19  37  60  81 104 139 178 220 274 324
#     4   9  18  35  58  83 110 137 172 219 270 331
#     4   9  19  32  50  75 101 136 181 220 256 311
#     4  12  23  37  54  77 108 140 181 229 271 325
#     4  11  20  33  55  82 111 142 177 219 270 323
#     4  11  22  37  49  75 111 146 181 219 269 320
#
# _framework density 16.451746
#
# number of rings (size 3 to 8) (size 9 to 14) (size 15 to 20)
#    0.000    1.750    3.750    2.625    0.000    1.500 
#    0.000    0.000    0.000    0.000    0.000    0.000 
#    0.000    1.000    0.000    0.000    0.000    0.000 
#
# Total GULP energy -356660.660092 kJ/mol
# GULP energy per Si atom -5572.822814 kJ/mol
# Density = 1.641430 g / cm^3
# Si number density = 16.451746 Si / 1000 Ang^3
#
#
#
# Elastic Constant Matrix: (Units=GPa)
#
#
# Indices 1 2 3 4 5 6 
#
# 1 45.7919 16.0302 16.3339 0.0000 0.0000 0.0000
# 2 16.0302 60.9571 2.6384 0.0000 0.0000 0.0000
# 3 16.3339 2.6384 63.9176 0.0000 0.0000 0.0000
# 4 0.0000 0.0000 0.0000 -123.0973 0.0000 0.0000
# 5 0.0000 0.0000 0.0000 0.0000 -75.1696 0.0000
# 6 0.0000 0.0000 0.0000 0.0000 0.0000 25.3885
#
#
#
# Elastic Compliance Matrix: (Units=1/GPa)
#
#
# Indices 1 2 3 4 5 6 
#
# 1 0.026495 -0.006686 -0.006495 0.000000 0.000000 0.000000
# 2 -0.006686 0.018122 0.000961 0.000000 0.000000 0.000000
# 3 -0.006495 0.000961 0.017265 0.000000 0.000000 0.000000
# 4 0.000000 0.000000 0.000000 -0.008124 0.000000 0.000000
# 5 0.000000 0.000000 0.000000 0.000000 -0.013303 0.000000
# 6 0.000000 0.000000 0.000000 0.000000 0.000000 0.039388
#
#
# Mechanical properties :
#
#
# Convention : Reuss Voigt Hill
#
# Bulk Modulus (GPa) = 26.70860 26.74129 26.72494
# Shear Modulus (GPa) = 42.82109 -25.53143 8.64483
#
# Velocity S-wave (km/s) = 5.10733 -3.94369 2.29479
# Velocity P-wave (km/s) = 7.14489 2.10885 4.82712
#
# Compressibility (1/GPa) = 0.03744112
#
# Stress axis : x y z
#
# Youngs Moduli (GPa) = 37.74252 55.18223 57.91998
#
# Poissons Ratio (x) = 0.36898 0.37618
# Poissons Ratio (y) = 0.25236 -0.05564
# Poissons Ratio (z) = 0.24513 -0.05301
#
# Static dielectric constant tensor:
#      x y z
#    x 1.547090 0.000000 0.000000 
#    y 0.000000 1.559210 0.000000 
#    z 0.000000 0.000000 1.573190 
# 
# From -- ./inp_files/65556.got.cif
#   From: 2010.05.17/outbox.cif.g08.bks.cpg/sg63_33_cif.got.tgz:65556.got - 2010.06.03 15:47:04.
