data_PCOD9470516
_publ_section_title
;
Structure prediction by ZEFSAII (Michael W. Deem and Ramdas Pophale) SiO2 
 PCOD9470516
Probable space group: C M C M
;
_chemical_formula_sum "Si O2"
_cell_formula_units_Z 72
_cell_length_a 17.600501
_cell_length_b 25.096422
_cell_length_c 7.426795
_cell_angle_alpha 90.000000
_cell_angle_beta 90.000000
_cell_angle_gamma 90.000000
_cell_volume 3280.486653
_symmetry_space_group_name_H-M "C M C M"
_symmetry_group_IT_number 63
_symmetry_cell_setting 'orthorhombic'
loop_
_space_group_symop_operation_xyz
x,y,z
-x,-y,1/2+z
x,-y,-z
-x,y,1/2-z
-x,-y,-z
x,y,1/2-z
-x,y,z
x,-y,1/2+z
1/2+x,1/2+y,z
1/2-x,1/2-y,1/2+z
1/2+x,1/2-y,-z
1/2-x,1/2+y,1/2-z
1/2-x,1/2-y,-z
1/2+x,1/2+y,1/2-z
1/2-x,1/2+y,z
1/2+x,1/2-y,1/2+z
loop_
_atom_site_type_symbol
_atom_site_label
_atom_site_fract_x
_atom_site_fract_y
_atom_site_fract_z
Si Si1 0.585775 0.439340 0.464946
Si Si2 0.416336 0.256430 0.032616
Si Si3 0.367798 0.138018 0.539996
Si Si4 0.197330 0.153457 0.529226
Si Si5 0.500000 0.062848 0.966228
O O1 0.609540 0.500000 0.500000
O O2 0.581570 0.432450 0.250000
O O3 0.500000 0.432429 0.536383
O O4 0.645141 0.395878 0.529323
O O5 0.415261 0.257063 0.250000
O O6 0.500000 0.276761 0.976878
O O7 0.346611 0.293117 0.970663
O O8 0.406689 0.195725 0.973410
O O9 0.357187 0.124513 0.750000
O O10 0.283126 0.145425 0.464154
O O11 0.424844 0.093512 0.464270
O O12 0.199133 0.155049 0.750000
O O13 0.500000 0.070416 0.750000
O O14 0.500000 0.000000 0.000000
#
# Coordination Sequence:
#
# PCOD9470516 Si02
#       5
#    16  16  16  16   8
#     4   9  17  31  50  71  99 133 168 207 251 300
#     4  10  19  32  53  79 105 134 170 208 252 309
#     4  10  20  36  54  74 103 135 169 212 262 308
#     4   9  18  32  52  76 102 135 172 209 254 309
#     4  10  22  38  56  76 100 136 177 216 261 308
#
# _framework density 21.947962
#
# number of rings (size 3 to 8) (size 9 to 14) (size 15 to 20)
#    0.000    2.444    1.111    1.333    0.000    4.444 
#    0.000    2.222    0.000    2.667    0.000    0.000 
#    0.000    0.000    0.000    0.000    0.000    0.000 
#
# Total GULP energy -201055.928072 kJ/mol
# GULP energy per Si atom -5584.886891 kJ/mol
# Density = 2.189801 g / cm^3
# Si number density = 21.947962 Si / 1000 Ang^3
#
#
#
# Elastic Constant Matrix: (Units=GPa)
#
#
# Indices 1 2 3 4 5 6 
#
# 1 157.8576 93.2125 1.7022 0.0000 0.0000 0.0000
# 2 93.2125 145.3319 -11.4363 0.0000 0.0000 0.0000
# 3 1.7022 -11.4363 67.5345 0.0000 0.0000 0.0000
# 4 0.0000 0.0000 0.0000 21.0614 0.0000 0.0000
# 5 0.0000 0.0000 0.0000 0.0000 4.9979 0.0000
# 6 0.0000 0.0000 0.0000 0.0000 0.0000 14.4418
#
#
#
# Elastic Compliance Matrix: (Units=1/GPa)
#
#
# Indices 1 2 3 4 5 6 
#
# 1 0.010325 -0.006733 -0.001400 0.000000 0.000000 0.000000
# 2 -0.006733 0.011364 0.002094 0.000000 0.000000 0.000000
# 3 -0.001400 0.002094 0.015197 0.000000 0.000000 0.000000
# 4 0.000000 0.000000 0.000000 0.047480 0.000000 0.000000
# 5 0.000000 0.000000 0.000000 0.000000 0.200083 0.000000
# 6 0.000000 0.000000 0.000000 0.000000 0.000000 0.069244
#
#
# Mechanical properties :
#
#
# Convention : Reuss Voigt Hill
#
# Bulk Modulus (GPa) = 40.30902 59.74229 50.02565
# Shear Modulus (GPa) = 13.36753 27.24993 20.30873
#
# Velocity S-wave (km/s) = 2.47058 3.52741 3.04520
# Velocity P-wave (km/s) = 5.15208 6.62339 5.93352
#
# Compressibility (1/GPa) = 0.02480834
#
# Stress axis : x y z
#
# Youngs Moduli (GPa) = 96.84766 87.99874 65.80178
#
# Poissons Ratio (x) = 0.59247 0.09215
# Poissons Ratio (y) = 0.65205 -0.13779
# Poissons Ratio (z) = 0.13562 -0.18427
#
# Static dielectric constant tensor:
#      x y z
#    x 1.812900 0.000000 0.000000 
#    y 0.000000 1.747910 0.000000 
#    z 0.000000 0.000000 1.824060 
# 
# From -- ./inp_files/4646.got.cif
#   From: 2010.05.17/outbox.cif.g08.bks.cpg/sg63_3_cif.got.tgz:4646.got - 2010.06.03 15:47:04.
