data_PCOD9470321
_publ_section_title
;
Structure prediction by ZEFSAII (Michael W. Deem and Ramdas Pophale) SiO2 
 PCOD9470321
Probable space group: C M C M
;
_chemical_formula_sum "Si O2"
_cell_formula_units_Z 120
_cell_length_a 28.598998
_cell_length_b 28.773054
_cell_length_c 8.953514
_cell_angle_alpha 90.000000
_cell_angle_beta 90.000000
_cell_angle_gamma 90.000000
_cell_volume 7367.672201
_symmetry_space_group_name_H-M "C M C M"
_symmetry_group_IT_number 63
_symmetry_cell_setting 'orthorhombic'
loop_
_space_group_symop_operation_xyz
x,y,z
-x,-y,1/2+z
x,-y,-z
-x,y,1/2-z
-x,-y,-z
x,y,1/2-z
-x,y,z
x,-y,1/2+z
1/2+x,1/2+y,z
1/2-x,1/2-y,1/2+z
1/2+x,1/2-y,-z
1/2-x,1/2+y,1/2-z
1/2-x,1/2-y,-z
1/2+x,1/2+y,1/2-z
1/2-x,1/2+y,z
1/2+x,1/2-y,1/2+z
loop_
_atom_site_type_symbol
_atom_site_label
_atom_site_fract_x
_atom_site_fract_y
_atom_site_fract_z
Si Si1 0.500000 0.051251 0.429258
Si Si2 0.278582 0.550424 0.571026
Si Si3 0.862625 0.108382 0.429956
Si Si4 0.700962 0.801118 0.921840
Si Si5 0.944533 0.949254 0.071139
Si Si6 0.316705 0.894492 0.424658
Si Si7 0.186359 0.205983 0.075844
Si Si8 0.899526 0.449194 0.572297
O O1 0.500000 0.046674 0.250000
O O2 0.450059 0.072560 0.471052
O O3 0.500000 0.000000 0.500000
O O4 0.270869 0.500000 0.500000
O O5 0.284883 0.546921 0.750000
O O6 0.323356 0.574037 0.495787
O O7 0.233490 0.582512 0.540974
O O8 0.864342 0.105047 0.250000
O O9 0.911326 0.090103 0.499329
O O10 0.844229 0.160725 0.466802
O O11 0.688476 0.810527 0.750000
O O12 0.757687 0.803266 0.931737
O O13 0.683509 0.840969 0.030709
O O14 0.681453 0.751279 0.973127
O O15 0.937121 0.951214 0.250000
O O16 0.000000 0.940751 0.044046
O O17 0.933316 0.000000 0.000000
O O18 0.325243 0.901043 0.250000
O O19 0.356574 0.919773 0.516296
O O20 0.176063 0.216723 0.250000
O O21 0.896736 0.500000 0.500000
O O22 0.897762 0.454007 0.750000
#
# Coordination Sequence:
#
# PCOD9470321 Si02
#       8
#     8  16  16  16  16  16  16  16
#     4   8  16  30  48  70  94 124 162 206 248 290
#     4  11  23  35  48  68 101 141 176 209 247 296
#     4  11  21  35  55  78 105 136 173 214 258 309
#     4  10  19  33  53  75 102 135 170 211 253 299
#     4  10  21  37  56  79 108 141 178 219 263 314
#     4  11  22  34  49  72 102 137 173 209 252 303
#     4   9  19  34  52  76 103 132 167 209 254 300
#     4  10  19  32  50  72 100 132 169 209 252 300
#
# _framework density 16.287369000000002
#
# number of rings (size 3 to 8) (size 9 to 14) (size 15 to 20)
#    0.000    1.867    1.333    3.200    0.000    5.600 
#    0.000    0.000    0.000    0.000    1.733    0.000 
#    0.000    0.000    0.000    0.000    0.000    0.000 
#
# Total GULP energy -334624.105683 kJ/mol
# GULP energy per Si atom -5577.068428 kJ/mol
# Density = 1.625030 g / cm^3
# Si number density = 16.287369 Si / 1000 Ang^3
#
#
#
# Elastic Constant Matrix: (Units=GPa)
#
#
# Indices 1 2 3 4 5 6 
#
# 1 76.8797 33.2426 45.8800 0.0000 0.0000 0.0000
# 2 33.2426 84.7977 35.0661 0.0000 0.0000 0.0000
# 3 45.8800 35.0661 56.7100 0.0000 0.0000 0.0000
# 4 0.0000 0.0000 0.0000 25.9584 0.0000 0.0000
# 5 0.0000 0.0000 0.0000 0.0000 9.1518 0.0000
# 6 0.0000 0.0000 0.0000 0.0000 0.0000 41.9393
#
#
#
# Elastic Compliance Matrix: (Units=1/GPa)
#
#
# Indices 1 2 3 4 5 6 
#
# 1 0.025390 -0.001960 -0.019329 0.000000 0.000000 0.000000
# 2 -0.001960 0.015995 -0.008305 0.000000 0.000000 0.000000
# 3 -0.019329 -0.008305 0.038406 0.000000 0.000000 0.000000
# 4 0.000000 0.000000 0.000000 0.038523 0.000000 0.000000
# 5 0.000000 0.000000 0.000000 0.000000 0.109268 0.000000
# 6 0.000000 0.000000 0.000000 0.000000 0.000000 0.023844
#
#
# Mechanical properties :
#
#
# Convention : Reuss Voigt Hill
#
# Bulk Modulus (GPa) = 48.53485 49.64052 49.08769
# Shear Modulus (GPa) = 15.74884 22.35649 19.05267
#
# Velocity S-wave (km/s) = 3.11293 3.70892 3.42392
# Velocity P-wave (km/s) = 6.54097 6.99182 6.77015
#
# Compressibility (1/GPa) = 0.02060375
#
# Stress axis : x y z
#
# Youngs Moduli (GPa) = 39.38529 62.51762 26.03728
#
# Poissons Ratio (x) = 0.12256 0.50328
# Poissons Ratio (y) = 0.07721 0.21623
# Poissons Ratio (z) = 0.76128 0.51919
#
# Static dielectric constant tensor:
#      x y z
#    x 1.556650 0.000000 0.000000 
#    y 0.000000 1.548910 0.000000 
#    z 0.000000 0.000000 1.537360 
# 
# From -- ./inp_files/13150.got.cif
#   From: 2010.05.17/outbox.cif.g08.bks.cpg/sg63_7_cif.got.tgz:13150.got - 2010.06.03 15:47:04.
