data_PCOD9470763
_publ_section_title
;
Structure prediction by ZEFSAII (Michael W. Deem and Ramdas Pophale) SiO2 
 PCOD9470763
Probable space group: C M C M
;
_chemical_formula_sum "Si O2"
_cell_formula_units_Z 100
_cell_length_a 7.297084
_cell_length_b 30.310135
_cell_length_c 21.162096
_cell_angle_alpha 90.000000
_cell_angle_beta 90.000000
_cell_angle_gamma 90.000000
_cell_volume 4680.539304
_symmetry_space_group_name_H-M "C M C M"
_symmetry_group_IT_number 63
_symmetry_cell_setting 'orthorhombic'
loop_
_space_group_symop_operation_xyz
x,y,z
-x,-y,1/2+z
x,-y,-z
-x,y,1/2-z
-x,-y,-z
x,y,1/2-z
-x,y,z
x,-y,1/2+z
1/2+x,1/2+y,z
1/2-x,1/2-y,1/2+z
1/2+x,1/2-y,-z
1/2-x,1/2+y,1/2-z
1/2-x,1/2-y,-z
1/2+x,1/2+y,1/2-z
1/2-x,1/2+y,z
1/2+x,1/2-y,1/2+z
loop_
_atom_site_type_symbol
_atom_site_label
_atom_site_fract_x
_atom_site_fract_y
_atom_site_fract_z
Si Si1 0.223446 0.459643 0.678064
Si Si2 0.500000 0.848235 0.250000
Si Si3 0.223528 0.369581 0.610614
Si Si4 0.789462 0.181628 0.852078
Si Si5 0.278756 0.879093 0.465763
Si Si6 0.222161 0.280184 0.677106
Si Si7 0.723162 0.976696 0.434460
O O1 0.282586 0.467409 0.750000
O O2 0.278911 0.411482 0.652649
O O3 0.282481 0.495922 0.626784
O O4 0.000000 0.460208 0.678352
O O5 0.340801 0.845067 0.305277
O O6 0.281657 0.375470 0.538245
O O7 0.284525 0.323153 0.639497
O O8 0.000000 0.369682 0.610806
O O9 0.781037 0.160581 0.921234
O O10 0.726019 0.232662 0.850544
O O11 0.000000 0.180944 0.830097
O O12 0.500000 0.879234 0.466643
O O13 0.219296 0.925925 0.436774
O O14 0.281563 0.281694 0.750000
O O15 0.000000 0.281793 0.676818
O O16 0.500000 0.977408 0.434101
O O17 0.778823 0.000000 0.500000
#
# Coordination Sequence:
#
# PCOD9470763 Si02
#       7
#    16   4  16  16  16  16  16
#     4   9  15  24  40  72 110 149 202 266 316 365
#     4  12  22  44  68  90 114 164 204 250 304 370
#     4   9  16  27  49  76 111 153 203 251 309 371
#     4  11  23  40  63  89 123 156 200 255 303 360
#     4  10  19  33  53  83 117 162 206 248 306 371
#     4   9  17  31  51  78 111 153 196 251 311 361
#     4   9  15  27  46  72 111 159 207 254 308 366
#
# _framework density 21.365058999999999
#
# number of rings (size 3 to 8) (size 9 to 14) (size 15 to 20)
#    0.000    2.400    3.200    0.720    0.000    2.560 
#    1.440    0.000    1.760    0.480    0.000    0.000 
#    0.000    1.280    0.000    0.320    0.000    0.320 
#
# Total GULP energy -278874.588734 kJ/mol
# GULP energy per Si atom -5577.491775 kJ/mol
# Density = 2.131643 g / cm^3
# Si number density = 21.365059 Si / 1000 Ang^3
#
#
#
# Elastic Constant Matrix: (Units=GPa)
#
#
# Indices 1 2 3 4 5 6 
#
# 1 104.1977 0.0775 7.7512 0.0000 0.0000 0.0000
# 2 0.0775 101.7282 94.4577 0.0000 0.0000 0.0000
# 3 7.7512 94.4577 197.8620 0.0000 0.0000 0.0000
# 4 0.0000 0.0000 0.0000 27.5793 0.0000 0.0000
# 5 0.0000 0.0000 0.0000 0.0000 -5.2289 0.0000
# 6 0.0000 0.0000 0.0000 0.0000 0.0000 -4.0267
#
#
#
# Elastic Compliance Matrix: (Units=1/GPa)
#
#
# Indices 1 2 3 4 5 6 
#
# 1 0.009647 0.000617 -0.000672 0.000000 0.000000 0.000000
# 2 0.000617 0.017696 -0.008472 0.000000 0.000000 0.000000
# 3 -0.000672 -0.008472 0.009125 0.000000 0.000000 0.000000
# 4 0.000000 0.000000 0.000000 0.036259 0.000000 0.000000
# 5 0.000000 0.000000 0.000000 0.000000 -0.191244 0.000000
# 6 0.000000 0.000000 0.000000 0.000000 0.000000 -0.248341
#
#
# Mechanical properties :
#
#
# Convention : Reuss Voigt Hill
#
# Bulk Modulus (GPa) = 51.51273 67.59565 59.55419
# Shear Modulus (GPa) = -14.56320 23.76483 4.60082
#
# Velocity S-wave (km/s) = -2.61365 3.33877 1.46905
# Velocity P-wave (km/s) = 3.88006 6.82424 5.55091
#
# Compressibility (1/GPa) = 0.01941268
#
# Stress axis : x y z
#
# Youngs Moduli (GPa) = 103.66235 56.50856 109.58926
#
# Poissons Ratio (x) = -0.03487 0.07370
# Poissons Ratio (y) = -0.06397 0.92847
# Poissons Ratio (z) = 0.06971 0.47876
#
# Static dielectric constant tensor:
#      x y z
#    x 1.844910 0.000000 0.000000 
#    y 0.000000 1.743340 0.000000 
#    z 0.000000 0.000000 1.723940 
# 
# From -- ./inp_files/51683.got.cif
#   From: 2010.05.17/outbox.cif.g08.bks.cpg/sg63_26_cif.got.tgz:51683.got - 2010.06.03 15:47:04.
