data_PCOD9470200
_publ_section_title
;
Structure prediction by ZEFSAII (Michael W. Deem and Ramdas Pophale) SiO2 
 PCOD9470200
Probable space group: C M C M
;
_chemical_formula_sum "Si O2"
_cell_formula_units_Z 88
_cell_length_a 17.813076
_cell_length_b 29.494230
_cell_length_c 9.247123
_cell_angle_alpha 90.000000
_cell_angle_beta 90.000000
_cell_angle_gamma 90.000000
_cell_volume 4858.280858
_symmetry_space_group_name_H-M "C M C M"
_symmetry_group_IT_number 63
_symmetry_cell_setting 'orthorhombic'
loop_
_space_group_symop_operation_xyz
x,y,z
-x,-y,1/2+z
x,-y,-z
-x,y,1/2-z
-x,-y,-z
x,y,1/2-z
-x,y,z
x,-y,1/2+z
1/2+x,1/2+y,z
1/2-x,1/2-y,1/2+z
1/2+x,1/2-y,-z
1/2-x,1/2+y,1/2-z
1/2-x,1/2-y,-z
1/2+x,1/2+y,1/2-z
1/2-x,1/2+y,z
1/2+x,1/2-y,1/2+z
loop_
_atom_site_type_symbol
_atom_site_label
_atom_site_fract_x
_atom_site_fract_y
_atom_site_fract_z
Si Si1 0.590063 0.801224 0.078131
Si Si2 0.591404 0.709269 0.916269
Si Si3 0.500000 0.951935 0.922456
Si Si4 0.588249 0.617908 0.077545
Si Si5 0.856506 0.609873 0.423263
Si Si6 0.286290 0.548025 0.423062
O O1 0.601090 0.799343 0.250000
O O2 0.500000 0.807177 0.051615
O O3 0.613620 0.754016 0.004210
O O4 0.632746 0.843331 0.007149
O O5 0.616210 0.711266 0.750000
O O6 0.500000 0.708856 0.917102
O O7 0.614676 0.662760 0.993620
O O8 0.500000 0.959274 0.750000
O O9 0.573143 0.922489 0.959010
O O10 0.500000 0.000000 0.000000
O O11 0.596743 0.625721 0.250000
O O12 0.500000 0.610915 0.048117
O O13 0.637298 0.574322 0.038326
O O14 0.857747 0.618467 0.250000
O O15 0.781604 0.582155 0.458996
O O16 0.278639 0.500000 0.500000
O O17 0.284719 0.541038 0.250000
#
# Coordination Sequence:
#
# PCOD9470200 Si02
#       6
#    16  16   8  16  16  16
#     4  10  19  31  51  80 110 142 179 218 260 310
#     4   9  17  30  52  81 110 140 174 215 263 314
#     4  10  20  32  50  72  98 134 176 222 263 304
#     4   9  18  35  57  80 107 138 174 217 265 318
#     4  10  20  35  52  74 105 141 180 220 264 310
#     4  10  22  38  56  78 106 140 176 220 271 318
#
# _framework density 18.113403999999999
#
# number of rings (size 3 to 8) (size 9 to 14) (size 15 to 20)
#    0.000    2.364    0.909    1.636    0.000    5.455 
#    0.000    0.909    0.000    0.000    0.000    0.000 
#    0.000    0.000    0.000    0.000    0.000    0.000 
#
# Total GULP energy -245583.623939 kJ/mol
# GULP energy per Si atom -5581.445999 kJ/mol
# Density = 1.807218 g / cm^3
# Si number density = 18.113404 Si / 1000 Ang^3
#
#
#
# Elastic Constant Matrix: (Units=GPa)
#
#
# Indices 1 2 3 4 5 6 
#
# 1 60.2028 44.9851 36.8249 0.0000 0.0000 0.0000
# 2 44.9851 104.0854 53.7233 0.0000 0.0000 0.0000
# 3 36.8249 53.7233 53.7622 0.0000 0.0000 0.0000
# 4 0.0000 0.0000 0.0000 32.4260 0.0000 0.0000
# 5 0.0000 0.0000 0.0000 0.0000 10.8355 0.0000
# 6 0.0000 0.0000 0.0000 0.0000 0.0000 57.2981
#
#
#
# Elastic Compliance Matrix: (Units=1/GPa)
#
#
# Indices 1 2 3 4 5 6 
#
# 1 0.029718 -0.004827 -0.015532 0.000000 0.000000 0.000000
# 2 -0.004827 0.020625 -0.017304 0.000000 0.000000 0.000000
# 3 -0.015532 -0.017304 0.046530 0.000000 0.000000 0.000000
# 4 0.000000 0.000000 0.000000 0.030839 0.000000 0.000000
# 5 0.000000 0.000000 0.000000 0.000000 0.092290 0.000000
# 6 0.000000 0.000000 0.000000 0.000000 0.000000 0.017453
#
#
# Mechanical properties :
#
#
# Convention : Reuss Voigt Hill
#
# Bulk Modulus (GPa) = 46.40843 54.34630 50.37737
# Shear Modulus (GPa) = 15.62680 25.61306 20.61993
#
# Velocity S-wave (km/s) = 2.94040 3.76445 3.37765
# Velocity P-wave (km/s) = 6.09956 6.99738 6.56383
#
# Compressibility (1/GPa) = 0.02154781
#
# Stress axis : x y z
#
# Youngs Moduli (GPa) = 33.64943 48.48487 21.49140
#
# Poissons Ratio (x) = 0.23405 0.33380
# Poissons Ratio (y) = 0.16243 0.37188
# Poissons Ratio (z) = 0.52264 0.83896
#
# Static dielectric constant tensor:
#      x y z
#    x 1.633150 0.000000 0.000000 
#    y 0.000000 1.578580 0.000000 
#    z 0.000000 0.000000 1.603760 
# 
# From -- ./inp_files/6847.got.cif
#   From: 2010.05.17/outbox.cif.g08.bks.cpg/sg63_4_cif.got.tgz:6847.got - 2010.06.03 15:47:04.
