data_PCOD9470474
_publ_section_title
;
Structure prediction by ZEFSAII (Michael W. Deem and Ramdas Pophale) SiO2 
 PCOD9470474
Probable space group: C M C M
;
_chemical_formula_sum "Si O2"
_cell_formula_units_Z 104
_cell_length_a 13.489295
_cell_length_b 18.061891
_cell_length_c 20.952599
_cell_angle_alpha 90.000000
_cell_angle_beta 90.000000
_cell_angle_gamma 90.000000
_cell_volume 5104.936812
_symmetry_space_group_name_H-M "C M C M"
_symmetry_group_IT_number 63
_symmetry_cell_setting 'orthorhombic'
loop_
_space_group_symop_operation_xyz
x,y,z
-x,-y,1/2+z
x,-y,-z
-x,y,1/2-z
-x,-y,-z
x,y,1/2-z
-x,y,z
x,-y,1/2+z
1/2+x,1/2+y,z
1/2-x,1/2-y,1/2+z
1/2+x,1/2-y,-z
1/2-x,1/2+y,1/2-z
1/2-x,1/2-y,-z
1/2+x,1/2+y,1/2-z
1/2-x,1/2+y,z
1/2+x,1/2-y,1/2+z
loop_
_atom_site_type_symbol
_atom_site_label
_atom_site_fract_x
_atom_site_fract_y
_atom_site_fract_z
Si Si1 0.319343 0.169405 0.526765
Si Si2 0.612241 0.463403 0.608281
Si Si3 0.620549 0.124476 0.250000
Si Si4 0.675179 0.963858 0.390077
Si Si5 0.310990 0.046692 0.750000
Si Si6 0.885437 0.633560 0.388854
Si Si7 0.890647 0.015162 0.250000
Si Si8 0.110875 0.824614 0.986802
O O1 0.331216 0.164275 0.450391
O O2 0.200934 0.171179 0.536797
O O3 0.371853 0.245039 0.546971
O O4 0.359222 0.094799 0.557982
O O5 0.500000 0.494761 0.598554
O O6 0.707635 0.516058 0.598841
O O7 0.619583 0.441525 0.683343
O O8 0.619983 0.393433 0.561714
O O9 0.500000 0.120727 0.250000
O O10 0.661339 0.040803 0.250000
O O11 0.651005 0.157415 0.181599
O O12 0.656825 0.928209 0.319963
O O13 0.624245 0.044094 0.391684
O O14 0.192143 0.047514 0.750000
O O15 0.000000 0.654284 0.394572
O O16 0.000000 0.982368 0.250000
O O17 0.000000 0.826211 0.013887
#
# Coordination Sequence:
#
# PCOD9470474 Si02
#       8
#    16  16   8  16   8  16   8  16
#     4  11  22  35  53  78 107 139 180 225 268 326
#     4   9  17  32  54  79 107 139 179 224 269 318
#     4   8  16  30  48  72 101 134 172 215 265 314
#     4  10  19  33  53  81 108 136 180 221 266 315
#     4   8  16  30  49  72 108 141 164 215 271 315
#     4  10  19  32  52  78 106 136 174 222 269 315
#     4   8  14  26  49  78 103 133 176 222 264 313
#     4  10  22  38  52  71 107 148 178 216 272 323
#
# _framework density 20.372437000000001
#
# number of rings (size 3 to 8) (size 9 to 14) (size 15 to 20)
#    0.000    2.462    1.538    0.923    0.000    2.462 
#    0.000    2.308    0.000    2.769    0.000    1.077 
#    0.000    0.000    0.000    0.000    0.000    0.000 
#
# Total GULP energy -289557.328473 kJ/mol
# GULP energy per Si atom -5568.410163 kJ/mol
# Density = 2.032607 g / cm^3
# Si number density = 20.372437 Si / 1000 Ang^3
#
#
#
# Elastic Constant Matrix: (Units=GPa)
#
#
# Indices 1 2 3 4 5 6 
#
# 1 53.5871 -9.4268 3.8577 0.0000 0.0000 0.0000
# 2 -9.4268 50.0517 21.9190 0.0000 0.0000 0.0000
# 3 3.8577 21.9190 78.9661 0.0000 0.0000 0.0000
# 4 0.0000 0.0000 0.0000 -3.3974 0.0000 0.0000
# 5 0.0000 0.0000 0.0000 0.0000 13.3650 0.0000
# 6 0.0000 0.0000 0.0000 0.0000 0.0000 0.6391
#
#
#
# Elastic Compliance Matrix: (Units=1/GPa)
#
#
# Indices 1 2 3 4 5 6 
#
# 1 0.019649 0.004691 -0.002262 0.000000 0.000000 0.000000
# 2 0.004691 0.023864 -0.006853 0.000000 0.000000 0.000000
# 3 -0.002262 -0.006853 0.014676 0.000000 0.000000 0.000000
# 4 0.000000 0.000000 0.000000 -0.294341 0.000000 0.000000
# 5 0.000000 0.000000 0.000000 0.000000 0.074822 0.000000
# 6 0.000000 0.000000 0.000000 0.000000 0.000000 1.564708
#
#
# Mechanical properties :
#
#
# Convention : Reuss Voigt Hill
#
# Bulk Modulus (GPa) = 20.26672 23.92276 22.09474
# Shear Modulus (GPa) = 3.49975 13.20501 8.35238
#
# Velocity S-wave (km/s) = 1.31210 2.54870 2.02700
# Velocity P-wave (km/s) = 3.50217 4.51989 4.04318
#
# Compressibility (1/GPa) = 0.04934198
#
# Stress axis : x y z
#
# Youngs Moduli (GPa) = 50.89230 41.90383 68.13627
#
# Poissons Ratio (x) = -0.19659 0.15413
# Poissons Ratio (y) = -0.23876 0.46696
# Poissons Ratio (z) = 0.11513 0.28718
#
# Static dielectric constant tensor:
#      x y z
#    x 1.792650 0.000000 0.000000 
#    y 0.000000 1.696460 0.000000 
#    z 0.000000 0.000000 1.773560 
# 
# From -- ./inp_files/54724.got.cif
#   From: 2010.05.17/outbox.cif.g08.bks.cpg/sg63_28_cif.got.tgz:54724.got - 2010.06.03 15:47:04.
