data_PCOD9470903
_publ_section_title
;
Structure prediction by ZEFSAII (Michael W. Deem and Ramdas Pophale) SiO2 
 PCOD9470903
Probable space group: C M C M
;
_chemical_formula_sum "Si O2"
_cell_formula_units_Z 88
_cell_length_a 27.980645
_cell_length_b 19.907206
_cell_length_c 9.072099
_cell_angle_alpha 90.000000
_cell_angle_beta 90.000000
_cell_angle_gamma 90.000000
_cell_volume 5053.308506
_symmetry_space_group_name_H-M "C M C M"
_symmetry_group_IT_number 63
_symmetry_cell_setting 'orthorhombic'
loop_
_space_group_symop_operation_xyz
x,y,z
-x,-y,1/2+z
x,-y,-z
-x,y,1/2-z
-x,-y,-z
x,y,1/2-z
-x,y,z
x,-y,1/2+z
1/2+x,1/2+y,z
1/2-x,1/2-y,1/2+z
1/2+x,1/2-y,-z
1/2-x,1/2+y,1/2-z
1/2-x,1/2-y,-z
1/2+x,1/2+y,1/2-z
1/2-x,1/2+y,z
1/2+x,1/2-y,1/2+z
loop_
_atom_site_type_symbol
_atom_site_label
_atom_site_fract_x
_atom_site_fract_y
_atom_site_fract_z
Si Si1 0.625353 0.928516 0.072963
Si Si2 0.087542 0.830126 0.073531
Si Si3 0.443566 0.192573 0.922887
Si Si4 0.313416 0.313442 0.574657
Si Si5 0.000000 0.927158 0.072438
Si Si6 0.214865 0.340116 0.073950
O O1 0.623736 0.935211 0.250000
O O2 0.586086 0.872794 0.030899
O O3 0.676807 0.896932 0.033281
O O4 0.617406 0.000000 0.000000
O O5 0.091429 0.829635 0.250000
O O6 0.047146 0.884357 0.030827
O O7 0.070217 0.757640 0.016032
O O8 0.139266 0.841663 0.001768
O O9 0.431594 0.206065 0.750000
O O10 0.500000 0.180493 0.933345
O O11 0.316146 0.321789 0.750000
O O12 0.264696 0.344424 0.510953
O O13 0.308550 0.233156 0.543327
O O14 0.000000 0.933450 0.250000
O O15 0.000000 0.000000 0.000000
O O16 0.223416 0.342570 0.250000
#
# Coordination Sequence:
#
# PCOD9470903 Si02
#       6
#    16  16  16  16   8  16
#     4  10  21  37  54  79 115 154 194 235 283 337
#     4  11  21  36  58  87 118 145 183 233 282 331
#     4  10  20  36  58  83 112 149 193 237 282 334
#     4  10  19  33  56  85 111 141 186 231 281 336
#     4  10  24  42  60  86 117 148 183 226 279 342
#     4   9  18  34  53  78 113 145 183 235 282 329
#
# _framework density 17.414334
#
# number of rings (size 3 to 8) (size 9 to 14) (size 15 to 20)
#    0.000    2.000    2.727    1.091    0.000    4.000 
#    0.000    0.909    0.000    0.000    0.000    0.000 
#    0.000    0.000    0.000    0.000    0.000    0.000 
#
# Total GULP energy -245636.815953 kJ/mol
# GULP energy per Si atom -5582.654908 kJ/mol
# Density = 1.737470 g / cm^3
# Si number density = 17.414334 Si / 1000 Ang^3
#
#
#
# Elastic Constant Matrix: (Units=GPa)
#
#
# Indices 1 2 3 4 5 6 
#
# 1 138.9989 64.0597 58.0714 0.0000 0.0000 0.0000
# 2 64.0597 112.1132 42.6529 0.0000 0.0000 0.0000
# 3 58.0714 42.6529 46.4938 0.0000 0.0000 0.0000
# 4 0.0000 0.0000 0.0000 30.5619 0.0000 0.0000
# 5 0.0000 0.0000 0.0000 0.0000 28.5516 0.0000
# 6 0.0000 0.0000 0.0000 0.0000 0.0000 25.1485
#
#
#
# Elastic Compliance Matrix: (Units=1/GPa)
#
#
# Indices 1 2 3 4 5 6 
#
# 1 0.015415 -0.002278 -0.017163 0.000000 0.000000 0.000000
# 2 -0.002278 0.014038 -0.010033 0.000000 0.000000 0.000000
# 3 -0.017163 -0.010033 0.052150 0.000000 0.000000 0.000000
# 4 0.000000 0.000000 0.000000 0.032720 0.000000 0.000000
# 5 0.000000 0.000000 0.000000 0.000000 0.035024 0.000000
# 6 0.000000 0.000000 0.000000 0.000000 0.000000 0.039764
#
#
# Mechanical properties :
#
#
# Convention : Reuss Voigt Hill
#
# Bulk Modulus (GPa) = 44.14314 69.68600 56.91457
# Shear Modulus (GPa) = 19.56090 25.70720 22.63405
#
# Velocity S-wave (km/s) = 3.35515 3.84631 3.60910
# Velocity P-wave (km/s) = 6.35713 7.73491 7.07962
#
# Compressibility (1/GPa) = 0.02265358
#
# Stress axis : x y z
#
# Youngs Moduli (GPa) = 64.87312 71.23373 19.17551
#
# Poissons Ratio (x) = 0.16227 0.32912
# Poissons Ratio (y) = 0.14778 0.19239
# Poissons Ratio (z) = 1.11344 0.71471
#
# Static dielectric constant tensor:
#      x y z
#    x 1.594060 0.000000 0.000000 
#    y 0.000000 1.562070 0.000000 
#    z 0.000000 0.000000 1.583330 
# 
# From -- ./inp_files/14216.got.cif
#   From: 2010.05.17/outbox.cif.g08.bks.cpg/sg63_8_cif.got.tgz:14216.got - 2010.06.03 15:47:04.
