data_PCOD9470836
_publ_section_title
;
Structure prediction by ZEFSAII (Michael W. Deem and Ramdas Pophale) SiO2 
 PCOD9470836
Probable space group: C M C M
;
_chemical_formula_sum "Si O2"
_cell_formula_units_Z 96
_cell_length_a 17.339183
_cell_length_b 30.489625
_cell_length_c 7.384248
_cell_angle_alpha 90.000000
_cell_angle_beta 90.000000
_cell_angle_gamma 90.000000
_cell_volume 3903.794853
_symmetry_space_group_name_H-M "C M C M"
_symmetry_group_IT_number 63
_symmetry_cell_setting 'orthorhombic'
loop_
_space_group_symop_operation_xyz
x,y,z
-x,-y,1/2+z
x,-y,-z
-x,y,1/2-z
-x,-y,-z
x,y,1/2-z
-x,y,z
x,-y,1/2+z
1/2+x,1/2+y,z
1/2-x,1/2-y,1/2+z
1/2+x,1/2-y,-z
1/2-x,1/2+y,1/2-z
1/2-x,1/2-y,-z
1/2+x,1/2+y,1/2-z
1/2-x,1/2+y,z
1/2+x,1/2-y,1/2+z
loop_
_atom_site_type_symbol
_atom_site_label
_atom_site_fract_x
_atom_site_fract_y
_atom_site_fract_z
Si Si1 0.916106 0.760178 0.535453
Si Si2 0.808253 0.547319 0.534819
Si Si3 0.367584 0.548976 0.966394
Si Si4 0.792267 0.303018 0.032576
Si Si5 0.638671 0.353301 0.467478
Si Si6 0.586192 0.124852 0.970053
O O1 0.915988 0.750401 0.750000
O O2 0.830309 0.743665 0.469454
O O3 0.915299 0.812405 0.509865
O O4 0.000000 0.743981 0.465079
O O5 0.843440 0.500000 0.500000
O O6 0.800428 0.554112 0.750000
O O7 0.720959 0.546859 0.464430
O O8 0.861914 0.585073 0.462679
O O9 0.370118 0.551386 0.750000
O O10 0.389988 0.598418 0.030263
O O11 0.402212 0.500000 0.000000
O O12 0.781985 0.300999 0.250000
O O13 0.721865 0.333922 0.964849
O O14 0.868800 0.331164 0.990164
O O15 0.645948 0.357028 0.250000
O O16 0.583290 0.121780 0.750000
O O17 0.500000 0.123742 0.037712
#
# Coordination Sequence:
#
# PCOD9470836 Si02
#       6
#    16  16  16  16  16  16
#     4  10  21  35  52  77 107 136 168 209 256 303
#     4   9  16  27  42  62  90 124 162 204 247 291
#     4   9  17  30  49  74 102 131 165 207 253 299
#     4   9  16  30  50  73 101 133 171 211 246 288
#     4  10  19  33  55  79 103 134 172 211 251 300
#     4   9  15  24  42  66  92 127 169 208 244 285
#
# _framework density 24.591456000000001
#
# number of rings (size 3 to 8) (size 9 to 14) (size 15 to 20)
#    0.000    2.667    1.667    1.000    0.000    3.333 
#    0.000    0.000    0.000    1.500    0.000    0.000 
#    0.000    0.000    0.000    0.000    0.000    0.000 
#
# Total GULP energy -267367.394456 kJ/mol
# GULP energy per Si atom -5570.154051 kJ/mol
# Density = 2.453548 g / cm^3
# Si number density = 24.591456 Si / 1000 Ang^3
#
#
#
# Elastic Constant Matrix: (Units=GPa)
#
#
# Indices 1 2 3 4 5 6 
#
# 1 80.2435 -3.2891 2.7501 0.0000 0.0000 0.0000
# 2 -3.2891 120.1798 -0.7748 0.0000 0.0000 0.0000
# 3 2.7501 -0.7748 85.2950 0.0000 0.0000 0.0000
# 4 0.0000 0.0000 0.0000 17.5662 0.0000 0.0000
# 5 0.0000 0.0000 0.0000 0.0000 5.2135 0.0000
# 6 0.0000 0.0000 0.0000 0.0000 0.0000 93.1070
#
#
#
# Elastic Compliance Matrix: (Units=1/GPa)
#
#
# Indices 1 2 3 4 5 6 
#
# 1 0.012490 0.000339 -0.000400 0.000000 0.000000 0.000000
# 2 0.000339 0.008331 0.000065 0.000000 0.000000 0.000000
# 3 -0.000400 0.000065 0.011737 0.000000 0.000000 0.000000
# 4 0.000000 0.000000 0.000000 0.056928 0.000000 0.000000
# 5 0.000000 0.000000 0.000000 0.000000 0.191810 0.000000
# 6 0.000000 0.000000 0.000000 0.000000 0.000000 0.010740
#
#
# Mechanical properties :
#
#
# Convention : Reuss Voigt Hill
#
# Bulk Modulus (GPa) = 30.70644 31.45452 31.08048
# Shear Modulus (GPa) = 16.50805 42.31280 29.41043
#
# Velocity S-wave (km/s) = 2.59374 4.15255 3.46202
# Velocity P-wave (km/s) = 4.63505 5.98416 5.35228
#
# Compressibility (1/GPa) = 0.03256646
#
# Stress axis : x y z
#
# Youngs Moduli (GPa) = 80.06619 120.03986 85.19706
#
# Poissons Ratio (x) = -0.04072 0.03405
# Poissons Ratio (y) = -0.02716 -0.00552
# Poissons Ratio (z) = 0.03200 -0.00777
#
# Static dielectric constant tensor:
#      x y z
#    x 1.982430 0.000000 0.000000 
#    y 0.000000 1.945490 0.000000 
#    z 0.000000 0.000000 1.964270 
# 
# From -- ./inp_files/8667.got.cif
#   From: 2010.05.17/outbox.cif.g08.bks.cpg/sg63_5_cif.got.tgz:8667.got - 2010.06.03 15:47:04.
