data_PCOD9470173
_publ_section_title
;
Structure prediction by ZEFSAII (Michael W. Deem and Ramdas Pophale) SiO2 
 PCOD9470173
Probable space group: C M C M
;
_chemical_formula_sum "Si O2"
_cell_formula_units_Z 104
_cell_length_a 26.510960
_cell_length_b 22.483332
_cell_length_c 9.686897
_cell_angle_alpha 90.000000
_cell_angle_beta 90.000000
_cell_angle_gamma 90.000000
_cell_volume 5773.920634
_symmetry_space_group_name_H-M "C M C M"
_symmetry_group_IT_number 63
_symmetry_cell_setting 'orthorhombic'
loop_
_space_group_symop_operation_xyz
x,y,z
-x,-y,1/2+z
x,-y,-z
-x,y,1/2-z
-x,-y,-z
x,y,1/2-z
-x,y,z
x,-y,1/2+z
1/2+x,1/2+y,z
1/2-x,1/2-y,1/2+z
1/2+x,1/2-y,-z
1/2-x,1/2+y,1/2-z
1/2-x,1/2-y,-z
1/2+x,1/2+y,1/2-z
1/2-x,1/2+y,z
1/2+x,1/2-y,1/2+z
loop_
_atom_site_type_symbol
_atom_site_label
_atom_site_fract_x
_atom_site_fract_y
_atom_site_fract_z
Si Si1 0.102166 0.870033 0.586543
Si Si2 0.500000 0.559190 0.087131
Si Si3 0.706823 0.742694 0.605806
Si Si4 0.624217 0.844477 0.912816
Si Si5 0.692694 0.937784 0.418602
Si Si6 0.059840 0.259861 0.413482
Si Si7 0.808051 0.896738 0.403606
O O1 0.112205 0.870660 0.750000
O O2 0.049778 0.902869 0.557564
O O3 0.090964 0.800463 0.550622
O O4 0.147031 0.905734 0.511118
O O5 0.500000 0.545653 0.250000
O O6 0.500000 0.500000 0.000000
O O7 0.732413 0.756954 0.750000
O O8 0.750000 0.750000 0.500000
O O9 0.662537 0.788974 0.588800
O O10 0.690713 0.674754 0.605745
O O11 0.615697 0.861378 0.750000
O O12 0.652656 0.894046 0.005749
O O13 0.576664 0.815633 0.992499
O O14 0.685229 0.941049 0.250000
O O15 0.750800 0.915434 0.440047
O O16 0.688325 0.000000 0.500000
O O17 0.069180 0.272102 0.250000
O O18 0.000000 0.248107 0.428916
O O19 0.818834 0.921325 0.250000
#
# Coordination Sequence:
#
# PCOD9470173 Si02
#       7
#    16   8  16  16  16  16  16
#     4  10  20  35  57  82 113 151 196 245 292 343
#     4  10  22  40  56  76 106 150 203 248 289 340
#     4  10  19  31  50  80 114 145 180 224 274 332
#     4  11  22  36  58  88 119 150 189 236 290 352
#     4  11  24  42  61  82 115 157 199 240 285 344
#     4  10  20  36  59  87 118 152 190 238 296 353
#     4  10  21  36  54  82 117 150 188 234 286 339
#
# _framework density 18.012024
#
# number of rings (size 3 to 8) (size 9 to 14) (size 15 to 20)
#    0.000    1.692    3.846    0.923    0.000    4.000 
#    0.000    3.077    0.000    0.462    0.000    0.000 
#    0.000    0.000    0.000    0.000    0.000    0.000 
#
# Total GULP energy -289544.824003 kJ/mol
# GULP energy per Si atom -5568.169692 kJ/mol
# Density = 1.797103 g / cm^3
# Si number density = 18.012024 Si / 1000 Ang^3
#
#
#
# Elastic Constant Matrix: (Units=GPa)
#
#
# Indices 1 2 3 4 5 6 
#
# 1 60.6577 16.3631 53.6421 0.0000 0.0000 0.0000
# 2 16.3631 87.0822 45.3629 0.0000 0.0000 0.0000
# 3 53.6421 45.3629 93.1708 0.0000 0.0000 0.0000
# 4 0.0000 0.0000 0.0000 25.5498 0.0000 0.0000
# 5 0.0000 0.0000 0.0000 0.0000 32.0080 0.0000
# 6 0.0000 0.0000 0.0000 0.0000 0.0000 -0.5379
#
#
#
# Elastic Compliance Matrix: (Units=1/GPa)
#
#
# Indices 1 2 3 4 5 6 
#
# 1 0.035323 0.005301 -0.022918 0.000000 0.000000 0.000000
# 2 0.005301 0.016181 -0.010930 0.000000 0.000000 0.000000
# 3 -0.022918 -0.010930 0.029249 0.000000 0.000000 0.000000
# 4 0.000000 0.000000 0.000000 0.039139 0.000000 0.000000
# 5 0.000000 0.000000 0.000000 0.000000 0.031242 0.000000
# 6 0.000000 0.000000 0.000000 0.000000 0.000000 -1.859090
#
#
# Mechanical properties :
#
#
# Convention : Reuss Voigt Hill
#
# Bulk Modulus (GPa) = 42.26636 52.40522 47.33579
# Shear Modulus (GPa) = -3.04326 19.77348 8.36511
#
# Velocity S-wave (km/s) = -1.30125 3.31689 2.15737
# Velocity P-wave (km/s) = 4.61074 6.62018 5.70463
#
# Compressibility (1/GPa) = 0.02365948
#
# Stress axis : x y z
#
# Youngs Moduli (GPa) = 28.30998 61.80041 34.18864
#
# Poissons Ratio (x) = -0.32761 0.78353
# Poissons Ratio (y) = -0.15007 0.37369
# Poissons Ratio (z) = 0.64881 0.67550
#
# Static dielectric constant tensor:
#      x y z
#    x 1.602000 0.000000 0.000000 
#    y 0.000000 1.617460 0.000000 
#    z 0.000000 0.000000 1.658840 
# 
# From -- ./inp_files/12514.got.cif
#   From: 2010.05.17/outbox.cif.g08.bks.cpg/sg63_7_cif.got.tgz:12514.got - 2010.06.03 15:47:04.
