data_PCOD9470377
_publ_section_title
;
Structure prediction by ZEFSAII (Michael W. Deem and Ramdas Pophale) SiO2 
 PCOD9470377
Probable space group: C M C M
;
_chemical_formula_sum "Si O2"
_cell_formula_units_Z 96
_cell_length_a 21.021223
_cell_length_b 28.718113
_cell_length_c 7.719539
_cell_angle_alpha 90.000000
_cell_angle_beta 90.000000
_cell_angle_gamma 90.000000
_cell_volume 4660.207399
_symmetry_space_group_name_H-M "C M C M"
_symmetry_group_IT_number 63
_symmetry_cell_setting 'orthorhombic'
loop_
_space_group_symop_operation_xyz
x,y,z
-x,-y,1/2+z
x,-y,-z
-x,y,1/2-z
-x,-y,-z
x,y,1/2-z
-x,y,z
x,-y,1/2+z
1/2+x,1/2+y,z
1/2-x,1/2-y,1/2+z
1/2+x,1/2-y,-z
1/2-x,1/2+y,1/2-z
1/2-x,1/2-y,-z
1/2+x,1/2+y,1/2-z
1/2-x,1/2+y,z
1/2+x,1/2-y,1/2+z
loop_
_atom_site_type_symbol
_atom_site_label
_atom_site_fract_x
_atom_site_fract_y
_atom_site_fract_z
Si Si1 0.072451 0.790994 0.961587
Si Si2 0.184550 0.724186 0.958292
Si Si3 0.699173 0.446704 0.454113
Si Si4 0.313078 0.882280 0.036867
Si Si5 0.928079 0.446951 0.041902
Si Si6 0.429023 0.397060 0.957803
O O1 0.073865 0.790955 0.750000
O O2 0.125181 0.754792 0.023441
O O3 0.085800 0.844224 0.017917
O O4 0.000000 0.779406 0.012315
O O5 0.178603 0.722155 0.750000
O O6 0.185964 0.671091 0.021584
O O7 0.250000 0.750000 0.000000
O O8 0.712479 0.500000 0.500000
O O9 0.704786 0.443233 0.250000
O O10 0.751120 0.410508 0.526160
O O11 0.627766 0.431567 0.499313
O O12 0.312632 0.881959 0.250000
O O13 0.375689 0.910484 0.980653
O O14 0.930447 0.443116 0.250000
O O15 0.000000 0.439431 0.975181
O O16 0.909328 0.500000 0.000000
O O17 0.432414 0.395011 0.750000
O O18 0.500000 0.409860 0.021325
#
# Coordination Sequence:
#
# PCOD9470377 Si02
#       6
#    16  16  16  16  16  16
#     4   8  15  29  51  77 101 128 163 199 235 281
#     4  10  19  32  51  74 101 130 162 201 242 286
#     4  11  22  35  51  71  98 130 165 204 245 291
#     4   9  19  33  49  73 102 130 162 202 244 286
#     4   9  17  31  51  73  98 129 164 201 242 287
#     4   9  18  34  54  75 100 128 160 199 241 288
#
# _framework density 20.599941000000001
#
# number of rings (size 3 to 8) (size 9 to 14) (size 15 to 20)
#    0.000    2.667    0.000    3.000    0.000    1.333 
#    0.000    5.833    0.000    1.500    0.000    0.000 
#    0.000    0.000    0.000    0.000    0.000    0.000 
#
# Total GULP energy -267937.862088 kJ/mol
# GULP energy per Si atom -5582.038794 kJ/mol
# Density = 2.055305 g / cm^3
# Si number density = 20.599941 Si / 1000 Ang^3
#
#
#
# Elastic Constant Matrix: (Units=GPa)
#
#
# Indices 1 2 3 4 5 6 
#
# 1 76.6475 37.7609 -1.9303 0.0000 0.0000 0.0000
# 2 37.7609 77.0222 -1.0562 0.0000 0.0000 0.0000
# 3 -1.9303 -1.0562 30.7060 0.0000 0.0000 0.0000
# 4 0.0000 0.0000 0.0000 -2.3976 0.0000 0.0000
# 5 0.0000 0.0000 0.0000 0.0000 9.9423 0.0000
# 6 0.0000 0.0000 0.0000 0.0000 0.0000 43.1495
#
#
#
# Elastic Compliance Matrix: (Units=1/GPa)
#
#
# Indices 1 2 3 4 5 6 
#
# 1 0.017221 -0.008432 0.000793 0.000000 0.000000 0.000000
# 2 -0.008432 0.017118 0.000059 0.000000 0.000000 0.000000
# 3 0.000793 0.000059 0.032619 0.000000 0.000000 0.000000
# 4 0.000000 0.000000 0.000000 -0.417084 0.000000 0.000000
# 5 0.000000 0.000000 0.000000 0.000000 0.100580 0.000000
# 6 0.000000 0.000000 0.000000 0.000000 0.000000 0.023175
#
#
# Mechanical properties :
#
#
# Convention : Reuss Voigt Hill
#
# Bulk Modulus (GPa) = 19.30638 28.21383 23.76010
# Shear Modulus (GPa) = -25.78055 20.11226 -2.83415
#
# Velocity S-wave (km/s) = -3.54147 3.12801 -1.17422
# Velocity P-wave (km/s) = 2.70745 5.17414 3.11781
#
# Compressibility (1/GPa) = 0.05179636
#
# Stress axis : x y z
#
# Youngs Moduli (GPa) = 58.06980 58.41866 30.65720
#
# Poissons Ratio (x) = 0.49257 -0.02430
# Poissons Ratio (y) = 0.48963 -0.00180
# Poissons Ratio (z) = -0.04602 -0.00343
#
# Static dielectric constant tensor:
#      x y z
#    x 1.747660 0.000000 0.000000 
#    y 0.000000 1.695310 0.000000 
#    z 0.000000 0.000000 1.767670 
# 
# From -- ./inp_files/8535.got.cif
#   From: 2010.05.17/outbox.cif.g08.bks.cpg/sg63_5_cif.got.tgz:8535.got - 2010.06.03 15:47:04.
