data_PCOD9470770
_publ_section_title
;
Structure prediction by ZEFSAII (Michael W. Deem and Ramdas Pophale) SiO2 
 PCOD9470770
Probable space group: C M C M
;
_chemical_formula_sum "Si O2"
_cell_formula_units_Z 88
_cell_length_a 24.130020
_cell_length_b 20.680881
_cell_length_c 9.550258
_cell_angle_alpha 90.000000
_cell_angle_beta 90.000000
_cell_angle_gamma 90.000000
_cell_volume 4765.865939
_symmetry_space_group_name_H-M "C M C M"
_symmetry_group_IT_number 63
_symmetry_cell_setting 'orthorhombic'
loop_
_space_group_symop_operation_xyz
x,y,z
-x,-y,1/2+z
x,-y,-z
-x,y,1/2-z
-x,-y,-z
x,y,1/2-z
-x,y,z
x,-y,1/2+z
1/2+x,1/2+y,z
1/2-x,1/2-y,1/2+z
1/2+x,1/2-y,-z
1/2-x,1/2+y,1/2-z
1/2-x,1/2-y,-z
1/2+x,1/2+y,1/2-z
1/2-x,1/2+y,z
1/2+x,1/2-y,1/2+z
loop_
_atom_site_type_symbol
_atom_site_label
_atom_site_fract_x
_atom_site_fract_y
_atom_site_fract_z
Si Si1 0.723112 0.309771 0.919068
Si Si2 0.934615 0.682004 0.909159
Si Si3 0.500000 0.569700 0.078283
Si Si4 0.404726 0.059720 0.408420
Si Si5 0.905264 0.827132 0.919018
Si Si6 0.227464 0.443464 0.905460
O O1 0.725255 0.298883 0.750000
O O2 0.659629 0.327463 0.957245
O O3 0.758929 0.372385 0.956885
O O4 0.750000 0.250000 0.000000
O O5 0.911099 0.675990 0.750000
O O6 0.925452 0.755291 0.960646
O O7 0.000000 0.671867 0.899650
O O8 0.912525 0.627001 0.011290
O O9 0.500000 0.561411 0.250000
O O10 0.446220 0.614382 0.038221
O O11 0.500000 0.500000 0.000000
O O12 0.427090 0.060923 0.250000
O O13 0.338622 0.049462 0.397741
O O14 0.427495 0.000000 0.500000
O O15 0.908280 0.828100 0.750000
O O16 0.251228 0.448898 0.750000
O O17 0.250657 0.500000 0.000000
#
# Coordination Sequence:
#
# PCOD9470770 Si02
#       6
#    16  16   8  16  16  16
#     4  10  20  34  54  82 111 142 180 225 275 330
#     4  10  19  33  54  76  98 132 176 216 255 308
#     4  10  20  38  60  84 113 148 191 238 283 336
#     4  10  20  34  51  73 103 138 172 212 258 306
#     4   9  18  35  58  79 107 146 184 221 273 336
#     4   9  19  34  51  73 103 136 172 211 256 310
#
# _framework density 18.464639999999999
#
# number of rings (size 3 to 8) (size 9 to 14) (size 15 to 20)
#    0.000    2.364    0.909    1.636    0.000    2.909 
#    0.000    1.818    0.000    0.000    0.000    0.000 
#    0.000    0.000    0.000    0.000    0.000    0.000 
#
# Total GULP energy -245105.238943 kJ/mol
# GULP energy per Si atom -5570.573612 kJ/mol
# Density = 1.842261 g / cm^3
# Si number density = 18.464640 Si / 1000 Ang^3
#
#
#
# Elastic Constant Matrix: (Units=GPa)
#
#
# Indices 1 2 3 4 5 6 
#
# 1 53.6007 27.3061 17.5138 0.0000 0.0000 0.0000
# 2 27.3061 169.5691 77.3434 0.0000 0.0000 0.0000
# 3 17.5138 77.3434 70.3646 0.0000 0.0000 0.0000
# 4 0.0000 0.0000 0.0000 37.8734 0.0000 0.0000
# 5 0.0000 0.0000 0.0000 0.0000 9.2935 0.0000
# 6 0.0000 0.0000 0.0000 0.0000 0.0000 32.4065
#
#
#
# Elastic Compliance Matrix: (Units=1/GPa)
#
#
# Indices 1 2 3 4 5 6 
#
# 1 0.020630 -0.001965 -0.002975 0.000000 0.000000 0.000000
# 2 -0.001965 0.012014 -0.012716 0.000000 0.000000 0.000000
# 3 -0.002975 -0.012716 0.028929 0.000000 0.000000 0.000000
# 4 0.000000 0.000000 0.000000 0.026404 0.000000 0.000000
# 5 0.000000 0.000000 0.000000 0.000000 0.107603 0.000000
# 6 0.000000 0.000000 0.000000 0.000000 0.000000 0.030858
#
#
# Mechanical properties :
#
#
# Convention : Reuss Voigt Hill
#
# Bulk Modulus (GPa) = 38.07951 59.76232 48.92092
# Shear Modulus (GPa) = 18.48409 27.33942 22.91175
#
# Velocity S-wave (km/s) = 3.16738 3.85208 3.52638
# Velocity P-wave (km/s) = 5.83473 7.22639 6.56753
#
# Compressibility (1/GPa) = 0.02626084
#
# Stress axis : x y z
#
# Youngs Moduli (GPa) = 48.47412 83.23709 34.56679
#
# Poissons Ratio (x) = 0.16359 0.10282
# Poissons Ratio (y) = 0.09527 0.43956
# Poissons Ratio (z) = 0.14419 1.05846
#
# Static dielectric constant tensor:
#      x y z
#    x 1.675850 0.000000 0.000000 
#    y 0.000000 1.632670 0.000000 
#    z 0.000000 0.000000 1.657800 
# 
# From -- ./inp_files/10195.got.cif
#   From: 2010.05.17/outbox.cif.g08.bks.cpg/sg63_6_cif.got.tgz:10195.got - 2010.06.03 15:47:04.
