data_PCOD9470607
_publ_section_title
;
Structure prediction by ZEFSAII (Michael W. Deem and Ramdas Pophale) SiO2 
 PCOD9470607
Probable space group: C M C M
;
_chemical_formula_sum "Si O2"
_cell_formula_units_Z 72
_cell_length_a 10.692461
_cell_length_b 14.272095
_cell_length_c 18.906042
_cell_angle_alpha 90.000000
_cell_angle_beta 90.000000
_cell_angle_gamma 90.000000
_cell_volume 2885.134215
_symmetry_space_group_name_H-M "C M C M"
_symmetry_group_IT_number 63
_symmetry_cell_setting 'orthorhombic'
loop_
_space_group_symop_operation_xyz
x,y,z
-x,-y,1/2+z
x,-y,-z
-x,y,1/2-z
-x,-y,-z
x,y,1/2-z
-x,y,z
x,-y,1/2+z
1/2+x,1/2+y,z
1/2-x,1/2-y,1/2+z
1/2+x,1/2-y,-z
1/2-x,1/2+y,1/2-z
1/2-x,1/2-y,-z
1/2+x,1/2+y,1/2-z
1/2-x,1/2+y,z
1/2+x,1/2-y,1/2+z
loop_
_atom_site_type_symbol
_atom_site_label
_atom_site_fract_x
_atom_site_fract_y
_atom_site_fract_z
Si Si1 0.500000 0.606490 0.667183
Si Si2 0.000000 0.764053 0.822161
Si Si3 0.850311 0.432529 0.670037
Si Si4 0.225593 0.602308 0.019849
Si Si5 0.771614 0.644934 0.866643
Si Si6 0.500000 0.576220 0.066167
O O1 0.500000 0.579923 0.750000
O O2 0.372550 0.663083 0.651799
O O3 0.500000 0.516148 0.615377
O O4 0.122957 0.701091 0.826264
O O5 0.000000 0.835916 0.883807
O O6 0.000000 0.820352 0.750000
O O7 0.812559 0.402215 0.750000
O O8 0.813497 0.373394 0.599911
O O9 0.791163 0.534959 0.654006
O O10 0.000000 0.441432 0.670042
O O11 0.374368 0.588135 0.021984
O O12 0.168145 0.500000 0.000000
O O13 0.199570 0.661740 0.950013
#
# Coordination Sequence:
#
# PCOD9470607 Si02
#       6
#     8   8  16  16  16   8
#     4  12  22  39  70  98 122 170 228 269 319 387
#     4  12  27  44  63  96 139 172 213 270 330 391
#     4  10  19  32  58  94 130 163 215 275 323 374
#     4  10  21  37  64  94 126 163 218 275 319 380
#     4  11  23  39  66  92 129 175 218 265 322 393
#     4  12  23  40  65  97 131 163 210 275 334 374
#
# _framework density 24.955513
#
# number of rings (size 3 to 8) (size 9 to 14) (size 15 to 20)
#    0.000    1.111    5.556    3.333    1.556    3.111 
#    0.000    0.000    2.444    0.000    0.000    0.000 
#    0.000    0.000    0.000    0.000    0.000    0.000 
#
# Total GULP energy -201411.944813 kJ/mol
# GULP energy per Si atom -5594.776245 kJ/mol
# Density = 2.489871 g / cm^3
# Si number density = 24.955513 Si / 1000 Ang^3
#
#
#
# Elastic Constant Matrix: (Units=GPa)
#
#
# Indices 1 2 3 4 5 6 
#
# 1 146.5106 20.2486 34.7075 0.0000 0.0000 0.0000
# 2 20.2486 46.4493 19.7703 0.0000 0.0000 0.0000
# 3 34.7075 19.7703 227.9233 0.0000 0.0000 0.0000
# 4 0.0000 0.0000 0.0000 10.8488 0.0000 0.0000
# 5 0.0000 0.0000 0.0000 0.0000 19.9058 0.0000
# 6 0.0000 0.0000 0.0000 0.0000 0.0000 12.7794
#
#
#
# Elastic Compliance Matrix: (Units=1/GPa)
#
#
# Indices 1 2 3 4 5 6 
#
# 1 0.007430 -0.002863 -0.000883 0.000000 0.000000 0.000000
# 2 -0.002863 0.023457 -0.001599 0.000000 0.000000 0.000000
# 3 -0.000883 -0.001599 0.004661 0.000000 0.000000 0.000000
# 4 0.000000 0.000000 0.000000 0.092176 0.000000 0.000000
# 5 0.000000 0.000000 0.000000 0.000000 0.050237 0.000000
# 6 0.000000 0.000000 0.000000 0.000000 0.000000 0.078251
#
#
# Mechanical properties :
#
#
# Convention : Reuss Voigt Hill
#
# Bulk Modulus (GPa) = 40.22800 63.37066 51.79933
# Shear Modulus (GPa) = 18.16935 31.78391 24.97663
#
# Velocity S-wave (km/s) = 2.70120 3.57266 3.16705
# Velocity P-wave (km/s) = 5.08759 6.51668 5.84597
#
# Compressibility (1/GPa) = 0.02485831
#
# Stress axis : x y z
#
# Youngs Moduli (GPa) = 134.58296 42.63036 214.56492
#
# Poissons Ratio (x) = 0.12206 0.18949
# Poissons Ratio (y) = 0.38534 0.34303
# Poissons Ratio (z) = 0.11885 0.06815
#
# Static dielectric constant tensor:
#      x y z
#    x 1.933770 0.000000 0.000000 
#    y 0.000000 1.960270 0.000000 
#    z 0.000000 0.000000 2.005710 
# 
# From -- ./inp_files/41936.got.cif
#   From: 2010.05.17/outbox.cif.g08.bks.cpg/sg63_21_cif.got.tgz:41936.got - 2010.06.03 15:47:04.
