data_PCOD9470685
_publ_section_title
;
Structure prediction by ZEFSAII (Michael W. Deem and Ramdas Pophale) SiO2 
 PCOD9470685
Probable space group: C M C M
;
_chemical_formula_sum "Si O2"
_cell_formula_units_Z 96
_cell_length_a 24.335230
_cell_length_b 26.425447
_cell_length_c 7.681715
_cell_angle_alpha 90.000000
_cell_angle_beta 90.000000
_cell_angle_gamma 90.000000
_cell_volume 4939.875323
_symmetry_space_group_name_H-M "C M C M"
_symmetry_group_IT_number 63
_symmetry_cell_setting 'orthorhombic'
loop_
_space_group_symop_operation_xyz
x,y,z
-x,-y,1/2+z
x,-y,-z
-x,y,1/2-z
-x,-y,-z
x,y,1/2-z
-x,y,z
x,-y,1/2+z
1/2+x,1/2+y,z
1/2-x,1/2-y,1/2+z
1/2+x,1/2-y,-z
1/2-x,1/2+y,1/2-z
1/2-x,1/2-y,-z
1/2+x,1/2+y,1/2-z
1/2-x,1/2+y,z
1/2+x,1/2-y,1/2+z
loop_
_atom_site_type_symbol
_atom_site_label
_atom_site_fract_x
_atom_site_fract_y
_atom_site_fract_z
Si Si1 0.436960 0.252383 0.537060
Si Si2 0.871830 0.653815 0.542310
Si Si3 0.865169 0.150858 0.036677
Si Si4 0.437126 0.942808 0.459273
Si Si5 0.062463 0.942112 0.540867
Si Si6 0.251247 0.190254 0.456859
O O1 0.436820 0.251774 0.750000
O O2 0.500000 0.253921 0.481026
O O3 0.406233 0.201918 0.475410
O O4 0.403344 0.301954 0.485073
O O5 0.879975 0.653281 0.750000
O O6 0.896880 0.601175 0.474779
O O7 0.807847 0.664499 0.513358
O O8 0.864013 0.149971 0.250000
O O9 0.893934 0.099145 0.977300
O O10 0.803518 0.162574 0.975056
O O11 0.439306 0.939051 0.250000
O O12 0.500000 0.935918 0.523937
O O13 0.419525 0.000000 0.500000
O O14 0.060349 0.937275 0.750000
O O15 0.000000 0.932803 0.475702
O O16 0.077014 0.000000 0.500000
O O17 0.249267 0.187025 0.250000
O O18 0.250000 0.250000 0.500000
#
# Coordination Sequence:
#
# PCOD9470685 Si02
#       6
#    16  16  16  16  16  16
#     4   9  15  25  47  76 100 123 159 209 255 297
#     4  10  19  33  52  77 104 132 172 215 257 306
#     4   9  17  30  49  74  99 127 168 208 243 294
#     4   9  18  33  54  79 106 137 173 215 262 312
#     4   9  17  31  52  76 100 127 161 202 248 295
#     4  11  21  35  53  74 102 138 174 211 256 306
#
# _framework density 19.433689000000001
#
# number of rings (size 3 to 8) (size 9 to 14) (size 15 to 20)
#    0.000    2.500    1.667    1.500    0.000    4.667 
#    0.000    2.500    0.000    5.500    0.000    0.000 
#    0.000    0.000    0.000    0.000    0.000    0.000 
#
# Total GULP energy -267862.855517 kJ/mol
# GULP energy per Si atom -5580.476157 kJ/mol
# Density = 1.938946 g / cm^3
# Si number density = 19.433689 Si / 1000 Ang^3
#
#
#
# Elastic Constant Matrix: (Units=GPa)
#
#
# Indices 1 2 3 4 5 6 
#
# 1 167.4173 116.5933 -5.2985 0.0000 0.0000 0.0000
# 2 116.5933 182.9818 0.1849 0.0000 0.0000 0.0000
# 3 -5.2985 0.1849 30.1686 0.0000 0.0000 0.0000
# 4 0.0000 0.0000 0.0000 20.9532 0.0000 0.0000
# 5 0.0000 0.0000 0.0000 0.0000 19.2721 0.0000
# 6 0.0000 0.0000 0.0000 0.0000 0.0000 26.2691
#
#
#
# Elastic Compliance Matrix: (Units=1/GPa)
#
#
# Indices 1 2 3 4 5 6 
#
# 1 0.010851 -0.006916 0.001948 0.000000 0.000000 0.000000
# 2 -0.006916 0.009873 -0.001275 0.000000 0.000000 0.000000
# 3 0.001948 -0.001275 0.033497 0.000000 0.000000 0.000000
# 4 0.000000 0.000000 0.000000 0.047725 0.000000 0.000000
# 5 0.000000 0.000000 0.000000 0.000000 0.051889 0.000000
# 6 0.000000 0.000000 0.000000 0.000000 0.000000 0.038067
#
#
# Mechanical properties :
#
#
# Convention : Reuss Voigt Hill
#
# Bulk Modulus (GPa) = 23.96064 67.05857 45.50961
# Shear Modulus (GPa) = 22.90407 31.23808 27.07107
#
# Velocity S-wave (km/s) = 3.43676 4.01361 3.73634
# Velocity P-wave (km/s) = 5.30138 7.48733 6.48709
#
# Compressibility (1/GPa) = 0.04173511
#
# Stress axis : x y z
#
# Youngs Moduli (GPa) = 92.15329 101.28301 29.85338
#
# Poissons Ratio (x) = 0.70051 -0.05816
# Poissons Ratio (y) = 0.63737 0.03807
# Poissons Ratio (z) = -0.17954 0.12916
#
# Static dielectric constant tensor:
#      x y z
#    x 1.656660 0.000000 0.000000 
#    y 0.000000 1.651420 0.000000 
#    z 0.000000 0.000000 1.742270 
# 
# From -- ./inp_files/10726.got.cif
#   From: 2010.05.17/outbox.cif.g08.bks.cpg/sg63_6_cif.got.tgz:10726.got - 2010.06.03 15:47:04.
