data_PCOD9470753
_publ_section_title
;
Structure prediction by ZEFSAII (Michael W. Deem and Ramdas Pophale) SiO2 
 PCOD9470753
Probable space group: C M C M
;
_chemical_formula_sum "Si O2"
_cell_formula_units_Z 96
_cell_length_a 15.506132
_cell_length_b 23.257332
_cell_length_c 15.101189
_cell_angle_alpha 90.000000
_cell_angle_beta 90.000000
_cell_angle_gamma 90.000000
_cell_volume 5445.960816
_symmetry_space_group_name_H-M "C M C M"
_symmetry_group_IT_number 63
_symmetry_cell_setting 'orthorhombic'
loop_
_space_group_symop_operation_xyz
x,y,z
-x,-y,1/2+z
x,-y,-z
-x,y,1/2-z
-x,-y,-z
x,y,1/2-z
-x,y,z
x,-y,1/2+z
1/2+x,1/2+y,z
1/2-x,1/2-y,1/2+z
1/2+x,1/2-y,-z
1/2-x,1/2+y,1/2-z
1/2-x,1/2-y,-z
1/2+x,1/2+y,1/2-z
1/2-x,1/2+y,z
1/2+x,1/2-y,1/2+z
loop_
_atom_site_type_symbol
_atom_site_label
_atom_site_fract_x
_atom_site_fract_y
_atom_site_fract_z
Si Si1 0.271961 0.408177 0.145410
Si Si2 0.903062 0.991896 0.895557
Si Si3 0.896660 0.140617 0.150339
Si Si4 0.903212 0.192608 0.852844
Si Si5 0.598756 0.147700 0.643167
Si Si6 0.150516 0.243621 0.475833
O O1 0.265174 0.404101 0.250000
O O2 0.325580 0.465779 0.129014
O O3 0.333718 0.355170 0.119426
O O4 0.174241 0.396796 0.113889
O O5 0.881037 0.926218 0.871833
O O6 0.000000 0.004673 0.857928
O O7 0.910905 0.000000 0.000000
O O8 0.865347 0.153332 0.250000
O O9 0.861449 0.184655 0.078581
O O10 0.000000 0.147718 0.149513
O O11 0.887196 0.210345 0.750000
O O12 0.000000 0.167705 0.855183
O O13 0.897167 0.240170 0.929239
O O14 0.606090 0.158691 0.750000
O O15 0.500000 0.128835 0.627522
O O16 0.617175 0.205630 0.587814
O O17 0.250000 0.250000 0.500000
#
# Coordination Sequence:
#
# PCOD9470753 Si02
#       6
#    16  16  16  16  16  16
#     4  10  19  33  53  79 108 141 182 226 275 325
#     4  10  20  33  54  83 118 152 181 220 277 345
#     4  10  21  36  55  83 116 150 188 229 283 344
#     4  10  20  33  50  75 108 143 181 224 276 342
#     4  10  21  37  57  81 109 144 191 242 283 324
#     4  12  22  34  55  78 110 151 185 233 283 338
#
# _framework density 17.627744
#
# number of rings (size 3 to 8) (size 9 to 14) (size 15 to 20)
#    0.000    1.667    1.667    4.000    0.000    5.000 
#    0.000    0.000    0.000    0.500    0.000    0.000 
#    0.000    0.000    0.000    0.000    0.000    0.000 
#
# Total GULP energy -267465.376154 kJ/mol
# GULP energy per Si atom -5572.195337 kJ/mol
# Density = 1.758762 g / cm^3
# Si number density = 17.627744 Si / 1000 Ang^3
#
#
#
# Elastic Constant Matrix: (Units=GPa)
#
#
# Indices 1 2 3 4 5 6 
#
# 1 138.9363 54.2572 26.5714 0.0000 0.0000 0.0000
# 2 54.2572 77.9155 29.0479 0.0000 0.0000 0.0000
# 3 26.5714 29.0479 72.7207 0.0000 0.0000 0.0000
# 4 0.0000 0.0000 0.0000 22.4386 0.0000 0.0000
# 5 0.0000 0.0000 0.0000 0.0000 22.1258 0.0000
# 6 0.0000 0.0000 0.0000 0.0000 0.0000 28.3599
#
#
#
# Elastic Compliance Matrix: (Units=1/GPa)
#
#
# Indices 1 2 3 4 5 6 
#
# 1 0.009950 -0.006549 -0.001020 0.000000 0.000000 0.000000
# 2 -0.006549 0.019390 -0.005352 0.000000 0.000000 0.000000
# 3 -0.001020 -0.005352 0.016262 0.000000 0.000000 0.000000
# 4 0.000000 0.000000 0.000000 0.044566 0.000000 0.000000
# 5 0.000000 0.000000 0.000000 0.000000 0.045196 0.000000
# 6 0.000000 0.000000 0.000000 0.000000 0.000000 0.035261
#
#
# Mechanical properties :
#
#
# Convention : Reuss Voigt Hill
#
# Bulk Modulus (GPa) = 50.60683 56.59172 53.59927
# Shear Modulus (GPa) = 24.62405 26.56458 25.59431
#
# Velocity S-wave (km/s) = 3.74156 3.88619 3.81456
# Velocity P-wave (km/s) = 6.88742 7.23257 7.06211
#
# Compressibility (1/GPa) = 0.01976018
#
# Stress axis : x y z
#
# Youngs Moduli (GPa) = 100.50363 51.57293 61.49347
#
# Poissons Ratio (x) = 0.33773 0.06271
# Poissons Ratio (y) = 0.65815 0.32914
# Poissons Ratio (z) = 0.10250 0.27604
#
# Static dielectric constant tensor:
#      x y z
#    x 1.656360 0.000000 0.000000 
#    y 0.000000 1.039600 0.000000 
#    z 0.000000 0.000000 1.631370 
# 
# From -- ./inp_files/31907.got.cif
#   From: 2010.05.17/outbox.cif.g08.bks.cpg/sg63_16_cif.got.tgz:31907.got - 2010.06.03 15:47:04.
