data_PCOD9470450
_publ_section_title
;
Structure prediction by ZEFSAII (Michael W. Deem and Ramdas Pophale) SiO2 
 PCOD9470450
Probable space group: C M C M
;
_chemical_formula_sum "Si O2"
_cell_formula_units_Z 112
_cell_length_a 15.577722
_cell_length_b 24.434058
_cell_length_c 15.423163
_cell_angle_alpha 90.000000
_cell_angle_beta 90.000000
_cell_angle_gamma 90.000000
_cell_volume 5870.471690
_symmetry_space_group_name_H-M "C M C M"
_symmetry_group_IT_number 63
_symmetry_cell_setting 'orthorhombic'
loop_
_space_group_symop_operation_xyz
x,y,z
-x,-y,1/2+z
x,-y,-z
-x,y,1/2-z
-x,-y,-z
x,y,1/2-z
-x,y,z
x,-y,1/2+z
1/2+x,1/2+y,z
1/2-x,1/2-y,1/2+z
1/2+x,1/2-y,-z
1/2-x,1/2+y,1/2-z
1/2-x,1/2-y,-z
1/2+x,1/2+y,1/2-z
1/2-x,1/2+y,z
1/2+x,1/2-y,1/2+z
loop_
_atom_site_type_symbol
_atom_site_label
_atom_site_fract_x
_atom_site_fract_y
_atom_site_fract_z
Si Si1 0.277888 0.655708 0.843674
Si Si2 0.904269 0.378277 0.522632
Si Si3 0.641477 0.064301 0.846958
Si Si4 0.596606 0.458885 0.581931
Si Si5 0.594273 0.661946 0.496845
Si Si6 0.167458 0.268652 0.444794
Si Si7 0.714478 0.055326 0.348824
O O1 0.318307 0.663803 0.750000
O O2 0.231634 0.597092 0.846644
O O3 0.203413 0.700583 0.860507
O O4 0.341277 0.660027 0.923255
O O5 0.903918 0.411356 0.431437
O O6 0.883072 0.315450 0.498001
O O7 0.828219 0.402631 0.582815
O O8 0.000000 0.383032 0.561421
O O9 0.604014 0.073798 0.750000
O O10 0.659584 0.000353 0.857295
O O11 0.604060 0.500000 0.500000
O O12 0.500000 0.469373 0.620500
O O13 0.596405 0.396232 0.549694
O O14 0.685963 0.461238 0.634403
O O15 0.500000 0.671067 0.532940
O O16 0.615709 0.712775 0.434311
O O17 0.250000 0.250000 0.500000
O O18 0.707084 0.075766 0.250000
#
# Coordination Sequence:
#
# PCOD9470450 Si02
#       7
#    16  16  16  16  16  16  16
#     4   9  17  31  52  77 103 131 169 219 271 323
#     4  11  22  36  56  81 112 149 188 232 280 330
#     4   9  19  35  56  81 108 142 184 229 279 330
#     4  10  20  36  59  84 109 141 184 232 284 339
#     4  10  19  32  52  76 103 135 170 212 265 327
#     4   9  18  35  55  73  99 137 179 220 267 323
#     4  11  22  36  55  79 113 154 192 230 274 331
#
# _framework density 19.078536
#
# number of rings (size 3 to 8) (size 9 to 14) (size 15 to 20)
#    0.000    2.143    0.000    5.143    0.000    2.286 
#    0.000    7.857    0.000   10.714    0.000    0.000 
#    0.000    0.000    0.000    0.000    0.000    0.000 
#
# Total GULP energy -311892.792047 kJ/mol
# GULP energy per Si atom -5569.514144 kJ/mol
# Density = 1.903511 g / cm^3
# Si number density = 19.078536 Si / 1000 Ang^3
#
#
#
# Elastic Constant Matrix: (Units=GPa)
#
#
# Indices 1 2 3 4 5 6 
#
# 1 80.3083 0.7722 9.3426 0.0000 0.0000 0.0000
# 2 0.7722 89.1672 3.1588 0.0000 0.0000 0.0000
# 3 9.3426 3.1588 44.9622 0.0000 0.0000 0.0000
# 4 0.0000 0.0000 0.0000 8.0287 0.0000 0.0000
# 5 0.0000 0.0000 0.0000 0.0000 27.3636 0.0000
# 6 0.0000 0.0000 0.0000 0.0000 0.0000 -0.4084
#
#
#
# Elastic Compliance Matrix: (Units=1/GPa)
#
#
# Indices 1 2 3 4 5 6 
#
# 1 0.012761 -0.000017 -0.002650 0.000000 0.000000 0.000000
# 2 -0.000017 0.011243 -0.000786 0.000000 0.000000 0.000000
# 3 -0.002650 -0.000786 0.022847 0.000000 0.000000 0.000000
# 4 0.000000 0.000000 0.000000 0.124552 0.000000 0.000000
# 5 0.000000 0.000000 0.000000 0.000000 0.036545 0.000000
# 6 0.000000 0.000000 0.000000 0.000000 0.000000 -2.448548
#
#
# Mechanical properties :
#
#
# Convention : Reuss Voigt Hill
#
# Bulk Modulus (GPa) = 25.03533 26.77610 25.90571
# Shear Modulus (GPa) = -2.25187 20.40772 9.07793
#
# Velocity S-wave (km/s) = -1.08760 3.27413 2.18369
# Velocity P-wave (km/s) = 3.40199 5.32526 4.46833
#
# Compressibility (1/GPa) = 0.03994356
#
# Stress axis : x y z
#
# Youngs Moduli (GPa) = 78.36681 88.94507 43.76965
#
# Poissons Ratio (x) = 0.00148 0.11600
# Poissons Ratio (y) = 0.00130 0.03442
# Poissons Ratio (z) = 0.20770 0.06995
#
# Static dielectric constant tensor:
#      x y z
#    x 1.744910 0.000000 0.000000 
#    y 0.000000 1.672940 0.000000 
#    z 0.000000 0.000000 1.661280 
# 
# From -- ./inp_files/32361.got.cif
#   From: 2010.05.17/outbox.cif.g08.bks.cpg/sg63_17_cif.got.tgz:32361.got - 2010.06.03 15:47:04.
