data_PCOD9470363
_publ_section_title
;
Structure prediction by ZEFSAII (Michael W. Deem and Ramdas Pophale) SiO2 
 PCOD9470363
Probable space group: C M C M
;
_chemical_formula_sum "Si O2"
_cell_formula_units_Z 80
_cell_length_a 7.981317
_cell_length_b 30.808004
_cell_length_c 13.709316
_cell_angle_alpha 90.000000
_cell_angle_beta 90.000000
_cell_angle_gamma 90.000000
_cell_volume 3370.962408
_symmetry_space_group_name_H-M "C M C M"
_symmetry_group_IT_number 63
_symmetry_cell_setting 'orthorhombic'
loop_
_space_group_symop_operation_xyz
x,y,z
-x,-y,1/2+z
x,-y,-z
-x,y,1/2-z
-x,-y,-z
x,y,1/2-z
-x,y,z
x,-y,1/2+z
1/2+x,1/2+y,z
1/2-x,1/2-y,1/2+z
1/2+x,1/2-y,-z
1/2-x,1/2+y,1/2-z
1/2-x,1/2-y,-z
1/2+x,1/2+y,1/2-z
1/2-x,1/2+y,z
1/2+x,1/2-y,1/2+z
loop_
_atom_site_type_symbol
_atom_site_label
_atom_site_fract_x
_atom_site_fract_y
_atom_site_fract_z
Si Si1 0.693149 0.414319 0.146952
Si Si2 0.299140 0.808352 0.569647
Si Si3 0.698388 0.216138 0.856275
Si Si4 0.689528 0.006263 0.384288
Si Si5 0.799929 0.098238 0.071488
O O1 0.770924 0.398857 0.250000
O O2 0.500000 0.399895 0.145452
O O3 0.697981 0.466781 0.150932
O O4 0.769247 0.403258 0.041115
O O5 0.500000 0.803587 0.569266
O O6 0.235321 0.805030 0.456606
O O7 0.224494 0.767549 0.626701
O O8 0.251084 0.855056 0.611192
O O9 0.770275 0.204141 0.750000
O O10 0.500000 0.207038 0.853994
O O11 0.500000 0.998608 0.352418
O O12 0.738525 0.056165 0.369861
O O13 0.694780 0.000000 0.500000
O O14 0.000000 0.094651 0.066068
#
# Coordination Sequence:
#
# PCOD9470363 Si02
#       5
#    16  16  16  16  16
#     4   9  18  32  49  71 100 133 169 208 251 301
#     4  10  20  34  54  81 109 136 171 216 262 308
#     4   9  19  37  58  78 104 139 174 209 257 317
#     4   9  17  30  48  69  94 126 163 202 244 289
#     4  10  19  32  51  73 100 135 170 205 249 302
#
# _framework density 23.732094
#
# number of rings (size 3 to 8) (size 9 to 14) (size 15 to 20)
#    0.000    2.600    0.000    1.800    0.000    5.600 
#    0.000    1.000    0.000    6.000    0.000    0.000 
#    0.000    0.000    0.000    0.000    0.000    0.000 
#
# Total GULP energy -223211.604533 kJ/mol
# GULP energy per Si atom -5580.290113 kJ/mol
# Density = 2.367808 g / cm^3
# Si number density = 23.732094 Si / 1000 Ang^3
#
#
#
# Elastic Constant Matrix: (Units=GPa)
#
#
# Indices 1 2 3 4 5 6 
#
# 1 39.8350 -18.5143 -0.6281 0.0000 0.0000 0.0000
# 2 -18.5143 130.7450 -13.1601 0.0000 0.0000 0.0000
# 3 -0.6281 -13.1601 90.5296 0.0000 0.0000 0.0000
# 4 0.0000 0.0000 0.0000 -82.2740 0.0000 0.0000
# 5 0.0000 0.0000 0.0000 0.0000 -11.6643 0.0000
# 6 0.0000 0.0000 0.0000 0.0000 0.0000 19.8492
#
#
#
# Elastic Compliance Matrix: (Units=1/GPa)
#
#
# Indices 1 2 3 4 5 6 
#
# 1 0.026923 0.003888 0.000752 0.000000 0.000000 0.000000
# 2 0.003888 0.008324 0.001237 0.000000 0.000000 0.000000
# 3 0.000752 0.001237 0.011231 0.000000 0.000000 0.000000
# 4 0.000000 0.000000 0.000000 -0.012155 0.000000 0.000000
# 5 0.000000 0.000000 0.000000 0.000000 -0.085731 0.000000
# 6 0.000000 0.000000 0.000000 0.000000 0.000000 0.050380
#
#
# Mechanical properties :
#
#
# Convention : Reuss Voigt Hill
#
# Bulk Modulus (GPa) = 17.17289 21.83382 19.50336
# Shear Modulus (GPa) = 754.44090 4.74299 379.59195
#
# Velocity S-wave (km/s) = 17.84907 1.41524 12.66081
# Velocity P-wave (km/s) = 20.78551 3.44828 14.89846
#
# Compressibility (1/GPa) = 0.05823133
#
# Stress axis : x y z
#
# Youngs Moduli (GPa) = 37.14363 120.14092 89.03812
#
# Poissons Ratio (x) = -0.46712 -0.06696
# Poissons Ratio (y) = -0.14442 -0.11014
# Poissons Ratio (z) = -0.02793 -0.14861
#
# Static dielectric constant tensor:
#      x y z
#    x 1.842530 0.000000 0.000000 
#    y 0.000000 1.885190 0.000000 
#    z 0.000000 0.000000 1.987530 
# 
# From -- ./inp_files/40713.got.cif
#   From: 2010.05.17/outbox.cif.g08.bks.cpg/sg63_21_cif.got.tgz:40713.got - 2010.06.03 15:47:04.
