data_PCOD9470608
_publ_section_title
;
Structure prediction by ZEFSAII (Michael W. Deem and Ramdas Pophale) SiO2 
 PCOD9470608
Probable space group: C M C M
;
_chemical_formula_sum "Si O2"
_cell_formula_units_Z 96
_cell_length_a 15.119863
_cell_length_b 14.857049
_cell_length_c 22.544727
_cell_angle_alpha 90.000000
_cell_angle_beta 90.000000
_cell_angle_gamma 90.000000
_cell_volume 5064.369592
_symmetry_space_group_name_H-M "C M C M"
_symmetry_group_IT_number 63
_symmetry_cell_setting 'orthorhombic'
loop_
_space_group_symop_operation_xyz
x,y,z
-x,-y,1/2+z
x,-y,-z
-x,y,1/2-z
-x,-y,-z
x,y,1/2-z
-x,y,z
x,-y,1/2+z
1/2+x,1/2+y,z
1/2-x,1/2-y,1/2+z
1/2+x,1/2-y,-z
1/2-x,1/2+y,1/2-z
1/2-x,1/2-y,-z
1/2+x,1/2+y,1/2-z
1/2-x,1/2+y,z
1/2+x,1/2-y,1/2+z
loop_
_atom_site_type_symbol
_atom_site_label
_atom_site_fract_x
_atom_site_fract_y
_atom_site_fract_z
Si Si1 0.733370 0.242258 0.179768
Si Si2 0.594756 0.778638 0.111281
Si Si3 0.320492 0.331310 0.512230
Si Si4 0.892923 0.884907 0.116146
Si Si5 0.404127 0.025522 0.567939
Si Si6 0.735536 0.448464 0.884487
O O1 0.725725 0.241830 0.250000
O O2 0.824673 0.285755 0.156440
O O3 0.653674 0.302501 0.152290
O O4 0.747374 0.140312 0.155168
O O5 0.500000 0.766063 0.141183
O O6 0.612002 0.702237 0.062643
O O7 0.592939 0.867784 0.072183
O O8 0.250000 0.250000 0.500000
O O9 0.366359 0.362185 0.452004
O O10 0.276152 0.412597 0.547974
O O11 0.000000 0.889370 0.123337
O O12 0.842429 0.980099 0.130741
O O13 0.500000 0.987723 0.585702
O O14 0.328337 0.998397 0.612713
O O15 0.389971 0.000000 0.500000
#
# Coordination Sequence:
#
# PCOD9470608 Si02
#       6
#    16  16  16  16  16  16
#     4  11  26  46  65  86 124 175 224 274 323 377
#     4  10  20  37  63  93 123 159 206 259 315 378
#     4  11  19  37  64  98 137 173 203 254 326 402
#     4  12  25  42  68 101 135 171 214 271 333 393
#     4  10  19  32  58  96 130 158 195 249 315 391
#     4  11  22  40  65  94 131 169 215 261 326 392
#
# _framework density 18.955962
#
# number of rings (size 3 to 8) (size 9 to 14) (size 15 to 20)
#    0.000    1.167    5.000    3.000    0.000    6.000 
#    0.000    0.000    0.000    0.000    0.000    0.000 
#    0.000    0.000    0.000    0.000    0.000    0.000 
#
# Total GULP energy -267384.561314 kJ/mol
# GULP energy per Si atom -5570.511694 kJ/mol
# Density = 1.891282 g / cm^3
# Si number density = 18.955962 Si / 1000 Ang^3
#
#
#
# Elastic Constant Matrix: (Units=GPa)
#
#
# Indices 1 2 3 4 5 6 
#
# 1 154.3955 52.9826 33.0343 0.0000 0.0000 0.0000
# 2 52.9826 102.0058 30.5060 0.0000 0.0000 0.0000
# 3 33.0343 30.5060 97.2669 0.0000 0.0000 0.0000
# 4 0.0000 0.0000 0.0000 10.6234 0.0000 0.0000
# 5 0.0000 0.0000 0.0000 0.0000 3.1083 0.0000
# 6 0.0000 0.0000 0.0000 0.0000 0.0000 -69.2384
#
#
#
# Elastic Compliance Matrix: (Units=1/GPa)
#
#
# Indices 1 2 3 4 5 6 
#
# 1 0.008096 -0.003733 -0.001579 0.000000 0.000000 0.000000
# 2 -0.003733 0.012539 -0.002665 0.000000 0.000000 0.000000
# 3 -0.001579 -0.002665 0.011653 0.000000 0.000000 0.000000
# 4 0.000000 0.000000 0.000000 0.094132 0.000000 0.000000
# 5 0.000000 0.000000 0.000000 0.000000 0.321722 0.000000
# 6 0.000000 0.000000 0.000000 0.000000 0.000000 -0.014443
#
#
# Mechanical properties :
#
#
# Convention : Reuss Voigt Hill
#
# Bulk Modulus (GPa) = 61.21890 65.19044 63.20467
# Shear Modulus (GPa) = 10.98668 4.70834 7.84751
#
# Velocity S-wave (km/s) = 2.41008 1.57773 2.03687
# Velocity P-wave (km/s) = 6.33325 6.14688 6.24076
#
# Compressibility (1/GPa) = 0.01633483
#
# Stress axis : x y z
#
# Youngs Moduli (GPa) = 123.52384 79.75007 85.81493
#
# Poissons Ratio (x) = 0.29769 0.13548
# Poissons Ratio (y) = 0.46109 0.22869
# Poissons Ratio (z) = 0.19501 0.21253
#
# Static dielectric constant tensor:
#      x y z
#    x 1.747220 0.000000 0.000000 
#    y 0.000000 1.684970 0.000000 
#    z 0.000000 0.000000 1.606590 
# 
# From -- ./inp_files/54223.got.cif
#   From: 2010.05.17/outbox.cif.g08.bks.cpg/sg63_28_cif.got.tgz:54223.got - 2010.06.03 15:47:04.
