data_PCOD9470105
_publ_section_title
;
Structure prediction by ZEFSAII (Michael W. Deem and Ramdas Pophale) SiO2 
 PCOD9470105
Probable space group: C M C M
;
_chemical_formula_sum "Si O2"
_cell_formula_units_Z 128
_cell_length_a 18.170426
_cell_length_b 22.451546
_cell_length_c 17.800752
_cell_angle_alpha 90.000000
_cell_angle_beta 90.000000
_cell_angle_gamma 90.000000
_cell_volume 7261.890744
_symmetry_space_group_name_H-M "C M C M"
_symmetry_group_IT_number 63
_symmetry_cell_setting 'orthorhombic'
loop_
_space_group_symop_operation_xyz
x,y,z
-x,-y,1/2+z
x,-y,-z
-x,y,1/2-z
-x,-y,-z
x,y,1/2-z
-x,y,z
x,-y,1/2+z
1/2+x,1/2+y,z
1/2-x,1/2-y,1/2+z
1/2+x,1/2-y,-z
1/2-x,1/2+y,1/2-z
1/2-x,1/2-y,-z
1/2+x,1/2+y,1/2-z
1/2-x,1/2+y,z
1/2+x,1/2-y,1/2+z
loop_
_atom_site_type_symbol
_atom_site_label
_atom_site_fract_x
_atom_site_fract_y
_atom_site_fract_z
Si Si1 0.702069 0.672425 0.556828
Si Si2 0.667252 0.106794 0.890301
Si Si3 0.412726 0.773818 0.163724
Si Si4 0.586153 0.107958 0.048667
Si Si5 0.296919 0.802543 0.594823
Si Si6 0.587042 0.342901 0.562180
Si Si7 0.298552 0.400345 0.664425
Si Si8 0.840629 0.523046 0.164074
O O1 0.746358 0.620335 0.597516
O O2 0.699907 0.732327 0.605729
O O3 0.753172 0.686134 0.483496
O O4 0.623414 0.659451 0.520013
O O5 0.632016 0.167004 0.856724
O O6 0.655421 0.047660 0.842865
O O7 0.627713 0.096184 0.970396
O O8 0.397182 0.755182 0.250000
O O9 0.500000 0.787106 0.158941
O O10 0.398257 0.720304 0.105196
O O11 0.500000 0.114885 0.036398
O O12 0.623967 0.167165 0.082965
O O13 0.604609 0.055170 0.106584
O O14 0.251528 0.840793 0.654787
O O15 0.500000 0.352448 0.561904
O O16 0.632777 0.391443 0.609616
O O17 0.322459 0.407183 0.750000
O O18 0.241254 0.452683 0.644013
O O19 0.854708 0.541695 0.250000
#
# Coordination Sequence:
#
# PCOD9470105 Si02
#       8
#    16  16  16  16  16  16  16  16
#     4   9  17  29  47  69  94 125 160 200 244 292
#     4  11  20  33  52  72 100 136 175 210 247 296
#     4  10  20  31  46  75 113 144 167 199 247 302
#     4  10  20  32  49  73  99 132 172 209 245 291
#     4   8  15  29  46  67  94 125 159 196 236 276
#     4  10  19  31  49  75 103 126 153 196 254 310
#     4   9  17  31  49  67  91 123 162 205 243 284
#     4  10  22  37  51  69  95 130 170 211 253 296
#
# _framework density 17.626263999999999
#
# number of rings (size 3 to 8) (size 9 to 14) (size 15 to 20)
#    0.000    2.375    0.000    5.250    0.000    4.000 
#    0.000    0.625    0.000    1.500    0.000    0.000 
#    0.000    3.500    0.000    0.000    0.000    0.000 
#
# Total GULP energy -356880.054089 kJ/mol
# GULP energy per Si atom -5576.250845 kJ/mol
# Density = 1.758615 g / cm^3
# Si number density = 17.626264 Si / 1000 Ang^3
#
#
#
# Elastic Constant Matrix: (Units=GPa)
#
#
# Indices 1 2 3 4 5 6 
#
# 1 88.8526 20.9505 17.7778 0.0000 0.0000 0.0000
# 2 20.9505 33.6616 7.1095 0.0000 0.0000 0.0000
# 3 17.7778 7.1095 30.5026 0.0000 0.0000 0.0000
# 4 0.0000 0.0000 0.0000 13.9222 0.0000 0.0000
# 5 0.0000 0.0000 0.0000 0.0000 18.0979 0.0000
# 6 0.0000 0.0000 0.0000 0.0000 0.0000 14.3894
#
#
#
# Elastic Compliance Matrix: (Units=1/GPa)
#
#
# Indices 1 2 3 4 5 6 
#
# 1 0.014354 -0.007538 -0.006609 0.000000 0.000000 0.000000
# 2 -0.007538 0.035204 -0.003812 0.000000 0.000000 0.000000
# 3 -0.006609 -0.003812 0.037525 0.000000 0.000000 0.000000
# 4 0.000000 0.000000 0.000000 0.071828 0.000000 0.000000
# 5 0.000000 0.000000 0.000000 0.000000 0.055255 0.000000
# 6 0.000000 0.000000 0.000000 0.000000 0.000000 0.069496
#
#
# Mechanical properties :
#
#
# Convention : Reuss Voigt Hill
#
# Bulk Modulus (GPa) = 19.54470 27.18805 23.36637
# Shear Modulus (GPa) = 14.85289 16.42716 15.64003
#
# Velocity S-wave (km/s) = 2.90600 3.05613 2.98201
# Velocity P-wave (km/s) = 4.72994 5.28313 5.01417
#
# Compressibility (1/GPa) = 0.05116476
#
# Stress axis : x y z
#
# Youngs Moduli (GPa) = 69.66524 28.40580 26.64919
#
# Poissons Ratio (x) = 0.21412 0.17613
# Poissons Ratio (y) = 0.52514 0.10158
# Poissons Ratio (z) = 0.46043 0.10828
#
# Static dielectric constant tensor:
#      x y z
#    x 1.609430 0.000000 0.000000 
#    y 0.000000 1.606670 0.000000 
#    z 0.000000 0.000000 1.613850 
# 
# From -- ./inp_files/56062.got.cif
#   From: 2010.05.17/outbox.cif.g08.bks.cpg/sg63_29_cif.got.tgz:56062.got - 2010.06.03 15:47:04.
