data_PCOD9470444
_publ_section_title
;
Structure prediction by ZEFSAII (Michael W. Deem and Ramdas Pophale) SiO2 
 PCOD9470444
Probable space group: C M C M
;
_chemical_formula_sum "Si O2"
_cell_formula_units_Z 96
_cell_length_a 7.545277
_cell_length_b 24.186171
_cell_length_c 26.473951
_cell_angle_alpha 90.000000
_cell_angle_beta 90.000000
_cell_angle_gamma 90.000000
_cell_volume 4831.267316
_symmetry_space_group_name_H-M "C M C M"
_symmetry_group_IT_number 63
_symmetry_cell_setting 'orthorhombic'
loop_
_space_group_symop_operation_xyz
x,y,z
-x,-y,1/2+z
x,-y,-z
-x,y,1/2-z
-x,-y,-z
x,y,1/2-z
-x,y,z
x,-y,1/2+z
1/2+x,1/2+y,z
1/2-x,1/2-y,1/2+z
1/2+x,1/2-y,-z
1/2-x,1/2+y,1/2-z
1/2-x,1/2-y,-z
1/2+x,1/2+y,1/2-z
1/2-x,1/2+y,z
1/2+x,1/2-y,1/2+z
loop_
_atom_site_type_symbol
_atom_site_label
_atom_site_fract_x
_atom_site_fract_y
_atom_site_fract_z
Si Si1 0.787329 0.371019 0.152974
Si Si2 0.292702 0.430298 0.750000
Si Si3 0.787377 0.249607 0.807690
Si Si4 0.793208 0.364152 0.650016
Si Si5 0.283854 0.935427 0.055756
Si Si6 0.714535 0.939994 0.250000
Si Si7 0.216685 0.437408 0.558368
O O1 0.748155 0.307255 0.163633
O O2 0.721556 0.394904 0.099789
O O3 0.721977 0.407865 0.200083
O O4 0.000000 0.376892 0.152478
O O5 0.500000 0.418134 0.750000
O O6 0.215910 0.402452 0.800327
O O7 0.264704 0.495930 0.750000
O O8 0.719733 0.246094 0.750000
O O9 0.716932 0.304402 0.835296
O O10 0.000000 0.255791 0.804253
O O11 0.717534 0.397021 0.602188
O O12 0.000000 0.355050 0.637960
O O13 0.500000 0.934644 0.055472
O O14 0.231151 0.998769 0.067242
O O15 0.228517 0.921858 0.998540
O O16 0.500000 0.937784 0.250000
O O17 0.000000 0.437288 0.559416
#
# Coordination Sequence:
#
# PCOD9470444 Si02
#       7
#    16   8  16  16  16   8  16
#     4  10  19  32  52  76 102 131 170 212 251 297
#     4  12  24  33  48  77 107 130 156 206 265 306
#     4  10  20  34  50  69  97 135 175 211 250 298
#     4  10  19  35  55  73  97 135 177 209 243 300
#     4   8  14  26  47  79 105 124 158 210 260 293
#     4  10  20  33  50  73  99 132 168 202 245 306
#     4   8  14  27  51  76 100 128 163 207 251 298
#
# _framework density 19.870562
#
# number of rings (size 3 to 8) (size 9 to 14) (size 15 to 20)
#    0.000    2.500    1.667    2.750    0.000    4.000 
#    0.000    0.833    0.000    1.000    0.000    3.500 
#    0.000    0.000    0.000    0.000    0.000    0.000 
#
# Total GULP energy -267937.993223 kJ/mol
# GULP energy per Si atom -5582.041525 kJ/mol
# Density = 1.982534 g / cm^3
# Si number density = 19.870562 Si / 1000 Ang^3
#
#
#
# Elastic Constant Matrix: (Units=GPa)
#
#
# Indices 1 2 3 4 5 6 
#
# 1 46.6949 -7.6571 0.1178 0.0000 0.0000 0.0000
# 2 -7.6571 184.6445 129.0097 0.0000 0.0000 0.0000
# 3 0.1178 129.0097 194.0686 0.0000 0.0000 0.0000
# 4 0.0000 0.0000 0.0000 18.1370 0.0000 0.0000
# 5 0.0000 0.0000 0.0000 0.0000 -1.5338 0.0000
# 6 0.0000 0.0000 0.0000 0.0000 0.0000 7.6521
#
#
#
# Elastic Compliance Matrix: (Units=1/GPa)
#
#
# Indices 1 2 3 4 5 6 
#
# 1 0.021697 0.001697 -0.001141 0.000000 0.000000 0.000000
# 2 0.001697 0.010246 -0.006812 0.000000 0.000000 0.000000
# 3 -0.001141 -0.006812 0.009682 0.000000 0.000000 0.000000
# 4 0.000000 0.000000 0.000000 0.055136 0.000000 0.000000
# 5 0.000000 0.000000 0.000000 0.000000 -0.651957 0.000000
# 6 0.000000 0.000000 0.000000 0.000000 0.000000 0.130683
#
#
# Mechanical properties :
#
#
# Convention : Reuss Voigt Hill
#
# Bulk Modulus (GPa) = 34.35005 74.26098 54.30552
# Shear Modulus (GPa) = -12.42861 25.11356 6.34248
#
# Velocity S-wave (km/s) = -2.50367 3.55893 1.78853
# Velocity P-wave (km/s) = 2.99443 7.37167 5.62619
#
# Compressibility (1/GPa) = 0.02911204
#
# Stress axis : x y z
#
# Youngs Moduli (GPa) = 46.08970 97.60217 103.28590
#
# Poissons Ratio (x) = -0.16566 0.11790
# Poissons Ratio (y) = -0.07823 0.70358
# Poissons Ratio (z) = 0.05261 0.66486
#
# Static dielectric constant tensor:
#      x y z
#    x 1.771020 0.000000 0.000000 
#    y 0.000000 1.668340 0.000000 
#    z 0.000000 0.000000 1.692050 
# 
# From -- ./inp_files/67296.got.cif
#   From: 2010.05.17/outbox.cif.g08.bks.cpg/sg63_34_cif.got.tgz:67296.got - 2010.06.03 15:47:04.
