data_PCOD9470270
_publ_section_title
;
Structure prediction by ZEFSAII (Michael W. Deem and Ramdas Pophale) SiO2 
 PCOD9470270
Probable space group: C M C M
;
_chemical_formula_sum "Si O2"
_cell_formula_units_Z 96
_cell_length_a 25.962360
_cell_length_b 10.447156
_cell_length_c 22.168918
_cell_angle_alpha 90.000000
_cell_angle_beta 90.000000
_cell_angle_gamma 90.000000
_cell_volume 6012.938257
_symmetry_space_group_name_H-M "C M C M"
_symmetry_group_IT_number 63
_symmetry_cell_setting 'orthorhombic'
loop_
_space_group_symop_operation_xyz
x,y,z
-x,-y,1/2+z
x,-y,-z
-x,y,1/2-z
-x,-y,-z
x,y,1/2-z
-x,y,z
x,-y,1/2+z
1/2+x,1/2+y,z
1/2-x,1/2-y,1/2+z
1/2+x,1/2-y,-z
1/2-x,1/2+y,1/2-z
1/2-x,1/2-y,-z
1/2+x,1/2+y,1/2-z
1/2-x,1/2+y,z
1/2+x,1/2-y,1/2+z
loop_
_atom_site_type_symbol
_atom_site_label
_atom_site_fract_x
_atom_site_fract_y
_atom_site_fract_z
Si Si1 0.439715 0.374822 0.042292
Si Si2 0.218103 0.749215 0.061638
Si Si3 0.649446 0.453995 0.378658
Si Si4 0.702529 0.235422 0.750000
Si Si5 0.323428 0.257252 0.619765
Si Si6 0.799241 0.957590 0.250000
Si Si7 0.626169 0.858856 0.496591
O O1 0.500000 0.357420 0.053965
O O2 0.405631 0.399475 0.101893
O O3 0.433112 0.500000 0.000000
O O4 0.414664 0.252404 0.009567
O O5 0.190982 0.882890 0.078366
O O6 0.261738 0.721852 0.110788
O O7 0.250000 0.750000 0.000000
O O8 0.171039 0.654124 0.047768
O O9 0.651077 0.604934 0.389480
O O10 0.667625 0.432861 0.310270
O O11 0.670927 0.212493 0.811597
O O12 0.750848 0.138716 0.750000
O O13 0.715261 0.389614 0.750000
O O14 0.346204 0.167353 0.567732
O O15 0.603816 0.000000 0.500000
#
# Coordination Sequence:
#
# PCOD9470270 Si02
#       7
#    16  16  16   8  16   8  16
#     4  10  20  38  59  75  98 136 177 225 282 318
#     4   9  19  26  45  69 105 140 168 203 249 304
#     4  10  19  34  51  75 104 139 183 219 254 314
#     4  10  20  32  50  74 103 157 177 205 246 308
#     4  10  19  32  48  72 111 142 178 208 250 310
#     4  10  20  34  51  74 111 145 180 211 256 302
#     4  10  21  32  50  80 106 133 173 215 269 315
#
# _framework density 15.965572
#
# number of rings (size 3 to 8) (size 9 to 14) (size 15 to 20)
#    0.000    2.167    3.333    0.000    4.667    0.333 
#    0.000    0.417    0.000    0.000    0.000    0.583 
#    0.000    0.000    0.000    0.000    0.000    0.000 
#
# Total GULP energy -267321.448558 kJ/mol
# GULP energy per Si atom -5569.196845 kJ/mol
# Density = 1.592923 g / cm^3
# Si number density = 15.965572 Si / 1000 Ang^3
#
#
#
# Elastic Constant Matrix: (Units=GPa)
#
#
# Indices 1 2 3 4 5 6 
#
# 1 88.0410 40.5182 27.0443 0.0000 0.0000 0.0000
# 2 40.5182 95.1695 37.0916 0.0000 0.0000 0.0000
# 3 27.0443 37.0916 87.7318 0.0000 0.0000 0.0000
# 4 0.0000 0.0000 0.0000 21.6763 0.0000 0.0000
# 5 0.0000 0.0000 0.0000 0.0000 15.2452 0.0000
# 6 0.0000 0.0000 0.0000 0.0000 0.0000 14.5907
#
#
#
# Elastic Compliance Matrix: (Units=1/GPa)
#
#
# Indices 1 2 3 4 5 6 
#
# 1 0.014480 -0.005298 -0.002224 0.000000 0.000000 0.000000
# 2 -0.005298 0.014519 -0.004505 0.000000 0.000000 0.000000
# 3 -0.002224 -0.004505 0.013989 0.000000 0.000000 0.000000
# 4 0.000000 0.000000 0.000000 0.046133 0.000000 0.000000
# 5 0.000000 0.000000 0.000000 0.000000 0.065594 0.000000
# 6 0.000000 0.000000 0.000000 0.000000 0.000000 0.068537
#
#
# Mechanical properties :
#
#
# Convention : Reuss Voigt Hill
#
# Bulk Modulus (GPa) = 52.81632 53.36114 53.08873
# Shear Modulus (GPa) = 19.71479 21.38832 20.55156
#
# Velocity S-wave (km/s) = 3.51783 3.66410 3.59171
# Velocity P-wave (km/s) = 7.04651 7.16910 7.10807
#
# Compressibility (1/GPa) = 0.01893354
#
# Stress axis : x y z
#
# Youngs Moduli (GPa) = 69.06246 68.87488 71.48699
#
# Poissons Ratio (x) = 0.36490 0.15896
# Poissons Ratio (y) = 0.36590 0.32207
# Poissons Ratio (z) = 0.15357 0.31030
#
# Static dielectric constant tensor:
#      x y z
#    x 1.522790 0.000000 0.000000 
#    y 0.000000 1.544650 0.000000 
#    z 0.000000 0.000000 1.541980 
# 
# From -- ./inp_files/65381.got.cif
#   From: 2010.05.17/outbox.cif.g08.bks.cpg/sg63_33_cif.got.tgz:65381.got - 2010.06.03 15:47:04.
