data_PCOD9470248
_publ_section_title
;
Structure prediction by ZEFSAII (Michael W. Deem and Ramdas Pophale) SiO2 
 PCOD9470248
Probable space group: C M C M
;
_chemical_formula_sum "Si O2"
_cell_formula_units_Z 96
_cell_length_a 15.068317
_cell_length_b 15.206899
_cell_length_c 20.629032
_cell_angle_alpha 90.000000
_cell_angle_beta 90.000000
_cell_angle_gamma 90.000000
_cell_volume 4726.985381
_symmetry_space_group_name_H-M "C M C M"
_symmetry_group_IT_number 63
_symmetry_cell_setting 'orthorhombic'
loop_
_space_group_symop_operation_xyz
x,y,z
-x,-y,1/2+z
x,-y,-z
-x,y,1/2-z
-x,-y,-z
x,y,1/2-z
-x,y,z
x,-y,1/2+z
1/2+x,1/2+y,z
1/2-x,1/2-y,1/2+z
1/2+x,1/2-y,-z
1/2-x,1/2+y,1/2-z
1/2-x,1/2-y,-z
1/2+x,1/2+y,1/2-z
1/2-x,1/2+y,z
1/2+x,1/2-y,1/2+z
loop_
_atom_site_type_symbol
_atom_site_label
_atom_site_fract_x
_atom_site_fract_y
_atom_site_fract_z
Si Si1 0.368158 0.216690 0.555709
Si Si2 0.900284 0.045592 0.938036
Si Si3 0.096221 0.875266 0.852133
Si Si4 0.697529 0.887483 0.676255
Si Si5 0.339055 0.736952 0.915875
Si Si6 0.103096 0.515875 0.924159
O O1 0.406990 0.299263 0.593612
O O2 0.387384 0.222242 0.478987
O O3 0.264053 0.232178 0.565945
O O4 0.392023 0.121485 0.583689
O O5 0.864130 0.135568 0.910061
O O6 0.000000 0.068610 0.960251
O O7 0.903346 0.970525 0.885031
O O8 0.853062 0.000000 0.000000
O O9 0.195434 0.871095 0.822465
O O10 0.000000 0.867519 0.817796
O O11 0.669311 0.906222 0.750000
O O12 0.653317 0.799520 0.646013
O O13 0.667232 0.963659 0.625418
O O14 0.000000 0.488178 0.914718
O O15 0.126836 0.500000 0.000000
#
# Coordination Sequence:
#
# PCOD9470248 Si02
#       6
#    16  16  16  16  16  16
#     4  10  19  34  60  92 126 161 204 269 325 370
#     4  10  19  31  55  92 128 157 196 257 321 378
#     4  10  21  38  62  94 129 165 210 262 318 383
#     4  11  25  44  64  90 131 177 218 268 331 397
#     4  10  20  34  58  92 128 164 210 261 319 390
#     4  11  23  39  64  95 127 168 220 273 324 384
#
# _framework density 20.308927000000001
#
# number of rings (size 3 to 8) (size 9 to 14) (size 15 to 20)
#    0.000    1.667    3.333    1.500    0.000    3.333 
#    0.000    7.500    0.000    5.000    0.000    0.000 
#    0.000    0.000    0.000    0.000    0.000    0.000 
#
# Total GULP energy -267500.039887 kJ/mol
# GULP energy per Si atom -5572.917498 kJ/mol
# Density = 2.026270 g / cm^3
# Si number density = 20.308927 Si / 1000 Ang^3
#
#
#
# Elastic Constant Matrix: (Units=GPa)
#
#
# Indices 1 2 3 4 5 6 
#
# 1 90.3707 30.5473 40.6637 0.0000 0.0000 0.0000
# 2 30.5473 157.0806 54.9440 0.0000 0.0000 0.0000
# 3 40.6637 54.9440 129.7332 0.0000 0.0000 0.0000
# 4 0.0000 0.0000 0.0000 10.2395 0.0000 0.0000
# 5 0.0000 0.0000 0.0000 0.0000 -10.5535 0.0000
# 6 0.0000 0.0000 0.0000 0.0000 0.0000 9.7537
#
#
#
# Elastic Compliance Matrix: (Units=1/GPa)
#
#
# Indices 1 2 3 4 5 6 
#
# 1 0.013106 -0.001305 -0.003555 0.000000 0.000000 0.000000
# 2 -0.001305 0.007603 -0.002811 0.000000 0.000000 0.000000
# 3 -0.003555 -0.002811 0.010013 0.000000 0.000000 0.000000
# 4 0.000000 0.000000 0.000000 0.097661 0.000000 0.000000
# 5 0.000000 0.000000 0.000000 0.000000 -0.094755 0.000000
# 6 0.000000 0.000000 0.000000 0.000000 0.000000 0.102525
#
#
# Mechanical properties :
#
#
# Convention : Reuss Voigt Hill
#
# Bulk Modulus (GPa) = 65.02087 69.94383 67.48235
# Shear Modulus (GPa) = 31.92382 18.62325 25.27353
#
# Velocity S-wave (km/s) = 3.96903 3.03148 3.53151
# Velocity P-wave (km/s) = 7.28627 6.83871 7.06603
#
# Compressibility (1/GPa) = 0.01537968
#
# Stress axis : x y z
#
# Youngs Moduli (GPa) = 76.29803 131.52337 99.87019
#
# Poissons Ratio (x) = 0.17167 0.35507
# Poissons Ratio (y) = 0.09959 0.28073
# Poissons Ratio (z) = 0.27126 0.36971
#
# Static dielectric constant tensor:
#      x y z
#    x 1.801460 0.000000 0.000000 
#    y 0.000000 1.712120 0.000000 
#    z 0.000000 0.000000 1.696170 
# 
# From -- ./inp_files/54230.got.cif
#   From: 2010.05.17/outbox.cif.g08.bks.cpg/sg63_28_cif.got.tgz:54230.got - 2010.06.03 15:47:04.
