data_PCOD9470241
_publ_section_title
;
Structure prediction by ZEFSAII (Michael W. Deem and Ramdas Pophale) SiO2 
 PCOD9470241
Probable space group: C M C M
;
_chemical_formula_sum "Si O2"
_cell_formula_units_Z 104
_cell_length_a 32.836055
_cell_length_b 20.422737
_cell_length_c 8.308595
_cell_angle_alpha 90.000000
_cell_angle_beta 90.000000
_cell_angle_gamma 90.000000
_cell_volume 5571.761383
_symmetry_space_group_name_H-M "C M C M"
_symmetry_group_IT_number 63
_symmetry_cell_setting 'orthorhombic'
loop_
_space_group_symop_operation_xyz
x,y,z
-x,-y,1/2+z
x,-y,-z
-x,y,1/2-z
-x,-y,-z
x,y,1/2-z
-x,y,z
x,-y,1/2+z
1/2+x,1/2+y,z
1/2-x,1/2-y,1/2+z
1/2+x,1/2-y,-z
1/2-x,1/2+y,1/2-z
1/2-x,1/2-y,-z
1/2+x,1/2+y,1/2-z
1/2-x,1/2+y,z
1/2+x,1/2-y,1/2+z
loop_
_atom_site_type_symbol
_atom_site_label
_atom_site_fract_x
_atom_site_fract_y
_atom_site_fract_z
Si Si1 0.500000 0.424681 0.441117
Si Si2 0.772874 0.844533 0.944731
Si Si3 0.153904 0.072434 0.056234
Si Si4 0.402704 0.196551 0.943709
Si Si5 0.689106 0.792820 0.942776
Si Si6 0.047075 0.571216 0.555621
Si Si7 0.577517 0.341466 0.944864
O O1 0.500000 0.500000 0.500000
O O2 0.500000 0.426339 0.250000
O O3 0.460496 0.384573 0.499564
O O4 0.773026 0.843224 0.750000
O O5 0.801560 0.903742 0.999388
O O6 0.725789 0.841226 0.996200
O O7 0.795087 0.778542 0.003416
O O8 0.153740 0.073378 0.250000
O O9 0.119210 0.123113 0.001971
O O10 0.144136 0.000000 0.000000
O O11 0.406040 0.197072 0.750000
O O12 0.426601 0.132645 0.003352
O O13 0.421335 0.265990 0.000960
O O14 0.355155 0.193881 0.986799
O O15 0.686370 0.794529 0.750000
O O16 0.062046 0.500000 0.500000
O O17 0.047411 0.571909 0.750000
O O18 0.000000 0.577989 0.502529
O O19 0.577069 0.340750 0.750000
#
# Coordination Sequence:
#
# PCOD9470241 Si02
#       7
#     8  16  16  16  16  16  16
#     4  12  26  42  58  80 113 150 189 234 283 334
#     4   9  18  35  53  74 106 145 183 220 271 328
#     4  10  20  35  55  78 107 144 186 230 273 320
#     4  10  20  36  59  84 113 148 184 223 274 336
#     4  10  19  31  54  82 109 139 177 228 274 319
#     4   9  19  36  59  84 109 143 182 221 270 331
#     4  10  21  38  60  82 108 147 189 231 277 330
#
# _framework density 18.665552000000002
#
# number of rings (size 3 to 8) (size 9 to 14) (size 15 to 20)
#    0.000    2.154    1.538    1.615    1.077    4.308 
#    0.000    0.769    0.000    3.692    0.000    0.000 
#    0.000    0.000    0.000    0.000    0.000    0.000 
#
# Total GULP energy -290099.990968 kJ/mol
# GULP energy per Si atom -5578.845980 kJ/mol
# Density = 1.862307 g / cm^3
# Si number density = 18.665552 Si / 1000 Ang^3
#
#
#
# Elastic Constant Matrix: (Units=GPa)
#
#
# Indices 1 2 3 4 5 6 
#
# 1 115.2211 86.0287 11.1150 0.0000 0.0000 0.0000
# 2 86.0287 160.9922 17.3251 0.0000 0.0000 0.0000
# 3 11.1150 17.3251 4.4796 0.0000 0.0000 0.0000
# 4 0.0000 0.0000 0.0000 24.8192 0.0000 0.0000
# 5 0.0000 0.0000 0.0000 0.0000 23.9544 0.0000
# 6 0.0000 0.0000 0.0000 0.0000 0.0000 26.5549
#
#
#
# Elastic Compliance Matrix: (Units=1/GPa)
#
#
# Indices 1 2 3 4 5 6 
#
# 1 0.014721 -0.006741 -0.010453 0.000000 0.000000 0.000000
# 2 -0.006741 0.013727 -0.036363 0.000000 0.000000 0.000000
# 3 -0.010453 -0.036363 0.389803 0.000000 0.000000 0.000000
# 4 0.000000 0.000000 0.000000 0.040291 0.000000 0.000000
# 5 0.000000 0.000000 0.000000 0.000000 0.041746 0.000000
# 6 0.000000 0.000000 0.000000 0.000000 0.000000 0.037658
#
#
# Mechanical properties :
#
#
# Convention : Reuss Voigt Hill
#
# Bulk Modulus (GPa) = 3.21403 56.62561 29.91982
# Shear Modulus (GPa) = 6.67760 26.14730 16.41245
#
# Velocity S-wave (km/s) = 1.89348 3.74683 2.96850
# Velocity P-wave (km/s) = 2.55069 7.00865 5.27386
#
# Compressibility (1/GPa) = 0.31113622
#
# Stress axis : x y z
#
# Youngs Moduli (GPa) = 67.93159 72.84946 2.56540
#
# Poissons Ratio (x) = 0.49110 0.02682
# Poissons Ratio (y) = 0.45795 0.09328
# Poissons Ratio (z) = 0.71010 2.64899
#
# Static dielectric constant tensor:
#      x y z
#    x 1.652770 0.000000 0.000000 
#    y 0.000000 1.640530 0.000000 
#    z 0.000000 0.000000 1.649090 
# 
# From -- ./inp_files/14484.got.cif
#   From: 2010.05.17/outbox.cif.g08.bks.cpg/sg63_8_cif.got.tgz:14484.got - 2010.06.03 15:47:04.
