data_PCOD9470362
_publ_section_title
;
Structure prediction by ZEFSAII (Michael W. Deem and Ramdas Pophale) SiO2 
 PCOD9470362
Probable space group: C M C M
;
_chemical_formula_sum "Si O2"
_cell_formula_units_Z 128
_cell_length_a 23.792393
_cell_length_b 11.930659
_cell_length_c 26.364889
_cell_angle_alpha 90.000000
_cell_angle_beta 90.000000
_cell_angle_gamma 90.000000
_cell_volume 7483.909120
_symmetry_space_group_name_H-M "C M C M"
_symmetry_group_IT_number 63
_symmetry_cell_setting 'orthorhombic'
loop_
_space_group_symop_operation_xyz
x,y,z
-x,-y,1/2+z
x,-y,-z
-x,y,1/2-z
-x,-y,-z
x,y,1/2-z
-x,y,z
x,-y,1/2+z
1/2+x,1/2+y,z
1/2-x,1/2-y,1/2+z
1/2+x,1/2-y,-z
1/2-x,1/2+y,1/2-z
1/2-x,1/2-y,-z
1/2+x,1/2+y,1/2-z
1/2-x,1/2+y,z
1/2+x,1/2-y,1/2+z
loop_
_atom_site_type_symbol
_atom_site_label
_atom_site_fract_x
_atom_site_fract_y
_atom_site_fract_z
Si Si1 0.127360 0.939734 0.449505
Si Si2 0.133953 0.236828 0.191673
Si Si3 0.741968 0.865277 0.690707
Si Si4 0.434347 0.766781 0.502134
Si Si5 0.185484 0.565938 0.633783
Si Si6 0.833588 0.416228 0.957189
Si Si7 0.780832 0.781803 0.401466
Si Si8 0.565905 0.646006 0.100644
O O1 0.081701 0.849365 0.469374
O O2 0.173355 0.872584 0.417761
O O3 0.151455 0.000000 0.500000
O O4 0.098978 0.036023 0.416712
O O5 0.117061 0.237483 0.250000
O O6 0.192009 0.165344 0.187194
O O7 0.148542 0.361281 0.171843
O O8 0.088425 0.186458 0.154175
O O9 0.726100 0.859849 0.750000
O O10 0.711990 0.773468 0.654355
O O11 0.726586 0.985092 0.666292
O O12 0.500000 0.794608 0.509682
O O13 0.389907 0.857178 0.522228
O O14 0.424268 0.740051 0.442793
O O15 0.154350 0.487128 0.593616
O O16 0.221567 0.655503 0.601268
O O17 0.788932 0.320687 0.940777
O O18 0.811639 0.500000 0.000000
O O19 0.500000 0.622612 0.100932
#
# Coordination Sequence:
#
# PCOD9470362 Si02
#       8
#    16  16  16  16  16  16  16  16
#     4   9  17  31  51  75 100 126 157 192 238 292
#     4  10  20  33  50  71  96 126 159 198 239 281
#     4   9  18  33  53  74  95 123 160 201 244 288
#     4   9  18  33  52  73  96 123 159 202 242 281
#     4  10  19  33  50  70  98 128 161 196 236 286
#     4  10  20  32  47  70  99 129 162 196 234 284
#     4   9  19  32  48  72 101 128 159 197 237 286
#     4  10  19  32  51  72  96 126 159 198 241 284
#
# _framework density 17.103361
#
# number of rings (size 3 to 8) (size 9 to 14) (size 15 to 20)
#    0.000    2.500    0.000    2.250    0.000    3.500 
#    0.000    3.750    0.000    0.000    0.000    0.000 
#    0.000   24.500    0.000    0.500    0.000    0.750 
#
# Total GULP energy -356899.628526 kJ/mol
# GULP energy per Si atom -5576.556696 kJ/mol
# Density = 1.706443 g / cm^3
# Si number density = 17.103361 Si / 1000 Ang^3
#
#
#
# Elastic Constant Matrix: (Units=GPa)
#
#
# Indices 1 2 3 4 5 6 
#
# 1 27.7583 14.5275 26.1960 0.0000 0.0000 0.0000
# 2 14.5275 76.1717 30.3623 0.0000 0.0000 0.0000
# 3 26.1960 30.3623 89.0559 0.0000 0.0000 0.0000
# 4 0.0000 0.0000 0.0000 20.3518 0.0000 0.0000
# 5 0.0000 0.0000 0.0000 0.0000 23.5966 0.0000
# 6 0.0000 0.0000 0.0000 0.0000 0.0000 3.6780
#
#
#
# Elastic Compliance Matrix: (Units=1/GPa)
#
#
# Indices 1 2 3 4 5 6 
#
# 1 0.051081 -0.004343 -0.013545 0.000000 0.000000 0.000000
# 2 -0.004343 0.015562 -0.004028 0.000000 0.000000 0.000000
# 3 -0.013545 -0.004028 0.016586 0.000000 0.000000 0.000000
# 4 0.000000 0.000000 0.000000 0.049136 0.000000 0.000000
# 5 0.000000 0.000000 0.000000 0.000000 0.042379 0.000000
# 6 0.000000 0.000000 0.000000 0.000000 0.000000 0.271889
#
#
# Mechanical properties :
#
#
# Convention : Reuss Voigt Hill
#
# Bulk Modulus (GPa) = 25.38248 37.23971 31.31109
# Shear Modulus (GPa) = 9.92857 17.65196 13.79027
#
# Velocity S-wave (km/s) = 2.41198 3.21608 2.84260
# Velocity P-wave (km/s) = 4.75707 5.96754 5.39635
#
# Compressibility (1/GPa) = 0.03939725
#
# Stress axis : x y z
#
# Youngs Moduli (GPa) = 19.57684 64.25829 60.29011
#
# Poissons Ratio (x) = 0.27908 0.81662
# Poissons Ratio (y) = 0.08503 0.24286
# Poissons Ratio (z) = 0.26516 0.25884
#
# Static dielectric constant tensor:
#      x y z
#    x 1.553880 0.000000 0.000000 
#    y 0.000000 1.597720 0.000000 
#    z 0.000000 0.000000 1.580520 
# 
# From -- ./inp_files/65176.got.cif
#   From: 2010.05.17/outbox.cif.g08.bks.cpg/sg63_33_cif.got.tgz:65176.got - 2010.06.03 15:47:04.
