data_PCOD9470798
_publ_section_title
;
Structure prediction by ZEFSAII (Michael W. Deem and Ramdas Pophale) SiO2 
 PCOD9470798
Probable space group: C M C M
;
_chemical_formula_sum "Si O2"
_cell_formula_units_Z 80
_cell_length_a 26.833996
_cell_length_b 17.262104
_cell_length_c 8.059387
_cell_angle_alpha 90.000000
_cell_angle_beta 90.000000
_cell_angle_gamma 90.000000
_cell_volume 3733.198563
_symmetry_space_group_name_H-M "C M C M"
_symmetry_group_IT_number 63
_symmetry_cell_setting 'orthorhombic'
loop_
_space_group_symop_operation_xyz
x,y,z
-x,-y,1/2+z
x,-y,-z
-x,y,1/2-z
-x,-y,-z
x,y,1/2-z
-x,y,z
x,-y,1/2+z
1/2+x,1/2+y,z
1/2-x,1/2-y,1/2+z
1/2+x,1/2-y,-z
1/2-x,1/2+y,1/2-z
1/2-x,1/2-y,-z
1/2+x,1/2+y,1/2-z
1/2-x,1/2+y,z
1/2+x,1/2-y,1/2+z
loop_
_atom_site_type_symbol
_atom_site_label
_atom_site_fract_x
_atom_site_fract_y
_atom_site_fract_z
Si Si1 0.946973 0.193934 0.052042
Si Si2 0.837735 0.615577 0.057318
Si Si3 0.946247 0.625169 0.451343
Si Si4 0.159533 0.210767 0.444406
Si Si5 0.230768 0.916526 0.439494
O O1 0.948577 0.182388 0.250000
O O2 0.891807 0.168714 0.997557
O O3 0.000000 0.163585 0.982892
O O4 0.946608 0.285941 0.013322
O O5 0.832723 0.593216 0.250000
O O6 0.892860 0.592152 0.993571
O O7 0.835055 0.709209 0.042592
O O8 0.790337 0.585368 0.959458
O O9 0.944993 0.625857 0.250000
O O10 0.000000 0.591394 0.504310
O O11 0.154041 0.231838 0.250000
O O12 0.205695 0.153607 0.462337
O O13 0.217177 0.904759 0.250000
O O14 0.212822 0.000000 0.500000
#
# Coordination Sequence:
#
# PCOD9470798 Si02
#       5
#    16  16  16  16  16
#     4   8  14  25  44  72 104 134 163 199 243 290
#     4  10  19  33  54  80 108 137 171 209 250 297
#     4   8  14  25  44  72 104 134 163 199 243 290
#     4  10  19  33  54  80 108 137 171 209 250 297
#     4  12  25  40  55  72  98 132 172 216 263 310
#
# _framework density 21.429342999999999
#
# number of rings (size 3 to 8) (size 9 to 14) (size 15 to 20)
#    0.000    2.400    0.000    3.600    0.000    1.600 
#    0.000    0.000    0.000    1.200    0.000    0.000 
#    0.000    0.000    0.000    0.000    0.000    0.000 
#
# Total GULP energy -223000.633598 kJ/mol
# GULP energy per Si atom -5575.015840 kJ/mol
# Density = 2.138057 g / cm^3
# Si number density = 21.429343 Si / 1000 Ang^3
#
#
#
# Elastic Constant Matrix: (Units=GPa)
#
#
# Indices 1 2 3 4 5 6 
#
# 1 118.0349 19.7231 -4.2065 0.0000 0.0000 0.0000
# 2 19.7231 45.1940 -8.0029 0.0000 0.0000 0.0000
# 3 -4.2065 -8.0029 38.2942 0.0000 0.0000 0.0000
# 4 0.0000 0.0000 0.0000 13.7205 0.0000 0.0000
# 5 0.0000 0.0000 0.0000 0.0000 9.8400 0.0000
# 6 0.0000 0.0000 0.0000 0.0000 0.0000 -19.6964
#
#
#
# Elastic Compliance Matrix: (Units=1/GPa)
#
#
# Indices 1 2 3 4 5 6 
#
# 1 0.009140 -0.003957 0.000177 0.000000 0.000000 0.000000
# 2 -0.003957 0.024691 0.004725 0.000000 0.000000 0.000000
# 3 0.000177 0.004725 0.027121 0.000000 0.000000 0.000000
# 4 0.000000 0.000000 0.000000 0.072884 0.000000 0.000000
# 5 0.000000 0.000000 0.000000 0.000000 0.101626 0.000000
# 6 0.000000 0.000000 0.000000 0.000000 0.000000 -0.050771
#
#
# Mechanical properties :
#
#
# Convention : Reuss Voigt Hill
#
# Bulk Modulus (GPa) = 15.91325 24.06114 19.98720
# Shear Modulus (GPa) = 24.54031 13.70679 19.12355
#
# Velocity S-wave (km/s) = 3.38771 2.53183 2.99055
# Velocity P-wave (km/s) = 4.76908 4.44965 4.61213
#
# Compressibility (1/GPa) = 0.06284070
#
# Stress axis : x y z
#
# Youngs Moduli (GPa) = 109.41374 40.50125 36.87237
#
# Poissons Ratio (x) = 0.16027 -0.00652
# Poissons Ratio (y) = 0.43298 -0.17423
# Poissons Ratio (z) = -0.01936 -0.19138
#
# Static dielectric constant tensor:
#      x y z
#    x 1.856310 0.000000 0.000000 
#    y 0.000000 1.851410 0.000000 
#    z 0.000000 0.000000 1.682590 
# 
# From -- ./inp_files/12028.got.cif
#   From: 2010.05.17/outbox.cif.g08.bks.cpg/sg63_7_cif.got.tgz:12028.got - 2010.06.03 15:47:04.
