data_PCOD9470815
_publ_section_title
;
Structure prediction by ZEFSAII (Michael W. Deem and Ramdas Pophale) SiO2 
 PCOD9470815
Probable space group: C M C M
;
_chemical_formula_sum "Si O2"
_cell_formula_units_Z 72
_cell_length_a 7.691850
_cell_length_b 22.660754
_cell_length_c 25.741244
_cell_angle_alpha 90.000000
_cell_angle_beta 90.000000
_cell_angle_gamma 90.000000
_cell_volume 4486.779159
_symmetry_space_group_name_H-M "C M C M"
_symmetry_group_IT_number 63
_symmetry_cell_setting 'orthorhombic'
loop_
_space_group_symop_operation_xyz
x,y,z
-x,-y,1/2+z
x,-y,-z
-x,y,1/2-z
-x,-y,-z
x,y,1/2-z
-x,y,z
x,-y,1/2+z
1/2+x,1/2+y,z
1/2-x,1/2-y,1/2+z
1/2+x,1/2-y,-z
1/2-x,1/2+y,1/2-z
1/2-x,1/2-y,-z
1/2+x,1/2+y,1/2-z
1/2-x,1/2+y,z
1/2+x,1/2-y,1/2+z
loop_
_atom_site_type_symbol
_atom_site_label
_atom_site_fract_x
_atom_site_fract_y
_atom_site_fract_z
Si Si1 0.500000 0.528158 0.941487
Si Si2 0.000000 0.093664 0.394139
Si Si3 0.797504 0.238242 0.628011
Si Si4 0.500000 0.305668 0.811425
Si Si5 0.800363 0.660367 0.047349
Si Si6 0.202786 0.624706 0.931126
O O1 0.500000 0.476401 0.898692
O O2 0.331803 0.569509 0.933754
O O3 0.500000 0.500000 0.000000
O O4 0.167914 0.116042 0.425680
O O5 0.000000 0.130834 0.340746
O O6 0.667383 0.268758 0.668526
O O7 0.773571 0.277118 0.575429
O O8 0.749310 0.171328 0.613798
O O9 0.000000 0.242261 0.643053
O O10 0.500000 0.312148 0.750000
O O11 0.000000 0.642804 0.056807
O O12 0.771395 0.658557 0.986038
O O13 0.000000 0.607951 0.927451
#
# Coordination Sequence:
#
# PCOD9470815 Si02
#       6
#     8   8  16   8  16  16
#     4  12  22  34  50  76 120 159 193 217 247 330
#     4  10  20  36  52  76 110 151 185 220 268 316
#     4  10  19  33  54  82 112 138 177 222 286 336
#     4  10  22  40  62  82 103 132 180 242 289 327
#     4   9  18  29  48  77 112 148 178 216 260 330
#     4  11  20  31  50  79 115 152 185 217 266 320
#
# _framework density 16.047146000000001
#
# number of rings (size 3 to 8) (size 9 to 14) (size 15 to 20)
#    0.000    1.778    4.444    0.667    0.000    1.778 
#    0.000    0.000    0.000    1.333    0.000    0.000 
#    0.000    0.000    0.000    0.000    0.000    0.000 
#
# Total GULP energy -200734.606232 kJ/mol
# GULP energy per Si atom -5575.961284 kJ/mol
# Density = 1.601062 g / cm^3
# Si number density = 16.047146 Si / 1000 Ang^3
#
#
#
# Elastic Constant Matrix: (Units=GPa)
#
#
# Indices 1 2 3 4 5 6 
#
# 1 91.0412 66.5174 52.3622 0.0000 0.0000 0.0000
# 2 66.5174 97.3756 42.7312 0.0000 0.0000 0.0000
# 3 52.3622 42.7312 90.5508 0.0000 0.0000 0.0000
# 4 0.0000 0.0000 0.0000 8.0871 0.0000 0.0000
# 5 0.0000 0.0000 0.0000 0.0000 7.6412 0.0000
# 6 0.0000 0.0000 0.0000 0.0000 0.0000 18.5126
#
#
#
# Elastic Compliance Matrix: (Units=1/GPa)
#
#
# Indices 1 2 3 4 5 6 
#
# 1 0.026230 -0.014203 -0.008465 0.000000 0.000000 0.000000
# 2 -0.014203 0.020642 -0.001528 0.000000 0.000000 0.000000
# 3 -0.008465 -0.001528 0.016660 0.000000 0.000000 0.000000
# 4 0.000000 0.000000 0.000000 0.123654 0.000000 0.000000
# 5 0.000000 0.000000 0.000000 0.000000 0.130869 0.000000
# 6 0.000000 0.000000 0.000000 0.000000 0.000000 0.054017
#
#
# Mechanical properties :
#
#
# Convention : Reuss Voigt Hill
#
# Bulk Modulus (GPa) = 66.05382 66.90991 66.48187
# Shear Modulus (GPa) = 11.75058 14.67198 13.21128
#
# Velocity S-wave (km/s) = 2.70895 3.02703 2.87240
# Velocity P-wave (km/s) = 7.14397 7.34871 7.24706
#
# Compressibility (1/GPa) = 0.01513917
#
# Stress axis : x y z
#
# Youngs Moduli (GPa) = 38.12446 48.44484 60.02447
#
# Poissons Ratio (x) = 0.68805 0.50813
# Poissons Ratio (y) = 0.54147 0.09172
# Poissons Ratio (z) = 0.32274 0.07403
#
# Static dielectric constant tensor:
#      x y z
#    x 1.546240 0.000000 0.000000 
#    y 0.000000 1.541740 0.000000 
#    z 0.000000 0.000000 1.510640 
# 
# From -- ./inp_files/50738.got.cif
#   From: 2010.05.17/outbox.cif.g08.bks.cpg/sg63_26_cif.got.tgz:50738.got - 2010.06.03 15:47:04.
