data_PCOD9470306
_publ_section_title
;
Structure prediction by ZEFSAII (Michael W. Deem and Ramdas Pophale) SiO2 
 PCOD9470306
Probable space group: C M C M
;
_chemical_formula_sum "Si O2"
_cell_formula_units_Z 96
_cell_length_a 23.242698
_cell_length_b 9.656525
_cell_length_c 24.927960
_cell_angle_alpha 90.000000
_cell_angle_beta 90.000000
_cell_angle_gamma 90.000000
_cell_volume 5594.923434
_symmetry_space_group_name_H-M "C M C M"
_symmetry_group_IT_number 63
_symmetry_cell_setting 'orthorhombic'
loop_
_space_group_symop_operation_xyz
x,y,z
-x,-y,1/2+z
x,-y,-z
-x,y,1/2-z
-x,-y,-z
x,y,1/2-z
-x,y,z
x,-y,1/2+z
1/2+x,1/2+y,z
1/2-x,1/2-y,1/2+z
1/2+x,1/2-y,-z
1/2-x,1/2+y,1/2-z
1/2-x,1/2-y,-z
1/2+x,1/2+y,1/2-z
1/2-x,1/2+y,z
1/2+x,1/2-y,1/2+z
loop_
_atom_site_type_symbol
_atom_site_label
_atom_site_fract_x
_atom_site_fract_y
_atom_site_fract_z
Si Si1 0.431480 0.769926 0.026701
Si Si2 0.932082 0.470149 0.126148
Si Si3 0.253621 0.123181 0.040799
Si Si4 0.131135 0.282116 0.586185
Si Si5 0.932086 0.199440 0.312708
Si Si6 0.631187 0.547490 0.093099
O O1 0.500000 0.772394 0.019179
O O2 0.416121 0.883571 0.072164
O O3 0.411059 0.621834 0.050061
O O4 0.399421 0.801032 0.971657
O O5 0.900820 0.616410 0.127140
O O6 0.920890 0.360876 0.173531
O O7 0.000000 0.495032 0.123522
O O8 0.304312 0.161791 0.081046
O O9 0.194575 0.090785 0.072138
O O10 0.250000 0.250000 0.000000
O O11 0.267951 0.000000 0.000000
O O12 0.128512 0.118195 0.596130
O O13 0.925095 0.171372 0.250000
O O14 0.890315 0.111013 0.350624
O O15 0.000000 0.174775 0.327337
#
# Coordination Sequence:
#
# PCOD9470306 Si02
#       6
#    16  16  16  16  16  16
#     4  10  19  32  49  75 115 152 179 214 268 338
#     4   9  19  33  53  81 108 143 184 222 274 334
#     4  12  22  37  53  80 117 160 195 220 267 332
#     4  12  22  32  52  80 117 149 183 229 272 331
#     4   9  20  41  64  82 106 144 188 236 291 343
#     4  11  22  35  52  83 110 144 193 229 277 334
#
# _framework density 17.158411000000001
#
# number of rings (size 3 to 8) (size 9 to 14) (size 15 to 20)
#    0.000    1.500    3.333    4.000    2.333    4.667 
#    0.000    0.833    0.000    6.000    0.000    0.000 
#    0.000    0.000    0.000    0.000    0.000    0.000 
#
# Total GULP energy -267808.204285 kJ/mol
# GULP energy per Si atom -5579.337589 kJ/mol
# Density = 1.711936 g / cm^3
# Si number density = 17.158411 Si / 1000 Ang^3
#
#
#
# Elastic Constant Matrix: (Units=GPa)
#
#
# Indices 1 2 3 4 5 6 
#
# 1 64.3527 40.4789 21.5722 0.0000 0.0000 0.0000
# 2 40.4789 130.7948 18.0575 0.0000 0.0000 0.0000
# 3 21.5722 18.0575 50.3356 0.0000 0.0000 0.0000
# 4 0.0000 0.0000 0.0000 12.2445 0.0000 0.0000
# 5 0.0000 0.0000 0.0000 0.0000 13.0253 0.0000
# 6 0.0000 0.0000 0.0000 0.0000 0.0000 25.2063
#
#
#
# Elastic Compliance Matrix: (Units=1/GPa)
#
#
# Indices 1 2 3 4 5 6 
#
# 1 0.021512 -0.005665 -0.007187 0.000000 0.000000 0.000000
# 2 -0.005665 0.009536 -0.000993 0.000000 0.000000 0.000000
# 3 -0.007187 -0.000993 0.023303 0.000000 0.000000 0.000000
# 4 0.000000 0.000000 0.000000 0.081669 0.000000 0.000000
# 5 0.000000 0.000000 0.000000 0.000000 0.076773 0.000000
# 6 0.000000 0.000000 0.000000 0.000000 0.000000 0.039673
#
#
# Mechanical properties :
#
#
# Convention : Reuss Voigt Hill
#
# Bulk Modulus (GPa) = 37.50877 45.07782 41.29330
# Shear Modulus (GPa) = 17.29840 21.12020 19.20930
#
# Velocity S-wave (km/s) = 3.17860 3.51222 3.34956
# Velocity P-wave (km/s) = 5.94803 6.54035 6.25121
#
# Compressibility (1/GPa) = 0.02666043
#
# Stress axis : x y z
#
# Youngs Moduli (GPa) = 46.48514 104.86559 42.91294
#
# Poissons Ratio (x) = 0.59411 0.30842
# Poissons Ratio (y) = 0.26336 0.04261
# Poissons Ratio (z) = 0.33409 0.10413
#
# Static dielectric constant tensor:
#      x y z
#    x 1.614420 0.000000 0.000000 
#    y 0.000000 1.592600 0.000000 
#    z 0.000000 0.000000 1.570530 
# 
# From -- ./inp_files/64976.got.cif
#   From: 2010.05.17/outbox.cif.g08.bks.cpg/sg63_33_cif.got.tgz:64976.got - 2010.06.03 15:47:04.
