data_PCOD9470625
_publ_section_title
;
Structure prediction by ZEFSAII (Michael W. Deem and Ramdas Pophale) SiO2 
 PCOD9470625
Probable space group: C M C M
;
_chemical_formula_sum "Si O2"
_cell_formula_units_Z 104
_cell_length_a 22.795727
_cell_length_b 30.849503
_cell_length_c 8.904782
_cell_angle_alpha 90.000000
_cell_angle_beta 90.000000
_cell_angle_gamma 90.000000
_cell_volume 6262.170830
_symmetry_space_group_name_H-M "C M C M"
_symmetry_group_IT_number 63
_symmetry_cell_setting 'orthorhombic'
loop_
_space_group_symop_operation_xyz
x,y,z
-x,-y,1/2+z
x,-y,-z
-x,y,1/2-z
-x,-y,-z
x,y,1/2-z
-x,y,z
x,-y,1/2+z
1/2+x,1/2+y,z
1/2-x,1/2-y,1/2+z
1/2+x,1/2-y,-z
1/2-x,1/2+y,1/2-z
1/2-x,1/2-y,-z
1/2+x,1/2+y,1/2-z
1/2-x,1/2+y,z
1/2+x,1/2-y,1/2+z
loop_
_atom_site_type_symbol
_atom_site_label
_atom_site_fract_x
_atom_site_fract_y
_atom_site_fract_z
Si Si1 0.193347 0.698520 0.080494
Si Si2 0.719756 0.887868 0.072340
Si Si3 0.930229 0.953261 0.429170
Si Si4 0.127605 0.452011 0.930593
Si Si5 0.500000 0.952174 0.570396
Si Si6 0.166269 0.217109 0.078765
Si Si7 0.348353 0.620410 0.431176
O O1 0.176607 0.686198 0.250000
O O2 0.263120 0.709435 0.083208
O O3 0.189906 0.658012 0.969852
O O4 0.159142 0.740997 0.024906
O O5 0.725960 0.892275 0.250000
O O6 0.679053 0.924519 0.002532
O O7 0.783717 0.889169 0.995866
O O8 0.920329 0.954317 0.250000
O O9 0.893642 0.914248 0.502624
O O10 0.000000 0.947163 0.455744
O O11 0.913936 0.000000 0.500000
O O12 0.133331 0.453768 0.750000
O O13 0.063074 0.432345 0.969359
O O14 0.129288 0.500000 0.000000
O O15 0.500000 0.956954 0.750000
O O16 0.500000 0.000000 0.500000
O O17 0.147662 0.226150 0.250000
O O18 0.139331 0.171053 0.028880
O O19 0.347017 0.618092 0.250000
#
# Coordination Sequence:
#
# PCOD9470625 Si02
#       7
#    16  16  16  16   8  16  16
#     4   9  16  27  44  67  96 129 162 197 238 286
#     4  11  21  32  47  71 103 136 167 203 249 298
#     4  10  21  37  56  77 101 131 169 211 254 304
#     4  10  19  33  50  71  97 126 163 202 244 290
#     4   8  16  30  50  70  90 118 154 198 236 274
#     4   8  15  27  44  68  96 125 157 195 239 286
#     4  10  20  34  52  75 102 131 165 205 250 298
#
# _framework density 16.607659000000002
#
# number of rings (size 3 to 8) (size 9 to 14) (size 15 to 20)
#    0.000    2.462    0.000    4.154    0.000    6.462 
#    0.000    3.077    0.000    0.000    2.000    0.000 
#    0.000    0.000    0.000    0.000    0.000    0.000 
#
# Total GULP energy -289691.798617 kJ/mol
# GULP energy per Si atom -5570.996127 kJ/mol
# Density = 1.656986 g / cm^3
# Si number density = 16.607659 Si / 1000 Ang^3
#
#
#
# Elastic Constant Matrix: (Units=GPa)
#
#
# Indices 1 2 3 4 5 6 
#
# 1 52.2696 46.2652 35.4409 0.0000 0.0000 0.0000
# 2 46.2652 103.2663 48.4019 0.0000 0.0000 0.0000
# 3 35.4409 48.4019 84.5590 0.0000 0.0000 0.0000
# 4 0.0000 0.0000 0.0000 29.6159 0.0000 0.0000
# 5 0.0000 0.0000 0.0000 0.0000 18.7695 0.0000
# 6 0.0000 0.0000 0.0000 0.0000 0.0000 9.3019
#
#
#
# Elastic Compliance Matrix: (Units=1/GPa)
#
#
# Indices 1 2 3 4 5 6 
#
# 1 0.035108 -0.012071 -0.007805 0.000000 0.000000 0.000000
# 2 -0.012071 0.017384 -0.004892 0.000000 0.000000 0.000000
# 3 -0.007805 -0.004892 0.017898 0.000000 0.000000 0.000000
# 4 0.000000 0.000000 0.000000 0.033766 0.000000 0.000000
# 5 0.000000 0.000000 0.000000 0.000000 0.053278 0.000000
# 6 0.000000 0.000000 0.000000 0.000000 0.000000 0.107504
#
#
# Mechanical properties :
#
#
# Convention : Reuss Voigt Hill
#
# Bulk Modulus (GPa) = 47.95160 55.59011 51.77086
# Shear Modulus (GPa) = 15.55574 18.86992 17.21283
#
# Velocity S-wave (km/s) = 3.06381 3.37444 3.22287
# Velocity P-wave (km/s) = 6.43831 6.98052 6.71489
#
# Compressibility (1/GPa) = 0.02085436
#
# Stress axis : x y z
#
# Youngs Moduli (GPa) = 28.48361 57.52306 55.87344
#
# Poissons Ratio (x) = 0.69433 0.43612
# Poissons Ratio (y) = 0.34381 0.27332
# Poissons Ratio (z) = 0.22233 0.28139
#
# Static dielectric constant tensor:
#      x y z
#    x 1.551870 0.000000 0.000000 
#    y 0.000000 1.569440 0.000000 
#    z 0.000000 0.000000 1.119610 
# 
# From -- ./inp_files/9126.got.cif
#   From: 2010.05.17/outbox.cif.g08.bks.cpg/sg63_5_cif.got.tgz:9126.got - 2010.06.03 15:47:04.
