data_PCOD9470741
_publ_section_title
;
Structure prediction by ZEFSAII (Michael W. Deem and Ramdas Pophale) SiO2 
 PCOD9470741
Probable space group: C M C M
;
_chemical_formula_sum "Si O2"
_cell_formula_units_Z 96
_cell_length_a 26.187842
_cell_length_b 9.256826
_cell_length_c 23.628354
_cell_angle_alpha 90.000000
_cell_angle_beta 90.000000
_cell_angle_gamma 90.000000
_cell_volume 5727.898074
_symmetry_space_group_name_H-M "C M C M"
_symmetry_group_IT_number 63
_symmetry_cell_setting 'orthorhombic'
loop_
_space_group_symop_operation_xyz
x,y,z
-x,-y,1/2+z
x,-y,-z
-x,y,1/2-z
-x,-y,-z
x,y,1/2-z
-x,y,z
x,-y,1/2+z
1/2+x,1/2+y,z
1/2-x,1/2-y,1/2+z
1/2+x,1/2-y,-z
1/2-x,1/2+y,1/2-z
1/2-x,1/2-y,-z
1/2+x,1/2+y,1/2-z
1/2-x,1/2+y,z
1/2+x,1/2-y,1/2+z
loop_
_atom_site_type_symbol
_atom_site_label
_atom_site_fract_x
_atom_site_fract_y
_atom_site_fract_z
Si Si1 0.334541 0.683150 0.892940
Si Si2 0.941009 0.683681 0.817452
Si Si3 0.641608 0.061363 0.182647
Si Si4 0.154658 0.656054 0.510914
Si Si5 0.630871 0.360519 0.607984
Si Si6 0.283278 0.853998 0.381656
O O1 0.362366 0.785106 0.847678
O O2 0.332539 0.768265 0.952306
O O3 0.361319 0.528975 0.900497
O O4 0.276333 0.659155 0.873181
O O5 0.938217 0.706790 0.750000
O O6 0.906715 0.542129 0.830021
O O7 0.913900 0.814504 0.850043
O O8 0.000000 0.665624 0.833318
O O9 0.647336 0.073015 0.250000
O O10 0.689898 0.979644 0.154316
O O11 0.129623 0.500000 0.500000
O O12 0.123826 0.768896 0.550030
O O13 0.203378 0.378188 0.448336
O O14 0.684203 0.291209 0.631572
#
# Coordination Sequence:
#
# PCOD9470741 Si02
#       6
#    16  16  16  16  16  16
#     4  12  19  33  52  80 118 144 181 214 279 309
#     4   9  18  39  64  78  98 139 188 231 275 334
#     4  10  21  36  53  78 106 142 187 226 267 326
#     4  10  19  33  53  77 111 148 190 223 249 316
#     4   9  21  31  51  85 109 139 175 236 273 320
#     4   9  20  33  50  76 107 156 184 218 245 325
#
# _framework density 16.760073999999999
#
# number of rings (size 3 to 8) (size 9 to 14) (size 15 to 20)
#    1.000    1.167    1.667    2.000    0.000    1.333 
#    0.000    4.167    0.000    8.500    0.000    0.000 
#    0.000    0.000    0.000    0.000    0.000    0.000 
#
# Total GULP energy -267255.004900 kJ/mol
# GULP energy per Si atom -5567.812602 kJ/mol
# Density = 1.672193 g / cm^3
# Si number density = 16.760074 Si / 1000 Ang^3
#
#
#
# Elastic Constant Matrix: (Units=GPa)
#
#
# Indices 1 2 3 4 5 6 
#
# 1 88.2989 38.5456 41.4088 0.0000 0.0000 0.0000
# 2 38.5456 135.7762 43.1244 0.0000 0.0000 0.0000
# 3 41.4088 43.1244 55.9264 0.0000 0.0000 0.0000
# 4 0.0000 0.0000 0.0000 19.2327 0.0000 0.0000
# 5 0.0000 0.0000 0.0000 0.0000 15.5617 0.0000
# 6 0.0000 0.0000 0.0000 0.0000 0.0000 5.3351
#
#
#
# Elastic Compliance Matrix: (Units=1/GPa)
#
#
# Indices 1 2 3 4 5 6 
#
# 1 0.017479 -0.001128 -0.012072 0.000000 0.000000 0.000000
# 2 -0.001128 0.009827 -0.006742 0.000000 0.000000 0.000000
# 3 -0.012072 -0.006742 0.032018 0.000000 0.000000 0.000000
# 4 0.000000 0.000000 0.000000 0.051995 0.000000 0.000000
# 5 0.000000 0.000000 0.000000 0.000000 0.064260 0.000000
# 6 0.000000 0.000000 0.000000 0.000000 0.000000 0.187437
#
#
# Mechanical properties :
#
#
# Convention : Reuss Voigt Hill
#
# Bulk Modulus (GPa) = 51.44219 58.46211 54.95215
# Shear Modulus (GPa) = 12.21364 18.48742 15.35053
#
# Velocity S-wave (km/s) = 2.70244 3.32484 3.02966
# Velocity P-wave (km/s) = 6.36376 7.04961 6.71545
#
# Compressibility (1/GPa) = 0.01943930
#
# Stress axis : x y z
#
# Youngs Moduli (GPa) = 57.21226 101.76399 31.23277
#
# Poissons Ratio (x) = 0.11478 0.37704
# Poissons Ratio (y) = 0.06453 0.21058
# Poissons Ratio (z) = 0.69066 0.68611
#
# Static dielectric constant tensor:
#      x y z
#    x 1.544410 0.000000 0.000000 
#    y 0.000000 1.586540 0.000000 
#    z 0.000000 0.000000 1.579800 
# 
# From -- ./inp_files/64969.got.cif
#   From: 2010.05.17/outbox.cif.g08.bks.cpg/sg63_33_cif.got.tgz:64969.got - 2010.06.03 15:47:04.
