data_PCOD9470905
_publ_section_title
;
Structure prediction by ZEFSAII (Michael W. Deem and Ramdas Pophale) SiO2 
 PCOD9470905
Probable space group: C M C M
;
_chemical_formula_sum "Si O2"
_cell_formula_units_Z 96
_cell_length_a 18.646568
_cell_length_b 10.945793
_cell_length_c 24.260563
_cell_angle_alpha 90.000000
_cell_angle_beta 90.000000
_cell_angle_gamma 90.000000
_cell_volume 4951.616656
_symmetry_space_group_name_H-M "C M C M"
_symmetry_group_IT_number 63
_symmetry_cell_setting 'orthorhombic'
loop_
_space_group_symop_operation_xyz
x,y,z
-x,-y,1/2+z
x,-y,-z
-x,y,1/2-z
-x,-y,-z
x,y,1/2-z
-x,y,z
x,-y,1/2+z
1/2+x,1/2+y,z
1/2-x,1/2-y,1/2+z
1/2+x,1/2-y,-z
1/2-x,1/2+y,1/2-z
1/2-x,1/2-y,-z
1/2+x,1/2+y,1/2-z
1/2-x,1/2+y,z
1/2+x,1/2-y,1/2+z
loop_
_atom_site_type_symbol
_atom_site_label
_atom_site_fract_x
_atom_site_fract_y
_atom_site_fract_z
Si Si1 0.800552 0.131322 0.685123
Si Si2 0.085815 0.743305 0.380145
Si Si3 0.801257 0.138775 0.185120
Si Si4 0.914159 0.740214 0.616653
Si Si5 0.412767 0.141572 0.001458
Si Si6 0.913387 0.499453 0.188110
O O1 0.819885 0.140370 0.750000
O O2 0.869792 0.148186 0.646887
O O3 0.749451 0.246017 0.672835
O O4 0.768426 0.996038 0.676572
O O5 0.107921 0.708959 0.442303
O O6 0.103089 0.624848 0.342647
O O7 0.000000 0.762855 0.378980
O O8 0.820766 0.147755 0.250000
O O9 0.870269 0.154383 0.146555
O O10 0.892083 0.712827 0.553848
O O11 0.896691 0.617910 0.651544
O O12 0.000000 0.759246 0.618380
O O13 0.500000 0.136400 0.001521
O O14 0.388351 0.000000 0.000000
O O15 0.883114 0.493096 0.250000
O O16 0.000000 0.498334 0.192512
#
# Coordination Sequence:
#
# PCOD9470905 Si02
#       6
#    16  16  16  16  16  16
#     4  10  23  41  60  84 116 153 189 234 294 354
#     4  10  19  33  56  85 116 151 194 238 284 338
#     4  10  23  41  60  84 116 153 189 234 294 354
#     4  10  19  33  56  85 116 151 194 238 284 338
#     4   9  16  30  52  83 120 157 193 237 288 335
#     4   9  16  25  45  81 115 142 178 226 275 326
#
# _framework density 19.387608
#
# number of rings (size 3 to 8) (size 9 to 14) (size 15 to 20)
#    0.000    2.333    1.667    1.000    2.333    2.667 
#    0.000    3.333    0.000    3.000    0.000    0.000 
#    0.000    0.000    0.000    0.000    0.000    0.000 
#
# Total GULP energy -267846.473468 kJ/mol
# GULP energy per Si atom -5580.134864 kJ/mol
# Density = 1.934348 g / cm^3
# Si number density = 19.387608 Si / 1000 Ang^3
#
#
#
# Elastic Constant Matrix: (Units=GPa)
#
#
# Indices 1 2 3 4 5 6 
#
# 1 54.6655 34.3551 26.7543 0.0000 0.0000 0.0000
# 2 34.3551 106.3253 25.4074 0.0000 0.0000 0.0000
# 3 26.7543 25.4074 65.7799 0.0000 0.0000 0.0000
# 4 0.0000 0.0000 0.0000 22.4416 0.0000 0.0000
# 5 0.0000 0.0000 0.0000 0.0000 15.4905 0.0000
# 6 0.0000 0.0000 0.0000 0.0000 0.0000 26.6444
#
#
#
# Elastic Compliance Matrix: (Units=1/GPa)
#
#
# Indices 1 2 3 4 5 6 
#
# 1 0.026451 -0.006584 -0.008216 0.000000 0.000000 0.000000
# 2 -0.006584 0.012000 -0.001957 0.000000 0.000000 0.000000
# 3 -0.008216 -0.001957 0.019300 0.000000 0.000000 0.000000
# 4 0.000000 0.000000 0.000000 0.044560 0.000000 0.000000
# 5 0.000000 0.000000 0.000000 0.000000 0.064556 0.000000
# 6 0.000000 0.000000 0.000000 0.000000 0.000000 0.037531
#
#
# Mechanical properties :
#
#
# Convention : Reuss Voigt Hill
#
# Bulk Modulus (GPa) = 41.25707 44.42272 42.83989
# Shear Modulus (GPa) = 20.32594 22.26553 21.29574
#
# Velocity S-wave (km/s) = 3.24141 3.39254 3.31784
# Velocity P-wave (km/s) = 5.94435 6.18938 6.06810
#
# Compressibility (1/GPa) = 0.02423827
#
# Stress axis : x y z
#
# Youngs Moduli (GPa) = 37.80510 83.33283 51.81432
#
# Poissons Ratio (x) = 0.54863 0.42568
# Poissons Ratio (y) = 0.24889 0.10142
# Poissons Ratio (z) = 0.31059 0.16311
#
# Static dielectric constant tensor:
#      x y z
#    x 1.701710 0.000000 0.000000 
#    y 0.000000 1.683750 0.000000 
#    z 0.000000 0.000000 1.655210 
# 
# From -- ./inp_files/63718.got.cif
#   From: 2010.05.17/outbox.cif.g08.bks.cpg/sg63_32_cif.got.tgz:63718.got - 2010.06.03 15:47:04.
