data_PCOD9470280
_publ_section_title
;
Structure prediction by ZEFSAII (Michael W. Deem and Ramdas Pophale) SiO2 
 PCOD9470280
Probable space group: C M C M
;
_chemical_formula_sum "Si O2"
_cell_formula_units_Z 96
_cell_length_a 21.869832
_cell_length_b 24.329091
_cell_length_c 7.487596
_cell_angle_alpha 90.000000
_cell_angle_beta 90.000000
_cell_angle_gamma 90.000000
_cell_volume 3983.948661
_symmetry_space_group_name_H-M "C M C M"
_symmetry_group_IT_number 63
_symmetry_cell_setting 'orthorhombic'
loop_
_space_group_symop_operation_xyz
x,y,z
-x,-y,1/2+z
x,-y,-z
-x,y,1/2-z
-x,-y,-z
x,y,1/2-z
-x,y,z
x,-y,1/2+z
1/2+x,1/2+y,z
1/2-x,1/2-y,1/2+z
1/2+x,1/2-y,-z
1/2-x,1/2+y,1/2-z
1/2-x,1/2-y,-z
1/2+x,1/2+y,1/2-z
1/2-x,1/2+y,z
1/2+x,1/2-y,1/2+z
loop_
_atom_site_type_symbol
_atom_site_label
_atom_site_fract_x
_atom_site_fract_y
_atom_site_fract_z
Si Si1 0.302447 0.940810 0.538495
Si Si2 0.599449 0.789802 0.953162
Si Si3 0.934721 0.591150 0.468276
Si Si4 0.266443 0.176382 0.952321
Si Si5 0.369473 0.675182 0.529854
Si Si6 0.570312 0.561487 0.963730
O O1 0.301696 0.930961 0.750000
O O2 0.373107 0.938931 0.474165
O O3 0.269987 0.889688 0.449763
O O4 0.275392 0.000000 0.500000
O O5 0.577137 0.787449 0.750000
O O6 0.571225 0.845371 0.031245
O O7 0.591673 0.728615 0.027979
O O8 0.672443 0.802982 0.952234
O O9 0.933824 0.591478 0.250000
O O10 0.000000 0.568347 0.526473
O O11 0.269253 0.197255 0.750000
O O12 0.199865 0.187219 0.029997
O O13 0.368359 0.675403 0.750000
O O14 0.393493 0.615514 0.471809
O O15 0.568106 0.566678 0.750000
O O16 0.500000 0.562949 0.030954
O O17 0.595177 0.500000 0.000000
#
# Coordination Sequence:
#
# PCOD9470280 Si02
#       6
#    16  16  16  16  16  16
#     4  10  20  34  51  71  97 128 165 205 245 289
#     4   9  17  31  50  72 100 129 160 199 241 285
#     4   8  15  28  47  71  97 125 157 195 239 285
#     4  10  19  32  49  70 101 133 162 198 240 286
#     4   9  18  31  50  76  99 125 163 201 237 286
#     4   9  18  34  53  72  97 127 159 198 244 290
#
# _framework density 24.096696000000001
#
# number of rings (size 3 to 8) (size 9 to 14) (size 15 to 20)
#    0.000    2.833    0.000    2.500    0.000    1.667 
#    0.000    8.333    0.000   12.000    0.000    0.000 
#    0.000    0.000    0.000    0.000    0.000    0.000 
#
# Total GULP energy -267934.422543 kJ/mol
# GULP energy per Si atom -5581.967136 kJ/mol
# Density = 2.404185 g / cm^3
# Si number density = 24.096696 Si / 1000 Ang^3
#
#
#
# Elastic Constant Matrix: (Units=GPa)
#
#
# Indices 1 2 3 4 5 6 
#
# 1 41.6639 1.6068 1.5506 0.0000 0.0000 0.0000
# 2 1.6068 152.5170 -3.7047 0.0000 0.0000 0.0000
# 3 1.5506 -3.7047 78.6612 0.0000 0.0000 0.0000
# 4 0.0000 0.0000 0.0000 15.3422 0.0000 0.0000
# 5 0.0000 0.0000 0.0000 0.0000 415.8261 0.0000
# 6 0.0000 0.0000 0.0000 0.0000 0.0000 -14.6366
#
#
#
# Elastic Compliance Matrix: (Units=1/GPa)
#
#
# Indices 1 2 3 4 5 6 
#
# 1 0.024030 -0.000265 -0.000486 0.000000 0.000000 0.000000
# 2 -0.000265 0.006567 0.000315 0.000000 0.000000 0.000000
# 3 -0.000486 0.000315 0.012737 0.000000 0.000000 0.000000
# 4 0.000000 0.000000 0.000000 0.065180 0.000000 0.000000
# 5 0.000000 0.000000 0.000000 0.000000 0.002405 0.000000
# 6 0.000000 0.000000 0.000000 0.000000 0.000000 -0.068322
#
#
# Mechanical properties :
#
#
# Convention : Reuss Voigt Hill
#
# Bulk Modulus (GPa) = 23.55108 30.19415 26.87262
# Shear Modulus (GPa) = 86.77044 101.53232 94.15138
#
# Velocity S-wave (km/s) = 6.00728 6.49822 6.25757
# Velocity P-wave (km/s) = 7.60995 8.29820 7.96152
#
# Compressibility (1/GPa) = 0.04246090
#
# Stress axis : x y z
#
# Youngs Moduli (GPa) = 41.61482 152.27473 78.51051
#
# Poissons Ratio (x) = 0.04035 0.03817
# Poissons Ratio (y) = 0.01103 -0.02469
# Poissons Ratio (z) = 0.02023 -0.04789
#
# Static dielectric constant tensor:
#      x y z
#    x 1.896210 0.000000 0.000000 
#    y 0.000000 1.932120 0.000000 
#    z 0.000000 0.000000 1.934370 
# 
# From -- ./inp_files/10487.got.cif
#   From: 2010.05.17/outbox.cif.g08.bks.cpg/sg63_6_cif.got.tgz:10487.got - 2010.06.03 15:47:04.
