data_PCOD9470246
_publ_section_title
;
Structure prediction by ZEFSAII (Michael W. Deem and Ramdas Pophale) SiO2 
 PCOD9470246
Probable space group: C M C M
;
_chemical_formula_sum "Si O2"
_cell_formula_units_Z 116
_cell_length_a 7.516694
_cell_length_b 29.332232
_cell_length_c 23.993143
_cell_angle_alpha 90.000000
_cell_angle_beta 90.000000
_cell_angle_gamma 90.000000
_cell_volume 5290.042054
_symmetry_space_group_name_H-M "C M C M"
_symmetry_group_IT_number 63
_symmetry_cell_setting 'orthorhombic'
loop_
_space_group_symop_operation_xyz
x,y,z
-x,-y,1/2+z
x,-y,-z
-x,y,1/2-z
-x,-y,-z
x,y,1/2-z
-x,y,z
x,-y,1/2+z
1/2+x,1/2+y,z
1/2-x,1/2-y,1/2+z
1/2+x,1/2-y,-z
1/2-x,1/2+y,1/2-z
1/2-x,1/2-y,-z
1/2+x,1/2+y,1/2-z
1/2-x,1/2+y,z
1/2+x,1/2-y,1/2+z
loop_
_atom_site_type_symbol
_atom_site_label
_atom_site_fract_x
_atom_site_fract_y
_atom_site_fract_z
Si Si1 0.207437 0.079122 0.394880
Si Si2 0.206731 0.924310 0.160021
Si Si3 0.500000 0.951453 0.250000
Si Si4 0.292461 0.231599 0.096380
Si Si5 0.206570 0.831522 0.111914
Si Si6 0.785323 0.654812 0.014542
Si Si7 0.284167 0.343624 0.813466
Si Si8 0.200451 0.514769 0.559570
O O1 0.225189 0.112335 0.448172
O O2 0.273842 0.109849 0.343666
O O3 0.000000 0.068500 0.385964
O O4 0.303468 0.032121 0.405895
O O5 0.342565 0.948751 0.201296
O O6 0.274301 0.872206 0.150754
O O7 0.210263 0.948484 0.099364
O O8 0.000000 0.924279 0.178687
O O9 0.500000 0.239470 0.083032
O O10 0.212162 0.280772 0.110528
O O11 0.220073 0.201243 0.045208
O O12 0.279238 0.198425 0.149329
O O13 0.000000 0.826883 0.128027
O O14 0.219665 0.847438 0.048033
O O15 0.000000 0.655140 0.014807
O O16 0.226245 0.340782 0.750000
O O17 0.500000 0.343206 0.815286
O O18 0.282038 0.500000 0.500000
O O19 0.000000 0.531521 0.547531
#
# Coordination Sequence:
#
# PCOD9470246 Si02
#       8
#    16  16   4  16  16  16  16  16
#     4  10  20  35  57  85 120 158 197 241 302 373
#     4  11  25  46  71  96 129 174 221 275 334 387
#     4  12  26  52  70  90 128 172 226 290 324 378
#     4   9  19  35  53  82 119 156 199 246 308 377
#     4  10  21  37  58  86 118 157 204 253 312 381
#     4  10  19  31  55  86 124 161 195 248 310 377
#     4   9  19  37  55  79 112 150 195 247 297 352
#     4  11  23  41  66  99 134 165 206 263 326 397
#
# _framework density 21.927992
#
# number of rings (size 3 to 8) (size 9 to 14) (size 15 to 20)
#    0.000    1.931    0.690    2.690    0.966    5.241 
#    2.483    0.000    0.000    0.000    0.000    0.000 
#    0.000    0.000    0.000    0.000    0.000    0.000 
#
# Total GULP energy -323458.950547 kJ/mol
# GULP energy per Si atom -5576.878458 kJ/mol
# Density = 2.187808 g / cm^3
# Si number density = 21.927992 Si / 1000 Ang^3
#
#
#
# Elastic Constant Matrix: (Units=GPa)
#
#
# Indices 1 2 3 4 5 6 
#
# 1 92.9074 2.5423 4.6526 0.0000 0.0000 0.0000
# 2 2.5423 87.3466 5.9400 0.0000 0.0000 0.0000
# 3 4.6526 5.9400 78.7764 0.0000 0.0000 0.0000
# 4 0.0000 0.0000 0.0000 1.7048 0.0000 0.0000
# 5 0.0000 0.0000 0.0000 0.0000 1.1998 0.0000
# 6 0.0000 0.0000 0.0000 0.0000 0.0000 10.8725
#
#
#
# Elastic Compliance Matrix: (Units=1/GPa)
#
#
# Indices 1 2 3 4 5 6 
#
# 1 0.010802 -0.000272 -0.000617 0.000000 0.000000 0.000000
# 2 -0.000272 0.011515 -0.000852 0.000000 0.000000 0.000000
# 3 -0.000617 -0.000852 0.012795 0.000000 0.000000 0.000000
# 4 0.000000 0.000000 0.000000 0.586594 0.000000 0.000000
# 5 0.000000 0.000000 0.000000 0.000000 0.833502 0.000000
# 6 0.000000 0.000000 0.000000 0.000000 0.000000 0.091976
#
#
# Mechanical properties :
#
#
# Convention : Reuss Voigt Hill
#
# Bulk Modulus (GPa) = 31.61830 31.70000 31.65915
# Shear Modulus (GPa) = 3.20264 19.14843 11.17554
#
# Velocity S-wave (km/s) = 1.20983 2.95827 2.25999
# Velocity P-wave (km/s) = 4.04994 5.11432 4.61294
#
# Compressibility (1/GPa) = 0.03162725
#
# Stress axis : x y z
#
# Youngs Moduli (GPa) = 92.57739 86.84684 78.15626
#
# Poissons Ratio (x) = 0.02366 0.04825
# Poissons Ratio (y) = 0.02522 0.06660
# Poissons Ratio (z) = 0.05716 0.07401
#
# Static dielectric constant tensor:
#      x y z
#    x 1.832900 0.000000 0.000000 
#    y 0.000000 1.819840 0.000000 
#    z 0.000000 0.000000 1.773550 
# 
# From -- ./inp_files/60478.got.cif
#   From: 2010.05.17/outbox.cif.g08.bks.cpg/sg63_31_cif.got.tgz:60478.got - 2010.06.03 15:47:04.
