data_PCOD9470584
_publ_section_title
;
Structure prediction by ZEFSAII (Michael W. Deem and Ramdas Pophale) SiO2 
 PCOD9470584
Probable space group: C M C M
;
_chemical_formula_sum "Si O2"
_cell_formula_units_Z 116
_cell_length_a 10.167395
_cell_length_b 22.987379
_cell_length_c 28.186355
_cell_angle_alpha 90.000000
_cell_angle_beta 90.000000
_cell_angle_gamma 90.000000
_cell_volume 6587.764564
_symmetry_space_group_name_H-M "C M C M"
_symmetry_group_IT_number 63
_symmetry_cell_setting 'orthorhombic'
loop_
_space_group_symop_operation_xyz
x,y,z
-x,-y,1/2+z
x,-y,-z
-x,y,1/2-z
-x,-y,-z
x,y,1/2-z
-x,y,z
x,-y,1/2+z
1/2+x,1/2+y,z
1/2-x,1/2-y,1/2+z
1/2+x,1/2-y,-z
1/2-x,1/2+y,1/2-z
1/2-x,1/2-y,-z
1/2+x,1/2+y,1/2-z
1/2-x,1/2+y,z
1/2+x,1/2-y,1/2+z
loop_
_atom_site_type_symbol
_atom_site_label
_atom_site_fract_x
_atom_site_fract_y
_atom_site_fract_z
Si Si1 0.155761 0.931115 0.007771
Si Si2 0.344422 0.244399 0.119059
Si Si3 0.731186 0.921944 0.671631
Si Si4 0.000000 0.409534 0.750000
Si Si5 0.340871 0.548824 0.695648
Si Si6 0.653275 0.876182 0.930745
Si Si7 0.353776 0.696193 0.305942
Si Si8 0.841111 0.875987 0.107025
O O1 0.196612 0.913036 0.060983
O O2 0.000000 0.916802 0.001539
O O3 0.246713 0.897816 0.970457
O O4 0.169584 0.000000 0.000000
O O5 0.500000 0.244878 0.130951
O O6 0.325348 0.191920 0.081969
O O7 0.258843 0.228168 0.164727
O O8 0.304993 0.308409 0.101845
O O9 0.614221 0.910713 0.708506
O O10 0.682429 0.910902 0.618095
O O11 0.838135 0.872162 0.682626
O O12 0.787313 0.985984 0.680220
O O13 0.299599 0.561271 0.750000
O O14 0.500000 0.547200 0.695117
O O15 0.295573 0.595721 0.656539
O O16 0.500000 0.884195 0.943793
O O17 0.336965 0.704748 0.250000
O O18 0.500000 0.715702 0.319845
O O19 0.000000 0.877781 0.108612
#
# Coordination Sequence:
#
# PCOD9470584 Si02
#       8
#    16  16  16   4  16  16  16  16
#     4  10  21  38  60  84 109 142 181 223 277 330
#     4   9  20  36  56  78 106 144 187 228 271 326
#     4  11  20  33  54  80 115 145 188 221 277 330
#     4  12  20  32  54  80 114 160 182 224 264 354
#     4  10  19  32  55  83 110 140 181 232 282 326
#     4  10  21  35  54  82 112 141 179 230 272 322
#     4  10  20  32  51  78 113 145 181 230 277 322
#     4   9  19  37  57  80 109 142 185 231 272 327
#
# _framework density 17.6084
#
# number of rings (size 3 to 8) (size 9 to 14) (size 15 to 20)
#    0.000    2.069    2.069    1.241    0.966    6.621 
#    0.000    2.069    1.517    0.000    0.000    0.000 
#    0.000    0.000    0.000    0.000    0.000    0.000 
#
# Total GULP energy -322930.686249 kJ/mol
# GULP energy per Si atom -5567.770453 kJ/mol
# Density = 1.756832 g / cm^3
# Si number density = 17.608400 Si / 1000 Ang^3
#
#
#
# Elastic Constant Matrix: (Units=GPa)
#
#
# Indices 1 2 3 4 5 6 
#
# 1 60.0711 43.1977 42.8796 0.0000 0.0000 0.0000
# 2 43.1977 98.1512 75.1771 0.0000 0.0000 0.0000
# 3 42.8796 75.1771 125.7995 0.0000 0.0000 0.0000
# 4 0.0000 0.0000 0.0000 11.4968 0.0000 0.0000
# 5 0.0000 0.0000 0.0000 0.0000 24.5648 0.0000
# 6 0.0000 0.0000 0.0000 0.0000 0.0000 4.9487
#
#
#
# Elastic Compliance Matrix: (Units=1/GPa)
#
#
# Indices 1 2 3 4 5 6 
#
# 1 0.025219 -0.008326 -0.003620 0.000000 0.000000 0.000000
# 2 -0.008326 0.021537 -0.010032 0.000000 0.000000 0.000000
# 3 -0.003620 -0.010032 0.015178 0.000000 0.000000 0.000000
# 4 0.000000 0.000000 0.000000 0.086981 0.000000 0.000000
# 5 0.000000 0.000000 0.000000 0.000000 0.040709 0.000000
# 6 0.000000 0.000000 0.000000 0.000000 0.000000 0.202074
#
#
# Mechanical properties :
#
#
# Convention : Reuss Voigt Hill
#
# Bulk Modulus (GPa) = 55.62847 67.39230 61.51039
# Shear Modulus (GPa) = 11.32124 16.38653 13.85388
#
# Velocity S-wave (km/s) = 2.53839 3.05390 2.80800
# Velocity P-wave (km/s) = 6.34443 7.12678 6.74695
#
# Compressibility (1/GPa) = 0.01797641
#
# Stress axis : x y z
#
# Youngs Moduli (GPa) = 39.65330 46.43192 65.88309
#
# Poissons Ratio (x) = 0.38660 0.23851
# Poissons Ratio (y) = 0.33016 0.66096
# Poissons Ratio (z) = 0.14355 0.46582
#
# Static dielectric constant tensor:
#      x y z
#    x 1.586390 0.000000 0.000000 
#    y 0.000000 1.601790 0.000000 
#    z 0.000000 0.000000 1.589540 
# 
# From -- ./inp_files/67436.got.cif
#   From: 2010.05.17/outbox.cif.g08.bks.cpg/sg63_34_cif.got.tgz:67436.got - 2010.06.03 15:47:04.
