data_PCOD9470405
_publ_section_title
;
Structure prediction by ZEFSAII (Michael W. Deem and Ramdas Pophale) SiO2 
 PCOD9470405
Probable space group: C M C M
;
_chemical_formula_sum "Si O2"
_cell_formula_units_Z 88
_cell_length_a 23.046336
_cell_length_b 23.663969
_cell_length_c 7.650476
_cell_angle_alpha 90.000000
_cell_angle_beta 90.000000
_cell_angle_gamma 90.000000
_cell_volume 4172.323117
_symmetry_space_group_name_H-M "C M C M"
_symmetry_group_IT_number 63
_symmetry_cell_setting 'orthorhombic'
loop_
_space_group_symop_operation_xyz
x,y,z
-x,-y,1/2+z
x,-y,-z
-x,y,1/2-z
-x,-y,-z
x,y,1/2-z
-x,y,z
x,-y,1/2+z
1/2+x,1/2+y,z
1/2-x,1/2-y,1/2+z
1/2+x,1/2-y,-z
1/2-x,1/2+y,1/2-z
1/2-x,1/2-y,-z
1/2+x,1/2+y,1/2-z
1/2-x,1/2+y,z
1/2+x,1/2-y,1/2+z
loop_
_atom_site_type_symbol
_atom_site_label
_atom_site_fract_x
_atom_site_fract_y
_atom_site_fract_z
Si Si1 0.159358 0.353027 0.964386
Si Si2 0.000000 0.067457 0.460710
Si Si3 0.565059 0.061270 0.040593
Si Si4 0.259324 0.436954 0.540106
Si Si5 0.624248 0.612391 0.456413
Si Si6 0.683315 0.268197 0.041890
O O1 0.161184 0.352590 0.750000
O O2 0.105932 0.390122 0.025563
O O3 0.217209 0.386519 0.022243
O O4 0.151977 0.288821 0.020116
O O5 0.940124 0.097519 0.526063
O O6 0.000000 0.073022 0.250000
O O7 0.000000 0.000000 0.500000
O O8 0.562161 0.066431 0.250000
O O9 0.500000 0.063326 0.969190
O O10 0.590270 0.000000 0.000000
O O11 0.238317 0.500000 0.500000
O O12 0.260658 0.431866 0.750000
O O13 0.324357 0.427353 0.470290
O O14 0.620284 0.601113 0.250000
O O15 0.652122 0.675376 0.473124
O O16 0.680276 0.273456 0.250000
O O17 0.750000 0.250000 0.000000
#
# Coordination Sequence:
#
# PCOD9470405 Si02
#       6
#    16   8  16  16  16  16
#     4   9  18  33  51  74 105 139 174 220 272 320
#     4  10  22  40  64  88 120 158 197 248 303 358
#     4   9  17  31  51  73 101 135 169 208 258 313
#     4  10  19  32  51  76 108 138 175 225 275 332
#     4  10  21  39  58  81 115 153 188 234 292 343
#     4  11  21  37  59  82 111 147 187 232 282 342
#
# _framework density 21.091367000000002
#
# number of rings (size 3 to 8) (size 9 to 14) (size 15 to 20)
#    0.000    2.182    1.818    1.636    0.000    1.455 
#    1.636    1.818    0.000    0.000    0.000    0.000 
#    0.000    0.000    0.000    0.000    0.000    0.000 
#
# Total GULP energy -245319.259660 kJ/mol
# GULP energy per Si atom -5575.437720 kJ/mol
# Density = 2.104336 g / cm^3
# Si number density = 21.091367 Si / 1000 Ang^3
#
#
#
# Elastic Constant Matrix: (Units=GPa)
#
#
# Indices 1 2 3 4 5 6 
#
# 1 116.2151 53.4662 -0.1111 0.0000 0.0000 0.0000
# 2 53.4662 117.4789 -17.9542 0.0000 0.0000 0.0000
# 3 -0.1111 -17.9542 40.0577 0.0000 0.0000 0.0000
# 4 0.0000 0.0000 0.0000 27.1793 0.0000 0.0000
# 5 0.0000 0.0000 0.0000 0.0000 -5.6894 0.0000
# 6 0.0000 0.0000 0.0000 0.0000 0.0000 43.1609
#
#
#
# Elastic Compliance Matrix: (Units=1/GPa)
#
#
# Indices 1 2 3 4 5 6 
#
# 1 0.011094 -0.005415 -0.002396 0.000000 0.000000 0.000000
# 2 -0.005415 0.011781 0.005265 0.000000 0.000000 0.000000
# 3 -0.002396 0.005265 0.027317 0.000000 0.000000 0.000000
# 4 0.000000 0.000000 0.000000 0.036793 0.000000 0.000000
# 5 0.000000 0.000000 0.000000 0.000000 -0.175765 0.000000
# 6 0.000000 0.000000 0.000000 0.000000 0.000000 0.023169
#
#
# Mechanical properties :
#
#
# Convention : Reuss Voigt Hill
#
# Bulk Modulus (GPa) = 22.17269 38.28373 30.22821
# Shear Modulus (GPa) = -109.92546 28.82021 -40.55263
#
# Velocity S-wave (km/s) = -7.22716 3.70056 -4.38963
# Velocity P-wave (km/s) = 7.68810 6.03735 3.36581
#
# Compressibility (1/GPa) = 0.04510053
#
# Stress axis : x y z
#
# Youngs Moduli (GPa) = 90.14086 84.87961 36.60675
#
# Poissons Ratio (x) = 0.45964 0.08772
# Poissons Ratio (y) = 0.48813 -0.19275
# Poissons Ratio (z) = 0.21601 -0.44693
#
# Static dielectric constant tensor:
#      x y z
#    x 1.820910 0.000000 0.000000 
#    y 0.000000 1.761120 0.000000 
#    z 0.000000 0.000000 1.729760 
# 
# From -- ./inp_files/8147.got.cif
#   From: 2010.05.17/outbox.cif.g08.bks.cpg/sg63_5_cif.got.tgz:8147.got - 2010.06.03 15:47:04.
