data_PCOD9470500
_publ_section_title
;
Structure prediction by ZEFSAII (Michael W. Deem and Ramdas Pophale) SiO2 
 PCOD9470500
Probable space group: C M C M
;
_chemical_formula_sum "Si O2"
_cell_formula_units_Z 56
_cell_length_a 13.578744
_cell_length_b 23.849462
_cell_length_c 8.730363
_cell_angle_alpha 90.000000
_cell_angle_beta 90.000000
_cell_angle_gamma 90.000000
_cell_volume 2827.290858
_symmetry_space_group_name_H-M "C M C M"
_symmetry_group_IT_number 63
_symmetry_cell_setting 'orthorhombic'
loop_
_space_group_symop_operation_xyz
x,y,z
-x,-y,1/2+z
x,-y,-z
-x,y,1/2-z
-x,-y,-z
x,y,1/2-z
-x,y,z
x,-y,1/2+z
1/2+x,1/2+y,z
1/2-x,1/2-y,1/2+z
1/2+x,1/2-y,-z
1/2-x,1/2+y,1/2-z
1/2-x,1/2-y,-z
1/2+x,1/2+y,1/2-z
1/2-x,1/2+y,z
1/2+x,1/2-y,1/2+z
loop_
_atom_site_type_symbol
_atom_site_label
_atom_site_fract_x
_atom_site_fract_y
_atom_site_fract_z
Si Si1 0.811707 0.873473 0.568080
Si Si2 0.885639 0.761411 0.073114
Si Si3 0.500000 0.562359 0.933306
Si Si4 0.889983 0.637043 0.933230
O O1 0.816788 0.877730 0.750000
O O2 0.826720 0.808866 0.516172
O O3 0.901727 0.906930 0.493077
O O4 0.704503 0.892235 0.508055
O O5 0.852441 0.756811 0.250000
O O6 0.000000 0.779994 0.075454
O O7 0.885743 0.701195 0.992815
O O8 0.500000 0.562294 0.750000
O O9 0.500000 0.500000 0.000000
O O10 0.880647 0.636328 0.750000
O O11 0.000000 0.615762 0.974060
#
# Coordination Sequence:
#
# PCOD9470500 Si02
#       4
#    16  16   8  16
#     4  12  23  37  59  85 117 155 196 243 298 353
#     4  10  19  32  52  80 117 159 201 244 291 348
#     4  12  26  46  68  92 118 148 194 248 303 356
#     4  10  21  36  55  82 119 161 203 243 288 348
#
# _framework density 19.806947000000001
#
# number of rings (size 3 to 8) (size 9 to 14) (size 15 to 20)
#    0.000    1.143    1.429    6.429    0.000    2.857 
#    0.000    0.000    0.000    0.857    0.000    0.000 
#    0.000    0.000    0.000    0.000    0.000    0.000 
#
# Total GULP energy -156538.781682 kJ/mol
# GULP energy per Si atom -5590.670774 kJ/mol
# Density = 1.976187 g / cm^3
# Si number density = 19.806947 Si / 1000 Ang^3
#
#
#
# Elastic Constant Matrix: (Units=GPa)
#
#
# Indices 1 2 3 4 5 6 
#
# 1 195.9826 33.7830 79.4672 0.0000 0.0000 0.0000
# 2 33.7830 29.5182 16.4630 0.0000 0.0000 0.0000
# 3 79.4672 16.4630 163.0621 0.0000 0.0000 0.0000
# 4 0.0000 0.0000 0.0000 23.3220 0.0000 0.0000
# 5 0.0000 0.0000 0.0000 0.0000 36.0873 0.0000
# 6 0.0000 0.0000 0.0000 0.0000 0.0000 8.5584
#
#
#
# Elastic Compliance Matrix: (Units=1/GPa)
#
#
# Indices 1 2 3 4 5 6 
#
# 1 0.007494 -0.006930 -0.002953 0.000000 0.000000 0.000000
# 2 -0.006930 0.042308 -0.000894 0.000000 0.000000 0.000000
# 3 -0.002953 -0.000894 0.007662 0.000000 0.000000 0.000000
# 4 0.000000 0.000000 0.000000 0.042878 0.000000 0.000000
# 5 0.000000 0.000000 0.000000 0.000000 0.027711 0.000000
# 6 0.000000 0.000000 0.000000 0.000000 0.000000 0.116844
#
#
# Mechanical properties :
#
#
# Convention : Reuss Voigt Hill
#
# Bulk Modulus (GPa) = 27.84747 71.99882 49.92315
# Shear Modulus (GPa) = 17.95843 30.85018 24.40430
#
# Velocity S-wave (km/s) = 3.01437 3.95085 3.51395
# Velocity P-wave (km/s) = 5.11910 7.56581 6.45936
#
# Compressibility (1/GPa) = 0.03590990
#
# Stress axis : x y z
#
# Youngs Moduli (GPa) = 133.43337 23.63635 130.51715
#
# Poissons Ratio (x) = 0.16381 0.38537
# Poissons Ratio (y) = 0.92475 0.11668
# Poissons Ratio (z) = 0.39398 0.02113
#
# Static dielectric constant tensor:
#      x y z
#    x 1.783330 0.000000 0.000000 
#    y 0.000000 1.756060 0.000000 
#    z 0.000000 0.000000 1.658860 
# 
# From -- ./inp_files/4450.got.cif
#   From: 2010.05.17/outbox.cif.g08.bks.cpg/sg63_3_cif.got.tgz:4450.got - 2010.06.03 15:47:04.
