data_PCOD9470456
_publ_section_title
;
Structure prediction by ZEFSAII (Michael W. Deem and Ramdas Pophale) SiO2 
 PCOD9470456
Probable space group: C M C M
;
_chemical_formula_sum "Si O2"
_cell_formula_units_Z 116
_cell_length_a 25.285163
_cell_length_b 27.149844
_cell_length_c 8.094671
_cell_angle_alpha 90.000000
_cell_angle_beta 90.000000
_cell_angle_gamma 90.000000
_cell_volume 5556.896375
_symmetry_space_group_name_H-M "C M C M"
_symmetry_group_IT_number 63
_symmetry_cell_setting 'orthorhombic'
loop_
_space_group_symop_operation_xyz
x,y,z
-x,-y,1/2+z
x,-y,-z
-x,y,1/2-z
-x,-y,-z
x,y,1/2-z
-x,y,z
x,-y,1/2+z
1/2+x,1/2+y,z
1/2-x,1/2-y,1/2+z
1/2+x,1/2-y,-z
1/2-x,1/2+y,1/2-z
1/2-x,1/2-y,-z
1/2+x,1/2+y,1/2-z
1/2-x,1/2+y,z
1/2+x,1/2-y,1/2+z
loop_
_atom_site_type_symbol
_atom_site_label
_atom_site_fract_x
_atom_site_fract_y
_atom_site_fract_z
Si Si1 0.557359 0.402291 0.552289
Si Si2 0.167589 0.071309 0.936218
Si Si3 0.279894 0.051096 0.552253
Si Si4 0.585344 0.291705 0.559562
Si Si5 0.804600 0.340371 0.557814
Si Si6 0.694837 0.311911 0.067235
Si Si7 0.574349 0.187661 0.440644
Si Si8 0.000000 0.338229 0.250000
O O1 0.555757 0.400423 0.750000
O O2 0.500000 0.419544 0.490479
O O3 0.609325 0.433013 0.508360
O O4 0.566743 0.345379 0.498199
O O5 0.164719 0.052149 0.750000
O O6 0.220033 0.050693 0.021905
O O7 0.181497 0.129596 0.930007
O O8 0.276292 0.052694 0.750000
O O9 0.304746 0.102532 0.497685
O O10 0.306555 0.000000 0.500000
O O11 0.568426 0.285797 0.750000
O O12 0.649430 0.291091 0.550157
O O13 0.563900 0.246055 0.457436
O O14 0.790888 0.339600 0.750000
O O15 0.756846 0.310594 0.472447
O O16 0.862961 0.319836 0.534848
O O17 0.685360 0.291000 0.250000
O O18 0.562067 0.171720 0.250000
O O19 0.545146 0.163779 0.598498
#
# Coordination Sequence:
#
# PCOD9470456 Si02
#       8
#    16  16  16  16  16  16  16   4
#     4   9  18  29  46  70  99 140 193 243 284 323
#     4   8  16  30  45  70 104 140 177 218 274 333
#     4  10  20  34  58  87 116 141 170 213 273 343
#     4  10  19  32  52  76 110 153 199 245 298 335
#     4  10  21  37  57  84 117 147 185 228 279 346
#     4   9  17  30  51  76 110 150 188 234 284 343
#     4  11  25  41  60  85 113 151 198 244 289 339
#     4  12  26  44  64  78 114 156 192 248 286 334
#
# _framework density 20.874962
#
# number of rings (size 3 to 8) (size 9 to 14) (size 15 to 20)
#    0.000    2.345    0.690    2.690    2.897    5.241 
#    0.000    0.000    0.000    0.414    0.000    0.483 
#    0.000    0.000    0.000    0.000    0.000    0.000 
#
# Total GULP energy -322913.953360 kJ/mol
# GULP energy per Si atom -5567.481954 kJ/mol
# Density = 2.082745 g / cm^3
# Si number density = 20.874962 Si / 1000 Ang^3
#
#
#
# Elastic Constant Matrix: (Units=GPa)
#
#
# Indices 1 2 3 4 5 6 
#
# 1 83.8278 -8.0363 25.1790 0.0000 0.0000 0.0000
# 2 -8.0363 51.7606 0.2946 0.0000 0.0000 0.0000
# 3 25.1790 0.2946 84.8653 0.0000 0.0000 0.0000
# 4 0.0000 0.0000 0.0000 13.6524 0.0000 0.0000
# 5 0.0000 0.0000 0.0000 0.0000 33.4525 0.0000
# 6 0.0000 0.0000 0.0000 0.0000 0.0000 47.8110
#
#
#
# Elastic Compliance Matrix: (Units=1/GPa)
#
#
# Indices 1 2 3 4 5 6 
#
# 1 0.013319 0.002090 -0.003959 0.000000 0.000000 0.000000
# 2 0.002090 0.019648 -0.000688 0.000000 0.000000 0.000000
# 3 -0.003959 -0.000688 0.012960 0.000000 0.000000 0.000000
# 4 0.000000 0.000000 0.000000 0.073247 0.000000 0.000000
# 5 0.000000 0.000000 0.000000 0.000000 0.029893 0.000000
# 6 0.000000 0.000000 0.000000 0.000000 0.000000 0.020916
#
#
# Mechanical properties :
#
#
# Convention : Reuss Voigt Hill
#
# Bulk Modulus (GPa) = 24.50171 28.36983 26.43577
# Shear Modulus (GPa) = 26.49685 32.51759 29.50722
#
# Velocity S-wave (km/s) = 3.56661 3.95109 3.76376
# Velocity P-wave (km/s) = 5.35945 5.86811 5.61954
#
# Compressibility (1/GPa) = 0.04081348
#
# Stress axis : x y z
#
# Youngs Moduli (GPa) = 75.08233 50.89529 77.15851
#
# Poissons Ratio (x) = -0.10639 0.30546
# Poissons Ratio (y) = -0.15695 0.05312
# Poissons Ratio (z) = 0.29724 0.03504
#
# Static dielectric constant tensor:
#      x y z
#    x 1.781860 0.000000 0.000000 
#    y 0.000000 1.776700 0.000000 
#    z 0.000000 0.000000 1.751310 
# 
# From -- ./inp_files/11162.got.cif
#   From: 2010.05.17/outbox.cif.g08.bks.cpg/sg63_6_cif.got.tgz:11162.got - 2010.06.03 15:47:04.
