data_PCOD9470689
_publ_section_title
;
Structure prediction by ZEFSAII (Michael W. Deem and Ramdas Pophale) SiO2 
 PCOD9470689
Probable space group: C M C M
;
_chemical_formula_sum "Si O2"
_cell_formula_units_Z 80
_cell_length_a 7.485383
_cell_length_b 23.765884
_cell_length_c 21.222694
_cell_angle_alpha 90.000000
_cell_angle_beta 90.000000
_cell_angle_gamma 90.000000
_cell_volume 3775.448163
_symmetry_space_group_name_H-M "C M C M"
_symmetry_group_IT_number 63
_symmetry_cell_setting 'orthorhombic'
loop_
_space_group_symop_operation_xyz
x,y,z
-x,-y,1/2+z
x,-y,-z
-x,y,1/2-z
-x,-y,-z
x,y,1/2-z
-x,y,z
x,-y,1/2+z
1/2+x,1/2+y,z
1/2-x,1/2-y,1/2+z
1/2+x,1/2-y,-z
1/2-x,1/2+y,1/2-z
1/2-x,1/2-y,-z
1/2+x,1/2+y,1/2-z
1/2-x,1/2+y,z
1/2+x,1/2-y,1/2+z
loop_
_atom_site_type_symbol
_atom_site_label
_atom_site_fract_x
_atom_site_fract_y
_atom_site_fract_z
Si Si1 0.287869 0.249350 0.924560
Si Si2 0.219231 0.933421 0.250000
Si Si3 0.218469 0.935659 0.999107
Si Si4 0.281802 0.434991 0.750000
Si Si5 0.210311 0.126474 0.622963
Si Si6 0.781534 0.131068 0.124805
O O1 0.500000 0.250308 0.919721
O O2 0.226778 0.192704 0.890063
O O3 0.220269 0.305397 0.889446
O O4 0.250000 0.250000 0.000000
O O5 0.280535 0.899770 0.312222
O O6 0.000000 0.933339 0.250000
O O7 0.273218 0.999280 0.250000
O O8 0.273995 0.904971 0.935648
O O9 0.000000 0.934027 0.999368
O O10 0.284360 0.903937 0.061028
O O11 0.273117 0.000000 0.000000
O O12 0.500000 0.435936 0.750000
O O13 0.224494 0.400362 0.811771
O O14 0.000000 0.113525 0.624095
O O15 0.000000 0.132084 0.126395
#
# Coordination Sequence:
#
# PCOD9470689 Si02
#       6
#    16   8  16   8  16  16
#     4  11  21  35  54  78 107 141 179 223 272 317
#     4   9  18  31  51  79 109 139 170 215 270 314
#     4   9  15  25  45  72  99 130 171 217 259 300
#     4   9  16  29  48  77 111 133 164 221 274 314
#     4  10  19  33  52  78 109 139 176 218 263 320
#     4   9  17  28  45  72 103 134 167 210 263 310
#
# _framework density 21.189537000000001
#
# number of rings (size 3 to 8) (size 9 to 14) (size 15 to 20)
#    0.000    2.400    2.000    1.800    0.000    5.600 
#    0.000    1.500    0.000    0.600    0.000    2.800 
#    0.000    0.000    0.000    0.000    0.000    0.000 
#
# Total GULP energy -223348.341578 kJ/mol
# GULP energy per Si atom -5583.708539 kJ/mol
# Density = 2.114131 g / cm^3
# Si number density = 21.189537 Si / 1000 Ang^3
#
#
#
# Elastic Constant Matrix: (Units=GPa)
#
#
# Indices 1 2 3 4 5 6 
#
# 1 55.3292 -11.6347 5.6508 0.0000 0.0000 0.0000
# 2 -11.6347 225.0136 148.5386 0.0000 0.0000 0.0000
# 3 5.6508 148.5386 245.8192 0.0000 0.0000 0.0000
# 4 0.0000 0.0000 0.0000 29.6770 0.0000 0.0000
# 5 0.0000 0.0000 0.0000 0.0000 21.3738 0.0000
# 6 0.0000 0.0000 0.0000 0.0000 0.0000 18.5799
#
#
#
# Elastic Compliance Matrix: (Units=1/GPa)
#
#
# Indices 1 2 3 4 5 6 
#
# 1 0.018683 0.002079 -0.001686 0.000000 0.000000 0.000000
# 2 0.002079 0.007625 -0.004655 0.000000 0.000000 0.000000
# 3 -0.001686 -0.004655 0.006920 0.000000 0.000000 0.000000
# 4 0.000000 0.000000 0.000000 0.033696 0.000000 0.000000
# 5 0.000000 0.000000 0.000000 0.000000 0.046786 0.000000
# 6 0.000000 0.000000 0.000000 0.000000 0.000000 0.053822
#
#
# Mechanical properties :
#
#
# Convention : Reuss Voigt Hill
#
# Bulk Modulus (GPa) = 40.48027 90.14129 65.31078
# Shear Modulus (GPa) = 27.13127 39.49996 33.31561
#
# Velocity S-wave (km/s) = 3.58216 4.32224 3.96948
# Velocity P-wave (km/s) = 6.02117 8.21838 7.20404
#
# Compressibility (1/GPa) = 0.02470339
#
# Stress axis : x y z
#
# Youngs Moduli (GPa) = 53.52487 131.15475 144.51674
#
# Poissons Ratio (x) = -0.27264 0.24359
# Poissons Ratio (y) = -0.11126 0.67273
# Poissons Ratio (z) = 0.09022 0.61053
#
# Static dielectric constant tensor:
#      x y z
#    x 1.826820 0.000000 0.000000 
#    y 0.000000 1.691680 0.000000 
#    z 0.000000 0.000000 1.718700 
# 
# From -- ./inp_files/40632.got.cif
#   From: 2010.05.17/outbox.cif.g08.bks.cpg/sg63_21_cif.got.tgz:40632.got - 2010.06.03 15:47:04.
