data_PCOD9470355
_publ_section_title
;
Structure prediction by ZEFSAII (Michael W. Deem and Ramdas Pophale) SiO2 
 PCOD9470355
Probable space group: C M C M
;
_chemical_formula_sum "Si O2"
_cell_formula_units_Z 112
_cell_length_a 13.038072
_cell_length_b 28.349413
_cell_length_c 16.197635
_cell_angle_alpha 90.000000
_cell_angle_beta 90.000000
_cell_angle_gamma 90.000000
_cell_volume 5986.997188
_symmetry_space_group_name_H-M "C M C M"
_symmetry_group_IT_number 63
_symmetry_cell_setting 'orthorhombic'
loop_
_space_group_symop_operation_xyz
x,y,z
-x,-y,1/2+z
x,-y,-z
-x,y,1/2-z
-x,-y,-z
x,y,1/2-z
-x,y,z
x,-y,1/2+z
1/2+x,1/2+y,z
1/2-x,1/2-y,1/2+z
1/2+x,1/2-y,-z
1/2-x,1/2+y,1/2-z
1/2-x,1/2-y,-z
1/2+x,1/2+y,1/2-z
1/2-x,1/2+y,z
1/2+x,1/2-y,1/2+z
loop_
_atom_site_type_symbol
_atom_site_label
_atom_site_fract_x
_atom_site_fract_y
_atom_site_fract_z
Si Si1 0.618603 0.577307 0.154072
Si Si2 0.193248 0.726337 0.576653
Si Si3 0.382489 0.566994 0.655303
Si Si4 0.762316 0.551412 0.498908
Si Si5 0.116644 0.353016 0.968734
Si Si6 0.204576 0.179366 0.154879
Si Si7 0.891292 0.180547 0.845067
O O1 0.646171 0.565651 0.250000
O O2 0.500000 0.564598 0.141166
O O3 0.631763 0.633967 0.145622
O O4 0.691099 0.555963 0.083311
O O5 0.250000 0.750000 0.500000
O O6 0.120857 0.685410 0.542497
O O7 0.153855 0.771370 0.627200
O O8 0.287346 0.701379 0.622050
O O9 0.351994 0.554187 0.750000
O O10 0.500000 0.550275 0.643117
O O11 0.308935 0.552873 0.580683
O O12 0.386303 0.623985 0.651490
O O13 0.814155 0.500000 0.500000
O O14 0.836933 0.596638 0.496948
O O15 0.194830 0.332899 0.899557
O O16 0.000000 0.357951 0.939526
O O17 0.234715 0.183305 0.250000
O O18 0.896842 0.194444 0.750000
O O19 0.000000 0.195398 0.886092
#
# Coordination Sequence:
#
# PCOD9470355 Si02
#       7
#    16  16  16  16  16  16  16
#     4   9  19  36  56  82 117 148 176 219 279 347
#     4  10  19  32  50  78 111 141 174 218 265 320
#     4   9  18  33  55  83 111 138 172 220 279 339
#     4  11  22  37  58  82 108 145 191 236 282 331
#     4  10  22  39  55  77 110 148 189 233 278 318
#     4   9  19  35  57  84 110 142 183 224 271 327
#     4   9  17  31  53  77 102 136 174 216 270 325
#
# _framework density 18.707208000000001
#
# number of rings (size 3 to 8) (size 9 to 14) (size 15 to 20)
#    0.000    2.429    1.429    1.714    0.000    5.143 
#    0.000    1.429    0.000    3.429    0.000    2.000 
#    0.000    0.000    0.000    0.000    0.000    0.000 
#
# Total GULP energy -311996.962257 kJ/mol
# GULP energy per Si atom -5571.374326 kJ/mol
# Density = 1.866463 g / cm^3
# Si number density = 18.707208 Si / 1000 Ang^3
#
#
#
# Elastic Constant Matrix: (Units=GPa)
#
#
# Indices 1 2 3 4 5 6 
#
# 1 40.6558 17.6234 15.6989 0.0000 0.0000 0.0000
# 2 17.6234 118.6360 33.5877 0.0000 0.0000 0.0000
# 3 15.6989 33.5877 71.0843 0.0000 0.0000 0.0000
# 4 0.0000 0.0000 0.0000 -11.0632 0.0000 0.0000
# 5 0.0000 0.0000 0.0000 0.0000 18.7251 0.0000
# 6 0.0000 0.0000 0.0000 0.0000 0.0000 -5.9413
#
#
#
# Elastic Compliance Matrix: (Units=1/GPa)
#
#
# Indices 1 2 3 4 5 6 
#
# 1 0.027643 -0.002745 -0.004808 0.000000 0.000000 0.000000
# 2 -0.002745 0.010004 -0.004120 0.000000 0.000000 0.000000
# 3 -0.004808 -0.004120 0.017077 0.000000 0.000000 0.000000
# 4 0.000000 0.000000 0.000000 -0.090390 0.000000 0.000000
# 5 0.000000 0.000000 0.000000 0.000000 0.053404 0.000000
# 6 0.000000 0.000000 0.000000 0.000000 0.000000 -0.168314
#
#
# Mechanical properties :
#
#
# Convention : Reuss Voigt Hill
#
# Bulk Modulus (GPa) = 31.87122 40.46625 36.16874
# Shear Modulus (GPa) = -42.81896 11.24187 -15.78854
#
# Velocity S-wave (km/s) = -4.78944 2.45406 -2.90829
# Velocity P-wave (km/s) = 3.67574 5.45053 2.84580
#
# Compressibility (1/GPa) = 0.03137627
#
# Stress axis : x y z
#
# Youngs Moduli (GPa) = 36.17518 99.96491 58.55990
#
# Poissons Ratio (x) = 0.27443 0.28155
# Poissons Ratio (y) = 0.09931 0.24129
# Poissons Ratio (z) = 0.17392 0.41190
#
# Static dielectric constant tensor:
#      x y z
#    x 1.568230 0.000000 0.000000 
#    y 0.000000 1.871840 0.000000 
#    z 0.000000 0.000000 1.657810 
# 
# From -- ./inp_files/30420.got.cif
#   From: 2010.05.17/outbox.cif.g08.bks.cpg/sg63_16_cif.got.tgz:30420.got - 2010.06.03 15:47:04.
