data_PCOD9470435
_publ_section_title
;
Structure prediction by ZEFSAII (Michael W. Deem and Ramdas Pophale) SiO2 
 PCOD9470435
Probable space group: C M C M
;
_chemical_formula_sum "Si O2"
_cell_formula_units_Z 72
_cell_length_a 23.792758
_cell_length_b 13.661053
_cell_length_c 14.134271
_cell_angle_alpha 90.000000
_cell_angle_beta 90.000000
_cell_angle_gamma 90.000000
_cell_volume 4594.120450
_symmetry_space_group_name_H-M "C M C M"
_symmetry_group_IT_number 63
_symmetry_cell_setting 'orthorhombic'
loop_
_space_group_symop_operation_xyz
x,y,z
-x,-y,1/2+z
x,-y,-z
-x,y,1/2-z
-x,-y,-z
x,y,1/2-z
-x,y,z
x,-y,1/2+z
1/2+x,1/2+y,z
1/2-x,1/2-y,1/2+z
1/2+x,1/2-y,-z
1/2-x,1/2+y,1/2-z
1/2-x,1/2-y,-z
1/2+x,1/2+y,1/2-z
1/2-x,1/2+y,z
1/2+x,1/2-y,1/2+z
loop_
_atom_site_type_symbol
_atom_site_label
_atom_site_fract_x
_atom_site_fract_y
_atom_site_fract_z
Si Si1 0.756874 0.165900 0.750000
Si Si2 0.770610 0.394307 0.460380
Si Si3 0.864228 0.943623 0.250000
Si Si4 0.822217 0.840398 0.750000
Si Si5 0.841371 0.794097 0.962158
Si Si6 0.935970 0.095014 0.566446
O O1 0.735511 0.115467 0.846713
O O2 0.823229 0.149563 0.750000
O O3 0.763685 0.778916 0.750000
O O4 0.785453 0.500000 0.500000
O O5 0.816554 0.312348 0.486346
O O6 0.710054 0.365223 0.505504
O O7 0.903611 0.939147 0.340402
O O8 0.825890 0.041888 0.250000
O O9 0.849482 0.806731 0.849257
O O10 0.897400 0.823922 0.016201
O O11 0.000000 0.126491 0.584608
O O12 0.937318 0.000000 0.500000
#
# Coordination Sequence:
#
# PCOD9470435 Si02
#       6
#     8  16   8   8  16  16
#     4  10  20  31  49  77 105 130 167 206 255 309
#     4  10  19  32  52  75 102 137 169 204 263 314
#     4  12  19  34  52  73 110 135 169 208 256 308
#     4  10  20  31  51  74 101 137 163 212 255 303
#     4  10  19  34  50  73 105 133 169 215 255 307
#     4  11  22  35  51  73 100 138 178 211 253 300
#
# _framework density 15.672205
#
# number of rings (size 3 to 8) (size 9 to 14) (size 15 to 20)
#    0.000    1.556    4.444    2.333    0.000    0.000 
#    0.000    0.556    0.000    0.667    0.000    0.000 
#    0.000    0.000    0.000    0.000    0.000    0.000 
#
# Total GULP energy -200677.731200 kJ/mol
# GULP energy per Si atom -5574.381422 kJ/mol
# Density = 1.563653 g / cm^3
# Si number density = 15.672205 Si / 1000 Ang^3
#
#
#
# Elastic Constant Matrix: (Units=GPa)
#
#
# Indices 1 2 3 4 5 6 
#
# 1 105.3714 56.6879 34.9765 0.0000 0.0000 0.0000
# 2 56.6879 90.6403 34.4821 0.0000 0.0000 0.0000
# 3 34.9765 34.4821 99.9845 0.0000 0.0000 0.0000
# 4 0.0000 0.0000 0.0000 21.2116 0.0000 0.0000
# 5 0.0000 0.0000 0.0000 0.0000 -25.5009 0.0000
# 6 0.0000 0.0000 0.0000 0.0000 0.0000 17.3244
#
#
#
# Elastic Compliance Matrix: (Units=1/GPa)
#
#
# Indices 1 2 3 4 5 6 
#
# 1 0.014739 -0.008352 -0.002275 0.000000 0.000000 0.000000
# 2 -0.008352 0.017432 -0.003090 0.000000 0.000000 0.000000
# 3 -0.002275 -0.003090 0.011863 0.000000 0.000000 0.000000
# 4 0.000000 0.000000 0.000000 0.047144 0.000000 0.000000
# 5 0.000000 0.000000 0.000000 0.000000 -0.039214 0.000000
# 6 0.000000 0.000000 0.000000 0.000000 0.000000 0.057722
#
#
# Mechanical properties :
#
#
# Convention : Reuss Voigt Hill
#
# Bulk Modulus (GPa) = 60.24668 60.92103 60.58385
# Shear Modulus (GPa) = 35.04984 13.93034 24.49009
#
# Velocity S-wave (km/s) = 4.73422 2.98460 3.95732
# Velocity P-wave (km/s) = 8.27098 7.12977 7.72148
#
# Compressibility (1/GPa) = 0.01659842
#
# Stress axis : x y z
#
# Youngs Moduli (GPa) = 67.84746 57.36639 84.29425
#
# Poissons Ratio (x) = 0.47914 0.19181
# Poissons Ratio (y) = 0.56668 0.26047
# Poissons Ratio (z) = 0.15438 0.17726
#
# Static dielectric constant tensor:
#      x y z
#    x 1.504990 0.000000 0.000000 
#    y 0.000000 1.523010 0.000000 
#    z 0.000000 0.000000 1.581320 
# 
# From -- ./inp_files/36411.got.cif
#   From: 2010.05.17/outbox.cif.g08.bks.cpg/sg63_19_cif.got.tgz:36411.got - 2010.06.03 15:47:04.
