data_PCOD9470361
_publ_section_title
;
Structure prediction by ZEFSAII (Michael W. Deem and Ramdas Pophale) SiO2 
 PCOD9470361
Probable space group: C M C M
;
_chemical_formula_sum "Si O2"
_cell_formula_units_Z 96
_cell_length_a 8.925519
_cell_length_b 24.132100
_cell_length_c 26.507451
_cell_angle_alpha 90.000000
_cell_angle_beta 90.000000
_cell_angle_gamma 90.000000
_cell_volume 5709.480084
_symmetry_space_group_name_H-M "C M C M"
_symmetry_group_IT_number 63
_symmetry_cell_setting 'orthorhombic'
loop_
_space_group_symop_operation_xyz
x,y,z
-x,-y,1/2+z
x,-y,-z
-x,y,1/2-z
-x,-y,-z
x,y,1/2-z
-x,y,z
x,-y,1/2+z
1/2+x,1/2+y,z
1/2-x,1/2-y,1/2+z
1/2+x,1/2-y,-z
1/2-x,1/2+y,1/2-z
1/2-x,1/2-y,-z
1/2+x,1/2+y,1/2-z
1/2-x,1/2+y,z
1/2+x,1/2-y,1/2+z
loop_
_atom_site_type_symbol
_atom_site_label
_atom_site_fract_x
_atom_site_fract_y
_atom_site_fract_z
Si Si1 0.176692 0.106914 0.569246
Si Si2 0.179964 0.408548 0.809351
Si Si3 0.174809 0.421562 0.532615
Si Si4 0.177580 0.725771 0.948638
Si Si5 0.675588 0.989988 0.121191
Si Si6 0.322501 0.664077 0.392383
O O1 0.225248 0.077794 0.516860
O O2 0.253105 0.167070 0.566593
O O3 0.234966 0.066411 0.613179
O O4 0.000000 0.113342 0.571599
O O5 0.209406 0.407737 0.750000
O O6 0.223583 0.467350 0.834918
O O7 0.263285 0.359891 0.839613
O O8 0.000000 0.402924 0.817638
O O9 0.189237 0.473449 0.570075
O O10 0.229553 0.369587 0.565605
O O11 0.000000 0.416577 0.518354
O O12 0.200072 0.771537 0.904871
O O13 0.000000 0.719644 0.957151
O O14 0.250000 0.750000 0.000000
O O15 0.500000 0.977222 0.128137
O O16 0.500000 0.652146 0.397817
#
# Coordination Sequence:
#
# PCOD9470361 Si02
#       6
#    16  16  16  16  16  16
#     4  12  23  32  47  73 106 144 181 216 258 309
#     4   9  19  37  61  84 105 134 171 214 270 328
#     4  10  19  32  51  72 102 142 178 215 259 309
#     4  11  22  35  52  74 106 146 184 219 259 311
#     4   9  19  34  51  74 103 136 174 215 262 315
#     4  10  20  33  52  80 108 136 176 222 265 310
#
# _framework density 16.814139999999998
#
# number of rings (size 3 to 8) (size 9 to 14) (size 15 to 20)
#    0.000    1.833    1.667    4.500    0.000    7.667 
#    0.000    0.000    0.000    1.000    0.000    2.333 
#    0.000    0.000    0.000    0.000    0.000    0.000 
#
# Total GULP energy -267881.675131 kJ/mol
# GULP energy per Si atom -5580.868232 kJ/mol
# Density = 1.677587 g / cm^3
# Si number density = 16.814140 Si / 1000 Ang^3
#
#
#
# Elastic Constant Matrix: (Units=GPa)
#
#
# Indices 1 2 3 4 5 6 
#
# 1 92.8895 60.2505 35.2129 0.0000 0.0000 0.0000
# 2 60.2505 92.3768 44.2442 0.0000 0.0000 0.0000
# 3 35.2129 44.2442 77.8656 0.0000 0.0000 0.0000
# 4 0.0000 0.0000 0.0000 9.4255 0.0000 0.0000
# 5 0.0000 0.0000 0.0000 0.0000 21.0148 0.0000
# 6 0.0000 0.0000 0.0000 0.0000 0.0000 25.2595
#
#
#
# Elastic Compliance Matrix: (Units=1/GPa)
#
#
# Indices 1 2 3 4 5 6 
#
# 1 0.018911 -0.011318 -0.002121 0.000000 0.000000 0.000000
# 2 -0.011318 0.021647 -0.007182 0.000000 0.000000 0.000000
# 3 -0.002121 -0.007182 0.017882 0.000000 0.000000 0.000000
# 4 0.000000 0.000000 0.000000 0.106095 0.000000 0.000000
# 5 0.000000 0.000000 0.000000 0.000000 0.047586 0.000000
# 6 0.000000 0.000000 0.000000 0.000000 0.000000 0.039589
#
#
# Mechanical properties :
#
#
# Convention : Reuss Voigt Hill
#
# Bulk Modulus (GPa) = 58.14380 60.28300 59.21340
# Shear Modulus (GPa) = 16.74007 19.36823 18.05415
#
# Velocity S-wave (km/s) = 3.15873 3.39765 3.28036
# Velocity P-wave (km/s) = 6.92523 7.16397 7.04561
#
# Compressibility (1/GPa) = 0.01719874
#
# Stress axis : x y z
#
# Youngs Moduli (GPa) = 52.87986 46.19572 55.92086
#
# Poissons Ratio (x) = 0.52286 0.11859
# Poissons Ratio (y) = 0.59851 0.40160
# Poissons Ratio (z) = 0.11214 0.33176
#
# Static dielectric constant tensor:
#      x y z
#    x 1.566830 0.000000 0.000000 
#    y 0.000000 1.583990 0.000000 
#    z 0.000000 0.000000 1.563770 
# 
# From -- ./inp_files/67237.got.cif
#   From: 2010.05.17/outbox.cif.g08.bks.cpg/sg63_34_cif.got.tgz:67237.got - 2010.06.03 15:47:04.
