data_PCOD9470277
_publ_section_title
;
Structure prediction by ZEFSAII (Michael W. Deem and Ramdas Pophale) SiO2 
 PCOD9470277
Probable space group: C M C M
;
_chemical_formula_sum "Si O2"
_cell_formula_units_Z 96
_cell_length_a 8.659497
_cell_length_b 30.757702
_cell_length_c 21.401776
_cell_angle_alpha 90.000000
_cell_angle_beta 90.000000
_cell_angle_gamma 90.000000
_cell_volume 5700.282314
_symmetry_space_group_name_H-M "C M C M"
_symmetry_group_IT_number 63
_symmetry_cell_setting 'orthorhombic'
loop_
_space_group_symop_operation_xyz
x,y,z
-x,-y,1/2+z
x,-y,-z
-x,y,1/2-z
-x,-y,-z
x,y,1/2-z
-x,y,z
x,-y,1/2+z
1/2+x,1/2+y,z
1/2-x,1/2-y,1/2+z
1/2+x,1/2-y,-z
1/2-x,1/2+y,1/2-z
1/2-x,1/2-y,-z
1/2+x,1/2+y,1/2-z
1/2-x,1/2+y,z
1/2+x,1/2-y,1/2+z
loop_
_atom_site_type_symbol
_atom_site_label
_atom_site_fract_x
_atom_site_fract_y
_atom_site_fract_z
Si Si1 0.186612 0.944055 0.681264
Si Si2 0.819886 0.870372 0.987815
Si Si3 0.188005 0.783860 0.448622
Si Si4 0.320486 0.654449 0.344458
Si Si5 0.184138 0.462286 0.952997
Si Si6 0.184767 0.746333 0.317204
O O1 0.232594 0.961385 0.750000
O O2 0.231755 0.892953 0.678480
O O3 0.249622 0.965059 0.617605
O O4 0.000000 0.945091 0.677642
O O5 0.812944 0.848320 0.919424
O O6 0.731246 0.915593 0.981608
O O7 0.000000 0.880234 0.000585
O O8 0.764055 0.833091 0.034728
O O9 0.250000 0.750000 0.500000
O O10 0.242249 0.769489 0.379942
O O11 0.000000 0.782682 0.451235
O O12 0.500000 0.660080 0.326462
O O13 0.225507 0.695485 0.322072
O O14 0.000000 0.464759 0.948464
O O15 0.239218 0.500000 0.000000
O O16 0.243514 0.762715 0.250000
O O17 0.000000 0.751029 0.317575
#
# Coordination Sequence:
#
# PCOD9470277 Si02
#       6
#    16  16  16  16  16  16
#     4   9  18  32  50  73 102 133 163 199 245 300
#     4   9  18  32  50  71  94 127 169 208 248 292
#     4  10  19  32  49  69  96 129 168 205 239 284
#     4   9  16  28  45  67  96 127 159 194 235 286
#     4  10  21  35  52  76 103 130 164 207 257 305
#     4  10  20  30  42  65  97 130 162 200 245 287
#
# _framework density 16.841270999999999
#
# number of rings (size 3 to 8) (size 9 to 14) (size 15 to 20)
#    0.000    2.500    1.667    2.000    0.000    6.000 
#    0.000    0.000    0.000    1.000    0.000    2.333 
#    0.000    0.000    0.000    0.000    0.000    0.000 
#
# Total GULP energy -267452.458408 kJ/mol
# GULP energy per Si atom -5571.926217 kJ/mol
# Density = 1.680294 g / cm^3
# Si number density = 16.841271 Si / 1000 Ang^3
#
#
#
# Elastic Constant Matrix: (Units=GPa)
#
#
# Indices 1 2 3 4 5 6 
#
# 1 12.0030 16.0025 26.6652 0.0000 0.0000 0.0000
# 2 16.0025 73.1370 71.0701 0.0000 0.0000 0.0000
# 3 26.6652 71.0701 162.2739 0.0000 0.0000 0.0000
# 4 0.0000 0.0000 0.0000 15.0572 0.0000 0.0000
# 5 0.0000 0.0000 0.0000 0.0000 14.9088 0.0000
# 6 0.0000 0.0000 0.0000 0.0000 0.0000 21.0526
#
#
#
# Elastic Compliance Matrix: (Units=1/GPa)
#
#
# Indices 1 2 3 4 5 6 
#
# 1 0.139348 -0.014343 -0.016616 0.000000 0.000000 0.000000
# 2 -0.014343 0.025280 -0.008715 0.000000 0.000000 0.000000
# 3 -0.016616 -0.008715 0.012710 0.000000 0.000000 0.000000
# 4 0.000000 0.000000 0.000000 0.066413 0.000000 0.000000
# 5 0.000000 0.000000 0.000000 0.000000 0.067074 0.000000
# 6 0.000000 0.000000 0.000000 0.000000 0.000000 0.047500
#
#
# Mechanical properties :
#
#
# Convention : Reuss Voigt Hill
#
# Bulk Modulus (GPa) = 10.20518 52.76552 31.48535
# Shear Modulus (GPa) = 10.63069 19.11546 14.87308
#
# Velocity S-wave (km/s) = 2.51515 3.37269 2.97498
# Velocity P-wave (km/s) = 3.80886 6.82391 5.52599
#
# Compressibility (1/GPa) = 0.09798946
#
# Stress axis : x y z
#
# Youngs Moduli (GPa) = 7.17627 39.55755 78.68071
#
# Poissons Ratio (x) = 0.56737 1.30739
# Poissons Ratio (y) = 0.10293 0.68568
# Poissons Ratio (z) = 0.11924 0.34473
#
# Static dielectric constant tensor:
#      x y z
#    x 1.577970 0.000000 0.000000 
#    y 0.000000 1.547840 0.000000 
#    z 0.000000 0.000000 1.617040 
# 
# From -- ./inp_files/60248.got.cif
#   From: 2010.05.17/outbox.cif.g08.bks.cpg/sg63_31_cif.got.tgz:60248.got - 2010.06.03 15:47:04.
