data_PCOD9470400
_publ_section_title
;
Structure prediction by ZEFSAII (Michael W. Deem and Ramdas Pophale) SiO2 
 PCOD9470400
Probable space group: C M C M
;
_chemical_formula_sum "Si O2"
_cell_formula_units_Z 88
_cell_length_a 15.029551
_cell_length_b 32.205767
_cell_length_c 9.048854
_cell_angle_alpha 90.000000
_cell_angle_beta 90.000000
_cell_angle_gamma 90.000000
_cell_volume 4379.991162
_symmetry_space_group_name_H-M "C M C M"
_symmetry_group_IT_number 63
_symmetry_cell_setting 'orthorhombic'
loop_
_space_group_symop_operation_xyz
x,y,z
-x,-y,1/2+z
x,-y,-z
-x,y,1/2-z
-x,-y,-z
x,y,1/2-z
-x,y,z
x,-y,1/2+z
1/2+x,1/2+y,z
1/2-x,1/2-y,1/2+z
1/2+x,1/2-y,-z
1/2-x,1/2+y,1/2-z
1/2-x,1/2-y,-z
1/2+x,1/2+y,1/2-z
1/2-x,1/2+y,z
1/2+x,1/2-y,1/2+z
loop_
_atom_site_type_symbol
_atom_site_label
_atom_site_fract_x
_atom_site_fract_y
_atom_site_fract_z
Si Si1 0.500000 0.954080 0.430438
Si Si2 0.348122 0.379240 0.425544
Si Si3 0.347359 0.205521 0.929035
Si Si4 0.637858 0.115377 0.572634
Si Si5 0.848655 0.203915 0.426179
Si Si6 0.895784 0.961424 0.586509
O O1 0.500000 0.958014 0.250000
O O2 0.583486 0.924787 0.478621
O O3 0.500000 0.000000 0.500000
O O4 0.357276 0.377151 0.250000
O O5 0.242716 0.384592 0.461509
O O6 0.385562 0.337148 0.496888
O O7 0.390905 0.419936 0.492569
O O8 0.331762 0.204211 0.750000
O O9 0.393606 0.162023 0.970758
O O10 0.389390 0.250626 0.959596
O O11 0.252600 0.205710 0.012299
O O12 0.628982 0.114051 0.750000
O O13 0.849408 0.198393 0.250000
O O14 0.856797 0.955843 0.750000
O O15 0.000000 0.970958 0.604698
O O16 0.853380 0.000000 0.500000
#
# Coordination Sequence:
#
# PCOD9470400 Si02
#       6
#     8  16  16  16  16  16
#     4  10  20  36  54  70  96 132 172 218 269 308
#     4  10  19  32  51  76 105 135 171 209 251 304
#     4   8  14  26  44  67  96 127 166 209 251 305
#     4   8  16  31  51  73  96 130 173 216 255 300
#     4   9  15  24  43  71 101 129 162 205 253 301
#     4  10  21  37  56  77 101 130 165 203 248 302
#
# _framework density 20.091366000000001
#
# number of rings (size 3 to 8) (size 9 to 14) (size 15 to 20)
#    0.000    2.909    0.000    2.727    0.000    2.545 
#    0.000    6.364    2.000    0.000    0.000    0.000 
#    0.000    0.000    0.000    0.000    0.000    0.000 
#
# Total GULP energy -244940.457874 kJ/mol
# GULP energy per Si atom -5566.828588 kJ/mol
# Density = 2.004564 g / cm^3
# Si number density = 20.091366 Si / 1000 Ang^3
#
#
#
# Elastic Constant Matrix: (Units=GPa)
#
#
# Indices 1 2 3 4 5 6 
#
# 1 34.6674 26.0298 19.8425 0.0000 0.0000 0.0000
# 2 26.0298 200.2692 54.2385 0.0000 0.0000 0.0000
# 3 19.8425 54.2385 52.8645 0.0000 0.0000 0.0000
# 4 0.0000 0.0000 0.0000 34.3468 0.0000 0.0000
# 5 0.0000 0.0000 0.0000 0.0000 7.7645 0.0000
# 6 0.0000 0.0000 0.0000 0.0000 0.0000 -1.9498
#
#
#
# Elastic Compliance Matrix: (Units=1/GPa)
#
#
# Indices 1 2 3 4 5 6 
#
# 1 0.037041 -0.001453 -0.012413 0.000000 0.000000 0.000000
# 2 -0.001453 0.006972 -0.006608 0.000000 0.000000 0.000000
# 3 -0.012413 -0.006608 0.030355 0.000000 0.000000 0.000000
# 4 0.000000 0.000000 0.000000 0.029115 0.000000 0.000000
# 5 0.000000 0.000000 0.000000 0.000000 0.128791 0.000000
# 6 0.000000 0.000000 0.000000 0.000000 0.000000 -0.512868
#
#
# Mechanical properties :
#
#
# Convention : Reuss Voigt Hill
#
# Bulk Modulus (GPa) = 29.92109 54.22475 42.07292
# Shear Modulus (GPa) = -21.88097 20.54500 -0.66799
#
# Velocity S-wave (km/s) = -3.30369 3.20125 -0.57723
# Velocity P-wave (km/s) = 0.61020 6.38057 4.53233
#
# Compressibility (1/GPa) = 0.03342124
#
# Stress axis : x y z
#
# Youngs Moduli (GPa) = 26.99714 143.43936 32.94390
#
# Poissons Ratio (x) = 0.20837 0.40893
# Poissons Ratio (y) = 0.03922 0.21768
# Poissons Ratio (z) = 0.33511 0.94778
#
# Static dielectric constant tensor:
#      x y z
#    x 1.894030 0.000000 0.000000 
#    y 0.000000 1.752740 0.000000 
#    z 0.000000 0.000000 1.701910 
# 
# From -- ./inp_files/6836.got.cif
#   From: 2010.05.17/outbox.cif.g08.bks.cpg/sg63_4_cif.got.tgz:6836.got - 2010.06.03 15:47:04.
