data_PCOD9470067
_publ_section_title
;
Structure prediction by ZEFSAII (Michael W. Deem and Ramdas Pophale) SiO2 
 PCOD9470067
Probable space group: C M C M
;
_chemical_formula_sum "Si O2"
_cell_formula_units_Z 96
_cell_length_a 8.899946
_cell_length_b 33.363778
_cell_length_c 19.042604
_cell_angle_alpha 90.000000
_cell_angle_beta 90.000000
_cell_angle_gamma 90.000000
_cell_volume 5654.431282
_symmetry_space_group_name_H-M "C M C M"
_symmetry_group_IT_number 63
_symmetry_cell_setting 'orthorhombic'
loop_
_space_group_symop_operation_xyz
x,y,z
-x,-y,1/2+z
x,-y,-z
-x,y,1/2-z
-x,-y,-z
x,y,1/2-z
-x,y,z
x,-y,1/2+z
1/2+x,1/2+y,z
1/2-x,1/2-y,1/2+z
1/2+x,1/2-y,-z
1/2-x,1/2+y,1/2-z
1/2-x,1/2-y,-z
1/2+x,1/2+y,1/2-z
1/2-x,1/2+y,z
1/2+x,1/2-y,1/2+z
loop_
_atom_site_type_symbol
_atom_site_label
_atom_site_fract_x
_atom_site_fract_y
_atom_site_fract_z
Si Si1 0.181007 0.419558 0.169848
Si Si2 0.822174 0.758054 0.333507
Si Si3 0.818945 0.827353 0.669786
Si Si4 0.320365 0.835769 0.097414
Si Si5 0.180847 0.124491 0.036157
Si Si6 0.318848 0.458416 0.034989
O O1 0.229188 0.427125 0.250000
O O2 0.220100 0.373959 0.146748
O O3 0.251033 0.448565 0.111271
O O4 0.000000 0.422703 0.166813
O O5 0.796625 0.763736 0.250000
O O6 0.749800 0.715313 0.352106
O O7 0.748968 0.794998 0.373812
O O8 0.000000 0.756952 0.346167
O O9 0.771356 0.835844 0.750000
O O10 0.776570 0.861246 0.613824
O O11 0.000000 0.823828 0.669459
O O12 0.500000 0.832754 0.095737
O O13 0.256864 0.846891 0.021159
O O14 0.000000 0.127834 0.029567
O O15 0.221948 0.079212 0.014863
O O16 0.500000 0.459339 0.041325
O O17 0.269448 0.500000 0.000000
#
# Coordination Sequence:
#
# PCOD9470067 Si02
#       6
#    16  16  16  16  16  16
#     4   9  18  32  50  73 100 129 162 199 238 283
#     4  10  20  32  47  69  97 128 161 199 242 284
#     4   9  18  33  51  68  89 123 165 204 240 279
#     4  10  19  31  49  72  98 129 163 198 237 284
#     4   9  18  33  51  71  96 125 159 199 242 288
#     4   9  18  33  52  75 102 129 158 195 241 292
#
# _framework density 16.977834000000001
#
# number of rings (size 3 to 8) (size 9 to 14) (size 15 to 20)
#    0.000    2.667    0.000    1.500    0.000    4.333 
#    0.000    0.833    0.000    3.000    0.000    2.333 
#    0.000    0.000    0.000    0.000    0.000    0.000 
#
# Total GULP energy -267660.568878 kJ/mol
# GULP energy per Si atom -5576.261852 kJ/mol
# Density = 1.693919 g / cm^3
# Si number density = 16.977834 Si / 1000 Ang^3
#
#
#
# Elastic Constant Matrix: (Units=GPa)
#
#
# Indices 1 2 3 4 5 6 
#
# 1 13.3405 30.5726 34.3533 0.0000 0.0000 0.0000
# 2 30.5726 106.6625 92.6450 0.0000 0.0000 0.0000
# 3 34.3533 92.6450 134.2053 0.0000 0.0000 0.0000
# 4 0.0000 0.0000 0.0000 24.4757 0.0000 0.0000
# 5 0.0000 0.0000 0.0000 0.0000 24.7625 0.0000
# 6 0.0000 0.0000 0.0000 0.0000 0.0000 18.6537
#
#
#
# Elastic Compliance Matrix: (Units=1/GPa)
#
#
# Indices 1 2 3 4 5 6 
#
# 1 0.290215 -0.046601 -0.042118 0.000000 0.000000 0.000000
# 2 -0.046601 0.030898 -0.009401 0.000000 0.000000 0.000000
# 3 -0.042118 -0.009401 0.024722 0.000000 0.000000 0.000000
# 4 0.000000 0.000000 0.000000 0.040857 0.000000 0.000000
# 5 0.000000 0.000000 0.000000 0.000000 0.040384 0.000000
# 6 0.000000 0.000000 0.000000 0.000000 0.000000 0.053609
#
#
# Mechanical properties :
#
#
# Convention : Reuss Voigt Hill
#
# Bulk Modulus (GPa) = 6.68472 63.26110 34.97291
# Shear Modulus (GPa) = 6.87957 20.02086 13.45021
#
# Velocity S-wave (km/s) = 2.01516 3.43772 2.81770
# Velocity P-wave (km/s) = 3.05947 7.28692 5.58836
#
# Compressibility (1/GPa) = 0.14959492
#
# Stress axis : x y z
#
# Youngs Moduli (GPa) = 3.44572 32.36464 40.44949
#
# Poissons Ratio (x) = 1.50822 1.70367
# Poissons Ratio (y) = 0.16057 0.38026
# Poissons Ratio (z) = 0.14513 0.30426
#
# Static dielectric constant tensor:
#      x y z
#    x 1.565330 0.000000 0.000000 
#    y 0.000000 1.550740 0.000000 
#    z 0.000000 0.000000 1.571790 
# 
# From -- ./inp_files/51374.got.cif
#   From: 2010.05.17/outbox.cif.g08.bks.cpg/sg63_26_cif.got.tgz:51374.got - 2010.06.03 15:47:04.
