data_PCOD9470340
_publ_section_title
;
Structure prediction by ZEFSAII (Michael W. Deem and Ramdas Pophale) SiO2 
 PCOD9470340
Probable space group: C M C M
;
_chemical_formula_sum "Si O2"
_cell_formula_units_Z 80
_cell_length_a 7.492462
_cell_length_b 16.254413
_cell_length_c 29.827828
_cell_angle_alpha 90.000000
_cell_angle_beta 90.000000
_cell_angle_gamma 90.000000
_cell_volume 3632.599087
_symmetry_space_group_name_H-M "C M C M"
_symmetry_group_IT_number 63
_symmetry_cell_setting 'orthorhombic'
loop_
_space_group_symop_operation_xyz
x,y,z
-x,-y,1/2+z
x,-y,-z
-x,y,1/2-z
-x,-y,-z
x,y,1/2-z
-x,y,z
x,-y,1/2+z
1/2+x,1/2+y,z
1/2-x,1/2-y,1/2+z
1/2+x,1/2-y,-z
1/2-x,1/2+y,1/2-z
1/2-x,1/2-y,-z
1/2+x,1/2+y,1/2-z
1/2-x,1/2+y,z
1/2+x,1/2-y,1/2+z
loop_
_atom_site_type_symbol
_atom_site_label
_atom_site_fract_x
_atom_site_fract_y
_atom_site_fract_z
Si Si1 0.718277 0.968673 0.451611
Si Si2 0.286755 0.780840 0.450111
Si Si3 0.281354 0.872264 0.198359
Si Si4 0.285890 0.286607 0.857599
Si Si5 0.712389 0.030144 0.357477
O O1 0.500000 0.970485 0.452547
O O2 0.775252 0.874555 0.444835
O O3 0.778989 0.000000 0.500000
O O4 0.779191 0.020425 0.408631
O O5 0.500000 0.783038 0.445894
O O6 0.250000 0.750000 0.500000
O O7 0.218645 0.726324 0.408717
O O8 0.225850 0.871765 0.250000
O O9 0.500000 0.872342 0.197801
O O10 0.223027 0.789957 0.172338
O O11 0.220789 0.954915 0.172862
O O12 0.500000 0.281106 0.858347
O O13 0.243924 0.377767 0.840709
O O14 0.500000 0.018894 0.359620
#
# Coordination Sequence:
#
# PCOD9470340 Si02
#       5
#    16  16  16  16  16
#     4   9  16  28  48  72  99 133 174 212 248 301
#     4  10  19  32  50  75 106 140 178 218 262 315
#     4   9  18  35  58  80 105 141 182 221 264 318
#     4  10  20  35  54  79 111 142 174 219 272 322
#     4  10  19  34  56  80 104 138 183 222 258 310
#
# _framework density 22.022798999999999
#
# number of rings (size 3 to 8) (size 9 to 14) (size 15 to 20)
#    0.000    2.400    2.000    1.200    0.000    3.200 
#    0.000    2.000    0.000    4.800    0.000    0.000 
#    0.000    0.000    0.000    0.000    0.000    0.000 
#
# Total GULP energy -223418.043483 kJ/mol
# GULP energy per Si atom -5585.451087 kJ/mol
# Density = 2.197267 g / cm^3
# Si number density = 22.022799 Si / 1000 Ang^3
#
#
#
# Elastic Constant Matrix: (Units=GPa)
#
#
# Indices 1 2 3 4 5 6 
#
# 1 56.8212 -1.8624 6.0183 0.0000 0.0000 0.0000
# 2 -1.8624 196.4320 93.3284 0.0000 0.0000 0.0000
# 3 6.0183 93.3284 165.5779 0.0000 0.0000 0.0000
# 4 0.0000 0.0000 0.0000 28.1344 0.0000 0.0000
# 5 0.0000 0.0000 0.0000 0.0000 0.3950 0.0000
# 6 0.0000 0.0000 0.0000 0.0000 0.0000 12.3418
#
#
#
# Elastic Compliance Matrix: (Units=1/GPa)
#
#
# Indices 1 2 3 4 5 6 
#
# 1 0.017727 0.000648 -0.001009 0.000000 0.000000 0.000000
# 2 0.000648 0.006976 -0.003956 0.000000 0.000000 0.000000
# 3 -0.001009 -0.003956 0.008306 0.000000 0.000000 0.000000
# 4 0.000000 0.000000 0.000000 0.035544 0.000000 0.000000
# 5 0.000000 0.000000 0.000000 0.000000 2.531366 0.000000
# 6 0.000000 0.000000 0.000000 0.000000 0.000000 0.081025
#
#
# Mechanical properties :
#
#
# Convention : Reuss Voigt Hill
#
# Bulk Modulus (GPa) = 41.02669 68.19997 54.61333
# Shear Modulus (GPa) = 1.85343 29.59738 15.72540
#
# Velocity S-wave (km/s) = 0.91838 3.66996 2.67507
# Velocity P-wave (km/s) = 4.44907 6.99952 5.86462
#
# Compressibility (1/GPa) = 0.02437438
#
# Stress axis : x y z
#
# Youngs Moduli (GPa) = 56.41045 143.33946 120.39696
#
# Poissons Ratio (x) = -0.09283 0.12153
# Poissons Ratio (y) = -0.03653 0.47627
# Poissons Ratio (z) = 0.05694 0.56703
#
# Static dielectric constant tensor:
#      x y z
#    x 1.855460 0.000000 0.000000 
#    y 0.000000 1.786430 0.000000 
#    z 0.000000 0.000000 1.834480 
# 
# From -- ./inp_files/66607.got.cif
#   From: 2010.05.17/outbox.cif.g08.bks.cpg/sg63_34_cif.got.tgz:66607.got - 2010.06.03 15:47:04.
