data_PCOD9470681
_publ_section_title
;
Structure prediction by ZEFSAII (Michael W. Deem and Ramdas Pophale) SiO2 
 PCOD9470681
Probable space group: C M C M
;
_chemical_formula_sum "Si O2"
_cell_formula_units_Z 116
_cell_length_a 28.706391
_cell_length_b 28.750444
_cell_length_c 7.518558
_cell_angle_alpha 90.000000
_cell_angle_beta 90.000000
_cell_angle_gamma 90.000000
_cell_volume 6205.227468
_symmetry_space_group_name_H-M "C M C M"
_symmetry_group_IT_number 63
_symmetry_cell_setting 'orthorhombic'
loop_
_space_group_symop_operation_xyz
x,y,z
-x,-y,1/2+z
x,-y,-z
-x,y,1/2-z
-x,-y,-z
x,y,1/2-z
-x,y,z
x,-y,1/2+z
1/2+x,1/2+y,z
1/2-x,1/2-y,1/2+z
1/2+x,1/2-y,-z
1/2-x,1/2+y,1/2-z
1/2-x,1/2-y,-z
1/2+x,1/2+y,1/2-z
1/2-x,1/2+y,z
1/2+x,1/2-y,1/2+z
loop_
_atom_site_type_symbol
_atom_site_label
_atom_site_fract_x
_atom_site_fract_y
_atom_site_fract_z
Si Si1 0.708748 0.447797 0.963582
Si Si2 0.000000 0.160674 0.750000
Si Si3 0.315258 0.052651 0.038857
Si Si4 0.166998 0.143310 0.454267
Si Si5 0.760096 0.303748 0.037855
Si Si6 0.355358 0.849480 0.458346
Si Si7 0.552315 0.199136 0.965626
Si Si8 0.574205 0.692852 0.034054
O O1 0.711535 0.442476 0.750000
O O2 0.762046 0.443007 0.031901
O O3 0.675650 0.407416 0.036644
O O4 0.692860 0.500000 0.000000
O O5 0.040093 0.164092 0.591682
O O6 0.313387 0.057600 0.250000
O O7 0.345794 0.095572 0.972104
O O8 0.331309 0.000000 0.000000
O O9 0.153861 0.135034 0.250000
O O10 0.217182 0.167403 0.461215
O O11 0.126555 0.177446 0.517553
O O12 0.759453 0.310777 0.250000
O O13 0.809814 0.322525 0.968615
O O14 0.750000 0.250000 0.000000
O O15 0.356552 0.836970 0.250000
O O16 0.404994 0.832583 0.531571
O O17 0.550506 0.195136 0.750000
O O18 0.500000 0.188599 0.031222
O O19 0.564343 0.252860 0.005250
O O20 0.566979 0.687515 0.250000
#
# Coordination Sequence:
#
# PCOD9470681 Si02
#       8
#    16   4  16  16  16  16  16  16
#     4   9  18  32  52  77 108 143 177 219 270 329
#     4  12  22  36  60  86 114 140 206 232 276 340
#     4  10  19  33  52  76 105 140 179 221 270 328
#     4  10  20  36  55  77 112 147 182 222 279 336
#     4  11  22  33  48  73 111 150 183 219 267 333
#     4  10  20  34  52  77 105 143 183 224 277 331
#     4   9  17  34  56  75 104 145 187 228 282 330
#     4  10  21  38  58  82 116 150 185 240 287 327
#
# _framework density 18.693916000000002
#
# number of rings (size 3 to 8) (size 9 to 14) (size 15 to 20)
#    0.000    2.069    2.069    1.862    0.966    3.862 
#    1.241    0.000    0.000    0.414    0.000    0.483 
#    0.000    0.000    0.000    0.000    0.000    0.000 
#
# Total GULP energy -322895.627207 kJ/mol
# GULP energy per Si atom -5567.165986 kJ/mol
# Density = 1.865137 g / cm^3
# Si number density = 18.693916 Si / 1000 Ang^3
#
#
#
# Elastic Constant Matrix: (Units=GPa)
#
#
# Indices 1 2 3 4 5 6 
#
# 1 153.5702 60.2193 8.9224 0.0000 0.0000 0.0000
# 2 60.2193 88.2981 -8.8958 0.0000 0.0000 0.0000
# 3 8.9224 -8.8958 58.5738 0.0000 0.0000 0.0000
# 4 0.0000 0.0000 0.0000 14.3929 0.0000 0.0000
# 5 0.0000 0.0000 0.0000 0.0000 -40.3356 0.0000
# 6 0.0000 0.0000 0.0000 0.0000 0.0000 -2.8246
#
#
#
# Elastic Compliance Matrix: (Units=1/GPa)
#
#
# Indices 1 2 3 4 5 6 
#
# 1 0.009208 -0.006521 -0.002393 0.000000 0.000000 0.000000
# 2 -0.006521 0.016119 0.003441 0.000000 0.000000 0.000000
# 3 -0.002393 0.003441 0.017960 0.000000 0.000000 0.000000
# 4 0.000000 0.000000 0.000000 0.069479 0.000000 0.000000
# 5 0.000000 0.000000 0.000000 0.000000 -0.024792 0.000000
# 6 0.000000 0.000000 0.000000 0.000000 0.000000 -0.354033
#
#
# Mechanical properties :
#
#
# Convention : Reuss Voigt Hill
#
# Bulk Modulus (GPa) = 30.91967 46.77045 38.84506
# Shear Modulus (GPa) = -20.46372 10.25962 -5.10205
#
# Velocity S-wave (km/s) = -3.31217 2.34523 -1.65384
# Velocity P-wave (km/s) = 1.39591 5.69270 4.14460
#
# Compressibility (1/GPa) = 0.03234187
#
# Stress axis : x y z
#
# Youngs Moduli (GPa) = 108.60511 62.03812 55.68045
#
# Poissons Ratio (x) = 0.40453 0.13324
# Poissons Ratio (y) = 0.70818 -0.19162
# Poissons Ratio (z) = 0.25988 -0.21350
#
# Static dielectric constant tensor:
#      x y z
#    x 1.663860 0.000000 0.000000 
#    y 0.000000 1.680230 0.000000 
#    z 0.000000 0.000000 1.712120 
# 
# From -- ./inp_files/13184.got.cif
#   From: 2010.05.17/outbox.cif.g08.bks.cpg/sg63_7_cif.got.tgz:13184.got - 2010.06.03 15:47:04.
