data_PCOD9470686
_publ_section_title
;
Structure prediction by ZEFSAII (Michael W. Deem and Ramdas Pophale) SiO2 
 PCOD9470686
Probable space group: C M C M
;
_chemical_formula_sum "Si O2"
_cell_formula_units_Z 96
_cell_length_a 23.459768
_cell_length_b 26.477967
_cell_length_c 8.604492
_cell_angle_alpha 90.000000
_cell_angle_beta 90.000000
_cell_angle_gamma 90.000000
_cell_volume 5344.826163
_symmetry_space_group_name_H-M "C M C M"
_symmetry_group_IT_number 63
_symmetry_cell_setting 'orthorhombic'
loop_
_space_group_symop_operation_xyz
x,y,z
-x,-y,1/2+z
x,-y,-z
-x,y,1/2-z
-x,-y,-z
x,y,1/2-z
-x,y,z
x,-y,1/2+z
1/2+x,1/2+y,z
1/2-x,1/2-y,1/2+z
1/2+x,1/2-y,-z
1/2-x,1/2+y,1/2-z
1/2-x,1/2-y,-z
1/2+x,1/2+y,1/2-z
1/2-x,1/2+y,z
1/2+x,1/2-y,1/2+z
loop_
_atom_site_type_symbol
_atom_site_label
_atom_site_fract_x
_atom_site_fract_y
_atom_site_fract_z
Si Si1 0.636669 0.851492 0.572380
Si Si2 0.370632 0.651857 0.931529
Si Si3 0.806094 0.555096 0.934533
Si Si4 0.261451 0.696118 0.072529
Si Si5 0.321801 0.555229 0.434918
Si Si6 0.066535 0.253774 0.938959
O O1 0.617505 0.861970 0.750000
O O2 0.646557 0.903483 0.481200
O O3 0.700814 0.830434 0.579170
O O4 0.599134 0.804728 0.507744
O O5 0.383488 0.644773 0.750000
O O6 0.407853 0.699608 0.991307
O O7 0.306324 0.670557 0.959266
O O8 0.367521 0.597525 0.013760
O O9 0.800132 0.553254 0.750000
O O10 0.821491 0.500000 0.000000
O O11 0.742660 0.566478 0.003430
O O12 0.284160 0.697848 0.250000
O O13 0.250000 0.750000 0.000000
O O14 0.336586 0.500000 0.500000
O O15 0.318292 0.554296 0.250000
O O16 0.073304 0.253611 0.750000
O O17 0.000000 0.256690 0.976199
#
# Coordination Sequence:
#
# PCOD9470686 Si02
#       6
#    16  16  16  16  16  16
#     4  10  19  33  52  77 108 142 177 217 262 318
#     4  11  20  33  53  79 108 141 178 217 262 320
#     4  11  21  33  51  77 110 146 178 214 260 315
#     4  11  20  30  47  75 109 142 173 213 264 321
#     4  11  21  34  51  77 111 146 178 214 261 315
#     4   9  19  36  57  79 104 138 180 223 268 314
#
# _framework density 17.961295
#
# number of rings (size 3 to 8) (size 9 to 14) (size 15 to 20)
#    0.000    1.500    3.333    5.000    0.000    0.667 
#    0.000    0.000    0.000    5.500    0.000    0.000 
#    0.000    0.000    0.000    0.000    0.000    0.000 
#
# Total GULP energy -267520.378680 kJ/mol
# GULP energy per Si atom -5573.341222 kJ/mol
# Density = 1.792041 g / cm^3
# Si number density = 17.961295 Si / 1000 Ang^3
#
#
#
# Elastic Constant Matrix: (Units=GPa)
#
#
# Indices 1 2 3 4 5 6 
#
# 1 63.3350 48.6743 13.1913 0.0000 0.0000 0.0000
# 2 48.6743 164.0569 48.6827 0.0000 0.0000 0.0000
# 3 13.1913 48.6827 89.5791 0.0000 0.0000 0.0000
# 4 0.0000 0.0000 0.0000 22.2318 0.0000 0.0000
# 5 0.0000 0.0000 0.0000 0.0000 10.6703 0.0000
# 6 0.0000 0.0000 0.0000 0.0000 0.0000 15.2176
#
#
#
# Elastic Compliance Matrix: (Units=1/GPa)
#
#
# Indices 1 2 3 4 5 6 
#
# 1 0.020461 -0.006172 0.000341 0.000000 0.000000 0.000000
# 2 -0.006172 0.009129 -0.004052 0.000000 0.000000 0.000000
# 3 0.000341 -0.004052 0.013315 0.000000 0.000000 0.000000
# 4 0.000000 0.000000 0.000000 0.044981 0.000000 0.000000
# 5 0.000000 0.000000 0.000000 0.000000 0.093718 0.000000
# 6 0.000000 0.000000 0.000000 0.000000 0.000000 0.065713
#
#
# Mechanical properties :
#
#
# Convention : Reuss Voigt Hill
#
# Bulk Modulus (GPa) = 43.21657 59.78528 51.50092
# Shear Modulus (GPa) = 18.19525 23.38547 20.79036
#
# Velocity S-wave (km/s) = 3.18626 3.61223 3.40591
# Velocity P-wave (km/s) = 6.13592 7.12429 6.64849
#
# Compressibility (1/GPa) = 0.02313928
#
# Stress axis : x y z
#
# Youngs Moduli (GPa) = 48.87293 109.53953 75.10077
#
# Poissons Ratio (x) = 0.67606 -0.02561
# Poissons Ratio (y) = 0.30164 0.30434
# Poissons Ratio (z) = -0.01667 0.44390
#
# Static dielectric constant tensor:
#      x y z
#    x 1.588890 0.000000 0.000000 
#    y 0.000000 1.640280 0.000000 
#    z 0.000000 0.000000 1.614200 
# 
# From -- ./inp_files/8628.got.cif
#   From: 2010.05.17/outbox.cif.g08.bks.cpg/sg63_5_cif.got.tgz:8628.got - 2010.06.03 15:47:04.
