data_PCOD9470616
_publ_section_title
;
Structure prediction by ZEFSAII (Michael W. Deem and Ramdas Pophale) SiO2 
 PCOD9470616
Probable space group: C M C M
;
_chemical_formula_sum "Si O2"
_cell_formula_units_Z 104
_cell_length_a 32.875238
_cell_length_b 21.500400
_cell_length_c 8.138763
_cell_angle_alpha 90.000000
_cell_angle_beta 90.000000
_cell_angle_gamma 90.000000
_cell_volume 5752.728094
_symmetry_space_group_name_H-M "C M C M"
_symmetry_group_IT_number 63
_symmetry_cell_setting 'orthorhombic'
loop_
_space_group_symop_operation_xyz
x,y,z
-x,-y,1/2+z
x,-y,-z
-x,y,1/2-z
-x,-y,-z
x,y,1/2-z
-x,y,z
x,-y,1/2+z
1/2+x,1/2+y,z
1/2-x,1/2-y,1/2+z
1/2+x,1/2-y,-z
1/2-x,1/2+y,1/2-z
1/2-x,1/2-y,-z
1/2+x,1/2+y,1/2-z
1/2-x,1/2+y,z
1/2+x,1/2-y,1/2+z
loop_
_atom_site_type_symbol
_atom_site_label
_atom_site_fract_x
_atom_site_fract_y
_atom_site_fract_z
Si Si1 0.340770 0.180489 0.441029
Si Si2 0.284297 0.068164 0.944893
Si Si3 0.455183 0.293788 0.051021
Si Si4 0.429466 0.157967 0.946377
Si Si5 0.364233 0.682264 0.548876
Si Si6 0.308577 0.568246 0.948427
Si Si7 0.000000 0.569965 0.552603
O O1 0.330627 0.186223 0.250000
O O2 0.310477 0.128936 0.512158
O O3 0.386356 0.155392 0.465475
O O4 0.344903 0.251571 0.507933
O O5 0.281958 0.065146 0.750000
O O6 0.237979 0.074750 0.010090
O O7 0.300279 0.000000 0.000000
O O8 0.454990 0.293201 0.250000
O O9 0.500000 0.318211 0.999265
O O10 0.411839 0.323627 0.999217
O O11 0.450549 0.223492 0.987269
O O12 0.423017 0.153843 0.750000
O O13 0.459772 0.104936 0.005317
O O14 0.364048 0.684240 0.750000
O O15 0.337199 0.624269 0.494261
O O16 0.307835 0.570831 0.750000
O O17 0.323292 0.500000 0.000000
O O18 0.000000 0.500000 0.500000
O O19 0.000000 0.575312 0.750000
#
# Coordination Sequence:
#
# PCOD9470616 Si02
#       7
#    16  16  16  16  16  16   8
#     4  10  20  34  52  75 101 131 166 208 254 302
#     4  10  20  34  52  73  97 132 172 210 254 303
#     4   9  16  28  50  75  97 127 164 199 242 299
#     4  10  19  33  48  67  95 126 160 203 251 293
#     4   8  16  31  50  75 104 132 165 207 254 300
#     4   9  18  34  54  74 100 133 169 207 250 304
#     4  10  22  34  46  64  88 122 161 200 243 286
#
# _framework density 18.078379000000002
#
# number of rings (size 3 to 8) (size 9 to 14) (size 15 to 20)
#    0.000    2.615    0.769    2.308    0.000    3.077 
#    0.000    5.385    0.000    0.462    0.000    0.000 
#    0.000    0.000    0.000    0.000    0.000    0.000 
#
# Total GULP energy -289649.011206 kJ/mol
# GULP energy per Si atom -5570.173292 kJ/mol
# Density = 1.803723 g / cm^3
# Si number density = 18.078379 Si / 1000 Ang^3
#
#
#
# Elastic Constant Matrix: (Units=GPa)
#
#
# Indices 1 2 3 4 5 6 
#
# 1 101.7053 87.8425 3.8296 0.0000 0.0000 0.0000
# 2 87.8425 136.6394 6.0743 0.0000 0.0000 0.0000
# 3 3.8296 6.0743 10.6921 0.0000 0.0000 0.0000
# 4 0.0000 0.0000 0.0000 20.7078 0.0000 0.0000
# 5 0.0000 0.0000 0.0000 0.0000 14.5322 0.0000
# 6 0.0000 0.0000 0.0000 0.0000 0.0000 28.8616
#
#
#
# Elastic Compliance Matrix: (Units=1/GPa)
#
#
# Indices 1 2 3 4 5 6 
#
# 1 0.022108 -0.014220 0.000160 0.000000 0.000000 0.000000
# 2 -0.014220 0.016654 -0.004368 0.000000 0.000000 0.000000
# 3 0.000160 -0.004368 0.095951 0.000000 0.000000 0.000000
# 4 0.000000 0.000000 0.000000 0.048291 0.000000 0.000000
# 5 0.000000 0.000000 0.000000 0.000000 0.068813 0.000000
# 6 0.000000 0.000000 0.000000 0.000000 0.000000 0.034648
#
#
# Mechanical properties :
#
#
# Convention : Reuss Voigt Hill
#
# Bulk Modulus (GPa) = 10.21896 49.39220 29.80558
# Shear Modulus (GPa) = 14.04728 22.90635 18.47682
#
# Velocity S-wave (km/s) = 2.79053 3.56344 3.20040
# Velocity P-wave (km/s) = 4.00595 6.65667 5.49358
#
# Compressibility (1/GPa) = 0.09785730
#
# Stress axis : x y z
#
# Youngs Moduli (GPa) = 45.23266 60.04440 10.42193
#
# Poissons Ratio (x) = 0.85382 -0.00167
# Poissons Ratio (y) = 0.64320 0.04553
# Poissons Ratio (z) = -0.00723 0.26230
#
# Static dielectric constant tensor:
#      x y z
#    x 1.642230 0.000000 0.000000 
#    y 0.000000 1.596570 0.000000 
#    z 0.000000 0.000000 1.629620 
# 
# From -- ./inp_files/14474.got.cif
#   From: 2010.05.17/outbox.cif.g08.bks.cpg/sg63_8_cif.got.tgz:14474.got - 2010.06.03 15:47:04.
