data_PCOD9470990
_publ_section_title
;
Structure prediction by ZEFSAII (Michael W. Deem and Ramdas Pophale) SiO2 
 PCOD9470990
Probable space group: C M C M
;
_chemical_formula_sum "Si O2"
_cell_formula_units_Z 112
_cell_length_a 14.836251
_cell_length_b 23.500794
_cell_length_c 15.073042
_cell_angle_alpha 90.000000
_cell_angle_beta 90.000000
_cell_angle_gamma 90.000000
_cell_volume 5255.422270
_symmetry_space_group_name_H-M "C M C M"
_symmetry_group_IT_number 63
_symmetry_cell_setting 'orthorhombic'
loop_
_space_group_symop_operation_xyz
x,y,z
-x,-y,1/2+z
x,-y,-z
-x,y,1/2-z
-x,-y,-z
x,y,1/2-z
-x,y,z
x,-y,1/2+z
1/2+x,1/2+y,z
1/2-x,1/2-y,1/2+z
1/2+x,1/2-y,-z
1/2-x,1/2+y,1/2-z
1/2-x,1/2-y,-z
1/2+x,1/2+y,1/2-z
1/2-x,1/2+y,z
1/2+x,1/2-y,1/2+z
loop_
_atom_site_type_symbol
_atom_site_label
_atom_site_fract_x
_atom_site_fract_y
_atom_site_fract_z
Si Si1 0.602865 0.240740 0.350911
Si Si2 0.724020 0.830957 0.978619
Si Si3 0.895385 0.351374 0.146496
Si Si4 0.395893 0.639485 0.576240
Si Si5 0.898123 0.987624 0.395123
Si Si6 0.599732 0.014742 0.604061
Si Si7 0.743564 0.070505 0.155720
O O1 0.614879 0.221355 0.250000
O O2 0.500000 0.224229 0.379990
O O3 0.679552 0.216016 0.415129
O O4 0.605053 0.309291 0.354083
O O5 0.711402 0.889251 0.923628
O O6 0.671722 0.826952 0.072335
O O7 0.830142 0.836401 0.000152
O O8 0.871076 0.341377 0.250000
O O9 0.894243 0.418835 0.125857
O O10 0.000000 0.332503 0.134062
O O11 0.500000 0.630951 0.546889
O O12 0.363689 0.577877 0.612144
O O13 0.000000 0.988958 0.360348
O O14 0.899565 0.000000 0.500000
O O15 0.837787 0.037993 0.357201
O O16 0.500000 0.994994 0.629124
O O17 0.611647 0.000000 0.500000
O O18 0.673925 0.980812 0.655698
O O19 0.743877 0.101568 0.250000
#
# Coordination Sequence:
#
# PCOD9470990 Si02
#       7
#    16  16  16  16  16  16  16
#     4  10  23  43  65  93 127 165 215 268 314 374
#     4  12  22  39  63  90 126 169 205 257 323 388
#     4  10  21  36  56  84 118 158 209 266 321 381
#     4  10  22  40  66  92 120 165 218 268 318 371
#     4  10  20  39  64  90 124 166 210 263 324 380
#     4  10  19  34  53  76 115 164 209 255 309 372
#     4  12  24  35  55  90 127 165 209 253 312 388
#
# _framework density 21.311322000000001
#
# number of rings (size 3 to 8) (size 9 to 14) (size 15 to 20)
#    0.000    1.429    2.857    3.000    0.000    2.857 
#    0.000    1.429    0.000    1.286    0.000    2.000 
#    0.000    0.000    0.000    0.000    0.000    0.000 
#
# Total GULP energy -312471.866126 kJ/mol
# GULP energy per Si atom -5579.854752 kJ/mol
# Density = 2.126282 g / cm^3
# Si number density = 21.311322 Si / 1000 Ang^3
#
#
#
# Elastic Constant Matrix: (Units=GPa)
#
#
# Indices 1 2 3 4 5 6 
#
# 1 44.4284 17.8420 39.0009 0.0000 0.0000 0.0000
# 2 17.8420 72.8126 5.5598 0.0000 0.0000 0.0000
# 3 39.0009 5.5598 104.9033 0.0000 0.0000 0.0000
# 4 0.0000 0.0000 0.0000 10.6679 0.0000 0.0000
# 5 0.0000 0.0000 0.0000 0.0000 24.5285 0.0000
# 6 0.0000 0.0000 0.0000 0.0000 0.0000 20.4714
#
#
#
# Elastic Compliance Matrix: (Units=1/GPa)
#
#
# Indices 1 2 3 4 5 6 
#
# 1 0.037740 -0.008210 -0.013596 0.000000 0.000000 0.000000
# 2 -0.008210 0.015576 0.002227 0.000000 0.000000 0.000000
# 3 -0.013596 0.002227 0.014469 0.000000 0.000000 0.000000
# 4 0.000000 0.000000 0.000000 0.093739 0.000000 0.000000
# 5 0.000000 0.000000 0.000000 0.000000 0.040769 0.000000
# 6 0.000000 0.000000 0.000000 0.000000 0.000000 0.048849
#
#
# Mechanical properties :
#
#
# Convention : Reuss Voigt Hill
#
# Bulk Modulus (GPa) = 34.93190 38.54999 36.74094
# Shear Modulus (GPa) = 16.67549 21.78301 19.22925
#
# Velocity S-wave (km/s) = 2.80030 3.20055 3.00709
# Velocity P-wave (km/s) = 5.18483 5.63793 5.41612
#
# Compressibility (1/GPa) = 0.02862713
#
# Stress axis : x y z
#
# Youngs Moduli (GPa) = 26.49714 64.20323 69.11222
#
# Poissons Ratio (x) = 0.52708 0.93964
# Poissons Ratio (y) = 0.21753 -0.15389
# Poissons Ratio (z) = 0.36025 -0.14296
#
# Static dielectric constant tensor:
#      x y z
#    x 1.809050 0.000000 0.000000 
#    y 0.000000 1.779960 0.000000 
#    z 0.000000 0.000000 1.802850 
# 
# From -- ./inp_files/32332.got.cif
#   From: 2010.05.17/outbox.cif.g08.bks.cpg/sg63_17_cif.got.tgz:32332.got - 2010.06.03 15:47:04.
