data_PCOD9470916
_publ_section_title
;
Structure prediction by ZEFSAII (Michael W. Deem and Ramdas Pophale) SiO2 
 PCOD9470916
Probable space group: C M C M
;
_chemical_formula_sum "Si O2"
_cell_formula_units_Z 100
_cell_length_a 20.614182
_cell_length_b 29.711030
_cell_length_c 7.679157
_cell_angle_alpha 90.000000
_cell_angle_beta 90.000000
_cell_angle_gamma 90.000000
_cell_volume 4703.242382
_symmetry_space_group_name_H-M "C M C M"
_symmetry_group_IT_number 63
_symmetry_cell_setting 'orthorhombic'
loop_
_space_group_symop_operation_xyz
x,y,z
-x,-y,1/2+z
x,-y,-z
-x,y,1/2-z
-x,-y,-z
x,y,1/2-z
-x,y,z
x,-y,1/2+z
1/2+x,1/2+y,z
1/2-x,1/2-y,1/2+z
1/2+x,1/2-y,-z
1/2-x,1/2+y,1/2-z
1/2-x,1/2-y,-z
1/2+x,1/2+y,1/2-z
1/2-x,1/2+y,z
1/2+x,1/2-y,1/2+z
loop_
_atom_site_type_symbol
_atom_site_label
_atom_site_fract_x
_atom_site_fract_y
_atom_site_fract_z
Si Si1 0.742594 0.950143 0.459120
Si Si2 0.800969 0.193916 0.446881
Si Si3 0.319269 0.139112 0.947110
Si Si4 0.893600 0.050372 0.448160
Si Si5 0.500000 0.246368 0.250000
Si Si6 0.389172 0.225735 0.536219
Si Si7 0.070417 0.145543 0.949602
O O1 0.749423 0.945600 0.250000
O O2 0.699198 0.908938 0.527812
O O3 0.815395 0.947330 0.534083
O O4 0.717207 0.000000 0.500000
O O5 0.776268 0.194134 0.250000
O O6 0.747914 0.167361 0.555950
O O7 0.825206 0.243542 0.495219
O O8 0.868055 0.165709 0.454670
O O9 0.339848 0.129332 0.750000
O O10 0.371939 0.174356 0.014873
O O11 0.912330 0.058114 0.250000
O O12 0.922519 0.091711 0.553035
O O13 0.913038 0.000000 0.500000
O O14 0.443912 0.243224 0.406728
O O15 0.401407 0.228306 0.750000
O O16 0.071523 0.161911 0.750000
O O17 0.000000 0.157389 0.024104
#
# Coordination Sequence:
#
# PCOD9470916 Si02
#       7
#    16  16  16  16   4  16  16
#     4  10  19  33  56  86 121 159 195 247 310 365
#     4  11  23  37  60  88 122 164 206 261 306 359
#     4  10  21  39  63  90 130 165 204 256 315 364
#     4  11  21  35  54  75 105 147 195 251 308 362
#     4  12  26  44  72  94 126 172 212 248 318 376
#     4  10  25  44  64  96 130 165 211 259 307 374
#     4  11  24  38  54  76 108 154 207 256 308 367
#
# _framework density 21.261928999999999
#
# number of rings (size 3 to 8) (size 9 to 14) (size 15 to 20)
#    0.000    1.440    1.600    4.560    4.480    2.240 
#    0.000    0.000    0.000    0.000    0.000    0.560 
#    0.000    0.000    0.000    0.000    0.000    0.000 
#
# Total GULP energy -278829.831340 kJ/mol
# GULP energy per Si atom -5576.596627 kJ/mol
# Density = 2.121354 g / cm^3
# Si number density = 21.261929 Si / 1000 Ang^3
#
#
#
# Elastic Constant Matrix: (Units=GPa)
#
#
# Indices 1 2 3 4 5 6 
#
# 1 36.5003 20.1777 14.9337 0.0000 0.0000 0.0000
# 2 20.1777 139.7485 6.4384 0.0000 0.0000 0.0000
# 3 14.9337 6.4384 90.6047 0.0000 0.0000 0.0000
# 4 0.0000 0.0000 0.0000 18.9110 0.0000 0.0000
# 5 0.0000 0.0000 0.0000 0.0000 145.8485 0.0000
# 6 0.0000 0.0000 0.0000 0.0000 0.0000 -16.1209
#
#
#
# Elastic Compliance Matrix: (Units=1/GPa)
#
#
# Indices 1 2 3 4 5 6 
#
# 1 0.031832 -0.004369 -0.004936 0.000000 0.000000 0.000000
# 2 -0.004369 0.007779 0.000167 0.000000 0.000000 0.000000
# 3 -0.004936 0.000167 0.011839 0.000000 0.000000 0.000000
# 4 0.000000 0.000000 0.000000 0.052879 0.000000 0.000000
# 5 0.000000 0.000000 0.000000 0.000000 0.006856 0.000000
# 6 0.000000 0.000000 0.000000 0.000000 0.000000 -0.062031
#
#
# Mechanical properties :
#
#
# Convention : Reuss Voigt Hill
#
# Bulk Modulus (GPa) = 30.14403 38.88370 34.51387
# Shear Modulus (GPa) = 63.70528 44.74797 54.22663
#
# Velocity S-wave (km/s) = 5.47971 4.59257 5.05564
# Velocity P-wave (km/s) = 7.36509 6.81542 7.09558
#
# Compressibility (1/GPa) = 0.03317407
#
# Stress axis : x y z
#
# Youngs Moduli (GPa) = 31.41534 128.55505 84.46907
#
# Poissons Ratio (x) = 0.56161 0.41695
# Poissons Ratio (y) = 0.13724 -0.01413
# Poissons Ratio (z) = 0.15507 -0.02151
#
# Static dielectric constant tensor:
#      x y z
#    x 1.742090 0.000000 0.000000 
#    y 0.000000 1.856610 0.000000 
#    z 0.000000 0.000000 2.465540 
# 
# From -- ./inp_files/9148.got.cif
#   From: 2010.05.17/outbox.cif.g08.bks.cpg/sg63_5_cif.got.tgz:9148.got - 2010.06.03 15:47:04.
