data_PCOD9470209
_publ_section_title
;
Structure prediction by ZEFSAII (Michael W. Deem and Ramdas Pophale) SiO2 
 PCOD9470209
Probable space group: C M C M
;
_chemical_formula_sum "Si O2"
_cell_formula_units_Z 104
_cell_length_a 27.454394
_cell_length_b 23.480548
_cell_length_c 8.252158
_cell_angle_alpha 90.000000
_cell_angle_beta 90.000000
_cell_angle_gamma 90.000000
_cell_volume 5319.705925
_symmetry_space_group_name_H-M "C M C M"
_symmetry_group_IT_number 63
_symmetry_cell_setting 'orthorhombic'
loop_
_space_group_symop_operation_xyz
x,y,z
-x,-y,1/2+z
x,-y,-z
-x,y,1/2-z
-x,-y,-z
x,y,1/2-z
-x,y,z
x,-y,1/2+z
1/2+x,1/2+y,z
1/2-x,1/2-y,1/2+z
1/2+x,1/2-y,-z
1/2-x,1/2+y,1/2-z
1/2-x,1/2-y,-z
1/2+x,1/2+y,1/2-z
1/2-x,1/2+y,z
1/2+x,1/2-y,1/2+z
loop_
_atom_site_type_symbol
_atom_site_label
_atom_site_fract_x
_atom_site_fract_y
_atom_site_fract_z
Si Si1 0.000000 0.935211 0.055921
Si Si2 0.128473 0.331971 0.554015
Si Si3 0.943778 0.755346 0.554572
Si Si4 0.697369 0.397565 0.443164
Si Si5 0.197622 0.768895 0.054981
Si Si6 0.195920 0.436622 0.556699
Si Si7 0.098028 0.875376 0.942330
O O1 0.000000 0.930802 0.250000
O O2 0.952358 0.905331 0.984884
O O3 0.000000 0.000000 0.000000
O O4 0.127960 0.334149 0.750000
O O5 0.076619 0.306558 0.498925
O O6 0.162362 0.280125 0.494757
O O7 0.156304 0.389449 0.497735
O O8 0.942660 0.757454 0.750000
O O9 0.911230 0.809697 0.494480
O O10 0.000000 0.763092 0.502586
O O11 0.701664 0.399069 0.250000
O O12 0.693420 0.332755 0.506880
O O13 0.747807 0.423664 0.507194
O O14 0.642318 0.414329 0.489007
O O15 0.193551 0.770671 0.250000
O O16 0.250000 0.750000 0.000000
O O17 0.183379 0.500000 0.500000
O O18 0.194903 0.434526 0.750000
O O19 0.104881 0.871898 0.750000
#
# Coordination Sequence:
#
# PCOD9470209 Si02
#       7
#     8  16  16  16  16  16  16
#     4  12  26  44  64  84 112 156 207 254 297 348
#     4  10  21  37  58  87 119 153 194 241 297 361
#     4  10  21  37  59  90 124 155 191 240 301 361
#     4  11  22  36  57  88 121 155 197 239 290 348
#     4  10  19  31  51  82 117 148 185 229 281 341
#     4  11  24  42  61  84 118 159 203 247 295 354
#     4  11  22  39  61  88 123 159 199 247 298 349
#
# _framework density 19.549954
#
# number of rings (size 3 to 8) (size 9 to 14) (size 15 to 20)
#    0.000    1.385    3.846    2.077    0.000    4.000 
#    0.000    3.077    0.000    0.462    0.000    0.000 
#    0.000    0.000    0.000    0.000    0.000    0.000 
#
# Total GULP energy -289787.684223 kJ/mol
# GULP energy per Si atom -5572.840081 kJ/mol
# Density = 1.950546 g / cm^3
# Si number density = 19.549954 Si / 1000 Ang^3
#
#
#
# Elastic Constant Matrix: (Units=GPa)
#
#
# Indices 1 2 3 4 5 6 
#
# 1 74.6600 32.0545 2.4706 0.0000 0.0000 0.0000
# 2 32.0545 113.1927 10.2931 0.0000 0.0000 0.0000
# 3 2.4706 10.2931 33.1868 0.0000 0.0000 0.0000
# 4 0.0000 0.0000 0.0000 25.2694 0.0000 0.0000
# 5 0.0000 0.0000 0.0000 0.0000 32.3344 0.0000
# 6 0.0000 0.0000 0.0000 0.0000 0.0000 13.0999
#
#
#
# Elastic Compliance Matrix: (Units=1/GPa)
#
#
# Indices 1 2 3 4 5 6 
#
# 1 0.015249 -0.004338 0.000210 0.000000 0.000000 0.000000
# 2 -0.004338 0.010325 -0.002879 0.000000 0.000000 0.000000
# 3 0.000210 -0.002879 0.031010 0.000000 0.000000 0.000000
# 4 0.000000 0.000000 0.000000 0.039573 0.000000 0.000000
# 5 0.000000 0.000000 0.000000 0.000000 0.030927 0.000000
# 6 0.000000 0.000000 0.000000 0.000000 0.000000 0.076336
#
#
# Mechanical properties :
#
#
# Convention : Reuss Voigt Hill
#
# Bulk Modulus (GPa) = 23.49055 34.51955 29.00505
# Shear Modulus (GPa) = 21.58668 25.88884 23.73776
#
# Velocity S-wave (km/s) = 3.32653 3.64296 3.48833
# Velocity P-wave (km/s) = 5.17650 5.94897 5.57613
#
# Compressibility (1/GPa) = 0.04257030
#
# Stress axis : x y z
#
# Youngs Moduli (GPa) = 65.57646 96.85570 32.24780
#
# Poissons Ratio (x) = 0.42011 -0.00677
# Poissons Ratio (y) = 0.28444 0.09285
# Poissons Ratio (z) = -0.01377 0.27888
#
# Static dielectric constant tensor:
#      x y z
#    x 1.701220 0.000000 0.000000 
#    y 0.000000 1.719890 0.000000 
#    z 0.000000 0.000000 1.684050 
# 
# From -- ./inp_files/12593.got.cif
#   From: 2010.05.17/outbox.cif.g08.bks.cpg/sg63_7_cif.got.tgz:12593.got - 2010.06.03 15:47:04.
