data_PCOD9470764
_publ_section_title
;
Structure prediction by ZEFSAII (Michael W. Deem and Ramdas Pophale) SiO2 
 PCOD9470764
Probable space group: C M C M
;
_chemical_formula_sum "Si O2"
_cell_formula_units_Z 116
_cell_length_a 31.644918
_cell_length_b 23.183159
_cell_length_c 7.673532
_cell_angle_alpha 90.000000
_cell_angle_beta 90.000000
_cell_angle_gamma 90.000000
_cell_volume 5629.526878
_symmetry_space_group_name_H-M "C M C M"
_symmetry_group_IT_number 63
_symmetry_cell_setting 'orthorhombic'
loop_
_space_group_symop_operation_xyz
x,y,z
-x,-y,1/2+z
x,-y,-z
-x,y,1/2-z
-x,-y,-z
x,y,1/2-z
-x,y,z
x,-y,1/2+z
1/2+x,1/2+y,z
1/2-x,1/2-y,1/2+z
1/2+x,1/2-y,-z
1/2-x,1/2+y,1/2-z
1/2-x,1/2-y,-z
1/2+x,1/2+y,1/2-z
1/2-x,1/2+y,z
1/2+x,1/2-y,1/2+z
loop_
_atom_site_type_symbol
_atom_site_label
_atom_site_fract_x
_atom_site_fract_y
_atom_site_fract_z
Si Si1 0.000000 0.592363 0.750000
Si Si2 0.183098 0.066108 0.956254
Si Si3 0.564958 0.870559 0.954042
Si Si4 0.133114 0.820320 0.540976
Si Si5 0.855843 0.439713 0.545815
Si Si6 0.547601 0.737437 0.462016
Si Si7 0.773124 0.607243 0.549427
Si Si8 0.797152 0.729173 0.959305
O O1 0.036142 0.597706 0.594952
O O2 0.186940 0.066836 0.750000
O O3 0.229254 0.085208 0.030592
O O4 0.149489 0.115386 0.003734
O O5 0.172850 0.000000 0.000000
O O6 0.557443 0.886530 0.750000
O O7 0.613032 0.887468 0.998413
O O8 0.556400 0.802514 0.975130
O O9 0.132313 0.814993 0.750000
O O10 0.086172 0.803173 0.479593
O O11 0.167590 0.773637 0.472734
O O12 0.877956 0.500000 0.500000
O O13 0.847561 0.437923 0.750000
O O14 0.810931 0.437818 0.452181
O O15 0.547673 0.739672 0.250000
O O16 0.500000 0.720494 0.515871
O O17 0.763262 0.622354 0.750000
O O18 0.794961 0.664122 0.469728
O O19 0.803535 0.727772 0.750000
O O20 0.750000 0.750000 0.000000
#
# Coordination Sequence:
#
# PCOD9470764 Si02
#       8
#     4  16  16  16  16  16  16  16
#     4  12  22  40  70  86 122 168 188 266 322 364
#     4  11  23  39  58  82 116 157 203 248 296 354
#     4  11  23  40  64  93 121 157 208 251 311 381
#     4  10  21  35  58  89 121 159 197 238 298 364
#     4  11  25  40  60  85 115 155 205 257 303 360
#     4  10  19  37  64  92 122 158 194 244 311 369
#     4  10  21  37  59  85 116 157 200 244 297 356
#     4  10  19  33  53  83 119 153 187 234 287 351
#
# _framework density 20.605639
#
# number of rings (size 3 to 8) (size 9 to 14) (size 15 to 20)
#    0.000    1.517    2.759    2.276    1.931    4.414 
#    0.000    0.345    0.000    0.414    0.000    0.000 
#    0.000    0.000    0.000    0.000    0.000    0.000 
#
# Total GULP energy -323153.162342 kJ/mol
# GULP energy per Si atom -5571.606247 kJ/mol
# Density = 2.055874 g / cm^3
# Si number density = 20.605639 Si / 1000 Ang^3
#
#
#
# Elastic Constant Matrix: (Units=GPa)
#
#
# Indices 1 2 3 4 5 6 
#
# 1 153.4535 63.1867 13.6097 0.0000 0.0000 0.0000
# 2 63.1867 107.5352 -1.5117 0.0000 0.0000 0.0000
# 3 13.6097 -1.5117 60.2944 0.0000 0.0000 0.0000
# 4 0.0000 0.0000 0.0000 15.6798 0.0000 0.0000
# 5 0.0000 0.0000 0.0000 0.0000 22.2346 0.0000
# 6 0.0000 0.0000 0.0000 0.0000 0.0000 -1.7839
#
#
#
# Elastic Compliance Matrix: (Units=1/GPa)
#
#
# Indices 1 2 3 4 5 6 
#
# 1 0.008862 -0.005237 -0.002132 0.000000 0.000000 0.000000
# 2 -0.005237 0.012398 0.001493 0.000000 0.000000 0.000000
# 3 -0.002132 0.001493 0.017104 0.000000 0.000000 0.000000
# 4 0.000000 0.000000 0.000000 0.063777 0.000000 0.000000
# 5 0.000000 0.000000 0.000000 0.000000 0.044975 0.000000
# 6 0.000000 0.000000 0.000000 0.000000 0.000000 -0.560559
#
#
# Mechanical properties :
#
#
# Convention : Reuss Voigt Hill
#
# Bulk Modulus (GPa) = 37.57738 52.42804 45.00271
# Shear Modulus (GPa) = -12.72844 23.62598 5.44877
#
# Velocity S-wave (km/s) = -2.48809 3.38979 1.62790
# Velocity P-wave (km/s) = 3.16575 6.38903 5.04191
#
# Compressibility (1/GPa) = 0.02661175
#
# Stress axis : x y z
#
# Youngs Moduli (GPa) = 112.83826 80.66022 58.46626
#
# Poissons Ratio (x) = 0.42244 0.12463
# Poissons Ratio (y) = 0.59097 -0.08729
# Poissons Ratio (z) = 0.24054 -0.12043
#
# Static dielectric constant tensor:
#      x y z
#    x 1.768760 0.000000 0.000000 
#    y 0.000000 1.801740 0.000000 
#    z 0.000000 0.000000 1.749700 
# 
# From -- ./inp_files/14723.got.cif
#   From: 2010.05.17/outbox.cif.g08.bks.cpg/sg63_8_cif.got.tgz:14723.got - 2010.06.03 15:47:04.
