data_PCOD9470726
_publ_section_title
;
Structure prediction by ZEFSAII (Michael W. Deem and Ramdas Pophale) SiO2 
 PCOD9470726
Probable space group: C M C M
;
_chemical_formula_sum "Si O2"
_cell_formula_units_Z 116
_cell_length_a 7.433878
_cell_length_b 25.309290
_cell_length_c 31.488100
_cell_angle_alpha 90.000000
_cell_angle_beta 90.000000
_cell_angle_gamma 90.000000
_cell_volume 5924.365546
_symmetry_space_group_name_H-M "C M C M"
_symmetry_group_IT_number 63
_symmetry_cell_setting 'orthorhombic'
loop_
_space_group_symop_operation_xyz
x,y,z
-x,-y,1/2+z
x,-y,-z
-x,y,1/2-z
-x,-y,-z
x,y,1/2-z
-x,y,z
x,-y,1/2+z
1/2+x,1/2+y,z
1/2-x,1/2-y,1/2+z
1/2+x,1/2-y,-z
1/2-x,1/2+y,1/2-z
1/2-x,1/2-y,-z
1/2+x,1/2+y,1/2-z
1/2-x,1/2+y,z
1/2+x,1/2-y,1/2+z
loop_
_atom_site_type_symbol
_atom_site_label
_atom_site_fract_x
_atom_site_fract_y
_atom_site_fract_z
Si Si1 0.282710 0.242772 0.817517
Si Si2 0.708621 0.654000 0.947099
Si Si3 0.784002 0.766370 0.584810
Si Si4 0.000000 0.280979 0.750000
Si Si5 0.281234 0.879694 0.297656
Si Si6 0.782072 0.873215 0.959123
Si Si7 0.289811 0.008115 0.452498
Si Si8 0.204808 0.430203 0.118279
O O1 0.500000 0.249278 0.811382
O O2 0.238273 0.255169 0.866387
O O3 0.159077 0.276933 0.786808
O O4 0.237206 0.181484 0.807120
O O5 0.500000 0.639188 0.944434
O O6 0.722212 0.716818 0.943158
O O7 0.799999 0.624897 0.907692
O O8 0.779716 0.633837 0.992163
O O9 0.720036 0.822693 0.567585
O O10 0.000000 0.766592 0.582157
O O11 0.221509 0.893133 0.250000
O O12 0.500000 0.882109 0.298318
O O13 0.214294 0.916636 0.335902
O O14 0.723920 0.930100 0.942472
O O15 0.000000 0.872628 0.959579
O O16 0.500000 0.992512 0.455615
O O17 0.211988 0.000000 0.500000
O O18 0.212508 0.971933 0.414871
O O19 0.000000 0.448178 0.126327
#
# Coordination Sequence:
#
# PCOD9470726 Si02
#       8
#    16  16  16   4  16  16  16  16
#     4  10  20  34  54  81 113 149 185 225 282 346
#     4  11  21  31  50  80 112 143 182 228 275 328
#     4  10  21  37  54  75 110 151 187 222 276 342
#     4  12  22  32  56  82 116 148 182 236 276 342
#     4   9  16  30  51  75 102 138 177 220 273 336
#     4  10  22  37  53  76 107 149 190 230 277 328
#     4  10  20  34  54  78 103 140 189 231 274 325
#     4  10  19  33  53  76 106 143 181 221 276 333
#
# _framework density 19.580157
#
# number of rings (size 3 to 8) (size 9 to 14) (size 15 to 20)
#    0.000    1.931    3.448    1.034    0.966    1.931 
#    0.000    0.000    0.000    0.000    1.793    0.000 
#    0.000    0.000    0.000    0.000    0.000    0.000 
#
# Total GULP energy -323269.426135 kJ/mol
# GULP energy per Si atom -5573.610795 kJ/mol
# Density = 1.953559 g / cm^3
# Si number density = 19.580157 Si / 1000 Ang^3
#
#
#
# Elastic Constant Matrix: (Units=GPa)
#
#
# Indices 1 2 3 4 5 6 
#
# 1 69.2301 -6.0975 12.7904 0.0000 0.0000 0.0000
# 2 -6.0975 102.9235 48.0470 0.0000 0.0000 0.0000
# 3 12.7904 48.0470 140.3977 0.0000 0.0000 0.0000
# 4 0.0000 0.0000 0.0000 9.4542 0.0000 0.0000
# 5 0.0000 0.0000 0.0000 0.0000 15.9089 0.0000
# 6 0.0000 0.0000 0.0000 0.0000 0.0000 14.0783
#
#
#
# Elastic Compliance Matrix: (Units=1/GPa)
#
#
# Indices 1 2 3 4 5 6 
#
# 1 0.014971 0.001813 -0.001984 0.000000 0.000000 0.000000
# 2 0.001813 0.011783 -0.004198 0.000000 0.000000 0.000000
# 3 -0.001984 -0.004198 0.008740 0.000000 0.000000 0.000000
# 4 0.000000 0.000000 0.000000 0.105773 0.000000 0.000000
# 5 0.000000 0.000000 0.000000 0.000000 0.062858 0.000000
# 6 0.000000 0.000000 0.000000 0.000000 0.000000 0.071031
#
#
# Mechanical properties :
#
#
# Convention : Reuss Voigt Hill
#
# Bulk Modulus (GPa) = 37.37427 46.89234 42.13330
# Shear Modulus (GPa) = 17.07580 25.07570 21.07575
#
# Velocity S-wave (km/s) = 2.95633 3.58253 3.28439
# Velocity P-wave (km/s) = 5.54820 6.41199 5.99567
#
# Compressibility (1/GPa) = 0.02675637
#
# Stress axis : x y z
#
# Youngs Moduli (GPa) = 66.79614 84.86883 114.41792
#
# Poissons Ratio (x) = -0.15389 0.22705
# Poissons Ratio (y) = -0.12112 0.48027
# Poissons Ratio (z) = 0.13255 0.35624
#
# Static dielectric constant tensor:
#      x y z
#    x 1.735620 0.000000 0.000000 
#    y 0.000000 1.664810 0.000000 
#    z 0.000000 0.000000 1.699410 
# 
# From -- ./inp_files/72092.got.cif
#   From: 2010.05.17/outbox.cif.g08.bks.cpg/sg63_37_cif.got.tgz:72092.got - 2010.06.03 15:47:04.
