data_PCOD9470487
_publ_section_title
;
Structure prediction by ZEFSAII (Michael W. Deem and Ramdas Pophale) SiO2 
 PCOD9470487
Probable space group: C M C M
;
_chemical_formula_sum "Si O2"
_cell_formula_units_Z 112
_cell_length_a 13.271778
_cell_length_b 22.832348
_cell_length_c 21.021961
_cell_angle_alpha 90.000000
_cell_angle_beta 90.000000
_cell_angle_gamma 90.000000
_cell_volume 6370.197682
_symmetry_space_group_name_H-M "C M C M"
_symmetry_group_IT_number 63
_symmetry_cell_setting 'orthorhombic'
loop_
_space_group_symop_operation_xyz
x,y,z
-x,-y,1/2+z
x,-y,-z
-x,y,1/2-z
-x,-y,-z
x,y,1/2-z
-x,y,z
x,-y,1/2+z
1/2+x,1/2+y,z
1/2-x,1/2-y,1/2+z
1/2+x,1/2-y,-z
1/2-x,1/2+y,1/2-z
1/2-x,1/2-y,-z
1/2+x,1/2+y,1/2-z
1/2-x,1/2+y,z
1/2+x,1/2-y,1/2+z
loop_
_atom_site_type_symbol
_atom_site_label
_atom_site_fract_x
_atom_site_fract_y
_atom_site_fract_z
Si Si1 0.615029 0.041385 0.821353
Si Si2 0.243688 0.742405 0.422460
Si Si3 0.780648 0.372164 0.420042
Si Si4 0.879388 0.827176 0.677194
Si Si5 0.759193 0.058260 0.359128
Si Si6 0.382850 0.864587 0.945674
Si Si7 0.387465 0.534430 0.566042
O O1 0.615300 0.065041 0.750000
O O2 0.500000 0.029056 0.840582
O O3 0.663577 0.088944 0.867732
O O4 0.679502 0.981782 0.822028
O O5 0.250000 0.750000 0.500000
O O6 0.242378 0.808742 0.398023
O O7 0.332565 0.710994 0.381209
O O8 0.149725 0.698093 0.415827
O O9 0.855519 0.363649 0.479672
O O10 0.684649 0.410117 0.441193
O O11 0.864056 0.803852 0.750000
O O12 0.820240 0.889128 0.673381
O O13 0.000000 0.834211 0.668233
O O14 0.691517 0.087940 0.414345
O O15 0.839185 0.011632 0.385459
O O16 0.500000 0.877072 0.935578
O O17 0.390879 0.500000 0.500000
O O18 0.500000 0.551657 0.584780
#
# Coordination Sequence:
#
# PCOD9470487 Si02
#       7
#    16  16  16  16  16  16  16
#     4  10  21  34  52  78 108 147 187 223 270 328
#     4   9  21  37  53  79 111 145 184 232 284 340
#     4  10  20  36  52  77 109 140 178 225 274 326
#     4  10  21  37  60  87 113 147 191 241 293 340
#     4  10  19  35  53  80 114 144 178 231 274 334
#     4  10  19  33  54  78 103 139 179 222 274 327
#     4  10  19  32  52  79 110 144 178 217 273 334
#
# _framework density 17.581872000000001
#
# number of rings (size 3 to 8) (size 9 to 14) (size 15 to 20)
#    0.000    2.143    1.429    1.714    0.000    4.000 
#    0.000    3.571    0.000    7.714    0.000    8.000 
#    0.000    0.000    0.000    0.000    0.000    0.000 
#
# Total GULP energy -311754.017017 kJ/mol
# GULP energy per Si atom -5567.036018 kJ/mol
# Density = 1.754185 g / cm^3
# Si number density = 17.581872 Si / 1000 Ang^3
#
#
#
# Elastic Constant Matrix: (Units=GPa)
#
#
# Indices 1 2 3 4 5 6 
#
# 1 128.9514 41.5596 36.3059 0.0000 0.0000 0.0000
# 2 41.5596 102.1030 29.1889 0.0000 0.0000 0.0000
# 3 36.3059 29.1889 67.8307 0.0000 0.0000 0.0000
# 4 0.0000 0.0000 0.0000 13.7813 0.0000 0.0000
# 5 0.0000 0.0000 0.0000 0.0000 33.7367 0.0000
# 6 0.0000 0.0000 0.0000 0.0000 0.0000 10.8573
#
#
#
# Elastic Compliance Matrix: (Units=1/GPa)
#
#
# Indices 1 2 3 4 5 6 
#
# 1 0.009803 -0.002840 -0.004025 0.000000 0.000000 0.000000
# 2 -0.002840 0.011990 -0.003640 0.000000 0.000000 0.000000
# 3 -0.004025 -0.003640 0.018463 0.000000 0.000000 0.000000
# 4 0.000000 0.000000 0.000000 0.072562 0.000000 0.000000
# 5 0.000000 0.000000 0.000000 0.000000 0.029641 0.000000
# 6 0.000000 0.000000 0.000000 0.000000 0.000000 0.092104
#
#
# Mechanical properties :
#
#
# Convention : Reuss Voigt Hill
#
# Bulk Modulus (GPa) = 51.95408 56.99932 54.47670
# Shear Modulus (GPa) = 19.08472 24.46378 21.77425
#
# Velocity S-wave (km/s) = 3.29823 3.73422 3.52298
# Velocity P-wave (km/s) = 6.64217 7.14719 6.89930
#
# Compressibility (1/GPa) = 0.01924777
#
# Stress axis : x y z
#
# Youngs Moduli (GPa) = 102.00632 83.40019 54.16137
#
# Poissons Ratio (x) = 0.23682 0.21801
# Poissons Ratio (y) = 0.28965 0.19714
# Poissons Ratio (z) = 0.41060 0.30356
#
# Static dielectric constant tensor:
#      x y z
#    x 1.590810 0.000000 0.000000 
#    y 0.000000 1.597920 0.000000 
#    z 0.000000 0.000000 1.618630 
# 
# From -- ./inp_files/53177.got.cif
#   From: 2010.05.17/outbox.cif.g08.bks.cpg/sg63_27_cif.got.tgz:53177.got - 2010.06.03 15:47:04.
