data_PCOD9470683
_publ_section_title
;
Structure prediction by ZEFSAII (Michael W. Deem and Ramdas Pophale) SiO2 
 PCOD9470683
Probable space group: C M C M
;
_chemical_formula_sum "Si O2"
_cell_formula_units_Z 104
_cell_length_a 27.000329
_cell_length_b 24.441536
_cell_length_c 9.086005
_cell_angle_alpha 90.000000
_cell_angle_beta 90.000000
_cell_angle_gamma 90.000000
_cell_volume 5996.122857
_symmetry_space_group_name_H-M "C M C M"
_symmetry_group_IT_number 63
_symmetry_cell_setting 'orthorhombic'
loop_
_space_group_symop_operation_xyz
x,y,z
-x,-y,1/2+z
x,-y,-z
-x,y,1/2-z
-x,-y,-z
x,y,1/2-z
-x,y,z
x,-y,1/2+z
1/2+x,1/2+y,z
1/2-x,1/2-y,1/2+z
1/2+x,1/2-y,-z
1/2-x,1/2+y,1/2-z
1/2-x,1/2-y,-z
1/2+x,1/2+y,1/2-z
1/2-x,1/2+y,z
1/2+x,1/2-y,1/2+z
loop_
_atom_site_type_symbol
_atom_site_label
_atom_site_fract_x
_atom_site_fract_y
_atom_site_fract_z
Si Si1 0.691356 0.814959 0.077579
Si Si2 0.114110 0.849418 0.079934
Si Si3 0.917319 0.637613 0.576872
Si Si4 0.793438 0.816139 0.919222
Si Si5 0.442374 0.445198 0.924289
Si Si6 0.056453 0.237595 0.416292
Si Si7 0.500000 0.938857 0.928636
O O1 0.701486 0.827947 0.250000
O O2 0.640182 0.846580 0.037942
O O3 0.690669 0.748260 0.071834
O O4 0.737468 0.826647 0.971491
O O5 0.108193 0.861656 0.250000
O O6 0.170531 0.846764 0.030104
O O7 0.086536 0.893430 0.981469
O O8 0.088913 0.791926 0.037502
O O9 0.917949 0.621219 0.750000
O O10 0.942546 0.697327 0.566949
O O11 0.950981 0.594802 0.485791
O O12 0.800214 0.832700 0.750000
O O13 0.439410 0.450078 0.750000
O O14 0.500000 0.439081 0.966455
O O15 0.423057 0.500000 0.000000
O O16 0.075499 0.225518 0.250000
O O17 0.000000 0.217877 0.424604
O O18 0.500000 0.941624 0.750000
O O19 0.500000 0.000000 0.000000
#
# Coordination Sequence:
#
# PCOD9470683 Si02
#       7
#    16  16  16  16  16  16   8
#     4   9  18  33  54  80 111 148 184 224 278 338
#     4  12  23  33  50  78 113 148 188 233 274 323
#     4  10  19  37  60  82 113 149 183 226 283 339
#     4  10  19  33  52  77 112 150 189 227 275 334
#     4  10  21  38  58  78 104 142 186 229 276 328
#     4  10  19  33  52  76 110 149 183 220 278 339
#     4  12  26  42  62  88 116 150 197 240 283 338
#
# _framework density 17.344542000000001
#
# number of rings (size 3 to 8) (size 9 to 14) (size 15 to 20)
#    0.000    1.692    2.308    3.462    0.000    4.923 
#    0.000    0.000    0.000    0.923    0.000    2.154 
#    0.000    0.000    0.000    0.000    0.000    0.000 
#
# Total GULP energy -289927.322715 kJ/mol
# GULP energy per Si atom -5575.525437 kJ/mol
# Density = 1.730507 g / cm^3
# Si number density = 17.344542 Si / 1000 Ang^3
#
#
#
# Elastic Constant Matrix: (Units=GPa)
#
#
# Indices 1 2 3 4 5 6 
#
# 1 92.8554 24.9064 24.0640 0.0000 0.0000 0.0000
# 2 24.9064 57.0883 19.3253 0.0000 0.0000 0.0000
# 3 24.0640 19.3253 27.9885 0.0000 0.0000 0.0000
# 4 0.0000 0.0000 0.0000 26.6011 0.0000 0.0000
# 5 0.0000 0.0000 0.0000 0.0000 43.6409 0.0000
# 6 0.0000 0.0000 0.0000 0.0000 0.0000 41.6582
#
#
#
# Elastic Compliance Matrix: (Units=1/GPa)
#
#
# Indices 1 2 3 4 5 6 
#
# 1 0.014165 -0.002685 -0.010325 0.000000 0.000000 0.000000
# 2 -0.002685 0.023369 -0.013827 0.000000 0.000000 0.000000
# 3 -0.010325 -0.013827 0.054154 0.000000 0.000000 0.000000
# 4 0.000000 0.000000 0.000000 0.037592 0.000000 0.000000
# 5 0.000000 0.000000 0.000000 0.000000 0.022914 0.000000
# 6 0.000000 0.000000 0.000000 0.000000 0.000000 0.024005
#
#
# Mechanical properties :
#
#
# Convention : Reuss Voigt Hill
#
# Bulk Modulus (GPa) = 26.30657 34.94707 30.62682
# Shear Modulus (GPa) = 20.61469 29.68914 25.15191
#
# Velocity S-wave (km/s) = 3.45126 4.14179 3.81219
# Velocity P-wave (km/s) = 5.57509 6.56240 6.08879
#
# Compressibility (1/GPa) = 0.03801331
#
# Stress axis : x y z
#
# Youngs Moduli (GPa) = 70.59433 42.79220 18.46589
#
# Poissons Ratio (x) = 0.11489 0.19067
# Poissons Ratio (y) = 0.18953 0.25533
# Poissons Ratio (z) = 0.72892 0.59170
#
# Static dielectric constant tensor:
#      x y z
#    x 1.635580 0.000000 0.000000 
#    y 0.000000 1.622420 0.000000 
#    z 0.000000 0.000000 1.579590 
# 
# From -- ./inp_files/12876.got.cif
#   From: 2010.05.17/outbox.cif.g08.bks.cpg/sg63_7_cif.got.tgz:12876.got - 2010.06.03 15:47:04.
