data_PCOD9470195
_publ_section_title
;
Structure prediction by ZEFSAII (Michael W. Deem and Ramdas Pophale) SiO2 
 PCOD9470195
Probable space group: C M C M
;
_chemical_formula_sum "Si O2"
_cell_formula_units_Z 72
_cell_length_a 26.150429
_cell_length_b 17.566968
_cell_length_c 8.819882
_cell_angle_alpha 90.000000
_cell_angle_beta 90.000000
_cell_angle_gamma 90.000000
_cell_volume 4051.710463
_symmetry_space_group_name_H-M "C M C M"
_symmetry_group_IT_number 63
_symmetry_cell_setting 'orthorhombic'
loop_
_space_group_symop_operation_xyz
x,y,z
-x,-y,1/2+z
x,-y,-z
-x,y,1/2-z
-x,-y,-z
x,y,1/2-z
-x,y,z
x,-y,1/2+z
1/2+x,1/2+y,z
1/2-x,1/2-y,1/2+z
1/2+x,1/2-y,-z
1/2-x,1/2+y,1/2-z
1/2-x,1/2-y,-z
1/2+x,1/2+y,1/2-z
1/2-x,1/2+y,z
1/2+x,1/2-y,1/2+z
loop_
_atom_site_type_symbol
_atom_site_label
_atom_site_fract_x
_atom_site_fract_y
_atom_site_fract_z
Si Si1 0.305714 0.758297 0.569450
Si Si2 0.347786 0.926145 0.929492
Si Si3 0.500000 0.585549 0.067105
Si Si4 0.557740 0.855963 0.427113
Si Si5 0.913539 0.804669 0.067457
O O1 0.302310 0.748674 0.750000
O O2 0.250000 0.750000 0.500000
O O3 0.321440 0.845535 0.538538
O O4 0.353334 0.703803 0.520272
O O5 0.352695 0.934733 0.750000
O O6 0.402493 0.915575 0.007808
O O7 0.321432 0.000000 0.000000
O O8 0.500000 0.584034 0.250000
O O9 0.500000 0.500000 0.000000
O O10 0.449612 0.631653 0.008551
O O11 0.568523 0.840154 0.250000
O O12 0.500000 0.883133 0.440537
O O13 0.563911 0.777358 0.519363
O O14 0.915687 0.813030 0.250000
#
# Coordination Sequence:
#
# PCOD9470195 Si02
#       5
#    16  16   8  16  16
#     4   9  20  37  59  85 110 144 189 234 283 339
#     4  10  21  36  53  77 108 142 180 223 277 327
#     4  12  24  38  58  86 117 154 195 242 300 354
#     4  10  19  31  51  79 108 143 184 218 261 320
#     4  10  20  36  57  82 114 149 187 233 283 338
#
# _framework density 17.770273
#
# number of rings (size 3 to 8) (size 9 to 14) (size 15 to 20)
#    0.000    2.000    1.111    4.333    0.000    7.111 
#    0.000    1.111    0.000    2.667    0.000    0.000 
#    0.000    0.000    0.000    0.000    0.000    0.000 
#
# Total GULP energy -200681.111917 kJ/mol
# GULP energy per Si atom -5574.475331 kJ/mol
# Density = 1.772983 g / cm^3
# Si number density = 17.770273 Si / 1000 Ang^3
#
#
#
# Elastic Constant Matrix: (Units=GPa)
#
#
# Indices 1 2 3 4 5 6 
#
# 1 140.8269 50.9583 60.7895 0.0000 0.0000 0.0000
# 2 50.9583 81.5047 52.8726 0.0000 0.0000 0.0000
# 3 60.7895 52.8726 72.6691 0.0000 0.0000 0.0000
# 4 0.0000 0.0000 0.0000 31.3710 0.0000 0.0000
# 5 0.0000 0.0000 0.0000 0.0000 32.6203 0.0000
# 6 0.0000 0.0000 0.0000 0.0000 0.0000 10.5751
#
#
#
# Elastic Compliance Matrix: (Units=1/GPa)
#
#
# Indices 1 2 3 4 5 6 
#
# 1 0.011246 -0.001758 -0.008128 0.000000 0.000000 0.000000
# 2 -0.001758 0.023511 -0.015636 0.000000 0.000000 0.000000
# 3 -0.008128 -0.015636 0.031936 0.000000 0.000000 0.000000
# 4 0.000000 0.000000 0.000000 0.031877 0.000000 0.000000
# 5 0.000000 0.000000 0.000000 0.000000 0.030656 0.000000
# 6 0.000000 0.000000 0.000000 0.000000 0.000000 0.094561
#
#
# Mechanical properties :
#
#
# Convention : Reuss Voigt Hill
#
# Bulk Modulus (GPa) = 63.89869 69.36018 66.62944
# Shear Modulus (GPa) = 17.85412 23.60533 20.72972
#
# Velocity S-wave (km/s) = 3.17317 3.64862 3.41917
# Velocity P-wave (km/s) = 7.03289 7.54097 7.29136
#
# Compressibility (1/GPa) = 0.01564977
#
# Stress axis : x y z
#
# Youngs Moduli (GPa) = 88.92282 42.53246 31.31231
#
# Poissons Ratio (x) = 0.07479 0.25450
# Poissons Ratio (y) = 0.15636 0.48958
# Poissons Ratio (z) = 0.72276 0.66502
#
# Static dielectric constant tensor:
#      x y z
#    x 1.608010 0.000000 0.000000 
#    y 0.000000 1.592340 0.000000 
#    z 0.000000 0.000000 1.606780 
# 
# From -- ./inp_files/11713.got.cif
#   From: 2010.05.17/outbox.cif.g08.bks.cpg/sg63_6_cif.got.tgz:11713.got - 2010.06.03 15:47:04.
