data_PCOD9470160
_publ_section_title
;
Structure prediction by ZEFSAII (Michael W. Deem and Ramdas Pophale) SiO2 
 PCOD9470160
Probable space group: C M C M
;
_chemical_formula_sum "Si O2"
_cell_formula_units_Z 80
_cell_length_a 7.531618
_cell_length_b 14.599280
_cell_length_c 31.865071
_cell_angle_alpha 90.000000
_cell_angle_beta 90.000000
_cell_angle_gamma 90.000000
_cell_volume 3503.762121
_symmetry_space_group_name_H-M "C M C M"
_symmetry_group_IT_number 63
_symmetry_cell_setting 'orthorhombic'
loop_
_space_group_symop_operation_xyz
x,y,z
-x,-y,1/2+z
x,-y,-z
-x,y,1/2-z
-x,-y,-z
x,y,1/2-z
-x,y,z
x,-y,1/2+z
1/2+x,1/2+y,z
1/2-x,1/2-y,1/2+z
1/2+x,1/2-y,-z
1/2-x,1/2+y,1/2-z
1/2-x,1/2-y,-z
1/2+x,1/2+y,1/2-z
1/2-x,1/2+y,z
1/2+x,1/2-y,1/2+z
loop_
_atom_site_type_symbol
_atom_site_label
_atom_site_fract_x
_atom_site_fract_y
_atom_site_fract_z
Si Si1 0.294623 0.641088 0.884443
Si Si2 0.206513 0.851269 0.887124
Si Si3 0.712185 0.132608 0.295162
Si Si4 0.717555 0.503129 0.952205
Si Si5 0.215108 0.851489 0.294629
O O1 0.500000 0.612103 0.882108
O O2 0.291823 0.750955 0.887164
O O3 0.222820 0.591690 0.925576
O O4 0.213685 0.614431 0.839180
O O5 0.221833 0.896985 0.840865
O O6 0.000000 0.834798 0.894763
O O7 0.273767 0.917369 0.923569
O O8 0.780848 0.096760 0.250000
O O9 0.500000 0.121327 0.295352
O O10 0.749034 0.242103 0.294592
O O11 0.500000 0.502328 0.953907
O O12 0.779750 0.500000 0.000000
O O13 0.282563 0.888089 0.250000
O O14 0.000000 0.861715 0.294674
#
# Coordination Sequence:
#
# PCOD9470160 Si02
#       5
#    16  16  16  16  16
#     4   9  17  32  53  72  94 132 174 204 244 308
#     4  10  19  31  50  77 105 130 163 213 261 294
#     4   8  14  27  48  72 100 136 170 196 235 300
#     4   9  19  35  52  71  99 135 173 213 258 307
#     4   7  10  19  39  66  90 114 151 193 226 269
#
# _framework density 22.832599999999999
#
# number of rings (size 3 to 8) (size 9 to 14) (size 15 to 20)
#    0.000    3.400    0.000    3.000    0.000    1.200 
#    0.000    3.000    0.000    7.800    0.000    0.000 
#    0.000    0.000    0.000    0.000    0.000    0.000 
#
# Total GULP energy -222988.427098 kJ/mol
# GULP energy per Si atom -5574.710677 kJ/mol
# Density = 2.278063 g / cm^3
# Si number density = 22.832600 Si / 1000 Ang^3
#
#
#
# Elastic Constant Matrix: (Units=GPa)
#
#
# Indices 1 2 3 4 5 6 
#
# 1 52.1884 -7.9028 6.6750 0.0000 0.0000 0.0000
# 2 -7.9028 83.1701 71.2292 0.0000 0.0000 0.0000
# 3 6.6750 71.2292 287.0459 0.0000 0.0000 0.0000
# 4 0.0000 0.0000 0.0000 45.0861 0.0000 0.0000
# 5 0.0000 0.0000 0.0000 0.0000 22.7971 0.0000
# 6 0.0000 0.0000 0.0000 0.0000 0.0000 4.1088
#
#
#
# Elastic Compliance Matrix: (Units=1/GPa)
#
#
# Indices 1 2 3 4 5 6 
#
# 1 0.019748 0.002882 -0.001174 0.000000 0.000000 0.000000
# 2 0.002882 0.015689 -0.003960 0.000000 0.000000 0.000000
# 3 -0.001174 -0.003960 0.004494 0.000000 0.000000 0.000000
# 4 0.000000 0.000000 0.000000 0.022180 0.000000 0.000000
# 5 0.000000 0.000000 0.000000 0.000000 0.043865 0.000000
# 6 0.000000 0.000000 0.000000 0.000000 0.000000 0.243378
#
#
# Mechanical properties :
#
#
# Convention : Reuss Voigt Hill
#
# Bulk Modulus (GPa) = 28.22775 62.48970 45.35872
# Shear Modulus (GPa) = 13.67365 37.89195 25.78280
#
# Velocity S-wave (km/s) = 2.44983 4.07818 3.36402
# Velocity P-wave (km/s) = 4.51575 7.04297 5.91589
#
# Compressibility (1/GPa) = 0.03542614
#
# Stress axis : x y z
#
# Youngs Moduli (GPa) = 50.63795 63.73873 222.52985
#
# Poissons Ratio (x) = -0.18371 0.26135
# Poissons Ratio (y) = -0.14595 0.88126
# Poissons Ratio (z) = 0.05947 0.25242
#
# Static dielectric constant tensor:
#      x y z
#    x 1.849610 0.000000 0.000000 
#    y 0.000000 1.870030 0.000000 
#    z 0.000000 0.000000 1.889710 
# 
# From -- ./inp_files/71596.got.cif
#   From: 2010.05.17/outbox.cif.g08.bks.cpg/sg63_36_cif.got.tgz:71596.got - 2010.06.03 15:47:04.
