data_PCOD9470392
_publ_section_title
;
Structure prediction by ZEFSAII (Michael W. Deem and Ramdas Pophale) SiO2 
 PCOD9470392
Probable space group: C M C M
;
_chemical_formula_sum "Si O2"
_cell_formula_units_Z 80
_cell_length_a 20.277028
_cell_length_b 25.310198
_cell_length_c 9.178605
_cell_angle_alpha 90.000000
_cell_angle_beta 90.000000
_cell_angle_gamma 90.000000
_cell_volume 4710.603213
_symmetry_space_group_name_H-M "C M C M"
_symmetry_group_IT_number 63
_symmetry_cell_setting 'orthorhombic'
loop_
_space_group_symop_operation_xyz
x,y,z
-x,-y,1/2+z
x,-y,-z
-x,y,1/2-z
-x,-y,-z
x,y,1/2-z
-x,y,z
x,-y,1/2+z
1/2+x,1/2+y,z
1/2-x,1/2-y,1/2+z
1/2+x,1/2-y,-z
1/2-x,1/2+y,1/2-z
1/2-x,1/2-y,-z
1/2+x,1/2+y,1/2-z
1/2-x,1/2+y,z
1/2+x,1/2-y,1/2+z
loop_
_atom_site_type_symbol
_atom_site_label
_atom_site_fract_x
_atom_site_fract_y
_atom_site_fract_z
Si Si1 0.000000 0.231763 0.579276
Si Si2 0.404702 0.552441 0.583086
Si Si3 0.253707 0.945823 0.081255
Si Si4 0.253897 0.335572 0.577222
Si Si5 0.000000 0.125528 0.419840
Si Si6 0.850086 0.758176 0.079962
O O1 0.000000 0.185959 0.461186
O O2 0.927164 0.256610 0.558708
O O3 0.000000 0.213099 0.750000
O O4 0.426236 0.500000 0.500000
O O5 0.426080 0.552832 0.750000
O O6 0.325985 0.552919 0.582202
O O7 0.436635 0.600115 0.496561
O O8 0.276059 0.945105 0.250000
O O9 0.266462 0.890598 0.998676
O O10 0.275600 0.000000 0.000000
O O11 0.262855 0.344077 0.750000
O O12 0.195944 0.292599 0.553370
O O13 0.319308 0.306824 0.511907
O O14 0.000000 0.114771 0.250000
O O15 0.842485 0.773382 0.250000
#
# Coordination Sequence:
#
# PCOD9470392 Si02
#       6
#     8  16  16  16   8  16
#     4  10  20  35  51  68  93 125 163 200 236 282
#     4  10  20  33  46  61  85 119 158 196 233 274
#     4  10  20  33  50  71  95 124 158 197 241 288
#     4  10  19  32  51  75 102 130 162 201 246 293
#     4  12  23  31  42  62  89 121 157 196 237 278
#     4   9  19  34  52  73  98 131 167 203 243 288
#
# _framework density 16.982963000000002
#
# number of rings (size 3 to 8) (size 9 to 14) (size 15 to 20)
#    0.000    2.000    0.000    4.200    0.000    8.800 
#    0.000    0.000    0.000    0.000    0.000    0.700 
#    0.000    0.000    0.000    0.000    0.000    0.000 
#
# Total GULP energy -222959.965012 kJ/mol
# GULP energy per Si atom -5573.999125 kJ/mol
# Density = 1.694431 g / cm^3
# Si number density = 16.982963 Si / 1000 Ang^3
#
#
#
# Elastic Constant Matrix: (Units=GPa)
#
#
# Indices 1 2 3 4 5 6 
#
# 1 71.7464 23.3568 28.8951 0.0000 0.0000 0.0000
# 2 23.3568 96.2146 67.5076 0.0000 0.0000 0.0000
# 3 28.8951 67.5076 126.1607 0.0000 0.0000 0.0000
# 4 0.0000 0.0000 0.0000 29.8231 0.0000 0.0000
# 5 0.0000 0.0000 0.0000 0.0000 20.0443 0.0000
# 6 0.0000 0.0000 0.0000 0.0000 0.0000 21.3316
#
#
#
# Elastic Compliance Matrix: (Units=1/GPa)
#
#
# Indices 1 2 3 4 5 6 
#
# 1 0.015603 -0.002050 -0.002477 0.000000 0.000000 0.000000
# 2 -0.002050 0.016911 -0.008579 0.000000 0.000000 0.000000
# 3 -0.002477 -0.008579 0.013084 0.000000 0.000000 0.000000
# 4 0.000000 0.000000 0.000000 0.033531 0.000000 0.000000
# 5 0.000000 0.000000 0.000000 0.000000 0.049889 0.000000
# 6 0.000000 0.000000 0.000000 0.000000 0.000000 0.046879
#
#
# Mechanical properties :
#
#
# Convention : Reuss Voigt Hill
#
# Bulk Modulus (GPa) = 51.58362 59.29340 55.43851
# Shear Modulus (GPa) = 23.97271 25.86395 24.91833
#
# Velocity S-wave (km/s) = 3.76117 3.90671 3.83463
# Velocity P-wave (km/s) = 7.02150 7.43903 7.23328
#
# Compressibility (1/GPa) = 0.01938600
#
# Stress axis : x y z
#
# Youngs Moduli (GPa) = 64.09112 59.13470 76.42754
#
# Poissons Ratio (x) = 0.12123 0.18928
# Poissons Ratio (y) = 0.13139 0.65569
# Poissons Ratio (z) = 0.15873 0.50733
#
# Static dielectric constant tensor:
#      x y z
#    x 1.593640 0.000000 0.000000 
#    y 0.000000 1.591030 0.000000 
#    z 0.000000 0.000000 1.578550 
# 
# From -- ./inp_files/8073.got.cif
#   From: 2010.05.17/outbox.cif.g08.bks.cpg/sg63_5_cif.got.tgz:8073.got - 2010.06.03 15:47:04.
