data_PCOD9470004
_publ_section_title
;
Structure prediction by ZEFSAII (Michael W. Deem and Ramdas Pophale) SiO2 
 PCOD9470004
Probable space group: C M C M
;
_chemical_formula_sum "Si O2"
_cell_formula_units_Z 64
_cell_length_a 14.273100
_cell_length_b 20.213215
_cell_length_c 9.808976
_cell_angle_alpha 90.000000
_cell_angle_beta 90.000000
_cell_angle_gamma 90.000000
_cell_volume 2829.940965
_symmetry_space_group_name_H-M "C M C M"
_symmetry_group_IT_number 63
_symmetry_cell_setting 'orthorhombic'
loop_
_space_group_symop_operation_xyz
x,y,z
-x,-y,1/2+z
x,-y,-z
-x,y,1/2-z
-x,-y,-z
x,y,1/2-z
-x,y,z
x,-y,1/2+z
1/2+x,1/2+y,z
1/2-x,1/2-y,1/2+z
1/2+x,1/2-y,-z
1/2-x,1/2+y,1/2-z
1/2-x,1/2-y,-z
1/2+x,1/2+y,1/2-z
1/2-x,1/2+y,z
1/2+x,1/2-y,1/2+z
loop_
_atom_site_type_symbol
_atom_site_label
_atom_site_fract_x
_atom_site_fract_y
_atom_site_fract_z
Si Si1 0.398608 0.576372 0.541033
Si Si2 0.358891 0.185418 0.094808
Si Si3 0.184269 0.433978 0.406513
Si Si4 0.865290 0.797067 0.603798
O O1 0.398719 0.500000 0.500000
O O2 0.500000 0.588200 0.609122
O O3 0.295212 0.586067 0.604116
O O4 0.397359 0.628054 0.417173
O O5 0.391740 0.174473 0.250000
O O6 0.247294 0.198536 0.104420
O O7 0.367674 0.123422 0.992248
O O8 0.396117 0.250783 0.020101
O O9 0.179017 0.500000 0.500000
O O10 0.151424 0.443154 0.250000
O O11 0.894207 0.769675 0.750000
#
# Coordination Sequence:
#
# PCOD9470004 Si02
#       4
#    16  16  16  16
#     4   9  19  32  45  64  93 129 166 200 233 272
#     4   9  17  30  47  66  89 117 151 193 241 288
#     4  10  19  31  48  70  96 125 158 196 238 284
#     4   9  17  29  46  66  87 116 156 199 240 279
#
# _framework density 22.615310999999998
#
# number of rings (size 3 to 8) (size 9 to 14) (size 15 to 20)
#    0.000    2.750    0.000    1.500    0.000   13.000 
#    0.000    5.000    0.000    0.000    0.000    0.000 
#    0.000    1.000    0.000    3.250    0.000   16.250 
#
# Total GULP energy -178204.775350 kJ/mol
# GULP energy per Si atom -5568.899230 kJ/mol
# Density = 2.256384 g / cm^3
# Si number density = 22.615311 Si / 1000 Ang^3
#
#
#
# Elastic Constant Matrix: (Units=GPa)
#
#
# Indices 1 2 3 4 5 6 
#
# 1 63.6751 15.4339 4.9736 0.0000 0.0000 0.0000
# 2 15.4339 117.1118 77.6789 0.0000 0.0000 0.0000
# 3 4.9736 77.6789 217.8482 0.0000 0.0000 0.0000
# 4 0.0000 0.0000 0.0000 22.2277 0.0000 0.0000
# 5 0.0000 0.0000 0.0000 0.0000 1.0193 0.0000
# 6 0.0000 0.0000 0.0000 0.0000 0.0000-1348.6298
#
#
#
# Elastic Compliance Matrix: (Units=1/GPa)
#
#
# Indices 1 2 3 4 5 6 
#
# 1 0.016267 -0.002485 0.000515 0.000000 0.000000 0.000000
# 2 -0.002485 0.011564 -0.004067 0.000000 0.000000 0.000000
# 3 0.000515 -0.004067 0.006029 0.000000 0.000000 0.000000
# 4 0.000000 0.000000 0.000000 0.044989 0.000000 0.000000
# 5 0.000000 0.000000 0.000000 0.000000 0.981025 0.000000
# 6 0.000000 0.000000 0.000000 0.000000 0.000000 -0.000741
#
#
# Mechanical properties :
#
#
# Convention : Reuss Voigt Hill
#
# Bulk Modulus (GPa) = 45.90272 66.08975 55.99624
# Shear Modulus (GPa) = 4.63621 -245.03998 -120.20188
#
# Velocity S-wave (km/s) = 1.43335 -10.42049 -7.29836
# Velocity P-wave (km/s) = 4.80422 10.74687 6.79760
#
# Compressibility (1/GPa) = 0.02178520
#
# Stress axis : x y z
#
# Youngs Moduli (GPa) = 61.47451 86.47773 165.87524
#
# Poissons Ratio (x) = 0.21492 -0.08539
# Poissons Ratio (y) = 0.15278 0.67454
# Poissons Ratio (z) = -0.03165 0.35167
#
# Static dielectric constant tensor:
#      x y z
#    x 1.877270 0.000000 0.000000 
#    y 0.000000 1.797570 0.000000 
#    z 0.000000 0.000000 1.810120 
# 
# From -- ./inp_files/5738.got.cif
#   From: 2010.05.17/outbox.cif.g08.bks.cpg/sg63_3_cif.got.tgz:5738.got - 2010.06.03 15:47:04.
