data_PCOD9470507
_publ_section_title
;
Structure prediction by ZEFSAII (Michael W. Deem and Ramdas Pophale) SiO2 
 PCOD9470507
Probable space group: C M C M
;
_chemical_formula_sum "Si O2"
_cell_formula_units_Z 96
_cell_length_a 7.727755
_cell_length_b 30.652591
_cell_length_c 19.661782
_cell_angle_alpha 90.000000
_cell_angle_beta 90.000000
_cell_angle_gamma 90.000000
_cell_volume 4657.398637
_symmetry_space_group_name_H-M "C M C M"
_symmetry_group_IT_number 63
_symmetry_cell_setting 'orthorhombic'
loop_
_space_group_symop_operation_xyz
x,y,z
-x,-y,1/2+z
x,-y,-z
-x,y,1/2-z
-x,-y,-z
x,y,1/2-z
-x,y,z
x,-y,1/2+z
1/2+x,1/2+y,z
1/2-x,1/2-y,1/2+z
1/2+x,1/2-y,-z
1/2-x,1/2+y,1/2-z
1/2-x,1/2-y,-z
1/2+x,1/2+y,1/2-z
1/2-x,1/2+y,z
1/2+x,1/2-y,1/2+z
loop_
_atom_site_type_symbol
_atom_site_label
_atom_site_fract_x
_atom_site_fract_y
_atom_site_fract_z
Si Si1 0.797223 0.813776 0.950232
Si Si2 0.205040 0.587945 0.428706
Si Si3 0.709000 0.722720 0.595260
Si Si4 0.795779 0.561969 0.575795
Si Si5 0.787701 0.515940 0.172312
Si Si6 0.709573 0.640005 0.825702
O O1 0.727693 0.860157 0.926789
O O2 0.768419 0.772541 0.901228
O O3 0.000000 0.820316 0.960004
O O4 0.725783 0.797911 0.023635
O O5 0.277748 0.569264 0.500215
O O6 0.268097 0.560864 0.363851
O O7 0.000000 0.580017 0.431115
O O8 0.500000 0.723711 0.593019
O O9 0.761281 0.688985 0.653478
O O10 0.727070 0.522932 0.622651
O O11 0.773994 0.606313 0.618193
O O12 0.000000 0.553041 0.567751
O O13 0.728528 0.511221 0.250000
O O14 0.000000 0.514455 0.174579
O O15 0.769189 0.628368 0.750000
O O16 0.500000 0.638298 0.826718
#
# Coordination Sequence:
#
# PCOD9470507 Si02
#       6
#    16  16  16  16  16  16
#     4  10  19  32  53  77 101 131 169 214 258 299
#     4  10  19  32  53  79 104 135 175 217 259 307
#     4   9  18  33  51  73 102 134 169 207 251 305
#     4  10  19  32  53  79 105 133 172 219 263 305
#     4   9  18  33  52  75 104 138 176 216 257 305
#     4  10  20  34  52  76 108 141 171 208 259 317
#
# _framework density 20.612365
#
# number of rings (size 3 to 8) (size 9 to 14) (size 15 to 20)
#    0.000    2.333    1.667    1.500    0.000    4.333 
#    0.000    1.667    0.000    8.500    0.000    0.000 
#    0.000    0.000    0.000    0.000    0.000    0.000 
#
# Total GULP energy -267858.470711 kJ/mol
# GULP energy per Si atom -5580.384806 kJ/mol
# Density = 2.056545 g / cm^3
# Si number density = 20.612365 Si / 1000 Ang^3
#
#
#
# Elastic Constant Matrix: (Units=GPa)
#
#
# Indices 1 2 3 4 5 6 
#
# 1 27.7406 -5.3138 3.8978 0.0000 0.0000 0.0000
# 2 -5.3138 131.2731 43.2068 0.0000 0.0000 0.0000
# 3 3.8978 43.2068 43.1736 0.0000 0.0000 0.0000
# 4 0.0000 0.0000 0.0000 21.2050 0.0000 0.0000
# 5 0.0000 0.0000 0.0000 0.0000 6.3556 0.0000
# 6 0.0000 0.0000 0.0000 0.0000 0.0000 16.0064
#
#
#
# Elastic Compliance Matrix: (Units=1/GPa)
#
#
# Indices 1 2 3 4 5 6 
#
# 1 0.037844 0.003961 -0.007381 0.000000 0.000000 0.000000
# 2 0.003961 0.011774 -0.012141 0.000000 0.000000 0.000000
# 3 -0.007381 -0.012141 0.035979 0.000000 0.000000 0.000000
# 4 0.000000 0.000000 0.000000 0.047159 0.000000 0.000000
# 5 0.000000 0.000000 0.000000 0.000000 0.157341 0.000000
# 6 0.000000 0.000000 0.000000 0.000000 0.000000 0.062475
#
#
# Mechanical properties :
#
#
# Convention : Reuss Voigt Hill
#
# Bulk Modulus (GPa) = 18.35665 31.75206 25.05435
# Shear Modulus (GPa) = 12.44243 19.40650 15.92447
#
# Velocity S-wave (km/s) = 2.45957 3.07171 2.78253
# Velocity P-wave (km/s) = 4.12201 5.29324 4.74391
#
# Compressibility (1/GPa) = 0.05447618
#
# Stress axis : x y z
#
# Youngs Moduli (GPa) = 26.42414 84.93290 27.79421
#
# Poissons Ratio (x) = -0.33644 0.20515
# Poissons Ratio (y) = -0.10467 0.33744
# Poissons Ratio (z) = 0.19503 1.03114
#
# Static dielectric constant tensor:
#      x y z
#    x 1.769020 0.000000 0.000000 
#    y 0.000000 1.726170 0.000000 
#    z 0.000000 0.000000 1.728870 
# 
# From -- ./inp_files/51270.got.cif
#   From: 2010.05.17/outbox.cif.g08.bks.cpg/sg63_26_cif.got.tgz:51270.got - 2010.06.03 15:47:04.
