data_PCOD9470855
_publ_section_title
;
Structure prediction by ZEFSAII (Michael W. Deem and Ramdas Pophale) SiO2 
 PCOD9470855
Probable space group: C M C M
;
_chemical_formula_sum "Si O2"
_cell_formula_units_Z 96
_cell_length_a 8.099759
_cell_length_b 29.770187
_cell_length_c 21.230649
_cell_angle_alpha 90.000000
_cell_angle_beta 90.000000
_cell_angle_gamma 90.000000
_cell_volume 5119.374844
_symmetry_space_group_name_H-M "C M C M"
_symmetry_group_IT_number 63
_symmetry_cell_setting 'orthorhombic'
loop_
_space_group_symop_operation_xyz
x,y,z
-x,-y,1/2+z
x,-y,-z
-x,y,1/2-z
-x,-y,-z
x,y,1/2-z
-x,y,z
x,-y,1/2+z
1/2+x,1/2+y,z
1/2-x,1/2-y,1/2+z
1/2+x,1/2-y,-z
1/2-x,1/2+y,1/2-z
1/2-x,1/2-y,-z
1/2+x,1/2+y,1/2-z
1/2-x,1/2+y,z
1/2+x,1/2-y,1/2+z
loop_
_atom_site_type_symbol
_atom_site_label
_atom_site_fract_x
_atom_site_fract_y
_atom_site_fract_z
Si Si1 0.201901 0.220949 0.321087
Si Si2 0.303165 0.376447 0.019435
Si Si3 0.801500 0.527062 0.561369
Si Si4 0.199862 0.875626 0.874197
Si Si5 0.197328 0.278985 0.060683
Si Si6 0.801283 0.470882 0.820059
O O1 0.255773 0.231352 0.250000
O O2 0.252162 0.170592 0.341059
O O3 0.258278 0.255135 0.375361
O O4 0.000000 0.221489 0.321295
O O5 0.500000 0.378752 0.016901
O O6 0.239966 0.420848 0.053887
O O7 0.254503 0.329904 0.051817
O O8 0.242095 0.376295 0.946841
O O9 0.738644 0.500000 0.500000
O O10 0.738150 0.503642 0.624914
O O11 0.000000 0.522724 0.561470
O O12 0.260162 0.919961 0.839177
O O13 0.000000 0.876125 0.874272
O O14 0.000000 0.278441 0.062606
O O15 0.250000 0.250000 0.000000
O O16 0.737668 0.480759 0.750000
O O17 0.000000 0.475084 0.818615
#
# Coordination Sequence:
#
# PCOD9470855 Si02
#       6
#    16  16  16  16  16  16
#     4   9  18  34  55  80 110 144 182 222 268 325
#     4  11  22  36  56  85 112 141 185 229 272 323
#     4  10  20  36  57  80 107 144 183 222 271 324
#     4  10  19  33  55  82 112 142 178 223 272 328
#     4  11  21  36  58  83 112 147 185 228 273 323
#     4  10  21  36  54  80 113 144 179 224 275 329
#
# _framework density 18.752289000000001
#
# number of rings (size 3 to 8) (size 9 to 14) (size 15 to 20)
#    0.000    1.833    3.333    1.500    0.000    2.667 
#    0.000    0.833    0.000    8.000    0.000    0.000 
#    0.000    0.000    0.000    0.000    0.000    0.000 
#
# Total GULP energy -268057.764805 kJ/mol
# GULP energy per Si atom -5584.536767 kJ/mol
# Density = 1.870961 g / cm^3
# Si number density = 18.752289 Si / 1000 Ang^3
#
#
#
# Elastic Constant Matrix: (Units=GPa)
#
#
# Indices 1 2 3 4 5 6 
#
# 1 4.5084 -4.9250 12.1031 0.0000 0.0000 0.0000
# 2 -4.9250 152.2968 102.9793 0.0000 0.0000 0.0000
# 3 12.1031 102.9793 201.0053 0.0000 0.0000 0.0000
# 4 0.0000 0.0000 0.0000 21.5263 0.0000 0.0000
# 5 0.0000 0.0000 0.0000 0.0000 14.1551 0.0000
# 6 0.0000 0.0000 0.0000 0.0000 0.0000 28.5034
#
#
#
# Elastic Compliance Matrix: (Units=1/GPa)
#
#
# Indices 1 2 3 4 5 6 
#
# 1 0.394311 0.044073 -0.046322 0.000000 0.000000 0.000000
# 2 0.044073 0.014973 -0.010325 0.000000 0.000000 0.000000
# 3 -0.046322 -0.010325 0.013054 0.000000 0.000000 0.000000
# 4 0.000000 0.000000 0.000000 0.046455 0.000000 0.000000
# 5 0.000000 0.000000 0.000000 0.000000 0.070646 0.000000
# 6 0.000000 0.000000 0.000000 0.000000 0.000000 0.035083
#
#
# Mechanical properties :
#
#
# Convention : Reuss Voigt Hill
#
# Bulk Modulus (GPa) = 2.51769 64.23616 33.37693
# Shear Modulus (GPa) = 6.83000 29.34716 18.08858
#
# Velocity S-wave (km/s) = 1.91053 3.96029 3.10918
# Velocity P-wave (km/s) = 2.49246 7.43245 5.54318
#
# Compressibility (1/GPa) = 0.39718947
#
# Stress axis : x y z
#
# Youngs Moduli (GPa) = 2.53607 66.78881 76.60671
#
# Poissons Ratio (x) = -2.94359 3.54860
# Poissons Ratio (y) = -0.11177 0.79093
# Poissons Ratio (z) = 0.11748 0.68956
#
# Static dielectric constant tensor:
#      x y z
#    x 1.664090 0.000000 0.000000 
#    y 0.000000 1.597160 0.000000 
#    z 0.000000 0.000000 1.663550 
# 
# From -- ./inp_files/51272.got.cif
#   From: 2010.05.17/outbox.cif.g08.bks.cpg/sg63_26_cif.got.tgz:51272.got - 2010.06.03 15:47:04.
