data_PCOD9470705
_publ_section_title
;
Structure prediction by ZEFSAII (Michael W. Deem and Ramdas Pophale) SiO2 
 PCOD9470705
Probable space group: C M C M
;
_chemical_formula_sum "Si O2"
_cell_formula_units_Z 112
_cell_length_a 13.891278
_cell_length_b 18.891590
_cell_length_c 19.243712
_cell_angle_alpha 90.000000
_cell_angle_beta 90.000000
_cell_angle_gamma 90.000000
_cell_volume 5050.095175
_symmetry_space_group_name_H-M "C M C M"
_symmetry_group_IT_number 63
_symmetry_cell_setting 'orthorhombic'
loop_
_space_group_symop_operation_xyz
x,y,z
-x,-y,1/2+z
x,-y,-z
-x,y,1/2-z
-x,-y,-z
x,y,1/2-z
-x,y,z
x,-y,1/2+z
1/2+x,1/2+y,z
1/2-x,1/2-y,1/2+z
1/2+x,1/2-y,-z
1/2-x,1/2+y,1/2-z
1/2-x,1/2-y,-z
1/2+x,1/2+y,1/2-z
1/2-x,1/2+y,z
1/2+x,1/2-y,1/2+z
loop_
_atom_site_type_symbol
_atom_site_label
_atom_site_fract_x
_atom_site_fract_y
_atom_site_fract_z
Si Si1 0.897167 0.917054 0.165051
Si Si2 0.393911 0.930208 0.976343
Si Si3 0.689193 0.138168 0.666711
Si Si4 0.818093 0.782294 0.597464
Si Si5 0.646694 0.429050 0.828690
Si Si6 0.384195 0.223395 0.458915
Si Si7 0.365897 0.981220 0.671819
O O1 0.892749 0.919406 0.250000
O O2 0.799139 0.879099 0.142167
O O3 0.000000 0.883018 0.145604
O O4 0.899048 0.999058 0.141538
O O5 0.500000 0.932882 0.008963
O O6 0.403452 0.937517 0.893384
O O7 0.357514 0.853263 0.992766
O O8 0.337630 0.000000 0.000000
O O9 0.693148 0.145784 0.750000
O O10 0.648641 0.210728 0.636041
O O11 0.631595 0.064927 0.654064
O O12 0.853420 0.855276 0.631052
O O13 0.700410 0.775265 0.598697
O O14 0.857606 0.778839 0.518755
O O15 0.611494 0.417210 0.750000
O O16 0.756472 0.455361 0.824406
O O17 0.500000 0.223374 0.442578
O O18 0.403027 0.971025 0.750000
#
# Coordination Sequence:
#
# PCOD9470705 Si02
#       7
#    16  16  16  16  16  16  16
#     4   8  15  29  49  76 109 141 174 216 267 331
#     4  10  19  33  53  74  99 136 182 228 271 324
#     4   9  18  31  52  81 108 137 175 216 273 343
#     4  11  20  35  57  76 106 151 178 228 287 326
#     4   9  17  30  52  79 104 135 179 222 271 336
#     4  10  23  38  51  75 106 141 190 231 270 330
#     4   9  17  32  51  75 105 134 171 223 269 323
#
# _framework density 22.177800999999999
#
# number of rings (size 3 to 8) (size 9 to 14) (size 15 to 20)
#    0.000    2.571    1.429    3.000    0.000    1.429 
#    0.000    0.000    0.000    3.429    0.000    4.000 
#    0.000    0.000    0.000    0.000    0.000    0.000 
#
# Total GULP energy -311761.321880 kJ/mol
# GULP energy per Si atom -5567.166462 kJ/mol
# Density = 2.212732 g / cm^3
# Si number density = 22.177801 Si / 1000 Ang^3
#
#
#
# Elastic Constant Matrix: (Units=GPa)
#
#
# Indices 1 2 3 4 5 6 
#
# 1 70.9612 -23.0164 -4.1716 0.0000 0.0000 0.0000
# 2 -23.0164 107.7975 6.1918 0.0000 0.0000 0.0000
# 3 -4.1716 6.1918 30.1175 0.0000 0.0000 0.0000
# 4 0.0000 0.0000 0.0000 28.4614 0.0000 0.0000
# 5 0.0000 0.0000 0.0000 0.0000 63.1692 0.0000
# 6 0.0000 0.0000 0.0000 0.0000 0.0000 0.2500
#
#
#
# Elastic Compliance Matrix: (Units=1/GPa)
#
#
# Indices 1 2 3 4 5 6 
#
# 1 0.015204 0.003163 0.001456 0.000000 0.000000 0.000000
# 2 0.003163 0.010045 -0.001627 0.000000 0.000000 0.000000
# 3 0.001456 -0.001627 0.033739 0.000000 0.000000 0.000000
# 4 0.000000 0.000000 0.000000 0.035135 0.000000 0.000000
# 5 0.000000 0.000000 0.000000 0.000000 0.015831 0.000000
# 6 0.000000 0.000000 0.000000 0.000000 0.000000 4.000408
#
#
# Mechanical properties :
#
#
# Convention : Reuss Voigt Hill
#
# Bulk Modulus (GPa) = 15.39159 18.54264 16.96711
# Shear Modulus (GPa) = 1.21182 33.70093 17.45638
#
# Velocity S-wave (km/s) = 0.74000 3.90241 2.80859
# Velocity P-wave (km/s) = 2.77223 5.35575 4.26435
#
# Compressibility (1/GPa) = 0.06497056
#
# Stress axis : x y z
#
# Youngs Moduli (GPa) = 65.77402 99.54836 29.63893
#
# Poissons Ratio (x) = -0.31483 -0.04314
# Poissons Ratio (y) = -0.20802 0.04823
# Poissons Ratio (z) = -0.09574 0.16198
#
# Static dielectric constant tensor:
#      x y z
#    x 1.951420 0.000000 0.000000 
#    y 0.000000 1.853250 0.000000 
#    z 0.000000 0.000000 1.867980 
# 
# From -- ./inp_files/55803.got.cif
#   From: 2010.05.17/outbox.cif.g08.bks.cpg/sg63_28_cif.got.tgz:55803.got - 2010.06.03 15:47:04.
