data_PCOD9470707
_publ_section_title
;
Structure prediction by ZEFSAII (Michael W. Deem and Ramdas Pophale) SiO2 
 PCOD9470707
Probable space group: C M C M
;
_chemical_formula_sum "Si O2"
_cell_formula_units_Z 96
_cell_length_a 7.573169
_cell_length_b 31.241771
_cell_length_c 19.660341
_cell_angle_alpha 90.000000
_cell_angle_beta 90.000000
_cell_angle_gamma 90.000000
_cell_volume 4651.621181
_symmetry_space_group_name_H-M "C M C M"
_symmetry_group_IT_number 63
_symmetry_cell_setting 'orthorhombic'
loop_
_space_group_symop_operation_xyz
x,y,z
-x,-y,1/2+z
x,-y,-z
-x,y,1/2-z
-x,-y,-z
x,y,1/2-z
-x,y,z
x,-y,1/2+z
1/2+x,1/2+y,z
1/2-x,1/2-y,1/2+z
1/2+x,1/2-y,-z
1/2-x,1/2+y,1/2-z
1/2-x,1/2-y,-z
1/2+x,1/2+y,1/2-z
1/2-x,1/2+y,z
1/2+x,1/2-y,1/2+z
loop_
_atom_site_type_symbol
_atom_site_label
_atom_site_fract_x
_atom_site_fract_y
_atom_site_fract_z
Si Si1 0.713438 0.962710 0.172211
Si Si2 0.716211 0.303248 0.171999
Si Si3 0.204989 0.632630 0.427924
Si Si4 0.794036 0.882507 0.419514
Si Si5 0.715643 0.940325 0.671824
Si Si6 0.787849 0.271111 0.927027
O O1 0.770110 0.953053 0.250000
O O2 0.500000 0.962276 0.171898
O O3 0.774706 0.926975 0.119955
O O4 0.771543 0.011077 0.155192
O O5 0.774367 0.304877 0.250000
O O6 0.500000 0.303714 0.172656
O O7 0.774951 0.344483 0.128814
O O8 0.774108 0.260769 0.132071
O O9 0.210050 0.618345 0.506295
O O10 0.281368 0.595888 0.379478
O O11 0.282180 0.680466 0.422947
O O12 0.000000 0.636515 0.407454
O O13 0.000000 0.873751 0.431122
O O14 0.764869 0.931348 0.750000
O O15 0.500000 0.941028 0.669420
O O16 0.000000 0.273158 0.921764
O O17 0.750000 0.250000 0.000000
#
# Coordination Sequence:
#
# PCOD9470707 Si02
#       6
#    16  16  16  16  16  16
#     4   9  18  34  55  76 102 136 172 214 263 311
#     4   9  18  32  50  74 102 133 169 209 254 301
#     4  10  20  33  54  80 103 133 174 218 261 311
#     4  11  21  33  51  75 108 144 174 211 255 309
#     4   8  16  33  55  78 103 132 170 218 267 310
#     4  10  19  33  53  75 102 135 169 209 256 308
#
# _framework density 20.637965999999999
#
# number of rings (size 3 to 8) (size 9 to 14) (size 15 to 20)
#    0.000    2.500    1.667    2.000    0.000    2.333 
#    0.000    7.500    0.000    3.000    0.000    2.333 
#    0.000    0.000    0.000    0.000    0.000    0.000 
#
# Total GULP energy -267989.455388 kJ/mol
# GULP energy per Si atom -5583.113654 kJ/mol
# Density = 2.059099 g / cm^3
# Si number density = 20.637966 Si / 1000 Ang^3
#
#
#
# Elastic Constant Matrix: (Units=GPa)
#
#
# Indices 1 2 3 4 5 6 
#
# 1 45.8058 -2.2272 -7.3096 0.0000 0.0000 0.0000
# 2 -2.2272 189.0900 111.3092 0.0000 0.0000 0.0000
# 3 -7.3096 111.3092 138.5525 0.0000 0.0000 0.0000
# 4 0.0000 0.0000 0.0000 44.3362 0.0000 0.0000
# 5 0.0000 0.0000 0.0000 0.0000 5.1489 0.0000
# 6 0.0000 0.0000 0.0000 0.0000 0.0000 3.9585
#
#
#
# Elastic Compliance Matrix: (Units=1/GPa)
#
#
# Indices 1 2 3 4 5 6 
#
# 1 0.022081 -0.000808 0.001814 0.000000 0.000000 0.000000
# 2 -0.000808 0.010063 -0.008127 0.000000 0.000000 0.000000
# 3 0.001814 -0.008127 0.013842 0.000000 0.000000 0.000000
# 4 0.000000 0.000000 0.000000 0.022555 0.000000 0.000000
# 5 0.000000 0.000000 0.000000 0.000000 0.194216 0.000000
# 6 0.000000 0.000000 0.000000 0.000000 0.000000 0.252618
#
#
# Mechanical properties :
#
#
# Convention : Reuss Voigt Hill
#
# Bulk Modulus (GPa) = 31.50098 64.11034 47.80566
# Shear Modulus (GPa) = 9.25587 28.80046 19.02816
#
# Velocity S-wave (km/s) = 2.12005 3.73970 3.03974
# Velocity P-wave (km/s) = 4.61406 7.05542 5.96106
#
# Compressibility (1/GPa) = 0.03174504
#
# Stress axis : x y z
#
# Youngs Moduli (GPa) = 45.28683 99.37476 72.24350
#
# Poissons Ratio (x) = 0.08025 -0.13103
# Poissons Ratio (y) = 0.03657 0.58711
# Poissons Ratio (z) = -0.08214 0.80761
#
# Static dielectric constant tensor:
#      x y z
#    x 1.813710 0.000000 0.000000 
#    y 0.000000 1.733720 0.000000 
#    z 0.000000 0.000000 1.684820 
# 
# From -- ./inp_files/51245.got.cif
#   From: 2010.05.17/outbox.cif.g08.bks.cpg/sg63_26_cif.got.tgz:51245.got - 2010.06.03 15:47:04.
