data_PCOD9470702
_publ_section_title
;
Structure prediction by ZEFSAII (Michael W. Deem and Ramdas Pophale) SiO2 
 PCOD9470702
Probable space group: C M C M
;
_chemical_formula_sum "Si O2"
_cell_formula_units_Z 104
_cell_length_a 21.509008
_cell_length_b 30.988275
_cell_length_c 7.546198
_cell_angle_alpha 90.000000
_cell_angle_beta 90.000000
_cell_angle_gamma 90.000000
_cell_volume 5029.745128
_symmetry_space_group_name_H-M "C M C M"
_symmetry_group_IT_number 63
_symmetry_cell_setting 'orthorhombic'
loop_
_space_group_symop_operation_xyz
x,y,z
-x,-y,1/2+z
x,-y,-z
-x,y,1/2-z
-x,-y,-z
x,y,1/2-z
-x,y,z
x,-y,1/2+z
1/2+x,1/2+y,z
1/2-x,1/2-y,1/2+z
1/2+x,1/2-y,-z
1/2-x,1/2+y,1/2-z
1/2-x,1/2-y,-z
1/2+x,1/2+y,1/2-z
1/2-x,1/2+y,z
1/2+x,1/2-y,1/2+z
loop_
_atom_site_type_symbol
_atom_site_label
_atom_site_fract_x
_atom_site_fract_y
_atom_site_fract_z
Si Si1 0.278990 0.869742 0.533158
Si Si2 0.500000 0.949041 0.538408
Si Si3 0.314229 0.224410 0.462964
Si Si4 0.637164 0.948942 0.963135
Si Si5 0.070500 0.953418 0.961988
Si Si6 0.363559 0.367921 0.964568
Si Si7 0.069805 0.779220 0.040211
O O1 0.279171 0.870529 0.750000
O O2 0.311306 0.825163 0.476353
O O3 0.312386 0.913921 0.474257
O O4 0.207547 0.865219 0.475961
O O5 0.500000 0.941516 0.750000
O O6 0.432029 0.935174 0.471036
O O7 0.500000 0.000000 0.500000
O O8 0.318742 0.223410 0.250000
O O9 0.250000 0.250000 0.500000
O O10 0.374689 0.249450 0.533337
O O11 0.635731 0.946090 0.750000
O O12 0.648353 0.000000 0.000000
O O13 0.066995 0.949291 0.750000
O O14 0.107868 0.912731 0.029136
O O15 0.000000 0.953253 0.032735
O O16 0.099126 0.000000 0.000000
O O17 0.362912 0.367892 0.750000
O O18 0.405912 0.327975 0.019689
O O19 0.066020 0.770241 0.250000
O O20 0.000000 0.773981 0.967009
#
# Coordination Sequence:
#
# PCOD9470702 Si02
#       7
#    16   8  16  16  16  16  16
#     4   9  18  32  51  74 100 129 163 203 248 295
#     4   8  14  26  46  68  92 126 166 202 242 292
#     4  10  19  35  56  76 102 137 171 208 252 302
#     4   9  17  31  49  72 100 131 167 207 249 297
#     4   9  18  31  46  66  93 125 161 200 243 290
#     4  10  19  33  53  74  97 131 172 209 247 302
#     4  10  21  35  52  78 107 132 165 213 261 302
#
# _framework density 20.676991000000001
#
# number of rings (size 3 to 8) (size 9 to 14) (size 15 to 20)
#    0.000    2.615    1.538    0.462    0.000    2.154 
#    1.385    3.077    0.000    0.000    0.000    0.000 
#    0.000    0.000    0.000    0.000    0.000    0.000 
#
# Total GULP energy -289981.297708 kJ/mol
# GULP energy per Si atom -5576.563417 kJ/mol
# Density = 2.062993 g / cm^3
# Si number density = 20.676991 Si / 1000 Ang^3
#
#
#
# Elastic Constant Matrix: (Units=GPa)
#
#
# Indices 1 2 3 4 5 6 
#
# 1 165.4416 90.6334 6.2753 0.0000 0.0000 0.0000
# 2 90.6334 158.7820 -0.1592 0.0000 0.0000 0.0000
# 3 6.2753 -0.1592 51.1659 0.0000 0.0000 0.0000
# 4 0.0000 0.0000 0.0000 11.5316 0.0000 0.0000
# 5 0.0000 0.0000 0.0000 0.0000 2.0760 0.0000
# 6 0.0000 0.0000 0.0000 0.0000 0.0000 -6.8801
#
#
#
# Elastic Compliance Matrix: (Units=1/GPa)
#
#
# Indices 1 2 3 4 5 6 
#
# 1 0.008856 -0.005056 -0.001102 0.000000 0.000000 0.000000
# 2 -0.005056 0.009185 0.000649 0.000000 0.000000 0.000000
# 3 -0.001102 0.000649 0.019681 0.000000 0.000000 0.000000
# 4 0.000000 0.000000 0.000000 0.086718 0.000000 0.000000
# 5 0.000000 0.000000 0.000000 0.000000 0.481700 0.000000
# 6 0.000000 0.000000 0.000000 0.000000 0.000000 -0.145346
#
#
# Mechanical properties :
#
#
# Convention : Reuss Voigt Hill
#
# Bulk Modulus (GPa) = 37.44839 63.20984 50.32911
# Shear Modulus (GPa) = 10.40119 19.92150 15.16135
#
# Velocity S-wave (km/s) = 2.24527 3.10734 2.71079
# Velocity P-wave (km/s) = 4.98719 6.59625 5.84734
#
# Compressibility (1/GPa) = 0.02670342
#
# Stress axis : x y z
#
# Youngs Moduli (GPa) = 112.91570 108.87659 50.80935
#
# Poissons Ratio (x) = 0.55051 0.05599
# Poissons Ratio (y) = 0.57093 -0.03296
# Poissons Ratio (z) = 0.12442 -0.07063
#
# Static dielectric constant tensor:
#      x y z
#    x 1.751610 0.000000 0.000000 
#    y 0.000000 1.716070 0.000000 
#    z 0.000000 0.000000 1.789190 
# 
# From -- ./inp_files/9082.got.cif
#   From: 2010.05.17/outbox.cif.g08.bks.cpg/sg63_5_cif.got.tgz:9082.got - 2010.06.03 15:47:04.
