data_PCOD9470545
_publ_section_title
;
Structure prediction by ZEFSAII (Michael W. Deem and Ramdas Pophale) SiO2 
 PCOD9470545
Probable space group: C M C M
;
_chemical_formula_sum "Si O2"
_cell_formula_units_Z 104
_cell_length_a 22.168094
_cell_length_b 29.095427
_cell_length_c 8.917949
_cell_angle_alpha 90.000000
_cell_angle_beta 90.000000
_cell_angle_gamma 90.000000
_cell_volume 5751.989359
_symmetry_space_group_name_H-M "C M C M"
_symmetry_group_IT_number 63
_symmetry_cell_setting 'orthorhombic'
loop_
_space_group_symop_operation_xyz
x,y,z
-x,-y,1/2+z
x,-y,-z
-x,y,1/2-z
-x,-y,-z
x,y,1/2-z
-x,y,z
x,-y,1/2+z
1/2+x,1/2+y,z
1/2-x,1/2-y,1/2+z
1/2+x,1/2-y,-z
1/2-x,1/2+y,1/2-z
1/2-x,1/2-y,-z
1/2+x,1/2+y,1/2-z
1/2-x,1/2+y,z
1/2+x,1/2-y,1/2+z
loop_
_atom_site_type_symbol
_atom_site_label
_atom_site_fract_x
_atom_site_fract_y
_atom_site_fract_z
Si Si1 0.872654 0.097669 0.569604
Si Si2 0.317385 0.798655 0.575235
Si Si3 0.756976 0.050011 0.429324
Si Si4 0.346606 0.112377 0.924987
Si Si5 0.928008 0.545937 0.419927
Si Si6 0.187101 0.805811 0.427324
Si Si7 0.000000 0.051311 0.569096
O O1 0.866260 0.091798 0.750000
O O2 0.821805 0.067756 0.487223
O O3 0.856469 0.151339 0.537748
O O4 0.939270 0.079601 0.527899
O O5 0.324063 0.810243 0.750000
O O6 0.350773 0.835023 0.472781
O O7 0.247419 0.805252 0.527072
O O8 0.337455 0.745929 0.553933
O O9 0.755828 0.047492 0.250000
O O10 0.707603 0.086502 0.488152
O O11 0.745044 0.000000 0.500000
O O12 0.335610 0.107289 0.750000
O O13 0.406544 0.087385 0.979026
O O14 0.905238 0.500000 0.500000
O O15 0.904742 0.549467 0.250000
O O16 0.000000 0.543733 0.413333
O O17 0.204239 0.810214 0.250000
O O18 0.000000 0.046754 0.750000
O O19 0.000000 0.000000 0.500000
#
# Coordination Sequence:
#
# PCOD9470545 Si02
#       7
#    16  16  16  16  16  16   8
#     4  10  20  37  58  82 111 147 188 233 284 340
#     4  10  19  32  53  83 114 144 182 225 276 334
#     4  12  24  37  54  80 112 146 182 229 281 336
#     4  12  23  36  55  81 113 149 184 227 277 329
#     4  10  21  38  59  82 110 145 185 226 269 325
#     4   9  18  33  55  80 111 145 181 226 278 336
#     4  10  22  38  58  82 112 150 194 238 285 344
#
# _framework density 18.0807
#
# number of rings (size 3 to 8) (size 9 to 14) (size 15 to 20)
#    0.000    1.538    1.538    4.615    0.000    3.385 
#    0.000    0.000    1.692    0.000    0.000    0.000 
#    0.000    0.000    0.000    0.000    0.000    0.000 
#
# Total GULP energy -290277.445898 kJ/mol
# GULP energy per Si atom -5582.258575 kJ/mol
# Density = 1.803955 g / cm^3
# Si number density = 18.080700 Si / 1000 Ang^3
#
#
#
# Elastic Constant Matrix: (Units=GPa)
#
#
# Indices 1 2 3 4 5 6 
#
# 1 56.6016 34.3246 24.3838 0.0000 0.0000 0.0000
# 2 34.3246 108.9171 50.3180 0.0000 0.0000 0.0000
# 3 24.3838 50.3180 93.5289 0.0000 0.0000 0.0000
# 4 0.0000 0.0000 0.0000 31.9209 0.0000 0.0000
# 5 0.0000 0.0000 0.0000 0.0000 21.1062 0.0000
# 6 0.0000 0.0000 0.0000 0.0000 0.0000 38.6523
#
#
#
# Elastic Compliance Matrix: (Units=1/GPa)
#
#
# Indices 1 2 3 4 5 6 
#
# 1 0.022346 -0.005790 -0.002711 0.000000 0.000000 0.000000
# 2 -0.005790 0.013718 -0.005871 0.000000 0.000000 0.000000
# 3 -0.002711 -0.005871 0.014557 0.000000 0.000000 0.000000
# 4 0.000000 0.000000 0.000000 0.031327 0.000000 0.000000
# 5 0.000000 0.000000 0.000000 0.000000 0.047380 0.000000
# 6 0.000000 0.000000 0.000000 0.000000 0.000000 0.025872
#
#
# Mechanical properties :
#
#
# Convention : Reuss Voigt Hill
#
# Bulk Modulus (GPa) = 45.70739 53.01114 49.35927
# Shear Modulus (GPa) = 26.14565 28.33729 27.24147
#
# Velocity S-wave (km/s) = 3.80683 3.96317 3.88578
# Velocity P-wave (km/s) = 6.68260 7.09402 6.89138
#
# Compressibility (1/GPa) = 0.02187830
#
# Stress axis : x y z
#
# Youngs Moduli (GPa) = 44.75003 72.89595 68.69488
#
# Poissons Ratio (x) = 0.42206 0.18623
# Poissons Ratio (y) = 0.25910 0.40330
# Poissons Ratio (z) = 0.12131 0.42796
#
# Static dielectric constant tensor:
#      x y z
#    x 1.625010 0.000000 0.000000 
#    y 0.000000 1.619250 0.000000 
#    z 0.000000 0.000000 1.609770 
# 
# From -- ./inp_files/10848.got.cif
#   From: 2010.05.17/outbox.cif.g08.bks.cpg/sg63_6_cif.got.tgz:10848.got - 2010.06.03 15:47:04.
