data_PCOD9470329
_publ_section_title
;
Structure prediction by ZEFSAII (Michael W. Deem and Ramdas Pophale) SiO2 
 PCOD9470329
Probable space group: C M C M
;
_chemical_formula_sum "Si O2"
_cell_formula_units_Z 96
_cell_length_a 7.929120
_cell_length_b 24.955263
_cell_length_c 26.542794
_cell_angle_alpha 90.000000
_cell_angle_beta 90.000000
_cell_angle_gamma 90.000000
_cell_volume 5252.109575
_symmetry_space_group_name_H-M "C M C M"
_symmetry_group_IT_number 63
_symmetry_cell_setting 'orthorhombic'
loop_
_space_group_symop_operation_xyz
x,y,z
-x,-y,1/2+z
x,-y,-z
-x,y,1/2-z
-x,-y,-z
x,y,1/2-z
-x,y,z
x,-y,1/2+z
1/2+x,1/2+y,z
1/2-x,1/2-y,1/2+z
1/2+x,1/2-y,-z
1/2-x,1/2+y,1/2-z
1/2-x,1/2-y,-z
1/2+x,1/2+y,1/2-z
1/2-x,1/2+y,z
1/2+x,1/2-y,1/2+z
loop_
_atom_site_type_symbol
_atom_site_label
_atom_site_fract_x
_atom_site_fract_y
_atom_site_fract_z
Si Si1 0.797968 0.269044 0.443654
Si Si2 0.692066 0.423913 0.972312
Si Si3 0.299544 0.837230 0.606362
Si Si4 0.704358 0.995436 0.386209
Si Si5 0.705483 0.915558 0.807200
Si Si6 0.306387 0.887231 0.076797
O O1 0.750000 0.250000 0.500000
O O2 0.738890 0.224307 0.404193
O O3 0.729572 0.328143 0.429735
O O4 0.000000 0.271732 0.443297
O O5 0.500000 0.430444 0.989141
O O6 0.709166 0.372008 0.936616
O O7 0.743987 0.473077 0.936882
O O8 0.803173 0.412979 0.021034
O O9 0.500000 0.846388 0.600205
O O10 0.249079 0.863330 0.659650
O O11 0.500000 0.994136 0.385322
O O12 0.760323 0.032606 0.339648
O O13 0.768132 0.934381 0.388472
O O14 0.766943 0.914854 0.750000
O O15 0.500000 0.917061 0.805633
O O16 0.500000 0.879558 0.093073
#
# Coordination Sequence:
#
# PCOD9470329 Si02
#       6
#    16  16  16  16  16  16
#     4  11  21  32  48  69  99 137 174 204 238 289
#     4  11  20  29  45  69  98 130 163 200 237 284
#     4  10  19  32  50  72  99 129 165 207 249 290
#     4   9  18  32  49  69  95 126 159 197 244 295
#     4   8  15  30  54  78  94 115 157 210 254 295
#     4  10  20  32  46  65  96 135 166 194 237 290
#
# _framework density 18.278369000000001
#
# number of rings (size 3 to 8) (size 9 to 14) (size 15 to 20)
#    0.000    2.167    1.667    4.000    0.000    3.333 
#    0.000    0.000    0.000   13.500    0.000    2.333 
#    0.000    0.000    0.000    0.000    0.000    0.000 
#
# Total GULP energy -267689.132175 kJ/mol
# GULP energy per Si atom -5576.856920 kJ/mol
# Density = 1.823677 g / cm^3
# Si number density = 18.278369 Si / 1000 Ang^3
#
#
#
# Elastic Constant Matrix: (Units=GPa)
#
#
# Indices 1 2 3 4 5 6 
#
# 1 37.4249 3.7888 -0.6933 0.0000 0.0000 0.0000
# 2 3.7888 177.6609 65.7361 0.0000 0.0000 0.0000
# 3 -0.6933 65.7361 92.4894 0.0000 0.0000 0.0000
# 4 0.0000 0.0000 0.0000 10.3465 0.0000 0.0000
# 5 0.0000 0.0000 0.0000 0.0000 4.4649 0.0000
# 6 0.0000 0.0000 0.0000 0.0000 0.0000 18.3755
#
#
#
# Elastic Compliance Matrix: (Units=1/GPa)
#
#
# Indices 1 2 3 4 5 6 
#
# 1 0.026824 -0.000877 0.000824 0.000000 0.000000 0.000000
# 2 -0.000877 0.007666 -0.005455 0.000000 0.000000 0.000000
# 3 0.000824 -0.005455 0.014695 0.000000 0.000000 0.000000
# 4 0.000000 0.000000 0.000000 0.096651 0.000000 0.000000
# 5 0.000000 0.000000 0.000000 0.000000 0.223967 0.000000
# 6 0.000000 0.000000 0.000000 0.000000 0.000000 0.054420
#
#
# Mechanical properties :
#
#
# Convention : Reuss Voigt Hill
#
# Bulk Modulus (GPa) = 26.19850 49.47092 37.83471
# Shear Modulus (GPa) = 11.16165 22.55362 16.85764
#
# Velocity S-wave (km/s) = 2.47381 3.51650 3.04019
# Velocity P-wave (km/s) = 4.74593 6.60392 5.75046
#
# Compressibility (1/GPa) = 0.03817012
#
# Stress axis : x y z
#
# Youngs Moduli (GPa) = 37.27969 130.44956 68.04888
#
# Poissons Ratio (x) = 0.11442 -0.05610
# Poissons Ratio (y) = 0.03270 0.37121
# Poissons Ratio (z) = -0.03074 0.71160
#
# Static dielectric constant tensor:
#      x y z
#    x 1.671020 0.000000 0.000000 
#    y 0.000000 1.685470 0.000000 
#    z 0.000000 0.000000 1.604080 
# 
# From -- ./inp_files/67185.got.cif
#   From: 2010.05.17/outbox.cif.g08.bks.cpg/sg63_34_cif.got.tgz:67185.got - 2010.06.03 15:47:04.
