data_PCOD9470157
_publ_section_title
;
Structure prediction by ZEFSAII (Michael W. Deem and Ramdas Pophale) SiO2 
 PCOD9470157
Probable space group: C M C M
;
_chemical_formula_sum "Si O2"
_cell_formula_units_Z 96
_cell_length_a 8.821714
_cell_length_b 27.669030
_cell_length_c 23.236781
_cell_angle_alpha 90.000000
_cell_angle_beta 90.000000
_cell_angle_gamma 90.000000
_cell_volume 5671.825659
_symmetry_space_group_name_H-M "C M C M"
_symmetry_group_IT_number 63
_symmetry_cell_setting 'orthorhombic'
loop_
_space_group_symop_operation_xyz
x,y,z
-x,-y,1/2+z
x,-y,-z
-x,y,1/2-z
-x,-y,-z
x,y,1/2-z
-x,y,z
x,-y,1/2+z
1/2+x,1/2+y,z
1/2-x,1/2-y,1/2+z
1/2+x,1/2-y,-z
1/2-x,1/2+y,1/2-z
1/2-x,1/2-y,-z
1/2+x,1/2+y,1/2-z
1/2-x,1/2+y,z
1/2+x,1/2-y,1/2+z
loop_
_atom_site_type_symbol
_atom_site_label
_atom_site_fract_x
_atom_site_fract_y
_atom_site_fract_z
Si Si1 0.324472 0.351904 0.865607
Si Si2 0.176176 0.048929 0.436637
Si Si3 0.182104 0.605376 0.958174
Si Si4 0.679048 0.033912 0.863334
Si Si5 0.679426 0.490392 0.750000
Si Si6 0.683158 0.301605 0.516606
Si Si7 0.321269 0.117556 0.250000
O O1 0.500000 0.341097 0.852045
O O2 0.319037 0.405445 0.893406
O O3 0.274483 0.317052 0.917825
O O4 0.230792 0.354338 0.807242
O O5 0.242623 0.068720 0.496090
O O6 0.276004 0.007015 0.409492
O O7 0.000000 0.034393 0.442377
O O8 0.215029 0.584590 0.894681
O O9 0.000000 0.605670 0.965810
O O10 0.250249 0.657254 0.974497
O O11 0.500000 0.032088 0.851718
O O12 0.767436 0.019709 0.806031
O O13 0.500000 0.484794 0.750000
O O14 0.748705 0.436280 0.750000
O O15 0.500000 0.302321 0.513634
O O16 0.750000 0.250000 0.500000
O O17 0.500000 0.111356 0.250000
#
# Coordination Sequence:
#
# PCOD9470157 Si02
#       7
#    16  16  16  16   8  16   8
#     4   9  19  34  52  77 110 146 180 217 267 325
#     4  10  19  31  50  76 108 145 181 218 264 318
#     4  10  21  35  53  78 108 140 177 223 270 320
#     4  11  22  35  51  74 106 145 186 224 265 317
#     4  12  24  36  52  73 106 151 190 228 269 321
#     4  10  21  38  61  85 109 139 178 226 283 337
#     4  12  22  32  52  79 110 147 184 224 265 315
#
# _framework density 16.925767
#
# number of rings (size 3 to 8) (size 9 to 14) (size 15 to 20)
#    0.000    1.667    1.667    5.000    0.000    8.000 
#    0.000    0.000    0.000    1.000    0.000    7.000 
#    0.000    0.000    0.000    0.000    0.000    0.000 
#
# Total GULP energy -267981.669547 kJ/mol
# GULP energy per Si atom -5582.951449 kJ/mol
# Density = 1.688724 g / cm^3
# Si number density = 16.925767 Si / 1000 Ang^3
#
#
#
# Elastic Constant Matrix: (Units=GPa)
#
#
# Indices 1 2 3 4 5 6 
#
# 1 89.6371 35.9906 50.9758 0.0000 0.0000 0.0000
# 2 35.9906 75.2050 69.8104 0.0000 0.0000 0.0000
# 3 50.9758 69.8104 94.0652 0.0000 0.0000 0.0000
# 4 0.0000 0.0000 0.0000 11.6909 0.0000 0.0000
# 5 0.0000 0.0000 0.0000 0.0000 29.2091 0.0000
# 6 0.0000 0.0000 0.0000 0.0000 0.0000 24.2631
#
#
#
# Elastic Compliance Matrix: (Units=1/GPa)
#
#
# Indices 1 2 3 4 5 6 
#
# 1 0.016164 0.001272 -0.009703 0.000000 0.000000 0.000000
# 2 0.001272 0.042844 -0.032486 0.000000 0.000000 0.000000
# 3 -0.009703 -0.032486 0.039999 0.000000 0.000000 0.000000
# 4 0.000000 0.000000 0.000000 0.085537 0.000000 0.000000
# 5 0.000000 0.000000 0.000000 0.000000 0.034236 0.000000
# 6 0.000000 0.000000 0.000000 0.000000 0.000000 0.041215
#
#
# Mechanical properties :
#
#
# Convention : Reuss Voigt Hill
#
# Bulk Modulus (GPa) = 58.23541 63.60677 60.92109
# Shear Modulus (GPa) = 14.38635 19.84131 17.11383
#
# Velocity S-wave (km/s) = 2.91858 3.42754 3.18325
# Velocity P-wave (km/s) = 6.77042 7.30243 7.04145
#
# Compressibility (1/GPa) = 0.01717168
#
# Stress axis : x y z
#
# Youngs Moduli (GPa) = 61.86738 23.34063 25.00087
#
# Poissons Ratio (x) = -0.02969 0.24259
# Poissons Ratio (y) = -0.07869 0.81217
# Poissons Ratio (z) = 0.60032 0.75824
#
# Static dielectric constant tensor:
#      x y z
#    x 1.567330 0.000000 0.000000 
#    y 0.000000 1.563040 0.000000 
#    z 0.000000 0.000000 1.586270 
# 
# From -- ./inp_files/60312.got.cif
#   From: 2010.05.17/outbox.cif.g08.bks.cpg/sg63_31_cif.got.tgz:60312.got - 2010.06.03 15:47:04.
