data_PCOD9470212
_publ_section_title
;
Structure prediction by ZEFSAII (Michael W. Deem and Ramdas Pophale) SiO2 
 PCOD9470212
Probable space group: C M C M
;
_chemical_formula_sum "Si O2"
_cell_formula_units_Z 104
_cell_length_a 26.973055
_cell_length_b 22.678282
_cell_length_c 8.802173
_cell_angle_alpha 90.000000
_cell_angle_beta 90.000000
_cell_angle_gamma 90.000000
_cell_volume 5384.311649
_symmetry_space_group_name_H-M "C M C M"
_symmetry_group_IT_number 63
_symmetry_cell_setting 'orthorhombic'
loop_
_space_group_symop_operation_xyz
x,y,z
-x,-y,1/2+z
x,-y,-z
-x,y,1/2-z
-x,-y,-z
x,y,1/2-z
-x,y,z
x,-y,1/2+z
1/2+x,1/2+y,z
1/2-x,1/2-y,1/2+z
1/2+x,1/2-y,-z
1/2-x,1/2+y,1/2-z
1/2-x,1/2-y,-z
1/2+x,1/2+y,1/2-z
1/2-x,1/2+y,z
1/2+x,1/2-y,1/2+z
loop_
_atom_site_type_symbol
_atom_site_label
_atom_site_fract_x
_atom_site_fract_y
_atom_site_fract_z
Si Si1 0.000000 0.565939 0.432905
Si Si2 0.059159 0.225450 0.921814
Si Si3 0.152476 0.940224 0.072268
Si Si4 0.297937 0.325280 0.569338
Si Si5 0.309681 0.808183 0.432381
Si Si6 0.415380 0.850622 0.432320
Si Si7 0.558458 0.397350 0.572049
O O1 0.000000 0.500000 0.500000
O O2 0.048736 0.601156 0.492232
O O3 0.000000 0.565042 0.250000
O O4 0.080451 0.221479 0.750000
O O5 0.000000 0.222145 0.905994
O O6 0.069523 0.287097 0.001956
O O7 0.071700 0.169928 0.026928
O O8 0.159379 0.941923 0.250000
O O9 0.176717 0.881247 0.006233
O O10 0.094433 0.935907 0.030053
O O11 0.173163 0.000000 0.000000
O O12 0.301896 0.330691 0.750000
O O13 0.320146 0.260742 0.526772
O O14 0.240578 0.324201 0.517982
O O15 0.301181 0.809315 0.250000
O O16 0.356270 0.850618 0.464959
O O17 0.422035 0.852404 0.250000
O O18 0.568510 0.407119 0.750000
O O19 0.500000 0.406788 0.544513
#
# Coordination Sequence:
#
# PCOD9470212 Si02
#       7
#     8  16  16  16  16  16  16
#     4  12  26  44  62  84 118 160 207 256 309 374
#     4  10  19  31  51  83 119 154 193 238 286 339
#     4  12  25  41  61  83 114 156 201 246 293 352
#     4  10  20  38  63  92 124 157 197 245 300 358
#     4   9  20  37  61  93 125 156 193 242 301 361
#     4  11  21  36  60  88 120 159 200 243 298 361
#     4  10  21  37  57  83 117 155 197 245 294 345
#
# _framework density 19.315375
#
# number of rings (size 3 to 8) (size 9 to 14) (size 15 to 20)
#    0.000    1.538    0.769    4.846    0.000    4.923 
#    0.000    0.769    0.000    3.692    0.000    0.000 
#    0.000    0.000    0.000    0.000    0.000    0.000 
#
# Total GULP energy -290462.755419 kJ/mol
# GULP energy per Si atom -5585.822220 kJ/mol
# Density = 1.927141 g / cm^3
# Si number density = 19.315375 Si / 1000 Ang^3
#
#
#
# Elastic Constant Matrix: (Units=GPa)
#
#
# Indices 1 2 3 4 5 6 
#
# 1 82.4595 52.8289 50.6453 0.0000 0.0000 0.0000
# 2 52.8289 102.6277 43.3037 0.0000 0.0000 0.0000
# 3 50.6453 43.3037 104.3849 0.0000 0.0000 0.0000
# 4 0.0000 0.0000 0.0000 29.5659 0.0000 0.0000
# 5 0.0000 0.0000 0.0000 0.0000 33.2282 0.0000
# 6 0.0000 0.0000 0.0000 0.0000 0.0000 18.2206
#
#
#
# Elastic Compliance Matrix: (Units=1/GPa)
#
#
# Indices 1 2 3 4 5 6 
#
# 1 0.021773 -0.008183 -0.007169 0.000000 0.000000 0.000000
# 2 -0.008183 0.014887 -0.002206 0.000000 0.000000 0.000000
# 3 -0.007169 -0.002206 0.013973 0.000000 0.000000 0.000000
# 4 0.000000 0.000000 0.000000 0.033823 0.000000 0.000000
# 5 0.000000 0.000000 0.000000 0.000000 0.030095 0.000000
# 6 0.000000 0.000000 0.000000 0.000000 0.000000 0.054883
#
#
# Mechanical properties :
#
#
# Convention : Reuss Voigt Hill
#
# Bulk Modulus (GPa) = 64.44219 64.78085 64.61152
# Shear Modulus (GPa) = 23.84123 25.71590 24.77856
#
# Velocity S-wave (km/s) = 3.51709 3.65275 3.58556
# Velocity P-wave (km/s) = 7.06603 7.16948 7.11794
#
# Compressibility (1/GPa) = 0.01551779
#
# Stress axis : x y z
#
# Youngs Moduli (GPa) = 45.92914 67.17352 71.56572
#
# Poissons Ratio (x) = 0.54967 0.51306
# Poissons Ratio (y) = 0.37583 0.15785
# Poissons Ratio (z) = 0.32927 0.14816
#
# Static dielectric constant tensor:
#      x y z
#    x 1.712400 0.000000 0.000000 
#    y 0.000000 1.662870 0.000000 
#    z 0.000000 0.000000 1.649300 
# 
# From -- ./inp_files/12534.got.cif
#   From: 2010.05.17/outbox.cif.g08.bks.cpg/sg63_7_cif.got.tgz:12534.got - 2010.06.03 15:47:04.
