data_PCOD9470472
_publ_section_title
;
Structure prediction by ZEFSAII (Michael W. Deem and Ramdas Pophale) SiO2 
 PCOD9470472
Probable space group: C M C M
;
_chemical_formula_sum "Si O2"
_cell_formula_units_Z 116
_cell_length_a 7.653716
_cell_length_b 28.815018
_cell_length_c 28.269735
_cell_angle_alpha 90.000000
_cell_angle_beta 90.000000
_cell_angle_gamma 90.000000
_cell_volume 6234.662887
_symmetry_space_group_name_H-M "C M C M"
_symmetry_group_IT_number 63
_symmetry_cell_setting 'orthorhombic'
loop_
_space_group_symop_operation_xyz
x,y,z
-x,-y,1/2+z
x,-y,-z
-x,y,1/2-z
-x,-y,-z
x,y,1/2-z
-x,y,z
x,-y,1/2+z
1/2+x,1/2+y,z
1/2-x,1/2-y,1/2+z
1/2+x,1/2-y,-z
1/2-x,1/2+y,1/2-z
1/2-x,1/2-y,-z
1/2+x,1/2+y,1/2-z
1/2-x,1/2+y,z
1/2+x,1/2-y,1/2+z
loop_
_atom_site_type_symbol
_atom_site_label
_atom_site_fract_x
_atom_site_fract_y
_atom_site_fract_z
Si Si1 0.287986 0.447354 0.990593
Si Si2 0.299246 0.447541 0.320960
Si Si3 0.205563 0.896907 0.896765
Si Si4 0.211645 0.055690 0.303111
Si Si5 0.293894 0.803403 0.554920
Si Si6 0.000000 0.582703 0.750000
Si Si7 0.295159 0.896782 0.086970
Si Si8 0.788935 0.699300 0.553420
O O1 0.500000 0.446342 0.990185
O O2 0.227567 0.416320 0.034260
O O3 0.232327 0.500000 0.000000
O O4 0.222915 0.426771 0.940857
O O5 0.500000 0.442487 0.304469
O O6 0.252148 0.502020 0.315911
O O7 0.292619 0.429806 0.374754
O O8 0.155349 0.420464 0.290824
O O9 0.277358 0.911958 0.845764
O O10 0.222135 0.843278 0.911303
O O11 0.000000 0.908022 0.894828
O O12 0.277964 0.065222 0.250000
O O13 0.000000 0.059987 0.300965
O O14 0.500000 0.811187 0.552465
O O15 0.260914 0.750534 0.570255
O O16 0.223642 0.806722 0.500876
O O17 0.500000 0.895913 0.098141
O O18 0.227991 0.843819 0.084862
O O19 0.000000 0.697388 0.551710
#
# Coordination Sequence:
#
# PCOD9470472 Si02
#       8
#    16  16  16  16  16   4  16  16
#     4  10  20  33  48  72 111 154 189 221 274 348
#     4  11  22  39  61  85 119 152 193 245 289 336
#     4  10  19  32  52  77 109 146 189 231 282 345
#     4   9  18  35  57  80 106 147 194 238 283 334
#     4  10  19  33  51  77 106 141 183 229 279 342
#     4  12  22  40  60  90 114 152 202 248 286 342
#     4  11  21  35  54  83 114 145 187 233 283 349
#     4   9  19  34  53  75 110 143 179 227 279 339
#
# _framework density 18.605657000000001
#
# number of rings (size 3 to 8) (size 9 to 14) (size 15 to 20)
#    0.000    1.931    2.759    1.862    0.000    4.138 
#    1.241    0.000    0.000    0.000    1.793    0.000 
#    0.000    0.000    0.000    0.000    0.000    0.000 
#
# Total GULP energy -323150.836327 kJ/mol
# GULP energy per Si atom -5571.566144 kJ/mol
# Density = 1.856331 g / cm^3
# Si number density = 18.605657 Si / 1000 Ang^3
#
#
#
# Elastic Constant Matrix: (Units=GPa)
#
#
# Indices 1 2 3 4 5 6 
#
# 1 57.2413 -0.4914 11.0958 0.0000 0.0000 0.0000
# 2 -0.4914 95.5387 67.8014 0.0000 0.0000 0.0000
# 3 11.0958 67.8014 149.6399 0.0000 0.0000 0.0000
# 4 0.0000 0.0000 0.0000 1.3949 0.0000 0.0000
# 5 0.0000 0.0000 0.0000 0.0000 20.8724 0.0000
# 6 0.0000 0.0000 0.0000 0.0000 0.0000 4.6924
#
#
#
# Elastic Compliance Matrix: (Units=1/GPa)
#
#
# Indices 1 2 3 4 5 6 
#
# 1 0.017874 0.001522 -0.002015 0.000000 0.000000 0.000000
# 2 0.001522 0.015557 -0.007162 0.000000 0.000000 0.000000
# 3 -0.002015 -0.007162 0.010077 0.000000 0.000000 0.000000
# 4 0.000000 0.000000 0.000000 0.716899 0.000000 0.000000
# 5 0.000000 0.000000 0.000000 0.000000 0.047910 0.000000
# 6 0.000000 0.000000 0.000000 0.000000 0.000000 0.213111
#
#
# Mechanical properties :
#
#
# Convention : Reuss Voigt Hill
#
# Bulk Modulus (GPa) = 35.46315 51.02571 43.24443
# Shear Modulus (GPa) = 4.77949 20.32621 12.55285
#
# Velocity S-wave (km/s) = 1.60450 3.30885 2.60028
# Velocity P-wave (km/s) = 4.74703 6.48709 5.68404
#
# Compressibility (1/GPa) = 0.02819828
#
# Stress axis : x y z
#
# Youngs Moduli (GPa) = 55.94863 64.27818 99.23467
#
# Poissons Ratio (x) = -0.09782 0.19994
# Poissons Ratio (y) = -0.08514 0.71070
# Poissons Ratio (z) = 0.11273 0.46035
#
# Static dielectric constant tensor:
#      x y z
#    x 1.685410 0.000000 0.000000 
#    y 0.000000 1.641270 0.000000 
#    z 0.000000 0.000000 1.603870 
# 
# From -- ./inp_files/67609.got.cif
#   From: 2010.05.17/outbox.cif.g08.bks.cpg/sg63_34_cif.got.tgz:67609.got - 2010.06.03 15:47:04.
