data_PCOD9470709
_publ_section_title
;
Structure prediction by ZEFSAII (Michael W. Deem and Ramdas Pophale) SiO2 
 PCOD9470709
Probable space group: C M C M
;
_chemical_formula_sum "Si O2"
_cell_formula_units_Z 112
_cell_length_a 14.186362
_cell_length_b 28.330664
_cell_length_c 15.048140
_cell_angle_alpha 90.000000
_cell_angle_beta 90.000000
_cell_angle_gamma 90.000000
_cell_volume 6047.983730
_symmetry_space_group_name_H-M "C M C M"
_symmetry_group_IT_number 63
_symmetry_cell_setting 'orthorhombic'
loop_
_space_group_symop_operation_xyz
x,y,z
-x,-y,1/2+z
x,-y,-z
-x,y,1/2-z
-x,-y,-z
x,y,1/2-z
-x,y,z
x,-y,1/2+z
1/2+x,1/2+y,z
1/2-x,1/2-y,1/2+z
1/2+x,1/2-y,-z
1/2-x,1/2+y,1/2-z
1/2-x,1/2-y,-z
1/2+x,1/2+y,1/2-z
1/2-x,1/2+y,z
1/2+x,1/2-y,1/2+z
loop_
_atom_site_type_symbol
_atom_site_label
_atom_site_fract_x
_atom_site_fract_y
_atom_site_fract_z
Si Si1 0.244848 0.716632 0.645558
Si Si2 0.895815 0.659391 0.966555
Si Si3 0.669633 0.181863 0.151444
Si Si4 0.608628 0.364725 0.356837
Si Si5 0.607762 0.996467 0.353232
Si Si6 0.747926 0.071671 0.543803
Si Si7 0.241601 0.422492 0.848006
O O1 0.227221 0.708223 0.750000
O O2 0.155919 0.699617 0.589795
O O3 0.269901 0.771240 0.634137
O O4 0.333293 0.682980 0.619879
O O5 0.828544 0.614006 0.961580
O O6 0.000000 0.648668 0.933340
O O7 0.898041 0.675389 0.068612
O O8 0.626779 0.186804 0.250000
O O9 0.730741 0.133836 0.152544
O O10 0.609556 0.368450 0.250000
O O11 0.500000 0.362802 0.386262
O O12 0.666670 0.408323 0.397655
O O13 0.612185 0.980358 0.250000
O O14 0.500000 0.990668 0.384513
O O15 0.686623 0.969365 0.410239
O O16 0.639705 0.051279 0.352922
O O17 0.784792 0.063180 0.443103
O O18 0.280993 0.436628 0.750000
#
# Coordination Sequence:
#
# PCOD9470709 Si02
#       7
#    16  16  16  16  16  16  16
#     4   9  18  33  52  73 100 134 168 206 253 299
#     4  10  20  31  47  76 108 135 165 202 246 300
#     4   9  18  33  50  67  94 134 175 211 245 282
#     4   9  18  33  53  78 103 126 163 214 259 300
#     4  10  20  33  51  77 107 137 168 202 245 301
#     4  10  19  33  53  75 103 137 168 202 252 305
#     4   9  19  33  49  70  98 134 173 209 242 285
#
# _framework density 18.518568999999999
#
# number of rings (size 3 to 8) (size 9 to 14) (size 15 to 20)
#    0.000    2.571    0.000    1.714    0.000    5.143 
#    0.000    4.286    0.000    2.143    0.000    6.000 
#    0.000    0.000    0.000    0.000    0.000    0.000 
#
# Total GULP energy -311811.456971 kJ/mol
# GULP energy per Si atom -5568.061732 kJ/mol
# Density = 1.847642 g / cm^3
# Si number density = 18.518569 Si / 1000 Ang^3
#
#
#
# Elastic Constant Matrix: (Units=GPa)
#
#
# Indices 1 2 3 4 5 6 
#
# 1 67.3773 12.0473 20.2045 0.0000 0.0000 0.0000
# 2 12.0473 76.6809 20.5156 0.0000 0.0000 0.0000
# 3 20.2045 20.5156 54.2826 0.0000 0.0000 0.0000
# 4 0.0000 0.0000 0.0000 25.3130 0.0000 0.0000
# 5 0.0000 0.0000 0.0000 0.0000 -5.3650 0.0000
# 6 0.0000 0.0000 0.0000 0.0000 0.0000 5.4708
#
#
#
# Elastic Compliance Matrix: (Units=1/GPa)
#
#
# Indices 1 2 3 4 5 6 
#
# 1 0.016786 -0.001074 -0.005842 0.000000 0.000000 0.000000
# 2 -0.001074 0.014577 -0.005109 0.000000 0.000000 0.000000
# 3 -0.005842 -0.005109 0.022528 0.000000 0.000000 0.000000
# 4 0.000000 0.000000 0.000000 0.039505 0.000000 0.000000
# 5 0.000000 0.000000 0.000000 0.000000 -0.186392 0.000000
# 6 0.000000 0.000000 0.000000 0.000000 0.000000 0.182788
#
#
# Mechanical properties :
#
#
# Convention : Reuss Voigt Hill
#
# Bulk Modulus (GPa) = 33.51291 33.76397 33.63844
# Shear Modulus (GPa) = 40.39170 14.78865 27.59018
#
# Velocity S-wave (km/s) = 4.67534 2.82899 3.86407
# Velocity P-wave (km/s) = 6.87614 5.37987 6.17350
#
# Compressibility (1/GPa) = 0.02983925
#
# Stress axis : x y z
#
# Youngs Moduli (GPa) = 59.57468 68.60217 44.39017
#
# Poissons Ratio (x) = 0.07370 0.25932
# Poissons Ratio (y) = 0.06400 0.22680
# Poissons Ratio (z) = 0.34802 0.35051
#
# Static dielectric constant tensor:
#      x y z
#    x 1.583680 0.000000 0.000000 
#    y 0.000000 1.657730 0.000000 
#    z 0.000000 0.000000 1.705300 
# 
# From -- ./inp_files/32522.got.cif
#   From: 2010.05.17/outbox.cif.g08.bks.cpg/sg63_17_cif.got.tgz:32522.got - 2010.06.03 15:47:04.
