data_PCOD9470873
_publ_section_title
;
Structure prediction by ZEFSAII (Michael W. Deem and Ramdas Pophale) SiO2 
 PCOD9470873
Probable space group: C M C M
;
_chemical_formula_sum "Si O2"
_cell_formula_units_Z 96
_cell_length_a 7.489151
_cell_length_b 25.643946
_cell_length_c 27.722224
_cell_angle_alpha 90.000000
_cell_angle_beta 90.000000
_cell_angle_gamma 90.000000
_cell_volume 5324.091482
_symmetry_space_group_name_H-M "C M C M"
_symmetry_group_IT_number 63
_symmetry_cell_setting 'orthorhombic'
loop_
_space_group_symop_operation_xyz
x,y,z
-x,-y,1/2+z
x,-y,-z
-x,y,1/2-z
-x,-y,-z
x,y,1/2-z
-x,y,z
x,-y,1/2+z
1/2+x,1/2+y,z
1/2-x,1/2-y,1/2+z
1/2+x,1/2-y,-z
1/2-x,1/2+y,1/2-z
1/2-x,1/2-y,-z
1/2+x,1/2+y,1/2-z
1/2-x,1/2+y,z
1/2+x,1/2-y,1/2+z
loop_
_atom_site_type_symbol
_atom_site_label
_atom_site_fract_x
_atom_site_fract_y
_atom_site_fract_z
Si Si1 0.283115 0.477152 0.448315
Si Si2 0.500000 0.400631 0.806153
Si Si3 0.706926 0.359843 0.060161
Si Si4 0.214194 0.665753 0.048009
Si Si5 0.000000 0.774927 0.693744
Si Si6 0.216618 0.238989 0.881755
Si Si7 0.793321 0.572402 0.118554
O O1 0.224094 0.500000 0.500000
O O2 0.500000 0.476625 0.449123
O O3 0.216638 0.418147 0.441144
O O4 0.224351 0.516518 0.406730
O O5 0.500000 0.414752 0.750000
O O6 0.500000 0.337783 0.809898
O O7 0.671203 0.421892 0.834804
O O8 0.500000 0.365984 0.073355
O O9 0.776922 0.316638 0.096926
O O10 0.714650 0.337242 0.005985
O O11 0.261316 0.717218 0.077963
O O12 0.270117 0.615339 0.079147
O O13 0.000000 0.664098 0.044024
O O14 0.826159 0.753719 0.665730
O O15 0.000000 0.760817 0.750000
O O16 0.000000 0.239946 0.875154
O O17 0.000000 0.583602 0.129486
#
# Coordination Sequence:
#
# PCOD9470873 Si02
#       7
#    16   8  16  16   8  16  16
#     4  10  19  33  55  84 120 161 198 233 278 338
#     4  11  24  42  65  89 113 146 193 248 302 351
#     4  10  21  33  54  84 119 165 199 229 280 342
#     4  10  20  32  51  82 121 158 189 228 283 342
#     4  11  24  40  66  89 106 148 194 242 303 345
#     4  10  22  39  55  84 121 151 193 239 289 350
#     4  11  22  37  59  87 121 155 190 239 290 347
#
# _framework density 18.031244999999998
#
# number of rings (size 3 to 8) (size 9 to 14) (size 15 to 20)
#    0.000    1.667    4.167    0.500    3.500    1.667 
#    0.000    1.667    0.000    1.000    0.000    0.000 
#    0.000    0.000    0.000    0.000    0.000    0.000 
#
# Total GULP energy -268091.621251 kJ/mol
# GULP energy per Si atom -5585.242109 kJ/mol
# Density = 1.799021 g / cm^3
# Si number density = 18.031245 Si / 1000 Ang^3
#
#
#
# Elastic Constant Matrix: (Units=GPa)
#
#
# Indices 1 2 3 4 5 6 
#
# 1 76.1294 26.1726 39.8244 0.0000 0.0000 0.0000
# 2 26.1726 131.2426 62.8993 0.0000 0.0000 0.0000
# 3 39.8244 62.8993 132.6334 0.0000 0.0000 0.0000
# 4 0.0000 0.0000 0.0000 21.6762 0.0000 0.0000
# 5 0.0000 0.0000 0.0000 0.0000 7.6455 0.0000
# 6 0.0000 0.0000 0.0000 0.0000 0.0000 0.3595
#
#
#
# Elastic Compliance Matrix: (Units=1/GPa)
#
#
# Indices 1 2 3 4 5 6 
#
# 1 0.015711 -0.001129 -0.004182 0.000000 0.000000 0.000000
# 2 -0.001129 0.009942 -0.004376 0.000000 0.000000 0.000000
# 3 -0.004182 -0.004376 0.010870 0.000000 0.000000 0.000000
# 4 0.000000 0.000000 0.000000 0.046134 0.000000 0.000000
# 5 0.000000 0.000000 0.000000 0.000000 0.130796 0.000000
# 6 0.000000 0.000000 0.000000 0.000000 0.000000 2.781413
#
#
# Mechanical properties :
#
#
# Convention : Reuss Voigt Hill
#
# Bulk Modulus (GPa) = 58.30895 66.42199 62.36547
# Shear Modulus (GPa) = 1.65565 20.01018 10.83292
#
# Velocity S-wave (km/s) = 0.95927 3.33491 2.45375
# Velocity P-wave (km/s) = 5.79956 7.19346 6.53379
#
# Compressibility (1/GPa) = 0.01715003
#
# Stress axis : x y z
#
# Youngs Moduli (GPa) = 63.64820 100.58625 91.99262
#
# Poissons Ratio (x) = 0.11355 0.38473
# Poissons Ratio (y) = 0.07185 0.40254
# Poissons Ratio (z) = 0.26619 0.44014
#
# Static dielectric constant tensor:
#      x y z
#    x 1.646750 0.000000 0.000000 
#    y 0.000000 1.634320 0.000000 
#    z 0.000000 0.000000 1.567470 
# 
# From -- ./inp_files/67297.got.cif
#   From: 2010.05.17/outbox.cif.g08.bks.cpg/sg63_34_cif.got.tgz:67297.got - 2010.06.03 15:47:04.
