data_PCOD9470743
_publ_section_title
;
Structure prediction by ZEFSAII (Michael W. Deem and Ramdas Pophale) SiO2 
 PCOD9470743
Probable space group: C M C M
;
_chemical_formula_sum "Si O2"
_cell_formula_units_Z 112
_cell_length_a 14.073190
_cell_length_b 24.103202
_cell_length_c 18.328128
_cell_angle_alpha 90.000000
_cell_angle_beta 90.000000
_cell_angle_gamma 90.000000
_cell_volume 6217.064896
_symmetry_space_group_name_H-M "C M C M"
_symmetry_group_IT_number 63
_symmetry_cell_setting 'orthorhombic'
loop_
_space_group_symop_operation_xyz
x,y,z
-x,-y,1/2+z
x,-y,-z
-x,y,1/2-z
-x,-y,-z
x,y,1/2-z
-x,y,z
x,-y,1/2+z
1/2+x,1/2+y,z
1/2-x,1/2-y,1/2+z
1/2+x,1/2-y,-z
1/2-x,1/2+y,1/2-z
1/2-x,1/2-y,-z
1/2+x,1/2+y,1/2-z
1/2-x,1/2+y,z
1/2+x,1/2-y,1/2+z
loop_
_atom_site_type_symbol
_atom_site_label
_atom_site_fract_x
_atom_site_fract_y
_atom_site_fract_z
Si Si1 0.392196 0.311565 0.661888
Si Si2 0.786284 0.078163 0.162713
Si Si3 0.222570 0.954014 0.163228
Si Si4 0.279949 0.244833 0.416214
Si Si5 0.611726 0.657449 0.836588
Si Si6 0.609092 0.945891 0.050954
Si Si7 0.110258 0.630437 0.415540
O O1 0.389356 0.308965 0.750000
O O2 0.500000 0.300587 0.638202
O O3 0.358395 0.373454 0.638923
O O4 0.314515 0.270386 0.629136
O O5 0.781694 0.081134 0.250000
O O6 0.682803 0.093255 0.131322
O O7 0.813803 0.015560 0.142923
O O8 0.243305 0.954179 0.250000
O O9 0.148620 0.904794 0.149474
O O10 0.316568 0.943811 0.115989
O O11 0.250000 0.250000 0.500000
O O12 0.329095 0.299333 0.384354
O O13 0.352353 0.193019 0.408950
O O14 0.626338 0.669071 0.750000
O O15 0.500000 0.662204 0.851753
O O16 0.500000 0.949718 0.076568
O O17 0.618213 0.892887 0.997836
O O18 0.626406 0.000000 0.000000
O O19 0.000000 0.625151 0.393603
#
# Coordination Sequence:
#
# PCOD9470743 Si02
#       7
#    16  16  16  16  16  16  16
#     4   9  19  36  57  80 107 139 176 220 274 332
#     4   9  18  32  52  80 109 137 174 221 272 324
#     4  10  20  35  56  81 111 146 185 227 273 329
#     4  11  22  37  58  81 110 144 183 236 280 330
#     4  10  22  40  60  82 111 150 192 232 277 330
#     4  10  19  33  53  77 111 150 182 219 274 333
#     4  10  20  34  53  78 106 142 183 223 276 332
#
# _framework density 18.014932000000002
#
# number of rings (size 3 to 8) (size 9 to 14) (size 15 to 20)
#    0.000    2.143    1.429    1.714    0.000    2.857 
#    0.000    5.000    0.000    1.286    0.000    0.000 
#    0.000    0.000    0.000    0.000    0.000    0.000 
#
# Total GULP energy -312443.180613 kJ/mol
# GULP energy per Si atom -5579.342511 kJ/mol
# Density = 1.797393 g / cm^3
# Si number density = 18.014932 Si / 1000 Ang^3
#
#
#
# Elastic Constant Matrix: (Units=GPa)
#
#
# Indices 1 2 3 4 5 6 
#
# 1 119.6609 49.9153 41.4126 0.0000 0.0000 0.0000
# 2 49.9153 105.5746 29.9597 0.0000 0.0000 0.0000
# 3 41.4126 29.9597 29.8814 0.0000 0.0000 0.0000
# 4 0.0000 0.0000 0.0000 23.6758 0.0000 0.0000
# 5 0.0000 0.0000 0.0000 0.0000 24.7062 0.0000
# 6 0.0000 0.0000 0.0000 0.0000 0.0000 18.1172
#
#
#
# Elastic Compliance Matrix: (Units=1/GPa)
#
#
# Indices 1 2 3 4 5 6 
#
# 1 0.016304 -0.001812 -0.020779 0.000000 0.000000 0.000000
# 2 -0.001812 0.013440 -0.010964 0.000000 0.000000 0.000000
# 3 -0.020779 -0.010964 0.073257 0.000000 0.000000 0.000000
# 4 0.000000 0.000000 0.000000 0.042237 0.000000 0.000000
# 5 0.000000 0.000000 0.000000 0.000000 0.040476 0.000000
# 6 0.000000 0.000000 0.000000 0.000000 0.000000 0.055196
#
#
# Mechanical properties :
#
#
# Convention : Reuss Voigt Hill
#
# Bulk Modulus (GPa) = 27.86287 55.29912 41.58100
# Shear Modulus (GPa) = 15.62580 22.22179 18.92379
#
# Velocity S-wave (km/s) = 2.94833 3.51596 3.24458
# Velocity P-wave (km/s) = 5.20483 6.87354 6.09655
#
# Compressibility (1/GPa) = 0.03589005
#
# Stress axis : x y z
#
# Youngs Moduli (GPa) = 61.33446 74.40470 13.65066
#
# Poissons Ratio (x) = 0.13481 0.28365
# Poissons Ratio (y) = 0.11113 0.14967
# Poissons Ratio (z) = 1.27448 0.81579
#
# Static dielectric constant tensor:
#      x y z
#    x 1.585730 0.000000 0.000000 
#    y 0.000000 1.637070 0.000000 
#    z 0.000000 0.000000 1.687420 
# 
# From -- ./inp_files/32335.got.cif
#   From: 2010.05.17/outbox.cif.g08.bks.cpg/sg63_17_cif.got.tgz:32335.got - 2010.06.03 15:47:04.
