data_PCOD9470694
_publ_section_title
;
Structure prediction by ZEFSAII (Michael W. Deem and Ramdas Pophale) SiO2 
 PCOD9470694
Probable space group: C M C M
;
_chemical_formula_sum "Si O2"
_cell_formula_units_Z 96
_cell_length_a 23.314933
_cell_length_b 9.955399
_cell_length_c 24.700205
_cell_angle_alpha 90.000000
_cell_angle_beta 90.000000
_cell_angle_gamma 90.000000
_cell_volume 5733.151261
_symmetry_space_group_name_H-M "C M C M"
_symmetry_group_IT_number 63
_symmetry_cell_setting 'orthorhombic'
loop_
_space_group_symop_operation_xyz
x,y,z
-x,-y,1/2+z
x,-y,-z
-x,y,1/2-z
-x,-y,-z
x,y,1/2-z
-x,y,z
x,-y,1/2+z
1/2+x,1/2+y,z
1/2-x,1/2-y,1/2+z
1/2+x,1/2-y,-z
1/2-x,1/2+y,1/2-z
1/2-x,1/2-y,-z
1/2+x,1/2+y,1/2-z
1/2-x,1/2+y,z
1/2+x,1/2-y,1/2+z
loop_
_atom_site_type_symbol
_atom_site_label
_atom_site_fract_x
_atom_site_fract_y
_atom_site_fract_z
Si Si1 0.645698 0.510818 0.108279
Si Si2 0.934786 0.184241 0.957879
Si Si3 0.565937 0.743401 0.413619
Si Si4 0.715876 0.650902 0.686305
Si Si5 0.889160 0.469240 0.563756
Si Si6 0.270617 0.929332 0.623646
O O1 0.611675 0.417888 0.066086
O O2 0.608437 0.643643 0.117289
O O3 0.726088 0.212167 0.153970
O O4 0.710284 0.554916 0.091403
O O5 0.924323 0.330784 0.931562
O O6 0.000000 0.137591 0.947314
O O7 0.928578 0.204107 0.022470
O O8 0.500000 0.723578 0.398089
O O9 0.582601 0.899696 0.409447
O O10 0.786831 0.170808 0.750000
O O11 0.840624 0.077846 0.661589
O O12 0.765559 0.546824 0.668453
O O13 0.885944 0.500000 0.500000
O O14 0.825902 0.447524 0.587010
#
# Coordination Sequence:
#
# PCOD9470694 Si02
#       6
#    16  16  16  16  16  16
#     4  10  21  33  52  80 105 132 178 217 271 308
#     4  10  19  34  53  76 109 149 185 209 242 307
#     4  10  20  33  53  78 108 147 183 211 247 305
#     4  10  21  37  57  78 102 134 178 226 272 321
#     4  10  19  33  52  82 116 145 172 211 259 314
#     4  10  20  36  54  83 107 135 173 214 274 324
#
# _framework density 16.744717999999999
#
# number of rings (size 3 to 8) (size 9 to 14) (size 15 to 20)
#    1.000    1.000    1.667    3.000    0.000    4.667 
#    0.000    4.167    0.000    2.000    0.000    0.000 
#    0.000    0.000    0.000    0.000    0.000    0.000 
#
# Total GULP energy -267328.524879 kJ/mol
# GULP energy per Si atom -5569.344268 kJ/mol
# Density = 1.670661 g / cm^3
# Si number density = 16.744718 Si / 1000 Ang^3
#
#
#
# Elastic Constant Matrix: (Units=GPa)
#
#
# Indices 1 2 3 4 5 6 
#
# 1 85.7565 8.7831 12.3523 0.0000 0.0000 0.0000
# 2 8.7831 83.4210 9.6664 0.0000 0.0000 0.0000
# 3 12.3523 9.6664 12.6172 0.0000 0.0000 0.0000
# 4 0.0000 0.0000 0.0000 10.0024 0.0000 0.0000
# 5 0.0000 0.0000 0.0000 0.0000 2.9181 0.0000
# 6 0.0000 0.0000 0.0000 0.0000 0.0000 -1.5297
#
#
#
# Elastic Compliance Matrix: (Units=1/GPa)
#
#
# Indices 1 2 3 4 5 6 
#
# 1 0.013576 0.000122 -0.013384 0.000000 0.000000 0.000000
# 2 0.000122 0.013156 -0.010198 0.000000 0.000000 0.000000
# 3 -0.013384 -0.010198 0.100174 0.000000 0.000000 0.000000
# 4 0.000000 0.000000 0.000000 0.099976 0.000000 0.000000
# 5 0.000000 0.000000 0.000000 0.000000 0.342684 0.000000
# 6 0.000000 0.000000 0.000000 0.000000 0.000000 -0.653706
#
#
# Mechanical properties :
#
#
# Convention : Reuss Voigt Hill
#
# Bulk Modulus (GPa) = 12.50256 27.04426 19.77341
# Shear Modulus (GPa) = -473.65409 12.34435 -230.65487
#
# Velocity S-wave (km/s) = -16.83692 2.71810 -11.74934
# Velocity P-wave (km/s) = 19.24820 5.10262 13.12357
#
# Compressibility (1/GPa) = 0.07998362
#
# Stress axis : x y z
#
# Youngs Moduli (GPa) = 73.65735 76.00908 9.98267
#
# Poissons Ratio (x) = -0.00924 0.13361
# Poissons Ratio (y) = -0.00895 0.10181
# Poissons Ratio (z) = 0.98586 0.77517
#
# Static dielectric constant tensor:
#      x y z
#    x 1.560890 0.000000 0.000000 
#    y 0.000000 1.601010 0.000000 
#    z 0.000000 0.000000 1.533370 
# 
# From -- ./inp_files/70626.got.cif
#   From: 2010.05.17/outbox.cif.g08.bks.cpg/sg63_36_cif.got.tgz:70626.got - 2010.06.03 15:47:04.
