data_PCOD9470489
_publ_section_title
;
Structure prediction by ZEFSAII (Michael W. Deem and Ramdas Pophale) SiO2 
 PCOD9470489
Probable space group: C M C M
;
_chemical_formula_sum "Si O2"
_cell_formula_units_Z 80
_cell_length_a 19.387251
_cell_length_b 9.053683
_cell_length_c 24.376405
_cell_angle_alpha 90.000000
_cell_angle_beta 90.000000
_cell_angle_gamma 90.000000
_cell_volume 4278.693468
_symmetry_space_group_name_H-M "C M C M"
_symmetry_group_IT_number 63
_symmetry_cell_setting 'orthorhombic'
loop_
_space_group_symop_operation_xyz
x,y,z
-x,-y,1/2+z
x,-y,-z
-x,y,1/2-z
-x,-y,-z
x,y,1/2-z
-x,y,z
x,-y,1/2+z
1/2+x,1/2+y,z
1/2-x,1/2-y,1/2+z
1/2+x,1/2-y,-z
1/2-x,1/2+y,1/2-z
1/2-x,1/2-y,-z
1/2+x,1/2+y,1/2-z
1/2-x,1/2+y,z
1/2+x,1/2-y,1/2+z
loop_
_atom_site_type_symbol
_atom_site_label
_atom_site_fract_x
_atom_site_fract_y
_atom_site_fract_z
Si Si1 0.420101 0.007490 0.564980
Si Si2 0.177737 0.686966 0.644323
Si Si3 0.581028 0.564915 0.312194
Si Si4 0.920202 0.756184 0.146735
Si Si5 0.287289 0.876877 0.689465
O O1 0.500000 0.056459 0.575950
O O2 0.414342 0.844100 0.592207
O O3 0.410558 0.000000 0.500000
O O4 0.363423 0.113217 0.593566
O O5 0.121876 0.787549 0.674924
O O6 0.242734 0.798213 0.641803
O O7 0.207437 0.549964 0.678490
O O8 0.596283 0.513885 0.250000
O O9 0.500000 0.595104 0.315667
O O10 0.596855 0.430287 0.353740
O O11 0.864742 0.683474 0.186490
O O12 0.000000 0.745833 0.165307
O O13 0.257761 0.848153 0.750000
#
# Coordination Sequence:
#
# PCOD9470489 Si02
#       5
#    16  16  16  16  16
#     4   9  19  39  64  86 112 148 191 241 290 334
#     4  11  22  36  53  80 112 148 191 232 278 336
#     4  10  19  32  52  79 112 146 180 225 279 337
#     4   9  19  35  55  81 111 145 187 232 281 337
#     4  11  21  33  52  78 111 148 182 223 277 338
#
# _framework density 18.697296000000001
#
# number of rings (size 3 to 8) (size 9 to 14) (size 15 to 20)
#    0.000    2.000    0.000    4.200    0.000    2.000 
#    0.000    5.000    0.000    4.800    0.000    0.000 
#    0.000    0.000    0.000    0.000    0.000    0.000 
#
# Total GULP energy -222801.169906 kJ/mol
# GULP energy per Si atom -5570.029248 kJ/mol
# Density = 1.865474 g / cm^3
# Si number density = 18.697296 Si / 1000 Ang^3
#
#
#
# Elastic Constant Matrix: (Units=GPa)
#
#
# Indices 1 2 3 4 5 6 
#
# 1 72.4121 51.6505 42.2236 0.0000 0.0000 0.0000
# 2 51.6505 128.8691 35.6910 0.0000 0.0000 0.0000
# 3 42.2236 35.6910 87.9244 0.0000 0.0000 0.0000
# 4 0.0000 0.0000 0.0000 14.7497 0.0000 0.0000
# 5 0.0000 0.0000 0.0000 0.0000 21.6202 0.0000
# 6 0.0000 0.0000 0.0000 0.0000 0.0000 38.8457
#
#
#
# Elastic Compliance Matrix: (Units=1/GPa)
#
#
# Indices 1 2 3 4 5 6 
#
# 1 0.023968 -0.007231 -0.008574 0.000000 0.000000 0.000000
# 2 -0.007231 0.010925 -0.000962 0.000000 0.000000 0.000000
# 3 -0.008574 -0.000962 0.015882 0.000000 0.000000 0.000000
# 4 0.000000 0.000000 0.000000 0.067798 0.000000 0.000000
# 5 0.000000 0.000000 0.000000 0.000000 0.046253 0.000000
# 6 0.000000 0.000000 0.000000 0.000000 0.000000 0.025743
#
#
# Mechanical properties :
#
#
# Convention : Reuss Voigt Hill
#
# Bulk Modulus (GPa) = 58.01053 60.92618 59.46836
# Shear Modulus (GPa) = 21.75335 25.68581 23.71958
#
# Velocity S-wave (km/s) = 3.41464 3.71046 3.56562
# Velocity P-wave (km/s) = 6.82934 7.14234 6.98759
#
# Compressibility (1/GPa) = 0.01723825
#
# Stress axis : x y z
#
# Youngs Moduli (GPa) = 41.72269 91.53682 62.96616
#
# Poissons Ratio (x) = 0.66195 0.53990
# Poissons Ratio (y) = 0.30172 0.06056
# Poissons Ratio (z) = 0.35775 0.08804
#
# Static dielectric constant tensor:
#      x y z
#    x 1.703930 0.000000 0.000000 
#    y 0.000000 1.658780 0.000000 
#    z 0.000000 0.000000 1.607210 
# 
# From -- ./inp_files/69749.got.cif
#   From: 2010.05.17/outbox.cif.g08.bks.cpg/sg63_35_cif.got.tgz:69749.got - 2010.06.03 15:47:04.
