data_PCOD9470807
_publ_section_title
;
Structure prediction by ZEFSAII (Michael W. Deem and Ramdas Pophale) SiO2 
 PCOD9470807
Probable space group: C M C M
;
_chemical_formula_sum "Si O2"
_cell_formula_units_Z 80
_cell_length_a 13.350819
_cell_length_b 18.229817
_cell_length_c 18.352365
_cell_angle_alpha 90.000000
_cell_angle_beta 90.000000
_cell_angle_gamma 90.000000
_cell_volume 4466.653415
_symmetry_space_group_name_H-M "C M C M"
_symmetry_group_IT_number 63
_symmetry_cell_setting 'orthorhombic'
loop_
_space_group_symop_operation_xyz
x,y,z
-x,-y,1/2+z
x,-y,-z
-x,y,1/2-z
-x,-y,-z
x,y,1/2-z
-x,y,z
x,-y,1/2+z
1/2+x,1/2+y,z
1/2-x,1/2-y,1/2+z
1/2+x,1/2-y,-z
1/2-x,1/2+y,1/2-z
1/2-x,1/2-y,-z
1/2+x,1/2+y,1/2-z
1/2-x,1/2+y,z
1/2+x,1/2-y,1/2+z
loop_
_atom_site_type_symbol
_atom_site_label
_atom_site_fract_x
_atom_site_fract_y
_atom_site_fract_z
Si Si1 0.884306 0.500531 0.665233
Si Si2 0.745855 0.355479 0.664220
Si Si3 0.185283 0.423341 0.466516
Si Si4 0.114928 0.130665 0.472901
Si Si5 0.113857 0.715712 0.442739
O O1 0.882201 0.519228 0.750000
O O2 0.815211 0.428421 0.655889
O O3 0.841462 0.566690 0.617321
O O4 0.000000 0.484711 0.645194
O O5 0.726509 0.344300 0.750000
O O6 0.650748 0.366205 0.611257
O O7 0.810151 0.291616 0.624785
O O8 0.147334 0.500000 0.500000
O O9 0.303008 0.416918 0.484109
O O10 0.136085 0.353654 0.505125
O O11 0.125321 0.211132 0.509552
O O12 0.000000 0.107153 0.479413
O O13 0.000000 0.712186 0.416070
#
# Coordination Sequence:
#
# PCOD9470807 Si02
#       5
#    16  16  16  16  16
#     4  10  20  33  51  81 115 138 167 220 281 329
#     4  10  19  33  54  81 108 137 175 222 272 318
#     4  11  19  33  56  82 105 137 180 223 266 312
#     4  10  22  39  54  76 110 147 187 219 255 313
#     4  10  20  35  56  80 109 140 175 219 267 323
#
# _framework density 17.910501
#
# number of rings (size 3 to 8) (size 9 to 14) (size 15 to 20)
#    0.000    1.800    4.000    3.600    0.000    2.800 
#    0.000    4.000    0.000    3.000    0.000    0.000 
#    0.000    0.000    0.000    0.000    0.000    0.000 
#
# Total GULP energy -223049.488775 kJ/mol
# GULP energy per Si atom -5576.237219 kJ/mol
# Density = 1.786974 g / cm^3
# Si number density = 17.910501 Si / 1000 Ang^3
#
#
#
# Elastic Constant Matrix: (Units=GPa)
#
#
# Indices 1 2 3 4 5 6 
#
# 1 58.8719 -3.4795 21.5525 0.0000 0.0000 0.0000
# 2 -3.4795 45.2067 11.2399 0.0000 0.0000 0.0000
# 3 21.5525 11.2399 94.3045 0.0000 0.0000 0.0000
# 4 0.0000 0.0000 0.0000 21.2848 0.0000 0.0000
# 5 0.0000 0.0000 0.0000 0.0000 25.5772 0.0000
# 6 0.0000 0.0000 0.0000 0.0000 0.0000 16.4952
#
#
#
# Elastic Compliance Matrix: (Units=1/GPa)
#
#
# Indices 1 2 3 4 5 6 
#
# 1 0.018828 0.002596 -0.004612 0.000000 0.000000 0.000000
# 2 0.002596 0.023154 -0.003353 0.000000 0.000000 0.000000
# 3 -0.004612 -0.003353 0.012058 0.000000 0.000000 0.000000
# 4 0.000000 0.000000 0.000000 0.046982 0.000000 0.000000
# 5 0.000000 0.000000 0.000000 0.000000 0.039097 0.000000
# 6 0.000000 0.000000 0.000000 0.000000 0.000000 0.060624
#
#
# Mechanical properties :
#
#
# Convention : Reuss Voigt Hill
#
# Bulk Modulus (GPa) = 23.09416 28.55656 25.82536
# Shear Modulus (GPa) = 22.13220 23.94278 23.03749
#
# Velocity S-wave (km/s) = 3.51908 3.66020 3.59033
# Velocity P-wave (km/s) = 5.42532 5.81733 5.62474
#
# Compressibility (1/GPa) = 0.04330098
#
# Stress axis : x y z
#
# Youngs Moduli (GPa) = 53.11232 43.18898 82.93455
#
# Poissons Ratio (x) = -0.11212 0.38253
# Poissons Ratio (y) = -0.13788 0.27808
# Poissons Ratio (z) = 0.24497 0.14481
#
# Static dielectric constant tensor:
#      x y z
#    x 1.634680 0.000000 0.000000 
#    y 0.000000 1.614300 0.000000 
#    z 0.000000 0.000000 1.653210 
# 
# From -- ./inp_files/43969.got.cif
#   From: 2010.05.17/outbox.cif.g08.bks.cpg/sg63_22_cif.got.tgz:43969.got - 2010.06.03 15:47:04.
