data_PCOD9470420
_publ_section_title
;
Structure prediction by ZEFSAII (Michael W. Deem and Ramdas Pophale) SiO2 
 PCOD9470420
Probable space group: C M C M
;
_chemical_formula_sum "Si O2"
_cell_formula_units_Z 112
_cell_length_a 25.467059
_cell_length_b 14.425797
_cell_length_c 15.776034
_cell_angle_alpha 90.000000
_cell_angle_beta 90.000000
_cell_angle_gamma 90.000000
_cell_volume 5795.840757
_symmetry_space_group_name_H-M "C M C M"
_symmetry_group_IT_number 63
_symmetry_cell_setting 'orthorhombic'
loop_
_space_group_symop_operation_xyz
x,y,z
-x,-y,1/2+z
x,-y,-z
-x,y,1/2-z
-x,-y,-z
x,y,1/2-z
-x,y,z
x,-y,1/2+z
1/2+x,1/2+y,z
1/2-x,1/2-y,1/2+z
1/2+x,1/2-y,-z
1/2-x,1/2+y,1/2-z
1/2-x,1/2-y,-z
1/2+x,1/2+y,1/2-z
1/2-x,1/2+y,z
1/2+x,1/2-y,1/2+z
loop_
_atom_site_type_symbol
_atom_site_label
_atom_site_fract_x
_atom_site_fract_y
_atom_site_fract_z
Si Si1 0.722649 0.342224 0.155933
Si Si2 0.165570 0.298635 0.158617
Si Si3 0.133954 0.886519 0.600525
Si Si4 0.850623 0.602315 0.477056
Si Si5 0.558076 0.448172 0.150594
Si Si6 0.751430 0.555772 0.353662
Si Si7 0.383424 0.710625 0.926715
O O1 0.699085 0.345972 0.250000
O O2 0.772358 0.274748 0.156387
O O3 0.746387 0.443670 0.139156
O O4 0.677404 0.308706 0.095771
O O5 0.157509 0.348179 0.250000
O O6 0.131947 0.205030 0.158738
O O7 0.158360 0.351487 0.070001
O O8 0.195541 0.912792 0.606856
O O9 0.111765 0.845276 0.513852
O O10 0.100902 0.977625 0.620048
O O11 0.870674 0.500000 0.500000
O O12 0.799792 0.588594 0.414177
O O13 0.888090 0.678898 0.433488
O O14 0.554623 0.463956 0.250000
O O15 0.500000 0.461455 0.112677
O O16 0.578660 0.344341 0.135227
O O17 0.756055 0.575040 0.250000
#
# Coordination Sequence:
#
# PCOD9470420 Si02
#       7
#    16  16  16  16  16  16  16
#     4  10  19  32  51  78 115 156 199 240 283 335
#     4  10  20  35  53  77 113 156 199 241 284 342
#     4  11  22  35  56  82 113 154 192 234 292 349
#     4  11  23  37  54  81 117 157 201 241 285 339
#     4  11  24  42  63  87 114 144 184 239 299 358
#     4  11  21  33  53  80 118 162 199 238 286 341
#     4  11  23  36  56  82 111 151 194 239 290 342
#
# _framework density 19.324203000000001
#
# number of rings (size 3 to 8) (size 9 to 14) (size 15 to 20)
#    0.000    1.286    2.857    3.857    0.000    5.714 
#    0.000    0.000    0.000    0.429    0.000    0.000 
#    0.000    9.143    0.000    0.000    0.000    0.000 
#
# Total GULP energy -311885.488293 kJ/mol
# GULP energy per Si atom -5569.383720 kJ/mol
# Density = 1.928022 g / cm^3
# Si number density = 19.324203 Si / 1000 Ang^3
#
#
#
# Elastic Constant Matrix: (Units=GPa)
#
#
# Indices 1 2 3 4 5 6 
#
# 1 36.3738 35.5891 -2.7460 0.0000 0.0000 0.0000
# 2 35.5891 114.9145 10.6469 0.0000 0.0000 0.0000
# 3 -2.7460 10.6469 33.8164 0.0000 0.0000 0.0000
# 4 0.0000 0.0000 0.0000 19.4606 0.0000 0.0000
# 5 0.0000 0.0000 0.0000 0.0000 -31.6242 0.0000
# 6 0.0000 0.0000 0.0000 0.0000 0.0000 7.3749
#
#
#
# Elastic Compliance Matrix: (Units=1/GPa)
#
#
# Indices 1 2 3 4 5 6 
#
# 1 0.041255 -0.013480 0.007594 0.000000 0.000000 0.000000
# 2 -0.013480 0.013368 -0.005304 0.000000 0.000000 0.000000
# 3 0.007594 -0.005304 0.031858 0.000000 0.000000 0.000000
# 4 0.000000 0.000000 0.000000 0.051386 0.000000 0.000000
# 5 0.000000 0.000000 0.000000 0.000000 -0.031621 0.000000
# 6 0.000000 0.000000 0.000000 0.000000 0.000000 0.135596
#
#
# Mechanical properties :
#
#
# Convention : Reuss Voigt Hill
#
# Bulk Modulus (GPa) = 15.60013 30.23165 22.91589
# Shear Modulus (GPa) = 17.50771 8.48323 12.99547
#
# Velocity S-wave (km/s) = 3.01325 2.09749 2.59607
# Velocity P-wave (km/s) = 4.49406 4.64159 4.56842
#
# Compressibility (1/GPa) = 0.06410202
#
# Stress axis : x y z
#
# Youngs Moduli (GPa) = 24.23939 74.80334 31.38932
#
# Poissons Ratio (x) = 1.00838 -0.23838
# Poissons Ratio (y) = 0.32676 0.16648
# Poissons Ratio (z) = -0.18408 0.39673
#
# Static dielectric constant tensor:
#      x y z
#    x 1.666570 0.000000 0.000000 
#    y 0.000000 1.741690 0.000000 
#    z 0.000000 0.000000 1.748990 
# 
# From -- ./inp_files/37915.got.cif
#   From: 2010.05.17/outbox.cif.g08.bks.cpg/sg63_19_cif.got.tgz:37915.got - 2010.06.03 15:47:04.
