data_PCOD9470240
_publ_section_title
;
Structure prediction by ZEFSAII (Michael W. Deem and Ramdas Pophale) SiO2 
 PCOD9470240
Probable space group: C M C M
;
_chemical_formula_sum "Si O2"
_cell_formula_units_Z 96
_cell_length_a 29.064943
_cell_length_b 20.655834
_cell_length_c 9.085543
_cell_angle_alpha 90.000000
_cell_angle_beta 90.000000
_cell_angle_gamma 90.000000
_cell_volume 5454.602390
_symmetry_space_group_name_H-M "C M C M"
_symmetry_group_IT_number 63
_symmetry_cell_setting 'orthorhombic'
loop_
_space_group_symop_operation_xyz
x,y,z
-x,-y,1/2+z
x,-y,-z
-x,y,1/2-z
-x,-y,-z
x,y,1/2-z
-x,y,z
x,-y,1/2+z
1/2+x,1/2+y,z
1/2-x,1/2-y,1/2+z
1/2+x,1/2-y,-z
1/2-x,1/2+y,1/2-z
1/2-x,1/2-y,-z
1/2+x,1/2+y,1/2-z
1/2-x,1/2+y,z
1/2+x,1/2-y,1/2+z
loop_
_atom_site_type_symbol
_atom_site_label
_atom_site_fract_x
_atom_site_fract_y
_atom_site_fract_z
Si Si1 0.187553 0.697934 0.076474
Si Si2 0.445232 0.937343 0.584668
Si Si3 0.947026 0.825490 0.929091
Si Si4 0.092573 0.685154 0.925982
Si Si5 0.710786 0.333178 0.575200
Si Si6 0.870681 0.070001 0.426986
O O1 0.177355 0.697965 0.250000
O O2 0.234674 0.657823 0.053039
O O3 0.144064 0.675170 0.984406
O O4 0.197329 0.770835 0.020390
O O5 0.426242 0.932264 0.750000
O O6 0.500000 0.946086 0.596299
O O7 0.436673 0.872373 0.494685
O O8 0.426243 0.000000 0.500000
O O9 0.947230 0.825736 0.750000
O O10 0.926350 0.755759 0.973386
O O11 0.912653 0.882929 0.974844
O O12 0.000000 0.832898 0.977852
O O13 0.091103 0.683088 0.750000
O O14 0.703903 0.317821 0.750000
O O15 0.676986 0.392251 0.539669
O O16 0.873339 0.063196 0.250000
O O17 0.872859 0.000000 0.500000
#
# Coordination Sequence:
#
# PCOD9470240 Si02
#       6
#    16  16  16  16  16  16
#     4  10  19  31  54  82 108 135 175 226 276 328
#     4  10  21  37  56  80 111 146 185 227 273 328
#     4   9  18  33  54  78 106 143 186 228 272 327
#     4  11  20  34  56  82 113 148 185 225 275 332
#     4   9  18  35  54  76 105 140 177 222 274 332
#     4  10  20  36  55  77 108 144 185 229 278 333
#
# _framework density 17.599815
#
# number of rings (size 3 to 8) (size 9 to 14) (size 15 to 20)
#    0.000    2.167    1.667    2.000    0.000    3.333 
#    0.000    0.833    0.000    4.000    0.000    0.000 
#    0.000    0.000    0.000    0.000    0.000    0.000 
#
# Total GULP energy -267670.652722 kJ/mol
# GULP energy per Si atom -5576.471932 kJ/mol
# Density = 1.755976 g / cm^3
# Si number density = 17.599815 Si / 1000 Ang^3
#
#
#
# Elastic Constant Matrix: (Units=GPa)
#
#
# Indices 1 2 3 4 5 6 
#
# 1 95.0201 60.0803 38.1872 0.0000 0.0000 0.0000
# 2 60.0803 131.1963 43.7454 0.0000 0.0000 0.0000
# 3 38.1872 43.7454 57.9821 0.0000 0.0000 0.0000
# 4 0.0000 0.0000 0.0000 28.3863 0.0000 0.0000
# 5 0.0000 0.0000 0.0000 0.0000 24.4647 0.0000
# 6 0.0000 0.0000 0.0000 0.0000 0.0000 22.2111
#
#
#
# Elastic Compliance Matrix: (Units=1/GPa)
#
#
# Indices 1 2 3 4 5 6 
#
# 1 0.016691 -0.005315 -0.006983 0.000000 0.000000 0.000000
# 2 -0.005315 0.011877 -0.005460 0.000000 0.000000 0.000000
# 3 -0.006983 -0.005460 0.025965 0.000000 0.000000 0.000000
# 4 0.000000 0.000000 0.000000 0.035228 0.000000 0.000000
# 5 0.000000 0.000000 0.000000 0.000000 0.040875 0.000000
# 6 0.000000 0.000000 0.000000 0.000000 0.000000 0.045022
#
#
# Mechanical properties :
#
#
# Convention : Reuss Voigt Hill
#
# Bulk Modulus (GPa) = 52.58454 63.13603 57.86029
# Shear Modulus (GPa) = 22.98707 24.49146 23.73926
#
# Velocity S-wave (km/s) = 3.61792 3.73443 3.67663
# Velocity P-wave (km/s) = 6.88442 7.38550 7.13936
#
# Compressibility (1/GPa) = 0.01901700
#
# Stress axis : x y z
#
# Youngs Moduli (GPa) = 59.91200 84.19777 38.51362
#
# Poissons Ratio (x) = 0.44754 0.26893
# Poissons Ratio (y) = 0.31845 0.21028
# Poissons Ratio (z) = 0.41834 0.45971
#
# Static dielectric constant tensor:
#      x y z
#    x 1.626880 0.000000 0.000000 
#    y 0.000000 1.569180 0.000000 
#    z 0.000000 0.000000 1.603370 
# 
# From -- ./inp_files/12403.got.cif
#   From: 2010.05.17/outbox.cif.g08.bks.cpg/sg63_7_cif.got.tgz:12403.got - 2010.06.03 15:47:04.
