data_PCOD9470183
_publ_section_title
;
Structure prediction by ZEFSAII (Michael W. Deem and Ramdas Pophale) SiO2 
 PCOD9470183
Probable space group: C M C M
;
_chemical_formula_sum "Si O2"
_cell_formula_units_Z 96
_cell_length_a 24.372522
_cell_length_b 26.205065
_cell_length_c 8.246498
_cell_angle_alpha 90.000000
_cell_angle_beta 90.000000
_cell_angle_gamma 90.000000
_cell_volume 5266.902397
_symmetry_space_group_name_H-M "C M C M"
_symmetry_group_IT_number 63
_symmetry_cell_setting 'orthorhombic'
loop_
_space_group_symop_operation_xyz
x,y,z
-x,-y,1/2+z
x,-y,-z
-x,y,1/2-z
-x,-y,-z
x,y,1/2-z
-x,y,z
x,-y,1/2+z
1/2+x,1/2+y,z
1/2-x,1/2-y,1/2+z
1/2+x,1/2-y,-z
1/2-x,1/2+y,1/2-z
1/2-x,1/2-y,-z
1/2+x,1/2+y,1/2-z
1/2-x,1/2+y,z
1/2+x,1/2-y,1/2+z
loop_
_atom_site_type_symbol
_atom_site_label
_atom_site_fract_x
_atom_site_fract_y
_atom_site_fract_z
Si Si1 0.937472 0.751160 0.945827
Si Si2 0.365181 0.347877 0.551675
Si Si3 0.129871 0.653211 0.443666
Si Si4 0.247847 0.308924 0.553757
Si Si5 0.937453 0.442993 0.056204
Si Si6 0.062852 0.057172 0.445776
O O1 0.938531 0.752561 0.750000
O O2 0.901508 0.799363 0.000318
O O3 0.000000 0.754292 0.004200
O O4 0.909007 0.698886 0.997190
O O5 0.365186 0.348445 0.750000
O O6 0.302786 0.338119 0.498894
O O7 0.394785 0.399724 0.497325
O O8 0.131252 0.654263 0.250000
O O9 0.191483 0.665110 0.503803
O O10 0.104375 0.599746 0.497370
O O11 0.247862 0.309279 0.750000
O O12 0.250000 0.250000 0.500000
O O13 0.938489 0.442024 0.250000
O O14 0.000000 0.432103 0.997357
O O15 0.923136 0.500000 0.000000
O O16 0.062558 0.058342 0.250000
O O17 0.000000 0.068104 0.499613
O O18 0.076925 0.000000 0.500000
#
# Coordination Sequence:
#
# PCOD9470183 Si02
#       6
#    16  16  16  16  16  16
#     4  10  19  31  51  77 102 133 175 219 264 317
#     4   9  17  32  53  74 100 134 174 218 259 306
#     4  11  22  34  51  78 110 142 176 215 264 321
#     4  10  20  35  54  75 102 141 181 218 261 311
#     4  10  21  38  60  83 107 139 178 220 268 320
#     4   9  17  31  52  76 101 131 167 208 257 308
#
# _framework density 18.227032999999999
#
# number of rings (size 3 to 8) (size 9 to 14) (size 15 to 20)
#    0.000    2.167    1.667    2.000    0.000    6.000 
#    0.000    2.500    0.000    4.000    0.000    0.000 
#    0.000    0.000    0.000    0.000    0.000    0.000 
#
# Total GULP energy -267918.505006 kJ/mol
# GULP energy per Si atom -5581.635521 kJ/mol
# Density = 1.818555 g / cm^3
# Si number density = 18.227033 Si / 1000 Ang^3
#
#
#
# Elastic Constant Matrix: (Units=GPa)
#
#
# Indices 1 2 3 4 5 6 
#
# 1 166.1788 97.8166 12.6551 0.0000 0.0000 0.0000
# 2 97.8166 136.0497 1.9611 0.0000 0.0000 0.0000
# 3 12.6551 1.9611 5.5840 0.0000 0.0000 0.0000
# 4 0.0000 0.0000 0.0000 28.6251 0.0000 0.0000
# 5 0.0000 0.0000 0.0000 0.0000 16.8982 0.0000
# 6 0.0000 0.0000 0.0000 0.0000 0.0000 22.1451
#
#
#
# Elastic Compliance Matrix: (Units=1/GPa)
#
#
# Indices 1 2 3 4 5 6 
#
# 1 0.013682 -0.009438 -0.027692 0.000000 0.000000 0.000000
# 2 -0.009438 0.013898 0.016508 0.000000 0.000000 0.000000
# 3 -0.027692 0.016508 0.236044 0.000000 0.000000 0.000000
# 4 0.000000 0.000000 0.000000 0.034934 0.000000 0.000000
# 5 0.000000 0.000000 0.000000 0.000000 0.059178 0.000000
# 6 0.000000 0.000000 0.000000 0.000000 0.000000 0.045157
#
#
# Mechanical properties :
#
#
# Convention : Reuss Voigt Hill
#
# Bulk Modulus (GPa) = 4.49684 59.18647 31.84165
# Shear Modulus (GPa) = 9.64761 26.55900 18.10331
#
# Velocity S-wave (km/s) = 2.30315 3.82137 3.15495
# Velocity P-wave (km/s) = 3.08953 7.21199 5.54788
#
# Compressibility (1/GPa) = 0.22237853
#
# Stress axis : x y z
#
# Youngs Moduli (GPa) = 73.09026 71.95407 4.23650
#
# Poissons Ratio (x) = 0.67908 0.11732
# Poissons Ratio (y) = 0.68980 -0.06994
# Poissons Ratio (z) = 2.02405 -1.18780
#
# Static dielectric constant tensor:
#      x y z
#    x 1.637180 0.000000 0.000000 
#    y 0.000000 1.560980 0.000000 
#    z 0.000000 0.000000 1.643210 
# 
# From -- ./inp_files/8606.got.cif
#   From: 2010.05.17/outbox.cif.g08.bks.cpg/sg63_5_cif.got.tgz:8606.got - 2010.06.03 15:47:04.
