data_PCOD9470086
_publ_section_title
;
Structure prediction by ZEFSAII (Michael W. Deem and Ramdas Pophale) SiO2 
 PCOD9470086
Probable space group: C M C M
;
_chemical_formula_sum "Si O2"
_cell_formula_units_Z 72
_cell_length_a 13.366196
_cell_length_b 32.140033
_cell_length_c 7.288143
_cell_angle_alpha 90.000000
_cell_angle_beta 90.000000
_cell_angle_gamma 90.000000
_cell_volume 3130.913209
_symmetry_space_group_name_H-M "C M C M"
_symmetry_group_IT_number 63
_symmetry_cell_setting 'orthorhombic'
loop_
_space_group_symop_operation_xyz
x,y,z
-x,-y,1/2+z
x,-y,-z
-x,y,1/2-z
-x,-y,-z
x,y,1/2-z
-x,y,z
x,-y,1/2+z
1/2+x,1/2+y,z
1/2-x,1/2-y,1/2+z
1/2+x,1/2-y,-z
1/2-x,1/2+y,1/2-z
1/2-x,1/2-y,-z
1/2+x,1/2+y,1/2-z
1/2-x,1/2+y,z
1/2+x,1/2-y,1/2+z
loop_
_atom_site_type_symbol
_atom_site_label
_atom_site_fract_x
_atom_site_fract_y
_atom_site_fract_z
Si Si1 0.119762 0.773439 0.470377
Si Si2 0.696028 0.093560 0.955728
Si Si3 0.384595 0.634329 0.525291
Si Si4 0.618671 0.816529 0.529667
Si Si5 0.500000 0.951027 0.030987
O O1 0.129742 0.773062 0.250000
O O2 0.150029 0.819281 0.536513
O O3 0.158524 0.728483 0.536903
O O4 0.000000 0.772708 0.506608
O O5 0.708903 0.076412 0.750000
O O6 0.806570 0.099294 0.037665
O O7 0.602957 0.069112 0.041780
O O8 0.661362 0.141606 0.946827
O O9 0.382468 0.634786 0.750000
O O10 0.500000 0.628180 0.472317
O O11 0.630730 0.818581 0.750000
O O12 0.500000 0.816923 0.493237
O O13 0.500000 0.941986 0.250000
O O14 0.500000 0.000000 0.000000
#
# Coordination Sequence:
#
# PCOD9470086 Si02
#       5
#    16  16  16  16   8
#     4   7  11  21  37  60  91 127 166 199 220 256
#     4  10  19  31  49  73  97 119 150 200 247 280
#     4   8  14  26  45  68  95 129 165 194 226 270
#     4   9  16  26  42  65  95 131 168 197 226 274
#     4  10  22  38  54  74  98 120 148 192 250 308
#
# _framework density 22.996486999999998
#
# number of rings (size 3 to 8) (size 9 to 14) (size 15 to 20)
#    0.000    3.333    1.111    2.667    0.000    1.778 
#    0.000    0.000    0.000    1.333    0.000    0.000 
#    0.000    0.000    0.000    0.000    0.000    0.000 
#
# Total GULP energy -200879.904804 kJ/mol
# GULP energy per Si atom -5579.997356 kJ/mol
# Density = 2.294415 g / cm^3
# Si number density = 22.996487 Si / 1000 Ang^3
#
#
#
# Elastic Constant Matrix: (Units=GPa)
#
#
# Indices 1 2 3 4 5 6 
#
# 1 149.2207 76.2786 4.8057 0.0000 0.0000 0.0000
# 2 76.2786 98.9717 -4.5332 0.0000 0.0000 0.0000
# 3 4.8057 -4.5332 93.8206 0.0000 0.0000 0.0000
# 4 0.0000 0.0000 0.0000 11.1715 0.0000 0.0000
# 5 0.0000 0.0000 0.0000 0.0000 -3.0329 0.0000
# 6 0.0000 0.0000 0.0000 0.0000 0.0000 27.2039
#
#
#
# Elastic Compliance Matrix: (Units=1/GPa)
#
#
# Indices 1 2 3 4 5 6 
#
# 1 0.011149 -0.008638 -0.000988 0.000000 0.000000 0.000000
# 2 -0.008638 0.016819 0.001255 0.000000 0.000000 0.000000
# 3 -0.000988 0.001255 0.010770 0.000000 0.000000 0.000000
# 4 0.000000 0.000000 0.000000 0.089514 0.000000 0.000000
# 5 0.000000 0.000000 0.000000 0.000000 -0.329721 0.000000
# 6 0.000000 0.000000 0.000000 0.000000 0.000000 0.036759
#
#
# Mechanical properties :
#
#
# Convention : Reuss Voigt Hill
#
# Bulk Modulus (GPa) = 45.46466 55.01278 50.23872
# Shear Modulus (GPa) = -35.55250 24.76596 -5.39327
#
# Velocity S-wave (km/s) = -3.93618 3.28524 -1.53308
# Velocity P-wave (km/s) = 0.91916 6.19392 4.33127
#
# Compressibility (1/GPa) = 0.02199511
#
# Stress axis : x y z
#
# Youngs Moduli (GPa) = 89.69612 59.45799 92.85126
#
# Poissons Ratio (x) = 0.51358 0.09178
# Poissons Ratio (y) = 0.77477 -0.11654
# Poissons Ratio (z) = 0.08866 -0.07463
#
# Static dielectric constant tensor:
#      x y z
#    x 1.971990 0.000000 0.000000 
#    y 0.000000 1.798530 0.000000 
#    z 0.000000 0.000000 1.844490 
# 
# From -- ./inp_files/4614.got.cif
#   From: 2010.05.17/outbox.cif.g08.bks.cpg/sg63_3_cif.got.tgz:4614.got - 2010.06.03 15:47:04.
