data_PCOD9470578
_publ_section_title
;
Structure prediction by ZEFSAII (Michael W. Deem and Ramdas Pophale) SiO2 
 PCOD9470578
Probable space group: C M C M
;
_chemical_formula_sum "Si O2"
_cell_formula_units_Z 96
_cell_length_a 13.983150
_cell_length_b 19.962913
_cell_length_c 15.840305
_cell_angle_alpha 90.000000
_cell_angle_beta 90.000000
_cell_angle_gamma 90.000000
_cell_volume 4421.732545
_symmetry_space_group_name_H-M "C M C M"
_symmetry_group_IT_number 63
_symmetry_cell_setting 'orthorhombic'
loop_
_space_group_symop_operation_xyz
x,y,z
-x,-y,1/2+z
x,-y,-z
-x,y,1/2-z
-x,-y,-z
x,y,1/2-z
-x,y,z
x,-y,1/2+z
1/2+x,1/2+y,z
1/2-x,1/2-y,1/2+z
1/2+x,1/2-y,-z
1/2-x,1/2+y,1/2-z
1/2-x,1/2-y,-z
1/2+x,1/2+y,1/2-z
1/2-x,1/2+y,z
1/2+x,1/2-y,1/2+z
loop_
_atom_site_type_symbol
_atom_site_label
_atom_site_fract_x
_atom_site_fract_y
_atom_site_fract_z
Si Si1 0.882927 0.813223 0.848686
Si Si2 0.888644 0.045506 0.076622
Si Si3 0.699941 0.570132 0.844737
Si Si4 0.885320 0.708369 0.992206
Si Si5 0.392243 0.060606 0.564986
Si Si6 0.384617 0.292538 0.348671
O O1 0.852823 0.807768 0.750000
O O2 0.850505 0.882908 0.893035
O O3 0.855149 0.752108 0.910554
O O4 0.000000 0.815277 0.846622
O O5 0.000000 0.056095 0.056137
O O6 0.872598 0.991600 0.149731
O O7 0.845514 0.000000 0.000000
O O8 0.709840 0.592317 0.750000
O O9 0.804665 0.548150 0.873198
O O10 0.656315 0.637189 0.885463
O O11 0.865399 0.630472 0.979689
O O12 0.000000 0.714497 0.992807
O O13 0.855071 0.737145 0.082766
O O14 0.500000 0.068199 0.601833
O O15 0.396036 0.000000 0.500000
O O16 0.359193 0.278048 0.250000
O O17 0.500000 0.298911 0.349258
#
# Coordination Sequence:
#
# PCOD9470578 Si02
#       6
#    16  16  16  16  16  16
#     4   9  17  29  49  81 118 152 185 224 277 344
#     4  10  19  32  54  85 122 160 192 223 270 342
#     4  11  22  35  55  84 117 153 189 228 281 343
#     4   9  18  35  59  83 109 145 186 233 293 348
#     4  10  23  43  62  78 101 141 198 257 302 340
#     4   9  18  34  58  90 124 152 181 221 278 357
#
# _framework density 21.710946
#
# number of rings (size 3 to 8) (size 9 to 14) (size 15 to 20)
#    0.000    2.333    0.000    2.500    0.000    6.000 
#    0.000    2.500    0.000    5.000    0.000    0.000 
#    0.000    0.000    0.000    0.000    0.000    0.000 
#
# Total GULP energy -267595.613348 kJ/mol
# GULP energy per Si atom -5574.908611 kJ/mol
# Density = 2.166153 g / cm^3
# Si number density = 21.710946 Si / 1000 Ang^3
#
#
#
# Elastic Constant Matrix: (Units=GPa)
#
#
# Indices 1 2 3 4 5 6 
#
# 1 41.6835 -5.0326 -0.9447 0.0000 0.0000 0.0000
# 2 -5.0326 148.9032 45.6864 0.0000 0.0000 0.0000
# 3 -0.9447 45.6864 105.2616 0.0000 0.0000 0.0000
# 4 0.0000 0.0000 0.0000 142.3696 0.0000 0.0000
# 5 0.0000 0.0000 0.0000 0.0000 -21.5252 0.0000
# 6 0.0000 0.0000 0.0000 0.0000 0.0000 -123.7694
#
#
#
# Elastic Compliance Matrix: (Units=1/GPa)
#
#
# Indices 1 2 3 4 5 6 
#
# 1 0.024091 0.000863 -0.000158 0.000000 0.000000 0.000000
# 2 0.000863 0.007778 -0.003368 0.000000 0.000000 0.000000
# 3 -0.000158 -0.003368 0.010961 0.000000 0.000000 0.000000
# 4 0.000000 0.000000 0.000000 0.007024 0.000000 0.000000
# 5 0.000000 0.000000 0.000000 0.000000 -0.046457 0.000000
# 6 0.000000 0.000000 0.000000 0.000000 0.000000 -0.008080
#
#
# Mechanical properties :
#
#
# Convention : Reuss Voigt Hill
#
# Bulk Modulus (GPa) = 26.66498 41.69627 34.18063
# Shear Modulus (GPa) = 380.35802 16.49096 198.42449
#
# Velocity S-wave (km/s) = 13.25036 2.75902 9.57038
# Velocity P-wave (km/s) = 15.69728 5.42185 11.74311
#
# Compressibility (1/GPa) = 0.03750237
#
# Stress axis : x y z
#
# Youngs Moduli (GPa) = 41.50951 128.56134 91.23550
#
# Poissons Ratio (x) = -0.11092 0.01444
# Poissons Ratio (y) = -0.03581 0.30731
# Poissons Ratio (z) = 0.00657 0.43303
#
# Static dielectric constant tensor:
#      x y z
#    x 1.816510 0.000000 0.000000 
#    y 0.000000 -2.328630 0.000000 
#    z 0.000000 0.000000 1.950530 
# 
# From -- ./inp_files/31924.got.cif
#   From: 2010.05.17/outbox.cif.g08.bks.cpg/sg63_16_cif.got.tgz:31924.got - 2010.06.03 15:47:04.
