data_PCOD9470921
_publ_section_title
;
Structure prediction by ZEFSAII (Michael W. Deem and Ramdas Pophale) SiO2 
 PCOD9470921
Probable space group: C M C M
;
_chemical_formula_sum "Si O2"
_cell_formula_units_Z 88
_cell_length_a 22.155839
_cell_length_b 22.352074
_cell_length_c 9.978033
_cell_angle_alpha 90.000000
_cell_angle_beta 90.000000
_cell_angle_gamma 90.000000
_cell_volume 4941.410834
_symmetry_space_group_name_H-M "C M C M"
_symmetry_group_IT_number 63
_symmetry_cell_setting 'orthorhombic'
loop_
_space_group_symop_operation_xyz
x,y,z
-x,-y,1/2+z
x,-y,-z
-x,y,1/2-z
-x,-y,-z
x,y,1/2-z
-x,y,z
x,-y,1/2+z
1/2+x,1/2+y,z
1/2-x,1/2-y,1/2+z
1/2+x,1/2-y,-z
1/2-x,1/2+y,1/2-z
1/2-x,1/2-y,-z
1/2+x,1/2+y,1/2-z
1/2-x,1/2+y,z
1/2+x,1/2-y,1/2+z
loop_
_atom_site_type_symbol
_atom_site_label
_atom_site_fract_x
_atom_site_fract_y
_atom_site_fract_z
Si Si1 0.748223 0.546578 0.250000
Si Si2 0.263424 0.094157 0.750000
Si Si3 0.431397 0.342111 0.091555
Si Si4 0.809036 0.118529 0.021621
Si Si5 0.153913 0.347637 0.750000
Si Si6 0.135154 0.681120 0.750000
Si Si7 0.226068 0.788441 0.750000
Si Si8 0.070675 0.701353 0.472135
O O1 0.763274 0.477477 0.250000
O O2 0.710155 0.563983 0.382310
O O3 0.805467 0.592442 0.250000
O O4 0.229130 0.116608 0.615601
O O5 0.331800 0.117641 0.750000
O O6 0.426523 0.353856 0.250000
O O7 0.500000 0.356004 0.048170
O O8 0.422098 0.270944 0.069431
O O9 0.379198 0.377306 0.015019
O O10 0.793580 0.175417 0.116369
O O11 0.201758 0.292429 0.750000
O O12 0.111689 0.339668 0.622265
O O13 0.192123 0.726349 0.750000
O O14 0.094775 0.693050 0.621124
O O15 0.000000 0.687082 0.458838
#
# Coordination Sequence:
#
# PCOD9470921 Si02
#       8
#     8   8  16  16   8   8   8  16
#     4  10  24  43  56  84 111 148 202 241 286 337
#     4  12  24  37  63  80 110 158 190 241 292 328
#     4  10  19  33  56  88 121 152 188 223 274 351
#     4  10  20  38  58  83 115 150 185 239 284 343
#     4  10  21  38  60  79 114 154 193 237 272 343
#     4  12  23  34  56  87 123 151 179 242 285 346
#     4  10  22  34  53  92 124 139 186 227 301 346
#     4  11  22  36  56  86 122 154 184 224 282 348
#
# _framework density 17.808678
#
# number of rings (size 3 to 8) (size 9 to 14) (size 15 to 20)
#    0.000    1.636    3.636    3.273    2.545    1.455 
#    0.000    1.818    0.000    6.545    0.000    0.000 
#    0.000    0.000    0.000    0.000    0.000    0.000 
#
# Total GULP energy -245653.813946 kJ/mol
# GULP energy per Si atom -5583.041226 kJ/mol
# Density = 1.776814 g / cm^3
# Si number density = 17.808678 Si / 1000 Ang^3
#
#
#
# Elastic Constant Matrix: (Units=GPa)
#
#
# Indices 1 2 3 4 5 6 
#
# 1 133.9372 37.2784 46.2876 0.0000 0.0000 0.0000
# 2 37.2784 62.7124 17.9741 0.0000 0.0000 0.0000
# 3 46.2876 17.9741 122.9000 0.0000 0.0000 0.0000
# 4 0.0000 0.0000 0.0000 -1.2207 0.0000 0.0000
# 5 0.0000 0.0000 0.0000 0.0000 22.0839 0.0000
# 6 0.0000 0.0000 0.0000 0.0000 0.0000 12.5837
#
#
#
# Elastic Compliance Matrix: (Units=1/GPa)
#
#
# Indices 1 2 3 4 5 6 
#
# 1 0.009900 -0.005027 -0.002993 0.000000 0.000000 0.000000
# 2 -0.005027 0.019196 -0.000914 0.000000 0.000000 0.000000
# 3 -0.002993 -0.000914 0.009398 0.000000 0.000000 0.000000
# 4 0.000000 0.000000 0.000000 -0.819193 0.000000 0.000000
# 5 0.000000 0.000000 0.000000 0.000000 0.045282 0.000000
# 6 0.000000 0.000000 0.000000 0.000000 0.000000 0.079468
#
#
# Mechanical properties :
#
#
# Convention : Reuss Voigt Hill
#
# Bulk Modulus (GPa) = 48.48536 58.06999 53.27768
# Shear Modulus (GPa) = -7.92135 21.22334 6.65100
#
# Velocity S-wave (km/s) = -2.11132 3.45591 1.93463
# Velocity P-wave (km/s) = 4.61966 6.97158 5.91372
#
# Compressibility (1/GPa) = 0.02062478
#
# Stress axis : x y z
#
# Youngs Moduli (GPa) = 101.01236 52.09433 106.40821
#
# Poissons Ratio (x) = 0.26187 0.31852
# Poissons Ratio (y) = 0.50777 0.09727
# Poissons Ratio (z) = 0.30237 0.04762
#
# Static dielectric constant tensor:
#      x y z
#    x 1.600810 0.000000 0.000000 
#    y 0.000000 1.596750 0.000000 
#    z 0.000000 0.000000 1.556080 
# 
# From -- ./inp_files/8341.got.cif
#   From: 2010.05.17/outbox.cif.g08.bks.cpg/sg63_5_cif.got.tgz:8341.got - 2010.06.03 15:47:04.
