data_PCOD9470401
_publ_section_title
;
Structure prediction by ZEFSAII (Michael W. Deem and Ramdas Pophale) SiO2 
 PCOD9470401
Probable space group: C M C M
;
_chemical_formula_sum "Si O2"
_cell_formula_units_Z 128
_cell_length_a 22.562868
_cell_length_b 26.116084
_cell_length_c 11.283445
_cell_angle_alpha 90.000000
_cell_angle_beta 90.000000
_cell_angle_gamma 90.000000
_cell_volume 6648.812347
_symmetry_space_group_name_H-M "C M C M"
_symmetry_group_IT_number 63
_symmetry_cell_setting 'orthorhombic'
loop_
_space_group_symop_operation_xyz
x,y,z
-x,-y,1/2+z
x,-y,-z
-x,y,1/2-z
-x,-y,-z
x,y,1/2-z
-x,y,z
x,-y,1/2+z
1/2+x,1/2+y,z
1/2-x,1/2-y,1/2+z
1/2+x,1/2-y,-z
1/2-x,1/2+y,1/2-z
1/2-x,1/2-y,-z
1/2+x,1/2+y,1/2-z
1/2-x,1/2+y,z
1/2+x,1/2-y,1/2+z
loop_
_atom_site_type_symbol
_atom_site_label
_atom_site_fract_x
_atom_site_fract_y
_atom_site_fract_z
Si Si1 0.293610 0.656064 0.118988
Si Si2 0.068021 0.755672 0.042797
Si Si3 0.370878 0.643061 0.618554
Si Si4 0.174772 0.731616 0.616965
Si Si5 0.432781 0.861182 0.613587
Si Si6 0.755742 0.469700 0.118838
Si Si7 0.611530 0.530772 0.617755
Si Si8 0.188111 0.623780 0.502794
O O1 0.320744 0.645821 0.250000
O O2 0.284988 0.717680 0.114607
O O3 0.233742 0.623494 0.106955
O O4 0.330584 0.643340 0.000086
O O5 0.091271 0.805053 0.112516
O O6 0.073143 0.700956 0.108483
O O7 0.000000 0.762849 0.010124
O O8 0.111595 0.750164 0.931772
O O9 0.340761 0.642364 0.750000
O O10 0.407317 0.590226 0.611589
O O11 0.168859 0.714167 0.750000
O O12 0.194111 0.682178 0.545983
O O13 0.426788 0.877103 0.750000
O O14 0.500000 0.872949 0.572948
O O15 0.379587 0.883855 0.535943
O O16 0.771107 0.490176 0.250000
O O17 0.683925 0.466565 0.115199
O O18 0.773752 0.500000 0.000000
O O19 0.787092 0.415132 0.099495
O O20 0.592868 0.500000 0.500000
O O21 0.595318 0.510515 0.750000
#
# Coordination Sequence:
#
# PCOD9470401 Si02
#       8
#    16  16  16  16  16  16  16  16
#     4  10  20  32  47  75 110 141 174 208 254 314
#     4   9  18  32  51  75 103 138 181 223 258 300
#     4  10  19  32  51  76 105 137 175 218 265 311
#     4   9  19  32  47  72 107 144 175 209 258 314
#     4   9  18  32  49  73 105 138 174 213 253 301
#     4  10  21  36  54  78 106 136 173 216 262 314
#     4   9  18  33  50  72  99 134 172 212 261 314
#     4  11  19  32  53  76 102 137 175 215 259 309
#
# _framework density 19.251557999999999
#
# number of rings (size 3 to 8) (size 9 to 14) (size 15 to 20)
#    0.000    2.375    1.250    1.500    0.000    3.000 
#    0.000    3.125    0.000    1.875    0.000    0.000 
#    0.000    0.000    0.000    0.000    0.000    0.000 
#
# Total GULP energy -356285.431732 kJ/mol
# GULP energy per Si atom -5566.959871 kJ/mol
# Density = 1.920774 g / cm^3
# Si number density = 19.251558 Si / 1000 Ang^3
#
#
#
# Elastic Constant Matrix: (Units=GPa)
#
#
# Indices 1 2 3 4 5 6 
#
# 1 31.2004 -2.2711 11.9848 0.0000 0.0000 0.0000
# 2 -2.2711 30.6681 19.4980 0.0000 0.0000 0.0000
# 3 11.9848 19.4980 114.6882 0.0000 0.0000 0.0000
# 4 0.0000 0.0000 0.0000 22.1673 0.0000 0.0000
# 5 0.0000 0.0000 0.0000 0.0000 4.9616 0.0000
# 6 0.0000 0.0000 0.0000 0.0000 0.0000 9.0435
#
#
#
# Elastic Compliance Matrix: (Units=1/GPa)
#
#
# Indices 1 2 3 4 5 6 
#
# 1 0.034165 0.005382 -0.004485 0.000000 0.000000 0.000000
# 2 0.005382 0.037406 -0.006922 0.000000 0.000000 0.000000
# 3 -0.004485 -0.006922 0.010365 0.000000 0.000000 0.000000
# 4 0.000000 0.000000 0.000000 0.045111 0.000000 0.000000
# 5 0.000000 0.000000 0.000000 0.000000 0.201549 0.000000
# 6 0.000000 0.000000 0.000000 0.000000 0.000000 0.110577
#
#
# Mechanical properties :
#
#
# Convention : Reuss Voigt Hill
#
# Bulk Modulus (GPa) = 14.30905 26.10891 20.20898
# Shear Modulus (GPa) = 10.53696 17.05749 13.79722
#
# Velocity S-wave (km/s) = 2.34205 2.97986 2.67999
# Velocity P-wave (km/s) = 3.84219 5.04290 4.48292
#
# Compressibility (1/GPa) = 0.06988586
#
# Stress axis : x y z
#
# Youngs Moduli (GPa) = 29.26936 26.73344 96.48091
#
# Poissons Ratio (x) = -0.14387 0.43273
# Poissons Ratio (y) = -0.15752 0.66782
# Poissons Ratio (z) = 0.13128 0.18504
#
# Static dielectric constant tensor:
#      x y z
#    x 1.675040 0.000000 0.000000 
#    y 0.000000 1.698430 0.000000 
#    z 0.000000 0.000000 1.709910 
# 
# From -- ./inp_files/24226.got.cif
#   From: 2010.05.17/outbox.cif.g08.bks.cpg/sg63_13_cif.got.tgz:24226.got - 2010.06.03 15:47:04.
