data_PCOD9470592
_publ_section_title
;
Structure prediction by ZEFSAII (Michael W. Deem and Ramdas Pophale) SiO2 
 PCOD9470592
Probable space group: C M C M
;
_chemical_formula_sum "Si O2"
_cell_formula_units_Z 80
_cell_length_a 15.526862
_cell_length_b 29.599141
_cell_length_c 9.284093
_cell_angle_alpha 90.000000
_cell_angle_beta 90.000000
_cell_angle_gamma 90.000000
_cell_volume 4266.799965
_symmetry_space_group_name_H-M "C M C M"
_symmetry_group_IT_number 63
_symmetry_cell_setting 'orthorhombic'
loop_
_space_group_symop_operation_xyz
x,y,z
-x,-y,1/2+z
x,-y,-z
-x,y,1/2-z
-x,-y,-z
x,y,1/2-z
-x,y,z
x,-y,1/2+z
1/2+x,1/2+y,z
1/2-x,1/2-y,1/2+z
1/2+x,1/2-y,-z
1/2-x,1/2+y,1/2-z
1/2-x,1/2-y,-z
1/2+x,1/2+y,1/2-z
1/2-x,1/2+y,z
1/2+x,1/2-y,1/2+z
loop_
_atom_site_type_symbol
_atom_site_label
_atom_site_fract_x
_atom_site_fract_y
_atom_site_fract_z
Si Si1 0.900737 0.104094 0.578917
Si Si2 0.354856 0.795231 0.416746
Si Si3 0.596137 0.114033 0.421312
Si Si4 0.646252 0.294304 0.416934
Si Si5 0.253784 0.451846 0.923154
O O1 0.879140 0.100346 0.750000
O O2 0.890005 0.156978 0.539937
O O3 0.836476 0.074366 0.485223
O O4 0.000000 0.090702 0.560244
O O5 0.379238 0.796381 0.250000
O O6 0.390075 0.838779 0.498309
O O7 0.382237 0.748186 0.489024
O O8 0.250355 0.797269 0.425992
O O9 0.602920 0.122277 0.250000
O O10 0.500000 0.096655 0.452061
O O11 0.670438 0.078656 0.459745
O O12 0.623129 0.286298 0.250000
O O13 0.258827 0.456593 0.750000
O O14 0.247607 0.500000 0.000000
#
# Coordination Sequence:
#
# PCOD9470592 Si02
#       5
#    16  16  16  16  16
#     4  10  21  39  63  89 118 154 196 240 288 343
#     4  10  19  32  55  86 120 157 198 240 283 336
#     4  10  22  40  61  86 117 154 195 238 290 350
#     4   9  18  33  54  83 121 160 196 234 282 340
#     4  11  24  42  65  88 115 149 189 240 297 351
#
# _framework density 18.749414000000002
#
# number of rings (size 3 to 8) (size 9 to 14) (size 15 to 20)
#    0.000    2.000    2.000    1.200    0.000    4.800 
#    0.000    2.000    0.000    0.000    0.000    0.000 
#    0.000    0.000    0.000    0.000    0.000    0.000 
#
# Total GULP energy -223457.428810 kJ/mol
# GULP energy per Si atom -5586.435720 kJ/mol
# Density = 1.870674 g / cm^3
# Si number density = 18.749414 Si / 1000 Ang^3
#
#
#
# Elastic Constant Matrix: (Units=GPa)
#
#
# Indices 1 2 3 4 5 6 
#
# 1 95.3351 69.0337 58.2822 0.0000 0.0000 0.0000
# 2 69.0337 143.7966 73.1887 0.0000 0.0000 0.0000
# 3 58.2822 73.1887 63.0529 0.0000 0.0000 0.0000
# 4 0.0000 0.0000 0.0000 16.7788 0.0000 0.0000
# 5 0.0000 0.0000 0.0000 0.0000 20.6811 0.0000
# 6 0.0000 0.0000 0.0000 0.0000 0.0000 -8.4714
#
#
#
# Elastic Compliance Matrix: (Units=1/GPa)
#
#
# Indices 1 2 3 4 5 6 
#
# 1 0.024137 -0.000567 -0.021652 0.000000 0.000000 0.000000
# 2 -0.000567 0.017008 -0.019218 0.000000 0.000000 0.000000
# 3 -0.021652 -0.019218 0.058181 0.000000 0.000000 0.000000
# 4 0.000000 0.000000 0.000000 0.059599 0.000000 0.000000
# 5 0.000000 0.000000 0.000000 0.000000 0.048353 0.000000
# 6 0.000000 0.000000 0.000000 0.000000 0.000000 -0.118044
#
#
# Mechanical properties :
#
#
# Convention : Reuss Voigt Hill
#
# Bulk Modulus (GPa) = 60.78600 78.13262 69.45931
# Shear Modulus (GPa) = 28.15443 12.57635 20.36539
#
# Velocity S-wave (km/s) = 3.87927 2.59271 3.29931
# Velocity P-wave (km/s) = 7.24952 7.12217 7.18613
#
# Compressibility (1/GPa) = 0.01645116
#
# Stress axis : x y z
#
# Youngs Moduli (GPa) = 41.43016 58.79670 17.18787
#
# Poissons Ratio (x) = 0.03335 0.37216
# Poissons Ratio (y) = 0.02350 0.33031
# Poissons Ratio (z) = 0.89706 1.12993
#
# Static dielectric constant tensor:
#      x y z
#    x 1.672620 0.000000 0.000000 
#    y 0.000000 1.606520 0.000000 
#    z 0.000000 0.000000 1.625960 
# 
# From -- ./inp_files/6665.got.cif
#   From: 2010.05.17/outbox.cif.g08.bks.cpg/sg63_4_cif.got.tgz:6665.got - 2010.06.03 15:47:04.
