data_PCOD9470395
_publ_section_title
;
Structure prediction by ZEFSAII (Michael W. Deem and Ramdas Pophale) SiO2 
 PCOD9470395
Probable space group: C M C M
;
_chemical_formula_sum "Si O2"
_cell_formula_units_Z 128
_cell_length_a 23.982423
_cell_length_b 12.279131
_cell_length_c 25.647891
_cell_angle_alpha 90.000000
_cell_angle_beta 90.000000
_cell_angle_gamma 90.000000
_cell_volume 7552.875931
_symmetry_space_group_name_H-M "C M C M"
_symmetry_group_IT_number 63
_symmetry_cell_setting 'orthorhombic'
loop_
_space_group_symop_operation_xyz
x,y,z
-x,-y,1/2+z
x,-y,-z
-x,y,1/2-z
-x,-y,-z
x,y,1/2-z
-x,y,z
x,-y,1/2+z
1/2+x,1/2+y,z
1/2-x,1/2-y,1/2+z
1/2+x,1/2-y,-z
1/2-x,1/2+y,1/2-z
1/2-x,1/2-y,-z
1/2+x,1/2+y,1/2-z
1/2-x,1/2+y,z
1/2+x,1/2-y,1/2+z
loop_
_atom_site_type_symbol
_atom_site_label
_atom_site_fract_x
_atom_site_fract_y
_atom_site_fract_z
Si Si1 0.772900 0.415778 0.863533
Si Si2 0.937357 0.118391 0.383831
Si Si3 0.765103 0.873914 0.979150
Si Si4 0.346010 0.264889 0.310837
Si Si5 0.270728 0.885752 0.192596
Si Si6 0.601863 0.373952 0.505659
Si Si7 0.336335 0.660508 0.308688
Si Si8 0.434887 0.644613 0.608116
O O1 0.760081 0.376556 0.921217
O O2 0.819123 0.343894 0.834978
O O3 0.788246 0.540866 0.855832
O O4 0.714040 0.408480 0.833004
O O5 0.927688 0.166227 0.441824
O O6 0.890079 0.157599 0.344719
O O7 0.000000 0.142236 0.366202
O O8 0.930842 0.986934 0.387468
O O9 0.832244 0.873202 0.983081
O O10 0.750000 0.750000 0.000000
O O11 0.750149 0.000000 0.000000
O O12 0.361292 0.252386 0.250000
O O13 0.293051 0.346645 0.312931
O O14 0.396001 0.305501 0.347120
O O15 0.276878 0.939778 0.250000
O O16 0.309311 0.779891 0.193166
O O17 0.583824 0.500000 0.500000
O O18 0.586853 0.322914 0.449779
O O19 0.349128 0.623751 0.250000
O O20 0.500000 0.673685 0.613367
#
# Coordination Sequence:
#
# PCOD9470395 Si02
#       8
#    16  16  16  16  16  16  16  16
#     4  11  20  34  57  76 109 144 183 223 279 345
#     4  10  19  32  51  75 103 143 184 227 283 344
#     4  11  24  35  55  86 118 151 185 235 285 339
#     4  10  21  34  52  79 111 143 183 230 280 333
#     4   9  19  33  52  76 103 140 181 223 273 333
#     4   9  18  33  50  74 107 143 184 229 281 339
#     4  10  20  33  50  77 108 139 179 230 282 333
#     4  10  20  33  52  74 105 143 184 232 281 338
#
# _framework density 16.947185999999999
#
# number of rings (size 3 to 8) (size 9 to 14) (size 15 to 20)
#    0.000    2.000    1.250    3.750    7.000    3.500 
#    0.000    1.250    0.000    0.750    0.000    1.750 
#    0.000    5.500    0.000    0.000    0.000    0.000 
#
# Total GULP energy -356305.200793 kJ/mol
# GULP energy per Si atom -5567.268762 kJ/mol
# Density = 1.690861 g / cm^3
# Si number density = 16.947186 Si / 1000 Ang^3
#
#
#
# Elastic Constant Matrix: (Units=GPa)
#
#
# Indices 1 2 3 4 5 6 
#
# 1 89.0861 8.6303 43.5491 0.0000 0.0000 0.0000
# 2 8.6303 45.1970 11.8671 0.0000 0.0000 0.0000
# 3 43.5491 11.8671 94.8044 0.0000 0.0000 0.0000
# 4 0.0000 0.0000 0.0000 22.8979 0.0000 0.0000
# 5 0.0000 0.0000 0.0000 0.0000 -13.2244 0.0000
# 6 0.0000 0.0000 0.0000 0.0000 0.0000 -0.7285
#
#
#
# Elastic Compliance Matrix: (Units=1/GPa)
#
#
# Indices 1 2 3 4 5 6 
#
# 1 0.014524 -0.001056 -0.006540 0.000000 0.000000 0.000000
# 2 -0.001056 0.022954 -0.002388 0.000000 0.000000 0.000000
# 3 -0.006540 -0.002388 0.013851 0.000000 0.000000 0.000000
# 4 0.000000 0.000000 0.000000 0.043672 0.000000 0.000000
# 5 0.000000 0.000000 0.000000 0.000000 -0.075618 0.000000
# 6 0.000000 0.000000 0.000000 0.000000 0.000000 -1.372608
#
#
# Mechanical properties :
#
#
# Convention : Reuss Voigt Hill
#
# Bulk Modulus (GPa) = 31.88634 39.68671 35.78653
# Shear Modulus (GPa) = -3.77985 12.79173 4.50594
#
# Velocity S-wave (km/s) = -1.49506 2.75034 1.63236
# Velocity P-wave (km/s) = 3.98443 5.79263 4.97143
#
# Compressibility (1/GPa) = 0.03136139
#
# Stress axis : x y z
#
# Youngs Moduli (GPa) = 68.85028 43.56526 72.19711
#
# Poissons Ratio (x) = 0.04602 0.47214
# Poissons Ratio (y) = 0.07273 0.17241
# Poissons Ratio (z) = 0.45025 0.10404
#
# Static dielectric constant tensor:
#      x y z
#    x 1.542170 0.000000 0.000000 
#    y 0.000000 1.652250 0.000000 
#    z 0.000000 0.000000 1.613400 
# 
# From -- ./inp_files/65194.got.cif
#   From: 2010.05.17/outbox.cif.g08.bks.cpg/sg63_33_cif.got.tgz:65194.got - 2010.06.03 15:47:04.
