data_PCOD9470983
_publ_section_title
;
Structure prediction by ZEFSAII (Michael W. Deem and Ramdas Pophale) SiO2 
 PCOD9470983
Probable space group: C M C M
;
_chemical_formula_sum "Si O2"
_cell_formula_units_Z 100
_cell_length_a 20.449297
_cell_length_b 29.911477
_cell_length_c 9.285329
_cell_angle_alpha 90.000000
_cell_angle_beta 90.000000
_cell_angle_gamma 90.000000
_cell_volume 5679.544904
_symmetry_space_group_name_H-M "C M C M"
_symmetry_group_IT_number 63
_symmetry_cell_setting 'orthorhombic'
loop_
_space_group_symop_operation_xyz
x,y,z
-x,-y,1/2+z
x,-y,-z
-x,y,1/2-z
-x,-y,-z
x,y,1/2-z
-x,y,z
x,-y,1/2+z
1/2+x,1/2+y,z
1/2-x,1/2-y,1/2+z
1/2+x,1/2-y,-z
1/2-x,1/2+y,1/2-z
1/2-x,1/2-y,-z
1/2+x,1/2+y,1/2-z
1/2-x,1/2+y,z
1/2+x,1/2-y,1/2+z
loop_
_atom_site_type_symbol
_atom_site_label
_atom_site_fract_x
_atom_site_fract_y
_atom_site_fract_z
Si Si1 0.625863 0.358830 0.404513
Si Si2 0.733374 0.046014 0.415898
Si Si3 0.612952 0.551229 0.029612
Si Si4 0.000000 0.073624 0.250000
Si Si5 0.576607 0.281508 0.918731
Si Si6 0.218192 0.362939 0.419138
Si Si7 0.687531 0.226298 0.076032
O O1 0.604979 0.340043 0.250000
O O2 0.615386 0.411922 0.405250
O O3 0.590080 0.332293 0.530623
O O4 0.703766 0.352774 0.421491
O O5 0.710539 0.045580 0.250000
O O6 0.812709 0.049988 0.412331
O O7 0.709037 0.088885 0.506006
O O8 0.718309 0.000000 0.500000
O O9 0.557429 0.570249 0.129446
O O10 0.595796 0.500000 0.000000
O O11 0.593773 0.276330 0.750000
O O12 0.500000 0.271351 0.935874
O O13 0.623633 0.251948 0.018243
O O14 0.198727 0.362699 0.250000
O O15 0.185897 0.323973 0.513436
O O16 0.693310 0.227630 0.250000
O O17 0.750000 0.250000 0.000000
#
# Coordination Sequence:
#
# PCOD9470983 Si02
#       7
#    16  16  16   4  16  16  16
#     4  10  22  37  55  74 101 136 178 230 284 338
#     4  10  19  34  53  74 103 138 174 222 279 334
#     4  10  23  35  49  63  91 128 177 228 281 333
#     4  12  22  36  46  64  88 130 178 240 274 338
#     4  11  25  41  59  81 111 148 186 230 282 337
#     4  10  20  35  57  84 108 140 182 228 278 333
#     4  12  23  38  61  86 114 145 185 235 282 336
#
# _framework density 17.607043999999998
#
# number of rings (size 3 to 8) (size 9 to 14) (size 15 to 20)
#    0.000    1.440    2.400    3.120    3.360    3.840 
#    0.000    0.000    0.000    0.000    0.000    0.000 
#    0.000    0.640    0.000    2.400    0.000    3.680 
#
# Total GULP energy -278341.339460 kJ/mol
# GULP energy per Si atom -5566.826789 kJ/mol
# Density = 1.756697 g / cm^3
# Si number density = 17.607044 Si / 1000 Ang^3
#
#
#
# Elastic Constant Matrix: (Units=GPa)
#
#
# Indices 1 2 3 4 5 6 
#
# 1 39.3022 32.2994 36.7219 0.0000 0.0000 0.0000
# 2 32.2994 139.4226 70.0585 0.0000 0.0000 0.0000
# 3 36.7219 70.0585 167.1351 0.0000 0.0000 0.0000
# 4 0.0000 0.0000 0.0000 955.6425 0.0000 0.0000
# 5 0.0000 0.0000 0.0000 0.0000 20.0356 0.0000
# 6 0.0000 0.0000 0.0000 0.0000 0.0000 0.9157
#
#
#
# Elastic Compliance Matrix: (Units=1/GPa)
#
#
# Indices 1 2 3 4 5 6 
#
# 1 0.034920 -0.005364 -0.005424 0.000000 0.000000 0.000000
# 2 -0.005364 0.009910 -0.002976 0.000000 0.000000 0.000000
# 3 -0.005424 -0.002976 0.008422 0.000000 0.000000 0.000000
# 4 0.000000 0.000000 0.000000 0.001046 0.000000 0.000000
# 5 0.000000 0.000000 0.000000 0.000000 0.049911 0.000000
# 6 0.000000 0.000000 0.000000 0.000000 0.000000 1.092001
#
#
# Mechanical properties :
#
#
# Convention : Reuss Voigt Hill
#
# Bulk Modulus (GPa) = 38.87237 69.33551 54.10394
# Shear Modulus (GPa) = 4.05741 209.10410 106.58075
#
# Velocity S-wave (km/s) = 1.51968 10.90960 7.78874
# Velocity P-wave (km/s) = 5.02045 14.07684 10.56793
#
# Compressibility (1/GPa) = 0.02572521
#
# Stress axis : x y z
#
# Youngs Moduli (GPa) = 28.63668 100.90466 118.73458
#
# Poissons Ratio (x) = 0.54129 0.64400
# Poissons Ratio (y) = 0.15362 0.35330
# Poissons Ratio (z) = 0.15532 0.30024
#
# Static dielectric constant tensor:
#      x y z
#    x 1.564720 0.000000 0.000000 
#    y 0.000000 1.654250 0.000000 
#    z 0.000000 0.000000 1.668410 
# 
# From -- ./inp_files/9095.got.cif
#   From: 2010.05.17/outbox.cif.g08.bks.cpg/sg63_5_cif.got.tgz:9095.got - 2010.06.03 15:47:04.
