data_PCOD9470368
_publ_section_title
;
Structure prediction by ZEFSAII (Michael W. Deem and Ramdas Pophale) SiO2 
 PCOD9470368
Probable space group: C M C M
;
_chemical_formula_sum "Si O2"
_cell_formula_units_Z 96
_cell_length_a 19.784006
_cell_length_b 29.349786
_cell_length_c 7.845074
_cell_angle_alpha 90.000000
_cell_angle_beta 90.000000
_cell_angle_gamma 90.000000
_cell_volume 4555.291974
_symmetry_space_group_name_H-M "C M C M"
_symmetry_group_IT_number 63
_symmetry_cell_setting 'orthorhombic'
loop_
_space_group_symop_operation_xyz
x,y,z
-x,-y,1/2+z
x,-y,-z
-x,y,1/2-z
-x,-y,-z
x,y,1/2-z
-x,y,z
x,-y,1/2+z
1/2+x,1/2+y,z
1/2-x,1/2-y,1/2+z
1/2+x,1/2-y,-z
1/2-x,1/2+y,1/2-z
1/2-x,1/2-y,-z
1/2+x,1/2+y,1/2-z
1/2-x,1/2+y,z
1/2+x,1/2-y,1/2+z
loop_
_atom_site_type_symbol
_atom_site_label
_atom_site_fract_x
_atom_site_fract_y
_atom_site_fract_z
Si Si1 0.813969 0.201966 0.457863
Si Si2 0.382308 0.549402 0.953100
Si Si3 0.930318 0.858372 0.552188
Si Si4 0.820582 0.651956 0.046725
Si Si5 0.077315 0.277588 0.452398
Si Si6 0.772990 0.550910 0.547205
O O1 0.807919 0.206083 0.250000
O O2 0.860557 0.160011 0.515692
O O3 0.739800 0.186151 0.519327
O O4 0.863162 0.243280 0.517141
O O5 0.383020 0.555861 0.750000
O O6 0.304639 0.552561 0.018098
O O7 0.407862 0.500000 0.000000
O O8 0.425928 0.588143 0.037817
O O9 0.931112 0.844529 0.750000
O O10 0.000000 0.841111 0.472974
O O11 0.819621 0.655592 0.250000
O O12 0.891092 0.672552 0.982114
O O13 0.807684 0.598631 0.005944
O O14 0.073391 0.269228 0.250000
O O15 0.000000 0.272479 0.518497
O O16 0.800136 0.500000 0.500000
O O17 0.770571 0.551518 0.750000
#
# Coordination Sequence:
#
# PCOD9470368 Si02
#       6
#    16  16  16  16  16  16
#     4   9  18  34  56  82 110 147 193 235 278 330
#     4  10  20  33  50  71 100 138 181 231 281 334
#     4  10  19  32  51  73 102 142 187 233 280 332
#     4  11  21  35  59  88 118 150 188 238 286 337
#     4  10  21  38  59  83 115 154 194 236 283 339
#     4  10  20  35  57  85 115 148 187 233 285 340
#
# _framework density 21.074389
#
# number of rings (size 3 to 8) (size 9 to 14) (size 15 to 20)
#    0.000    2.000    1.667    2.500    0.000    4.333 
#    0.000    1.667    0.000    2.500    0.000    0.000 
#    0.000    0.000    0.000    0.000    0.000    0.000 
#
# Total GULP energy -267414.079471 kJ/mol
# GULP energy per Si atom -5571.126656 kJ/mol
# Density = 2.102642 g / cm^3
# Si number density = 21.074389 Si / 1000 Ang^3
#
#
#
# Elastic Constant Matrix: (Units=GPa)
#
#
# Indices 1 2 3 4 5 6 
#
# 1 96.3060 76.2106 4.5307 0.0000 0.0000 0.0000
# 2 76.2106 125.2105 0.4364 0.0000 0.0000 0.0000
# 3 4.5307 0.4364 37.4357 0.0000 0.0000 0.0000
# 4 0.0000 0.0000 0.0000 9.1204 0.0000 0.0000
# 5 0.0000 0.0000 0.0000 0.0000 -49.9985 0.0000
# 6 0.0000 0.0000 0.0000 0.0000 0.0000 -22.4666
#
#
#
# Elastic Compliance Matrix: (Units=1/GPa)
#
#
# Indices 1 2 3 4 5 6 
#
# 1 0.020229 -0.012305 -0.002305 0.000000 0.000000 0.000000
# 2 -0.012305 0.015471 0.001309 0.000000 0.000000 0.000000
# 3 -0.002305 0.001309 0.026976 0.000000 0.000000 0.000000
# 4 0.000000 0.000000 0.000000 0.109645 0.000000 0.000000
# 5 0.000000 0.000000 0.000000 0.000000 -0.020001 0.000000
# 6 0.000000 0.000000 0.000000 0.000000 0.000000 -0.044510
#
#
# Mechanical properties :
#
#
# Convention : Reuss Voigt Hill
#
# Bulk Modulus (GPa) = 27.71973 46.81195 37.26584
# Shear Modulus (GPa) = 34.14447 -0.81732 16.66357
#
# Velocity S-wave (km/s) = 4.02952 -0.62343 2.81499
# Velocity P-wave (km/s) = 5.90180 4.66291 5.31855
#
# Compressibility (1/GPa) = 0.03607538
#
# Stress axis : x y z
#
# Youngs Moduli (GPa) = 49.43380 64.63581 37.06978
#
# Poissons Ratio (x) = 0.79532 0.08544
# Poissons Ratio (y) = 0.60826 -0.04852
# Poissons Ratio (z) = 0.11393 -0.08460
#
# Static dielectric constant tensor:
#      x y z
#    x 1.789180 0.000000 0.000000 
#    y 0.000000 4.441770 0.000000 
#    z 0.000000 0.000000 1.766220 
# 
# From -- ./inp_files/8592.got.cif
#   From: 2010.05.17/outbox.cif.g08.bks.cpg/sg63_5_cif.got.tgz:8592.got - 2010.06.03 15:47:04.
