data_PCOD9470065
_publ_section_title
;
Structure prediction by ZEFSAII (Michael W. Deem and Ramdas Pophale) SiO2 
 PCOD9470065
Probable space group: C M C M
;
_chemical_formula_sum "Si O2"
_cell_formula_units_Z 80
_cell_length_a 7.471291
_cell_length_b 14.922984
_cell_length_c 34.628042
_cell_angle_alpha 90.000000
_cell_angle_beta 90.000000
_cell_angle_gamma 90.000000
_cell_volume 3860.817393
_symmetry_space_group_name_H-M "C M C M"
_symmetry_group_IT_number 63
_symmetry_cell_setting 'orthorhombic'
loop_
_space_group_symop_operation_xyz
x,y,z
-x,-y,1/2+z
x,-y,-z
-x,y,1/2-z
-x,-y,-z
x,y,1/2-z
-x,y,z
x,-y,1/2+z
1/2+x,1/2+y,z
1/2-x,1/2-y,1/2+z
1/2+x,1/2-y,-z
1/2-x,1/2+y,1/2-z
1/2-x,1/2-y,-z
1/2+x,1/2+y,1/2-z
1/2-x,1/2+y,z
1/2+x,1/2-y,1/2+z
loop_
_atom_site_type_symbol
_atom_site_label
_atom_site_fract_x
_atom_site_fract_y
_atom_site_fract_z
Si Si1 0.281422 0.414107 0.206936
Si Si2 0.216149 0.121220 0.206932
Si Si3 0.207974 0.228228 0.646417
Si Si4 0.782763 0.746594 0.059958
Si Si5 0.789458 0.899256 0.498495
O O1 0.224355 0.384965 0.250000
O O2 0.500000 0.410808 0.206960
O O3 0.230903 0.517700 0.201794
O O4 0.214121 0.350876 0.172883
O O5 0.275090 0.150237 0.250000
O O6 0.282783 0.184219 0.173104
O O7 0.000000 0.124260 0.206478
O O8 0.282390 0.244757 0.603818
O O9 0.000000 0.204767 0.640231
O O10 0.728913 0.655171 0.038438
O O11 0.000000 0.746764 0.059518
O O12 0.718012 0.830665 0.034040
O O13 0.000000 0.908562 0.489763
O O14 0.714414 0.000000 0.500000
#
# Coordination Sequence:
#
# PCOD9470065 Si02
#       5
#    16  16  16  16  16
#     4   8  15  29  48  68  92 126 163 194 231 280
#     4   9  18  32  49  70  96 127 165 205 240 275
#     4  10  19  31  49  72  98 127 158 194 237 286
#     4   9  19  33  48  73 103 124 151 194 240 286
#     4   9  18  34  55  74  93 123 161 196 233 282
#
# _framework density 20.721001999999999
#
# number of rings (size 3 to 8) (size 9 to 14) (size 15 to 20)
#    0.000    3.000    0.000    1.800    0.000    4.000 
#    0.000    5.000    0.000    1.200    0.000    0.000 
#    0.000    0.000    0.000    0.000    0.000    0.000 
#
# Total GULP energy -223156.809735 kJ/mol
# GULP energy per Si atom -5578.920243 kJ/mol
# Density = 2.067384 g / cm^3
# Si number density = 20.721002 Si / 1000 Ang^3
#
#
#
# Elastic Constant Matrix: (Units=GPa)
#
#
# Indices 1 2 3 4 5 6 
#
# 1 54.2067 -4.8975 -9.8833 0.0000 0.0000 0.0000
# 2 -4.8975 129.5641 72.5394 0.0000 0.0000 0.0000
# 3 -9.8833 72.5394 164.1203 0.0000 0.0000 0.0000
# 4 0.0000 0.0000 0.0000 94.1991 0.0000 0.0000
# 5 0.0000 0.0000 0.0000 0.0000 21.3528 0.0000
# 6 0.0000 0.0000 0.0000 0.0000 0.0000 9.5432
#
#
#
# Elastic Compliance Matrix: (Units=1/GPa)
#
#
# Indices 1 2 3 4 5 6 
#
# 1 0.018654 0.000101 0.001079 0.000000 0.000000 0.000000
# 2 0.000101 0.010257 -0.004527 0.000000 0.000000 0.000000
# 3 0.001079 -0.004527 0.008159 0.000000 0.000000 0.000000
# 4 0.000000 0.000000 0.000000 0.010616 0.000000 0.000000
# 5 0.000000 0.000000 0.000000 0.000000 0.046832 0.000000
# 6 0.000000 0.000000 0.000000 0.000000 0.000000 0.104786
#
#
# Mechanical properties :
#
#
# Convention : Reuss Voigt Hill
#
# Bulk Modulus (GPa) = 32.92228 51.48981 42.20604
# Shear Modulus (GPa) = 23.13491 44.36120 33.74805
#
# Velocity S-wave (km/s) = 3.34503 4.63199 4.04008
# Velocity P-wave (km/s) = 5.55354 7.31506 6.49430
#
# Compressibility (1/GPa) = 0.03037457
#
# Stress axis : x y z
#
# Youngs Moduli (GPa) = 53.60867 97.49729 122.56346
#
# Poissons Ratio (x) = -0.00987 -0.13219
# Poissons Ratio (y) = -0.00543 0.55488
# Poissons Ratio (z) = -0.05782 0.44139
#
# Static dielectric constant tensor:
#      x y z
#    x 1.794920 0.000000 0.000000 
#    y 0.000000 1.721020 0.000000 
#    z 0.000000 0.000000 1.724480 
# 
# From -- ./inp_files/72484.got.cif
#   From: 2010.05.17/outbox.cif.g08.bks.cpg/sg63_37_cif.got.tgz:72484.got - 2010.06.03 15:47:04.
