data_PCOD9470598
_publ_section_title
;
Structure prediction by ZEFSAII (Michael W. Deem and Ramdas Pophale) SiO2 
 PCOD9470598
Probable space group: C M C M
;
_chemical_formula_sum "Si O2"
_cell_formula_units_Z 64
_cell_length_a 30.271529
_cell_length_b 8.401896
_cell_length_c 11.204536
_cell_angle_alpha 90.000000
_cell_angle_beta 90.000000
_cell_angle_gamma 90.000000
_cell_volume 2849.741949
_symmetry_space_group_name_H-M "C M C M"
_symmetry_group_IT_number 63
_symmetry_cell_setting 'orthorhombic'
loop_
_space_group_symop_operation_xyz
x,y,z
-x,-y,1/2+z
x,-y,-z
-x,y,1/2-z
-x,-y,-z
x,y,1/2-z
-x,y,z
x,-y,1/2+z
1/2+x,1/2+y,z
1/2-x,1/2-y,1/2+z
1/2+x,1/2-y,-z
1/2-x,1/2+y,1/2-z
1/2-x,1/2-y,-z
1/2+x,1/2+y,1/2-z
1/2-x,1/2+y,z
1/2+x,1/2-y,1/2+z
loop_
_atom_site_type_symbol
_atom_site_label
_atom_site_fract_x
_atom_site_fract_y
_atom_site_fract_z
Si Si1 0.273119 0.397176 0.619327
Si Si2 0.677388 0.175131 0.470453
Si Si3 0.447716 0.330315 0.621587
Si Si4 0.910282 0.187928 0.880597
O O1 0.280504 0.500000 0.500000
O O2 0.280052 0.467983 0.750000
O O3 0.306138 0.251681 0.594990
O O4 0.222282 0.342922 0.606070
O O5 0.641052 0.280259 0.405315
O O6 0.659877 0.000000 0.500000
O O7 0.438138 0.251271 0.750000
O O8 0.500000 0.363608 0.616856
O O9 0.422518 0.500395 0.622816
O O10 0.434135 0.246156 0.499065
O O11 0.922744 0.252715 0.750000
#
# Coordination Sequence:
#
# PCOD9470598 Si02
#       4
#    16  16  16  16
#     4  10  23  42  63  84 114 160 211 261 307 356
#     4  10  23  39  57  85 123 160 199 247 306 364
#     4   9  19  36  58  88 123 154 189 241 301 355
#     4  10  19  32  56  86 114 148 192 239 286 348
#
# _framework density 22.458172999999999
#
# number of rings (size 3 to 8) (size 9 to 14) (size 15 to 20)
#    0.000    2.250    0.000    2.250    3.500   13.500 
#    0.000    0.000    0.000    3.000    0.000    3.500 
#    0.000    0.000    0.000    0.000    0.000    0.000 
#
# Total GULP energy -178469.162773 kJ/mol
# GULP energy per Si atom -5577.161337 kJ/mol
# Density = 2.240706 g / cm^3
# Si number density = 22.458173 Si / 1000 Ang^3
#
#
#
# Elastic Constant Matrix: (Units=GPa)
#
#
# Indices 1 2 3 4 5 6 
#
# 1 81.9187 38.5894 48.7953 0.0000 0.0000 0.0000
# 2 38.5894 32.0824 25.2828 0.0000 0.0000 0.0000
# 3 48.7953 25.2828 254.6819 0.0000 0.0000 0.0000
# 4 0.0000 0.0000 0.0000 10.1551 0.0000 0.0000
# 5 0.0000 0.0000 0.0000 0.0000 3.6939 0.0000
# 6 0.0000 0.0000 0.0000 0.0000 0.0000 20.1028
#
#
#
# Elastic Compliance Matrix: (Units=1/GPa)
#
#
# Indices 1 2 3 4 5 6 
#
# 1 0.029358 -0.033500 -0.002299 0.000000 0.000000 0.000000
# 2 -0.033500 0.072042 -0.000733 0.000000 0.000000 0.000000
# 3 -0.002299 -0.000733 0.004440 0.000000 0.000000 0.000000
# 4 0.000000 0.000000 0.000000 0.098473 0.000000 0.000000
# 5 0.000000 0.000000 0.000000 0.000000 0.270714 0.000000
# 6 0.000000 0.000000 0.000000 0.000000 0.000000 0.049744
#
#
# Mechanical properties :
#
#
# Convention : Reuss Voigt Hill
#
# Bulk Modulus (GPa) = 30.51151 66.00201 48.25676
# Shear Modulus (GPa) = 8.21341 23.85806 16.03574
#
# Velocity S-wave (km/s) = 1.91446 3.26288 2.67503
# Velocity P-wave (km/s) = 4.30143 6.60665 5.57450
#
# Compressibility (1/GPa) = 0.03277452
#
# Stress axis : x y z
#
# Youngs Moduli (GPa) = 34.06280 13.88073 225.23732
#
# Poissons Ratio (x) = 0.46501 0.51784
# Poissons Ratio (y) = 1.14111 0.16519
# Poissons Ratio (z) = 0.07831 0.01018
#
# Static dielectric constant tensor:
#      x y z
#    x 1.810410 0.000000 0.000000 
#    y 0.000000 1.891360 0.000000 
#    z 0.000000 0.000000 1.901580 
# 
# From -- ./inp_files/25473.got.cif
#   From: 2010.05.17/outbox.cif.g08.bks.cpg/sg63_13_cif.got.tgz:25473.got - 2010.06.03 15:47:04.
