data_PCOD9470887
_publ_section_title
;
Structure prediction by ZEFSAII (Michael W. Deem and Ramdas Pophale) SiO2 
 PCOD9470887
Probable space group: C M C M
;
_chemical_formula_sum "Si O2"
_cell_formula_units_Z 80
_cell_length_a 14.054624
_cell_length_b 18.999447
_cell_length_c 16.522111
_cell_angle_alpha 90.000000
_cell_angle_beta 90.000000
_cell_angle_gamma 90.000000
_cell_volume 4411.900685
_symmetry_space_group_name_H-M "C M C M"
_symmetry_group_IT_number 63
_symmetry_cell_setting 'orthorhombic'
loop_
_space_group_symop_operation_xyz
x,y,z
-x,-y,1/2+z
x,-y,-z
-x,y,1/2-z
-x,-y,-z
x,y,1/2-z
-x,y,z
x,-y,1/2+z
1/2+x,1/2+y,z
1/2-x,1/2-y,1/2+z
1/2+x,1/2-y,-z
1/2-x,1/2+y,1/2-z
1/2-x,1/2-y,-z
1/2+x,1/2+y,1/2-z
1/2-x,1/2+y,z
1/2+x,1/2-y,1/2+z
loop_
_atom_site_type_symbol
_atom_site_label
_atom_site_fract_x
_atom_site_fract_y
_atom_site_fract_z
Si Si1 0.111726 0.609847 0.348250
Si Si2 0.108951 0.885910 0.152134
Si Si3 0.716347 0.751249 0.591945
Si Si4 0.705087 0.963717 0.151492
Si Si5 0.104759 0.678699 0.653751
O O1 0.117597 0.613867 0.250000
O O2 0.165062 0.676882 0.384547
O O3 0.162384 0.537631 0.375553
O O4 0.000000 0.609218 0.369360
O O5 0.113556 0.877109 0.250000
O O6 0.146385 0.813463 0.113415
O O7 0.185776 0.945914 0.130159
O O8 0.000000 0.900948 0.130287
O O9 0.750000 0.750000 0.500000
O O10 0.814325 0.736132 0.639313
O O11 0.700111 0.964263 0.250000
O O12 0.643470 0.896598 0.122572
O O13 0.097007 0.670756 0.750000
O O14 0.000000 0.695158 0.620608
#
# Coordination Sequence:
#
# PCOD9470887 Si02
#       5
#    16  16  16  16  16
#     4  10  19  33  56  82 104 127 161 210 260 299
#     4   9  17  33  57  78  98 132 175 213 250 299
#     4  11  22  33  47  71 106 138 169 207 247 295
#     4   8  15  29  52  81 104 122 157 210 259 299
#     4   9  17  32  52  70  93 130 171 206 245 297
#
# _framework density 18.132774999999999
#
# number of rings (size 3 to 8) (size 9 to 14) (size 15 to 20)
#    0.000    2.600    0.000    4.200    0.000    5.600 
#    0.000    5.000    0.000   10.800    0.000    0.000 
#    0.000    0.000    0.000    0.000    0.000    0.000 
#
# Total GULP energy -222982.024034 kJ/mol
# GULP energy per Si atom -5574.550601 kJ/mol
# Density = 1.809150 g / cm^3
# Si number density = 18.132775 Si / 1000 Ang^3
#
#
#
# Elastic Constant Matrix: (Units=GPa)
#
#
# Indices 1 2 3 4 5 6 
#
# 1 193.9592 89.4843 30.4287 0.0000 0.0000 0.0000
# 2 89.4843 116.0242 17.3546 0.0000 0.0000 0.0000
# 3 30.4287 17.3546 19.3140 0.0000 0.0000 0.0000
# 4 0.0000 0.0000 0.0000 -8.0785 0.0000 0.0000
# 5 0.0000 0.0000 0.0000 0.0000 10.9974 0.0000
# 6 0.0000 0.0000 0.0000 0.0000 0.0000 18.3611
#
#
#
# Elastic Compliance Matrix: (Units=1/GPa)
#
#
# Indices 1 2 3 4 5 6 
#
# 1 0.009296 -0.005752 -0.009478 0.000000 0.000000 0.000000
# 2 -0.005752 0.013516 -0.003083 0.000000 0.000000 0.000000
# 3 -0.009478 -0.003083 0.069478 0.000000 0.000000 0.000000
# 4 0.000000 0.000000 0.000000 -0.123786 0.000000 0.000000
# 5 0.000000 0.000000 0.000000 0.000000 0.090930 0.000000
# 6 0.000000 0.000000 0.000000 0.000000 0.000000 0.054463
#
#
# Mechanical properties :
#
#
# Convention : Reuss Voigt Hill
#
# Bulk Modulus (GPa) = 17.96444 67.09251 42.52847
# Shear Modulus (GPa) = 29.57215 17.05801 23.31508
#
# Velocity S-wave (km/s) = 4.04278 3.07046 3.58969
# Velocity P-wave (km/s) = 5.63212 7.04637 6.37856
#
# Compressibility (1/GPa) = 0.05566552
#
# Stress axis : x y z
#
# Youngs Moduli (GPa) = 107.56789 73.98371 14.39312
#
# Poissons Ratio (x) = 0.42558 0.13641
# Poissons Ratio (y) = 0.61876 0.04437
# Poissons Ratio (z) = 1.01948 0.22806
#
# Static dielectric constant tensor:
#      x y z
#    x 1.488030 0.000000 0.000000 
#    y 0.000000 1.604450 0.000000 
#    z 0.000000 0.000000 1.626190 
# 
# From -- ./inp_files/43928.got.cif
#   From: 2010.05.17/outbox.cif.g08.bks.cpg/sg63_22_cif.got.tgz:43928.got - 2010.06.03 15:47:04.
