data_PCOD9470268
_publ_section_title
;
Structure prediction by ZEFSAII (Michael W. Deem and Ramdas Pophale) SiO2 
 PCOD9470268
Probable space group: C M C M
;
_chemical_formula_sum "Si O2"
_cell_formula_units_Z 96
_cell_length_a 14.221402
_cell_length_b 35.051390
_cell_length_c 11.569018
_cell_angle_alpha 90.000000
_cell_angle_beta 90.000000
_cell_angle_gamma 90.000000
_cell_volume 5766.923027
_symmetry_space_group_name_H-M "C M C M"
_symmetry_group_IT_number 63
_symmetry_cell_setting 'orthorhombic'
loop_
_space_group_symop_operation_xyz
x,y,z
-x,-y,1/2+z
x,-y,-z
-x,y,1/2-z
-x,-y,-z
x,y,1/2-z
-x,y,z
x,-y,1/2+z
1/2+x,1/2+y,z
1/2-x,1/2-y,1/2+z
1/2+x,1/2-y,-z
1/2-x,1/2+y,1/2-z
1/2-x,1/2-y,-z
1/2+x,1/2+y,1/2-z
1/2-x,1/2+y,z
1/2+x,1/2-y,1/2+z
loop_
_atom_site_type_symbol
_atom_site_label
_atom_site_fract_x
_atom_site_fract_y
_atom_site_fract_z
Si Si1 0.612996 0.251057 0.250000
Si Si2 0.886100 0.836786 0.250000
Si Si3 0.769500 0.155103 0.111655
Si Si4 0.387939 0.200399 0.472260
Si Si5 0.887023 0.020899 0.881867
Si Si6 0.611665 0.392366 0.041924
Si Si7 0.893915 0.771462 0.612613
O O1 0.500000 0.253848 0.250000
O O2 0.651093 0.293781 0.250000
O O3 0.637847 0.226516 0.138682
O O4 0.860999 0.861049 0.362323
O O5 0.000000 0.835012 0.250000
O O6 0.756550 0.154438 0.250000
O O7 0.671983 0.162428 0.045072
O O8 0.831386 0.192608 0.078508
O O9 0.826634 0.118437 0.068739
O O10 0.500000 0.193300 0.474024
O O11 0.362757 0.229321 0.575203
O O12 0.852995 0.011232 0.750000
O O13 0.872685 0.065866 0.905554
O O14 0.000000 0.014200 0.878679
O O15 0.852176 0.000000 0.000000
O O16 0.500000 0.388965 0.016600
O O17 0.898719 0.772631 0.750000
O O18 0.000000 0.776602 0.563435
#
# Coordination Sequence:
#
# PCOD9470268 Si02
#       7
#     8   8  16  16  16  16  16
#     4   9  16  26  44  62  76 109 157 203 247 278
#     4   9  16  28  46  66  90 119 157 199 235 272
#     4  11  21  31  44  65  92 122 159 203 247 293
#     4  10  19  33  47  60  84 118 162 210 251 293
#     4   9  17  31  51  74 102 134 166 195 228 280
#     4  10  19  32  48  69  98 129 158 193 235 279
#     4   9  18  31  44  60  85 116 152 200 254 298
#
# _framework density 16.646659
#
# number of rings (size 3 to 8) (size 9 to 14) (size 15 to 20)
#    0.000    2.333    1.667    2.000    0.000    4.333 
#    1.500    1.667    0.000    0.000    0.000    0.000 
#    0.000    0.667    0.000    0.500    0.000    0.167 
#
# Total GULP energy -267475.923880 kJ/mol
# GULP energy per Si atom -5572.415081 kJ/mol
# Density = 1.660877 g / cm^3
# Si number density = 16.646659 Si / 1000 Ang^3
#
#
#
# Elastic Constant Matrix: (Units=GPa)
#
#
# Indices 1 2 3 4 5 6 
#
# 1 35.6144 11.0823 22.2980 0.0000 0.0000 0.0000
# 2 11.0823 37.7805 24.8556 0.0000 0.0000 0.0000
# 3 22.2980 24.8556 63.0329 0.0000 0.0000 0.0000
# 4 0.0000 0.0000 0.0000 20.8865 0.0000 0.0000
# 5 0.0000 0.0000 0.0000 0.0000 16.7038 0.0000
# 6 0.0000 0.0000 0.0000 0.0000 0.0000 12.6831
#
#
#
# Elastic Compliance Matrix: (Units=1/GPa)
#
#
# Indices 1 2 3 4 5 6 
#
# 1 0.036312 -0.002971 -0.011674 0.000000 0.000000 0.000000
# 2 -0.002971 0.035984 -0.013138 0.000000 0.000000 0.000000
# 3 -0.011674 -0.013138 0.025175 0.000000 0.000000 0.000000
# 4 0.000000 0.000000 0.000000 0.047878 0.000000 0.000000
# 5 0.000000 0.000000 0.000000 0.000000 0.059867 0.000000
# 6 0.000000 0.000000 0.000000 0.000000 0.000000 0.078845
#
#
# Mechanical properties :
#
#
# Convention : Reuss Voigt Hill
#
# Bulk Modulus (GPa) = 23.86402 28.09997 25.98200
# Shear Modulus (GPa) = 14.14045 15.26747 14.70396
#
# Velocity S-wave (km/s) = 2.91769 3.03173 2.97526
# Velocity P-wave (km/s) = 5.07122 5.40112 5.23877
#
# Compressibility (1/GPa) = 0.04190408
#
# Stress axis : x y z
#
# Youngs Moduli (GPa) = 27.53914 27.79019 39.72176
#
# Poissons Ratio (x) = 0.08258 0.46370
# Poissons Ratio (y) = 0.08183 0.52188
# Poissons Ratio (z) = 0.32148 0.36512
#
# Static dielectric constant tensor:
#      x y z
#    x 1.590340 0.000000 0.000000 
#    y 0.000000 1.550140 0.000000 
#    z 0.000000 0.000000 1.619660 
# 
# From -- ./inp_files/20001.got.cif
#   From: 2010.05.17/outbox.cif.g08.bks.cpg/sg63_11_cif.got.tgz:20001.got - 2010.06.03 15:47:04.
