data_PCOD9470288
_publ_section_title
;
Structure prediction by ZEFSAII (Michael W. Deem and Ramdas Pophale) SiO2 
 PCOD9470288
Probable space group: C M C M
;
_chemical_formula_sum "Si O2"
_cell_formula_units_Z 88
_cell_length_a 20.857145
_cell_length_b 27.325621
_cell_length_c 8.881212
_cell_angle_alpha 90.000000
_cell_angle_beta 90.000000
_cell_angle_gamma 90.000000
_cell_volume 5061.708583
_symmetry_space_group_name_H-M "C M C M"
_symmetry_group_IT_number 63
_symmetry_cell_setting 'orthorhombic'
loop_
_space_group_symop_operation_xyz
x,y,z
-x,-y,1/2+z
x,-y,-z
-x,y,1/2-z
-x,-y,-z
x,y,1/2-z
-x,y,z
x,-y,1/2+z
1/2+x,1/2+y,z
1/2-x,1/2-y,1/2+z
1/2+x,1/2-y,-z
1/2-x,1/2+y,1/2-z
1/2-x,1/2-y,-z
1/2+x,1/2+y,1/2-z
1/2-x,1/2+y,z
1/2+x,1/2-y,1/2+z
loop_
_atom_site_type_symbol
_atom_site_label
_atom_site_fract_x
_atom_site_fract_y
_atom_site_fract_z
Si Si1 0.500000 0.445739 0.430710
Si Si2 0.634596 0.286302 0.430141
Si Si3 0.500000 0.168588 0.921975
Si Si4 0.500000 0.287652 0.575725
Si Si5 0.229292 0.864054 0.931071
Si Si6 0.632800 0.829135 0.929959
Si Si7 0.640712 0.445580 0.431413
O O1 0.500000 0.500000 0.500000
O O2 0.500000 0.449350 0.250000
O O3 0.569506 0.424581 0.472858
O O4 0.637380 0.292738 0.250000
O O5 0.564852 0.302350 0.490897
O O6 0.689330 0.317595 0.509499
O O7 0.641891 0.228606 0.465738
O O8 0.500000 0.152921 0.750000
O O9 0.500000 0.228130 0.926515
O O10 0.566142 0.153358 0.999778
O O11 0.500000 0.303481 0.750000
O O12 0.226212 0.865676 0.750000
O O13 0.303383 0.857646 0.977161
O O14 0.194931 0.911047 0.001210
O O15 0.627110 0.832154 0.750000
O O16 0.645096 0.500000 0.500000
O O17 0.645104 0.447542 0.250000
#
# Coordination Sequence:
#
# PCOD9470288 Si02
#       7
#     8  16   8   8  16  16  16
#     4   8  16  31  52  73  94 123 161 201 244 287
#     4  10  19  32  49  70  98 134 172 211 250 292
#     4   9  17  29  50  74  96 125 165 208 248 293
#     4   9  17  30  46  67  96 132 170 209 250 294
#     4  11  22  34  49  73 102 134 169 206 250 300
#     4   9  19  34  51  71 100 135 169 204 247 297
#     4  10  20  36  55  75  99 129 166 210 254 299
#
# _framework density 17.385432999999999
#
# number of rings (size 3 to 8) (size 9 to 14) (size 15 to 20)
#    0.000    2.364    0.000    2.727    0.000    5.818 
#    0.000    2.727    0.000    0.000    0.000    0.636 
#    0.000    0.000    0.000    0.000    0.000    0.000 
#
# Total GULP energy -245472.639662 kJ/mol
# GULP energy per Si atom -5578.923629 kJ/mol
# Density = 1.734586 g / cm^3
# Si number density = 17.385433 Si / 1000 Ang^3
#
#
#
# Elastic Constant Matrix: (Units=GPa)
#
#
# Indices 1 2 3 4 5 6 
#
# 1 195.5029 62.5803 60.0174 0.0000 0.0000 0.0000
# 2 62.5803 55.9587 33.0351 0.0000 0.0000 0.0000
# 3 60.0174 33.0351 54.8894 0.0000 0.0000 0.0000
# 4 0.0000 0.0000 0.0000 22.1027 0.0000 0.0000
# 5 0.0000 0.0000 0.0000 0.0000 29.7803 0.0000
# 6 0.0000 0.0000 0.0000 0.0000 0.0000 814.2798
#
#
#
# Elastic Compliance Matrix: (Units=1/GPa)
#
#
# Indices 1 2 3 4 5 6 
#
# 1 0.009052 -0.006639 -0.005902 0.000000 0.000000 0.000000
# 2 -0.006639 0.032588 -0.012354 0.000000 0.000000 0.000000
# 3 -0.005902 -0.012354 0.032107 0.000000 0.000000 0.000000
# 4 0.000000 0.000000 0.000000 0.045243 0.000000 0.000000
# 5 0.000000 0.000000 0.000000 0.000000 0.033579 0.000000
# 6 0.000000 0.000000 0.000000 0.000000 0.000000 0.001228
#
#
# Mechanical properties :
#
#
# Convention : Reuss Voigt Hill
#
# Bulk Modulus (GPa) = 41.74087 68.62405 55.18246
# Shear Modulus (GPa) = 23.63251 183.28044 103.45648
#
# Velocity S-wave (km/s) = 3.69091 10.27865 7.72248
# Velocity P-wave (km/s) = 6.49807 13.43225 10.55108
#
# Compressibility (1/GPa) = 0.02395734
#
# Stress axis : x y z
#
# Youngs Moduli (GPa) = 110.47312 30.68635 31.14572
#
# Poissons Ratio (x) = 0.20372 0.18383
# Poissons Ratio (y) = 0.73341 0.38477
# Poissons Ratio (z) = 0.65202 0.37910
#
# Static dielectric constant tensor:
#      x y z
#    x 1.602340 0.000000 0.000000 
#    y 0.000000 1.582670 0.000000 
#    z 0.000000 0.000000 1.581400 
# 
# From -- ./inp_files/6938.got.cif
#   From: 2010.05.17/outbox.cif.g08.bks.cpg/sg63_4_cif.got.tgz:6938.got - 2010.06.03 15:47:04.
