data_PCOD9470866
_publ_section_title
;
Structure prediction by ZEFSAII (Michael W. Deem and Ramdas Pophale) SiO2 
 PCOD9470866
Probable space group: C M C M
;
_chemical_formula_sum "Si O2"
_cell_formula_units_Z 96
_cell_length_a 20.517488
_cell_length_b 29.101606
_cell_length_c 8.814859
_cell_angle_alpha 90.000000
_cell_angle_beta 90.000000
_cell_angle_gamma 90.000000
_cell_volume 5263.280484
_symmetry_space_group_name_H-M "C M C M"
_symmetry_group_IT_number 63
_symmetry_cell_setting 'orthorhombic'
loop_
_space_group_symop_operation_xyz
x,y,z
-x,-y,1/2+z
x,-y,-z
-x,y,1/2-z
-x,-y,-z
x,y,1/2-z
-x,y,z
x,-y,1/2+z
1/2+x,1/2+y,z
1/2-x,1/2-y,1/2+z
1/2+x,1/2-y,-z
1/2-x,1/2+y,1/2-z
1/2-x,1/2-y,-z
1/2+x,1/2+y,1/2-z
1/2-x,1/2+y,z
1/2+x,1/2-y,1/2+z
loop_
_atom_site_type_symbol
_atom_site_label
_atom_site_fract_x
_atom_site_fract_y
_atom_site_fract_z
Si Si1 0.149833 0.225027 0.423951
Si Si2 0.575181 0.633493 0.065178
Si Si3 0.299977 0.907028 0.427772
Si Si4 0.201431 0.689000 0.078932
Si Si5 0.072189 0.550898 0.069156
Si Si6 0.329699 0.550190 0.067582
O O1 0.129835 0.235602 0.250000
O O2 0.107238 0.182072 0.481955
O O3 0.153265 0.270721 0.524553
O O4 0.224790 0.208081 0.417394
O O5 0.576820 0.633964 0.250000
O O6 0.500000 0.629587 0.017510
O O7 0.618936 0.589802 0.018659
O O8 0.294496 0.916326 0.250000
O O9 0.296420 0.853211 0.464609
O O10 0.369115 0.922914 0.491545
O O11 0.241265 0.933095 0.512532
O O12 0.185318 0.673335 0.250000
O O13 0.081653 0.548638 0.250000
O O14 0.000000 0.570880 0.040090
O O15 0.072615 0.500000 0.000000
O O16 0.330373 0.547672 0.250000
O O17 0.344294 0.500000 0.000000
#
# Coordination Sequence:
#
# PCOD9470866 Si02
#       6
#    16  16  16  16  16  16
#     4   9  17  33  55  82 109 142 184 228 279 338
#     4   9  18  35  59  83 112 151 193 239 293 348
#     4  12  23  36  57  85 115 151 191 235 283 335
#     4  10  19  33  55  83 112 144 181 229 281 333
#     4  10  21  38  59  82 111 147 185 227 278 337
#     4  11  22  38  57  83 115 150 194 244 294 343
#
# _framework density 18.239576
#
# number of rings (size 3 to 8) (size 9 to 14) (size 15 to 20)
#    0.000    1.833    1.667    3.500    0.000    2.000 
#    0.000    0.833    0.000    7.000    0.000    0.000 
#    0.000    0.000    0.000    0.000    0.000    0.000 
#
# Total GULP energy -267843.847631 kJ/mol
# GULP energy per Si atom -5580.080159 kJ/mol
# Density = 1.819806 g / cm^3
# Si number density = 18.239576 Si / 1000 Ang^3
#
#
#
# Elastic Constant Matrix: (Units=GPa)
#
#
# Indices 1 2 3 4 5 6 
#
# 1 80.1181 22.1447 26.0602 0.0000 0.0000 0.0000
# 2 22.1447 53.1389 9.1823 0.0000 0.0000 0.0000
# 3 26.0602 9.1823 59.9155 0.0000 0.0000 0.0000
# 4 0.0000 0.0000 0.0000 28.4575 0.0000 0.0000
# 5 0.0000 0.0000 0.0000 0.0000 -79.9102 0.0000
# 6 0.0000 0.0000 0.0000 0.0000 0.0000 -9.9219
#
#
#
# Elastic Compliance Matrix: (Units=1/GPa)
#
#
# Indices 1 2 3 4 5 6 
#
# 1 0.016022 -0.005622 -0.006107 0.000000 0.000000 0.000000
# 2 -0.005622 0.021303 -0.000820 0.000000 0.000000 0.000000
# 3 -0.006107 -0.000820 0.019472 0.000000 0.000000 0.000000
# 4 0.000000 0.000000 0.000000 0.035140 0.000000 0.000000
# 5 0.000000 0.000000 0.000000 0.000000 -0.012514 0.000000
# 6 0.000000 0.000000 0.000000 0.000000 0.000000 -0.100787
#
#
# Mechanical properties :
#
#
# Convention : Reuss Voigt Hill
#
# Bulk Modulus (GPa) = 31.54565 34.21635 32.88100
# Shear Modulus (GPa) = 349.66451 -3.22257 173.22097
#
# Velocity S-wave (km/s) = 13.86083 -1.33065 9.75582
# Velocity P-wave (km/s) = 16.53772 4.05454 12.04026
#
# Compressibility (1/GPa) = 0.03170009
#
# Stress axis : x y z
#
# Youngs Moduli (GPa) = 62.41470 46.94196 51.35547
#
# Poissons Ratio (x) = 0.26389 0.31364
# Poissons Ratio (y) = 0.35087 0.04210
# Poissons Ratio (z) = 0.38118 0.03848
#
# Static dielectric constant tensor:
#      x y z
#    x 1.615850 0.000000 0.000000 
#    y 0.000000 1.658670 0.000000 
#    z 0.000000 0.000000 1.670600 
# 
# From -- ./inp_files/8559.got.cif
#   From: 2010.05.17/outbox.cif.g08.bks.cpg/sg63_5_cif.got.tgz:8559.got - 2010.06.03 15:47:04.
