data_PCOD9470468
_publ_section_title
;
Structure prediction by ZEFSAII (Michael W. Deem and Ramdas Pophale) SiO2 
 PCOD9470468
Probable space group: C M C M
;
_chemical_formula_sum "Si O2"
_cell_formula_units_Z 96
_cell_length_a 7.659164
_cell_length_b 24.050691
_cell_length_c 24.045002
_cell_angle_alpha 90.000000
_cell_angle_beta 90.000000
_cell_angle_gamma 90.000000
_cell_volume 4429.286217
_symmetry_space_group_name_H-M "C M C M"
_symmetry_group_IT_number 63
_symmetry_cell_setting 'orthorhombic'
loop_
_space_group_symop_operation_xyz
x,y,z
-x,-y,1/2+z
x,-y,-z
-x,y,1/2-z
-x,-y,-z
x,y,1/2-z
-x,y,z
x,-y,1/2+z
1/2+x,1/2+y,z
1/2-x,1/2-y,1/2+z
1/2+x,1/2-y,-z
1/2-x,1/2+y,1/2-z
1/2-x,1/2-y,-z
1/2+x,1/2+y,1/2-z
1/2-x,1/2+y,z
1/2+x,1/2-y,1/2+z
loop_
_atom_site_type_symbol
_atom_site_label
_atom_site_fract_x
_atom_site_fract_y
_atom_site_fract_z
Si Si1 0.708511 0.154740 0.750000
Si Si2 0.286206 0.219918 0.860598
Si Si3 0.300790 0.964765 0.444214
Si Si4 0.710331 0.157916 0.527724
Si Si5 0.212667 0.976589 0.250000
Si Si6 0.290870 0.336970 0.898749
Si Si7 0.198352 0.046603 0.352838
O O1 0.500000 0.162573 0.750000
O O2 0.773148 0.184643 0.693135
O O3 0.739332 0.088467 0.750000
O O4 0.500000 0.218397 0.860188
O O5 0.229975 0.194986 0.920341
O O6 0.230784 0.284319 0.862617
O O7 0.500000 0.957882 0.422541
O O8 0.228687 0.904487 0.458651
O O9 0.310120 0.000000 0.500000
O O10 0.195904 0.001635 0.401617
O O11 0.500000 0.157869 0.528743
O O12 0.757484 0.172475 0.464451
O O13 0.000000 0.976075 0.250000
O O14 0.278393 0.012176 0.302341
O O15 0.500000 0.339151 0.894272
O O16 0.221179 0.396285 0.876604
O O17 0.000000 0.060526 0.335727
#
# Coordination Sequence:
#
# PCOD9470468 Si02
#       7
#     8  16  16  16   8  16  16
#     4  10  20  39  63  81  99 134 181 224 260 312
#     4   9  19  34  55  80 104 133 175 221 261 303
#     4  10  19  32  52  77 106 139 175 219 267 311
#     4  10  19  33  52  77 108 139 172 215 265 313
#     4  10  22  39  55  77 109 140 171 218 270 312
#     4  10  20  34  52  78 108 138 174 214 258 314
#     4  10  21  35  53  77 108 143 178 215 263 320
#
# _framework density 21.673922000000001
#
# number of rings (size 3 to 8) (size 9 to 14) (size 15 to 20)
#    0.000    2.167    1.667    1.500    0.000    3.667 
#    0.000    5.000    0.000    0.000    0.000    2.333 
#    0.000    0.000    0.000    0.000    0.000    0.000 
#
# Total GULP energy -267785.122203 kJ/mol
# GULP energy per Si atom -5578.856713 kJ/mol
# Density = 2.162459 g / cm^3
# Si number density = 21.673922 Si / 1000 Ang^3
#
#
#
# Elastic Constant Matrix: (Units=GPa)
#
#
# Indices 1 2 3 4 5 6 
#
# 1 39.4556 10.0619 6.2557 0.0000 0.0000 0.0000
# 2 10.0619 130.9661 89.4804 0.0000 0.0000 0.0000
# 3 6.2557 89.4804 159.2006 0.0000 0.0000 0.0000
# 4 0.0000 0.0000 0.0000 27.2195 0.0000 0.0000
# 5 0.0000 0.0000 0.0000 0.0000 18.9889 0.0000
# 6 0.0000 0.0000 0.0000 0.0000 0.0000 14.5645
#
#
#
# Elastic Compliance Matrix: (Units=1/GPa)
#
#
# Indices 1 2 3 4 5 6 
#
# 1 0.025854 -0.002098 0.000163 0.000000 0.000000 0.000000
# 2 -0.002098 0.012566 -0.006980 0.000000 0.000000 0.000000
# 3 0.000163 -0.006980 0.010198 0.000000 0.000000 0.000000
# 4 0.000000 0.000000 0.000000 0.036738 0.000000 0.000000
# 5 0.000000 0.000000 0.000000 0.000000 0.052662 0.000000
# 6 0.000000 0.000000 0.000000 0.000000 0.000000 0.068660
#
#
# Mechanical properties :
#
#
# Convention : Reuss Voigt Hill
#
# Bulk Modulus (GPa) = 32.47985 60.13536 46.30760
# Shear Modulus (GPa) = 21.29724 27.07621 24.18672
#
# Velocity S-wave (km/s) = 3.13808 3.53831 3.34419
# Velocity P-wave (km/s) = 5.30549 6.67073 6.02689
#
# Compressibility (1/GPa) = 0.03078832
#
# Stress axis : x y z
#
# Youngs Moduli (GPa) = 38.67869 79.58000 98.05482
#
# Poissons Ratio (x) = 0.16694 -0.01600
# Poissons Ratio (y) = 0.08114 0.68446
# Poissons Ratio (z) = -0.00631 0.55550
#
# Static dielectric constant tensor:
#      x y z
#    x 1.875360 0.000000 0.000000 
#    y 0.000000 1.792890 0.000000 
#    z 0.000000 0.000000 1.701000 
# 
# From -- ./inp_files/60014.got.cif
#   From: 2010.05.17/outbox.cif.g08.bks.cpg/sg63_31_cif.got.tgz:60014.got - 2010.06.03 15:47:04.
