data_PCOD9470825
_publ_section_title
;
Structure prediction by ZEFSAII (Michael W. Deem and Ramdas Pophale) SiO2 
 PCOD9470825
Probable space group: C M C M
;
_chemical_formula_sum "Si O2"
_cell_formula_units_Z 116
_cell_length_a 21.777520
_cell_length_b 16.538912
_cell_length_c 15.611881
_cell_angle_alpha 90.000000
_cell_angle_beta 90.000000
_cell_angle_gamma 90.000000
_cell_volume 5623.032452
_symmetry_space_group_name_H-M "C M C M"
_symmetry_group_IT_number 63
_symmetry_cell_setting 'orthorhombic'
loop_
_space_group_symop_operation_xyz
x,y,z
-x,-y,1/2+z
x,-y,-z
-x,y,1/2-z
-x,-y,-z
x,y,1/2-z
-x,y,z
x,-y,1/2+z
1/2+x,1/2+y,z
1/2-x,1/2-y,1/2+z
1/2+x,1/2-y,-z
1/2-x,1/2+y,1/2-z
1/2-x,1/2-y,-z
1/2+x,1/2+y,1/2-z
1/2-x,1/2+y,z
1/2+x,1/2-y,1/2+z
loop_
_atom_site_type_symbol
_atom_site_label
_atom_site_fract_x
_atom_site_fract_y
_atom_site_fract_z
Si Si1 0.500000 0.983806 0.250000
Si Si2 0.102914 0.560930 0.613692
Si Si3 0.870057 0.189098 0.481209
Si Si4 0.192004 0.952826 0.910999
Si Si5 0.687727 0.205061 0.657178
Si Si6 0.067835 0.663240 0.453754
Si Si7 0.820239 0.123709 0.841736
Si Si8 0.822038 0.408364 0.852990
O O1 0.447025 0.977914 0.175256
O O2 0.132487 0.640814 0.655079
O O3 0.075901 0.592392 0.524143
O O4 0.156832 0.495367 0.610529
O O5 0.866080 0.106297 0.426397
O O6 0.821542 0.243902 0.428723
O O7 0.925638 0.251251 0.496291
O O8 0.852511 0.160071 0.575683
O O9 0.251903 0.901224 0.884146
O O10 0.180417 0.026631 0.847239
O O11 0.205212 0.000000 0.000000
O O12 0.685925 0.248927 0.750000
O O13 0.750842 0.156297 0.654002
O O14 0.126752 0.652489 0.391523
O O15 0.000000 0.657375 0.413541
O O16 0.846534 0.149883 0.750000
O O17 0.823802 0.407095 0.750000
#
# Coordination Sequence:
#
# PCOD9470825 Si02
#       8
#     4  16  16  16  16  16  16  16
#     4  12  20  32  62  80 114 164 218 242 274 332
#     4  11  21  37  56  84 116 160 206 247 282 332
#     4  10  24  39  58  85 121 155 197 247 300 357
#     4  10  21  38  61  86 115 153 191 252 307 357
#     4  10  19  33  54  83 119 154 192 240 298 346
#     4  11  26  41  58  81 118 164 205 247 293 344
#     4  10  20  36  61  86 117 153 193 240 304 364
#     4  12  24  36  56  87 124 161 201 236 281 351
#
# _framework density 20.629438
#
# number of rings (size 3 to 8) (size 9 to 14) (size 15 to 20)
#    0.000    1.379    3.448    2.069    8.690    2.483 
#    0.000    0.000    0.000    3.724    0.000    0.000 
#    0.000    0.000    0.000    0.000    0.000    0.000 
#
# Total GULP energy -322909.751065 kJ/mol
# GULP energy per Si atom -5567.409501 kJ/mol
# Density = 2.058248 g / cm^3
# Si number density = 20.629438 Si / 1000 Ang^3
#
#
#
# Elastic Constant Matrix: (Units=GPa)
#
#
# Indices 1 2 3 4 5 6 
#
# 1 41.7177 21.2588 4.3162 0.0000 0.0000 0.0000
# 2 21.2588 72.3764 22.5896 0.0000 0.0000 0.0000
# 3 4.3162 22.5896 84.3336 0.0000 0.0000 0.0000
# 4 0.0000 0.0000 0.0000 27.8626 0.0000 0.0000
# 5 0.0000 0.0000 0.0000 0.0000 13.2823 0.0000
# 6 0.0000 0.0000 0.0000 0.0000 0.0000 7.9556
#
#
#
# Elastic Compliance Matrix: (Units=1/GPa)
#
#
# Indices 1 2 3 4 5 6 
#
# 1 0.028246 -0.008561 0.000848 0.000000 0.000000 0.000000
# 2 -0.008561 0.017672 -0.004295 0.000000 0.000000 0.000000
# 3 0.000848 -0.004295 0.012965 0.000000 0.000000 0.000000
# 4 0.000000 0.000000 0.000000 0.035890 0.000000 0.000000
# 5 0.000000 0.000000 0.000000 0.000000 0.075288 0.000000
# 6 0.000000 0.000000 0.000000 0.000000 0.000000 0.125698
#
#
# Mechanical properties :
#
#
# Convention : Reuss Voigt Hill
#
# Bulk Modulus (GPa) = 28.68243 32.75076 30.71659
# Shear Modulus (GPa) = 15.08762 19.83765 17.46264
#
# Velocity S-wave (km/s) = 2.70731 3.10436 2.91261
# Velocity P-wave (km/s) = 4.86893 5.36280 5.12182
#
# Compressibility (1/GPa) = 0.03486455
#
# Stress axis : x y z
#
# Youngs Moduli (GPa) = 35.40384 56.58699 77.13149
#
# Poissons Ratio (x) = 0.48444 -0.06537
# Poissons Ratio (y) = 0.30309 0.33131
# Poissons Ratio (z) = -0.03001 0.24307
#
# Static dielectric constant tensor:
#      x y z
#    x 1.760350 0.000000 0.000000 
#    y 0.000000 1.803680 0.000000 
#    z 0.000000 0.000000 1.786180 
# 
# From -- ./inp_files/37112.got.cif
#   From: 2010.05.17/outbox.cif.g08.bks.cpg/sg63_19_cif.got.tgz:37112.got - 2010.06.03 15:47:04.
