data_PCOD9470315
_publ_section_title
;
Structure prediction by ZEFSAII (Michael W. Deem and Ramdas Pophale) SiO2 
 PCOD9470315
Probable space group: C M C M
;
_chemical_formula_sum "Si O2"
_cell_formula_units_Z 96
_cell_length_a 18.193010
_cell_length_b 29.808926
_cell_length_c 9.706939
_cell_angle_alpha 90.000000
_cell_angle_beta 90.000000
_cell_angle_gamma 90.000000
_cell_volume 5264.209779
_symmetry_space_group_name_H-M "C M C M"
_symmetry_group_IT_number 63
_symmetry_cell_setting 'orthorhombic'
loop_
_space_group_symop_operation_xyz
x,y,z
-x,-y,1/2+z
x,-y,-z
-x,y,1/2-z
-x,-y,-z
x,y,1/2-z
-x,y,z
x,-y,1/2+z
1/2+x,1/2+y,z
1/2-x,1/2-y,1/2+z
1/2+x,1/2-y,-z
1/2-x,1/2+y,1/2-z
1/2-x,1/2-y,-z
1/2+x,1/2+y,1/2-z
1/2-x,1/2+y,z
1/2+x,1/2-y,1/2+z
loop_
_atom_site_type_symbol
_atom_site_label
_atom_site_fract_x
_atom_site_fract_y
_atom_site_fract_z
Si Si1 0.712270 0.045072 0.087015
Si Si2 0.915005 0.796204 0.583345
Si Si3 0.849436 0.889283 0.913122
Si Si4 0.586532 0.887937 0.913134
Si Si5 0.086246 0.039043 0.903323
Si Si6 0.910564 0.302692 0.091538
O O1 0.714834 0.034414 0.250000
O O2 0.773042 0.084375 0.064017
O O3 0.634883 0.068769 0.052963
O O4 0.722024 0.000000 0.000000
O O5 0.918383 0.793015 0.750000
O O6 0.860006 0.836969 0.552403
O O7 0.890114 0.746768 0.536609
O O8 0.000000 0.805154 0.538059
O O9 0.867702 0.894604 0.750000
O O10 0.904295 0.915621 0.012597
O O11 0.595754 0.879150 0.750000
O O12 0.500000 0.895090 0.939919
O O13 0.611894 0.844468 0.998425
O O14 0.119051 0.039860 0.750000
O O15 0.000000 0.029913 0.888297
O O16 0.117622 0.000000 0.000000
O O17 0.885952 0.308214 0.250000
O O18 0.000000 0.302132 0.093405
#
# Coordination Sequence:
#
# PCOD9470315 Si02
#       6
#    16  16  16  16  16  16
#     4  10  22  37  52  72  97 127 164 206 253 303
#     4   8  14  26  47  74 101 130 164 198 232 276
#     4  10  19  32  50  70  96 131 167 203 243 287
#     4   9  18  34  54  74  98 127 158 197 250 308
#     4  10  20  32  46  66  92 123 163 209 250 289
#     4   8  14  27  49  76 101 125 158 197 235 282
#
# _framework density 18.236355
#
# number of rings (size 3 to 8) (size 9 to 14) (size 15 to 20)
#    0.000    2.833    0.000    2.500    0.000    4.667 
#    0.000    1.667    0.000    3.000    0.000    0.000 
#    0.000    0.000    0.000    0.000    0.000    0.000 
#
# Total GULP energy -267266.066733 kJ/mol
# GULP energy per Si atom -5568.043057 kJ/mol
# Density = 1.819485 g / cm^3
# Si number density = 18.236355 Si / 1000 Ang^3
#
#
#
# Elastic Constant Matrix: (Units=GPa)
#
#
# Indices 1 2 3 4 5 6 
#
# 1 51.1346 58.8211 35.1046 0.0000 0.0000 0.0000
# 2 58.8211 139.1593 52.8751 0.0000 0.0000 0.0000
# 3 35.1046 52.8751 55.6547 0.0000 0.0000 0.0000
# 4 0.0000 0.0000 0.0000 27.4572 0.0000 0.0000
# 5 0.0000 0.0000 0.0000 0.0000 8.1910 0.0000
# 6 0.0000 0.0000 0.0000 0.0000 0.0000 15.9504
#
#
#
# Elastic Compliance Matrix: (Units=1/GPa)
#
#
# Indices 1 2 3 4 5 6 
#
# 1 0.046089 -0.013201 -0.016530 0.000000 0.000000 0.000000
# 2 -0.013201 0.015026 -0.005949 0.000000 0.000000 0.000000
# 3 -0.016530 -0.005949 0.034046 0.000000 0.000000 0.000000
# 4 0.000000 0.000000 0.000000 0.036420 0.000000 0.000000
# 5 0.000000 0.000000 0.000000 0.000000 0.122085 0.000000
# 6 0.000000 0.000000 0.000000 0.000000 0.000000 0.062694
#
#
# Mechanical properties :
#
#
# Convention : Reuss Voigt Hill
#
# Bulk Modulus (GPa) = 42.01270 59.95000 50.98135
# Shear Modulus (GPa) = 12.63726 16.92958 14.78342
#
# Velocity S-wave (km/s) = 2.63529 3.05018 2.85029
# Velocity P-wave (km/s) = 5.68749 6.73424 6.23288
#
# Compressibility (1/GPa) = 0.02380232
#
# Stress axis : x y z
#
# Youngs Moduli (GPa) = 21.69710 66.54972 29.37168
#
# Poissons Ratio (x) = 0.87851 0.48550
# Poissons Ratio (y) = 0.28642 0.17474
# Poissons Ratio (z) = 0.35864 0.39593
#
# Static dielectric constant tensor:
#      x y z
#    x 1.661030 0.000000 0.000000 
#    y 0.000000 1.648560 0.000000 
#    z 0.000000 0.000000 1.638030 
# 
# From -- ./inp_files/8523.got.cif
#   From: 2010.05.17/outbox.cif.g08.bks.cpg/sg63_5_cif.got.tgz:8523.got - 2010.06.03 15:47:04.
