data_PCOD9470197
_publ_section_title
;
Structure prediction by ZEFSAII (Michael W. Deem and Ramdas Pophale) SiO2 
 PCOD9470197
Probable space group: C M C M
;
_chemical_formula_sum "Si O2"
_cell_formula_units_Z 112
_cell_length_a 20.819091
_cell_length_b 12.547169
_cell_length_c 22.975214
_cell_angle_alpha 90.000000
_cell_angle_beta 90.000000
_cell_angle_gamma 90.000000
_cell_volume 6001.600409
_symmetry_space_group_name_H-M "C M C M"
_symmetry_group_IT_number 63
_symmetry_cell_setting 'orthorhombic'
loop_
_space_group_symop_operation_xyz
x,y,z
-x,-y,1/2+z
x,-y,-z
-x,y,1/2-z
-x,-y,-z
x,y,1/2-z
-x,y,z
x,-y,1/2+z
1/2+x,1/2+y,z
1/2-x,1/2-y,1/2+z
1/2+x,1/2-y,-z
1/2-x,1/2+y,1/2-z
1/2-x,1/2-y,-z
1/2+x,1/2+y,1/2-z
1/2-x,1/2+y,z
1/2+x,1/2-y,1/2+z
loop_
_atom_site_type_symbol
_atom_site_label
_atom_site_fract_x
_atom_site_fract_y
_atom_site_fract_z
Si Si1 0.248009 0.281138 0.815367
Si Si2 0.925193 0.024686 0.433821
Si Si3 0.216504 0.527250 0.104982
Si Si4 0.928060 0.722812 0.578448
Si Si5 0.132090 0.619830 0.682907
Si Si6 0.829863 0.866364 0.393305
Si Si7 0.819340 0.304109 0.513114
O O1 0.236374 0.318790 0.750000
O O2 0.252825 0.379779 0.859075
O O3 0.311604 0.209200 0.816330
O O4 0.191400 0.203574 0.838202
O O5 0.919455 0.149480 0.420442
O O6 0.000000 0.995420 0.432172
O O7 0.901619 0.000000 0.500000
O O8 0.885144 0.953305 0.389341
O O9 0.162869 0.479910 0.148303
O O10 0.266110 0.433583 0.089555
O O11 0.190408 0.587524 0.048680
O O12 0.921955 0.670135 0.641806
O O13 0.867859 0.681982 0.540274
O O14 0.000000 0.701845 0.554537
O O15 0.115192 0.596469 0.750000
O O16 0.849652 0.782219 0.442612
O O17 0.750000 0.250000 0.500000
#
# Coordination Sequence:
#
# PCOD9470197 Si02
#       7
#    16  16  16  16  16  16  16
#     4   9  18  33  54  81 110 141 182 232 281 327
#     4  10  19  33  54  78 106 142 178 214 273 349
#     4  10  20  33  54  83 112 149 187 230 280 337
#     4  11  23  38  56  82 112 145 186 229 281 341
#     4  10  21  38  57  78 108 146 190 236 279 327
#     4  10  19  31  51  79 111 141 178 223 276 332
#     4  11  21  33  53  83 117 146 180 229 284 339
#
# _framework density 18.66169
#
# number of rings (size 3 to 8) (size 9 to 14) (size 15 to 20)
#    0.000    1.857    1.429    4.714    0.000    2.571 
#    0.000    2.143    0.000    2.143    0.000    0.000 
#    0.000    0.000    0.000    0.000    0.000    0.000 
#
# Total GULP energy -312466.330796 kJ/mol
# GULP energy per Si atom -5579.755907 kJ/mol
# Density = 1.861922 g / cm^3
# Si number density = 18.661690 Si / 1000 Ang^3
#
#
#
# Elastic Constant Matrix: (Units=GPa)
#
#
# Indices 1 2 3 4 5 6 
#
# 1 60.6653 8.2868 33.2028 0.0000 0.0000 0.0000
# 2 8.2868 69.0267 30.5439 0.0000 0.0000 0.0000
# 3 33.2028 30.5439 89.6599 0.0000 0.0000 0.0000
# 4 0.0000 0.0000 0.0000 33.3309 0.0000 0.0000
# 5 0.0000 0.0000 0.0000 0.0000 19.9439 0.0000
# 6 0.0000 0.0000 0.0000 0.0000 0.0000 26.0923
#
#
#
# Elastic Compliance Matrix: (Units=1/GPa)
#
#
# Indices 1 2 3 4 5 6 
#
# 1 0.020741 0.001070 -0.008045 0.000000 0.000000 0.000000
# 2 0.001070 0.017114 -0.006226 0.000000 0.000000 0.000000
# 3 -0.008045 -0.006226 0.016254 0.000000 0.000000 0.000000
# 4 0.000000 0.000000 0.000000 0.030002 0.000000 0.000000
# 5 0.000000 0.000000 0.000000 0.000000 0.050141 0.000000
# 6 0.000000 0.000000 0.000000 0.000000 0.000000 0.038325
#
#
# Mechanical properties :
#
#
# Convention : Reuss Voigt Hill
#
# Bulk Modulus (GPa) = 36.09420 40.37988 38.23704
# Shear Modulus (GPa) = 24.01361 25.69464 24.85413
#
# Velocity S-wave (km/s) = 3.59107 3.71464 3.65338
# Velocity P-wave (km/s) = 6.04795 6.33110 6.19115
#
# Compressibility (1/GPa) = 0.02770528
#
# Stress axis : x y z
#
# Youngs Moduli (GPa) = 48.21359 58.43237 61.52452
#
# Poissons Ratio (x) = -0.06252 0.49499
# Poissons Ratio (y) = -0.05159 0.38307
# Poissons Ratio (z) = 0.38789 0.36382
#
# Static dielectric constant tensor:
#      x y z
#    x 1.659270 0.000000 0.000000 
#    y 0.000000 1.657700 0.000000 
#    z 0.000000 0.000000 1.673720 
# 
# From -- ./inp_files/64643.got.cif
#   From: 2010.05.17/outbox.cif.g08.bks.cpg/sg63_33_cif.got.tgz:64643.got - 2010.06.03 15:47:04.
