data_PCOD9470824
_publ_section_title
;
Structure prediction by ZEFSAII (Michael W. Deem and Ramdas Pophale) SiO2 
 PCOD9470824
Probable space group: C M C M
;
_chemical_formula_sum "Si O2"
_cell_formula_units_Z 88
_cell_length_a 17.572273
_cell_length_b 16.592432
_cell_length_c 14.853584
_cell_angle_alpha 90.000000
_cell_angle_beta 90.000000
_cell_angle_gamma 90.000000
_cell_volume 4330.811136
_symmetry_space_group_name_H-M "C M C M"
_symmetry_group_IT_number 63
_symmetry_cell_setting 'orthorhombic'
loop_
_space_group_symop_operation_xyz
x,y,z
-x,-y,1/2+z
x,-y,-z
-x,y,1/2-z
-x,-y,-z
x,y,1/2-z
-x,y,z
x,-y,1/2+z
1/2+x,1/2+y,z
1/2-x,1/2-y,1/2+z
1/2+x,1/2-y,-z
1/2-x,1/2+y,1/2-z
1/2-x,1/2-y,-z
1/2+x,1/2+y,1/2-z
1/2-x,1/2+y,z
1/2+x,1/2-y,1/2+z
loop_
_atom_site_type_symbol
_atom_site_label
_atom_site_fract_x
_atom_site_fract_y
_atom_site_fract_z
Si Si1 0.916343 0.165295 0.585812
Si Si2 0.586965 0.597783 0.113521
Si Si3 0.799746 0.952411 0.349279
Si Si4 0.795303 0.234143 0.353056
Si Si5 0.656636 0.173376 0.471219
Si Si6 0.821572 0.500000 0.500000
O O1 0.913881 0.113025 0.493959
O O2 0.844085 0.132031 0.639356
O O3 0.902722 0.258168 0.558914
O O4 0.000000 0.154743 0.627258
O O5 0.500000 0.592795 0.143380
O O6 0.634237 0.519096 0.138258
O O7 0.632685 0.674201 0.150315
O O8 0.767076 0.959450 0.250000
O O9 0.735707 0.971188 0.421727
O O10 0.778562 0.258588 0.250000
O O11 0.727358 0.184606 0.402043
O O12 0.816293 0.301230 0.427923
O O13 0.633389 0.080187 0.471722
#
# Coordination Sequence:
#
# PCOD9470824 Si02
#       6
#    16  16  16  16  16   8
#     4  10  21  39  58  80 112 149 187 236 285 333
#     4  10  19  33  54  83 119 152 180 222 282 343
#     4  12  22  34  56  86 118 154 189 225 280 346
#     4  10  19  35  55  79 112 148 191 232 275 336
#     4  10  22  37  56  79 107 150 191 235 286 328
#     4  12  22  40  56  82 120 148 188 244 280 332
#
# _framework density 20.319519
#
# number of rings (size 3 to 8) (size 9 to 14) (size 15 to 20)
#    0.000    1.455    3.636    3.273    0.000    6.909 
#    0.000    0.455    0.000    0.000    0.000    0.000 
#    0.000    4.364    0.000    0.000    0.000    0.000 
#
# Total GULP energy -245739.124434 kJ/mol
# GULP energy per Si atom -5584.980101 kJ/mol
# Density = 2.027327 g / cm^3
# Si number density = 20.319519 Si / 1000 Ang^3
#
#
#
# Elastic Constant Matrix: (Units=GPa)
#
#
# Indices 1 2 3 4 5 6 
#
# 1 25.8568 1.7007 13.9360 0.0000 0.0000 0.0000
# 2 1.7007 128.8069 6.9696 0.0000 0.0000 0.0000
# 3 13.9360 6.9696 105.2180 0.0000 0.0000 0.0000
# 4 0.0000 0.0000 0.0000 5.0433 0.0000 0.0000
# 5 0.0000 0.0000 0.0000 0.0000 -22.0319 0.0000
# 6 0.0000 0.0000 0.0000 0.0000 0.0000 19.6557
#
#
#
# Elastic Compliance Matrix: (Units=1/GPa)
#
#
# Indices 1 2 3 4 5 6 
#
# 1 0.041656 -0.000252 -0.005501 0.000000 0.000000 0.000000
# 2 -0.000252 0.007793 -0.000483 0.000000 0.000000 0.000000
# 3 -0.005501 -0.000483 0.010265 0.000000 0.000000 0.000000
# 4 0.000000 0.000000 0.000000 0.198284 0.000000 0.000000
# 5 0.000000 0.000000 0.000000 0.000000 -0.045389 0.000000
# 6 0.000000 0.000000 0.000000 0.000000 0.000000 0.050876
#
#
# Mechanical properties :
#
#
# Convention : Reuss Voigt Hill
#
# Bulk Modulus (GPa) = 21.16760 33.89936 27.53348
# Shear Modulus (GPa) = 17.14070 16.35178 16.74624
#
# Velocity S-wave (km/s) = 2.90756 2.83986 2.87391
# Velocity P-wave (km/s) = 4.65960 5.24142 4.95905
#
# Compressibility (1/GPa) = 0.04724201
#
# Stress axis : x y z
#
# Youngs Moduli (GPa) = 24.00626 128.32005 97.42221
#
# Poissons Ratio (x) = 0.03239 0.53588
# Poissons Ratio (y) = 0.00606 0.04703
# Poissons Ratio (z) = 0.13205 0.06195
#
# Static dielectric constant tensor:
#      x y z
#    x 1.698650 0.000000 0.000000 
#    y 0.000000 1.772540 0.000000 
#    z 0.000000 0.000000 1.755520 
# 
# From -- ./inp_files/35226.got.cif
#   From: 2010.05.17/outbox.cif.g08.bks.cpg/sg63_18_cif.got.tgz:35226.got - 2010.06.03 15:47:04.
