data_PCOD9470648
_publ_section_title
;
Structure prediction by ZEFSAII (Michael W. Deem and Ramdas Pophale) SiO2 
 PCOD9470648
Probable space group: C M C M
;
_chemical_formula_sum "Si O2"
_cell_formula_units_Z 112
_cell_length_a 28.566549
_cell_length_b 14.645199
_cell_length_c 14.803123
_cell_angle_alpha 90.000000
_cell_angle_beta 90.000000
_cell_angle_gamma 90.000000
_cell_volume 6193.075911
_symmetry_space_group_name_H-M "C M C M"
_symmetry_group_IT_number 63
_symmetry_cell_setting 'orthorhombic'
loop_
_space_group_symop_operation_xyz
x,y,z
-x,-y,1/2+z
x,-y,-z
-x,y,1/2-z
-x,-y,-z
x,y,1/2-z
-x,y,z
x,-y,1/2+z
1/2+x,1/2+y,z
1/2-x,1/2-y,1/2+z
1/2+x,1/2-y,-z
1/2-x,1/2+y,1/2-z
1/2-x,1/2-y,-z
1/2+x,1/2+y,1/2-z
1/2-x,1/2+y,z
1/2+x,1/2-y,1/2+z
loop_
_atom_site_type_symbol
_atom_site_label
_atom_site_fract_x
_atom_site_fract_y
_atom_site_fract_z
Si Si1 0.631422 0.652653 0.645858
Si Si2 0.054723 0.889762 0.004281
Si Si3 0.322493 0.539316 0.354351
Si Si4 0.677943 0.143214 0.853622
Si Si5 0.779277 0.463425 0.858867
Si Si6 0.886702 0.800602 0.639553
Si Si7 0.270985 0.750485 0.900334
O O1 0.621902 0.680139 0.750000
O O2 0.587767 0.658907 0.578658
O O3 0.643306 0.545220 0.645251
O O4 0.679954 0.699352 0.614822
O O5 0.067784 0.838975 0.910352
O O6 0.000000 0.879829 0.025091
O O7 0.064083 0.000000 0.000000
O O8 0.313072 0.564063 0.250000
O O9 0.272773 0.512657 0.393173
O O10 0.347227 0.627032 0.393641
O O11 0.663891 0.129831 0.750000
O O12 0.635835 0.204875 0.891548
O O13 0.727268 0.199895 0.850865
O O14 0.687510 0.043807 0.895861
O O15 0.781529 0.474870 0.750000
O O16 0.782409 0.355706 0.876180
O O17 0.890690 0.803579 0.750000
O O18 0.250000 0.750000 0.000000
#
# Coordination Sequence:
#
# PCOD9470648 Si02
#       7
#    16  16  16  16  16  16  16
#     4  11  22  37  55  77 110 155 196 232 283 341
#     4  11  24  39  57  82 109 139 185 242 294 351
#     4   9  16  28  51  75 105 147 184 220 264 323
#     4  10  19  33  53  76 107 146 186 220 263 326
#     4  10  19  33  51  75 110 151 190 225 259 314
#     4  10  19  35  57  82 113 150 183 224 286 349
#     4  12  23  32  49  79 115 152 190 230 269 325
#
# _framework density 18.084713000000001
#
# number of rings (size 3 to 8) (size 9 to 14) (size 15 to 20)
#    0.000    1.571    4.286    2.143    0.000    1.143 
#    0.000    1.429    0.000    0.000    0.000    2.000 
#    0.000    3.429    0.000    0.000    0.000    0.000 
#
# Total GULP energy -311886.081509 kJ/mol
# GULP energy per Si atom -5569.394313 kJ/mol
# Density = 1.804355 g / cm^3
# Si number density = 18.084713 Si / 1000 Ang^3
#
#
#
# Elastic Constant Matrix: (Units=GPa)
#
#
# Indices 1 2 3 4 5 6 
#
# 1 78.3747 13.1532 30.3178 0.0000 0.0000 0.0000
# 2 13.1532 81.6206 10.3603 0.0000 0.0000 0.0000
# 3 30.3178 10.3603 74.8524 0.0000 0.0000 0.0000
# 4 0.0000 0.0000 0.0000 15.8924 0.0000 0.0000
# 5 0.0000 0.0000 0.0000 0.0000 20.2050 0.0000
# 6 0.0000 0.0000 0.0000 0.0000 0.0000 25.5628
#
#
#
# Elastic Compliance Matrix: (Units=1/GPa)
#
#
# Indices 1 2 3 4 5 6 
#
# 1 0.015362 -0.001716 -0.005985 0.000000 0.000000 0.000000
# 2 -0.001716 0.012663 -0.001058 0.000000 0.000000 0.000000
# 3 -0.005985 -0.001058 0.015930 0.000000 0.000000 0.000000
# 4 0.000000 0.000000 0.000000 0.062923 0.000000 0.000000
# 5 0.000000 0.000000 0.000000 0.000000 0.049493 0.000000
# 6 0.000000 0.000000 0.000000 0.000000 0.000000 0.039119
#
#
# Mechanical properties :
#
#
# Convention : Reuss Voigt Hill
#
# Bulk Modulus (GPa) = 37.82398 38.05671 37.94035
# Shear Modulus (GPa) = 22.54085 24.39980 23.47033
#
# Velocity S-wave (km/s) = 3.53427 3.67712 3.60641
# Velocity P-wave (km/s) = 6.13311 6.25441 6.19406
#
# Compressibility (1/GPa) = 0.02643825
#
# Stress axis : x y z
#
# Youngs Moduli (GPa) = 65.09451 78.97286 62.77454
#
# Poissons Ratio (x) = 0.13552 0.37569
# Poissons Ratio (y) = 0.11170 0.06639
# Poissons Ratio (z) = 0.38957 0.08352
#
# Static dielectric constant tensor:
#      x y z
#    x 1.623360 0.000000 0.000000 
#    y 0.000000 1.688780 0.000000 
#    z 0.000000 0.000000 1.700180 
# 
# From -- ./inp_files/37933.got.cif
#   From: 2010.05.17/outbox.cif.g08.bks.cpg/sg63_19_cif.got.tgz:37933.got - 2010.06.03 15:47:04.
