data_PCOD9470915
_publ_section_title
;
Structure prediction by ZEFSAII (Michael W. Deem and Ramdas Pophale) SiO2 
 PCOD9470915
Probable space group: C M C M
;
_chemical_formula_sum "Si O2"
_cell_formula_units_Z 80
_cell_length_a 23.456805
_cell_length_b 11.000763
_cell_length_c 14.559821
_cell_angle_alpha 90.000000
_cell_angle_beta 90.000000
_cell_angle_gamma 90.000000
_cell_volume 3757.056287
_symmetry_space_group_name_H-M "C M C M"
_symmetry_group_IT_number 63
_symmetry_cell_setting 'orthorhombic'
loop_
_space_group_symop_operation_xyz
x,y,z
-x,-y,1/2+z
x,-y,-z
-x,y,1/2-z
-x,-y,-z
x,y,1/2-z
-x,y,z
x,-y,1/2+z
1/2+x,1/2+y,z
1/2-x,1/2-y,1/2+z
1/2+x,1/2-y,-z
1/2-x,1/2+y,1/2-z
1/2-x,1/2-y,-z
1/2+x,1/2+y,1/2-z
1/2-x,1/2+y,z
1/2+x,1/2-y,1/2+z
loop_
_atom_site_type_symbol
_atom_site_label
_atom_site_fract_x
_atom_site_fract_y
_atom_site_fract_z
Si Si1 0.171710 0.907930 0.145928
Si Si2 0.898272 0.869904 0.851473
Si Si3 0.605984 0.789956 0.519959
Si Si4 0.000000 0.323423 0.860447
Si Si5 0.000000 0.035786 0.607468
Si Si6 0.225132 0.372664 0.044124
O O1 0.153319 0.888071 0.250000
O O2 0.136275 0.815190 0.081975
O O3 0.239120 0.880116 0.137960
O O4 0.157443 0.049686 0.123813
O O5 0.891462 0.814786 0.750000
O O6 0.945402 0.973805 0.849551
O O7 0.918247 0.779435 0.930814
O O8 0.558032 0.856545 0.582154
O O9 0.657731 0.864214 0.473053
O O10 0.000000 0.353208 0.750000
O O11 0.000000 0.177426 0.872518
O O12 0.000000 0.000000 0.500000
O O13 0.242882 0.500000 0.000000
O O14 0.250000 0.250000 0.000000
#
# Coordination Sequence:
#
# PCOD9470915 Si02
#       6
#    16  16  16   8   8  16
#     4  10  19  33  56  86 119 160 206 256 311 372
#     4  11  20  31  53  86 125 166 208 258 316 372
#     4  11  21  36  56  84 125 162 206 259 313 372
#     4  12  22  35  57  89 124 168 214 260 312 376
#     4  12  18  31  53  84 130 165 210 258 322 365
#     4  10  22  41  63  87 122 164 208 258 313 371
#
# _framework density 21.293265999999999
#
# number of rings (size 3 to 8) (size 9 to 14) (size 15 to 20)
#    0.000    1.200    4.000    4.500    0.000    0.800 
#    0.000    7.500    0.000    0.000    0.000    0.000 
#    0.000    0.000    0.000    0.000    0.000    0.000 
#
# Total GULP energy -222721.491227 kJ/mol
# GULP energy per Si atom -5568.037281 kJ/mol
# Density = 2.124480 g / cm^3
# Si number density = 21.293266 Si / 1000 Ang^3
#
#
#
# Elastic Constant Matrix: (Units=GPa)
#
#
# Indices 1 2 3 4 5 6 
#
# 1 125.3142 -0.2884 45.4582 0.0000 0.0000 0.0000
# 2 -0.2884 30.7386 -6.2973 0.0000 0.0000 0.0000
# 3 45.4582 -6.2973 115.7130 0.0000 0.0000 0.0000
# 4 0.0000 0.0000 0.0000 10.0819 0.0000 0.0000
# 5 0.0000 0.0000 0.0000 0.0000 24.7548 0.0000
# 6 0.0000 0.0000 0.0000 0.0000 0.0000 10.0579
#
#
#
# Elastic Compliance Matrix: (Units=1/GPa)
#
#
# Indices 1 2 3 4 5 6 
#
# 1 0.009320 -0.000670 -0.003698 0.000000 0.000000 0.000000
# 2 -0.000670 0.032947 0.002056 0.000000 0.000000 0.000000
# 3 -0.003698 0.002056 0.010207 0.000000 0.000000 0.000000
# 4 0.000000 0.000000 0.000000 0.099188 0.000000 0.000000
# 5 0.000000 0.000000 0.000000 0.000000 0.040396 0.000000
# 6 0.000000 0.000000 0.000000 0.000000 0.000000 0.099424
#
#
# Mechanical properties :
#
#
# Convention : Reuss Voigt Hill
#
# Bulk Modulus (GPa) = 20.89835 38.83453 29.86644
# Shear Modulus (GPa) = 16.02279 24.50513 20.26396
#
# Velocity S-wave (km/s) = 2.74612 3.39608 3.08825
# Velocity P-wave (km/s) = 4.45990 5.80133 5.17427
#
# Compressibility (1/GPa) = 0.04785068
#
# Stress axis : x y z
#
# Youngs Moduli (GPa) = 107.29869 30.35141 97.97522
#
# Poissons Ratio (x) = 0.02034 0.36229
# Poissons Ratio (y) = 0.07190 -0.20147
# Poissons Ratio (z) = 0.39677 -0.06241
#
# Static dielectric constant tensor:
#      x y z
#    x 1.899190 0.000000 0.000000 
#    y 0.000000 1.853290 0.000000 
#    z 0.000000 0.000000 1.779730 
# 
# From -- ./inp_files/36515.got.cif
#   From: 2010.05.17/outbox.cif.g08.bks.cpg/sg63_19_cif.got.tgz:36515.got - 2010.06.03 15:47:04.
