data_PCOD9470190
_publ_section_title
;
Structure prediction by ZEFSAII (Michael W. Deem and Ramdas Pophale) SiO2 
 PCOD9470190
Probable space group: C M C M
;
_chemical_formula_sum "Si O2"
_cell_formula_units_Z 96
_cell_length_a 8.193313
_cell_length_b 26.175657
_cell_length_c 24.373838
_cell_angle_alpha 90.000000
_cell_angle_beta 90.000000
_cell_angle_gamma 90.000000
_cell_volume 5227.343717
_symmetry_space_group_name_H-M "C M C M"
_symmetry_group_IT_number 63
_symmetry_cell_setting 'orthorhombic'
loop_
_space_group_symop_operation_xyz
x,y,z
-x,-y,1/2+z
x,-y,-z
-x,y,1/2-z
-x,-y,-z
x,y,1/2-z
-x,y,z
x,-y,1/2+z
1/2+x,1/2+y,z
1/2-x,1/2-y,1/2+z
1/2+x,1/2-y,-z
1/2-x,1/2+y,1/2-z
1/2-x,1/2-y,-z
1/2+x,1/2+y,1/2-z
1/2-x,1/2+y,z
1/2+x,1/2-y,1/2+z
loop_
_atom_site_type_symbol
_atom_site_label
_atom_site_fract_x
_atom_site_fract_y
_atom_site_fract_z
Si Si1 0.699761 0.153189 0.885853
Si Si2 0.305015 0.555796 0.187458
Si Si3 0.302938 0.941188 0.312759
Si Si4 0.303263 0.751181 0.312239
Si Si5 0.194790 0.347133 0.621236
Si Si6 0.302563 0.190928 0.496727
O O1 0.500000 0.152817 0.885810
O O2 0.754152 0.101765 0.855307
O O3 0.753175 0.202178 0.850311
O O4 0.752882 0.161616 0.948429
O O5 0.245029 0.566356 0.250000
O O6 0.500000 0.557473 0.188621
O O7 0.250760 0.498459 0.173134
O O8 0.244884 0.598502 0.145646
O O9 0.248235 0.930204 0.250000
O O10 0.500000 0.939880 0.312366
O O11 0.242576 0.755703 0.250000
O O12 0.500000 0.753907 0.310651
O O13 0.256346 0.697575 0.338912
O O14 0.256149 0.334494 0.559859
O O15 0.000000 0.344818 0.619820
O O16 0.500000 0.190113 0.496553
O O17 0.250000 0.250000 0.500000
#
# Coordination Sequence:
#
# PCOD9470190 Si02
#       6
#    16  16  16  16  16  16
#     4   9  17  32  54  78 105 136 173 214 258 311
#     4  10  21  37  56  77 103 138 176 214 263 318
#     4   9  17  32  56  82 105 132 169 215 265 313
#     4  10  19  31  51  78 106 137 172 212 261 316
#     4  11  22  34  51  77 106 138 178 218 260 308
#     4  10  20  35  54  76 104 142 181 215 257 308
#
# _framework density 18.364968000000001
#
# number of rings (size 3 to 8) (size 9 to 14) (size 15 to 20)
#    0.000    2.167    1.667    2.000    0.000    6.000 
#    0.000    2.500    0.000    7.000    0.000    0.000 
#    0.000    0.000    0.000    0.000    0.000    0.000 
#
# Total GULP energy -267919.462195 kJ/mol
# GULP energy per Si atom -5581.655462 kJ/mol
# Density = 1.832317 g / cm^3
# Si number density = 18.364968 Si / 1000 Ang^3
#
#
#
# Elastic Constant Matrix: (Units=GPa)
#
#
# Indices 1 2 3 4 5 6 
#
# 1 4.2510 -5.5427 5.5871 0.0000 0.0000 0.0000
# 2 -5.5427 101.7181 69.7347 0.0000 0.0000 0.0000
# 3 5.5871 69.7347 130.2670 0.0000 0.0000 0.0000
# 4 0.0000 0.0000 0.0000 39.0017 0.0000 0.0000
# 5 0.0000 0.0000 0.0000 0.0000 16.4735 0.0000
# 6 0.0000 0.0000 0.0000 0.0000 0.0000 27.3300
#
#
#
# Elastic Compliance Matrix: (Units=1/GPa)
#
#
# Indices 1 2 3 4 5 6 
#
# 1 0.347181 0.046014 -0.039522 0.000000 0.000000 0.000000
# 2 0.046014 0.021629 -0.013552 0.000000 0.000000 0.000000
# 3 -0.039522 -0.013552 0.016626 0.000000 0.000000 0.000000
# 4 0.000000 0.000000 0.000000 0.025640 0.000000 0.000000
# 5 0.000000 0.000000 0.000000 0.000000 0.060704 0.000000
# 6 0.000000 0.000000 0.000000 0.000000 0.000000 0.036590
#
#
# Mechanical properties :
#
#
# Convention : Reuss Voigt Hill
#
# Bulk Modulus (GPa) = 2.69313 41.75491 22.22402
# Shear Modulus (GPa) = 7.73678 27.65818 17.69748
#
# Velocity S-wave (km/s) = 2.05474 3.88497 3.10765
# Velocity P-wave (km/s) = 2.66437 6.55054 5.00042
#
# Compressibility (1/GPa) = 0.37131459
#
# Stress axis : x y z
#
# Youngs Moduli (GPa) = 2.88034 46.23348 60.14531
#
# Poissons Ratio (x) = -2.12737 2.37709
# Poissons Ratio (y) = -0.13253 0.81510
# Poissons Ratio (z) = 0.11384 0.62656
#
# Static dielectric constant tensor:
#      x y z
#    x 1.652580 0.000000 0.000000 
#    y 0.000000 1.594910 0.000000 
#    z 0.000000 0.000000 1.642380 
# 
# From -- ./inp_files/59825.got.cif
#   From: 2010.05.17/outbox.cif.g08.bks.cpg/sg63_30_cif.got.tgz:59825.got - 2010.06.03 15:47:04.
