data_PCOD9470972
_publ_section_title
;
Structure prediction by ZEFSAII (Michael W. Deem and Ramdas Pophale) SiO2 
 PCOD9470972
Probable space group: C M C M
;
_chemical_formula_sum "Si O2"
_cell_formula_units_Z 104
_cell_length_a 32.551239
_cell_length_b 20.796134
_cell_length_c 9.095913
_cell_angle_alpha 90.000000
_cell_angle_beta 90.000000
_cell_angle_gamma 90.000000
_cell_volume 6157.386692
_symmetry_space_group_name_H-M "C M C M"
_symmetry_group_IT_number 63
_symmetry_cell_setting 'orthorhombic'
loop_
_space_group_symop_operation_xyz
x,y,z
-x,-y,1/2+z
x,-y,-z
-x,y,1/2-z
-x,-y,-z
x,y,1/2-z
-x,y,z
x,-y,1/2+z
1/2+x,1/2+y,z
1/2-x,1/2-y,1/2+z
1/2+x,1/2-y,-z
1/2-x,1/2+y,1/2-z
1/2-x,1/2-y,-z
1/2+x,1/2+y,1/2-z
1/2-x,1/2+y,z
1/2+x,1/2-y,1/2+z
loop_
_atom_site_type_symbol
_atom_site_label
_atom_site_fract_x
_atom_site_fract_y
_atom_site_fract_z
Si Si1 0.567535 0.648631 0.919110
Si Si2 0.132312 0.678456 0.925247
Si Si3 0.453354 0.799204 0.921462
Si Si4 0.651545 0.673723 0.425935
Si Si5 0.781849 0.932640 0.925620
Si Si6 0.000000 0.932222 0.577427
Si Si7 0.185633 0.567762 0.073605
O O1 0.565200 0.627121 0.750000
O O2 0.551093 0.721795 0.924961
O O3 0.613416 0.648177 0.980329
O O4 0.539367 0.606377 0.022150
O O5 0.132822 0.668705 0.750000
O O6 0.151767 0.749466 0.955093
O O7 0.085287 0.676881 0.983851
O O8 0.158606 0.624722 0.007376
O O9 0.448543 0.818693 0.750000
O O10 0.500000 0.816271 0.968797
O O11 0.644055 0.666978 0.250000
O O12 0.690778 0.629705 0.463543
O O13 0.784653 0.941287 0.750000
O O14 0.733928 0.921657 0.962282
O O15 0.795033 0.000000 0.000000
O O16 0.000000 0.939084 0.750000
O O17 0.000000 0.000000 0.500000
O O18 0.181433 0.564621 0.250000
O O19 0.173798 0.500000 0.000000
#
# Coordination Sequence:
#
# PCOD9470972 Si02
#       7
#    16  16  16  16  16   8  16
#     4  10  19  34  52  73 100 132 171 217 265 313
#     4  10  20  33  52  81 111 140 177 220 264 316
#     4   9  17  32  54  77 104 137 171 211 256 309
#     4   9  19  35  52  76 109 142 177 221 268 315
#     4   9  19  35  54  75 103 140 183 223 266 318
#     4  12  24  36  50  68  94 132 177 222 269 318
#     4  10  20  36  57  79 105 140 177 218 266 321
#
# _framework density 16.890284000000001
#
# number of rings (size 3 to 8) (size 9 to 14) (size 15 to 20)
#    0.000    2.308    0.769    2.077    0.000    4.000 
#    0.000    1.538    0.000    0.462    0.000    0.000 
#    0.000    0.000    0.000    0.000    0.000    0.000 
#
# Total GULP energy -289951.843648 kJ/mol
# GULP energy per Si atom -5575.996993 kJ/mol
# Density = 1.685184 g / cm^3
# Si number density = 16.890284 Si / 1000 Ang^3
#
#
#
# Elastic Constant Matrix: (Units=GPa)
#
#
# Indices 1 2 3 4 5 6 
#
# 1 105.9362 73.0036 57.2370 0.0000 0.0000 0.0000
# 2 73.0036 92.4181 63.1353 0.0000 0.0000 0.0000
# 3 57.2370 63.1353 93.5413 0.0000 0.0000 0.0000
# 4 0.0000 0.0000 0.0000 29.8222 0.0000 0.0000
# 5 0.0000 0.0000 0.0000 0.0000 32.4010 0.0000
# 6 0.0000 0.0000 0.0000 0.0000 0.0000 30.1124
#
#
#
# Elastic Compliance Matrix: (Units=1/GPa)
#
#
# Indices 1 2 3 4 5 6 
#
# 1 0.021190 -0.014624 -0.003096 0.000000 0.000000 0.000000
# 2 -0.014624 0.030170 -0.011415 0.000000 0.000000 0.000000
# 3 -0.003096 -0.011415 0.020289 0.000000 0.000000 0.000000
# 4 0.000000 0.000000 0.000000 0.033532 0.000000 0.000000
# 5 0.000000 0.000000 0.000000 0.000000 0.030863 0.000000
# 6 0.000000 0.000000 0.000000 0.000000 0.000000 0.033209
#
#
# Mechanical properties :
#
#
# Convention : Reuss Voigt Hill
#
# Bulk Modulus (GPa) = 74.73654 75.40530 75.07092
# Shear Modulus (GPa) = 21.55332 25.03509 23.29420
#
# Velocity S-wave (km/s) = 3.57610 3.85414 3.71772
# Velocity P-wave (km/s) = 7.83554 8.03411 7.93544
#
# Compressibility (1/GPa) = 0.01338034
#
# Stress axis : x y z
#
# Youngs Moduli (GPa) = 47.19269 33.14520 49.28680
#
# Poissons Ratio (x) = 0.48470 0.15258
# Poissons Ratio (y) = 0.69012 0.56262
# Poissons Ratio (z) = 0.14609 0.37836
#
# Static dielectric constant tensor:
#      x y z
#    x 1.568280 0.000000 0.000000 
#    y 0.000000 1.477290 0.000000 
#    z 0.000000 0.000000 1.561050 
# 
# From -- ./inp_files/12837.got.cif
#   From: 2010.05.17/outbox.cif.g08.bks.cpg/sg63_7_cif.got.tgz:12837.got - 2010.06.03 15:47:04.
