data_PCOD9470879
_publ_section_title
;
Structure prediction by ZEFSAII (Michael W. Deem and Ramdas Pophale) SiO2 
 PCOD9470879
Probable space group: C M C M
;
_chemical_formula_sum "Si O2"
_cell_formula_units_Z 128
_cell_length_a 11.466345
_cell_length_b 23.740499
_cell_length_c 25.348507
_cell_angle_alpha 90.000000
_cell_angle_beta 90.000000
_cell_angle_gamma 90.000000
_cell_volume 6900.288244
_symmetry_space_group_name_H-M "C M C M"
_symmetry_group_IT_number 63
_symmetry_cell_setting 'orthorhombic'
loop_
_space_group_symop_operation_xyz
x,y,z
-x,-y,1/2+z
x,-y,-z
-x,y,1/2-z
-x,-y,-z
x,y,1/2-z
-x,y,z
x,-y,1/2+z
1/2+x,1/2+y,z
1/2-x,1/2-y,1/2+z
1/2+x,1/2-y,-z
1/2-x,1/2+y,1/2-z
1/2-x,1/2-y,-z
1/2+x,1/2+y,1/2-z
1/2-x,1/2+y,z
1/2+x,1/2-y,1/2+z
loop_
_atom_site_type_symbol
_atom_site_label
_atom_site_fract_x
_atom_site_fract_y
_atom_site_fract_z
Si Si1 0.367931 0.297554 0.691381
Si Si2 0.798540 0.106951 0.386519
Si Si3 0.131460 0.629140 0.541060
Si Si4 0.639946 0.510794 0.187742
Si Si5 0.133587 0.932106 0.497338
Si Si6 0.756756 0.294532 0.120339
Si Si7 0.868430 0.694889 0.067191
Si Si8 0.638551 0.617726 0.691351
O O1 0.327500 0.314156 0.750000
O O2 0.500000 0.278022 0.694914
O O3 0.365703 0.349700 0.651285
O O4 0.296752 0.246859 0.666536
O O5 0.855597 0.092428 0.442994
O O6 0.682511 0.142202 0.399870
O O7 0.791402 0.050808 0.351991
O O8 0.250413 0.591671 0.533034
O O9 0.146345 0.666725 0.593138
O O10 0.134800 0.672894 0.492352
O O11 0.000000 0.602439 0.539741
O O12 0.655643 0.524312 0.250000
O O13 0.500000 0.516407 0.176903
O O14 0.676838 0.446117 0.179606
O O15 0.000000 0.918528 0.477570
O O16 0.141624 0.000000 0.500000
O O17 0.704035 0.251427 0.077483
O O18 0.669464 0.338343 0.146682
O O19 0.000000 0.706728 0.083287
O O20 0.683468 0.633693 0.750000
O O21 0.500000 0.614207 0.695099
#
# Coordination Sequence:
#
# PCOD9470879 Si02
#       8
#    16  16  16  16  16  16  16  16
#     4  10  20  33  52  79 107 137 177 226 280 334
#     4  10  19  33  56  79 108 143 177 230 285 339
#     4  10  22  39  56  79 115 153 191 232 284 346
#     4   9  17  30  51  78 106 137 176 225 280 338
#     4  10  22  37  56  85 116 147 192 245 290 336
#     4  11  20  33  56  80 106 144 188 230 277 335
#     4   9  20  37  54  78 109 145 187 232 280 337
#     4   9  19  33  50  77 111 143 178 227 285 342
#
# _framework density 18.549951
#
# number of rings (size 3 to 8) (size 9 to 14) (size 15 to 20)
#    0.000    2.250    0.000    3.750    1.750    2.250 
#    0.000    3.125    0.000    7.500    0.000    3.500 
#    0.000    0.000    0.000    0.000    0.000    0.000 
#
# Total GULP energy -356359.447189 kJ/mol
# GULP energy per Si atom -5568.116362 kJ/mol
# Density = 1.850773 g / cm^3
# Si number density = 18.549951 Si / 1000 Ang^3
#
#
#
# Elastic Constant Matrix: (Units=GPa)
#
#
# Indices 1 2 3 4 5 6 
#
# 1 81.6939 28.5722 9.6284 0.0000 0.0000 0.0000
# 2 28.5722 75.6114 25.3982 0.0000 0.0000 0.0000
# 3 9.6284 25.3982 38.5779 0.0000 0.0000 0.0000
# 4 0.0000 0.0000 0.0000 -0.9364 0.0000 0.0000
# 5 0.0000 0.0000 0.0000 0.0000 7.2109 0.0000
# 6 0.0000 0.0000 0.0000 0.0000 0.0000 8.3600
#
#
#
# Elastic Compliance Matrix: (Units=1/GPa)
#
#
# Indices 1 2 3 4 5 6 
#
# 1 0.014105 -0.005325 -0.000014 0.000000 0.000000 0.000000
# 2 -0.005325 0.018991 -0.011174 0.000000 0.000000 0.000000
# 3 -0.000014 -0.011174 0.033282 0.000000 0.000000 0.000000
# 4 0.000000 0.000000 0.000000 -1.067955 0.000000 0.000000
# 5 0.000000 0.000000 0.000000 0.000000 0.138679 0.000000
# 6 0.000000 0.000000 0.000000 0.000000 0.000000 0.119617
#
#
# Mechanical properties :
#
#
# Convention : Reuss Voigt Hill
#
# Bulk Modulus (GPa) = 29.98445 35.89785 32.94115
# Shear Modulus (GPa) = -7.15167 11.74587 2.29710
#
# Velocity S-wave (km/s) = -1.96564 2.51908 1.11401
# Velocity P-wave (km/s) = 3.32380 5.27779 4.41037
#
# Compressibility (1/GPa) = 0.03335062
#
# Stress axis : x y z
#
# Youngs Moduli (GPa) = 70.89698 52.65600 30.04655
#
# Poissons Ratio (x) = 0.28040 0.00044
# Poissons Ratio (y) = 0.37754 0.33574
# Poissons Ratio (z) = 0.00103 0.58838
#
# Static dielectric constant tensor:
#      x y z
#    x 1.664720 0.000000 0.000000 
#    y 0.000000 1.633400 0.000000 
#    z 0.000000 0.000000 1.678420 
# 
# From -- ./inp_files/62025.got.cif
#   From: 2010.05.17/outbox.cif.g08.bks.cpg/sg63_32_cif.got.tgz:62025.got - 2010.06.03 15:47:04.
