data_PCOD9470491
_publ_section_title
;
Structure prediction by ZEFSAII (Michael W. Deem and Ramdas Pophale) SiO2 
 PCOD9470491
Probable space group: C M C M
;
_chemical_formula_sum "Si O2"
_cell_formula_units_Z 116
_cell_length_a 18.891244
_cell_length_b 22.462679
_cell_length_c 14.183101
_cell_angle_alpha 90.000000
_cell_angle_beta 90.000000
_cell_angle_gamma 90.000000
_cell_volume 6018.569832
_symmetry_space_group_name_H-M "C M C M"
_symmetry_group_IT_number 63
_symmetry_cell_setting 'orthorhombic'
loop_
_space_group_symop_operation_xyz
x,y,z
-x,-y,1/2+z
x,-y,-z
-x,y,1/2-z
-x,-y,-z
x,y,1/2-z
-x,y,z
x,-y,1/2+z
1/2+x,1/2+y,z
1/2-x,1/2-y,1/2+z
1/2+x,1/2-y,-z
1/2-x,1/2+y,1/2-z
1/2-x,1/2-y,-z
1/2+x,1/2+y,1/2-z
1/2-x,1/2+y,z
1/2+x,1/2-y,1/2+z
loop_
_atom_site_type_symbol
_atom_site_label
_atom_site_fract_x
_atom_site_fract_y
_atom_site_fract_z
Si Si1 0.000000 0.972956 0.250000
Si Si2 0.080706 0.834418 0.388529
Si Si3 0.376711 0.510306 0.110509
Si Si4 0.199154 0.661777 0.002359
Si Si5 0.698169 0.730125 0.356274
Si Si6 0.416317 0.192490 0.357654
Si Si7 0.580529 0.642046 0.111259
Si Si8 0.277808 0.410093 0.147022
O O1 0.938485 0.979073 0.168750
O O2 0.093535 0.764086 0.371920
O O3 0.078597 0.848239 0.499045
O O4 0.149866 0.869924 0.354323
O O5 0.000000 0.848278 0.351713
O O6 0.380526 0.580142 0.131885
O O7 0.304638 0.477453 0.136936
O O8 0.389553 0.500000 0.000000
O O9 0.193059 0.711438 0.920169
O O10 0.231569 0.607374 0.943676
O O11 0.253414 0.685931 0.081652
O O12 0.127027 0.658548 0.061590
O O13 0.725097 0.740951 0.250000
O O14 0.622805 0.697857 0.350269
O O15 0.394478 0.178172 0.250000
O O16 0.500000 0.181755 0.366040
O O17 0.500000 0.636667 0.144247
O O18 0.243992 0.400819 0.250000
#
# Coordination Sequence:
#
# PCOD9470491 Si02
#       8
#     4  16  16  16  16  16  16  16
#     4  12  26  36  56  82 108 176 212 272 300 336
#     4  10  19  32  52  79 112 153 196 247 292 333
#     4  12  24  40  55  79 117 160 212 263 301 333
#     4  11  21  40  53  78 113 152 195 252 307 356
#     4  11  22  34  55  77 107 156 202 245 301 357
#     4  10  20  36  61  90 114 142 188 246 304 371
#     4  11  22  36  55  79 117 159 202 249 291 340
#     4  12  24  37  56  80 110 161 217 256 296 348
#
# _framework density 19.273682000000001
#
# number of rings (size 3 to 8) (size 9 to 14) (size 15 to 20)
#    0.000    0.966    5.517    2.276    1.931    1.103 
#    0.000    0.000    0.000    1.241    0.000    0.000 
#    0.000    4.966    0.000    5.793    0.000    1.103 
#
# Total GULP energy -323520.838088 kJ/mol
# GULP energy per Si atom -5577.945484 kJ/mol
# Density = 1.922981 g / cm^3
# Si number density = 19.273682 Si / 1000 Ang^3
#
#
#
# Elastic Constant Matrix: (Units=GPa)
#
#
# Indices 1 2 3 4 5 6 
#
# 1 57.2116 26.3153 35.1990 0.0000 0.0000 0.0000
# 2 26.3153 44.9870 14.2594 0.0000 0.0000 0.0000
# 3 35.1990 14.2594 172.7908 0.0000 0.0000 0.0000
# 4 0.0000 0.0000 0.0000 -74.4384 0.0000 0.0000
# 5 0.0000 0.0000 0.0000 0.0000 48.2374 0.0000
# 6 0.0000 0.0000 0.0000 0.0000 0.0000 18.2282
#
#
#
# Elastic Compliance Matrix: (Units=1/GPa)
#
#
# Indices 1 2 3 4 5 6 
#
# 1 0.026644 -0.014238 -0.004253 0.000000 0.000000 0.000000
# 2 -0.014238 0.030434 0.000389 0.000000 0.000000 0.000000
# 3 -0.004253 0.000389 0.006622 0.000000 0.000000 0.000000
# 4 0.000000 0.000000 0.000000 -0.013434 0.000000 0.000000
# 5 0.000000 0.000000 0.000000 0.000000 0.020731 0.000000
# 6 0.000000 0.000000 0.000000 0.000000 0.000000 0.054860
#
#
# Mechanical properties :
#
#
# Convention : Reuss Voigt Hill
#
# Bulk Modulus (GPa) = 36.36834 47.39299 41.88067
# Shear Modulus (GPa) = 29.20131 11.68649 20.44390
#
# Velocity S-wave (km/s) = 3.89663 2.46508 3.26040
# Velocity P-wave (km/s) = 6.25743 5.72233 5.99585
#
# Compressibility (1/GPa) = 0.02749644
#
# Stress axis : x y z
#
# Youngs Moduli (GPa) = 37.53156 32.85824 151.02147
#
# Poissons Ratio (x) = 0.46782 0.64225
# Poissons Ratio (y) = 0.53436 -0.05872
# Poissons Ratio (z) = 0.15961 -0.01278
#
# Static dielectric constant tensor:
#      x y z
#    x 1.697090 0.000000 0.000000 
#    y 0.000000 1.694830 0.000000 
#    z 0.000000 0.000000 1.707910 
# 
# From -- ./inp_files/34408.got.cif
#   From: 2010.05.17/outbox.cif.g08.bks.cpg/sg63_18_cif.got.tgz:34408.got - 2010.06.03 15:47:04.
