data_PCOD9470531
_publ_section_title
;
Structure prediction by ZEFSAII (Michael W. Deem and Ramdas Pophale) SiO2 
 PCOD9470531
Probable space group: C M C M
;
_chemical_formula_sum "Si O2"
_cell_formula_units_Z 104
_cell_length_a 26.102471
_cell_length_b 9.555140
_cell_length_c 23.293419
_cell_angle_alpha 90.000000
_cell_angle_beta 90.000000
_cell_angle_gamma 90.000000
_cell_volume 5809.676033
_symmetry_space_group_name_H-M "C M C M"
_symmetry_group_IT_number 63
_symmetry_cell_setting 'orthorhombic'
loop_
_space_group_symop_operation_xyz
x,y,z
-x,-y,1/2+z
x,-y,-z
-x,y,1/2-z
-x,-y,-z
x,y,1/2-z
-x,y,z
x,-y,1/2+z
1/2+x,1/2+y,z
1/2-x,1/2-y,1/2+z
1/2+x,1/2-y,-z
1/2-x,1/2+y,1/2-z
1/2-x,1/2-y,-z
1/2+x,1/2+y,1/2-z
1/2-x,1/2+y,z
1/2+x,1/2-y,1/2+z
loop_
_atom_site_type_symbol
_atom_site_label
_atom_site_fract_x
_atom_site_fract_y
_atom_site_fract_z
Si Si1 0.864695 0.342395 0.250000
Si Si2 0.060771 0.999595 0.568022
Si Si3 0.854695 0.322063 0.750000
Si Si4 0.629748 0.727685 0.877667
Si Si5 0.281748 0.489684 0.367873
Si Si6 0.753567 0.843658 0.250000
Si Si7 0.174269 0.497895 0.431740
Si Si8 0.132571 0.223356 0.129203
O O1 0.864883 0.511862 0.250000
O O2 0.804925 0.299810 0.250000
O O3 0.886107 0.278989 0.308869
O O4 0.090470 0.871816 0.598138
O O5 0.000000 0.988350 0.575495
O O6 0.072314 0.000000 0.500000
O O7 0.082816 0.140894 0.596607
O O8 0.874899 0.253468 0.690914
O O9 0.794153 0.283333 0.750000
O O10 0.679993 0.631979 0.889488
O O11 0.640600 0.874933 0.907310
O O12 0.263572 0.436216 0.306065
O O13 0.231701 0.511052 0.406282
O O14 0.316947 0.626511 0.363515
O O15 0.175867 0.500000 0.500000
O O16 0.149851 0.355160 0.408260
#
# Coordination Sequence:
#
# PCOD9470531 Si02
#       8
#     8  16   8  16  16   8  16  16
#     4  12  21  32  59  87 125 157 193 246 298 338
#     4  10  23  46  70  87 111 152 202 253 303 360
#     4  10  20  36  58  85 124 161 199 240 291 349
#     4  10  21  39  60  86 118 157 202 245 292 354
#     4  10  21  34  53  82 121 164 200 237 282 349
#     4  10  19  32  53  80 117 168 210 232 267 351
#     4  12  23  34  52  83 124 164 198 239 294 354
#     4  11  23  37  60  90 120 154 200 253 299 343
#
# _framework density 17.901171000000001
#
# number of rings (size 3 to 8) (size 9 to 14) (size 15 to 20)
#    0.000    1.385    3.077    2.308    4.308    6.769 
#    0.000    2.308    0.000    3.692    0.000    0.000 
#    0.000    0.000    0.000    0.000    0.000    0.000 
#
# Total GULP energy -290566.864266 kJ/mol
# GULP energy per Si atom -5587.824313 kJ/mol
# Density = 1.786043 g / cm^3
# Si number density = 17.901171 Si / 1000 Ang^3
#
#
#
# Elastic Constant Matrix: (Units=GPa)
#
#
# Indices 1 2 3 4 5 6 
#
# 1 73.3826 42.7549 55.2745 0.0000 0.0000 0.0000
# 2 42.7549 136.9405 58.3743 0.0000 0.0000 0.0000
# 3 55.2745 58.3743 137.1026 0.0000 0.0000 0.0000
# 4 0.0000 0.0000 0.0000 25.0484 0.0000 0.0000
# 5 0.0000 0.0000 0.0000 0.0000 34.4580 0.0000
# 6 0.0000 0.0000 0.0000 0.0000 0.0000 3.8948
#
#
#
# Elastic Compliance Matrix: (Units=1/GPa)
#
#
# Indices 1 2 3 4 5 6 
#
# 1 0.020920 -0.003587 -0.006907 0.000000 0.000000 0.000000
# 2 -0.003587 0.009537 -0.002614 0.000000 0.000000 0.000000
# 3 -0.006907 -0.002614 0.011191 0.000000 0.000000 0.000000
# 4 0.000000 0.000000 0.000000 0.039923 0.000000 0.000000
# 5 0.000000 0.000000 0.000000 0.000000 0.029021 0.000000
# 6 0.000000 0.000000 0.000000 0.000000 0.000000 0.256750
#
#
# Mechanical properties :
#
#
# Convention : Reuss Voigt Hill
#
# Bulk Modulus (GPa) = 64.80264 73.35924 69.08094
# Shear Modulus (GPa) = 12.54072 25.41505 18.97788
#
# Velocity S-wave (km/s) = 2.64967 3.77203 3.25952
# Velocity P-wave (km/s) = 6.75572 7.74855 7.26911
#
# Compressibility (1/GPa) = 0.01543147
#
# Stress axis : x y z
#
# Youngs Moduli (GPa) = 47.80209 104.85659 89.35464
#
# Poissons Ratio (x) = 0.37615 0.61714
# Poissons Ratio (y) = 0.17148 0.23359
# Poissons Ratio (z) = 0.33015 0.27412
#
# Static dielectric constant tensor:
#      x y z
#    x 1.578440 0.000000 0.000000 
#    y 0.000000 1.620320 0.000000 
#    z 0.000000 0.000000 1.617130 
# 
# From -- ./inp_files/58577.got.cif
#   From: 2010.05.17/outbox.cif.g08.bks.cpg/sg63_30_cif.got.tgz:58577.got - 2010.06.03 15:47:04.
