data_PCOD9470739
_publ_section_title
;
Structure prediction by ZEFSAII (Michael W. Deem and Ramdas Pophale) SiO2 
 PCOD9470739
Probable space group: C M C M
;
_chemical_formula_sum "Si O2"
_cell_formula_units_Z 100
_cell_length_a 7.286384
_cell_length_b 20.130835
_cell_length_c 30.681329
_cell_angle_alpha 90.000000
_cell_angle_beta 90.000000
_cell_angle_gamma 90.000000
_cell_volume 4500.367837
_symmetry_space_group_name_H-M "C M C M"
_symmetry_group_IT_number 63
_symmetry_cell_setting 'orthorhombic'
loop_
_space_group_symop_operation_xyz
x,y,z
-x,-y,1/2+z
x,-y,-z
-x,y,1/2-z
-x,-y,-z
x,y,1/2-z
-x,y,z
x,-y,1/2+z
1/2+x,1/2+y,z
1/2-x,1/2-y,1/2+z
1/2+x,1/2-y,-z
1/2-x,1/2+y,1/2-z
1/2-x,1/2-y,-z
1/2+x,1/2+y,1/2-z
1/2-x,1/2+y,z
1/2+x,1/2-y,1/2+z
loop_
_atom_site_type_symbol
_atom_site_label
_atom_site_fract_x
_atom_site_fract_y
_atom_site_fract_z
Si Si1 0.777644 0.186293 0.798082
Si Si2 0.715978 0.750112 0.613588
Si Si3 0.779755 0.032375 0.681035
Si Si4 0.000000 0.519531 0.250000
Si Si5 0.220001 0.870212 0.942708
Si Si6 0.276101 0.654377 0.537184
Si Si7 0.777757 0.016109 0.920694
O O1 0.712648 0.206367 0.750000
O O2 0.711051 0.228592 0.839354
O O3 0.735111 0.108659 0.805765
O O4 0.000000 0.190773 0.797251
O O5 0.500000 0.734883 0.615498
O O6 0.736230 0.825849 0.599131
O O7 0.789925 0.705994 0.573541
O O8 0.660554 0.986209 0.711940
O O9 0.000000 0.023427 0.686296
O O10 0.733526 0.023624 0.630224
O O11 0.286901 0.945504 0.938600
O O12 0.000000 0.873296 0.945382
O O13 0.285583 0.836083 0.987479
O O14 0.500000 0.657063 0.537172
O O15 0.220359 0.580783 0.552626
O O16 0.000000 0.015795 0.923343
#
# Coordination Sequence:
#
# PCOD9470739 Si02
#       7
#    16  16  16   4  16  16  16
#     4   9  16  31  56  77 100 140 192 233 277 333
#     4  10  19  33  53  77 110 147 185 228 284 348
#     4  10  19  35  57  83 116 149 187 244 293 342
#     4  12  22  32  56  94 118 140 194 244 304 346
#     4  10  20  33  52  81 113 145 185 234 286 341
#     4   9  16  30  56  84 106 141 196 237 271 337
#     4   9  17  33  57  79 107 150 190 229 284 341
#
# _framework density 22.220407000000002
#
# number of rings (size 3 to 8) (size 9 to 14) (size 15 to 20)
#    0.000    2.400    2.400    1.200    0.000    1.920 
#    2.880    0.000    3.520    0.960    0.000    0.000 
#    0.000    0.000    0.000    0.000    0.000    0.320 
#
# Total GULP energy -278829.774006 kJ/mol
# GULP energy per Si atom -5576.595480 kJ/mol
# Density = 2.216983 g / cm^3
# Si number density = 22.220407 Si / 1000 Ang^3
#
#
#
# Elastic Constant Matrix: (Units=GPa)
#
#
# Indices 1 2 3 4 5 6 
#
# 1 101.5543 -8.8425 13.7913 0.0000 0.0000 0.0000
# 2 -8.8425 56.1945 10.9675 0.0000 0.0000 0.0000
# 3 13.7913 10.9675 116.2057 0.0000 0.0000 0.0000
# 4 0.0000 0.0000 0.0000 68.6882 0.0000 0.0000
# 5 0.0000 0.0000 0.0000 0.0000 1.8640 0.0000
# 6 0.0000 0.0000 0.0000 0.0000 0.0000 -44.1356
#
#
#
# Elastic Compliance Matrix: (Units=1/GPa)
#
#
# Indices 1 2 3 4 5 6 
#
# 1 0.010199 0.001876 -0.001387 0.000000 0.000000 0.000000
# 2 0.001876 0.018474 -0.001966 0.000000 0.000000 0.000000
# 3 -0.001387 -0.001966 0.008956 0.000000 0.000000 0.000000
# 4 0.000000 0.000000 0.000000 0.014559 0.000000 0.000000
# 5 0.000000 0.000000 0.000000 0.000000 0.536477 0.000000
# 6 0.000000 0.000000 0.000000 0.000000 0.000000 -0.022657
#
#
# Mechanical properties :
#
#
# Convention : Reuss Voigt Hill
#
# Bulk Modulus (GPa) = 28.84123 33.97632 31.40878
# Shear Modulus (GPa) = 8.61296 22.48587 15.54942
#
# Velocity S-wave (km/s) = 1.97093 3.18456 2.64821
# Velocity P-wave (km/s) = 4.26465 5.37082 4.84938
#
# Compressibility (1/GPa) = 0.03467259
#
# Stress axis : x y z
#
# Youngs Moduli (GPa) = 98.05196 54.12946 111.66129
#
# Poissons Ratio (x) = -0.10153 0.15492
# Poissons Ratio (y) = -0.18391 0.21955
# Poissons Ratio (z) = 0.13604 0.10643
#
# Static dielectric constant tensor:
#      x y z
#    x 1.906940 0.000000 0.000000 
#    y 0.000000 1.787580 0.000000 
#    z 0.000000 0.000000 1.807460 
# 
# From -- ./inp_files/71887.got.cif
#   From: 2010.05.17/outbox.cif.g08.bks.cpg/sg63_36_cif.got.tgz:71887.got - 2010.06.03 15:47:04.
