data_PCOD9470890
_publ_section_title
;
Structure prediction by ZEFSAII (Michael W. Deem and Ramdas Pophale) SiO2 
 PCOD9470890
Probable space group: C M C M
;
_chemical_formula_sum "Si O2"
_cell_formula_units_Z 80
_cell_length_a 8.544324
_cell_length_b 18.663500
_cell_length_c 27.000356
_cell_angle_alpha 90.000000
_cell_angle_beta 90.000000
_cell_angle_gamma 90.000000
_cell_volume 4305.665527
_symmetry_space_group_name_H-M "C M C M"
_symmetry_group_IT_number 63
_symmetry_cell_setting 'orthorhombic'
loop_
_space_group_symop_operation_xyz
x,y,z
-x,-y,1/2+z
x,-y,-z
-x,y,1/2-z
-x,-y,-z
x,y,1/2-z
-x,y,z
x,-y,1/2+z
1/2+x,1/2+y,z
1/2-x,1/2-y,1/2+z
1/2+x,1/2-y,-z
1/2-x,1/2+y,1/2-z
1/2-x,1/2-y,-z
1/2+x,1/2+y,1/2-z
1/2-x,1/2+y,z
1/2+x,1/2-y,1/2+z
loop_
_atom_site_type_symbol
_atom_site_label
_atom_site_fract_x
_atom_site_fract_y
_atom_site_fract_z
Si Si1 0.187683 0.051932 0.250000
Si Si2 0.187061 0.454238 0.452328
Si Si3 0.813331 0.958867 0.859547
Si Si4 0.309495 0.796199 0.642611
Si Si5 0.815394 0.288607 0.750000
Si Si6 0.312647 0.293541 0.453158
O O1 0.221744 0.015997 0.302939
O O2 0.283189 0.126046 0.250000
O O3 0.000000 0.068334 0.250000
O O4 0.241616 0.500000 0.500000
O O5 0.236206 0.493977 0.402037
O O6 0.255056 0.374747 0.454253
O O7 0.000000 0.449887 0.454636
O O8 0.755662 0.876593 0.863491
O O9 0.000000 0.960731 0.865956
O O10 0.500000 0.800801 0.643298
O O11 0.255007 0.765491 0.696074
O O12 0.261597 0.746608 0.597092
O O13 0.000000 0.273611 0.750000
O O14 0.500000 0.292689 0.454240
O O15 0.250000 0.250000 0.500000
#
# Coordination Sequence:
#
# PCOD9470890 Si02
#       6
#     8  16  16  16   8  16
#     4   8  16  30  49  78 111 139 171 213 259 306
#     4  11  24  40  56  76 105 140 179 224 271 318
#     4  10  19  33  56  83 110 141 177 217 261 312
#     4   9  18  33  54  80 108 138 173 213 257 307
#     4   8  14  28  51  76 103 137 173 207 249 304
#     4  11  23  38  56  79 107 139 176 218 267 322
#
# _framework density 18.580171
#
# number of rings (size 3 to 8) (size 9 to 14) (size 15 to 20)
#    0.000    2.200    0.000    3.000    0.000    8.800 
#    0.000    1.000    0.000    3.600    0.000    0.000 
#    0.000    0.000    0.000    0.000    0.000    0.000 
#
# Total GULP energy -223109.484510 kJ/mol
# GULP energy per Si atom -5577.737113 kJ/mol
# Density = 1.853788 g / cm^3
# Si number density = 18.580171 Si / 1000 Ang^3
#
#
#
# Elastic Constant Matrix: (Units=GPa)
#
#
# Indices 1 2 3 4 5 6 
#
# 1 27.1272 22.3193 34.7673 0.0000 0.0000 0.0000
# 2 22.3193 110.0006 96.1619 0.0000 0.0000 0.0000
# 3 34.7673 96.1619 209.4875 0.0000 0.0000 0.0000
# 4 0.0000 0.0000 0.0000 31.0550 0.0000 0.0000
# 5 0.0000 0.0000 0.0000 0.0000 23.1147 0.0000
# 6 0.0000 0.0000 0.0000 0.0000 0.0000 27.9990
#
#
#
# Elastic Compliance Matrix: (Units=1/GPa)
#
#
# Indices 1 2 3 4 5 6 
#
# 1 0.048209 -0.004656 -0.005864 0.000000 0.000000 0.000000
# 2 -0.004656 0.015634 -0.006404 0.000000 0.000000 0.000000
# 3 -0.005864 -0.006404 0.008686 0.000000 0.000000 0.000000
# 4 0.000000 0.000000 0.000000 0.032201 0.000000 0.000000
# 5 0.000000 0.000000 0.000000 0.000000 0.043263 0.000000
# 6 0.000000 0.000000 0.000000 0.000000 0.000000 0.035716
#
#
# Mechanical properties :
#
#
# Convention : Reuss Voigt Hill
#
# Bulk Modulus (GPa) = 25.85131 72.56805 49.20968
# Shear Modulus (GPa) = 21.69681 29.32484 25.51082
#
# Velocity S-wave (km/s) = 3.42093 3.97708 3.70944
# Velocity P-wave (km/s) = 5.43574 7.76086 6.69994
#
# Compressibility (1/GPa) = 0.03868276
#
# Stress axis : x y z
#
# Youngs Moduli (GPa) = 20.74292 63.96505 115.12427
#
# Poissons Ratio (x) = 0.29779 0.67508
# Poissons Ratio (y) = 0.09657 0.73722
# Poissons Ratio (z) = 0.12164 0.40961
#
# Static dielectric constant tensor:
#      x y z
#    x 1.634480 0.000000 0.000000 
#    y 0.000000 1.592260 0.000000 
#    z 0.000000 0.000000 1.686450 
# 
# From -- ./inp_files/66665.got.cif
#   From: 2010.05.17/outbox.cif.g08.bks.cpg/sg63_34_cif.got.tgz:66665.got - 2010.06.03 15:47:04.
