data_PCOD9470939
_publ_section_title
;
Structure prediction by ZEFSAII (Michael W. Deem and Ramdas Pophale) SiO2 
 PCOD9470939
Probable space group: C M C M
;
_chemical_formula_sum "Si O2"
_cell_formula_units_Z 96
_cell_length_a 11.249200
_cell_length_b 17.234853
_cell_length_c 24.266012
_cell_angle_alpha 90.000000
_cell_angle_beta 90.000000
_cell_angle_gamma 90.000000
_cell_volume 4704.653357
_symmetry_space_group_name_H-M "C M C M"
_symmetry_group_IT_number 63
_symmetry_cell_setting 'orthorhombic'
loop_
_space_group_symop_operation_xyz
x,y,z
-x,-y,1/2+z
x,-y,-z
-x,y,1/2-z
-x,-y,-z
x,y,1/2-z
-x,y,z
x,-y,1/2+z
1/2+x,1/2+y,z
1/2-x,1/2-y,1/2+z
1/2+x,1/2-y,-z
1/2-x,1/2+y,1/2-z
1/2-x,1/2-y,-z
1/2+x,1/2+y,1/2-z
1/2-x,1/2+y,z
1/2+x,1/2-y,1/2+z
loop_
_atom_site_type_symbol
_atom_site_label
_atom_site_fract_x
_atom_site_fract_y
_atom_site_fract_z
Si Si1 0.859706 0.739557 0.688194
Si Si2 0.794245 0.916703 0.187831
Si Si3 0.626574 0.059596 0.186488
Si Si4 0.640970 0.092760 0.992627
Si Si5 0.807392 0.686785 0.102764
Si Si6 0.627204 0.360497 0.076621
O O1 0.831162 0.772162 0.750000
O O2 0.799120 0.654914 0.686629
O O3 0.811245 0.788675 0.636432
O O4 0.000000 0.732154 0.684518
O O5 0.844540 0.918213 0.250000
O O6 0.876420 0.899131 0.136623
O O7 0.729204 0.997891 0.176847
O O8 0.632520 0.083473 0.250000
O O9 0.500000 0.018173 0.177620
O O10 0.629830 0.133748 0.148112
O O11 0.500000 0.114762 0.981488
O O12 0.746236 0.114303 0.949755
O O13 0.687293 0.134997 0.048037
O O14 0.640542 0.000000 0.000000
O O15 0.865177 0.768189 0.086033
O O16 0.500000 0.378244 0.047605
#
# Coordination Sequence:
#
# PCOD9470939 Si02
#       6
#    16  16  16  16  16  16
#     4   9  18  34  57  87 122 159 200 246 298 356
#     4   9  19  36  59  87 118 155 200 245 291 347
#     4  10  19  33  57  87 118 154 199 250 295 338
#     4  11  25  45  68  89 113 152 203 255 302 353
#     4  11  22  37  58  86 119 154 196 244 297 354
#     4  11  24  40  61  91 125 158 193 239 300 366
#
# _framework density 20.405328999999998
#
# number of rings (size 3 to 8) (size 9 to 14) (size 15 to 20)
#    0.000    1.833    0.000    4.000    0.000    8.667 
#    0.000    2.500    0.000    1.000    0.000    0.000 
#    0.000    0.000    0.000    0.000    0.000    0.000 
#
# Total GULP energy -267379.849531 kJ/mol
# GULP energy per Si atom -5570.413532 kJ/mol
# Density = 2.035889 g / cm^3
# Si number density = 20.405329 Si / 1000 Ang^3
#
#
#
# Elastic Constant Matrix: (Units=GPa)
#
#
# Indices 1 2 3 4 5 6 
#
# 1 144.5314 36.8618 66.0905 0.0000 0.0000 0.0000
# 2 36.8618 78.8006 46.9637 0.0000 0.0000 0.0000
# 3 66.0905 46.9637 74.1022 0.0000 0.0000 0.0000
# 4 0.0000 0.0000 0.0000 39.4479 0.0000 0.0000
# 5 0.0000 0.0000 0.0000 0.0000 -4.9462 0.0000
# 6 0.0000 0.0000 0.0000 0.0000 0.0000 23.3392
#
#
#
# Elastic Compliance Matrix: (Units=1/GPa)
#
#
# Indices 1 2 3 4 5 6 
#
# 1 0.011755 0.001204 -0.011247 0.000000 0.000000 0.000000
# 2 0.001204 0.020516 -0.014077 0.000000 0.000000 0.000000
# 3 -0.011247 -0.014077 0.032448 0.000000 0.000000 0.000000
# 4 0.000000 0.000000 0.000000 0.025350 0.000000 0.000000
# 5 0.000000 0.000000 0.000000 0.000000 -0.202175 0.000000
# 6 0.000000 0.000000 0.000000 0.000000 0.000000 0.042846
#
#
# Mechanical properties :
#
#
# Convention : Reuss Voigt Hill
#
# Bulk Modulus (GPa) = 60.68172 66.36289 63.52231
# Shear Modulus (GPa) = -322.00972 21.40274 -150.30349
#
# Velocity S-wave (km/s) = -12.57574 3.24216 -8.59179
# Velocity P-wave (km/s) = 13.45596 6.82703 8.19923
#
# Compressibility (1/GPa) = 0.01647943
#
# Stress axis : x y z
#
# Youngs Moduli (GPa) = 85.07160 48.74151 30.81897
#
# Poissons Ratio (x) = -0.05870 0.34663
# Poissons Ratio (y) = -0.10246 0.43383
# Poissons Ratio (z) = 0.95682 0.68613
#
# Static dielectric constant tensor:
#      x y z
#    x 1.729710 0.000000 0.000000 
#    y 0.000000 1.697780 0.000000 
#    z 0.000000 0.000000 1.773400 
# 
# From -- ./inp_files/61491.got.cif
#   From: 2010.05.17/outbox.cif.g08.bks.cpg/sg63_31_cif.got.tgz:61491.got - 2010.06.03 15:47:04.
