data_PCOD9470533
_publ_section_title
;
Structure prediction by ZEFSAII (Michael W. Deem and Ramdas Pophale) SiO2 
 PCOD9470533
Probable space group: C M C M
;
_chemical_formula_sum "Si O2"
_cell_formula_units_Z 88
_cell_length_a 14.578580
_cell_length_b 30.956365
_cell_length_c 9.395305
_cell_angle_alpha 90.000000
_cell_angle_beta 90.000000
_cell_angle_gamma 90.000000
_cell_volume 4240.099678
_symmetry_space_group_name_H-M "C M C M"
_symmetry_group_IT_number 63
_symmetry_cell_setting 'orthorhombic'
loop_
_space_group_symop_operation_xyz
x,y,z
-x,-y,1/2+z
x,-y,-z
-x,y,1/2-z
-x,-y,-z
x,y,1/2-z
-x,y,z
x,-y,1/2+z
1/2+x,1/2+y,z
1/2-x,1/2-y,1/2+z
1/2+x,1/2-y,-z
1/2-x,1/2+y,1/2-z
1/2-x,1/2-y,-z
1/2+x,1/2+y,1/2-z
1/2-x,1/2+y,z
1/2+x,1/2-y,1/2+z
loop_
_atom_site_type_symbol
_atom_site_label
_atom_site_fract_x
_atom_site_fract_y
_atom_site_fract_z
Si Si1 0.500000 0.954291 0.579912
Si Si2 0.355533 0.376764 0.585319
Si Si3 0.363114 0.207156 0.913556
Si Si4 0.634464 0.122456 0.414361
Si Si5 0.860385 0.208283 0.913963
Si Si6 0.892407 0.961382 0.408474
O O1 0.500000 0.962199 0.750000
O O2 0.586586 0.922802 0.546652
O O3 0.500000 0.000000 0.500000
O O4 0.384227 0.377906 0.750000
O O5 0.244601 0.379463 0.581823
O O6 0.386439 0.333102 0.507526
O O7 0.387779 0.417614 0.496363
O O8 0.392470 0.211246 0.750000
O O9 0.251354 0.208042 0.912728
O O10 0.392188 0.162084 0.984193
O O11 0.390852 0.247770 0.009908
O O12 0.608735 0.131999 0.250000
O O13 0.890149 0.205383 0.750000
O O14 0.852325 0.957178 0.250000
O O15 0.000000 0.971670 0.391391
O O16 0.849096 0.000000 0.500000
#
# Coordination Sequence:
#
# PCOD9470533 Si02
#       6
#     8  16  16  16  16  16
#     4  10  22  40  58  76 104 142 184 230 281 328
#     4  10  19  32  53  81 110 139 176 221 267 316
#     4   9  16  27  47  75 104 135 172 214 259 312
#     4   9  19  35  54  77 105 140 179 221 270 323
#     4   9  16  27  46  74 107 140 172 209 257 312
#     4  10  21  37  56  77 103 137 174 211 258 315
#
# _framework density 20.75423
#
# number of rings (size 3 to 8) (size 9 to 14) (size 15 to 20)
#    0.000    2.545    0.000    2.182    0.000    7.636 
#    0.000    1.818    2.000    0.000    0.000    0.000 
#    0.000    0.000    0.000    0.000    0.000    0.000 
#
# Total GULP energy -245704.333516 kJ/mol
# GULP energy per Si atom -5584.189398 kJ/mol
# Density = 2.070699 g / cm^3
# Si number density = 20.754230 Si / 1000 Ang^3
#
#
#
# Elastic Constant Matrix: (Units=GPa)
#
#
# Indices 1 2 3 4 5 6 
#
# 1 65.8781 9.1207 12.4618 0.0000 0.0000 0.0000
# 2 9.1207 195.9537 121.7161 0.0000 0.0000 0.0000
# 3 12.4618 121.7161 207.7847 0.0000 0.0000 0.0000
# 4 0.0000 0.0000 0.0000 42.7015 0.0000 0.0000
# 5 0.0000 0.0000 0.0000 0.0000 9.2923 0.0000
# 6 0.0000 0.0000 0.0000 0.0000 0.0000 34.7450
#
#
#
# Elastic Compliance Matrix: (Units=1/GPa)
#
#
# Indices 1 2 3 4 5 6 
#
# 1 0.015360 -0.000224 -0.000790 0.000000 0.000000 0.000000
# 2 -0.000224 0.008025 -0.004688 0.000000 0.000000 0.000000
# 3 -0.000790 -0.004688 0.007606 0.000000 0.000000 0.000000
# 4 0.000000 0.000000 0.000000 0.023418 0.000000 0.000000
# 5 0.000000 0.000000 0.000000 0.000000 0.107617 0.000000
# 6 0.000000 0.000000 0.000000 0.000000 0.000000 0.028781
#
#
# Mechanical properties :
#
#
# Convention : Reuss Voigt Hill
#
# Bulk Modulus (GPa) = 51.05223 84.02373 67.53798
# Shear Modulus (GPa) = 23.95321 39.10230 31.52775
#
# Velocity S-wave (km/s) = 3.40094 4.34529 3.90179
# Velocity P-wave (km/s) = 6.33038 8.10854 7.27400
#
# Compressibility (1/GPa) = 0.01958778
#
# Stress axis : x y z
#
# Youngs Moduli (GPa) = 65.10411 124.60400 131.47539
#
# Poissons Ratio (x) = 0.02796 0.10384
# Poissons Ratio (y) = 0.01461 0.61631
# Poissons Ratio (z) = 0.05142 0.58410
#
# Static dielectric constant tensor:
#      x y z
#    x 1.842750 0.000000 0.000000 
#    y 0.000000 1.689790 0.000000 
#    z 0.000000 0.000000 1.722800 
# 
# From -- ./inp_files/6834.got.cif
#   From: 2010.05.17/outbox.cif.g08.bks.cpg/sg63_4_cif.got.tgz:6834.got - 2010.06.03 15:47:04.
