data_PCOD9470529
_publ_section_title
;
Structure prediction by ZEFSAII (Michael W. Deem and Ramdas Pophale) SiO2 
 PCOD9470529
Probable space group: C M C M
;
_chemical_formula_sum "Si O2"
_cell_formula_units_Z 96
_cell_length_a 18.971216
_cell_length_b 29.640973
_cell_length_c 7.941349
_cell_angle_alpha 90.000000
_cell_angle_beta 90.000000
_cell_angle_gamma 90.000000
_cell_volume 4465.621469
_symmetry_space_group_name_H-M "C M C M"
_symmetry_group_IT_number 63
_symmetry_cell_setting 'orthorhombic'
loop_
_space_group_symop_operation_xyz
x,y,z
-x,-y,1/2+z
x,-y,-z
-x,y,1/2-z
-x,-y,-z
x,y,1/2-z
-x,y,z
x,-y,1/2+z
1/2+x,1/2+y,z
1/2-x,1/2-y,1/2+z
1/2+x,1/2-y,-z
1/2-x,1/2+y,1/2-z
1/2-x,1/2-y,-z
1/2+x,1/2+y,1/2-z
1/2-x,1/2+y,z
1/2+x,1/2-y,1/2+z
loop_
_atom_site_type_symbol
_atom_site_label
_atom_site_fract_x
_atom_site_fract_y
_atom_site_fract_z
Si Si1 0.576640 0.857768 0.441237
Si Si2 0.192324 0.299923 0.561183
Si Si3 0.672256 0.646072 0.948193
Si Si4 0.773148 0.950487 0.453510
Si Si5 0.889781 0.450910 0.556347
Si Si6 0.419522 0.274785 0.043227
O O1 0.591060 0.842927 0.250000
O O2 0.500000 0.841126 0.494050
O O3 0.637046 0.840729 0.561794
O O4 0.578320 0.911328 0.446907
O O5 0.214019 0.286867 0.750000
O O6 0.259773 0.321028 0.470063
O O7 0.142089 0.260286 0.488990
O O8 0.660644 0.640245 0.750000
O O9 0.687906 0.595484 0.013079
O O10 0.606839 0.675710 0.012591
O O11 0.766270 0.948523 0.250000
O O12 0.694811 0.949257 0.530876
O O13 0.803707 0.000000 0.500000
O O14 0.913194 0.500000 0.500000
O O15 0.907542 0.443244 0.750000
O O16 0.419285 0.272703 0.250000
O O17 0.500000 0.265469 0.989144
#
# Coordination Sequence:
#
# PCOD9470529 Si02
#       6
#    16  16  16  16  16  16
#     4  11  23  37  52  72 104 145 187 231 277 329
#     4  11  21  34  56  83 111 145 185 232 279 328
#     4  10  20  35  58  84 112 147 186 231 277 332
#     4  10  19  32  53  80 111 143 182 228 278 331
#     4  11  21  34  53  74 102 139 181 229 280 332
#     4   9  19  36  57  83 114 147 186 231 280 336
#
# _framework density 21.497567
#
# number of rings (size 3 to 8) (size 9 to 14) (size 15 to 20)
#    0.000    1.667    1.667    5.000    0.000    3.000 
#    0.000    0.833    0.000    3.000    0.000    0.000 
#    0.000    0.000    0.000    0.000    0.000    0.667 
#
# Total GULP energy -267870.761224 kJ/mol
# GULP energy per Si atom -5580.640859 kJ/mol
# Density = 2.144864 g / cm^3
# Si number density = 21.497567 Si / 1000 Ang^3
#
#
#
# Elastic Constant Matrix: (Units=GPa)
#
#
# Indices 1 2 3 4 5 6 
#
# 1 40.5838 50.7751 -7.5590 0.0000 0.0000 0.0000
# 2 50.7751 153.2056 -6.7488 0.0000 0.0000 0.0000
# 3 -7.5590 -6.7488 38.7147 0.0000 0.0000 0.0000
# 4 0.0000 0.0000 0.0000 11.0857 0.0000 0.0000
# 5 0.0000 0.0000 0.0000 0.0000 85.8928 0.0000
# 6 0.0000 0.0000 0.0000 0.0000 0.0000 -636.7884
#
#
#
# Elastic Compliance Matrix: (Units=1/GPa)
#
#
# Indices 1 2 3 4 5 6 
#
# 1 0.043443 -0.014133 0.006019 0.000000 0.000000 0.000000
# 2 -0.014133 0.011175 -0.000811 0.000000 0.000000 0.000000
# 3 0.006019 -0.000811 0.026864 0.000000 0.000000 0.000000
# 4 0.000000 0.000000 0.000000 0.090207 0.000000 0.000000
# 5 0.000000 0.000000 0.000000 0.000000 0.011642 0.000000
# 6 0.000000 0.000000 0.000000 0.000000 0.000000 -0.001570
#
#
# Mechanical properties :
#
#
# Convention : Reuss Voigt Hill
#
# Bulk Modulus (GPa) = 15.71557 33.93764 24.82660
# Shear Modulus (GPa) = 22.64271 -94.89286 -36.12507
#
# Velocity S-wave (km/s) = 3.24893 -6.65109 -4.10375
# Velocity P-wave (km/s) = 4.62605 6.56976 3.29859
#
# Compressibility (1/GPa) = 0.06363115
#
# Stress axis : x y z
#
# Youngs Moduli (GPa) = 23.01868 89.48349 37.22502
#
# Poissons Ratio (x) = 1.26464 -0.22404
# Poissons Ratio (y) = 0.32531 0.03020
# Poissons Ratio (z) = -0.13854 0.07260
#
# Static dielectric constant tensor:
#      x y z
#    x 1.761730 0.000000 0.000000 
#    y 0.000000 1.855800 0.000000 
#    z 0.000000 0.000000 1.790520 
# 
# From -- ./inp_files/8639.got.cif
#   From: 2010.05.17/outbox.cif.g08.bks.cpg/sg63_5_cif.got.tgz:8639.got - 2010.06.03 15:47:04.
