data_PCOD9470366
_publ_section_title
;
Structure prediction by ZEFSAII (Michael W. Deem and Ramdas Pophale) SiO2 
 PCOD9470366
Probable space group: C M C M
;
_chemical_formula_sum "Si O2"
_cell_formula_units_Z 116
_cell_length_a 28.186267
_cell_length_b 27.885997
_cell_length_c 7.713610
_cell_angle_alpha 90.000000
_cell_angle_beta 90.000000
_cell_angle_gamma 90.000000
_cell_volume 6062.914098
_symmetry_space_group_name_H-M "C M C M"
_symmetry_group_IT_number 63
_symmetry_cell_setting 'orthorhombic'
loop_
_space_group_symop_operation_xyz
x,y,z
-x,-y,1/2+z
x,-y,-z
-x,y,1/2-z
-x,-y,-z
x,y,1/2-z
-x,y,z
x,-y,1/2+z
1/2+x,1/2+y,z
1/2-x,1/2-y,1/2+z
1/2+x,1/2-y,-z
1/2-x,1/2+y,1/2-z
1/2-x,1/2-y,-z
1/2+x,1/2+y,1/2-z
1/2-x,1/2+y,z
1/2+x,1/2-y,1/2+z
loop_
_atom_site_type_symbol
_atom_site_label
_atom_site_fract_x
_atom_site_fract_y
_atom_site_fract_z
Si Si1 0.000000 0.500000 0.500000
Si Si2 0.811160 0.283525 0.548264
Si Si3 0.847032 0.182567 0.541556
Si Si4 0.922996 0.578989 0.457512
Si Si5 0.586749 0.184695 0.544085
Si Si6 0.551537 0.289705 0.042931
Si Si7 0.255985 0.364825 0.958940
Si Si8 0.316598 0.055273 0.457995
O O1 0.041251 0.459335 0.465245
O O2 0.799272 0.276044 0.750000
O O3 0.822847 0.231629 0.470557
O O4 0.860710 0.312233 0.538069
O O5 0.770670 0.317109 0.471090
O O6 0.849711 0.187323 0.750000
O O7 0.901255 0.183320 0.476788
O O8 0.811280 0.139625 0.502277
O O9 0.925552 0.570887 0.250000
O O10 0.935784 0.634232 0.492113
O O11 0.869080 0.570335 0.520804
O O12 0.591738 0.186259 0.750000
O O13 0.560090 0.232921 0.486701
O O14 0.550157 0.702915 0.750000
O O15 0.500000 0.303299 0.970997
O O16 0.252319 0.364296 0.750000
O O17 0.225323 0.409978 0.021966
O O18 0.318362 0.060383 0.250000
O O19 0.308006 0.000000 0.500000
#
# Coordination Sequence:
#
# PCOD9470366 Si02
#       8
#     4  16  16  16  16  16  16  16
#     4  12  26  40  60  78  82 120 184 234 272 308
#     4   9  17  33  51  70 101 138 171 203 249 311
#     4   9  18  30  49  77 104 130 167 209 246 297
#     4  11  23  41  57  71  97 130 167 218 276 325
#     4  11  22  33  51  77 101 127 170 220 259 304
#     4   9  19  37  56  72  99 140 175 203 247 302
#     4  10  19  32  51  73 101 136 167 202 254 313
#     4  10  21  38  57  74  96 130 169 211 261 314
#
# _framework density 19.132712999999999
#
# number of rings (size 3 to 8) (size 9 to 14) (size 15 to 20)
#    0.000    2.069    2.069    2.690    0.966    5.241 
#    0.000    0.000    0.000    0.000    0.000    0.000 
#    0.000    0.552    0.000    1.241    0.000    1.931 
#
# Total GULP energy -323212.546305 kJ/mol
# GULP energy per Si atom -5572.630109 kJ/mol
# Density = 1.908917 g / cm^3
# Si number density = 19.132713 Si / 1000 Ang^3
#
#
#
# Elastic Constant Matrix: (Units=GPa)
#
#
# Indices 1 2 3 4 5 6 
#
# 1 164.8315 63.9989 6.5552 0.0000 0.0000 0.0000
# 2 63.9989 56.5155 -0.2563 0.0000 0.0000 0.0000
# 3 6.5552 -0.2563 38.1188 0.0000 0.0000 0.0000
# 4 0.0000 0.0000 0.0000 0.3548 0.0000 0.0000
# 5 0.0000 0.0000 0.0000 0.0000 -41.1046 0.0000
# 6 0.0000 0.0000 0.0000 0.0000 0.0000 97.4116
#
#
#
# Elastic Compliance Matrix: (Units=1/GPa)
#
#
# Indices 1 2 3 4 5 6 
#
# 1 0.010973 -0.012435 -0.001971 0.000000 0.000000 0.000000
# 2 -0.012435 0.031787 0.002352 0.000000 0.000000 0.000000
# 3 -0.001971 0.002352 0.026588 0.000000 0.000000 0.000000
# 4 0.000000 0.000000 0.000000 2.818618 0.000000 0.000000
# 5 0.000000 0.000000 0.000000 0.000000 -0.024328 0.000000
# 6 0.000000 0.000000 0.000000 0.000000 0.000000 0.010266
#
#
# Mechanical properties :
#
#
# Convention : Reuss Voigt Hill
#
# Bulk Modulus (GPa) = 22.10381 44.45127 33.27754
# Shear Modulus (GPa) = 1.71639 23.94355 12.82997
#
# Velocity S-wave (km/s) = 0.94818 3.54142 2.59236
# Velocity P-wave (km/s) = 3.57445 6.32501 5.13724
#
# Compressibility (1/GPa) = 0.04524107
#
# Stress axis : x y z
#
# Youngs Moduli (GPa) = 91.12904 31.45948 37.61027
#
# Poissons Ratio (x) = 0.39121 0.07412
# Poissons Ratio (y) = 1.13323 -0.08847
# Poissons Ratio (z) = 0.17959 -0.07400
#
# Static dielectric constant tensor:
#      x y z
#    x 1.715080 0.000000 0.000000 
#    y 0.000000 1.648870 0.000000 
#    z 0.000000 0.000000 1.714730 
# 
# From -- ./inp_files/12922.got.cif
#   From: 2010.05.17/outbox.cif.g08.bks.cpg/sg63_7_cif.got.tgz:12922.got - 2010.06.03 15:47:04.
