data_PCOD9470007
_publ_section_title
;
Structure prediction by ZEFSAII (Michael W. Deem and Ramdas Pophale) SiO2 
 PCOD9470007
Probable space group: C M C M
;
_chemical_formula_sum "Si O2"
_cell_formula_units_Z 96
_cell_length_a 19.047824
_cell_length_b 32.499209
_cell_length_c 7.463592
_cell_angle_alpha 90.000000
_cell_angle_beta 90.000000
_cell_angle_gamma 90.000000
_cell_volume 4620.256119
_symmetry_space_group_name_H-M "C M C M"
_symmetry_group_IT_number 63
_symmetry_cell_setting 'orthorhombic'
loop_
_space_group_symop_operation_xyz
x,y,z
-x,-y,1/2+z
x,-y,-z
-x,y,1/2-z
-x,-y,-z
x,y,1/2-z
-x,y,z
x,-y,1/2+z
1/2+x,1/2+y,z
1/2-x,1/2-y,1/2+z
1/2+x,1/2-y,-z
1/2-x,1/2+y,1/2-z
1/2-x,1/2-y,-z
1/2+x,1/2+y,1/2-z
1/2-x,1/2+y,z
1/2+x,1/2-y,1/2+z
loop_
_atom_site_type_symbol
_atom_site_label
_atom_site_fract_x
_atom_site_fract_y
_atom_site_fract_z
Si Si1 0.217399 0.093069 0.029955
Si Si2 0.000000 0.691343 0.030544
Si Si3 0.278057 0.686945 0.035943
Si Si4 0.422983 0.451514 0.535651
Si Si5 0.641250 0.235226 0.464333
Si Si6 0.500000 0.095645 0.469339
Si Si7 0.859903 0.451391 0.964241
O O1 0.217597 0.092254 0.250000
O O2 0.217710 0.140446 0.971176
O O3 0.287445 0.069101 0.970481
O O4 0.145801 0.071549 0.968181
O O5 0.930626 0.715423 0.969827
O O6 0.000000 0.643491 0.976823
O O7 0.000000 0.691380 0.250000
O O8 0.270806 0.684471 0.250000
O O9 0.208652 0.710056 0.965047
O O10 0.343536 0.716932 0.000467
O O11 0.415910 0.500000 0.500000
O O12 0.424143 0.445775 0.750000
O O13 0.500000 0.438406 0.466770
O O14 0.640797 0.230534 0.250000
O O15 0.500000 0.095067 0.250000
O O16 0.570296 0.072006 0.529809
O O17 0.859803 0.446179 0.750000
O O18 0.862456 0.500000 0.000000
#
# Coordination Sequence:
#
# PCOD9470007 Si02
#       7
#    16   8  16  16  16   8  16
#     4   9  17  30  48  69  90 119 156 190 221 270
#     4   9  16  29  50  72  92 122 163 197 228 276
#     4   9  17  31  49  68  92 121 153 189 232 277
#     4   9  17  30  47  65  87 115 148 184 223 265
#     4   9  17  30  49  70  92 119 152 192 233 274
#     4   9  17  29  48  72  94 124 162 195 225 270
#     4  10  19  31  48  70  97 125 158 195 232 273
#
# _framework density 20.778068999999999
#
# number of rings (size 3 to 8) (size 9 to 14) (size 15 to 20)
#    0.000    2.833    0.000    1.750    0.000    4.000 
#    1.500    2.083    0.000    4.000    0.000    0.000 
#    0.000    0.000    0.000    0.000    0.000    0.000 
#
# Total GULP energy -267910.060319 kJ/mol
# GULP energy per Si atom -5581.459590 kJ/mol
# Density = 2.073078 g / cm^3
# Si number density = 20.778069 Si / 1000 Ang^3
#
#
#
# Elastic Constant Matrix: (Units=GPa)
#
#
# Indices 1 2 3 4 5 6 
#
# 1 216.9785 134.9952 8.7292 0.0000 0.0000 0.0000
# 2 134.9952 165.9563 -3.2508 0.0000 0.0000 0.0000
# 3 8.7292 -3.2508 61.2830 0.0000 0.0000 0.0000
# 4 0.0000 0.0000 0.0000 17.1926 0.0000 0.0000
# 5 0.0000 0.0000 0.0000 0.0000 -1.8216 0.0000
# 6 0.0000 0.0000 0.0000 0.0000 0.0000 28.2720
#
#
#
# Elastic Compliance Matrix: (Units=1/GPa)
#
#
# Indices 1 2 3 4 5 6 
#
# 1 0.009519 -0.007778 -0.001768 0.000000 0.000000 0.000000
# 2 -0.007778 0.012387 0.001765 0.000000 0.000000 0.000000
# 3 -0.001768 0.001765 0.016663 0.000000 0.000000 0.000000
# 4 0.000000 0.000000 0.000000 0.058165 0.000000 0.000000
# 5 0.000000 0.000000 0.000000 0.000000 -0.548981 0.000000
# 6 0.000000 0.000000 0.000000 0.000000 0.000000 0.035371
#
#
# Mechanical properties :
#
#
# Convention : Reuss Voigt Hill
#
# Bulk Modulus (GPa) = 43.46566 80.57392 62.01979
# Shear Modulus (GPa) = -12.70178 28.97821 8.13821
#
# Velocity S-wave (km/s) = -2.47515 3.73856 1.98122
# Velocity P-wave (km/s) = 3.57714 7.58276 5.92850
#
# Compressibility (1/GPa) = 0.02300667
#
# Stress axis : x y z
#
# Youngs Moduli (GPa) = 105.05520 80.73075 60.01229
#
# Poissons Ratio (x) = 0.62789 0.10613
# Poissons Ratio (y) = 0.81708 -0.10592
# Poissons Ratio (z) = 0.18578 -0.14248
#
# Static dielectric constant tensor:
#      x y z
#    x 1.734850 0.000000 0.000000 
#    y 0.000000 1.698880 0.000000 
#    z 0.000000 0.000000 1.799850 
# 
# From -- ./inp_files/21391.got.cif
#   From: 2010.05.17/outbox.cif.g08.bks.cpg/sg63_11_cif.got.tgz:21391.got - 2010.06.03 15:47:04.
