data_PCOD9470931
_publ_section_title
;
Structure prediction by ZEFSAII (Michael W. Deem and Ramdas Pophale) SiO2 
 PCOD9470931
Probable space group: C M C M
;
_chemical_formula_sum "Si O2"
_cell_formula_units_Z 80
_cell_length_a 15.884502
_cell_length_b 18.233679
_cell_length_c 13.989280
_cell_angle_alpha 90.000000
_cell_angle_beta 90.000000
_cell_angle_gamma 90.000000
_cell_volume 4051.755883
_symmetry_space_group_name_H-M "C M C M"
_symmetry_group_IT_number 63
_symmetry_cell_setting 'orthorhombic'
loop_
_space_group_symop_operation_xyz
x,y,z
-x,-y,1/2+z
x,-y,-z
-x,y,1/2-z
-x,-y,-z
x,y,1/2-z
-x,y,z
x,-y,1/2+z
1/2+x,1/2+y,z
1/2-x,1/2-y,1/2+z
1/2+x,1/2-y,-z
1/2-x,1/2+y,1/2-z
1/2-x,1/2-y,-z
1/2+x,1/2+y,1/2-z
1/2-x,1/2+y,z
1/2+x,1/2-y,1/2+z
loop_
_atom_site_type_symbol
_atom_site_label
_atom_site_fract_x
_atom_site_fract_y
_atom_site_fract_z
Si Si1 0.906681 0.315401 0.560288
Si Si2 0.241398 0.422103 0.974649
Si Si3 0.908562 0.916247 0.638602
Si Si4 0.379297 0.756695 0.355696
Si Si5 0.695802 0.314651 0.358975
O O1 0.830202 0.372297 0.575047
O O2 0.909380 0.302680 0.445764
O O3 0.879387 0.236971 0.604552
O O4 0.000000 0.337102 0.593580
O O5 0.323625 0.440400 0.912065
O O6 0.201424 0.500000 0.000000
O O7 0.278790 0.377563 0.065871
O O8 0.905334 0.936571 0.750000
O O9 0.905719 0.827426 0.633801
O O10 0.000000 0.940341 0.599802
O O11 0.404722 0.782795 0.250000
O O12 0.278234 0.762439 0.358971
O O13 0.682208 0.340277 0.250000
#
# Coordination Sequence:
#
# PCOD9470931 Si02
#       5
#    16  16  16  16  16
#     4  11  21  36  59  87 119 154 196 241 287 341
#     4  11  23  39  58  85 123 160 193 234 288 353
#     4  10  19  33  57  85 110 143 190 243 294 340
#     4   9  16  31  57  84 109 138 184 247 295 327
#     4  10  20  37  58  83 112 149 197 243 291 340
#
# _framework density 19.744526
#
# number of rings (size 3 to 8) (size 9 to 14) (size 15 to 20)
#    0.000    1.800    4.000    1.800    0.000    3.200 
#    0.000    0.000    0.000    0.000    0.000    5.600 
#    0.000    0.000    0.000    0.000    0.000    0.000 
#
# Total GULP energy -222996.043886 kJ/mol
# GULP energy per Si atom -5574.901097 kJ/mol
# Density = 1.969959 g / cm^3
# Si number density = 19.744526 Si / 1000 Ang^3
#
#
#
# Elastic Constant Matrix: (Units=GPa)
#
#
# Indices 1 2 3 4 5 6 
#
# 1 113.4655 12.2670 29.7848 0.0000 0.0000 0.0000
# 2 12.2670 58.4325 1.9743 0.0000 0.0000 0.0000
# 3 29.7848 1.9743 47.5512 0.0000 0.0000 0.0000
# 4 0.0000 0.0000 0.0000 5.8220 0.0000 0.0000
# 5 0.0000 0.0000 0.0000 0.0000 12.9887 0.0000
# 6 0.0000 0.0000 0.0000 0.0000 0.0000 -12.0946
#
#
#
# Elastic Compliance Matrix: (Units=1/GPa)
#
#
# Indices 1 2 3 4 5 6 
#
# 1 0.010785 -0.002039 -0.006671 0.000000 0.000000 0.000000
# 2 -0.002039 0.017523 0.000549 0.000000 0.000000 0.000000
# 3 -0.006671 0.000549 0.025185 0.000000 0.000000 0.000000
# 4 0.000000 0.000000 0.000000 0.171762 0.000000 0.000000
# 5 0.000000 0.000000 0.000000 0.000000 0.076990 0.000000
# 6 0.000000 0.000000 0.000000 0.000000 0.000000 -0.082681
#
#
# Mechanical properties :
#
#
# Convention : Reuss Voigt Hill
#
# Bulk Modulus (GPa) = 26.90079 34.16679 30.53379
# Shear Modulus (GPa) = 20.13896 13.03809 16.58852
#
# Velocity S-wave (km/s) = 3.19717 2.57249 2.90169
# Velocity P-wave (km/s) = 5.22333 5.11524 5.16957
#
# Compressibility (1/GPa) = 0.03717363
#
# Stress axis : x y z
#
# Youngs Moduli (GPa) = 92.72394 57.06723 39.70545
#
# Poissons Ratio (x) = 0.11634 0.26486
# Poissons Ratio (y) = 0.18904 -0.02182
# Poissons Ratio (z) = 0.61852 -0.03135
#
# Static dielectric constant tensor:
#      x y z
#    x 1.733050 0.000000 0.000000 
#    y 0.000000 1.660290 0.000000 
#    z 0.000000 0.000000 1.732370 
# 
# From -- ./inp_files/31628.got.cif
#   From: 2010.05.17/outbox.cif.g08.bks.cpg/sg63_16_cif.got.tgz:31628.got - 2010.06.03 15:47:04.
