data_PCOD9470988
_publ_section_title
;
Structure prediction by ZEFSAII (Michael W. Deem and Ramdas Pophale) SiO2 
 PCOD9470988
Probable space group: C M C M
;
_chemical_formula_sum "Si O2"
_cell_formula_units_Z 88
_cell_length_a 23.040548
_cell_length_b 25.397499
_cell_length_c 8.620572
_cell_angle_alpha 90.000000
_cell_angle_beta 90.000000
_cell_angle_gamma 90.000000
_cell_volume 5044.519900
_symmetry_space_group_name_H-M "C M C M"
_symmetry_group_IT_number 63
_symmetry_cell_setting 'orthorhombic'
loop_
_space_group_symop_operation_xyz
x,y,z
-x,-y,1/2+z
x,-y,-z
-x,y,1/2-z
-x,-y,-z
x,y,1/2-z
-x,y,z
x,-y,1/2+z
1/2+x,1/2+y,z
1/2-x,1/2-y,1/2+z
1/2+x,1/2-y,-z
1/2-x,1/2+y,1/2-z
1/2-x,1/2-y,-z
1/2+x,1/2+y,1/2-z
1/2-x,1/2+y,z
1/2+x,1/2-y,1/2+z
loop_
_atom_site_type_symbol
_atom_site_label
_atom_site_fract_x
_atom_site_fract_y
_atom_site_fract_z
Si Si1 0.000000 0.940921 0.562987
Si Si2 0.114213 0.874828 0.562027
Si Si3 0.281854 0.557510 0.934968
Si Si4 0.567701 0.737109 0.063245
Si Si5 0.066825 0.649968 0.436969
Si Si6 0.846749 0.557520 0.063280
O O1 0.057717 0.909085 0.515858
O O2 0.000000 0.942730 0.750000
O O3 0.000000 0.000000 0.500000
O O4 0.118016 0.876554 0.750000
O O5 0.171209 0.900401 0.490485
O O6 0.103196 0.814395 0.514944
O O7 0.279251 0.554932 0.750000
O O8 0.299146 0.500000 0.000000
O O9 0.217862 0.568901 0.001363
O O10 0.569545 0.739880 0.250000
O O11 0.500000 0.729375 0.018614
O O12 0.586979 0.792937 0.995582
O O13 0.066636 0.650608 0.250000
O O14 0.108410 0.602612 0.487060
O O15 0.000000 0.642503 0.489655
O O16 0.845167 0.555600 0.250000
O O17 0.863526 0.500000 0.000000
#
# Coordination Sequence:
#
# PCOD9470988 Si02
#       6
#     8  16  16  16  16  16
#     4  10  20  32  48  72 104 136 171 218 263 306
#     4  10  19  34  53  75 105 139 177 219 263 309
#     4  11  22  36  54  76 103 138 179 219 263 313
#     4   9  17  32  54  78 105 140 177 214 260 310
#     4   9  19  35  55  81 111 138 167 210 261 312
#     4  10  20  36  57  79 106 139 172 210 260 313
#
# _framework density 17.444672000000001
#
# number of rings (size 3 to 8) (size 9 to 14) (size 15 to 20)
#    0.000    2.182    0.909    3.818    0.000    4.727 
#    0.000    0.909    0.000    0.000    0.000    0.000 
#    0.000    0.000    0.000    0.000    0.000    0.000 
#
# Total GULP energy -245574.240026 kJ/mol
# GULP energy per Si atom -5581.232728 kJ/mol
# Density = 1.740497 g / cm^3
# Si number density = 17.444672 Si / 1000 Ang^3
#
#
#
# Elastic Constant Matrix: (Units=GPa)
#
#
# Indices 1 2 3 4 5 6 
#
# 1 89.1454 110.4239 31.8277 0.0000 0.0000 0.0000
# 2 110.4239 191.7980 43.9026 0.0000 0.0000 0.0000
# 3 31.8277 43.9026 44.5177 0.0000 0.0000 0.0000
# 4 0.0000 0.0000 0.0000 32.0393 0.0000 0.0000
# 5 0.0000 0.0000 0.0000 0.0000 18.9450 0.0000
# 6 0.0000 0.0000 0.0000 0.0000 0.0000 25.9719
#
#
#
# Elastic Compliance Matrix: (Units=1/GPa)
#
#
# Indices 1 2 3 4 5 6 
#
# 1 0.041109 -0.021879 -0.007814 0.000000 0.000000 0.000000
# 2 -0.021879 0.018378 -0.002482 0.000000 0.000000 0.000000
# 3 -0.007814 -0.002482 0.030497 0.000000 0.000000 0.000000
# 4 0.000000 0.000000 0.000000 0.031212 0.000000 0.000000
# 5 0.000000 0.000000 0.000000 0.000000 0.052785 0.000000
# 6 0.000000 0.000000 0.000000 0.000000 0.000000 0.038503
#
#
# Mechanical properties :
#
#
# Convention : Reuss Voigt Hill
#
# Bulk Modulus (GPa) = 39.00992 77.52994 58.26993
# Shear Modulus (GPa) = 17.52059 24.67836 21.09947
#
# Velocity S-wave (km/s) = 3.17259 3.76528 3.48157
# Velocity P-wave (km/s) = 5.98590 7.96511 7.04535
#
# Compressibility (1/GPa) = 0.02563451
#
# Stress axis : x y z
#
# Youngs Moduli (GPa) = 24.32572 54.41178 32.78978
#
# Poissons Ratio (x) = 1.19047 0.25621
# Poissons Ratio (y) = 0.53222 0.08139
# Poissons Ratio (z) = 0.19008 0.13506
#
# Static dielectric constant tensor:
#      x y z
#    x 1.577040 0.000000 0.000000 
#    y 0.000000 1.578310 0.000000 
#    z 0.000000 0.000000 1.590650 
# 
# From -- ./inp_files/8219.got.cif
#   From: 2010.05.17/outbox.cif.g08.bks.cpg/sg63_5_cif.got.tgz:8219.got - 2010.06.03 15:47:04.
