data_PCOD9470768
_publ_section_title
;
Structure prediction by ZEFSAII (Michael W. Deem and Ramdas Pophale) SiO2 
 PCOD9470768
Probable space group: C M C M
;
_chemical_formula_sum "Si O2"
_cell_formula_units_Z 112
_cell_length_a 13.236398
_cell_length_b 17.385128
_cell_length_c 23.652549
_cell_angle_alpha 90.000000
_cell_angle_beta 90.000000
_cell_angle_gamma 90.000000
_cell_volume 5442.841165
_symmetry_space_group_name_H-M "C M C M"
_symmetry_group_IT_number 63
_symmetry_cell_setting 'orthorhombic'
loop_
_space_group_symop_operation_xyz
x,y,z
-x,-y,1/2+z
x,-y,-z
-x,y,1/2-z
-x,-y,-z
x,y,1/2-z
-x,y,z
x,-y,1/2+z
1/2+x,1/2+y,z
1/2-x,1/2-y,1/2+z
1/2+x,1/2-y,-z
1/2-x,1/2+y,1/2-z
1/2-x,1/2-y,-z
1/2+x,1/2+y,1/2-z
1/2-x,1/2+y,z
1/2+x,1/2-y,1/2+z
loop_
_atom_site_type_symbol
_atom_site_label
_atom_site_fract_x
_atom_site_fract_y
_atom_site_fract_z
Si Si1 0.322718 0.910205 0.314764
Si Si2 0.728017 0.217109 0.600661
Si Si3 0.178896 0.108724 0.416583
Si Si4 0.116046 0.723382 0.188507
Si Si5 0.112844 0.129767 0.962966
Si Si6 0.388835 0.528630 0.849731
Si Si7 0.611167 0.934814 0.872274
O O1 0.351744 0.892238 0.250000
O O2 0.335107 0.842897 0.361470
O O3 0.204270 0.935789 0.315842
O O4 0.377565 0.984918 0.340179
O O5 0.675667 0.298960 0.590590
O O6 0.823207 0.234891 0.640753
O O7 0.786000 0.181093 0.546849
O O8 0.126511 0.091703 0.475978
O O9 0.130072 0.060735 0.365231
O O10 0.295866 0.080600 0.414501
O O11 0.160230 0.738631 0.250000
O O12 0.119494 0.633180 0.173973
O O13 0.000000 0.747612 0.187679
O O14 0.000000 0.167331 0.961473
O O15 0.114950 0.070709 0.910843
O O16 0.500000 0.540372 0.825115
O O17 0.500000 0.928408 0.898787
#
# Coordination Sequence:
#
# PCOD9470768 Si02
#       7
#    16  16  16  16  16  16  16
#     4  10  20  34  54  77 104 138 170 206 253 308
#     4  10  20  32  46  74 111 139 168 205 251 310
#     4  10  19  33  54  76 102 136 175 219 264 308
#     4   9  16  28  49  73  95 123 163 213 259 293
#     4  10  19  33  55  78 103 138 175 215 265 315
#     4   9  19  35  56  81 105 132 173 220 264 311
#     4   9  19  35  54  75  97 128 175 221 257 299
#
# _framework density 20.577487999999999
#
# number of rings (size 3 to 8) (size 9 to 14) (size 15 to 20)
#    0.000    2.429    0.000    2.571    0.000    3.429 
#    0.000    2.143    0.000   15.429    0.000    0.000 
#    0.000    0.000    0.000    0.000    0.000    0.000 
#
# Total GULP energy -312248.045090 kJ/mol
# GULP energy per Si atom -5575.857948 kJ/mol
# Density = 2.053065 g / cm^3
# Si number density = 20.577488 Si / 1000 Ang^3
#
#
#
# Elastic Constant Matrix: (Units=GPa)
#
#
# Indices 1 2 3 4 5 6 
#
# 1 46.0110 -7.5671 -1.7681 0.0000 0.0000 0.0000
# 2 -7.5671 85.2759 2.5280 0.0000 0.0000 0.0000
# 3 -1.7681 2.5280 62.7227 0.0000 0.0000 0.0000
# 4 0.0000 0.0000 0.0000 5.4400 0.0000 0.0000
# 5 0.0000 0.0000 0.0000 0.0000 8.6767 0.0000
# 6 0.0000 0.0000 0.0000 0.0000 0.0000 8.6306
#
#
#
# Elastic Compliance Matrix: (Units=1/GPa)
#
#
# Indices 1 2 3 4 5 6 
#
# 1 0.022074 0.001943 0.000544 0.000000 0.000000 0.000000
# 2 0.001943 0.011912 -0.000425 0.000000 0.000000 0.000000
# 3 0.000544 -0.000425 0.015976 0.000000 0.000000 0.000000
# 4 0.000000 0.000000 0.000000 0.183824 0.000000 0.000000
# 5 0.000000 0.000000 0.000000 0.000000 0.115251 0.000000
# 6 0.000000 0.000000 0.000000 0.000000 0.000000 0.115867
#
#
# Mechanical properties :
#
#
# Convention : Reuss Voigt Hill
#
# Bulk Modulus (GPa) = 18.48968 20.04391 19.26680
# Shear Modulus (GPa) = 10.44256 17.93724 14.18990
#
# Velocity S-wave (km/s) = 2.25516 2.95565 2.62884
# Velocity P-wave (km/s) = 3.97315 4.62706 4.31251
#
# Compressibility (1/GPa) = 0.05408424
#
# Stress axis : x y z
#
# Youngs Moduli (GPa) = 45.30151 83.95154 62.59516
#
# Poissons Ratio (x) = -0.16309 -0.03405
# Poissons Ratio (y) = -0.08801 0.02662
# Poissons Ratio (z) = -0.02464 0.03571
#
# Static dielectric constant tensor:
#      x y z
#    x 1.759690 0.000000 0.000000 
#    y 0.000000 1.795620 0.000000 
#    z 0.000000 0.000000 1.696210 
# 
# From -- ./inp_files/63010.got.cif
#   From: 2010.05.17/outbox.cif.g08.bks.cpg/sg63_32_cif.got.tgz:63010.got - 2010.06.03 15:47:04.
