data_PCOD9470588
_publ_section_title
;
Structure prediction by ZEFSAII (Michael W. Deem and Ramdas Pophale) SiO2 
 PCOD9470588
Probable space group: C M C M
;
_chemical_formula_sum "Si O2"
_cell_formula_units_Z 100
_cell_length_a 7.443019
_cell_length_b 19.479753
_cell_length_c 29.775000
_cell_angle_alpha 90.000000
_cell_angle_beta 90.000000
_cell_angle_gamma 90.000000
_cell_volume 4317.022812
_symmetry_space_group_name_H-M "C M C M"
_symmetry_group_IT_number 63
_symmetry_cell_setting 'orthorhombic'
loop_
_space_group_symop_operation_xyz
x,y,z
-x,-y,1/2+z
x,-y,-z
-x,y,1/2-z
-x,-y,-z
x,y,1/2-z
-x,y,z
x,-y,1/2+z
1/2+x,1/2+y,z
1/2-x,1/2-y,1/2+z
1/2+x,1/2-y,-z
1/2-x,1/2+y,1/2-z
1/2-x,1/2-y,-z
1/2+x,1/2+y,1/2-z
1/2-x,1/2+y,z
1/2+x,1/2-y,1/2+z
loop_
_atom_site_type_symbol
_atom_site_label
_atom_site_fract_x
_atom_site_fract_y
_atom_site_fract_z
Si Si1 0.714043 0.219308 0.548802
Si Si2 0.217781 0.079119 0.301456
Si Si3 0.284969 0.918228 0.414130
Si Si4 0.779394 0.157650 0.107314
Si Si5 0.500000 0.863813 0.250000
Si Si6 0.292660 0.582038 0.814536
Si Si7 0.298034 0.546899 0.461017
O O1 0.500000 0.216410 0.553951
O O2 0.750000 0.250000 0.500000
O O3 0.775008 0.140682 0.551640
O O4 0.776654 0.266814 0.590418
O O5 0.274880 0.098084 0.250000
O O6 0.277201 0.126091 0.344240
O O7 0.000000 0.082298 0.301640
O O8 0.265668 0.998566 0.308854
O O9 0.500000 0.927489 0.416121
O O10 0.227267 0.895685 0.365430
O O11 0.194256 0.990697 0.421899
O O12 0.717063 0.111147 0.064744
O O13 0.000000 0.154518 0.107452
O O14 0.342560 0.871042 0.287814
O O15 0.500000 0.585558 0.800674
O O16 0.209966 0.500000 0.500000
O O17 0.500000 0.564478 0.475955
#
# Coordination Sequence:
#
# PCOD9470588 Si02
#       7
#    16  16  16  16   4  16  16
#     4  10  22  39  60  81 116 159 205 253 307 371
#     4   9  16  29  55  85 113 147 196 242 297 363
#     4  11  22  36  55  84 124 160 202 255 311 374
#     4   9  17  32  54  81 113 147 198 252 296 359
#     4  12  22  36  60  94 130 156 210 248 308 374
#     4  11  21  36  60  91 124 163 200 253 310 369
#     4  10  19  32  55  84 112 151 203 256 311 372
#
# _framework density 23.164113
#
# number of rings (size 3 to 8) (size 9 to 14) (size 15 to 20)
#    0.000    1.920    3.200    1.680    0.000    2.880 
#    0.000    0.800    3.520    0.000    0.000    0.000 
#    0.000    0.000    0.000    0.000    0.000    0.000 
#
# Total GULP energy -278453.202903 kJ/mol
# GULP energy per Si atom -5569.064058 kJ/mol
# Density = 2.311139 g / cm^3
# Si number density = 23.164113 Si / 1000 Ang^3
#
#
#
# Elastic Constant Matrix: (Units=GPa)
#
#
# Indices 1 2 3 4 5 6 
#
# 1 101.3487 6.9417 10.0035 0.0000 0.0000 0.0000
# 2 6.9417 62.5938 -10.4113 0.0000 0.0000 0.0000
# 3 10.0035 -10.4113 90.0250 0.0000 0.0000 0.0000
# 4 0.0000 0.0000 0.0000 -817.2690 0.0000 0.0000
# 5 0.0000 0.0000 0.0000 0.0000 25.4709 0.0000
# 6 0.0000 0.0000 0.0000 0.0000 0.0000 -6.2584
#
#
#
# Elastic Compliance Matrix: (Units=1/GPa)
#
#
# Indices 1 2 3 4 5 6 
#
# 1 0.010084 -0.001330 -0.001274 0.000000 0.000000 0.000000
# 2 -0.001330 0.016465 0.002052 0.000000 0.000000 0.000000
# 3 -0.001274 0.002052 0.011487 0.000000 0.000000 0.000000
# 4 0.000000 0.000000 0.000000 -0.001224 0.000000 0.000000
# 5 0.000000 0.000000 0.000000 0.000000 0.039260 0.000000
# 6 0.000000 0.000000 0.000000 0.000000 0.000000 -0.159785
#
#
# Mechanical properties :
#
#
# Convention : Reuss Voigt Hill
#
# Bulk Modulus (GPa) = 27.07801 29.67057 28.37429
# Shear Modulus (GPa) = -71.12706 -143.11573 -107.12139
#
# Velocity S-wave (km/s) = -5.54729 -7.86877 -6.80771
# Velocity P-wave (km/s) = 5.41432 8.34985 7.03686
#
# Compressibility (1/GPa) = 0.03693033
#
# Stress axis : x y z
#
# Youngs Moduli (GPa) = 99.16871 60.73544 87.05534
#
# Poissons Ratio (x) = 0.08079 0.11094
# Poissons Ratio (y) = 0.13192 -0.17863
# Poissons Ratio (z) = 0.12638 -0.12463
#
# Static dielectric constant tensor:
#      x y z
#    x 1.863630 0.000000 0.000000 
#    y 0.000000 1.914490 0.000000 
#    z 0.000000 0.000000 1.640250 
# 
# From -- ./inp_files/71900.got.cif
#   From: 2010.05.17/outbox.cif.g08.bks.cpg/sg63_36_cif.got.tgz:71900.got - 2010.06.03 15:47:04.
