data_PCOD9470239
_publ_section_title
;
Structure prediction by ZEFSAII (Michael W. Deem and Ramdas Pophale) SiO2 
 PCOD9470239
Probable space group: C M C M
;
_chemical_formula_sum "Si O2"
_cell_formula_units_Z 128
_cell_length_a 22.698029
_cell_length_b 18.784218
_cell_length_c 18.583131
_cell_angle_alpha 90.000000
_cell_angle_beta 90.000000
_cell_angle_gamma 90.000000
_cell_volume 7923.191537
_symmetry_space_group_name_H-M "C M C M"
_symmetry_group_IT_number 63
_symmetry_cell_setting 'orthorhombic'
loop_
_space_group_symop_operation_xyz
x,y,z
-x,-y,1/2+z
x,-y,-z
-x,y,1/2-z
-x,-y,-z
x,y,1/2-z
-x,y,z
x,-y,1/2+z
1/2+x,1/2+y,z
1/2-x,1/2-y,1/2+z
1/2+x,1/2-y,-z
1/2-x,1/2+y,1/2-z
1/2-x,1/2-y,-z
1/2+x,1/2+y,1/2-z
1/2-x,1/2+y,z
1/2+x,1/2-y,1/2+z
loop_
_atom_site_type_symbol
_atom_site_label
_atom_site_fract_x
_atom_site_fract_y
_atom_site_fract_z
Si Si1 0.929708 0.559516 0.938695
Si Si2 0.658134 0.817057 0.438322
Si Si3 0.566767 0.812228 0.835823
Si Si4 0.632835 0.959118 0.835019
Si Si5 0.772247 0.905278 0.433279
Si Si6 0.824692 0.757559 0.409749
Si Si7 0.704797 0.295069 0.834783
Si Si8 0.263160 0.559634 0.102324
O O1 0.899783 0.635985 0.952144
O O2 0.899637 0.527298 0.867499
O O3 0.000000 0.564695 0.933354
O O4 0.915592 0.500000 0.000000
O O5 0.708246 0.873227 0.414055
O O6 0.678590 0.781029 0.512946
O O7 0.659264 0.753853 0.379712
O O8 0.568047 0.800122 0.750000
O O9 0.500000 0.803948 0.861703
O O10 0.589411 0.892571 0.847735
O O11 0.614018 0.762501 0.873737
O O12 0.643851 0.965459 0.750000
O O13 0.694615 0.942697 0.874135
O O14 0.817017 0.841574 0.419390
O O15 0.768357 0.920997 0.518273
O O16 0.784806 0.978304 0.391843
O O17 0.769775 0.729605 0.362298
O O18 0.699206 0.284263 0.750000
O O19 0.703455 0.378790 0.854278
#
# Coordination Sequence:
#
# PCOD9470239 Si02
#       8
#    16  16  16  16  16  16  16  16
#     4  11  23  37  54  76 106 147 187 222 255 301
#     4  11  20  35  51  75 105 139 182 223 260 313
#     4  10  20  33  51  75 104 138 173 212 262 315
#     4  11  21  33  50  74 106 142 178 213 253 309
#     4  10  19  31  54  76 102 135 172 218 268 315
#     4  11  19  34  52  75 102 137 173 218 265 319
#     4  11  21  34  51  75 106 141 178 220 271 319
#     4  11  18  33  53  78 104 138 172 215 265 321
#
# _framework density 16.155106
#
# number of rings (size 3 to 8) (size 9 to 14) (size 15 to 20)
#    0.000    1.250    5.000    3.375    0.000    2.750 
#    0.000    1.875    0.000    0.000    0.000    2.625 
#    0.000    0.000    0.000    0.000    0.000    0.000 
#
# Total GULP energy -357190.077697 kJ/mol
# GULP energy per Si atom -5581.094964 kJ/mol
# Density = 1.611834 g / cm^3
# Si number density = 16.155106 Si / 1000 Ang^3
#
#
#
# Elastic Constant Matrix: (Units=GPa)
#
#
# Indices 1 2 3 4 5 6 
#
# 1 63.3694 38.6518 22.4289 0.0000 0.0000 0.0000
# 2 38.6518 123.3458 33.3557 0.0000 0.0000 0.0000
# 3 22.4289 33.3557 64.1895 0.0000 0.0000 0.0000
# 4 0.0000 0.0000 0.0000 23.7341 0.0000 0.0000
# 5 0.0000 0.0000 0.0000 0.0000 18.2256 0.0000
# 6 0.0000 0.0000 0.0000 0.0000 0.0000 22.5365
#
#
#
# Elastic Compliance Matrix: (Units=1/GPa)
#
#
# Indices 1 2 3 4 5 6 
#
# 1 0.020552 -0.005234 -0.004462 0.000000 0.000000 0.000000
# 2 -0.005234 0.010766 -0.003766 0.000000 0.000000 0.000000
# 3 -0.004462 -0.003766 0.019095 0.000000 0.000000 0.000000
# 4 0.000000 0.000000 0.000000 0.042134 0.000000 0.000000
# 5 0.000000 0.000000 0.000000 0.000000 0.054868 0.000000
# 6 0.000000 0.000000 0.000000 0.000000 0.000000 0.044372
#
#
# Mechanical properties :
#
#
# Convention : Reuss Voigt Hill
#
# Bulk Modulus (GPa) = 42.57032 48.86415 45.71723
# Shear Modulus (GPa) = 22.07140 23.33045 22.70092
#
# Velocity S-wave (km/s) = 3.70025 3.80432 3.75265
# Velocity P-wave (km/s) = 6.68311 7.04342 6.86563
#
# Compressibility (1/GPa) = 0.02349055
#
# Stress axis : x y z
#
# Youngs Moduli (GPa) = 48.65746 92.88841 52.37096
#
# Poissons Ratio (x) = 0.48615 0.23365
# Poissons Ratio (y) = 0.25466 0.19721
# Poissons Ratio (z) = 0.21709 0.34978
#
# Static dielectric constant tensor:
#      x y z
#    x 1.518020 0.000000 0.000000 
#    y 0.000000 1.571490 0.000000 
#    z 0.000000 0.000000 1.563010 
# 
# From -- ./inp_files/48404.got.cif
#   From: 2010.05.17/outbox.cif.g08.bks.cpg/sg63_25_cif.got.tgz:48404.got - 2010.06.03 15:47:04.
