data_PCOD9470846
_publ_section_title
;
Structure prediction by ZEFSAII (Michael W. Deem and Ramdas Pophale) SiO2 
 PCOD9470846
Probable space group: C M C M
;
_chemical_formula_sum "Si O2"
_cell_formula_units_Z 96
_cell_length_a 8.418927
_cell_length_b 26.276939
_cell_length_c 24.258702
_cell_angle_alpha 90.000000
_cell_angle_beta 90.000000
_cell_angle_gamma 90.000000
_cell_volume 5366.598145
_symmetry_space_group_name_H-M "C M C M"
_symmetry_group_IT_number 63
_symmetry_cell_setting 'orthorhombic'
loop_
_space_group_symop_operation_xyz
x,y,z
-x,-y,1/2+z
x,-y,-z
-x,y,1/2-z
-x,-y,-z
x,y,1/2-z
-x,y,z
x,-y,1/2+z
1/2+x,1/2+y,z
1/2-x,1/2-y,1/2+z
1/2+x,1/2-y,-z
1/2-x,1/2+y,1/2-z
1/2-x,1/2-y,-z
1/2+x,1/2+y,1/2-z
1/2-x,1/2+y,z
1/2+x,1/2-y,1/2+z
loop_
_atom_site_type_symbol
_atom_site_label
_atom_site_fract_x
_atom_site_fract_y
_atom_site_fract_z
Si Si1 0.307766 0.247977 0.686173
Si Si2 0.192056 0.153244 0.384092
Si Si3 0.193664 0.942358 0.186834
Si Si4 0.193711 0.058029 0.186742
Si Si5 0.309895 0.347285 0.115896
Si Si6 0.188355 0.308132 0.999956
O O1 0.259726 0.249626 0.750000
O O2 0.500000 0.245205 0.684064
O O3 0.259299 0.298978 0.653902
O O4 0.238788 0.199261 0.655273
O O5 0.247800 0.101023 0.355671
O O6 0.250590 0.163449 0.445557
O O7 0.000000 0.152461 0.384971
O O8 0.241757 0.930510 0.250000
O O9 0.247779 0.899535 0.144251
O O10 0.000000 0.942010 0.186461
O O11 0.243726 0.000192 0.173923
O O12 0.240339 0.069838 0.250000
O O13 0.000000 0.058392 0.186138
O O14 0.500000 0.349212 0.112205
O O15 0.243285 0.335879 0.055542
O O16 0.000000 0.305986 0.998867
O O17 0.250000 0.250000 0.000000
#
# Coordination Sequence:
#
# PCOD9470846 Si02
#       6
#    16  16  16  16  16  16
#     4  10  20  32  49  77 111 141 171 215 269 324
#     4  10  19  33  55  81 108 139 178 220 265 317
#     4   8  15  29  51  81 113 141 174 218 264 309
#     4   8  14  28  53  83 112 141 174 216 264 311
#     4  11  21  34  54  79 107 142 182 224 268 314
#     4  12  24  39  56  75 103 142 182 224 271 323
#
# _framework density 17.888428000000001
#
# number of rings (size 3 to 8) (size 9 to 14) (size 15 to 20)
#    0.000    2.167    1.667    4.000    0.000    3.000 
#    0.000    0.833    0.000    8.500    0.000    4.667 
#    0.000    0.000    0.000    0.000    0.000    0.000 
#
# Total GULP energy -267907.747342 kJ/mol
# GULP energy per Si atom -5581.411403 kJ/mol
# Density = 1.784771 g / cm^3
# Si number density = 17.888428 Si / 1000 Ang^3
#
#
#
# Elastic Constant Matrix: (Units=GPa)
#
#
# Indices 1 2 3 4 5 6 
#
# 1 19.8525 27.4041 28.1974 0.0000 0.0000 0.0000
# 2 27.4041 167.7783 118.5439 0.0000 0.0000 0.0000
# 3 28.1974 118.5439 181.9527 0.0000 0.0000 0.0000
# 4 0.0000 0.0000 0.0000 22.4094 0.0000 0.0000
# 5 0.0000 0.0000 0.0000 0.0000 24.2027 0.0000
# 6 0.0000 0.0000 0.0000 0.0000 0.0000 18.8343
#
#
#
# Elastic Compliance Matrix: (Units=1/GPa)
#
#
# Indices 1 2 3 4 5 6 
#
# 1 0.068580 -0.006842 -0.006170 0.000000 0.000000 0.000000
# 2 -0.006842 0.011727 -0.006580 0.000000 0.000000 0.000000
# 3 -0.006170 -0.006580 0.010739 0.000000 0.000000 0.000000
# 4 0.000000 0.000000 0.000000 0.044624 0.000000 0.000000
# 5 0.000000 0.000000 0.000000 0.000000 0.041318 0.000000
# 6 0.000000 0.000000 0.000000 0.000000 0.000000 0.053095
#
#
# Mechanical properties :
#
#
# Convention : Reuss Voigt Hill
#
# Bulk Modulus (GPa) = 19.28213 79.76381 49.52297
# Shear Modulus (GPa) = 17.44879 26.11849 21.78364
#
# Velocity S-wave (km/s) = 3.12656 3.82524 3.49341
# Velocity P-wave (km/s) = 4.88225 8.01226 6.63448
#
# Compressibility (1/GPa) = 0.05186148
#
# Stress axis : x y z
#
# Youngs Moduli (GPa) = 14.58157 85.27542 93.11902
#
# Poissons Ratio (x) = 0.58344 0.57458
# Poissons Ratio (y) = 0.09976 0.61270
# Poissons Ratio (z) = 0.08997 0.56109
#
# Static dielectric constant tensor:
#      x y z
#    x 1.630420 0.000000 0.000000 
#    y 0.000000 1.623190 0.000000 
#    z 0.000000 0.000000 1.592060 
# 
# From -- ./inp_files/59886.got.cif
#   From: 2010.05.17/outbox.cif.g08.bks.cpg/sg63_30_cif.got.tgz:59886.got - 2010.06.03 15:47:04.
