data_PCOD9470418
_publ_section_title
;
Structure prediction by ZEFSAII (Michael W. Deem and Ramdas Pophale) SiO2 
 PCOD9470418
Probable space group: C M C M
;
_chemical_formula_sum "Si O2"
_cell_formula_units_Z 104
_cell_length_a 27.921093
_cell_length_b 24.584019
_cell_length_c 8.394710
_cell_angle_alpha 90.000000
_cell_angle_beta 90.000000
_cell_angle_gamma 90.000000
_cell_volume 5762.235396
_symmetry_space_group_name_H-M "C M C M"
_symmetry_group_IT_number 63
_symmetry_cell_setting 'orthorhombic'
loop_
_space_group_symop_operation_xyz
x,y,z
-x,-y,1/2+z
x,-y,-z
-x,y,1/2-z
-x,-y,-z
x,y,1/2-z
-x,y,z
x,-y,1/2+z
1/2+x,1/2+y,z
1/2-x,1/2-y,1/2+z
1/2+x,1/2-y,-z
1/2-x,1/2+y,1/2-z
1/2-x,1/2-y,-z
1/2+x,1/2+y,1/2-z
1/2-x,1/2+y,z
1/2+x,1/2-y,1/2+z
loop_
_atom_site_type_symbol
_atom_site_label
_atom_site_fract_x
_atom_site_fract_y
_atom_site_fract_z
Si Si1 0.683640 0.807250 0.060492
Si Si2 0.124334 0.850947 0.063383
Si Si3 0.916640 0.642727 0.562200
Si Si4 0.784213 0.813133 0.936428
Si Si5 0.445528 0.438687 0.938995
Si Si6 0.052903 0.242959 0.559536
Si Si7 0.500000 0.937319 0.939536
O O1 0.676221 0.802646 0.250000
O O2 0.637761 0.842054 0.000096
O O3 0.693801 0.744949 0.000651
O O4 0.735714 0.831513 0.022237
O O5 0.134920 0.844032 0.250000
O O6 0.093166 0.799087 0.007144
O O7 0.173019 0.854365 0.966363
O O8 0.091121 0.902128 0.034299
O O9 0.912850 0.631592 0.750000
O O10 0.942398 0.700144 0.529266
O O11 0.951878 0.596126 0.492712
O O12 0.773752 0.806136 0.750000
O O13 0.436316 0.435906 0.750000
O O14 0.500000 0.419751 0.967035
O O15 0.442517 0.500000 0.000000
O O16 0.058185 0.252567 0.750000
O O17 0.000000 0.219841 0.533332
O O18 0.500000 0.938246 0.750000
O O19 0.500000 0.000000 0.000000
#
# Coordination Sequence:
#
# PCOD9470418 Si02
#       7
#    16  16  16  16  16  16   8
#     4   9  19  34  52  78 112 149 185 225 276 336
#     4  11  21  33  52  78 112 149 187 231 278 328
#     4  11  21  36  58  84 114 147 183 228 281 333
#     4  10  19  32  51  78 112 149 190 230 275 332
#     4  10  21  37  56  77 104 142 187 232 277 327
#     4  10  20  32  48  76 112 149 184 224 276 333
#     4  12  26  44  64  88 116 150 195 236 281 338
#
# _framework density 18.048549999999999
#
# number of rings (size 3 to 8) (size 9 to 14) (size 15 to 20)
#    0.000    1.692    2.308    3.000    0.000    4.000 
#    0.000    0.000    0.000    0.923    0.000    2.154 
#    0.000    0.000    0.000    0.000    0.000    0.000 
#
# Total GULP energy -289835.974298 kJ/mol
# GULP energy per Si atom -5573.768736 kJ/mol
# Density = 1.800747 g / cm^3
# Si number density = 18.048550 Si / 1000 Ang^3
#
#
#
# Elastic Constant Matrix: (Units=GPa)
#
#
# Indices 1 2 3 4 5 6 
#
# 1 135.9605 40.3363 25.4965 0.0000 0.0000 0.0000
# 2 40.3363 69.4477 11.1060 0.0000 0.0000 0.0000
# 3 25.4965 11.1060 28.4101 0.0000 0.0000 0.0000
# 4 0.0000 0.0000 0.0000 24.5431 0.0000 0.0000
# 5 0.0000 0.0000 0.0000 0.0000 26.6436 0.0000
# 6 0.0000 0.0000 0.0000 0.0000 0.0000 413.3212
#
#
#
# Elastic Compliance Matrix: (Units=1/GPa)
#
#
# Indices 1 2 3 4 5 6 
#
# 1 0.010110 -0.004716 -0.007230 0.000000 0.000000 0.000000
# 2 -0.004716 0.017559 -0.002632 0.000000 0.000000 0.000000
# 3 -0.007230 -0.002632 0.042716 0.000000 0.000000 0.000000
# 4 0.000000 0.000000 0.000000 0.040745 0.000000 0.000000
# 5 0.000000 0.000000 0.000000 0.000000 0.037532 0.000000
# 6 0.000000 0.000000 0.000000 0.000000 0.000000 0.002419
#
#
# Mechanical properties :
#
#
# Convention : Reuss Voigt Hill
#
# Bulk Modulus (GPa) = 24.25413 43.07732 33.66573
# Shear Modulus (GPa) = 25.77590 103.36023 64.56807
#
# Velocity S-wave (km/s) = 3.78318 7.57576 5.98768
# Velocity P-wave (km/s) = 5.70532 10.02209 8.15454
#
# Compressibility (1/GPa) = 0.04123009
#
# Stress axis : x y z
#
# Youngs Moduli (GPa) = 98.91273 56.94998 23.41055
#
# Poissons Ratio (x) = 0.26857 0.16925
# Poissons Ratio (y) = 0.46646 0.06162
# Poissons Ratio (z) = 0.71510 0.14989
#
# Static dielectric constant tensor:
#      x y z
#    x 1.672660 0.000000 0.000000 
#    y 0.000000 1.773770 0.000000 
#    z 0.000000 0.000000 1.632480 
# 
# From -- ./inp_files/12589.got.cif
#   From: 2010.05.17/outbox.cif.g08.bks.cpg/sg63_7_cif.got.tgz:12589.got - 2010.06.03 15:47:04.
