data_PCOD9470181
_publ_section_title
;
Structure prediction by ZEFSAII (Michael W. Deem and Ramdas Pophale) SiO2 
 PCOD9470181
Probable space group: C M C M
;
_chemical_formula_sum "Si O2"
_cell_formula_units_Z 80
_cell_length_a 7.308909
_cell_length_b 20.328209
_cell_length_c 23.539655
_cell_angle_alpha 90.000000
_cell_angle_beta 90.000000
_cell_angle_gamma 90.000000
_cell_volume 3497.452020
_symmetry_space_group_name_H-M "C M C M"
_symmetry_group_IT_number 63
_symmetry_cell_setting 'orthorhombic'
loop_
_space_group_symop_operation_xyz
x,y,z
-x,-y,1/2+z
x,-y,-z
-x,y,1/2-z
-x,-y,-z
x,y,1/2-z
-x,y,z
x,-y,1/2+z
1/2+x,1/2+y,z
1/2-x,1/2-y,1/2+z
1/2+x,1/2-y,-z
1/2-x,1/2+y,1/2-z
1/2-x,1/2-y,-z
1/2+x,1/2+y,1/2-z
1/2-x,1/2+y,z
1/2+x,1/2-y,1/2+z
loop_
_atom_site_type_symbol
_atom_site_label
_atom_site_fract_x
_atom_site_fract_y
_atom_site_fract_z
Si Si1 0.277716 0.970243 0.687986
Si Si2 0.779118 0.608951 0.642061
Si Si3 0.723078 0.924915 0.014798
Si Si4 0.713120 0.753360 0.813432
Si Si5 0.277236 0.860321 0.599068
O O1 0.219104 0.946745 0.750000
O O2 0.500000 0.969848 0.687552
O O3 0.222694 0.922634 0.637446
O O4 0.219642 0.044755 0.676741
O O5 0.718526 0.598443 0.577026
O O6 0.722221 0.677155 0.669798
O O7 0.000000 0.609081 0.642052
O O8 0.500000 0.926094 0.015524
O O9 0.782486 0.875447 0.964927
O O10 0.778465 0.000000 0.000000
O O11 0.790904 0.763750 0.750000
O O12 0.500000 0.772348 0.809412
O O13 0.787077 0.797009 0.865521
O O14 0.500000 0.858218 0.596363
#
# Coordination Sequence:
#
# PCOD9470181 Si02
#       5
#    16  16  16  16  16
#     4   9  15  24  43  71  96 120 160 210 248 279
#     4  10  19  31  51  77 102 128 160 204 255 296
#     4   9  15  27  48  76 104 125 156 209 258 289
#     4  10  21  35  49  69 101 137 168 201 244 295
#     4   9  16  28  47  70  97 129 165 204 244 287
#
# _framework density 22.873795999999999
#
# number of rings (size 3 to 8) (size 9 to 14) (size 15 to 20)
#    0.000    2.600    2.000    1.200    0.000    4.400 
#    0.000    0.000    0.000    1.800    0.000    0.000 
#    0.000    0.000    0.000    0.000    0.000    0.000 
#
# Total GULP energy -223471.288007 kJ/mol
# GULP energy per Si atom -5586.782200 kJ/mol
# Density = 2.282173 g / cm^3
# Si number density = 22.873796 Si / 1000 Ang^3
#
#
#
# Elastic Constant Matrix: (Units=GPa)
#
#
# Indices 1 2 3 4 5 6 
#
# 1 90.7368 -12.3217 -1.2984 0.0000 0.0000 0.0000
# 2 -12.3217 55.2116 -17.3937 0.0000 0.0000 0.0000
# 3 -1.2984 -17.3937 107.3785 0.0000 0.0000 0.0000
# 4 0.0000 0.0000 0.0000 8.9009 0.0000 0.0000
# 5 0.0000 0.0000 0.0000 0.0000 -14.9963 0.0000
# 6 0.0000 0.0000 0.0000 0.0000 0.0000 11.1407
#
#
#
# Elastic Compliance Matrix: (Units=1/GPa)
#
#
# Indices 1 2 3 4 5 6 
#
# 1 0.011399 0.002727 0.000580 0.000000 0.000000 0.000000
# 2 0.002727 0.019738 0.003230 0.000000 0.000000 0.000000
# 3 0.000580 0.003230 0.009843 0.000000 0.000000 0.000000
# 4 0.000000 0.000000 0.000000 0.112348 0.000000 0.000000
# 5 0.000000 0.000000 0.000000 0.000000 -0.066683 0.000000
# 6 0.000000 0.000000 0.000000 0.000000 0.000000 0.089761
#
#
# Mechanical properties :
#
#
# Convention : Reuss Voigt Hill
#
# Bulk Modulus (GPa) = 18.50016 21.25548 19.87782
# Shear Modulus (GPa) = 27.57073 19.96510 23.76792
#
# Velocity S-wave (km/s) = 3.47557 2.95759 3.22699
# Velocity P-wave (km/s) = 4.92053 4.57993 4.75328
#
# Compressibility (1/GPa) = 0.05405360
#
# Stress axis : x y z
#
# Youngs Moduli (GPa) = 87.72357 50.66298 101.59388
#
# Poissons Ratio (x) = -0.13814 -0.05887
# Poissons Ratio (y) = -0.23919 -0.32818
# Poissons Ratio (z) = -0.05084 -0.16366
#
# Static dielectric constant tensor:
#      x y z
#    x 1.929440 0.000000 0.000000 
#    y 0.000000 1.794230 0.000000 
#    z 0.000000 0.000000 1.911680 
# 
# From -- ./inp_files/61090.got.cif
#   From: 2010.05.17/outbox.cif.g08.bks.cpg/sg63_31_cif.got.tgz:61090.got - 2010.06.03 15:47:04.
