data_PCOD9470841
_publ_section_title
;
Structure prediction by ZEFSAII (Michael W. Deem and Ramdas Pophale) SiO2 
 PCOD9470841
Probable space group: C M C M
;
_chemical_formula_sum "Si O2"
_cell_formula_units_Z 96
_cell_length_a 7.751782
_cell_length_b 27.719949
_cell_length_c 19.779049
_cell_angle_alpha 90.000000
_cell_angle_beta 90.000000
_cell_angle_gamma 90.000000
_cell_volume 4250.102304
_symmetry_space_group_name_H-M "C M C M"
_symmetry_group_IT_number 63
_symmetry_cell_setting 'orthorhombic'
loop_
_space_group_symop_operation_xyz
x,y,z
-x,-y,1/2+z
x,-y,-z
-x,y,1/2-z
-x,-y,-z
x,y,1/2-z
-x,y,z
x,-y,1/2+z
1/2+x,1/2+y,z
1/2-x,1/2-y,1/2+z
1/2+x,1/2-y,-z
1/2-x,1/2+y,1/2-z
1/2-x,1/2-y,-z
1/2+x,1/2+y,1/2-z
1/2-x,1/2+y,z
1/2+x,1/2-y,1/2+z
loop_
_atom_site_type_symbol
_atom_site_label
_atom_site_fract_x
_atom_site_fract_y
_atom_site_fract_z
Si Si1 0.705272 0.137555 0.828622
Si Si2 0.788729 0.044950 0.172658
Si Si3 0.794861 0.296583 0.544150
Si Si4 0.699376 0.453615 0.087250
Si Si5 0.792051 0.753488 0.326092
Si Si6 0.204936 0.096319 0.042176
O O1 0.758058 0.133100 0.750000
O O2 0.500000 0.130539 0.833281
O O3 0.793375 0.096632 0.872440
O O4 0.746425 0.192323 0.849112
O O5 0.727884 0.049610 0.250000
O O6 0.733633 0.085496 0.118313
O O7 0.000000 0.044708 0.176258
O O8 0.730362 0.995262 0.136122
O O9 0.750000 0.250000 0.500000
O O10 0.727286 0.284582 0.619370
O O11 0.733166 0.348648 0.520683
O O12 0.000000 0.299667 0.546330
O O13 0.500000 0.467507 0.075885
O O14 0.777222 0.440741 0.013936
O O15 0.725421 0.746758 0.250000
O O16 0.000000 0.750699 0.323963
O O17 0.000000 0.088700 0.042975
#
# Coordination Sequence:
#
# PCOD9470841 Si02
#       6
#    16  16  16  16  16  16
#     4  10  20  32  49  78 112 141 174 222 276 323
#     4   9  18  34  57  83 109 141 183 225 264 313
#     4  11  23  38  57  81 109 143 182 224 270 321
#     4  10  19  33  55  80 107 142 182 221 263 316
#     4   9  19  36  55  74 100 138 183 225 266 319
#     4  10  21  36  55  81 111 141 177 224 272 317
#
# _framework density 22.587693000000002
#
# number of rings (size 3 to 8) (size 9 to 14) (size 15 to 20)
#    0.000    2.167    0.000    3.000    0.000   10.333 
#    0.000    0.833    0.000    3.000    0.000    0.000 
#    0.000    0.000    0.000    0.000    0.000    0.000 
#
# Total GULP energy -268094.310461 kJ/mol
# GULP energy per Si atom -5585.298135 kJ/mol
# Density = 2.253628 g / cm^3
# Si number density = 22.587693 Si / 1000 Ang^3
#
#
#
# Elastic Constant Matrix: (Units=GPa)
#
#
# Indices 1 2 3 4 5 6 
#
# 1 34.5238 -2.8278 7.3160 0.0000 0.0000 0.0000
# 2 -2.8278 87.7810 46.3897 0.0000 0.0000 0.0000
# 3 7.3160 46.3897 129.8583 0.0000 0.0000 0.0000
# 4 0.0000 0.0000 0.0000 40.3563 0.0000 0.0000
# 5 0.0000 0.0000 0.0000 0.0000 8.0791 0.0000
# 6 0.0000 0.0000 0.0000 0.0000 0.0000 5.5187
#
#
#
# Elastic Compliance Matrix: (Units=1/GPa)
#
#
# Indices 1 2 3 4 5 6 
#
# 1 0.029677 0.002268 -0.002482 0.000000 0.000000 0.000000
# 2 0.002268 0.014216 -0.005206 0.000000 0.000000 0.000000
# 3 -0.002482 -0.005206 0.009700 0.000000 0.000000 0.000000
# 4 0.000000 0.000000 0.000000 0.024779 0.000000 0.000000
# 5 0.000000 0.000000 0.000000 0.000000 0.123776 0.000000
# 6 0.000000 0.000000 0.000000 0.000000 0.000000 0.181201
#
#
# Mechanical properties :
#
#
# Convention : Reuss Voigt Hill
#
# Bulk Modulus (GPa) = 23.39033 39.32433 31.35733
# Shear Modulus (GPa) = 12.24163 24.20985 18.22574
#
# Velocity S-wave (km/s) = 2.33053 3.27741 2.84366
# Velocity P-wave (km/s) = 4.19758 5.63643 4.96935
#
# Compressibility (1/GPa) = 0.04275270
#
# Stress axis : x y z
#
# Youngs Moduli (GPa) = 33.69586 70.34112 103.08833
#
# Poissons Ratio (x) = -0.15952 0.25587
# Poissons Ratio (y) = -0.07641 0.53671
# Poissons Ratio (z) = 0.08364 0.36622
#
# Static dielectric constant tensor:
#      x y z
#    x 1.829730 0.000000 0.000000 
#    y 0.000000 1.774920 0.000000 
#    z 0.000000 0.000000 1.880350 
# 
# From -- ./inp_files/51404.got.cif
#   From: 2010.05.17/outbox.cif.g08.bks.cpg/sg63_26_cif.got.tgz:51404.got - 2010.06.03 15:47:04.
