data_PCOD9470140
_publ_section_title
;
Structure prediction by ZEFSAII (Michael W. Deem and Ramdas Pophale) SiO2 
 PCOD9470140
Probable space group: C M C M
;
_chemical_formula_sum "Si O2"
_cell_formula_units_Z 96
_cell_length_a 26.640468
_cell_length_b 18.006912
_cell_length_c 9.494159
_cell_angle_alpha 90.000000
_cell_angle_beta 90.000000
_cell_angle_gamma 90.000000
_cell_volume 4554.467347
_symmetry_space_group_name_H-M "C M C M"
_symmetry_group_IT_number 63
_symmetry_cell_setting 'orthorhombic'
loop_
_space_group_symop_operation_xyz
x,y,z
-x,-y,1/2+z
x,-y,-z
-x,y,1/2-z
-x,-y,-z
x,y,1/2-z
-x,y,z
x,-y,1/2+z
1/2+x,1/2+y,z
1/2-x,1/2-y,1/2+z
1/2+x,1/2-y,-z
1/2-x,1/2+y,1/2-z
1/2-x,1/2-y,-z
1/2+x,1/2+y,1/2-z
1/2-x,1/2+y,z
1/2+x,1/2-y,1/2+z
loop_
_atom_site_type_symbol
_atom_site_label
_atom_site_fract_x
_atom_site_fract_y
_atom_site_fract_z
Si Si1 0.557138 0.366911 0.414903
Si Si2 0.422257 0.192489 0.409441
Si Si3 0.057278 0.559565 0.598012
Si Si4 0.746645 0.931318 0.415558
Si Si5 0.158567 0.881228 0.914160
Si Si6 0.327911 0.794582 0.089618
O O1 0.566097 0.387406 0.250000
O O2 0.500000 0.390363 0.453218
O O3 0.558912 0.276710 0.419678
O O4 0.603215 0.389884 0.515738
O O5 0.429877 0.166523 0.250000
O O6 0.445998 0.137453 0.520799
O O7 0.364886 0.190282 0.459772
O O8 0.084058 0.500000 0.500000
O O9 0.081342 0.563927 0.750000
O O10 0.000000 0.533915 0.617053
O O11 0.750753 0.948942 0.250000
O O12 0.800464 0.920653 0.489203
O O13 0.717475 0.852452 0.425962
O O14 0.721705 0.000000 0.500000
O O15 0.157880 0.904704 0.750000
O O16 0.176683 0.794626 0.915471
O O17 0.348042 0.807518 0.250000
#
# Coordination Sequence:
#
# PCOD9470140 Si02
#       6
#    16  16  16  16  16  16
#     4   9  18  33  54  81 112 145 181 222 270 326
#     4  10  19  31  50  75 104 137 174 220 271 322
#     4  10  20  32  45  61  86 125 172 220 270 325
#     4  11  23  39  59  83 113 149 189 234 283 336
#     4  10  20  36  59  86 115 148 188 233 282 335
#     4   9  20  37  56  80 111 147 187 229 273 326
#
# _framework density 21.078208
#
# number of rings (size 3 to 8) (size 9 to 14) (size 15 to 20)
#    0.000    2.167    0.000    3.000    0.000    5.333 
#    0.000    1.667    0.000    0.500    0.000    0.000 
#    0.000    0.000    0.000    0.000    0.000    0.000 
#
# Total GULP energy -267453.041879 kJ/mol
# GULP energy per Si atom -5571.938372 kJ/mol
# Density = 2.103023 g / cm^3
# Si number density = 21.078208 Si / 1000 Ang^3
#
#
#
# Elastic Constant Matrix: (Units=GPa)
#
#
# Indices 1 2 3 4 5 6 
#
# 1 71.1156 17.7801 31.5582 0.0000 0.0000 0.0000
# 2 17.7801 24.7731 15.8455 0.0000 0.0000 0.0000
# 3 31.5582 15.8455 129.3289 0.0000 0.0000 0.0000
# 4 0.0000 0.0000 0.0000 18.7288 0.0000 0.0000
# 5 0.0000 0.0000 0.0000 0.0000 49.2399 0.0000
# 6 0.0000 0.0000 0.0000 0.0000 0.0000 12.8481
#
#
#
# Elastic Compliance Matrix: (Units=1/GPa)
#
#
# Indices 1 2 3 4 5 6 
#
# 1 0.018203 -0.011093 -0.003083 0.000000 0.000000 0.000000
# 2 -0.011093 0.050559 -0.003488 0.000000 0.000000 0.000000
# 3 -0.003083 -0.003488 0.008912 0.000000 0.000000 0.000000
# 4 0.000000 0.000000 0.000000 0.053394 0.000000 0.000000
# 5 0.000000 0.000000 0.000000 0.000000 0.020309 0.000000
# 6 0.000000 0.000000 0.000000 0.000000 0.000000 0.077833
#
#
# Mechanical properties :
#
#
# Convention : Reuss Voigt Hill
#
# Bulk Modulus (GPa) = 23.61440 39.50947 31.56193
# Shear Modulus (GPa) = 17.94361 26.83228 22.38794
#
# Velocity S-wave (km/s) = 2.92085 3.57176 3.26258
# Velocity P-wave (km/s) = 4.75423 5.98289 5.40359
#
# Compressibility (1/GPa) = 0.04234705
#
# Stress axis : x y z
#
# Youngs Moduli (GPa) = 54.93603 19.77895 112.21130
#
# Poissons Ratio (x) = 0.21941 0.34591
# Poissons Ratio (y) = 0.60940 0.39136
# Poissons Ratio (z) = 0.16935 0.06898
#
# Static dielectric constant tensor:
#      x y z
#    x 1.835160 0.000000 0.000000 
#    y 0.000000 1.786320 0.000000 
#    z 0.000000 0.000000 1.792760 
# 
# From -- ./inp_files/12336.got.cif
#   From: 2010.05.17/outbox.cif.g08.bks.cpg/sg63_7_cif.got.tgz:12336.got - 2010.06.03 15:47:04.
