data_PCOD9470605
_publ_section_title
;
Structure prediction by ZEFSAII (Michael W. Deem and Ramdas Pophale) SiO2 
 PCOD9470605
Probable space group: C M C M
;
_chemical_formula_sum "Si O2"
_cell_formula_units_Z 64
_cell_length_a 10.345094
_cell_length_b 17.692842
_cell_length_c 18.890546
_cell_angle_alpha 90.000000
_cell_angle_beta 90.000000
_cell_angle_gamma 90.000000
_cell_volume 3457.614343
_symmetry_space_group_name_H-M "C M C M"
_symmetry_group_IT_number 63
_symmetry_cell_setting 'orthorhombic'
loop_
_space_group_symop_operation_xyz
x,y,z
-x,-y,1/2+z
x,-y,-z
-x,y,1/2-z
-x,-y,-z
x,y,1/2-z
-x,y,z
x,-y,1/2+z
1/2+x,1/2+y,z
1/2-x,1/2-y,1/2+z
1/2+x,1/2-y,-z
1/2-x,1/2+y,1/2-z
1/2-x,1/2-y,-z
1/2+x,1/2+y,1/2-z
1/2-x,1/2+y,z
1/2+x,1/2-y,1/2+z
loop_
_atom_site_type_symbol
_atom_site_label
_atom_site_fract_x
_atom_site_fract_y
_atom_site_fract_z
Si Si1 0.000000 0.121363 0.166404
Si Si2 0.741068 0.177176 0.402570
Si Si3 0.000000 0.966440 0.420248
Si Si4 0.000000 0.421975 0.905363
Si Si5 0.000000 0.594344 0.922829
Si Si6 0.777982 0.154653 0.570813
O O1 0.128189 0.164419 0.140205
O O2 0.000000 0.114629 0.250000
O O3 0.000000 0.038432 0.130634
O O4 0.629272 0.119401 0.380064
O O5 0.775593 0.161136 0.485145
O O6 0.688001 0.262619 0.400180
O O7 0.875762 0.912391 0.410654
O O8 0.000000 0.000000 0.500000
O O9 0.000000 0.510609 0.891039
O O10 0.000000 0.413176 0.991284
O O11 0.867522 0.636148 0.904959
#
# Coordination Sequence:
#
# PCOD9470605 Si02
#       6
#     8  16   8   8   8  16
#     4  12  25  40  58  84 123 164 197 240 308 374
#     4  10  19  35  55  85 115 148 193 243 295 349
#     4  12  21  36  60  90 121 155 198 249 294 347
#     4   9  17  28  50  74 107 140 179 231 281 334
#     4   9  17  26  45  80 113 137 171 230 294 333
#     4  10  19  32  58  87 114 145 193 249 293 336
#
# _framework density 18.509872999999999
#
# number of rings (size 3 to 8) (size 9 to 14) (size 15 to 20)
#    0.000    1.750    2.500    3.000    3.500    4.000 
#    0.000    1.875    0.000    0.000    0.000    0.000 
#    0.000    0.000    0.000    0.000    0.000    0.000 
#
# Total GULP energy -178666.564770 kJ/mol
# GULP energy per Si atom -5583.330149 kJ/mol
# Density = 1.846774 g / cm^3
# Si number density = 18.509873 Si / 1000 Ang^3
#
#
#
# Elastic Constant Matrix: (Units=GPa)
#
#
# Indices 1 2 3 4 5 6 
#
# 1 99.8739 17.9017 31.6932 0.0000 0.0000 0.0000
# 2 17.9017 84.8889 29.4727 0.0000 0.0000 0.0000
# 3 31.6932 29.4727 50.6947 0.0000 0.0000 0.0000
# 4 0.0000 0.0000 0.0000 10.2799 0.0000 0.0000
# 5 0.0000 0.0000 0.0000 0.0000 2.6663 0.0000
# 6 0.0000 0.0000 0.0000 0.0000 0.0000 11.9902
#
#
#
# Elastic Compliance Matrix: (Units=1/GPa)
#
#
# Indices 1 2 3 4 5 6 
#
# 1 0.012491 0.000097 -0.007865 0.000000 0.000000 0.000000
# 2 0.000097 0.014760 -0.008641 0.000000 0.000000 0.000000
# 3 -0.007865 -0.008641 0.029667 0.000000 0.000000 0.000000
# 4 0.000000 0.000000 0.000000 0.097278 0.000000 0.000000
# 5 0.000000 0.000000 0.000000 0.000000 0.375053 0.000000
# 6 0.000000 0.000000 0.000000 0.000000 0.000000 0.083401
#
#
# Mechanical properties :
#
#
# Convention : Reuss Voigt Hill
#
# Bulk Modulus (GPa) = 41.49761 43.73254 42.61508
# Shear Modulus (GPa) = 7.65107 15.41327 11.53217
#
# Velocity S-wave (km/s) = 2.03531 2.88879 2.49876
# Velocity P-wave (km/s) = 5.29067 5.89955 5.60339
#
# Compressibility (1/GPa) = 0.02409777
#
# Stress axis : x y z
#
# Youngs Moduli (GPa) = 80.05593 67.75075 33.70730
#
# Poissons Ratio (x) = -0.00654 0.26512
# Poissons Ratio (y) = -0.00773 0.29128
# Poissons Ratio (z) = 0.62967 0.58547
#
# Static dielectric constant tensor:
#      x y z
#    x 1.624790 0.000000 0.000000 
#    y 0.000000 1.630550 0.000000 
#    z 0.000000 0.000000 1.611330 
# 
# From -- ./inp_files/41582.got.cif
#   From: 2010.05.17/outbox.cif.g08.bks.cpg/sg63_21_cif.got.tgz:41582.got - 2010.06.03 15:47:04.
