data_PCOD9470987
_publ_section_title
;
Structure prediction by ZEFSAII (Michael W. Deem and Ramdas Pophale) SiO2 
 PCOD9470987
Probable space group: C M C M
;
_chemical_formula_sum "Si O2"
_cell_formula_units_Z 112
_cell_length_a 19.653725
_cell_length_b 18.021378
_cell_length_c 16.679579
_cell_angle_alpha 90.000000
_cell_angle_beta 90.000000
_cell_angle_gamma 90.000000
_cell_volume 5907.693506
_symmetry_space_group_name_H-M "C M C M"
_symmetry_group_IT_number 63
_symmetry_cell_setting 'orthorhombic'
loop_
_space_group_symop_operation_xyz
x,y,z
-x,-y,1/2+z
x,-y,-z
-x,y,1/2-z
-x,-y,-z
x,y,1/2-z
-x,y,z
x,-y,1/2+z
1/2+x,1/2+y,z
1/2-x,1/2-y,1/2+z
1/2+x,1/2-y,-z
1/2-x,1/2+y,1/2-z
1/2-x,1/2-y,-z
1/2+x,1/2+y,1/2-z
1/2-x,1/2+y,z
1/2+x,1/2-y,1/2+z
loop_
_atom_site_type_symbol
_atom_site_label
_atom_site_fract_x
_atom_site_fract_y
_atom_site_fract_z
Si Si1 0.329557 0.864599 0.103588
Si Si2 0.371658 0.014962 0.337919
Si Si3 0.714116 0.431994 0.843567
Si Si4 0.769410 0.778663 0.589811
Si Si5 0.926191 0.370714 0.543885
Si Si6 0.623186 0.744601 0.656989
Si Si7 0.819174 0.092039 0.846528
O O1 0.325478 0.778111 0.124527
O O2 0.250280 0.887409 0.107679
O O3 0.368338 0.926286 0.154822
O O4 0.364170 0.869649 0.017472
O O5 0.394493 0.037926 0.250000
O O6 0.293415 0.042447 0.348489
O O7 0.416330 0.055801 0.403368
O O8 0.702433 0.411185 0.750000
O O9 0.705706 0.362590 0.902070
O O10 0.669455 0.505152 0.862434
O O11 0.750000 0.750000 0.500000
O O12 0.701177 0.771462 0.643017
O O13 0.919414 0.298631 0.600632
O O14 0.000000 0.370730 0.504028
O O15 0.604597 0.752723 0.750000
O O16 0.626387 0.656683 0.636061
O O17 0.804963 0.097604 0.750000
#
# Coordination Sequence:
#
# PCOD9470987 Si02
#       7
#    16  16  16  16  16  16  16
#     4  10  20  33  50  72 108 138 177 213 265 317
#     4  10  20  35  51  71 103 140 177 220 264 309
#     4   9  16  29  50  79 108 134 162 204 263 327
#     4  11  18  29  51  77 106 135 168 204 264 314
#     4  12  24  36  52  73 103 146 188 222 256 302
#     4  10  19  34  53  75 105 135 168 218 266 315
#     4   8  17  32  55  82 108 136 168 213 276 330
#
# _framework density 18.95833
#
# number of rings (size 3 to 8) (size 9 to 14) (size 15 to 20)
#    0.000    2.000    2.857    2.571    0.000    5.143 
#    0.000    2.143    0.000    1.286    0.000    2.000 
#    0.000    1.143    0.000    0.000    0.000    0.000 
#
# Total GULP energy -312113.607013 kJ/mol
# GULP energy per Si atom -5573.457268 kJ/mol
# Density = 1.891518 g / cm^3
# Si number density = 18.958330 Si / 1000 Ang^3
#
#
#
# Elastic Constant Matrix: (Units=GPa)
#
#
# Indices 1 2 3 4 5 6 
#
# 1 25.5399 7.1067 7.9473 0.0000 0.0000 0.0000
# 2 7.1067 133.3414 25.3773 0.0000 0.0000 0.0000
# 3 7.9473 25.3773 42.9788 0.0000 0.0000 0.0000
# 4 0.0000 0.0000 0.0000 29.7303 0.0000 0.0000
# 5 0.0000 0.0000 0.0000 0.0000 4.1904 0.0000
# 6 0.0000 0.0000 0.0000 0.0000 0.0000 7.2932
#
#
#
# Elastic Compliance Matrix: (Units=1/GPa)
#
#
# Indices 1 2 3 4 5 6 
#
# 1 0.041630 -0.000849 -0.007197 0.000000 0.000000 0.000000
# 2 -0.000849 0.008466 -0.004842 0.000000 0.000000 0.000000
# 3 -0.007197 -0.004842 0.027457 0.000000 0.000000 0.000000
# 4 0.000000 0.000000 0.000000 0.033636 0.000000 0.000000
# 5 0.000000 0.000000 0.000000 0.000000 0.238642 0.000000
# 6 0.000000 0.000000 0.000000 0.000000 0.000000 0.137115
#
#
# Mechanical properties :
#
#
# Convention : Reuss Voigt Hill
#
# Bulk Modulus (GPa) = 19.31320 31.41364 25.36342
# Shear Modulus (GPa) = 9.43431 19.00469 14.21950
#
# Velocity S-wave (km/s) = 2.23319 3.16958 2.74166
# Velocity P-wave (km/s) = 4.10595 5.47730 4.84043
#
# Compressibility (1/GPa) = 0.05177807
#
# Stress axis : x y z
#
# Youngs Moduli (GPa) = 24.02111 118.11490 36.42048
#
# Poissons Ratio (x) = 0.10029 0.26210
# Poissons Ratio (y) = 0.02040 0.17635
# Poissons Ratio (z) = 0.17287 0.57192
#
# Static dielectric constant tensor:
#      x y z
#    x 1.626250 0.000000 0.000000 
#    y 0.000000 1.740360 0.000000 
#    z 0.000000 0.000000 1.703310 
# 
# From -- ./inp_files/47303.got.cif
#   From: 2010.05.17/outbox.cif.g08.bks.cpg/sg63_24_cif.got.tgz:47303.got - 2010.06.03 15:47:04.
