data_PCOD9470871
_publ_section_title
;
Structure prediction by ZEFSAII (Michael W. Deem and Ramdas Pophale) SiO2 
 PCOD9470871
Probable space group: C M C M
;
_chemical_formula_sum "Si O2"
_cell_formula_units_Z 128
_cell_length_a 12.801266
_cell_length_b 23.288775
_cell_length_c 23.071523
_cell_angle_alpha 90.000000
_cell_angle_beta 90.000000
_cell_angle_gamma 90.000000
_cell_volume 6878.216334
_symmetry_space_group_name_H-M "C M C M"
_symmetry_group_IT_number 63
_symmetry_cell_setting 'orthorhombic'
loop_
_space_group_symop_operation_xyz
x,y,z
-x,-y,1/2+z
x,-y,-z
-x,y,1/2-z
-x,-y,-z
x,y,1/2-z
-x,y,z
x,-y,1/2+z
1/2+x,1/2+y,z
1/2-x,1/2-y,1/2+z
1/2+x,1/2-y,-z
1/2-x,1/2+y,1/2-z
1/2-x,1/2-y,-z
1/2+x,1/2+y,1/2-z
1/2-x,1/2+y,z
1/2+x,1/2-y,1/2+z
loop_
_atom_site_type_symbol
_atom_site_label
_atom_site_fract_x
_atom_site_fract_y
_atom_site_fract_z
Si Si1 0.620250 0.291264 0.502920
Si Si2 0.117683 0.071366 0.820255
Si Si3 0.375082 0.442820 0.816459
Si Si4 0.818802 0.323226 0.061791
Si Si5 0.228527 0.673731 0.684277
Si Si6 0.375391 0.932993 0.991075
Si Si7 0.747476 0.361211 0.599893
Si Si8 0.621908 0.216994 0.315241
O O1 0.500000 0.307212 0.494218
O O2 0.696135 0.308096 0.449753
O O3 0.627127 0.223750 0.519674
O O4 0.674587 0.324337 0.556758
O O5 0.111232 0.069031 0.750000
O O6 0.206973 0.116822 0.832725
O O7 0.000000 0.086371 0.840787
O O8 0.145848 0.007148 0.839480
O O9 0.338194 0.438884 0.750000
O O10 0.500000 0.436845 0.816093
O O11 0.323902 0.394785 0.855062
O O12 0.845045 0.314027 0.129300
O O13 0.845850 0.387621 0.041921
O O14 0.184848 0.668050 0.750000
O O15 0.313174 0.724410 0.686559
O O16 0.500000 0.930030 0.982432
O O17 0.313016 0.906783 0.937161
O O18 0.347955 0.000000 0.000000
O O19 0.826645 0.321693 0.635669
O O20 0.630724 0.191193 0.250000
O O21 0.500000 0.227550 0.326493
#
# Coordination Sequence:
#
# PCOD9470871 Si02
#       8
#    16  16  16  16  16  16  16  16
#     4  10  21  37  56  82 112 146 186 227 275 327
#     4   8  15  28  46  72 104 140 179 214 263 328
#     4   9  18  32  52  79 111 149 186 222 271 332
#     4  10  21  38  59  85 108 148 185 229 278 334
#     4  10  19  33  55  84 115 142 176 221 280 339
#     4  10  23  41  61  81 106 143 191 242 286 332
#     4  11  20  35  56  81 109 145 190 232 276 330
#     4  10  20  33  52  82 118 148 180 229 282 334
#
# _framework density 18.609476000000001
#
# number of rings (size 3 to 8) (size 9 to 14) (size 15 to 20)
#    0.000    2.250    1.250    2.625    1.750    2.500 
#    0.000    0.000    0.000    4.125    0.000    1.750 
#    0.000    0.000    0.000    0.000    0.000    0.000 
#
# Total GULP energy -356894.306790 kJ/mol
# GULP energy per Si atom -5576.473544 kJ/mol
# Density = 1.856712 g / cm^3
# Si number density = 18.609476 Si / 1000 Ang^3
#
#
#
# Elastic Constant Matrix: (Units=GPa)
#
#
# Indices 1 2 3 4 5 6 
#
# 1 44.2521 17.8093 10.0577 0.0000 0.0000 0.0000
# 2 17.8093 92.7138 27.3288 0.0000 0.0000 0.0000
# 3 10.0577 27.3288 80.5888 0.0000 0.0000 0.0000
# 4 0.0000 0.0000 0.0000 24.9778 0.0000 0.0000
# 5 0.0000 0.0000 0.0000 0.0000 15.6813 0.0000
# 6 0.0000 0.0000 0.0000 0.0000 0.0000 3.4049
#
#
#
# Elastic Compliance Matrix: (Units=1/GPa)
#
#
# Indices 1 2 3 4 5 6 
#
# 1 0.024684 -0.004259 -0.001636 0.000000 0.000000 0.000000
# 2 -0.004259 0.012719 -0.003782 0.000000 0.000000 0.000000
# 3 -0.001636 -0.003782 0.013895 0.000000 0.000000 0.000000
# 4 0.000000 0.000000 0.000000 0.040036 0.000000 0.000000
# 5 0.000000 0.000000 0.000000 0.000000 0.063770 0.000000
# 6 0.000000 0.000000 0.000000 0.000000 0.000000 0.293692
#
#
# Mechanical properties :
#
#
# Convention : Reuss Voigt Hill
#
# Bulk Modulus (GPa) = 31.30499 36.43849 33.87174
# Shear Modulus (GPa) = 10.44284 19.63674 15.03979
#
# Velocity S-wave (km/s) = 2.37145 3.25191 2.84593
# Velocity P-wave (km/s) = 4.93527 5.80715 5.38887
#
# Compressibility (1/GPa) = 0.03194379
#
# Stress axis : x y z
#
# Youngs Moduli (GPa) = 40.51246 78.62451 71.96702
#
# Poissons Ratio (x) = 0.33487 0.11776
# Poissons Ratio (y) = 0.17255 0.27215
# Poissons Ratio (z) = 0.06629 0.29732
#
# Static dielectric constant tensor:
#      x y z
#    x 1.626910 0.000000 0.000000 
#    y 0.000000 1.649560 0.000000 
#    z 0.000000 0.000000 1.679060 
# 
# From -- ./inp_files/62045.got.cif
#   From: 2010.05.17/outbox.cif.g08.bks.cpg/sg63_32_cif.got.tgz:62045.got - 2010.06.03 15:47:04.
