data_PCOD9470577
_publ_section_title
;
Structure prediction by ZEFSAII (Michael W. Deem and Ramdas Pophale) SiO2 
 PCOD9470577
Probable space group: C M C M
;
_chemical_formula_sum "Si O2"
_cell_formula_units_Z 80
_cell_length_a 18.958581
_cell_length_b 13.894363
_cell_length_c 17.435437
_cell_angle_alpha 90.000000
_cell_angle_beta 90.000000
_cell_angle_gamma 90.000000
_cell_volume 4592.797594
_symmetry_space_group_name_H-M "C M C M"
_symmetry_group_IT_number 63
_symmetry_cell_setting 'orthorhombic'
loop_
_space_group_symop_operation_xyz
x,y,z
-x,-y,1/2+z
x,-y,-z
-x,y,1/2-z
-x,-y,-z
x,y,1/2-z
-x,y,z
x,-y,1/2+z
1/2+x,1/2+y,z
1/2-x,1/2-y,1/2+z
1/2+x,1/2-y,-z
1/2-x,1/2+y,1/2-z
1/2-x,1/2-y,-z
1/2+x,1/2+y,1/2-z
1/2-x,1/2+y,z
1/2+x,1/2-y,1/2+z
loop_
_atom_site_type_symbol
_atom_site_label
_atom_site_fract_x
_atom_site_fract_y
_atom_site_fract_z
Si Si1 0.194296 0.889443 0.420236
Si Si2 0.199505 0.306479 0.664271
Si Si3 0.651669 0.413277 0.837613
Si Si4 0.846272 0.608396 0.494665
Si Si5 0.080969 0.199206 0.463768
O O1 0.199989 0.805914 0.356804
O O2 0.268021 0.891793 0.466910
O O3 0.132963 0.856227 0.477973
O O4 0.174355 0.990275 0.382321
O O5 0.171016 0.323295 0.750000
O O6 0.279064 0.345954 0.662530
O O7 0.160637 0.359914 0.594215
O O8 0.632459 0.435287 0.750000
O O9 0.592695 0.354747 0.883490
O O10 0.874071 0.500000 0.500000
O O11 0.891771 0.690745 0.536097
O O12 0.000000 0.194960 0.487899
#
# Coordination Sequence:
#
# PCOD9470577 Si02
#       5
#    16  16  16  16  16
#     4  11  19  37  58  84 108 145 188 237 278 328
#     4  10  19  32  54  85 114 138 177 232 289 332
#     4  11  21  34  56  85 115 144 181 230 288 335
#     4  11  19  37  60  82 109 143 188 244 280 321
#     4  11  23  38  56  79 114 155 189 224 279 343
#
# _framework density 17.418578
#
# number of rings (size 3 to 8) (size 9 to 14) (size 15 to 20)
#    0.000    1.200    6.000    2.400    0.000    2.400 
#    0.000    1.000    0.000   14.400    0.000    0.000 
#    0.000    0.000    0.000    0.000    0.000    0.000 
#
# Total GULP energy -223252.637769 kJ/mol
# GULP energy per Si atom -5581.315944 kJ/mol
# Density = 1.737893 g / cm^3
# Si number density = 17.418578 Si / 1000 Ang^3
#
#
#
# Elastic Constant Matrix: (Units=GPa)
#
#
# Indices 1 2 3 4 5 6 
#
# 1 47.8308 33.2952 4.8885 0.0000 0.0000 0.0000
# 2 33.2952 125.5095 48.2678 0.0000 0.0000 0.0000
# 3 4.8885 48.2678 92.2559 0.0000 0.0000 0.0000
# 4 0.0000 0.0000 0.0000 22.3261 0.0000 0.0000
# 5 0.0000 0.0000 0.0000 0.0000 11.6549 0.0000
# 6 0.0000 0.0000 0.0000 0.0000 0.0000 5.3913
#
#
#
# Elastic Compliance Matrix: (Units=1/GPa)
#
#
# Indices 1 2 3 4 5 6 
#
# 1 0.026214 -0.008037 0.002816 0.000000 0.000000 0.000000
# 2 -0.008037 0.012438 -0.006082 0.000000 0.000000 0.000000
# 3 0.002816 -0.006082 0.013872 0.000000 0.000000 0.000000
# 4 0.000000 0.000000 0.000000 0.044791 0.000000 0.000000
# 5 0.000000 0.000000 0.000000 0.000000 0.085801 0.000000
# 6 0.000000 0.000000 0.000000 0.000000 0.000000 0.185484
#
#
# Mechanical properties :
#
#
# Convention : Reuss Voigt Hill
#
# Bulk Modulus (GPa) = 33.42406 48.72211 41.07309
# Shear Modulus (GPa) = 12.46329 19.81745 16.14037
#
# Velocity S-wave (km/s) = 2.67782 3.37667 3.04734
# Velocity P-wave (km/s) = 5.36576 6.57530 6.00108
#
# Compressibility (1/GPa) = 0.02991857
#
# Stress axis : x y z
#
# Youngs Moduli (GPa) = 38.14791 80.39565 72.08658
#
# Poissons Ratio (x) = 0.64613 -0.20298
# Poissons Ratio (y) = 0.30659 0.43842
# Poissons Ratio (z) = -0.10742 0.48896
#
# Static dielectric constant tensor:
#      x y z
#    x 1.563630 0.000000 0.000000 
#    y 0.000000 1.598580 0.000000 
#    z 0.000000 0.000000 1.617270 
# 
# From -- ./inp_files/35108.got.cif
#   From: 2010.05.17/outbox.cif.g08.bks.cpg/sg63_18_cif.got.tgz:35108.got - 2010.06.03 15:47:04.
