data_PCOD9470821
_publ_section_title
;
Structure prediction by ZEFSAII (Michael W. Deem and Ramdas Pophale) SiO2 
 PCOD9470821
Probable space group: C M C M
;
_chemical_formula_sum "Si O2"
_cell_formula_units_Z 88
_cell_length_a 22.554199
_cell_length_b 28.964449
_cell_length_c 7.715716
_cell_angle_alpha 90.000000
_cell_angle_beta 90.000000
_cell_angle_gamma 90.000000
_cell_volume 5040.445380
_symmetry_space_group_name_H-M "C M C M"
_symmetry_group_IT_number 63
_symmetry_cell_setting 'orthorhombic'
loop_
_space_group_symop_operation_xyz
x,y,z
-x,-y,1/2+z
x,-y,-z
-x,y,1/2-z
-x,-y,-z
x,y,1/2-z
-x,y,z
x,-y,1/2+z
1/2+x,1/2+y,z
1/2-x,1/2-y,1/2+z
1/2+x,1/2-y,-z
1/2-x,1/2+y,1/2-z
1/2-x,1/2-y,-z
1/2+x,1/2+y,1/2-z
1/2-x,1/2+y,z
1/2+x,1/2-y,1/2+z
loop_
_atom_site_type_symbol
_atom_site_label
_atom_site_fract_x
_atom_site_fract_y
_atom_site_fract_z
Si Si1 0.430207 0.861488 0.053923
Si Si2 0.147857 0.447976 0.957375
Si Si3 0.110296 0.116827 0.461509
Si Si4 0.427780 0.313144 0.250000
Si Si5 0.716888 0.551803 0.457328
Si Si6 0.000000 0.053481 0.044102
Si Si7 0.428157 0.793618 0.750000
O O1 0.424511 0.844397 0.250000
O O2 0.500000 0.870938 0.020817
O O3 0.393636 0.908409 0.032262
O O4 0.409619 0.823110 0.917346
O O5 0.148013 0.442741 0.750000
O O6 0.215793 0.443458 0.023597
O O7 0.128037 0.500000 0.000000
O O8 0.108694 0.124388 0.250000
O O9 0.096966 0.161349 0.578288
O O10 0.171683 0.091654 0.510773
O O11 0.058503 0.080665 0.512133
O O12 0.500000 0.316385 0.250000
O O13 0.409678 0.259478 0.250000
O O14 0.695253 0.500000 0.500000
O O15 0.719703 0.554207 0.250000
O O16 0.000000 0.056434 0.250000
O O17 0.000000 0.000000 0.000000
O O18 0.500000 0.792621 0.750000
#
# Coordination Sequence:
#
# PCOD9470821 Si02
#       7
#    16  16  16   8  16   8   8
#     4  10  20  36  58  84 113 142 178 219 271 324
#     4  10  19  33  54  83 117 150 183 218 259 320
#     4  10  21  36  50  77 110 140 182 232 274 321
#     4  11  22  36  60  81 104 140 183 230 289 327
#     4   9  19  33  51  77 109 148 188 222 263 322
#     4  10  20  30  48  72 106 146 174 217 273 323
#     4   9  20  38  58  83 106 138 180 229 274 328
#
# _framework density 17.458776
#
# number of rings (size 3 to 8) (size 9 to 14) (size 15 to 20)
#    0.000    2.182    1.818    1.091    2.545    1.818 
#    0.000    1.818    0.000    1.091    0.000    0.000 
#    0.000    0.000    0.000    0.000    0.000    0.000 
#
# Total GULP energy -245387.881906 kJ/mol
# GULP energy per Si atom -5576.997316 kJ/mol
# Density = 1.741904 g / cm^3
# Si number density = 17.458776 Si / 1000 Ang^3
#
#
#
# Elastic Constant Matrix: (Units=GPa)
#
#
# Indices 1 2 3 4 5 6 
#
# 1 53.9226 58.8075 34.1395 0.0000 0.0000 0.0000
# 2 58.8075 160.8317 58.5524 0.0000 0.0000 0.0000
# 3 34.1395 58.5524 78.6109 0.0000 0.0000 0.0000
# 4 0.0000 0.0000 0.0000 24.8111 0.0000 0.0000
# 5 0.0000 0.0000 0.0000 0.0000 -26.5279 0.0000
# 6 0.0000 0.0000 0.0000 0.0000 0.0000 19.1947
#
#
#
# Elastic Compliance Matrix: (Units=1/GPa)
#
#
# Indices 1 2 3 4 5 6 
#
# 1 0.033794 -0.009623 -0.007508 0.000000 0.000000 0.000000
# 2 -0.009623 0.011271 -0.004216 0.000000 0.000000 0.000000
# 3 -0.007508 -0.004216 0.019122 0.000000 0.000000 0.000000
# 4 0.000000 0.000000 0.000000 0.040304 0.000000 0.000000
# 5 0.000000 0.000000 0.000000 0.000000 -0.037696 0.000000
# 6 0.000000 0.000000 0.000000 0.000000 0.000000 0.052098
#
#
# Mechanical properties :
#
#
# Convention : Reuss Voigt Hill
#
# Bulk Modulus (GPa) = 46.52959 66.26265 56.39612
# Shear Modulus (GPa) = 29.62927 12.95329 21.29128
#
# Velocity S-wave (km/s) = 4.12406 2.72680 3.49595
# Velocity P-wave (km/s) = 7.02752 6.92460 6.97625
#
# Compressibility (1/GPa) = 0.02149170
#
# Stress axis : x y z
#
# Youngs Moduli (GPa) = 29.59139 88.72170 52.29569
#
# Poissons Ratio (x) = 0.85376 0.39266
# Poissons Ratio (y) = 0.28476 0.22049
# Poissons Ratio (z) = 0.22219 0.37406
#
# Static dielectric constant tensor:
#      x y z
#    x 1.610870 0.000000 0.000000 
#    y 0.000000 1.637760 0.000000 
#    z 0.000000 0.000000 1.634620 
# 
# From -- ./inp_files/8269.got.cif
#   From: 2010.05.17/outbox.cif.g08.bks.cpg/sg63_5_cif.got.tgz:8269.got - 2010.06.03 15:47:04.
