data_PCOD9470184
_publ_section_title
;
Structure prediction by ZEFSAII (Michael W. Deem and Ramdas Pophale) SiO2 
 PCOD9470184
Probable space group: C M C M
;
_chemical_formula_sum "Si O2"
_cell_formula_units_Z 104
_cell_length_a 32.645508
_cell_length_b 21.476971
_cell_length_c 8.537603
_cell_angle_alpha 90.000000
_cell_angle_beta 90.000000
_cell_angle_gamma 90.000000
_cell_volume 5985.940808
_symmetry_space_group_name_H-M "C M C M"
_symmetry_group_IT_number 63
_symmetry_cell_setting 'orthorhombic'
loop_
_space_group_symop_operation_xyz
x,y,z
-x,-y,1/2+z
x,-y,-z
-x,y,1/2-z
-x,-y,-z
x,y,1/2-z
-x,y,z
x,-y,1/2+z
1/2+x,1/2+y,z
1/2-x,1/2-y,1/2+z
1/2+x,1/2-y,-z
1/2-x,1/2+y,1/2-z
1/2-x,1/2-y,-z
1/2+x,1/2+y,1/2-z
1/2-x,1/2+y,z
1/2+x,1/2-y,1/2+z
loop_
_atom_site_type_symbol
_atom_site_label
_atom_site_fract_x
_atom_site_fract_y
_atom_site_fract_z
Si Si1 0.341023 0.181984 0.562440
Si Si2 0.284761 0.068249 0.939447
Si Si3 0.454485 0.300385 0.064094
Si Si4 0.434964 0.166378 0.937299
Si Si5 0.364675 0.680426 0.437771
Si Si6 0.310825 0.567420 0.937545
Si Si7 0.000000 0.568139 0.562580
O O1 0.333764 0.186365 0.750000
O O2 0.309766 0.129156 0.503215
O O3 0.387004 0.157671 0.536842
O O4 0.344312 0.253835 0.504423
O O5 0.287476 0.066704 0.750000
O O6 0.236954 0.075357 0.983823
O O7 0.298657 0.000000 0.000000
O O8 0.452918 0.310201 0.250000
O O9 0.500000 0.321822 0.008466
O O10 0.451069 0.227165 0.024727
O O11 0.412079 0.325783 0.991571
O O12 0.440845 0.177158 0.750000
O O13 0.460537 0.107095 0.987390
O O14 0.365003 0.683329 0.250000
O O15 0.338109 0.622804 0.495678
O O16 0.312936 0.567886 0.750000
O O17 0.324283 0.500000 0.000000
O O18 0.000000 0.500000 0.500000
O O19 0.000000 0.566416 0.750000
#
# Coordination Sequence:
#
# PCOD9470184 Si02
#       7
#    16  16  16  16  16  16   8
#     4   8  16  31  50  72 100 133 170 215 262 306
#     4   9  18  33  51  72 100 137 178 216 260 310
#     4  10  19  31  51  77 103 130 163 207 253 300
#     4   9  17  31  48  65  92 131 171 211 258 309
#     4  10  20  34  54  79 106 137 173 211 256 311
#     4  10  20  35  55  77 104 136 171 212 256 310
#     4  10  20  30  42  62  90 128 173 216 261 308
#
# _framework density 17.374044999999999
#
# number of rings (size 3 to 8) (size 9 to 14) (size 15 to 20)
#    0.000    2.615    0.769    2.308    0.000    3.385 
#    0.000    3.846    0.000    0.462    0.000    0.000 
#    0.000    0.000    0.000    0.000    0.000    0.000 
#
# Total GULP energy -289632.927173 kJ/mol
# GULP energy per Si atom -5569.863984 kJ/mol
# Density = 1.733450 g / cm^3
# Si number density = 17.374045 Si / 1000 Ang^3
#
#
#
# Elastic Constant Matrix: (Units=GPa)
#
#
# Indices 1 2 3 4 5 6 
#
# 1 94.2734 83.0967 27.8028 0.0000 0.0000 0.0000
# 2 83.0967 135.1188 25.4731 0.0000 0.0000 0.0000
# 3 27.8028 25.4731 23.7324 0.0000 0.0000 0.0000
# 4 0.0000 0.0000 0.0000 28.1620 0.0000 0.0000
# 5 0.0000 0.0000 0.0000 0.0000 15.7972 0.0000
# 6 0.0000 0.0000 0.0000 0.0000 0.0000 -25.9794
#
#
#
# Elastic Compliance Matrix: (Units=1/GPa)
#
#
# Indices 1 2 3 4 5 6 
#
# 1 0.028258 -0.013963 -0.018118 0.000000 0.000000 0.000000
# 2 -0.013963 0.016178 -0.001007 0.000000 0.000000 0.000000
# 3 -0.018118 -0.001007 0.064442 0.000000 0.000000 0.000000
# 4 0.000000 0.000000 0.000000 0.035509 0.000000 0.000000
# 5 0.000000 0.000000 0.000000 0.000000 0.063302 0.000000
# 6 0.000000 0.000000 0.000000 0.000000 0.000000 -0.038492
#
#
# Mechanical properties :
#
#
# Convention : Reuss Voigt Hill
#
# Bulk Modulus (GPa) = 23.41724 58.42998 40.92361
# Shear Modulus (GPa) = 20.03152 11.37942 15.70547
#
# Velocity S-wave (km/s) = 3.39921 2.56201 3.00986
# Velocity P-wave (km/s) = 5.37714 6.51579 5.97366
#
# Compressibility (1/GPa) = 0.04270358
#
# Stress axis : x y z
#
# Youngs Moduli (GPa) = 35.38802 61.81361 15.51773
#
# Poissons Ratio (x) = 0.86309 0.28115
# Poissons Ratio (y) = 0.49412 0.01562
# Poissons Ratio (z) = 0.64116 0.06222
#
# Static dielectric constant tensor:
#      x y z
#    x 1.609270 0.000000 0.000000 
#    y 0.000000 1.574790 0.000000 
#    z 0.000000 0.000000 1.604410 
# 
# From -- ./inp_files/14473.got.cif
#   From: 2010.05.17/outbox.cif.g08.bks.cpg/sg63_8_cif.got.tgz:14473.got - 2010.06.03 15:47:04.
