data_PCOD9470594
_publ_section_title
;
Structure prediction by ZEFSAII (Michael W. Deem and Ramdas Pophale) SiO2 
 PCOD9470594
Probable space group: C M C M
;
_chemical_formula_sum "Si O2"
_cell_formula_units_Z 72
_cell_length_a 21.179025
_cell_length_b 9.623530
_cell_length_c 20.445205
_cell_angle_alpha 90.000000
_cell_angle_beta 90.000000
_cell_angle_gamma 90.000000
_cell_volume 4167.079989
_symmetry_space_group_name_H-M "C M C M"
_symmetry_group_IT_number 63
_symmetry_cell_setting 'orthorhombic'
loop_
_space_group_symop_operation_xyz
x,y,z
-x,-y,1/2+z
x,-y,-z
-x,y,1/2-z
-x,-y,-z
x,y,1/2-z
-x,y,z
x,-y,1/2+z
1/2+x,1/2+y,z
1/2-x,1/2-y,1/2+z
1/2+x,1/2-y,-z
1/2-x,1/2+y,1/2-z
1/2-x,1/2-y,-z
1/2+x,1/2+y,1/2-z
1/2-x,1/2+y,z
1/2+x,1/2-y,1/2+z
loop_
_atom_site_type_symbol
_atom_site_label
_atom_site_fract_x
_atom_site_fract_y
_atom_site_fract_z
Si Si1 0.647082 0.500000 0.500000
Si Si2 0.304564 0.101680 0.325496
Si Si3 0.427125 0.051887 0.396207
Si Si4 0.381842 0.797284 0.471174
Si Si5 0.749007 0.643287 0.592690
O O1 0.608957 0.368272 0.528147
O O2 0.692988 0.566559 0.554458
O O3 0.290524 0.127785 0.250000
O O4 0.379387 0.090067 0.338686
O O5 0.276147 0.219059 0.372740
O O6 0.275312 0.958351 0.351524
O O7 0.500000 0.080585 0.383656
O O8 0.403032 0.138911 0.459504
O O9 0.417722 0.890683 0.417532
O O10 0.307482 0.825109 0.456242
#
# Coordination Sequence:
#
# PCOD9470594 Si02
#       5
#     8  16  16  16  16
#     4  12  18  30  55  84 113 140 162 222 294 336
#     4  11  22  36  56  80 111 150 185 223 268 326
#     4  10  21  38  55  78 108 146 188 226 263 321
#     4  10  19  32  56  81 111 140 170 225 284 328
#     4  11  20  34  53  86 116 138 176 225 286 336
#
# _framework density 17.278286000000001
#
# number of rings (size 3 to 8) (size 9 to 14) (size 15 to 20)
#    0.000    1.333    4.444    5.333    0.000    0.444 
#    0.000    2.222    0.000    0.000    0.000    0.000 
#    0.000    0.000    0.000    0.000    0.000    0.000 
#
# Total GULP energy -200930.320714 kJ/mol
# GULP energy per Si atom -5581.397798 kJ/mol
# Density = 1.723896 g / cm^3
# Si number density = 17.278286 Si / 1000 Ang^3
#
#
#
# Elastic Constant Matrix: (Units=GPa)
#
#
# Indices 1 2 3 4 5 6 
#
# 1 84.1153 25.7167 8.8037 0.0000 0.0000 0.0000
# 2 25.7167 108.1791 -1.6353 0.0000 0.0000 0.0000
# 3 8.8037 -1.6353 31.8666 0.0000 0.0000 0.0000
# 4 0.0000 0.0000 0.0000 16.7090 0.0000 0.0000
# 5 0.0000 0.0000 0.0000 0.0000 9.5571 0.0000
# 6 0.0000 0.0000 0.0000 0.0000 0.0000 13.9345
#
#
#
# Elastic Compliance Matrix: (Units=1/GPa)
#
#
# Indices 1 2 3 4 5 6 
#
# 1 0.013272 -0.003213 -0.003831 0.000000 0.000000 0.000000
# 2 -0.003213 0.010029 0.001402 0.000000 0.000000 0.000000
# 3 -0.003831 0.001402 0.032511 0.000000 0.000000 0.000000
# 4 0.000000 0.000000 0.000000 0.059848 0.000000 0.000000
# 5 0.000000 0.000000 0.000000 0.000000 0.104634 0.000000
# 6 0.000000 0.000000 0.000000 0.000000 0.000000 0.071764
#
#
# Mechanical properties :
#
#
# Convention : Reuss Voigt Hill
#
# Bulk Modulus (GPa) = 22.45787 32.21457 27.33622
# Shear Modulus (GPa) = 15.71409 20.79183 18.25296
#
# Velocity S-wave (km/s) = 3.01901 3.47270 3.25377
# Velocity P-wave (km/s) = 5.01782 5.89614 5.47463
#
# Compressibility (1/GPa) = 0.04452782
#
# Stress axis : x y z
#
# Youngs Moduli (GPa) = 75.34810 99.71172 30.75853
#
# Poissons Ratio (x) = 0.32037 0.11785
# Poissons Ratio (y) = 0.24209 -0.04313
# Poissons Ratio (z) = 0.28869 -0.13982
#
# Static dielectric constant tensor:
#      x y z
#    x 1.585310 0.000000 0.000000 
#    y 0.000000 1.612720 0.000000 
#    z 0.000000 0.000000 1.563090 
# 
# From -- ./inp_files/56328.got.cif
#   From: 2010.05.17/outbox.cif.g08.bks.cpg/sg63_29_cif.got.tgz:56328.got - 2010.06.03 15:47:04.
