data_PCOD9470527
_publ_section_title
;
Structure prediction by ZEFSAII (Michael W. Deem and Ramdas Pophale) SiO2 
 PCOD9470527
Probable space group: C M C M
;
_chemical_formula_sum "Si O2"
_cell_formula_units_Z 96
_cell_length_a 7.699848
_cell_length_b 30.490567
_cell_length_c 18.788267
_cell_angle_alpha 90.000000
_cell_angle_beta 90.000000
_cell_angle_gamma 90.000000
_cell_volume 4410.972761
_symmetry_space_group_name_H-M "C M C M"
_symmetry_group_IT_number 63
_symmetry_cell_setting 'orthorhombic'
loop_
_space_group_symop_operation_xyz
x,y,z
-x,-y,1/2+z
x,-y,-z
-x,y,1/2-z
-x,-y,-z
x,y,1/2-z
-x,y,z
x,-y,1/2+z
1/2+x,1/2+y,z
1/2-x,1/2-y,1/2+z
1/2+x,1/2-y,-z
1/2-x,1/2+y,1/2-z
1/2-x,1/2-y,-z
1/2+x,1/2+y,1/2-z
1/2-x,1/2+y,z
1/2+x,1/2-y,1/2+z
loop_
_atom_site_type_symbol
_atom_site_label
_atom_site_fract_x
_atom_site_fract_y
_atom_site_fract_z
Si Si1 0.299631 0.408480 0.093953
Si Si2 0.711083 0.507554 0.829979
Si Si3 0.704806 0.068289 0.439908
Si Si4 0.705577 0.685851 0.553697
Si Si5 0.706544 0.862918 0.672982
Si Si6 0.207713 0.778074 0.901958
O O1 0.500000 0.401866 0.115479
O O2 0.225762 0.443737 0.148965
O O3 0.221235 0.360019 0.082472
O O4 0.293429 0.431497 0.016420
O O5 0.766232 0.495214 0.750000
O O6 0.500000 0.507400 0.831571
O O7 0.771803 0.473891 0.890252
O O8 0.500000 0.074320 0.453881
O O9 0.776175 0.108596 0.392408
O O10 0.500000 0.678830 0.543127
O O11 0.730011 0.728199 0.603242
O O12 0.776991 0.701290 0.476720
O O13 0.778155 0.875927 0.750000
O O14 0.500000 0.870966 0.674011
O O15 0.737142 0.811917 0.658230
O O16 0.000000 0.776959 0.905170
#
# Coordination Sequence:
#
# PCOD9470527 Si02
#       6
#    16  16  16  16  16  16
#     4  10  20  37  59  83 111 145 189 234 273 325
#     4  10  22  39  58  80 109 147 187 228 276 331
#     4  11  22  36  57  84 113 144 184 232 283 336
#     4   9  18  33  54  79 109 142 178 223 273 321
#     4  10  21  36  53  76 110 149 185 225 277 335
#     4  10  19  32  53  80 109 141 180 224 272 324
#
# _framework density 21.763908000000001
#
# number of rings (size 3 to 8) (size 9 to 14) (size 15 to 20)
#    0.000    2.000    1.667    2.000    0.000    6.000 
#    0.000    0.833    0.000    3.000    0.000    0.000 
#    0.000    0.000    0.000    0.000    0.000    0.000 
#
# Total GULP energy -268023.981110 kJ/mol
# GULP energy per Si atom -5583.832940 kJ/mol
# Density = 2.171437 g / cm^3
# Si number density = 21.763908 Si / 1000 Ang^3
#
#
#
# Elastic Constant Matrix: (Units=GPa)
#
#
# Indices 1 2 3 4 5 6 
#
# 1 40.4476 -10.3236 -11.1269 0.0000 0.0000 0.0000
# 2 -10.3236 113.8879 3.7715 0.0000 0.0000 0.0000
# 3 -11.1269 3.7715 28.2467 0.0000 0.0000 0.0000
# 4 0.0000 0.0000 0.0000 88.6469 0.0000 0.0000
# 5 0.0000 0.0000 0.0000 0.0000 4.5997 0.0000
# 6 0.0000 0.0000 0.0000 0.0000 0.0000 19.7666
#
#
#
# Elastic Compliance Matrix: (Units=1/GPa)
#
#
# Indices 1 2 3 4 5 6 
#
# 1 0.028268 0.002203 0.010841 0.000000 0.000000 0.000000
# 2 0.002203 0.008991 -0.000333 0.000000 0.000000 0.000000
# 3 0.010841 -0.000333 0.039717 0.000000 0.000000 0.000000
# 4 0.000000 0.000000 0.000000 0.011281 0.000000 0.000000
# 5 0.000000 0.000000 0.000000 0.000000 0.217406 0.000000
# 6 0.000000 0.000000 0.000000 0.000000 0.000000 0.050590
#
#
# Mechanical properties :
#
#
# Convention : Reuss Voigt Hill
#
# Bulk Modulus (GPa) = 9.76558 16.35824 13.06191
# Shear Modulus (GPa) = 13.70001 35.95338 24.82670
#
# Velocity S-wave (km/s) = 2.51167 4.06886 3.38113
# Velocity P-wave (km/s) = 3.59279 5.44120 4.61057
#
# Compressibility (1/GPa) = 0.10240047
#
# Stress axis : x y z
#
# Youngs Moduli (GPa) = 35.37562 111.21846 25.17799
#
# Poissons Ratio (x) = -0.24506 -0.27296
# Poissons Ratio (y) = -0.07795 0.00837
# Poissons Ratio (z) = -0.38351 0.03699
#
# Static dielectric constant tensor:
#      x y z
#    x 1.816070 0.000000 0.000000 
#    y 0.000000 1.827490 0.000000 
#    z 0.000000 0.000000 1.777920 
# 
# From -- ./inp_files/51291.got.cif
#   From: 2010.05.17/outbox.cif.g08.bks.cpg/sg63_26_cif.got.tgz:51291.got - 2010.06.03 15:47:04.
