data_PCOD9470082
_publ_section_title
;
Structure prediction by ZEFSAII (Michael W. Deem and Ramdas Pophale) SiO2 
 PCOD9470082
Probable space group: C M C M
;
_chemical_formula_sum "Si O2"
_cell_formula_units_Z 56
_cell_length_a 25.954298
_cell_length_b 9.822700
_cell_length_c 10.195549
_cell_angle_alpha 90.000000
_cell_angle_beta 90.000000
_cell_angle_gamma 90.000000
_cell_volume 2599.266343
_symmetry_space_group_name_H-M "C M C M"
_symmetry_group_IT_number 63
_symmetry_cell_setting 'orthorhombic'
loop_
_space_group_symop_operation_xyz
x,y,z
-x,-y,1/2+z
x,-y,-z
-x,y,1/2-z
-x,-y,-z
x,y,1/2-z
-x,y,z
x,-y,1/2+z
1/2+x,1/2+y,z
1/2-x,1/2-y,1/2+z
1/2+x,1/2-y,-z
1/2-x,1/2+y,1/2-z
1/2-x,1/2-y,-z
1/2+x,1/2+y,1/2-z
1/2-x,1/2+y,z
1/2+x,1/2-y,1/2+z
loop_
_atom_site_type_symbol
_atom_site_label
_atom_site_fract_x
_atom_site_fract_y
_atom_site_fract_z
Si Si1 0.071963 0.114283 0.101816
Si Si2 0.190774 0.171489 0.392152
Si Si3 0.802717 0.603563 0.103342
Si Si4 0.500000 0.133160 0.906437
O O1 0.055306 0.083194 0.250000
O O2 0.133955 0.112343 0.105265
O O3 0.048641 0.263930 0.070212
O O4 0.055450 0.000000 0.000000
O O5 0.194341 0.250760 0.250000
O O6 0.194372 0.255189 0.526271
O O7 0.241103 0.077056 0.385992
O O8 0.824171 0.604402 0.250000
O O9 0.827068 0.500000 0.000000
O O10 0.500000 0.096833 0.750000
O O11 0.500000 0.000000 0.000000
#
# Coordination Sequence:
#
# PCOD9470082 Si02
#       4
#    16  16  16   8
#     4  10  21  38  61  88 116 147 187 234 283 338
#     4   9  19  34  51  75 107 142 183 228 272 325
#     4  10  19  31  49  73 105 145 185 227 275 326
#     4  10  23  42  62  86 116 148 185 232 284 340
#
# _framework density 21.544540999999999
#
# number of rings (size 3 to 8) (size 9 to 14) (size 15 to 20)
#    0.000    2.286    0.000    2.143    0.000    4.571 
#    0.000    2.857    0.000    0.000    0.000    0.000 
#    0.000    0.000    0.000    0.000    0.000    0.000 
#
# Total GULP energy -155869.532776 kJ/mol
# GULP energy per Si atom -5566.769028 kJ/mol
# Density = 2.149550 g / cm^3
# Si number density = 21.544541 Si / 1000 Ang^3
#
#
#
# Elastic Constant Matrix: (Units=GPa)
#
#
# Indices 1 2 3 4 5 6 
#
# 1 74.6945 -4.8866 10.2521 0.0000 0.0000 0.0000
# 2 -4.8866 88.6351 90.5545 0.0000 0.0000 0.0000
# 3 10.2521 90.5545 229.3337 0.0000 0.0000 0.0000
# 4 0.0000 0.0000 0.0000 45.7007 0.0000 0.0000
# 5 0.0000 0.0000 0.0000 0.0000 3.6077 0.0000
# 6 0.0000 0.0000 0.0000 0.0000 0.0000 1.0664
#
#
#
# Elastic Compliance Matrix: (Units=1/GPa)
#
#
# Indices 1 2 3 4 5 6 
#
# 1 0.013750 0.002323 -0.001532 0.000000 0.000000 0.000000
# 2 0.002323 0.019304 -0.007726 0.000000 0.000000 0.000000
# 3 -0.001532 -0.007726 0.007480 0.000000 0.000000 0.000000
# 4 0.000000 0.000000 0.000000 0.021882 0.000000 0.000000
# 5 0.000000 0.000000 0.000000 0.000000 0.277185 0.000000
# 6 0.000000 0.000000 0.000000 0.000000 0.000000 0.937708
#
#
# Mechanical properties :
#
#
# Convention : Reuss Voigt Hill
#
# Bulk Modulus (GPa) = 37.50402 64.94482 51.22442
# Shear Modulus (GPa) = 3.84596 29.85785 16.85190
#
# Velocity S-wave (km/s) = 1.33753 3.72676 2.79980
# Velocity P-wave (km/s) = 4.45318 6.98056 5.85487
#
# Compressibility (1/GPa) = 0.02666381
#
# Stress axis : x y z
#
# Youngs Moduli (GPa) = 72.72653 51.80342 133.69558
#
# Poissons Ratio (x) = -0.12036 0.20483
# Poissons Ratio (y) = -0.16897 1.03295
# Poissons Ratio (z) = 0.11142 0.40024
#
# Static dielectric constant tensor:
#      x y z
#    x 1.813450 0.000000 0.000000 
#    y 0.000000 1.822660 0.000000 
#    z 0.000000 0.000000 1.809970 
# 
# From -- ./inp_files/11418.got.cif
#   From: 2010.05.17/outbox.cif.g08.bks.cpg/sg63_6_cif.got.tgz:11418.got - 2010.06.03 15:47:04.
