data_PCOD9470736
_publ_section_title
;
Structure prediction by ZEFSAII (Michael W. Deem and Ramdas Pophale) SiO2 
 PCOD9470736
Probable space group: C M C M
;
_chemical_formula_sum "Si O2"
_cell_formula_units_Z 52
_cell_length_a 17.815840
_cell_length_b 4.976668
_cell_length_c 24.955873
_cell_angle_alpha 90.000000
_cell_angle_beta 90.000000
_cell_angle_gamma 90.000000
_cell_volume 2212.675565
_symmetry_space_group_name_H-M "C M C M"
_symmetry_group_IT_number 63
_symmetry_cell_setting 'orthorhombic'
loop_
_space_group_symop_operation_xyz
x,y,z
-x,-y,1/2+z
x,-y,-z
-x,y,1/2-z
-x,-y,-z
x,y,1/2-z
-x,y,z
x,-y,1/2+z
1/2+x,1/2+y,z
1/2-x,1/2-y,1/2+z
1/2+x,1/2-y,-z
1/2-x,1/2+y,1/2-z
1/2-x,1/2-y,-z
1/2+x,1/2+y,1/2-z
1/2-x,1/2+y,z
1/2+x,1/2-y,1/2+z
loop_
_atom_site_type_symbol
_atom_site_label
_atom_site_fract_x
_atom_site_fract_y
_atom_site_fract_z
Si Si1 0.802916 0.470129 0.937980
Si Si2 0.698226 0.384703 0.312534
Si Si3 0.000000 0.560317 0.750000
Si Si4 0.082579 0.719677 0.643534
O O1 0.766296 0.178435 0.930149
O O2 0.870792 0.551143 0.899451
O O3 0.826194 0.500000 0.000000
O O4 0.678824 0.403365 0.250000
O O5 0.732928 0.092747 0.321835
O O6 0.628106 0.509620 0.343243
O O7 0.064422 0.579529 0.701412
O O8 0.000000 0.786256 0.621992
#
# Coordination Sequence:
#
# PCOD9470736 Si02
#       4
#    16  16   4  16
#     4  10  22  42  67  93 120 157 208 260 307 360
#     4  10  19  33  53  77 106 148 196 238 284 343
#     4   8  20  36  58  90 132 162 202 248 300 374
#     4  10  19  37  60  86 129 158 204 244 309 357
#
# _framework density 23.500959999999999
#
# number of rings (size 3 to 8) (size 9 to 14) (size 15 to 20)
#    0.923    1.231    1.538    1.846    0.000    0.615 
#    0.000    6.154    0.000   18.462    0.000    0.000 
#    0.000    0.000    0.000    0.000    0.000    0.000 
#
# Total GULP energy -144960.405850 kJ/mol
# GULP energy per Si atom -5575.400225 kJ/mol
# Density = 2.344747 g / cm^3
# Si number density = 23.500960 Si / 1000 Ang^3
#
#
#
# Elastic Constant Matrix: (Units=GPa)
#
#
# Indices 1 2 3 4 5 6 
#
# 1 177.8976 36.6129 81.4403 0.0000 0.0000 0.0000
# 2 36.6129 97.8976 40.3431 0.0000 0.0000 0.0000
# 3 81.4403 40.3431 168.5987 0.0000 0.0000 0.0000
# 4 0.0000 0.0000 0.0000 35.3025 0.0000 0.0000
# 5 0.0000 0.0000 0.0000 0.0000 58.1694 0.0000
# 6 0.0000 0.0000 0.0000 0.0000 0.0000 7.0209
#
#
#
# Elastic Compliance Matrix: (Units=1/GPa)
#
#
# Indices 1 2 3 4 5 6 
#
# 1 0.007395 -0.001435 -0.003228 0.000000 0.000000 0.000000
# 2 -0.001435 0.011611 -0.002085 0.000000 0.000000 0.000000
# 3 -0.003228 -0.002085 0.007990 0.000000 0.000000 0.000000
# 4 0.000000 0.000000 0.000000 0.028327 0.000000 0.000000
# 5 0.000000 0.000000 0.000000 0.000000 0.017191 0.000000
# 6 0.000000 0.000000 0.000000 0.000000 0.000000 0.142432
#
#
# Mechanical properties :
#
#
# Convention : Reuss Voigt Hill
#
# Bulk Modulus (GPa) = 74.08680 84.57627 79.33154
# Shear Modulus (GPa) = 21.46468 39.16506 30.31487
#
# Velocity S-wave (km/s) = 3.02545 4.08674 3.59547
# Velocity P-wave (km/s) = 6.61800 7.63775 7.14609
#
# Compressibility (1/GPa) = 0.01349768
#
# Stress axis : x y z
#
# Youngs Moduli (GPa) = 135.23490 86.12741 125.16174
#
# Poissons Ratio (x) = 0.12360 0.40408
# Poissons Ratio (y) = 0.19407 0.26097
# Poissons Ratio (z) = 0.43660 0.17958
#
# Static dielectric constant tensor:
#      x y z
#    x 1.887560 0.000000 0.000000 
#    y 0.000000 1.933570 0.000000 
#    z 0.000000 0.000000 1.986500 
# 
# From -- ./inp_files/69603.got.cif
#   From: 2010.05.17/outbox.cif.g08.bks.cpg/sg63_35_cif.got.tgz:69603.got - 2010.06.03 15:47:04.
