data_PCOD9470429
_publ_section_title
;
Structure prediction by ZEFSAII (Michael W. Deem and Ramdas Pophale) SiO2 
 PCOD9470429
Probable space group: C M C M
;
_chemical_formula_sum "Si O2"
_cell_formula_units_Z 64
_cell_length_a 12.625571
_cell_length_b 21.374914
_cell_length_c 11.779177
_cell_angle_alpha 90.000000
_cell_angle_beta 90.000000
_cell_angle_gamma 90.000000
_cell_volume 3178.852320
_symmetry_space_group_name_H-M "C M C M"
_symmetry_group_IT_number 63
_symmetry_cell_setting 'orthorhombic'
loop_
_space_group_symop_operation_xyz
x,y,z
-x,-y,1/2+z
x,-y,-z
-x,y,1/2-z
-x,-y,-z
x,y,1/2-z
-x,y,z
x,-y,1/2+z
1/2+x,1/2+y,z
1/2-x,1/2-y,1/2+z
1/2+x,1/2-y,-z
1/2-x,1/2+y,1/2-z
1/2-x,1/2-y,-z
1/2+x,1/2+y,1/2-z
1/2-x,1/2+y,z
1/2+x,1/2-y,1/2+z
loop_
_atom_site_type_symbol
_atom_site_label
_atom_site_fract_x
_atom_site_fract_y
_atom_site_fract_z
Si Si1 0.376400 0.271049 0.124618
Si Si2 0.120064 0.429427 0.376701
Si Si3 0.320723 0.520103 0.123602
Si Si4 0.244245 0.651066 0.449439
O O1 0.364108 0.299255 0.250000
O O2 0.500000 0.258047 0.105861
O O3 0.310337 0.206866 0.118531
O O4 0.330835 0.317432 0.031039
O O5 0.124699 0.401167 0.250000
O O6 0.207628 0.483928 0.378349
O O7 0.155068 0.379895 0.470193
O O8 0.000000 0.451777 0.394227
O O9 0.367699 0.505682 0.250000
O O10 0.297271 0.593866 0.116753
O O11 0.370310 0.500000 0.000000
#
# Coordination Sequence:
#
# PCOD9470429 Si02
#       4
#    16  16  16  16
#     4  10  21  35  51  73 102 140 185 227 266 312
#     4   9  17  29  48  77 109 137 167 210 268 329
#     4   9  18  31  50  77 107 136 166 205 259 321
#     4  10  19  32  52  74 103 138 176 217 266 314
#
# _framework density 20.133051999999999
#
# number of rings (size 3 to 8) (size 9 to 14) (size 15 to 20)
#    0.000    2.500    0.000    2.250    0.000    6.500 
#    0.000    2.500    0.000   21.750    0.000    7.000 
#    0.000    0.000    0.000    0.000    0.000    0.000 
#
# Total GULP energy -178333.336729 kJ/mol
# GULP energy per Si atom -5572.916773 kJ/mol
# Density = 2.008723 g / cm^3
# Si number density = 20.133052 Si / 1000 Ang^3
#
#
#
# Elastic Constant Matrix: (Units=GPa)
#
#
# Indices 1 2 3 4 5 6 
#
# 1 58.8046 2.6646 24.2650 0.0000 0.0000 0.0000
# 2 2.6646 52.3830 14.7009 0.0000 0.0000 0.0000
# 3 24.2650 14.7009 148.0738 0.0000 0.0000 0.0000
# 4 0.0000 0.0000 0.0000 7.5509 0.0000 0.0000
# 5 0.0000 0.0000 0.0000 0.0000 15.9449 0.0000
# 6 0.0000 0.0000 0.0000 0.0000 0.0000 5.0251
#
#
#
# Elastic Compliance Matrix: (Units=1/GPa)
#
#
# Indices 1 2 3 4 5 6 
#
# 1 0.018239 -0.000092 -0.002980 0.000000 0.000000 0.000000
# 2 -0.000092 0.019638 -0.001935 0.000000 0.000000 0.000000
# 3 -0.002980 -0.001935 0.007434 0.000000 0.000000 0.000000
# 4 0.000000 0.000000 0.000000 0.132434 0.000000 0.000000
# 5 0.000000 0.000000 0.000000 0.000000 0.062716 0.000000
# 6 0.000000 0.000000 0.000000 0.000000 0.000000 0.199002
#
#
# Mechanical properties :
#
#
# Convention : Reuss Voigt Hill
#
# Bulk Modulus (GPa) = 28.32957 38.05802 33.19380
# Shear Modulus (GPa) = 10.84032 20.21291 15.52661
#
# Velocity S-wave (km/s) = 2.32294 3.17198 2.78006
# Velocity P-wave (km/s) = 4.61481 5.68855 5.17958
#
# Compressibility (1/GPa) = 0.03529880
#
# Stress axis : x y z
#
# Youngs Moduli (GPa) = 54.82699 50.92226 134.52138
#
# Poissons Ratio (x) = 0.00466 0.40084
# Poissons Ratio (y) = 0.00502 0.26025
# Poissons Ratio (z) = 0.16337 0.09852
#
# Static dielectric constant tensor:
#      x y z
#    x 1.675310 0.000000 0.000000 
#    y 0.000000 1.682050 0.000000 
#    z 0.000000 0.000000 1.780990 
# 
# From -- ./inp_files/17120.got.cif
#   From: 2010.05.17/outbox.cif.g08.bks.cpg/sg63_9_cif.got.tgz:17120.got - 2010.06.03 15:47:04.
