data_PCOD9470196
_publ_section_title
;
Structure prediction by ZEFSAII (Michael W. Deem and Ramdas Pophale) SiO2 
 PCOD9470196
Probable space group: C M C M
;
_chemical_formula_sum "Si O2"
_cell_formula_units_Z 96
_cell_length_a 15.002944
_cell_length_b 23.263171
_cell_length_c 15.158595
_cell_angle_alpha 90.000000
_cell_angle_beta 90.000000
_cell_angle_gamma 90.000000
_cell_volume 5290.592977
_symmetry_space_group_name_H-M "C M C M"
_symmetry_group_IT_number 63
_symmetry_cell_setting 'orthorhombic'
loop_
_space_group_symop_operation_xyz
x,y,z
-x,-y,1/2+z
x,-y,-z
-x,y,1/2-z
-x,-y,-z
x,y,1/2-z
-x,y,z
x,-y,1/2+z
1/2+x,1/2+y,z
1/2-x,1/2-y,1/2+z
1/2+x,1/2-y,-z
1/2-x,1/2+y,1/2-z
1/2-x,1/2-y,-z
1/2+x,1/2+y,1/2-z
1/2-x,1/2+y,z
1/2+x,1/2-y,1/2+z
loop_
_atom_site_type_symbol
_atom_site_label
_atom_site_fract_x
_atom_site_fract_y
_atom_site_fract_z
Si Si1 0.643357 0.102288 0.152600
Si Si2 0.601565 0.882786 0.455477
Si Si3 0.789788 0.527089 0.652076
Si Si4 0.402150 0.481216 0.898982
Si Si5 0.153984 0.143282 0.148747
Si Si6 0.892982 0.268571 0.148465
O O1 0.604509 0.115088 0.250000
O O2 0.741271 0.130442 0.150693
O O3 0.658658 0.033606 0.147544
O O4 0.599411 0.120650 0.061294
O O5 0.500000 0.896204 0.424868
O O6 0.670438 0.931163 0.421910
O O7 0.630978 0.822781 0.411603
O O8 0.805014 0.552143 0.750000
O O9 0.685310 0.510700 0.642860
O O10 0.500000 0.495758 0.861079
O O11 0.389846 0.412341 0.894833
O O12 0.401342 0.500000 0.000000
O O13 0.120677 0.144393 0.250000
O O14 0.136843 0.206610 0.112146
O O15 0.860244 0.275204 0.250000
O O16 0.000000 0.267303 0.151696
#
# Coordination Sequence:
#
# PCOD9470196 Si02
#       6
#    16  16  16  16  16  16
#     4   9  19  34  51  73 100 134 177 218 262 321
#     4  11  22  35  52  75 106 142 179 223 268 306
#     4  10  20  34  52  74 104 139 175 219 267 316
#     4  10  19  31  51  79 109 140 172 210 261 320
#     4   9  17  32  54  77 103 133 168 217 269 314
#     4   9  18  32  51  77 104 131 171 219 265 313
#
# _framework density 18.145415
#
# number of rings (size 3 to 8) (size 9 to 14) (size 15 to 20)
#    0.000    2.333    0.000    5.000    0.000    5.333 
#    0.000    1.667    0.000    0.000    0.000    1.167 
#    0.000   14.667    0.000    0.167    0.000    0.000 
#
# Total GULP energy -267484.769054 kJ/mol
# GULP energy per Si atom -5572.599355 kJ/mol
# Density = 1.810412 g / cm^3
# Si number density = 18.145415 Si / 1000 Ang^3
#
#
#
# Elastic Constant Matrix: (Units=GPa)
#
#
# Indices 1 2 3 4 5 6 
#
# 1 61.9270 32.7999 19.8582 0.0000 0.0000 0.0000
# 2 32.7999 115.1827 49.2259 0.0000 0.0000 0.0000
# 3 19.8582 49.2259 103.3018 0.0000 0.0000 0.0000
# 4 0.0000 0.0000 0.0000 25.7658 0.0000 0.0000
# 5 0.0000 0.0000 0.0000 0.0000 16.1191 0.0000
# 6 0.0000 0.0000 0.0000 0.0000 0.0000 6.8370
#
#
#
# Elastic Compliance Matrix: (Units=1/GPa)
#
#
# Indices 1 2 3 4 5 6 
#
# 1 0.019167 -0.004877 -0.001361 0.000000 0.000000 0.000000
# 2 -0.004877 0.012143 -0.004849 0.000000 0.000000 0.000000
# 3 -0.001361 -0.004849 0.012253 0.000000 0.000000 0.000000
# 4 0.000000 0.000000 0.000000 0.038811 0.000000 0.000000
# 5 0.000000 0.000000 0.000000 0.000000 0.062038 0.000000
# 6 0.000000 0.000000 0.000000 0.000000 0.000000 0.146263
#
#
# Mechanical properties :
#
#
# Convention : Reuss Voigt Hill
#
# Bulk Modulus (GPa) = 46.75051 53.79770 50.27411
# Shear Modulus (GPa) = 15.62611 21.64623 18.63617
#
# Velocity S-wave (km/s) = 2.93774 3.45763 3.20823
# Velocity P-wave (km/s) = 6.10961 6.75668 6.44128
#
# Compressibility (1/GPa) = 0.02139014
#
# Stress axis : x y z
#
# Youngs Moduli (GPa) = 52.17208 82.35310 81.61536
#
# Poissons Ratio (x) = 0.40160 0.11106
# Poissons Ratio (y) = 0.25442 0.39575
# Poissons Ratio (z) = 0.07100 0.39932
#
# Static dielectric constant tensor:
#      x y z
#    x 1.645920 0.000000 0.000000 
#    y 0.000000 1.609450 0.000000 
#    z 0.000000 0.000000 1.654480 
# 
# From -- ./inp_files/31913.got.cif
#   From: 2010.05.17/outbox.cif.g08.bks.cpg/sg63_16_cif.got.tgz:31913.got - 2010.06.03 15:47:04.
