data_PCOD9470521
_publ_section_title
;
Structure prediction by ZEFSAII (Michael W. Deem and Ramdas Pophale) SiO2 
 PCOD9470521
Probable space group: C M C M
;
_chemical_formula_sum "Si O2"
_cell_formula_units_Z 96
_cell_length_a 11.339638
_cell_length_b 22.807659
_cell_length_c 19.161112
_cell_angle_alpha 90.000000
_cell_angle_beta 90.000000
_cell_angle_gamma 90.000000
_cell_volume 4955.649830
_symmetry_space_group_name_H-M "C M C M"
_symmetry_group_IT_number 63
_symmetry_cell_setting 'orthorhombic'
loop_
_space_group_symop_operation_xyz
x,y,z
-x,-y,1/2+z
x,-y,-z
-x,y,1/2-z
-x,-y,-z
x,y,1/2-z
-x,y,z
x,-y,1/2+z
1/2+x,1/2+y,z
1/2-x,1/2-y,1/2+z
1/2+x,1/2-y,-z
1/2-x,1/2+y,1/2-z
1/2-x,1/2-y,-z
1/2+x,1/2+y,1/2-z
1/2-x,1/2+y,z
1/2+x,1/2-y,1/2+z
loop_
_atom_site_type_symbol
_atom_site_label
_atom_site_fract_x
_atom_site_fract_y
_atom_site_fract_z
Si Si1 0.500000 0.534626 0.105663
Si Si2 0.500000 0.596606 0.962434
Si Si3 0.254621 0.508214 0.330201
Si Si4 0.132837 0.422382 0.948727
Si Si5 0.631643 0.226254 0.914033
Si Si6 0.130579 0.284405 0.579235
Si Si7 0.747051 0.394931 0.414467
O O1 0.500000 0.469639 0.069821
O O2 0.618189 0.535914 0.150914
O O3 0.500000 0.584045 0.045245
O O4 0.383103 0.627927 0.934340
O O5 0.225182 0.516664 0.250000
O O6 0.164840 0.537849 0.383647
O O7 0.259493 0.439679 0.350858
O O8 0.142635 0.354729 0.925283
O O9 0.000000 0.432511 0.972553
O O10 0.216464 0.430174 0.015440
O O11 0.500000 0.240657 0.887143
O O12 0.749014 0.259470 0.887829
O O13 0.661632 0.157489 0.904169
O O14 0.627606 0.235725 0.997937
O O15 0.000000 0.270793 0.609421
#
# Coordination Sequence:
#
# PCOD9470521 Si02
#       7
#     8   8  16  16  16  16  16
#     4   9  17  34  50  72 106 138 174 218 255 303
#     4   9  16  28  52  80 100 134 184 210 250 314
#     4  11  22  35  52  77 108 141 175 217 268 318
#     4  10  20  35  53  75 105 140 178 220 262 313
#     4   9  17  30  49  78 109 136 170 218 268 313
#     4   8  16  31  49  73 104 137 174 216 263 311
#     4  10  19  32  53  79 108 139 175 216 264 322
#
# _framework density 19.371829999999999
#
# number of rings (size 3 to 8) (size 9 to 14) (size 15 to 20)
#    0.000    2.500    1.667    2.250    1.167    2.333 
#    6.000    0.000    0.000    1.000    0.000    0.000 
#    0.000    0.000    0.000    0.000    0.000    0.000 
#
# Total GULP energy -267634.590785 kJ/mol
# GULP energy per Si atom -5575.720641 kJ/mol
# Density = 1.932774 g / cm^3
# Si number density = 19.371830 Si / 1000 Ang^3
#
#
#
# Elastic Constant Matrix: (Units=GPa)
#
#
# Indices 1 2 3 4 5 6 
#
# 1 131.9609 18.3121 3.5624 0.0000 0.0000 0.0000
# 2 18.3121 41.1230 3.8723 0.0000 0.0000 0.0000
# 3 3.5624 3.8723 46.7972 0.0000 0.0000 0.0000
# 4 0.0000 0.0000 0.0000 6.8649 0.0000 0.0000
# 5 0.0000 0.0000 0.0000 0.0000 5.0762 0.0000
# 6 0.0000 0.0000 0.0000 0.0000 0.0000 16.8587
#
#
#
# Elastic Compliance Matrix: (Units=1/GPa)
#
#
# Indices 1 2 3 4 5 6 
#
# 1 0.008082 -0.003569 -0.000320 0.000000 0.000000 0.000000
# 2 -0.003569 0.026084 -0.001887 0.000000 0.000000 0.000000
# 3 -0.000320 -0.001887 0.021549 0.000000 0.000000 0.000000
# 4 0.000000 0.000000 0.000000 0.145668 0.000000 0.000000
# 5 0.000000 0.000000 0.000000 0.000000 0.196999 0.000000
# 6 0.000000 0.000000 0.000000 0.000000 0.000000 0.059317
#
#
# Mechanical properties :
#
#
# Convention : Reuss Voigt Hill
#
# Bulk Modulus (GPa) = 22.64261 30.15273 26.39767
# Shear Modulus (GPa) = 10.33119 18.70225 14.51672
#
# Velocity S-wave (km/s) = 2.31186 3.11052 2.74044
# Velocity P-wave (km/s) = 4.34051 5.33849 4.86516
#
# Compressibility (1/GPa) = 0.04416452
#
# Stress axis : x y z
#
# Youngs Moduli (GPa) = 123.73375 38.33754 46.40526
#
# Poissons Ratio (x) = 0.13682 0.01485
# Poissons Ratio (y) = 0.44157 0.08755
# Poissons Ratio (z) = 0.03958 0.07233
#
# Static dielectric constant tensor:
#      x y z
#    x 1.739700 0.000000 0.000000 
#    y 0.000000 1.719310 0.000000 
#    z 0.000000 0.000000 1.614860 
# 
# From -- ./inp_files/42558.got.cif
#   From: 2010.05.17/outbox.cif.g08.bks.cpg/sg63_22_cif.got.tgz:42558.got - 2010.06.03 15:47:04.
