data_PCOD9470029
_publ_section_title
;
Structure prediction by ZEFSAII (Michael W. Deem and Ramdas Pophale) SiO2 
 PCOD9470029
Probable space group: C M C M
;
_chemical_formula_sum "Si O2"
_cell_formula_units_Z 116
_cell_length_a 9.175449
_cell_length_b 29.872822
_cell_length_c 25.468964
_cell_angle_alpha 90.000000
_cell_angle_beta 90.000000
_cell_angle_gamma 90.000000
_cell_volume 6980.955285
_symmetry_space_group_name_H-M "C M C M"
_symmetry_group_IT_number 63
_symmetry_cell_setting 'orthorhombic'
loop_
_space_group_symop_operation_xyz
x,y,z
-x,-y,1/2+z
x,-y,-z
-x,y,1/2-z
-x,-y,-z
x,y,1/2-z
-x,y,z
x,-y,1/2+z
1/2+x,1/2+y,z
1/2-x,1/2-y,1/2+z
1/2+x,1/2-y,-z
1/2-x,1/2+y,1/2-z
1/2-x,1/2-y,-z
1/2+x,1/2+y,1/2-z
1/2-x,1/2+y,z
1/2+x,1/2-y,1/2+z
loop_
_atom_site_type_symbol
_atom_site_label
_atom_site_fract_x
_atom_site_fract_y
_atom_site_fract_z
Si Si1 0.672523 0.705434 0.519992
Si Si2 0.331731 0.062837 0.528443
Si Si3 0.326786 0.594162 0.689037
Si Si4 0.161230 0.581695 0.356960
Si Si5 0.826489 0.991749 0.385080
Si Si6 0.328058 0.379651 0.944466
Si Si7 0.832823 0.350107 0.105121
Si Si8 0.000000 0.405143 0.750000
O O1 0.500000 0.712256 0.526388
O O2 0.750000 0.750000 0.500000
O O3 0.693688 0.665828 0.477205
O O4 0.743027 0.687269 0.573808
O O5 0.500000 0.052085 0.516917
O O6 0.251124 0.024450 0.561411
O O7 0.242095 0.080038 0.478423
O O8 0.332089 0.106127 0.567287
O O9 0.285314 0.590288 0.750000
O O10 0.500000 0.603018 0.685871
O O11 0.301584 0.547787 0.657725
O O12 0.241338 0.632936 0.658434
O O13 0.254576 0.536786 0.363661
O O14 0.245367 0.619625 0.389287
O O15 0.124935 0.592817 0.296947
O O16 0.000000 0.574607 0.381577
O O17 0.000000 0.996346 0.392821
O O18 0.500000 0.386916 0.938340
O O19 0.000000 0.336474 0.112848
#
# Coordination Sequence:
#
# PCOD9470029 Si02
#       8
#    16  16  16  16  16  16  16   4
#     4  10  20  34  56  85 113 134 157 196 251 313
#     4   9  17  30  48  74 106 143 172 211 261 316
#     4   9  18  30  46  69  99 140 182 219 258 302
#     4  10  21  37  53  72  97 137 178 226 268 307
#     4  10  19  31  48  73 105 140 183 228 271 309
#     4  10  20  35  55  80 108 136 172 212 257 318
#     4   9  17  30  47  72 105 137 170 206 250 302
#     4   8  24  40  54  70 100 132 182 236 278 296
#
# _framework density 16.616637000000001
#
# number of rings (size 3 to 8) (size 9 to 14) (size 15 to 20)
#    0.414    2.069    0.000    2.483    0.966    6.345 
#    0.000    3.793    0.000    0.000    1.793    0.000 
#    0.000    0.000    0.000    0.000    0.000    0.000 
#
# Total GULP energy -322874.934995 kJ/mol
# GULP energy per Si atom -5566.809224 kJ/mol
# Density = 1.657882 g / cm^3
# Si number density = 16.616637 Si / 1000 Ang^3
#
#
#
# Elastic Constant Matrix: (Units=GPa)
#
#
# Indices 1 2 3 4 5 6 
#
# 1 118.8254 46.8422 56.7526 0.0000 0.0000 0.0000
# 2 46.8422 54.9184 25.1343 0.0000 0.0000 0.0000
# 3 56.7526 25.1343 102.3419 0.0000 0.0000 0.0000
# 4 0.0000 0.0000 0.0000 12.4336 0.0000 0.0000
# 5 0.0000 0.0000 0.0000 0.0000 32.3533 0.0000
# 6 0.0000 0.0000 0.0000 0.0000 0.0000 24.0089
#
#
#
# Elastic Compliance Matrix: (Units=1/GPa)
#
#
# Indices 1 2 3 4 5 6 
#
# 1 0.015351 -0.010362 -0.005968 0.000000 0.000000 0.000000
# 2 -0.010362 0.027509 -0.001010 0.000000 0.000000 0.000000
# 3 -0.005968 -0.001010 0.013329 0.000000 0.000000 0.000000
# 4 0.000000 0.000000 0.000000 0.080427 0.000000 0.000000
# 5 0.000000 0.000000 0.000000 0.000000 0.030909 0.000000
# 6 0.000000 0.000000 0.000000 0.000000 0.000000 0.041651
#
#
# Mechanical properties :
#
#
# Convention : Reuss Voigt Hill
#
# Bulk Modulus (GPa) = 46.49181 59.28266 52.88723
# Shear Modulus (GPa) = 19.91835 23.58296 21.75065
#
# Velocity S-wave (km/s) = 3.46598 3.77136 3.62189
# Velocity P-wave (km/s) = 6.63756 7.39719 7.02764
#
# Compressibility (1/GPa) = 0.02150917
#
# Stress axis : x y z
#
# Youngs Moduli (GPa) = 65.14292 36.35134 75.02684
#
# Poissons Ratio (x) = 0.37668 0.44775
# Poissons Ratio (y) = 0.67502 0.07577
# Poissons Ratio (z) = 0.38876 0.03671
#
# Static dielectric constant tensor:
#      x y z
#    x 1.557570 0.000000 0.000000 
#    y 0.000000 1.554000 0.000000 
#    z 0.000000 0.000000 1.559850 
# 
# From -- ./inp_files/67607.got.cif
#   From: 2010.05.17/outbox.cif.g08.bks.cpg/sg63_34_cif.got.tgz:67607.got - 2010.06.03 15:47:04.
