data_PCOD9470590
_publ_section_title
;
Structure prediction by ZEFSAII (Michael W. Deem and Ramdas Pophale) SiO2 
 PCOD9470590
Probable space group: C M C M
;
_chemical_formula_sum "Si O2"
_cell_formula_units_Z 80
_cell_length_a 30.239245
_cell_length_b 15.897463
_cell_length_c 7.672576
_cell_angle_alpha 90.000000
_cell_angle_beta 90.000000
_cell_angle_gamma 90.000000
_cell_volume 3688.416580
_symmetry_space_group_name_H-M "C M C M"
_symmetry_group_IT_number 63
_symmetry_cell_setting 'orthorhombic'
loop_
_space_group_symop_operation_xyz
x,y,z
-x,-y,1/2+z
x,-y,-z
-x,y,1/2-z
-x,-y,-z
x,y,1/2-z
-x,y,z
x,-y,1/2+z
1/2+x,1/2+y,z
1/2-x,1/2-y,1/2+z
1/2+x,1/2-y,-z
1/2-x,1/2+y,1/2-z
1/2-x,1/2-y,-z
1/2+x,1/2+y,1/2-z
1/2-x,1/2+y,z
1/2+x,1/2-y,1/2+z
loop_
_atom_site_type_symbol
_atom_site_label
_atom_site_fract_x
_atom_site_fract_y
_atom_site_fract_z
Si Si1 0.798278 0.641242 0.549461
Si Si2 0.550792 0.748225 0.463542
Si Si3 0.392464 0.907530 0.040600
Si Si4 0.889200 0.093671 0.457077
Si Si5 0.203100 0.166921 0.955064
O O1 0.796574 0.612507 0.750000
O O2 0.842367 0.601979 0.468898
O O3 0.804916 0.742515 0.542969
O O4 0.749075 0.628003 0.474973
O O5 0.550640 0.748026 0.250000
O O6 0.500000 0.747208 0.520029
O O7 0.576729 0.831699 0.521669
O O8 0.578006 0.666317 0.521895
O O9 0.389799 0.898343 0.250000
O O10 0.409802 0.000000 0.000000
O O11 0.886537 0.102253 0.250000
O O12 0.839828 0.110132 0.525723
O O13 0.904358 0.000000 0.500000
O O14 0.209992 0.184703 0.750000
#
# Coordination Sequence:
#
# PCOD9470590 Si02
#       5
#    16  16  16  16  16
#     4   9  18  34  54  80 114 154 191 228 275 328
#     4   9  19  38  62  82 107 147 187 229 287 346
#     4  10  20  36  57  83 114 147 186 228 274 329
#     4  11  22  38  59  84 115 148 188 233 283 339
#     4  10  19  32  55  84 114 149 192 231 274 331
#
# _framework density 21.689523000000001
#
# number of rings (size 3 to 8) (size 9 to 14) (size 15 to 20)
#    0.000    2.200    2.000    1.200    0.000    3.200 
#    0.000    2.000    0.000    4.200    0.000    0.000 
#    0.000    0.000    0.000    0.000    0.000    0.000 
#
# Total GULP energy -223392.262092 kJ/mol
# GULP energy per Si atom -5584.806552 kJ/mol
# Density = 2.164016 g / cm^3
# Si number density = 21.689523 Si / 1000 Ang^3
#
#
#
# Elastic Constant Matrix: (Units=GPa)
#
#
# Indices 1 2 3 4 5 6 
#
# 1 159.4545 96.6310 5.6028 0.0000 0.0000 0.0000
# 2 96.6310 157.3120 -7.6195 0.0000 0.0000 0.0000
# 3 5.6028 -7.6195 45.8169 0.0000 0.0000 0.0000
# 4 0.0000 0.0000 0.0000 22.9000 0.0000 0.0000
# 5 0.0000 0.0000 0.0000 0.0000 3.1652 0.0000
# 6 0.0000 0.0000 0.0000 0.0000 0.0000 4.4482
#
#
#
# Elastic Compliance Matrix: (Units=1/GPa)
#
#
# Indices 1 2 3 4 5 6 
#
# 1 0.010228 -0.006395 -0.002314 0.000000 0.000000 0.000000
# 2 -0.006395 0.010407 0.002513 0.000000 0.000000 0.000000
# 3 -0.002314 0.002513 0.022527 0.000000 0.000000 0.000000
# 4 0.000000 0.000000 0.000000 0.043668 0.000000 0.000000
# 5 0.000000 0.000000 0.000000 0.000000 0.315937 0.000000
# 6 0.000000 0.000000 0.000000 0.000000 0.000000 0.224808
#
#
# Mechanical properties :
#
#
# Convention : Reuss Voigt Hill
#
# Bulk Modulus (GPa) = 32.50051 61.31244 46.90648
# Shear Modulus (GPa) = 7.68967 23.96729 15.82848
#
# Velocity S-wave (km/s) = 1.88495 3.32779 2.70437
# Velocity P-wave (km/s) = 4.44459 6.56469 5.60578
#
# Compressibility (1/GPa) = 0.03076874
#
# Stress axis : x y z
#
# Youngs Moduli (GPa) = 97.77097 96.09321 44.39140
#
# Poissons Ratio (x) = 0.61449 0.10273
# Poissons Ratio (y) = 0.62522 -0.11154
# Poissons Ratio (z) = 0.22626 -0.24145
#
# Static dielectric constant tensor:
#      x y z
#    x 1.788690 0.000000 0.000000 
#    y 0.000000 1.798940 0.000000 
#    z 0.000000 0.000000 1.827010 
# 
# From -- ./inp_files/12003.got.cif
#   From: 2010.05.17/outbox.cif.g08.bks.cpg/sg63_7_cif.got.tgz:12003.got - 2010.06.03 15:47:04.
