data_PCOD9470650
_publ_section_title
;
Structure prediction by ZEFSAII (Michael W. Deem and Ramdas Pophale) SiO2 
 PCOD9470650
Probable space group: C M C M
;
_chemical_formula_sum "Si O2"
_cell_formula_units_Z 80
_cell_length_a 18.608094
_cell_length_b 15.582078
_cell_length_c 15.076858
_cell_angle_alpha 90.000000
_cell_angle_beta 90.000000
_cell_angle_gamma 90.000000
_cell_volume 4371.576772
_symmetry_space_group_name_H-M "C M C M"
_symmetry_group_IT_number 63
_symmetry_cell_setting 'orthorhombic'
loop_
_space_group_symop_operation_xyz
x,y,z
-x,-y,1/2+z
x,-y,-z
-x,y,1/2-z
-x,-y,-z
x,y,1/2-z
-x,y,z
x,-y,1/2+z
1/2+x,1/2+y,z
1/2-x,1/2-y,1/2+z
1/2+x,1/2-y,-z
1/2-x,1/2+y,1/2-z
1/2-x,1/2-y,-z
1/2+x,1/2+y,1/2-z
1/2-x,1/2+y,z
1/2+x,1/2-y,1/2+z
loop_
_atom_site_type_symbol
_atom_site_label
_atom_site_fract_x
_atom_site_fract_y
_atom_site_fract_z
Si Si1 0.232862 0.956815 0.143745
Si Si2 0.582772 0.226342 0.025806
Si Si3 0.580092 0.398654 0.356010
Si Si4 0.310317 0.125914 0.148922
Si Si5 0.789884 0.269999 0.092018
O O1 0.234168 0.964763 0.250000
O O2 0.148799 0.955178 0.118168
O O3 0.268281 0.865648 0.120332
O O4 0.275663 0.039197 0.110305
O O5 0.500000 0.203552 0.011750
O O6 0.585117 0.313155 0.084817
O O7 0.626315 0.158227 0.085458
O O8 0.626785 0.237583 0.934191
O O9 0.586857 0.377709 0.250000
O O10 0.500000 0.436025 0.368504
O O11 0.336253 0.113528 0.250000
O O12 0.247149 0.197822 0.151984
O O13 0.750000 0.250000 0.000000
#
# Coordination Sequence:
#
# PCOD9470650 Si02
#       5
#    16  16  16  16  16
#     4  10  19  33  53  78 107 140 183 224 262 316
#     4  10  20  34  53  80 108 138 177 221 270 313
#     4   9  16  29  51  77 105 134 169 221 274 313
#     4  10  20  34  56  81 103 140 184 223 264 313
#     4  10  19  33  51  76 108 141 172 214 266 326
#
# _framework density 18.300034
#
# number of rings (size 3 to 8) (size 9 to 14) (size 15 to 20)
#    0.000    2.200    4.000    1.200    0.000    4.400 
#    0.000    3.000    0.000    7.200    0.000    0.000 
#    0.000    0.000    0.000    0.000    0.000    0.000 
#
# Total GULP energy -222852.641091 kJ/mol
# GULP energy per Si atom -5571.316027 kJ/mol
# Density = 1.825838 g / cm^3
# Si number density = 18.300034 Si / 1000 Ang^3
#
#
#
# Elastic Constant Matrix: (Units=GPa)
#
#
# Indices 1 2 3 4 5 6 
#
# 1 142.3066 24.6909 7.0665 0.0000 0.0000 0.0000
# 2 24.6909 67.0020 -10.6748 0.0000 0.0000 0.0000
# 3 7.0665 -10.6748 15.3210 0.0000 0.0000 0.0000
# 4 0.0000 0.0000 0.0000 19.7241 0.0000 0.0000
# 5 0.0000 0.0000 0.0000 0.0000 27.7899 0.0000
# 6 0.0000 0.0000 0.0000 0.0000 0.0000 30.6416
#
#
#
# Elastic Compliance Matrix: (Units=1/GPa)
#
#
# Indices 1 2 3 4 5 6 
#
# 1 0.008044 -0.003999 -0.006496 0.000000 0.000000 0.000000
# 2 -0.003999 0.018777 0.014927 0.000000 0.000000 0.000000
# 3 -0.006496 0.014927 0.078667 0.000000 0.000000 0.000000
# 4 0.000000 0.000000 0.000000 0.050700 0.000000 0.000000
# 5 0.000000 0.000000 0.000000 0.000000 0.035984 0.000000
# 6 0.000000 0.000000 0.000000 0.000000 0.000000 0.032635
#
#
# Mechanical properties :
#
#
# Convention : Reuss Voigt Hill
#
# Bulk Modulus (GPa) = 8.74504 29.64387 19.19446
# Shear Modulus (GPa) = 19.68043 29.20090 24.44066
#
# Velocity S-wave (km/s) = 3.28293 3.99892 3.65849
# Velocity P-wave (km/s) = 4.37713 6.12828 5.32518
#
# Compressibility (1/GPa) = 0.11435055
#
# Stress axis : x y z
#
# Youngs Moduli (GPa) = 124.32344 53.25701 12.71188
#
# Poissons Ratio (x) = 0.21298 0.08258
# Poissons Ratio (y) = 0.49718 -0.18975
# Poissons Ratio (z) = 0.80764 -0.79498
#
# Static dielectric constant tensor:
#      x y z
#    x 1.665500 0.000000 0.000000 
#    y 0.000000 1.672830 0.000000 
#    z 0.000000 0.000000 1.660620 
# 
# From -- ./inp_files/35104.got.cif
#   From: 2010.05.17/outbox.cif.g08.bks.cpg/sg63_18_cif.got.tgz:35104.got - 2010.06.03 15:47:04.
