data_PCOD9470662
_publ_section_title
;
Structure prediction by ZEFSAII (Michael W. Deem and Ramdas Pophale) SiO2 
 PCOD9470662
Probable space group: C M C M
;
_chemical_formula_sum "Si O2"
_cell_formula_units_Z 96
_cell_length_a 19.442729
_cell_length_b 29.547874
_cell_length_c 7.996902
_cell_angle_alpha 90.000000
_cell_angle_beta 90.000000
_cell_angle_gamma 90.000000
_cell_volume 4594.150680
_symmetry_space_group_name_H-M "C M C M"
_symmetry_group_IT_number 63
_symmetry_cell_setting 'orthorhombic'
loop_
_space_group_symop_operation_xyz
x,y,z
-x,-y,1/2+z
x,-y,-z
-x,y,1/2-z
-x,-y,-z
x,y,1/2-z
-x,y,z
x,-y,1/2+z
1/2+x,1/2+y,z
1/2-x,1/2-y,1/2+z
1/2+x,1/2-y,-z
1/2-x,1/2+y,1/2-z
1/2-x,1/2-y,-z
1/2+x,1/2+y,1/2-z
1/2-x,1/2+y,z
1/2+x,1/2-y,1/2+z
loop_
_atom_site_type_symbol
_atom_site_label
_atom_site_fract_x
_atom_site_fract_y
_atom_site_fract_z
Si Si1 0.922395 0.779665 0.549995
Si Si2 0.726967 0.450114 0.950451
Si Si3 0.424789 0.142990 0.558468
Si Si4 0.684884 0.203504 0.436782
Si Si5 0.683469 0.649196 0.455358
Si Si6 0.387929 0.951003 0.949439
O O1 0.928022 0.781013 0.750000
O O2 0.864821 0.741502 0.513373
O O3 0.887621 0.826914 0.495149
O O4 0.000000 0.772101 0.483199
O O5 0.724835 0.448832 0.750000
O O6 0.693544 0.402811 0.011000
O O7 0.807327 0.448784 0.000664
O O8 0.699469 0.500000 0.000000
O O9 0.409565 0.156188 0.750000
O O10 0.500000 0.161378 0.515149
O O11 0.365788 0.160623 0.438989
O O12 0.424996 0.089457 0.541878
O O13 0.702340 0.218698 0.250000
O O14 0.754690 0.182915 0.513670
O O15 0.687685 0.648941 0.250000
O O16 0.393280 0.945149 0.750000
O O17 0.414029 0.000000 0.000000
#
# Coordination Sequence:
#
# PCOD9470662 Si02
#       6
#    16  16  16  16  16  16
#     4  10  21  37  57  81 110 144 180 221 270 325
#     4   9  17  32  53  79 108 137 173 218 266 315
#     4  11  23  36  50  71 102 140 182 226 270 321
#     4  11  21  36  56  78 106 142 181 225 272 316
#     4   9  18  35  57  81 110 142 180 222 265 321
#     4  10  19  33  52  73 100 136 177 224 274 323
#
# _framework density 20.896135999999998
#
# number of rings (size 3 to 8) (size 9 to 14) (size 15 to 20)
#    0.000    2.000    1.667    2.500    0.000    4.667 
#    0.000    1.667    0.000    0.500    0.000    0.000 
#    0.000    0.000    0.000    0.000    0.000    0.000 
#
# Total GULP energy -267723.340262 kJ/mol
# GULP energy per Si atom -5577.569589 kJ/mol
# Density = 2.084858 g / cm^3
# Si number density = 20.896136 Si / 1000 Ang^3
#
#
#
# Elastic Constant Matrix: (Units=GPa)
#
#
# Indices 1 2 3 4 5 6 
#
# 1 78.1462 71.5479 11.9725 0.0000 0.0000 0.0000
# 2 71.5479 144.6831 6.3035 0.0000 0.0000 0.0000
# 3 11.9725 6.3035 14.2112 0.0000 0.0000 0.0000
# 4 0.0000 0.0000 0.0000 21.7637 0.0000 0.0000
# 5 0.0000 0.0000 0.0000 0.0000 11.1639 0.0000
# 6 0.0000 0.0000 0.0000 0.0000 0.0000 -109.3148
#
#
#
# Elastic Compliance Matrix: (Units=1/GPa)
#
#
# Indices 1 2 3 4 5 6 
#
# 1 0.026927 -0.012570 -0.017109 0.000000 0.000000 0.000000
# 2 -0.012570 0.012916 0.004861 0.000000 0.000000 0.000000
# 3 -0.017109 0.004861 0.082625 0.000000 0.000000 0.000000
# 4 0.000000 0.000000 0.000000 0.045948 0.000000 0.000000
# 5 0.000000 0.000000 0.000000 0.000000 0.089575 0.000000
# 6 0.000000 0.000000 0.000000 0.000000 0.000000 -0.009148
#
#
# Mechanical properties :
#
#
# Convention : Reuss Voigt Hill
#
# Bulk Modulus (GPa) = 13.73048 46.29868 30.01458
# Shear Modulus (GPa) = 15.49158 -5.46300 5.01429
#
# Velocity S-wave (km/s) = 2.72575 -1.61865 1.55075
# Velocity P-wave (km/s) = 4.06096 4.32566 4.19539
#
# Compressibility (1/GPa) = 0.07283064
#
# Stress axis : x y z
#
# Youngs Moduli (GPa) = 37.13800 77.42328 12.10289
#
# Poissons Ratio (x) = 0.97322 0.20707
# Poissons Ratio (y) = 0.46683 -0.05883
# Poissons Ratio (z) = 0.63540 -0.37636
#
# Static dielectric constant tensor:
#      x y z
#    x 1.753080 0.000000 0.000000 
#    y 0.000000 1.814230 0.000000 
#    z 0.000000 0.000000 1.833140 
# 
# From -- ./inp_files/8565.got.cif
#   From: 2010.05.17/outbox.cif.g08.bks.cpg/sg63_5_cif.got.tgz:8565.got - 2010.06.03 15:47:04.
