data_PCOD9470918
_publ_section_title
;
Structure prediction by ZEFSAII (Michael W. Deem and Ramdas Pophale) SiO2 
 PCOD9470918
Probable space group: C M C M
;
_chemical_formula_sum "Si O2"
_cell_formula_units_Z 100
_cell_length_a 23.797289
_cell_length_b 25.167430
_cell_length_c 8.908516
_cell_angle_alpha 90.000000
_cell_angle_beta 90.000000
_cell_angle_gamma 90.000000
_cell_volume 5335.458159
_symmetry_space_group_name_H-M "C M C M"
_symmetry_group_IT_number 63
_symmetry_cell_setting 'orthorhombic'
loop_
_space_group_symop_operation_xyz
x,y,z
-x,-y,1/2+z
x,-y,-z
-x,y,1/2-z
-x,-y,-z
x,y,1/2-z
-x,y,z
x,-y,1/2+z
1/2+x,1/2+y,z
1/2-x,1/2-y,1/2+z
1/2+x,1/2-y,-z
1/2-x,1/2+y,1/2-z
1/2-x,1/2-y,-z
1/2+x,1/2+y,1/2-z
1/2-x,1/2+y,z
1/2+x,1/2-y,1/2+z
loop_
_atom_site_type_symbol
_atom_site_label
_atom_site_fract_x
_atom_site_fract_y
_atom_site_fract_z
Si Si1 0.627721 0.446478 0.929112
Si Si2 0.000000 0.204611 0.250000
Si Si3 0.391850 0.329684 0.914438
Si Si4 0.251893 0.944689 0.069688
Si Si5 0.688653 0.750244 0.927328
Si Si6 0.566824 0.057222 0.573458
Si Si7 0.157462 0.631525 0.070294
O O1 0.633222 0.454386 0.750000
O O2 0.596517 0.390835 0.957463
O O3 0.602486 0.500000 0.000000
O O4 0.689079 0.439615 0.004169
O O5 0.050090 0.199875 0.378567
O O6 0.362208 0.333302 0.750000
O O7 0.350420 0.297996 0.020326
O O8 0.251311 0.947033 0.250000
O O9 0.290254 0.897285 0.009804
O O10 0.274548 0.000000 0.000000
O O11 0.695832 0.748087 0.750000
O O12 0.659074 0.806194 0.966499
O O13 0.750000 0.750000 0.000000
O O14 0.581353 0.056012 0.750000
O O15 0.500000 0.066534 0.559730
O O16 0.602386 0.102111 0.490732
O O17 0.578963 0.000000 0.500000
O O18 0.161952 0.625079 0.250000
#
# Coordination Sequence:
#
# PCOD9470918 Si02
#       7
#    16   4  16  16  16  16  16
#     4  10  19  33  56  87 117 150 190 237 292 349
#     4   8  20  44  68  84 116 164 210 230 306 354
#     4   9  20  40  64  84 118 160 200 244 296 360
#     4  11  21  33  52  81 117 156 194 237 292 354
#     4  11  24  40  62  92 123 157 200 253 312 364
#     4  10  21  38  59  83 112 151 196 243 292 344
#     4  11  23  38  54  80 116 151 192 238 294 353
#
# _framework density 18.742533000000002
#
# number of rings (size 3 to 8) (size 9 to 14) (size 15 to 20)
#    0.480    1.280    0.000    5.760    0.000    8.640 
#    1.440    0.800    0.000    0.000    0.000    0.000 
#    0.000    0.000    0.000    0.000    0.000    0.000 
#
# Total GULP energy -278492.127371 kJ/mol
# GULP energy per Si atom -5569.842547 kJ/mol
# Density = 1.869987 g / cm^3
# Si number density = 18.742533 Si / 1000 Ang^3
#
#
#
# Elastic Constant Matrix: (Units=GPa)
#
#
# Indices 1 2 3 4 5 6 
#
# 1 50.9072 11.7537 21.5532 0.0000 0.0000 0.0000
# 2 11.7537 81.6504 42.0902 0.0000 0.0000 0.0000
# 3 21.5532 42.0902 92.1239 0.0000 0.0000 0.0000
# 4 0.0000 0.0000 0.0000 30.9635 0.0000 0.0000
# 5 0.0000 0.0000 0.0000 0.0000 24.1030 0.0000
# 6 0.0000 0.0000 0.0000 0.0000 0.0000 10.6501
#
#
#
# Elastic Compliance Matrix: (Units=1/GPa)
#
#
# Indices 1 2 3 4 5 6 
#
# 1 0.021831 -0.000667 -0.004803 0.000000 0.000000 0.000000
# 2 -0.000667 0.016041 -0.007173 0.000000 0.000000 0.000000
# 3 -0.004803 -0.007173 0.015256 0.000000 0.000000 0.000000
# 4 0.000000 0.000000 0.000000 0.032296 0.000000 0.000000
# 5 0.000000 0.000000 0.000000 0.000000 0.041489 0.000000
# 6 0.000000 0.000000 0.000000 0.000000 0.000000 0.093896
#
#
# Mechanical properties :
#
#
# Convention : Reuss Voigt Hill
#
# Bulk Modulus (GPa) = 35.91618 41.71954 38.81786
# Shear Modulus (GPa) = 19.57911 23.09560 21.33736
#
# Velocity S-wave (km/s) = 3.23559 3.51416 3.37775
# Velocity P-wave (km/s) = 5.75875 6.22683 5.99736
#
# Compressibility (1/GPa) = 0.02784260
#
# Stress axis : x y z
#
# Youngs Moduli (GPa) = 45.80644 62.34072 65.54868
#
# Poissons Ratio (x) = 0.04156 0.31483
# Poissons Ratio (y) = 0.03054 0.47017
# Poissons Ratio (z) = 0.22001 0.44716
#
# Static dielectric constant tensor:
#      x y z
#    x 1.623950 0.000000 0.000000 
#    y 0.000000 1.689050 0.000000 
#    z 0.000000 0.000000 1.640420 
# 
# From -- ./inp_files/12508.got.cif
#   From: 2010.05.17/outbox.cif.g08.bks.cpg/sg63_7_cif.got.tgz:12508.got - 2010.06.03 15:47:04.
