data_PCOD9470876
_publ_section_title
;
Structure prediction by ZEFSAII (Michael W. Deem and Ramdas Pophale) SiO2 
 PCOD9470876
Probable space group: C M C M
;
_chemical_formula_sum "Si O2"
_cell_formula_units_Z 80
_cell_length_a 15.746552
_cell_length_b 29.703656
_cell_length_c 8.873084
_cell_angle_alpha 90.000000
_cell_angle_beta 90.000000
_cell_angle_gamma 90.000000
_cell_volume 4150.209033
_symmetry_space_group_name_H-M "C M C M"
_symmetry_group_IT_number 63
_symmetry_cell_setting 'orthorhombic'
loop_
_space_group_symop_operation_xyz
x,y,z
-x,-y,1/2+z
x,-y,-z
-x,y,1/2-z
-x,-y,-z
x,y,1/2-z
-x,y,z
x,-y,1/2+z
1/2+x,1/2+y,z
1/2-x,1/2-y,1/2+z
1/2+x,1/2-y,-z
1/2-x,1/2+y,1/2-z
1/2-x,1/2-y,-z
1/2+x,1/2+y,1/2-z
1/2-x,1/2+y,z
1/2+x,1/2-y,1/2+z
loop_
_atom_site_type_symbol
_atom_site_label
_atom_site_fract_x
_atom_site_fract_y
_atom_site_fract_z
Si Si1 0.351248 0.703636 0.926707
Si Si2 0.241411 0.549328 0.569089
Si Si3 0.093925 0.895236 0.433549
Si Si4 0.403527 0.889172 0.928610
Si Si5 0.645834 0.797081 0.424805
O O1 0.372472 0.709540 0.750000
O O2 0.389260 0.656362 0.980622
O O3 0.248702 0.699963 0.937217
O O4 0.378952 0.747776 0.016473
O O5 0.233406 0.500000 0.500000
O O6 0.241643 0.546824 0.750000
O O7 0.329362 0.572874 0.517823
O O8 0.164578 0.580870 0.515854
O O9 0.095952 0.894684 0.250000
O O10 0.000000 0.909862 0.481340
O O11 0.389089 0.893048 0.750000
O O12 0.500000 0.903425 0.961841
O O13 0.392152 0.837484 0.978706
O O14 0.623179 0.802837 0.250000
#
# Coordination Sequence:
#
# PCOD9470876 Si02
#       5
#    16  16  16  16  16
#     4   9  17  32  54  84 120 161 201 236 282 341
#     4  11  23  42  65  90 117 151 192 240 300 354
#     4   9  18  35  60  88 119 155 196 239 286 344
#     4  11  24  41  62  88 117 154 199 245 296 353
#     4  10  19  33  55  86 121 159 199 241 290 343
#
# _framework density 19.276136999999999
#
# number of rings (size 3 to 8) (size 9 to 14) (size 15 to 20)
#    0.000    2.000    2.000    1.800    0.000    4.000 
#    0.000    2.000    0.000    4.200    0.000    0.000 
#    0.000    0.000    0.000    0.000    0.000    0.000 
#
# Total GULP energy -223457.984101 kJ/mol
# GULP energy per Si atom -5586.449603 kJ/mol
# Density = 1.923226 g / cm^3
# Si number density = 19.276137 Si / 1000 Ang^3
#
#
#
# Elastic Constant Matrix: (Units=GPa)
#
#
# Indices 1 2 3 4 5 6 
#
# 1 88.8676 44.2119 41.1719 0.0000 0.0000 0.0000
# 2 44.2119 102.3390 26.3836 0.0000 0.0000 0.0000
# 3 41.1719 26.3836 45.3502 0.0000 0.0000 0.0000
# 4 0.0000 0.0000 0.0000 25.1621 0.0000 0.0000
# 5 0.0000 0.0000 0.0000 0.0000 18.8779 0.0000
# 6 0.0000 0.0000 0.0000 0.0000 0.0000 -6.0068
#
#
#
# Elastic Compliance Matrix: (Units=1/GPa)
#
#
# Indices 1 2 3 4 5 6 
#
# 1 0.021381 -0.004979 -0.016514 0.000000 0.000000 0.000000
# 2 -0.004979 0.012655 -0.002842 0.000000 0.000000 0.000000
# 3 -0.016514 -0.002842 0.038696 0.000000 0.000000 0.000000
# 4 0.000000 0.000000 0.000000 0.039742 0.000000 0.000000
# 5 0.000000 0.000000 0.000000 0.000000 0.052972 0.000000
# 6 0.000000 0.000000 0.000000 0.000000 0.000000 -0.166479
#
#
# Mechanical properties :
#
#
# Convention : Reuss Voigt Hill
#
# Bulk Modulus (GPa) = 41.55941 51.12129 46.34035
# Shear Modulus (GPa) = 89.83225 15.92593 52.87909
#
# Velocity S-wave (km/s) = 6.83403 2.87749 5.24328
# Velocity P-wave (km/s) = 9.15854 6.13335 7.79413
#
# Compressibility (1/GPa) = 0.02406194
#
# Stress axis : x y z
#
# Youngs Moduli (GPa) = 46.77094 79.01835 25.84215
#
# Poissons Ratio (x) = 0.39346 0.42676
# Poissons Ratio (y) = 0.23289 0.07344
# Poissons Ratio (z) = 0.77237 0.22456
#
# Static dielectric constant tensor:
#      x y z
#    x 1.692040 0.000000 0.000000 
#    y 0.000000 1.632930 0.000000 
#    z 0.000000 0.000000 1.646470 
# 
# From -- ./inp_files/6403.got.cif
#   From: 2010.05.17/outbox.cif.g08.bks.cpg/sg63_4_cif.got.tgz:6403.got - 2010.06.03 15:47:04.
