data_PCOD9470534
_publ_section_title
;
Structure prediction by ZEFSAII (Michael W. Deem and Ramdas Pophale) SiO2 
 PCOD9470534
Probable space group: C M C M
;
_chemical_formula_sum "Si O2"
_cell_formula_units_Z 80
_cell_length_a 14.771819
_cell_length_b 17.406686
_cell_length_c 16.886967
_cell_angle_alpha 90.000000
_cell_angle_beta 90.000000
_cell_angle_gamma 90.000000
_cell_volume 4342.119059
_symmetry_space_group_name_H-M "C M C M"
_symmetry_group_IT_number 63
_symmetry_cell_setting 'orthorhombic'
loop_
_space_group_symop_operation_xyz
x,y,z
-x,-y,1/2+z
x,-y,-z
-x,y,1/2-z
-x,-y,-z
x,y,1/2-z
-x,y,z
x,-y,1/2+z
1/2+x,1/2+y,z
1/2-x,1/2-y,1/2+z
1/2+x,1/2-y,-z
1/2-x,1/2+y,1/2-z
1/2-x,1/2-y,-z
1/2+x,1/2+y,1/2-z
1/2-x,1/2+y,z
1/2+x,1/2-y,1/2+z
loop_
_atom_site_type_symbol
_atom_site_label
_atom_site_fract_x
_atom_site_fract_y
_atom_site_fract_z
Si Si1 0.727924 0.704013 0.080648
Si Si2 0.099092 0.433761 0.385918
Si Si3 0.098313 0.388540 0.931929
Si Si4 0.391417 0.591040 0.985891
Si Si5 0.728609 0.353377 0.163178
O O1 0.817182 0.656037 0.101369
O O2 0.722969 0.771680 0.144236
O O3 0.750000 0.750000 0.000000
O O4 0.648888 0.644426 0.056819
O O5 0.107376 0.394172 0.472700
O O6 0.098660 0.524450 0.401929
O O7 0.187491 0.411765 0.338912
O O8 0.000000 0.412503 0.353144
O O9 0.000000 0.353524 0.913905
O O10 0.500000 0.599146 0.980277
O O11 0.340654 0.621153 0.906341
O O12 0.370407 0.500000 0.000000
O O13 0.685794 0.351914 0.250000
#
# Coordination Sequence:
#
# PCOD9470534 Si02
#       5
#    16  16  16  16  16
#     4  10  19  32  53  81 110 143 185 223 272 335
#     4   9  17  31  55  82 107 136 173 222 279 329
#     4   9  16  30  55  82 104 131 177 230 270 316
#     4  10  21  39  62  83 106 147 204 246 271 320
#     4  11  23  37  54  83 120 150 179 228 293 348
#
# _framework density 18.424184
#
# number of rings (size 3 to 8) (size 9 to 14) (size 15 to 20)
#    0.000    2.200    4.000    2.400    0.000    4.800 
#    0.000    4.000    0.000    2.400    0.000    0.000 
#    0.000    0.000    0.000    0.000    0.000    0.000 
#
# Total GULP energy -222771.675766 kJ/mol
# GULP energy per Si atom -5569.291894 kJ/mol
# Density = 1.838225 g / cm^3
# Si number density = 18.424184 Si / 1000 Ang^3
#
#
#
# Elastic Constant Matrix: (Units=GPa)
#
#
# Indices 1 2 3 4 5 6 
#
# 1 105.6663 40.3147 28.8329 0.0000 0.0000 0.0000
# 2 40.3147 73.4530 25.3470 0.0000 0.0000 0.0000
# 3 28.8329 25.3470 66.0380 0.0000 0.0000 0.0000
# 4 0.0000 0.0000 0.0000 5.8139 0.0000 0.0000
# 5 0.0000 0.0000 0.0000 0.0000 -2.9341 0.0000
# 6 0.0000 0.0000 0.0000 0.0000 0.0000 -18.2996
#
#
#
# Elastic Compliance Matrix: (Units=1/GPa)
#
#
# Indices 1 2 3 4 5 6 
#
# 1 0.012554 -0.005762 -0.003270 0.000000 0.000000 0.000000
# 2 -0.005762 0.018337 -0.004522 0.000000 0.000000 0.000000
# 3 -0.003270 -0.004522 0.018306 0.000000 0.000000 0.000000
# 4 0.000000 0.000000 0.000000 0.172003 0.000000 0.000000
# 5 0.000000 0.000000 0.000000 0.000000 -0.340823 0.000000
# 6 0.000000 0.000000 0.000000 0.000000 0.000000 -0.054646
#
#
# Mechanical properties :
#
#
# Convention : Reuss Voigt Hill
#
# Bulk Modulus (GPa) = 45.27101 48.23850 46.75475
# Shear Modulus (GPa) = -35.76622 6.96023 -14.40300
#
# Velocity S-wave (km/s) = -4.41076 1.94576 -2.79900
# Velocity P-wave (km/s) = 1.14668 5.59347 3.87118
#
# Compressibility (1/GPa) = 0.02208919
#
# Stress axis : x y z
#
# Youngs Moduli (GPa) = 79.65341 54.53358 54.62626
#
# Poissons Ratio (x) = 0.31423 0.17861
# Poissons Ratio (y) = 0.45898 0.24705
# Poissons Ratio (z) = 0.26044 0.24663
#
# Static dielectric constant tensor:
#      x y z
#    x 1.654350 0.000000 0.000000 
#    y 0.000000 2.445240 0.000000 
#    z 0.000000 0.000000 1.710440 
# 
# From -- ./inp_files/43951.got.cif
#   From: 2010.05.17/outbox.cif.g08.bks.cpg/sg63_22_cif.got.tgz:43951.got - 2010.06.03 15:47:04.
