data_PCOD9470955
_publ_section_title
;
Structure prediction by ZEFSAII (Michael W. Deem and Ramdas Pophale) SiO2 
 PCOD9470955
Probable space group: C M C M
;
_chemical_formula_sum "Si O2"
_cell_formula_units_Z 104
_cell_length_a 20.517554
_cell_length_b 13.588157
_cell_length_c 18.085474
_cell_angle_alpha 90.000000
_cell_angle_beta 90.000000
_cell_angle_gamma 90.000000
_cell_volume 5042.153198
_symmetry_space_group_name_H-M "C M C M"
_symmetry_group_IT_number 63
_symmetry_cell_setting 'orthorhombic'
loop_
_space_group_symop_operation_xyz
x,y,z
-x,-y,1/2+z
x,-y,-z
-x,y,1/2-z
-x,-y,-z
x,y,1/2-z
-x,y,z
x,-y,1/2+z
1/2+x,1/2+y,z
1/2-x,1/2-y,1/2+z
1/2+x,1/2-y,-z
1/2-x,1/2+y,1/2-z
1/2-x,1/2-y,-z
1/2+x,1/2+y,1/2-z
1/2-x,1/2+y,z
1/2+x,1/2-y,1/2+z
loop_
_atom_site_type_symbol
_atom_site_label
_atom_site_fract_x
_atom_site_fract_y
_atom_site_fract_z
Si Si1 0.000000 0.588678 0.439192
Si Si2 0.860200 0.294650 0.434305
Si Si3 0.246367 0.997847 0.164203
Si Si4 0.231186 0.221587 0.663741
Si Si5 0.354878 0.108376 0.408697
Si Si6 0.139304 0.070024 0.431495
Si Si7 0.500000 0.450290 0.581038
Si Si8 0.000000 0.283902 0.076371
O O1 0.000000 0.500000 0.500000
O O2 0.931689 0.590061 0.396134
O O3 0.000000 0.686671 0.489937
O O4 0.798724 0.285746 0.381309
O O5 0.848431 0.364617 0.504519
O O6 0.870064 0.181005 0.461583
O O7 0.929614 0.322196 0.396462
O O8 0.260411 0.014444 0.250000
O O9 0.211019 0.892782 0.157406
O O10 0.312469 0.015558 0.118314
O O11 0.195896 0.072933 0.128402
O O12 0.242925 0.243047 0.750000
O O13 0.178665 0.298421 0.632387
O O14 0.073384 0.027965 0.393277
O O15 0.157311 0.000000 0.500000
O O16 0.500000 0.500000 0.500000
O O17 0.500000 0.332343 0.585627
#
# Coordination Sequence:
#
# PCOD9470955 Si02
#       8
#     8  16  16  16  16  16   8   8
#     4  10  24  40  63  98 123 160 203 273 319 372
#     4  10  20  36  60  90 116 160 206 254 316 373
#     4  11  25  39  58  89 126 163 205 261 316 375
#     4  11  24  41  59  86 125 164 208 258 313 379
#     4  11  23  41  66  91 126 163 212 263 323 380
#     4  10  19  33  59  87 122 154 199 249 302 370
#     4   8  16  32  53  86 117 157 191 241 295 355
#     4   8  18  34  55  84 125 149 196 256 308 364
#
# _framework density 20.626109
#
# number of rings (size 3 to 8) (size 9 to 14) (size 15 to 20)
#    0.000    1.846    1.538    1.846    6.462    1.231 
#    0.000    2.308    0.000    6.462    0.000    0.000 
#    0.000    0.000    0.000    0.000    0.000    0.000 
#
# Total GULP energy -289633.912590 kJ/mol
# GULP energy per Si atom -5569.882934 kJ/mol
# Density = 2.057916 g / cm^3
# Si number density = 20.626109 Si / 1000 Ang^3
#
#
#
# Elastic Constant Matrix: (Units=GPa)
#
#
# Indices 1 2 3 4 5 6 
#
# 1 166.6449 13.8682 57.8027 0.0000 0.0000 0.0000
# 2 13.8682 72.4218 23.7513 0.0000 0.0000 0.0000
# 3 57.8027 23.7513 76.2470 0.0000 0.0000 0.0000
# 4 0.0000 0.0000 0.0000 26.6603 0.0000 0.0000
# 5 0.0000 0.0000 0.0000 0.0000 -12.8964 0.0000
# 6 0.0000 0.0000 0.0000 0.0000 0.0000 16.8612
#
#
#
# Elastic Compliance Matrix: (Units=1/GPa)
#
#
# Indices 1 2 3 4 5 6 
#
# 1 0.008159 0.000519 -0.006347 0.000000 0.000000 0.000000
# 2 0.000519 0.015412 -0.005195 0.000000 0.000000 0.000000
# 3 -0.006347 -0.005195 0.019545 0.000000 0.000000 0.000000
# 4 0.000000 0.000000 0.000000 0.037509 0.000000 0.000000
# 5 0.000000 0.000000 0.000000 0.000000 -0.077541 0.000000
# 6 0.000000 0.000000 0.000000 0.000000 0.000000 0.059308
#
#
# Mechanical properties :
#
#
# Convention : Reuss Voigt Hill
#
# Bulk Modulus (GPa) = 47.45764 56.23980 51.84872
# Shear Modulus (GPa) = 54.66796 20.78446 37.72621
#
# Velocity S-wave (km/s) = 5.15381 3.17784 4.28138
# Velocity P-wave (km/s) = 7.64684 6.38673 7.04502
#
# Compressibility (1/GPa) = 0.02107142
#
# Stress axis : x y z
#
# Youngs Moduli (GPa) = 122.56147 64.88373 51.16347
#
# Poissons Ratio (x) = -0.03369 0.32474
# Poissons Ratio (y) = -0.06363 0.26577
# Poissons Ratio (z) = 0.77792 0.33704
#
# Static dielectric constant tensor:
#      x y z
#    x 1.815480 0.000000 0.000000 
#    y 0.000000 1.806930 0.000000 
#    z 0.000000 0.000000 1.686060 
# 
# From -- ./inp_files/47167.got.cif
#   From: 2010.05.17/outbox.cif.g08.bks.cpg/sg63_24_cif.got.tgz:47167.got - 2010.06.03 15:47:04.
