data_PCOD9470322
_publ_section_title
;
Structure prediction by ZEFSAII (Michael W. Deem and Ramdas Pophale) SiO2 
 PCOD9470322
Probable space group: C M C M
;
_chemical_formula_sum "Si O2"
_cell_formula_units_Z 96
_cell_length_a 8.755921
_cell_length_b 30.431452
_cell_length_c 21.309746
_cell_angle_alpha 90.000000
_cell_angle_beta 90.000000
_cell_angle_gamma 90.000000
_cell_volume 5678.096673
_symmetry_space_group_name_H-M "C M C M"
_symmetry_group_IT_number 63
_symmetry_cell_setting 'orthorhombic'
loop_
_space_group_symop_operation_xyz
x,y,z
-x,-y,1/2+z
x,-y,-z
-x,y,1/2-z
-x,-y,-z
x,y,1/2-z
-x,y,z
x,-y,1/2+z
1/2+x,1/2+y,z
1/2-x,1/2-y,1/2+z
1/2+x,1/2-y,-z
1/2-x,1/2+y,1/2-z
1/2-x,1/2-y,-z
1/2+x,1/2+y,1/2-z
1/2-x,1/2+y,z
1/2+x,1/2-y,1/2+z
loop_
_atom_site_type_symbol
_atom_site_label
_atom_site_fract_x
_atom_site_fract_y
_atom_site_fract_z
Si Si1 0.322738 0.380187 0.011398
Si Si2 0.316961 0.996558 0.182554
Si Si3 0.817905 0.713056 0.954342
Si Si4 0.315059 0.036648 0.051903
Si Si5 0.684709 0.304334 0.180320
Si Si6 0.823384 0.095575 0.655733
O O1 0.500000 0.371702 0.996285
O O2 0.235740 0.334179 0.018717
O O3 0.316817 0.401879 0.080498
O O4 0.249746 0.415851 0.965613
O O5 0.260805 0.013607 0.250000
O O6 0.500000 0.000181 0.181657
O O7 0.273619 0.945411 0.177870
O O8 0.260457 0.020760 0.120198
O O9 0.756060 0.716335 0.882481
O O10 0.000000 0.715503 0.953432
O O11 0.750000 0.750000 0.000000
O O12 0.500000 0.038589 0.051172
O O13 0.270089 0.000000 0.000000
O O14 0.726083 0.287085 0.250000
O O15 0.500000 0.302231 0.174252
O O16 0.726050 0.356230 0.178423
O O17 0.000000 0.089294 0.674468
#
# Coordination Sequence:
#
# PCOD9470322 Si02
#       6
#    16  16  16  16  16  16
#     4  10  20  34  53  77 103 134 175 218 265 314
#     4  10  20  31  44  66  99 136 173 215 260 305
#     4  11  22  37  58  82 110 140 177 222 273 324
#     4  10  19  32  50  72 100 135 177 217 256 304
#     4   9  18  33  52  77 111 145 175 212 262 320
#     4   9  17  29  46  70 101 135 169 205 249 304
#
# _framework density 16.907074000000001
#
# number of rings (size 3 to 8) (size 9 to 14) (size 15 to 20)
#    0.000    2.167    1.667    3.500    0.000    5.000 
#    0.000    0.000    0.000    1.000    0.000    2.333 
#    0.000    0.000    0.000    0.000    0.000    0.000 
#
# Total GULP energy -267652.850593 kJ/mol
# GULP energy per Si atom -5576.101054 kJ/mol
# Density = 1.686859 g / cm^3
# Si number density = 16.907074 Si / 1000 Ang^3
#
#
#
# Elastic Constant Matrix: (Units=GPa)
#
#
# Indices 1 2 3 4 5 6 
#
# 1 51.9148 33.3800 49.5443 0.0000 0.0000 0.0000
# 2 33.3800 75.1817 71.0399 0.0000 0.0000 0.0000
# 3 49.5443 71.0399 163.7491 0.0000 0.0000 0.0000
# 4 0.0000 0.0000 0.0000 15.5575 0.0000 0.0000
# 5 0.0000 0.0000 0.0000 0.0000 14.0219 0.0000
# 6 0.0000 0.0000 0.0000 0.0000 0.0000 27.4062
#
#
#
# Elastic Compliance Matrix: (Units=1/GPa)
#
#
# Indices 1 2 3 4 5 6 
#
# 1 0.029638 -0.007941 -0.005522 0.000000 0.000000 0.000000
# 2 -0.007941 0.024669 -0.008300 0.000000 0.000000 0.000000
# 3 -0.005522 -0.008300 0.011378 0.000000 0.000000 0.000000
# 4 0.000000 0.000000 0.000000 0.064277 0.000000 0.000000
# 5 0.000000 0.000000 0.000000 0.000000 0.071317 0.000000
# 6 0.000000 0.000000 0.000000 0.000000 0.000000 0.036488
#
#
# Mechanical properties :
#
#
# Convention : Reuss Voigt Hill
#
# Bulk Modulus (GPa) = 45.12643 66.53042 55.82842
# Shear Modulus (GPa) = 17.32009 20.52254 18.92131
#
# Velocity S-wave (km/s) = 3.20414 3.48781 3.34898
# Velocity P-wave (km/s) = 6.35905 7.46028 6.93157
#
# Compressibility (1/GPa) = 0.02215996
#
# Stress axis : x y z
#
# Youngs Moduli (GPa) = 33.73993 40.53606 87.88514
#
# Poissons Ratio (x) = 0.32190 0.48534
# Poissons Ratio (y) = 0.26793 0.72943
# Poissons Ratio (z) = 0.18632 0.33644
#
# Static dielectric constant tensor:
#      x y z
#    x 1.571260 0.000000 0.000000 
#    y 0.000000 1.537730 0.000000 
#    z 0.000000 0.000000 1.613670 
# 
# From -- ./inp_files/51334.got.cif
#   From: 2010.05.17/outbox.cif.g08.bks.cpg/sg63_26_cif.got.tgz:51334.got - 2010.06.03 15:47:04.
