data_PCOD9470587
_publ_section_title
;
Structure prediction by ZEFSAII (Michael W. Deem and Ramdas Pophale) SiO2 
 PCOD9470587
Probable space group: C M C M
;
_chemical_formula_sum "Si O2"
_cell_formula_units_Z 116
_cell_length_a 7.508666
_cell_length_b 26.555192
_cell_length_c 26.899378
_cell_angle_alpha 90.000000
_cell_angle_beta 90.000000
_cell_angle_gamma 90.000000
_cell_volume 5363.576387
_symmetry_space_group_name_H-M "C M C M"
_symmetry_group_IT_number 63
_symmetry_cell_setting 'orthorhombic'
loop_
_space_group_symop_operation_xyz
x,y,z
-x,-y,1/2+z
x,-y,-z
-x,y,1/2-z
-x,-y,-z
x,y,1/2-z
-x,y,z
x,-y,1/2+z
1/2+x,1/2+y,z
1/2-x,1/2-y,1/2+z
1/2+x,1/2-y,-z
1/2-x,1/2+y,1/2-z
1/2-x,1/2-y,-z
1/2+x,1/2+y,1/2-z
1/2-x,1/2+y,z
1/2+x,1/2-y,1/2+z
loop_
_atom_site_type_symbol
_atom_site_label
_atom_site_fract_x
_atom_site_fract_y
_atom_site_fract_z
Si Si1 0.294866 0.881767 0.677985
Si Si2 0.710396 0.094999 0.642920
Si Si3 0.782748 0.755862 0.408717
Si Si4 0.295919 0.356626 0.568752
Si Si5 0.784671 0.496336 0.694106
Si Si6 0.000000 0.841251 0.750000
Si Si7 0.714239 0.641918 0.539248
Si Si8 0.707848 0.699667 0.694396
O O1 0.500000 0.876475 0.694993
O O2 0.295595 0.873747 0.619066
O O3 0.158195 0.846020 0.706749
O O4 0.227104 0.938874 0.687282
O O5 0.500000 0.095568 0.652650
O O6 0.781036 0.040386 0.658397
O O7 0.740916 0.106020 0.585078
O O8 0.782968 0.141725 0.675400
O O9 0.711241 0.703919 0.429319
O O10 0.726540 0.802769 0.442795
O O11 0.721011 0.768062 0.352184
O O12 0.000000 0.753873 0.408193
O O13 0.500000 0.373946 0.571825
O O14 0.218880 0.372209 0.515316
O O15 0.740632 0.512265 0.750000
O O16 0.000000 0.493904 0.689540
O O17 0.500000 0.644201 0.535604
O O18 0.785876 0.705751 0.750000
O O19 0.500000 0.712859 0.697960
#
# Coordination Sequence:
#
# PCOD9470587 Si02
#       8
#    16  16  16  16  16   4  16  16
#     4  11  23  42  64  88 125 157 192 248 295 339
#     4  10  19  32  55  84 112 144 191 237 285 348
#     4   9  18  34  55  80 110 150 195 237 298 357
#     4  11  22  38  58  85 114 148 199 249 290 354
#     4   9  18  35  57  82 113 152 189 231 288 345
#     4  12  22  44  64  94 118 156 206 240 286 354
#     4   9  20  38  57  80 116 151 188 244 296 346
#     4   9  18  34  50  74 112 150 184 228 287 354
#
# _framework density 21.627362000000002
#
# number of rings (size 3 to 8) (size 9 to 14) (size 15 to 20)
#    0.000    2.207    1.379    2.690    0.000    4.138 
#    3.724    0.690    0.000    4.138    0.000    0.000 
#    0.000    0.000    0.000    0.000    0.000    0.000 
#
# Total GULP energy -323368.249886 kJ/mol
# GULP energy per Si atom -5575.314653 kJ/mol
# Density = 2.157814 g / cm^3
# Si number density = 21.627362 Si / 1000 Ang^3
#
#
#
# Elastic Constant Matrix: (Units=GPa)
#
#
# Indices 1 2 3 4 5 6 
#
# 1 77.0352 -6.8025 -2.4579 0.0000 0.0000 0.0000
# 2 -6.8025 19.5728 0.5570 0.0000 0.0000 0.0000
# 3 -2.4579 0.5570 112.8013 0.0000 0.0000 0.0000
# 4 0.0000 0.0000 0.0000 -6.6322 0.0000 0.0000
# 5 0.0000 0.0000 0.0000 0.0000 -66.1471 0.0000
# 6 0.0000 0.0000 0.0000 0.0000 0.0000 16.4306
#
#
#
# Elastic Compliance Matrix: (Units=1/GPa)
#
#
# Indices 1 2 3 4 5 6 
#
# 1 0.013400 0.004650 0.000269 0.000000 0.000000 0.000000
# 2 0.004650 0.052712 -0.000159 0.000000 0.000000 0.000000
# 3 0.000269 -0.000159 0.008872 0.000000 0.000000 0.000000
# 4 0.000000 0.000000 0.000000 -0.150780 0.000000 0.000000
# 5 0.000000 0.000000 0.000000 0.000000 -0.015118 0.000000
# 6 0.000000 0.000000 0.000000 0.000000 0.000000 0.060862
#
#
# Mechanical properties :
#
#
# Convention : Reuss Voigt Hill
#
# Bulk Modulus (GPa) = 11.83388 21.33361 16.58375
# Shear Modulus (GPa) = -438.44657 3.27111 -217.58773
#
# Velocity S-wave (km/s) = -14.25369 1.23117 -10.04122
# Velocity P-wave (km/s) = 16.29131 3.45060 11.25834
#
# Compressibility (1/GPa) = 0.08450314
#
# Stress axis : x y z
#
# Youngs Moduli (GPa) = 74.62554 18.97107 112.71681
#
# Poissons Ratio (x) = -0.08821 -0.03032
# Poissons Ratio (y) = -0.34698 0.01792
# Poissons Ratio (z) = -0.02008 0.00302
#
# Static dielectric constant tensor:
#      x y z
#    x 1.766990 0.000000 0.000000 
#    y 0.000000 1.779240 0.000000 
#    z 0.000000 0.000000 1.808440 
# 
# From -- ./inp_files/67596.got.cif
#   From: 2010.05.17/outbox.cif.g08.bks.cpg/sg63_34_cif.got.tgz:67596.got - 2010.06.03 15:47:04.
