data_PCOD9470812
_publ_section_title
;
Structure prediction by ZEFSAII (Michael W. Deem and Ramdas Pophale) SiO2 
 PCOD9470812
Probable space group: C M C M
;
_chemical_formula_sum "Si O2"
_cell_formula_units_Z 104
_cell_length_a 28.587684
_cell_length_b 23.331806
_cell_length_c 8.581407
_cell_angle_alpha 90.000000
_cell_angle_beta 90.000000
_cell_angle_gamma 90.000000
_cell_volume 5723.818181
_symmetry_space_group_name_H-M "C M C M"
_symmetry_group_IT_number 63
_symmetry_cell_setting 'orthorhombic'
loop_
_space_group_symop_operation_xyz
x,y,z
-x,-y,1/2+z
x,-y,-z
-x,y,1/2-z
-x,-y,-z
x,y,1/2-z
-x,y,z
x,-y,1/2+z
1/2+x,1/2+y,z
1/2-x,1/2-y,1/2+z
1/2+x,1/2-y,-z
1/2-x,1/2+y,1/2-z
1/2-x,1/2-y,-z
1/2+x,1/2+y,1/2-z
1/2-x,1/2+y,z
1/2+x,1/2-y,1/2+z
loop_
_atom_site_type_symbol
_atom_site_label
_atom_site_fract_x
_atom_site_fract_y
_atom_site_fract_z
Si Si1 0.681714 0.143828 0.434630
Si Si2 0.352720 0.625549 0.936574
Si Si3 0.266224 0.561363 0.063596
Si Si4 0.500000 0.935469 0.063648
Si Si5 0.601401 0.064961 0.938108
Si Si6 0.698007 0.261799 0.932728
Si Si7 0.553332 0.564388 0.938446
O O1 0.683397 0.155865 0.250000
O O2 0.730116 0.112005 0.479264
O O3 0.641217 0.099949 0.476931
O O4 0.673334 0.201869 0.528457
O O5 0.352373 0.627264 0.750000
O O6 0.405027 0.607281 0.988489
O O7 0.316472 0.577252 0.994444
O O8 0.331016 0.685315 0.996950
O O9 0.268457 0.558965 0.250000
O O10 0.249944 0.500000 0.000000
O O11 0.500000 0.939231 0.250000
O O12 0.550031 0.909942 0.019663
O O13 0.500000 0.000000 0.000000
O O14 0.607218 0.065660 0.750000
O O15 0.602943 0.000000 0.000000
O O16 0.702692 0.272319 0.750000
O O17 0.750000 0.250000 0.000000
O O18 0.554144 0.562495 0.750000
O O19 0.500000 0.580241 0.986278
O O20 0.562426 0.500000 0.000000
#
# Coordination Sequence:
#
# PCOD9470812 Si02
#       7
#    16  16  16   8  16  16  16
#     4  11  23  38  56  80 110 146 188 232 280 334
#     4  11  22  37  60  85 114 151 193 236 281 338
#     4  11  23  36  53  79 115 150 184 228 278 334
#     4   8  16  30  50  76 106 140 178 220 269 322
#     4  10  19  33  54  81 112 146 183 228 279 334
#     4  12  24  40  61  83 110 146 190 233 278 332
#     4   9  19  36  59  89 122 155 191 236 289 344
#
# _framework density 18.169689999999999
#
# number of rings (size 3 to 8) (size 9 to 14) (size 15 to 20)
#    0.000    1.538    1.538    4.154    0.000    6.154 
#    0.000    0.000    1.692    0.000    0.000    0.000 
#    0.000    0.000    0.000    0.000    0.000    0.000 
#
# Total GULP energy -290213.994618 kJ/mol
# GULP energy per Si atom -5581.038358 kJ/mol
# Density = 1.812834 g / cm^3
# Si number density = 18.169690 Si / 1000 Ang^3
#
#
#
# Elastic Constant Matrix: (Units=GPa)
#
#
# Indices 1 2 3 4 5 6 
#
# 1 131.8160 42.1440 27.0875 0.0000 0.0000 0.0000
# 2 42.1440 90.9214 21.0251 0.0000 0.0000 0.0000
# 3 27.0875 21.0251 46.8550 0.0000 0.0000 0.0000
# 4 0.0000 0.0000 0.0000 31.2783 0.0000 0.0000
# 5 0.0000 0.0000 0.0000 0.0000 15.4979 0.0000
# 6 0.0000 0.0000 0.0000 0.0000 0.0000 14.8750
#
#
#
# Elastic Compliance Matrix: (Units=1/GPa)
#
#
# Indices 1 2 3 4 5 6 
#
# 1 0.009513 -0.003501 -0.003929 0.000000 0.000000 0.000000
# 2 -0.003501 0.013560 -0.004061 0.000000 0.000000 0.000000
# 3 -0.003929 -0.004061 0.025436 0.000000 0.000000 0.000000
# 4 0.000000 0.000000 0.000000 0.031971 0.000000 0.000000
# 5 0.000000 0.000000 0.000000 0.000000 0.064525 0.000000
# 6 0.000000 0.000000 0.000000 0.000000 0.000000 0.067227
#
#
# Mechanical properties :
#
#
# Convention : Reuss Voigt Hill
#
# Bulk Modulus (GPa) = 39.17242 50.01174 44.59208
# Shear Modulus (GPa) = 20.51512 24.28594 22.40053
#
# Velocity S-wave (km/s) = 3.36383 3.65995 3.51501
# Velocity P-wave (km/s) = 6.05749 6.74128 6.40851
#
# Compressibility (1/GPa) = 0.02552817
#
# Stress axis : x y z
#
# Youngs Moduli (GPa) = 105.11958 73.74429 39.31460
#
# Poissons Ratio (x) = 0.25818 0.15445
# Poissons Ratio (y) = 0.36802 0.15965
# Poissons Ratio (z) = 0.41297 0.29947
#
# Static dielectric constant tensor:
#      x y z
#    x 1.665700 0.000000 0.000000 
#    y 0.000000 1.639040 0.000000 
#    z 0.000000 0.000000 1.616220 
# 
# From -- ./inp_files/12610.got.cif
#   From: 2010.05.17/outbox.cif.g08.bks.cpg/sg63_7_cif.got.tgz:12610.got - 2010.06.03 15:47:04.
