data_PCOD9470717
_publ_section_title
;
Structure prediction by ZEFSAII (Michael W. Deem and Ramdas Pophale) SiO2 
 PCOD9470717
Probable space group: C M C M
;
_chemical_formula_sum "Si O2"
_cell_formula_units_Z 104
_cell_length_a 20.897070
_cell_length_b 32.290869
_cell_length_c 8.929550
_cell_angle_alpha 90.000000
_cell_angle_beta 90.000000
_cell_angle_gamma 90.000000
_cell_volume 6025.522377
_symmetry_space_group_name_H-M "C M C M"
_symmetry_group_IT_number 63
_symmetry_cell_setting 'orthorhombic'
loop_
_space_group_symop_operation_xyz
x,y,z
-x,-y,1/2+z
x,-y,-z
-x,y,1/2-z
-x,-y,-z
x,y,1/2-z
-x,y,z
x,-y,1/2+z
1/2+x,1/2+y,z
1/2-x,1/2-y,1/2+z
1/2+x,1/2-y,-z
1/2-x,1/2+y,1/2-z
1/2-x,1/2-y,-z
1/2+x,1/2+y,1/2-z
1/2-x,1/2+y,z
1/2+x,1/2-y,1/2+z
loop_
_atom_site_type_symbol
_atom_site_label
_atom_site_fract_x
_atom_site_fract_y
_atom_site_fract_z
Si Si1 0.572176 0.816815 0.929943
Si Si2 0.803210 0.633358 0.069980
Si Si3 0.128499 0.926787 0.422699
Si Si4 0.677769 0.667279 0.921873
Si Si5 0.000000 0.954643 0.928299
Si Si6 0.073012 0.773815 0.570619
Si Si7 0.756753 0.457659 0.570332
O O1 0.575945 0.810735 0.750000
O O2 0.500000 0.831454 0.964594
O O3 0.628086 0.848373 0.973426
O O4 0.581318 0.772637 0.008813
O O5 0.797002 0.635532 0.250000
O O6 0.793289 0.585030 0.028864
O O7 0.746491 0.660860 0.999499
O O8 0.122157 0.940791 0.250000
O O9 0.147552 0.878664 0.422587
O O10 0.185663 0.951037 0.504055
O O11 0.063209 0.932602 0.510981
O O12 0.686060 0.680715 0.750000
O O13 0.628272 0.697390 0.003903
O O14 0.000000 0.956695 0.750000
O O15 0.000000 0.000000 0.000000
O O16 0.076762 0.773990 0.750000
O O17 0.000000 0.787123 0.528253
O O18 0.783301 0.500000 0.500000
O O19 0.754648 0.460904 0.750000
#
# Coordination Sequence:
#
# PCOD9470717 Si02
#       7
#    16  16  16  16   8  16  16
#     4   9  18  35  58  81 104 134 172 213 258 309
#     4   9  19  35  55  79 106 135 171 214 260 309
#     4  10  21  36  51  71  98 130 171 217 261 305
#     4  10  21  35  53  76 103 137 176 217 260 305
#     4  12  24  36  50  68  94 130 172 216 264 312
#     4  10  21  35  52  76 106 141 178 216 259 309
#     4  10  19  33  53  76 102 133 168 208 255 308
#
# _framework density 17.259914999999999
#
# number of rings (size 3 to 8) (size 9 to 14) (size 15 to 20)
#    0.000    2.154    0.000    3.000    1.077    4.615 
#    0.000    0.000    0.000    0.462    0.000    0.000 
#    0.000    0.000    0.000    0.000    0.000    0.462 
#
# Total GULP energy -290191.990977 kJ/mol
# GULP energy per Si atom -5580.615211 kJ/mol
# Density = 1.722063 g / cm^3
# Si number density = 17.259915 Si / 1000 Ang^3
#
#
#
# Elastic Constant Matrix: (Units=GPa)
#
#
# Indices 1 2 3 4 5 6 
#
# 1 139.1941 78.7121 54.5386 0.0000 0.0000 0.0000
# 2 78.7121 84.6354 42.5253 0.0000 0.0000 0.0000
# 3 54.5386 42.5253 75.5070 0.0000 0.0000 0.0000
# 4 0.0000 0.0000 0.0000 25.4951 0.0000 0.0000
# 5 0.0000 0.0000 0.0000 0.0000 20.4626 0.0000
# 6 0.0000 0.0000 0.0000 0.0000 0.0000 11.1151
#
#
#
# Elastic Compliance Matrix: (Units=1/GPa)
#
#
# Indices 1 2 3 4 5 6 
#
# 1 0.016171 -0.012789 -0.004477 0.000000 0.000000 0.000000
# 2 -0.012789 0.026594 -0.005740 0.000000 0.000000 0.000000
# 3 -0.004477 -0.005740 0.019710 0.000000 0.000000 0.000000
# 4 0.000000 0.000000 0.000000 0.039223 0.000000 0.000000
# 5 0.000000 0.000000 0.000000 0.000000 0.048870 0.000000
# 6 0.000000 0.000000 0.000000 0.000000 0.000000 0.089968
#
#
# Mechanical properties :
#
#
# Convention : Reuss Voigt Hill
#
# Bulk Modulus (GPa) = 60.74555 72.32095 66.53325
# Shear Modulus (GPa) = 17.12127 19.65194 18.38661
#
# Velocity S-wave (km/s) = 3.15297 3.37796 3.26740
# Velocity P-wave (km/s) = 6.96606 7.56348 7.27091
#
# Compressibility (1/GPa) = 0.01646211
#
# Stress axis : x y z
#
# Youngs Moduli (GPa) = 61.84066 37.60304 50.73525
#
# Poissons Ratio (x) = 0.48092 0.22715
# Poissons Ratio (y) = 0.79090 0.29120
# Poissons Ratio (z) = 0.27687 0.21583
#
# Static dielectric constant tensor:
#      x y z
#    x 1.565190 0.000000 0.000000 
#    y 0.000000 1.592620 0.000000 
#    z 0.000000 0.000000 1.583780 
# 
# From -- ./inp_files/9108.got.cif
#   From: 2010.05.17/outbox.cif.g08.bks.cpg/sg63_5_cif.got.tgz:9108.got - 2010.06.03 15:47:04.
