data_PCOD9470083
_publ_section_title
;
Structure prediction by ZEFSAII (Michael W. Deem and Ramdas Pophale) SiO2 
 PCOD9470083
Probable space group: C M C M
;
_chemical_formula_sum "Si O2"
_cell_formula_units_Z 104
_cell_length_a 18.023027
_cell_length_b 27.146757
_cell_length_c 11.857497
_cell_angle_alpha 90.000000
_cell_angle_beta 90.000000
_cell_angle_gamma 90.000000
_cell_volume 5801.478835
_symmetry_space_group_name_H-M "C M C M"
_symmetry_group_IT_number 63
_symmetry_cell_setting 'orthorhombic'
loop_
_space_group_symop_operation_xyz
x,y,z
-x,-y,1/2+z
x,-y,-z
-x,y,1/2-z
-x,-y,-z
x,y,1/2-z
-x,y,z
x,-y,1/2+z
1/2+x,1/2+y,z
1/2-x,1/2-y,1/2+z
1/2+x,1/2-y,-z
1/2-x,1/2+y,1/2-z
1/2-x,1/2-y,-z
1/2+x,1/2+y,1/2-z
1/2-x,1/2+y,z
1/2+x,1/2-y,1/2+z
loop_
_atom_site_type_symbol
_atom_site_label
_atom_site_fract_x
_atom_site_fract_y
_atom_site_fract_z
Si Si1 0.231544 0.591266 0.623457
Si Si2 0.762160 0.787961 0.623244
Si Si3 0.658218 0.191032 0.938695
Si Si4 0.631386 0.352291 0.039023
Si Si5 0.000000 0.789563 0.376567
Si Si6 0.793331 0.000000 0.000000
Si Si7 0.583178 0.439854 0.879474
Si Si8 0.500000 0.767633 0.381138
O O1 0.213630 0.576466 0.750000
O O2 0.176703 0.634345 0.583507
O O3 0.310763 0.618547 0.615711
O O4 0.242536 0.543812 0.546095
O O5 0.765452 0.806446 0.750000
O O6 0.681337 0.796664 0.567983
O O7 0.786620 0.730670 0.621163
O O8 0.821159 0.816858 0.544584
O O9 0.576418 0.202733 0.895897
O O10 0.573480 0.322458 0.112473
O O11 0.592043 0.393021 0.960791
O O12 0.000000 0.763784 0.501699
O O13 0.000000 0.765599 0.250000
O O14 0.850803 0.977582 0.908506
O O15 0.590211 0.423942 0.750000
O O16 0.500000 0.460995 0.893735
O O17 0.500000 0.746762 0.250000
#
# Coordination Sequence:
#
# PCOD9470083 Si02
#       8
#    16  16  16  16   8   8  16   8
#     4  10  20  37  57  77 104 141 186 242 291 341
#     4  10  19  35  56  83 118 156 197 235 279 336
#     4  10  22  36  57  86 112 150 194 240 287 340
#     4  10  20  34  52  80 113 158 195 231 274 339
#     4  12  24  36  52  85 126 165 198 238 286 337
#     4  10  21  34  52  75 104 136 188 238 308 351
#     4  10  19  31  49  73 106 146 192 238 283 337
#     4  12  24  40  60  87 118 158 200 240 284 346
#
# _framework density 17.926463999999999
#
# number of rings (size 3 to 8) (size 9 to 14) (size 15 to 20)
#    0.000    1.692    2.308    3.000    0.000    1.231 
#    0.000    0.769    0.000    0.462    0.000    0.000 
#    0.000    0.000    0.000    0.000    0.000    0.000 
#
# Total GULP energy -289717.025730 kJ/mol
# GULP energy per Si atom -5571.481264 kJ/mol
# Density = 1.788566 g / cm^3
# Si number density = 17.926464 Si / 1000 Ang^3
#
#
#
# Elastic Constant Matrix: (Units=GPa)
#
#
# Indices 1 2 3 4 5 6 
#
# 1 59.4781 19.5553 26.2430 0.0000 0.0000 0.0000
# 2 19.5553 77.0100 19.8617 0.0000 0.0000 0.0000
# 3 26.2430 19.8617 100.3016 0.0000 0.0000 0.0000
# 4 0.0000 0.0000 0.0000 8.3238 0.0000 0.0000
# 5 0.0000 0.0000 0.0000 0.0000 9.1810 0.0000
# 6 0.0000 0.0000 0.0000 0.0000 0.0000 18.4438
#
#
#
# Elastic Compliance Matrix: (Units=1/GPa)
#
#
# Indices 1 2 3 4 5 6 
#
# 1 0.020084 -0.003946 -0.004473 0.000000 0.000000 0.000000
# 2 -0.003946 0.014460 -0.001831 0.000000 0.000000 0.000000
# 3 -0.004473 -0.001831 0.011503 0.000000 0.000000 0.000000
# 4 0.000000 0.000000 0.000000 0.120138 0.000000 0.000000
# 5 0.000000 0.000000 0.000000 0.000000 0.108921 0.000000
# 6 0.000000 0.000000 0.000000 0.000000 0.000000 0.054219
#
#
# Mechanical properties :
#
#
# Convention : Reuss Voigt Hill
#
# Bulk Modulus (GPa) = 39.14549 40.90107 40.02328
# Shear Modulus (GPa) = 13.95321 18.59835 16.27578
#
# Velocity S-wave (km/s) = 2.79293 3.22449 3.01644
# Velocity P-wave (km/s) = 5.68197 6.06042 5.87424
#
# Compressibility (1/GPa) = 0.02554572
#
# Stress axis : x y z
#
# Youngs Moduli (GPa) = 49.79054 69.15830 86.93472
#
# Poissons Ratio (x) = 0.27292 0.38889
# Poissons Ratio (y) = 0.19649 0.15916
# Poissons Ratio (z) = 0.22273 0.12661
#
# Static dielectric constant tensor:
#      x y z
#    x 1.617880 0.000000 0.000000 
#    y 0.000000 1.627650 0.000000 
#    z 0.000000 0.000000 1.663070 
# 
# From -- ./inp_files/21649.got.cif
#   From: 2010.05.17/outbox.cif.g08.bks.cpg/sg63_11_cif.got.tgz:21649.got - 2010.06.03 15:47:04.
