data_PCOD9470761
_publ_section_title
;
Structure prediction by ZEFSAII (Michael W. Deem and Ramdas Pophale) SiO2 
 PCOD9470761
Probable space group: C M C M
;
_chemical_formula_sum "Si O2"
_cell_formula_units_Z 96
_cell_length_a 19.595898
_cell_length_b 10.351422
_cell_length_c 24.791036
_cell_angle_alpha 90.000000
_cell_angle_beta 90.000000
_cell_angle_gamma 90.000000
_cell_volume 5028.747853
_symmetry_space_group_name_H-M "C M C M"
_symmetry_group_IT_number 63
_symmetry_cell_setting 'orthorhombic'
loop_
_space_group_symop_operation_xyz
x,y,z
-x,-y,1/2+z
x,-y,-z
-x,y,1/2-z
-x,-y,-z
x,y,1/2-z
-x,y,z
x,-y,1/2+z
1/2+x,1/2+y,z
1/2-x,1/2-y,1/2+z
1/2+x,1/2-y,-z
1/2-x,1/2+y,1/2-z
1/2-x,1/2-y,-z
1/2+x,1/2+y,1/2-z
1/2-x,1/2+y,z
1/2+x,1/2-y,1/2+z
loop_
_atom_site_type_symbol
_atom_site_label
_atom_site_fract_x
_atom_site_fract_y
_atom_site_fract_z
Si Si1 0.183778 0.392614 0.810020
Si Si2 0.713779 0.825489 0.347078
Si Si3 0.227699 0.876192 0.033695
Si Si4 0.923321 0.716103 0.601713
Si Si5 0.922312 0.815897 0.483953
Si Si6 0.923744 0.585298 0.404300
O O1 0.154658 0.376903 0.750000
O O2 0.240457 0.284052 0.820309
O O3 0.211401 0.539110 0.815728
O O4 0.129873 0.379274 0.858419
O O5 0.741686 0.860715 0.406917
O O6 0.637642 0.769555 0.356300
O O7 0.145146 0.886241 0.037541
O O8 0.250000 0.750000 0.000000
O O9 0.252685 0.000000 0.000000
O O10 0.915261 0.801385 0.548219
O O11 0.917900 0.566148 0.583291
O O12 0.000000 0.735455 0.623176
O O13 0.916895 0.674993 0.456311
O O14 0.000000 0.863286 0.471943
O O15 0.000000 0.606591 0.382714
#
# Coordination Sequence:
#
# PCOD9470761 Si02
#       6
#    16  16  16  16  16  16
#     4  11  23  39  60  83 108 148 197 247 293 333
#     4  11  22  38  59  83 118 147 188 238 290 338
#     4  12  24  36  57  87 121 154 190 228 277 345
#     4   9  18  31  54  84 116 149 183 223 278 344
#     4  10  19  33  53  82 118 157 187 219 272 344
#     4   9  18  33  54  83 115 147 185 234 282 335
#
# _framework density 19.090237999999999
#
# number of rings (size 3 to 8) (size 9 to 14) (size 15 to 20)
#    0.000    1.667    3.333    2.000    2.333    2.667 
#    0.000    0.000    0.000    2.500    0.000    0.000 
#    0.000    0.000    0.000    0.000    0.000    0.000 
#
# Total GULP energy -267923.987048 kJ/mol
# GULP energy per Si atom -5581.749730 kJ/mol
# Density = 1.904679 g / cm^3
# Si number density = 19.090238 Si / 1000 Ang^3
#
#
#
# Elastic Constant Matrix: (Units=GPa)
#
#
# Indices 1 2 3 4 5 6 
#
# 1 95.3398 25.3415 2.8798 0.0000 0.0000 0.0000
# 2 25.3415 46.3107 14.7152 0.0000 0.0000 0.0000
# 3 2.8798 14.7152 51.0216 0.0000 0.0000 0.0000
# 4 0.0000 0.0000 0.0000 19.6934 0.0000 0.0000
# 5 0.0000 0.0000 0.0000 0.0000 4.2421 0.0000
# 6 0.0000 0.0000 0.0000 0.0000 0.0000 23.5721
#
#
#
# Elastic Compliance Matrix: (Units=1/GPa)
#
#
# Indices 1 2 3 4 5 6 
#
# 1 0.012362 -0.007203 0.001380 0.000000 0.000000 0.000000
# 2 -0.007203 0.027969 -0.007660 0.000000 0.000000 0.000000
# 3 0.001380 -0.007660 0.021731 0.000000 0.000000 0.000000
# 4 0.000000 0.000000 0.000000 0.050779 0.000000 0.000000
# 5 0.000000 0.000000 0.000000 0.000000 0.235730 0.000000
# 6 0.000000 0.000000 0.000000 0.000000 0.000000 0.042423
#
#
# Mechanical properties :
#
#
# Convention : Reuss Voigt Hill
#
# Bulk Modulus (GPa) = 28.49404 30.94946 29.72175
# Shear Modulus (GPa) = 11.63718 19.48389 15.56053
#
# Velocity S-wave (km/s) = 2.47166 3.19818 2.85810
# Velocity P-wave (km/s) = 4.80665 5.46674 5.14728
#
# Compressibility (1/GPa) = 0.03509505
#
# Stress axis : x y z
#
# Youngs Moduli (GPa) = 80.89549 35.75437 46.01752
#
# Poissons Ratio (x) = 0.25753 -0.06349
# Poissons Ratio (y) = 0.58267 0.35249
# Poissons Ratio (z) = -0.11161 0.27388
#
# Static dielectric constant tensor:
#      x y z
#    x 1.718920 0.000000 0.000000 
#    y 0.000000 1.679720 0.000000 
#    z 0.000000 0.000000 1.612370 
# 
# From -- ./inp_files/56531.got.cif
#   From: 2010.05.17/outbox.cif.g08.bks.cpg/sg63_29_cif.got.tgz:56531.got - 2010.06.03 15:47:04.
