data_PCOD9470971
_publ_section_title
;
Structure prediction by ZEFSAII (Michael W. Deem and Ramdas Pophale) SiO2 
 PCOD9470971
Probable space group: C M C M
;
_chemical_formula_sum "Si O2"
_cell_formula_units_Z 96
_cell_length_a 20.232557
_cell_length_b 8.532622
_cell_length_c 31.373084
_cell_angle_alpha 90.000000
_cell_angle_beta 90.000000
_cell_angle_gamma 90.000000
_cell_volume 5416.147604
_symmetry_space_group_name_H-M "C M C M"
_symmetry_group_IT_number 63
_symmetry_cell_setting 'orthorhombic'
loop_
_space_group_symop_operation_xyz
x,y,z
-x,-y,1/2+z
x,-y,-z
-x,y,1/2-z
-x,-y,-z
x,y,1/2-z
-x,y,z
x,-y,1/2+z
1/2+x,1/2+y,z
1/2-x,1/2-y,1/2+z
1/2+x,1/2-y,-z
1/2-x,1/2+y,1/2-z
1/2-x,1/2-y,-z
1/2+x,1/2+y,1/2-z
1/2-x,1/2+y,z
1/2+x,1/2-y,1/2+z
loop_
_atom_site_type_symbol
_atom_site_label
_atom_site_fract_x
_atom_site_fract_y
_atom_site_fract_z
Si Si1 0.422373 0.375922 0.120020
Si Si2 0.833707 0.402835 0.634226
Si Si3 0.270228 0.802043 0.408550
Si Si4 0.423590 0.936516 0.300720
Si Si5 0.340903 0.516328 0.049492
Si Si6 0.920012 0.930456 0.798345
O O1 0.500000 0.360722 0.123918
O O2 0.388968 0.207998 0.113428
O O3 0.402164 0.483934 0.080558
O O4 0.395855 0.456262 0.163918
O O5 0.767375 0.297175 0.628786
O O6 0.816361 0.563392 0.610449
O O7 0.868312 0.454545 0.678099
O O8 0.309932 0.682565 0.437876
O O9 0.214292 0.889229 0.436241
O O10 0.423855 0.957486 0.250000
O O11 0.500000 0.966856 0.315471
O O12 0.407751 0.752568 0.308750
O O13 0.355918 0.500000 0.000000
O O14 0.896079 0.964383 0.750000
O O15 0.000000 0.945097 0.797089
#
# Coordination Sequence:
#
# PCOD9470971 Si02
#       6
#    16  16  16  16  16  16
#     4  10  20  32  50  78 107 135 167 208 262 314
#     4  10  19  34  52  72 102 134 170 215 255 300
#     4   9  20  35  53  75  97 130 174 214 255 299
#     4   9  17  30  51  78 104 132 166 204 251 306
#     4  10  19  34  56  77 101 132 169 213 257 310
#     4   8  15  29  49  74 103 132 164 201 242 295
#
# _framework density 17.724775000000001
#
# number of rings (size 3 to 8) (size 9 to 14) (size 15 to 20)
#    0.000    2.667    0.000    3.000    0.000    1.000 
#    0.000    3.333    0.000    7.000    0.000    0.000 
#    0.000    0.000    0.000    0.000    0.000    0.000 
#
# Total GULP energy -267281.891211 kJ/mol
# GULP energy per Si atom -5568.372734 kJ/mol
# Density = 1.768443 g / cm^3
# Si number density = 17.724775 Si / 1000 Ang^3
#
#
#
# Elastic Constant Matrix: (Units=GPa)
#
#
# Indices 1 2 3 4 5 6 
#
# 1 23.4880 17.5677 34.5564 0.0000 0.0000 0.0000
# 2 17.5677 84.0576 46.5782 0.0000 0.0000 0.0000
# 3 34.5564 46.5782 91.6435 0.0000 0.0000 0.0000
# 4 0.0000 0.0000 0.0000 6.9670 0.0000 0.0000
# 5 0.0000 0.0000 0.0000 0.0000 23.3442 0.0000
# 6 0.0000 0.0000 0.0000 0.0000 0.0000 22.9158
#
#
#
# Elastic Compliance Matrix: (Units=1/GPa)
#
#
# Indices 1 2 3 4 5 6 
#
# 1 0.095623 -0.000007 -0.036054 0.000000 0.000000 0.000000
# 2 -0.000007 0.016561 -0.008414 0.000000 0.000000 0.000000
# 3 -0.036054 -0.008414 0.028783 0.000000 0.000000 0.000000
# 4 0.000000 0.000000 0.000000 0.143533 0.000000 0.000000
# 5 0.000000 0.000000 0.000000 0.000000 0.042837 0.000000
# 6 0.000000 0.000000 0.000000 0.000000 0.000000 0.043638
#
#
# Mechanical properties :
#
#
# Convention : Reuss Voigt Hill
#
# Bulk Modulus (GPa) = 19.22426 44.06598 31.64512
# Shear Modulus (GPa) = 10.47637 17.34453 13.91045
#
# Velocity S-wave (km/s) = 2.43381 3.13157 2.80447
# Velocity P-wave (km/s) = 4.33214 6.16367 5.32721
#
# Compressibility (1/GPa) = 0.05201762
#
# Stress axis : x y z
#
# Youngs Moduli (GPa) = 10.45770 60.38410 34.74225
#
# Poissons Ratio (x) = 0.00041 1.25258
# Poissons Ratio (y) = 0.00007 0.29234
# Poissons Ratio (z) = 0.37704 0.50810
#
# Static dielectric constant tensor:
#      x y z
#    x 1.615070 0.000000 0.000000 
#    y 0.000000 1.622970 0.000000 
#    z 0.000000 0.000000 1.599680 
# 
# From -- ./inp_files/70263.got.cif
#   From: 2010.05.17/outbox.cif.g08.bks.cpg/sg63_36_cif.got.tgz:70263.got - 2010.06.03 15:47:04.
