data_PCOD9470411
_publ_section_title
;
Structure prediction by ZEFSAII (Michael W. Deem and Ramdas Pophale) SiO2 
 PCOD9470411
Probable space group: C M C M
;
_chemical_formula_sum "Si O2"
_cell_formula_units_Z 96
_cell_length_a 14.225636
_cell_length_b 14.099925
_cell_length_c 24.984630
_cell_angle_alpha 90.000000
_cell_angle_beta 90.000000
_cell_angle_gamma 90.000000
_cell_volume 5011.427096
_symmetry_space_group_name_H-M "C M C M"
_symmetry_group_IT_number 63
_symmetry_cell_setting 'orthorhombic'
loop_
_space_group_symop_operation_xyz
x,y,z
-x,-y,1/2+z
x,-y,-z
-x,y,1/2-z
-x,-y,-z
x,y,1/2-z
-x,y,z
x,-y,1/2+z
1/2+x,1/2+y,z
1/2-x,1/2-y,1/2+z
1/2+x,1/2-y,-z
1/2-x,1/2+y,1/2-z
1/2-x,1/2-y,-z
1/2+x,1/2+y,1/2-z
1/2-x,1/2+y,z
1/2+x,1/2-y,1/2+z
loop_
_atom_site_type_symbol
_atom_site_label
_atom_site_fract_x
_atom_site_fract_y
_atom_site_fract_z
Si Si1 0.607496 0.001072 0.686000
Si Si2 0.610015 0.538952 0.909728
Si Si3 0.890276 0.824391 0.580687
Si Si4 0.297235 0.184657 0.135853
Si Si5 0.784775 0.115668 0.812680
Si Si6 0.386568 0.731460 0.966095
O O1 0.604663 0.987494 0.750000
O O2 0.500000 0.011633 0.666804
O O3 0.657926 0.908893 0.661079
O O4 0.675010 0.091484 0.676496
O O5 0.500000 0.554409 0.900503
O O6 0.618967 0.435572 0.935211
O O7 0.660410 0.546115 0.852653
O O8 0.643345 0.626771 0.945556
O O9 0.814944 0.814503 0.627406
O O10 0.864121 0.761569 0.528887
O O11 0.000000 0.808250 0.594359
O O12 0.316355 0.278747 0.170719
O O13 0.340970 0.198004 0.076482
O O14 0.802617 0.099175 0.750000
O O15 0.500000 0.737701 0.962420
#
# Coordination Sequence:
#
# PCOD9470411 Si02
#       6
#    16  16  16  16  16  16
#     4  10  21  38  58  78 105 143 184 226 275 329
#     4   9  17  32  53  78 104 136 172 213 266 319
#     4  10  19  32  51  77 109 142 174 213 265 322
#     4  11  20  34  56  81 106 142 184 227 265 322
#     4  10  21  36  54  78 107 138 176 225 275 323
#     4   9  18  31  51  79 108 137 175 220 264 315
#
# _framework density 19.156220000000001
#
# number of rings (size 3 to 8) (size 9 to 14) (size 15 to 20)
#    0.000    2.167    1.667    2.000    0.000    3.667 
#    0.000    0.000    0.000    1.500    0.000    5.833 
#    0.000    0.000    0.000    0.000    0.000    0.000 
#
# Total GULP energy -267482.114764 kJ/mol
# GULP energy per Si atom -5572.544058 kJ/mol
# Density = 1.911262 g / cm^3
# Si number density = 19.156220 Si / 1000 Ang^3
#
#
#
# Elastic Constant Matrix: (Units=GPa)
#
#
# Indices 1 2 3 4 5 6 
#
# 1 28.3989 -5.6324 12.8339 0.0000 0.0000 0.0000
# 2 -5.6324 23.8314 -13.0465 0.0000 0.0000 0.0000
# 3 12.8339 -13.0465 34.5611 0.0000 0.0000 0.0000
# 4 0.0000 0.0000 0.0000 8.7490 0.0000 0.0000
# 5 0.0000 0.0000 0.0000 0.0000 30.1239 0.0000
# 6 0.0000 0.0000 0.0000 0.0000 0.0000 20.4767
#
#
#
# Elastic Compliance Matrix: (Units=1/GPa)
#
#
# Indices 1 2 3 4 5 6 
#
# 1 0.042372 0.001765 -0.015068 0.000000 0.000000 0.000000
# 2 0.001765 0.052966 0.019338 0.000000 0.000000 0.000000
# 3 -0.015068 0.019338 0.041830 0.000000 0.000000 0.000000
# 4 0.000000 0.000000 0.000000 0.114299 0.000000 0.000000
# 5 0.000000 0.000000 0.000000 0.000000 0.033196 0.000000
# 6 0.000000 0.000000 0.000000 0.000000 0.000000 0.048836
#
#
# Mechanical properties :
#
#
# Convention : Reuss Voigt Hill
#
# Bulk Modulus (GPa) = 6.70066 8.34460 7.52263
# Shear Modulus (GPa) = 13.47078 18.04567 15.75823
#
# Velocity S-wave (km/s) = 2.65468 3.07258 2.87124
# Velocity P-wave (km/s) = 3.59193 4.11742 3.86362
#
# Compressibility (1/GPa) = 0.14923903
#
# Stress axis : x y z
#
# Youngs Moduli (GPa) = 23.60034 18.88021 23.90643
#
# Poissons Ratio (x) = -0.03333 0.36022
# Poissons Ratio (y) = -0.04166 -0.46231
# Poissons Ratio (z) = 0.35561 -0.36511
#
# Static dielectric constant tensor:
#      x y z
#    x 1.691080 0.000000 0.000000 
#    y 0.000000 1.663060 0.000000 
#    z 0.000000 0.000000 1.662200 
# 
# From -- ./inp_files/54165.got.cif
#   From: 2010.05.17/outbox.cif.g08.bks.cpg/sg63_28_cif.got.tgz:54165.got - 2010.06.03 15:47:04.
