data_PCOD9470784
_publ_section_title
;
Structure prediction by ZEFSAII (Michael W. Deem and Ramdas Pophale) SiO2 
 PCOD9470784
Probable space group: C M C M
;
_chemical_formula_sum "Si O2"
_cell_formula_units_Z 72
_cell_length_a 17.623255
_cell_length_b 25.100686
_cell_length_c 7.529381
_cell_angle_alpha 90.000000
_cell_angle_beta 90.000000
_cell_angle_gamma 90.000000
_cell_volume 3330.665281
_symmetry_space_group_name_H-M "C M C M"
_symmetry_group_IT_number 63
_symmetry_cell_setting 'orthorhombic'
loop_
_space_group_symop_operation_xyz
x,y,z
-x,-y,1/2+z
x,-y,-z
-x,y,1/2-z
-x,-y,-z
x,y,1/2-z
-x,y,z
x,-y,1/2+z
1/2+x,1/2+y,z
1/2-x,1/2-y,1/2+z
1/2+x,1/2-y,-z
1/2-x,1/2+y,1/2-z
1/2-x,1/2-y,-z
1/2+x,1/2+y,1/2-z
1/2-x,1/2+y,z
1/2+x,1/2-y,1/2+z
loop_
_atom_site_type_symbol
_atom_site_label
_atom_site_fract_x
_atom_site_fract_y
_atom_site_fract_z
Si Si1 0.626032 0.645335 0.532535
Si Si2 0.414980 0.061158 0.963031
Si Si3 0.500000 0.562871 0.962744
Si Si4 0.582583 0.236420 0.463952
Si Si5 0.701640 0.852692 0.460213
O O1 0.626053 0.644863 0.750000
O O2 0.574058 0.595833 0.473961
O O3 0.591075 0.702247 0.480260
O O4 0.713025 0.645207 0.469430
O O5 0.417948 0.067797 0.750000
O O6 0.500000 0.071210 0.032585
O O7 0.353041 0.101630 0.035268
O O8 0.395590 0.000000 0.000000
O O9 0.500000 0.567619 0.750000
O O10 0.500000 0.500000 0.000000
O O11 0.581989 0.235447 0.250000
O O12 0.500000 0.215350 0.525848
O O13 0.654896 0.201894 0.519272
O O14 0.709299 0.862121 0.250000
#
# Coordination Sequence:
#
# PCOD9470784 Si02
#       5
#    16  16   8  16  16
#     4   9  18  35  56  75 103 142 177 213 265 324
#     4   9  18  32  48  67  96 131 165 203 252 306
#     4  10  20  38  60  80 106 144 187 228 269 320
#     4  10  19  33  54  78 105 141 179 211 256 323
#     4  10  20  33  52  79 106 135 173 220 271 315
#
# _framework density 21.617303
#
# number of rings (size 3 to 8) (size 9 to 14) (size 15 to 20)
#    0.000    2.444    1.111    1.333    0.000    3.111 
#    0.000    4.444    0.000    0.000    0.000    0.000 
#    0.000    0.000    0.000    0.000    0.000    0.000 
#
# Total GULP energy -201006.506406 kJ/mol
# GULP energy per Si atom -5583.514067 kJ/mol
# Density = 2.156810 g / cm^3
# Si number density = 21.617303 Si / 1000 Ang^3
#
#
#
# Elastic Constant Matrix: (Units=GPa)
#
#
# Indices 1 2 3 4 5 6 
#
# 1 185.0555 108.1803 5.1359 0.0000 0.0000 0.0000
# 2 108.1803 139.1543 -10.3290 0.0000 0.0000 0.0000
# 3 5.1359 -10.3290 51.8138 0.0000 0.0000 0.0000
# 4 0.0000 0.0000 0.0000 20.2964 0.0000 0.0000
# 5 0.0000 0.0000 0.0000 0.0000 -29.7409 0.0000
# 6 0.0000 0.0000 0.0000 0.0000 0.0000 26.1192
#
#
#
# Elastic Compliance Matrix: (Units=1/GPa)
#
#
# Indices 1 2 3 4 5 6 
#
# 1 0.010250 -0.008165 -0.002644 0.000000 0.000000 0.000000
# 2 -0.008165 0.013798 0.003560 0.000000 0.000000 0.000000
# 3 -0.002644 0.003560 0.020272 0.000000 0.000000 0.000000
# 4 0.000000 0.000000 0.000000 0.049270 0.000000 0.000000
# 5 0.000000 0.000000 0.000000 0.000000 -0.033624 0.000000
# 6 0.000000 0.000000 0.000000 0.000000 0.000000 0.038286
#
#
# Mechanical properties :
#
#
# Convention : Reuss Voigt Hill
#
# Bulk Modulus (GPa) = 33.53165 64.66643 49.09904
# Shear Modulus (GPa) = 40.75312 21.53736 31.14524
#
# Velocity S-wave (km/s) = 4.34661 3.15985 3.79985
# Velocity P-wave (km/s) = 6.38246 6.57967 6.48181
#
# Compressibility (1/GPa) = 0.02982257
#
# Stress axis : x y z
#
# Youngs Moduli (GPa) = 97.55913 72.47435 49.33006
#
# Poissons Ratio (x) = 0.59174 0.13041
# Poissons Ratio (y) = 0.79656 -0.17561
# Poissons Ratio (z) = 0.25792 -0.25800
#
# Static dielectric constant tensor:
#      x y z
#    x 1.802070 0.000000 0.000000 
#    y 0.000000 1.751700 0.000000 
#    z 0.000000 0.000000 1.822230 
# 
# From -- ./inp_files/4623.got.cif
#   From: 2010.05.17/outbox.cif.g08.bks.cpg/sg63_3_cif.got.tgz:4623.got - 2010.06.03 15:47:04.
