data_PCOD9470295
_publ_section_title
;
Structure prediction by ZEFSAII (Michael W. Deem and Ramdas Pophale) SiO2 
 PCOD9470295
Probable space group: C M C M
;
_chemical_formula_sum "Si O2"
_cell_formula_units_Z 120
_cell_length_a 27.318325
_cell_length_b 30.168345
_cell_length_c 8.850162
_cell_angle_alpha 90.000000
_cell_angle_beta 90.000000
_cell_angle_gamma 90.000000
_cell_volume 7293.849095
_symmetry_space_group_name_H-M "C M C M"
_symmetry_group_IT_number 63
_symmetry_cell_setting 'orthorhombic'
loop_
_space_group_symop_operation_xyz
x,y,z
-x,-y,1/2+z
x,-y,-z
-x,y,1/2-z
-x,-y,-z
x,y,1/2-z
-x,y,z
x,-y,1/2+z
1/2+x,1/2+y,z
1/2-x,1/2-y,1/2+z
1/2+x,1/2-y,-z
1/2-x,1/2+y,1/2-z
1/2-x,1/2-y,-z
1/2+x,1/2+y,1/2-z
1/2-x,1/2+y,z
1/2+x,1/2-y,1/2+z
loop_
_atom_site_type_symbol
_atom_site_label
_atom_site_fract_x
_atom_site_fract_y
_atom_site_fract_z
Si Si1 0.900812 0.905404 0.068215
Si Si2 0.700907 0.548969 0.567408
Si Si3 0.801878 0.218192 0.420979
Si Si4 0.758241 0.362313 0.068553
Si Si5 0.946358 0.277152 0.931828
Si Si6 0.162162 0.693366 0.431275
Si Si7 0.500000 0.547685 0.568250
Si Si8 0.585997 0.689090 0.081089
O O1 0.898279 0.903793 0.250000
O O2 0.852061 0.931379 0.017781
O O3 0.950070 0.929503 0.019115
O O4 0.907461 0.856241 0.007408
O O5 0.709517 0.500000 0.500000
O O6 0.700696 0.545110 0.750000
O O7 0.739105 0.588453 0.527612
O O8 0.782517 0.224873 0.250000
O O9 0.777323 0.175712 0.500073
O O10 0.805300 0.264166 0.513721
O O11 0.858895 0.206748 0.406816
O O12 0.757436 0.358710 0.250000
O O13 0.811270 0.348934 0.004199
O O14 0.945165 0.276158 0.750000
O O15 0.894941 0.300414 0.978682
O O16 0.000000 0.295795 0.977676
O O17 0.943011 0.227132 0.993673
O O18 0.163712 0.691290 0.250000
O O19 0.500000 0.500000 0.500000
O O20 0.500000 0.547001 0.750000
O O21 0.566233 0.682211 0.250000
#
# Coordination Sequence:
#
# PCOD9470295 Si02
#       8
#    16  16  16  16  16  16   8  16
#     4  10  20  36  52  69  93 125 165 207 258 311
#     4  10  22  37  55  74  97 129 167 212 259 309
#     4  10  19  32  49  71  99 131 166 203 244 291
#     4  11  21  34  51  73 102 134 165 203 251 303
#     4   9  19  35  53  71  98 136 171 204 245 294
#     4  10  20  33  51  75 102 133 168 206 246 294
#     4  10  22  36  52  68  86 114 154 208 262 310
#     4  10  20  31  47  73  98 125 163 208 249 288
#
# _framework density 16.452218999999999
#
# number of rings (size 3 to 8) (size 9 to 14) (size 15 to 20)
#    0.000    2.000    1.333    2.400    0.933    4.000 
#    0.000    0.000    0.000    0.000    0.000    0.000 
#    0.000    0.533    0.000    1.200    0.000    1.867 
#
# Total GULP energy -334435.494274 kJ/mol
# GULP energy per Si atom -5573.924905 kJ/mol
# Density = 1.641477 g / cm^3
# Si number density = 16.452219 Si / 1000 Ang^3
#
#
#
# Elastic Constant Matrix: (Units=GPa)
#
#
# Indices 1 2 3 4 5 6 
#
# 1 113.4778 67.1759 30.9348 0.0000 0.0000 0.0000
# 2 67.1759 107.0399 32.2837 0.0000 0.0000 0.0000
# 3 30.9348 32.2837 36.0512 0.0000 0.0000 0.0000
# 4 0.0000 0.0000 0.0000 27.0526 0.0000 0.0000
# 5 0.0000 0.0000 0.0000 0.0000 15.6728 0.0000
# 6 0.0000 0.0000 0.0000 0.0000 0.0000 11.2830
#
#
#
# Elastic Compliance Matrix: (Units=1/GPa)
#
#
# Indices 1 2 3 4 5 6 
#
# 1 0.014928 -0.007542 -0.006055 0.000000 0.000000 0.000000
# 2 -0.007542 0.016610 -0.008402 0.000000 0.000000 0.000000
# 3 -0.006055 -0.008402 0.040459 0.000000 0.000000 0.000000
# 4 0.000000 0.000000 0.000000 0.036965 0.000000 0.000000
# 5 0.000000 0.000000 0.000000 0.000000 0.063805 0.000000
# 6 0.000000 0.000000 0.000000 0.000000 0.000000 0.088629
#
#
# Mechanical properties :
#
#
# Convention : Reuss Voigt Hill
#
# Bulk Modulus (GPa) = 35.71852 57.48418 46.60135
# Shear Modulus (GPa) = 15.88686 19.21333 17.55010
#
# Velocity S-wave (km/s) = 3.11084 3.42105 3.26963
# Velocity P-wave (km/s) = 5.88733 7.11483 6.52999
#
# Compressibility (1/GPa) = 0.02799668
#
# Stress axis : x y z
#
# Youngs Moduli (GPa) = 66.98972 60.20608 24.71668
#
# Poissons Ratio (x) = 0.45407 0.14967
# Poissons Ratio (y) = 0.50523 0.20768
# Poissons Ratio (z) = 0.40565 0.50587
#
# Static dielectric constant tensor:
#      x y z
#    x 1.595710 0.000000 0.000000 
#    y 0.000000 1.546670 0.000000 
#    z 0.000000 0.000000 1.587740 
# 
# From -- ./inp_files/13176.got.cif
#   From: 2010.05.17/outbox.cif.g08.bks.cpg/sg63_7_cif.got.tgz:13176.got - 2010.06.03 15:47:04.
