data_PCOD9470123
_publ_section_title
;
Structure prediction by ZEFSAII (Michael W. Deem and Ramdas Pophale) SiO2 
 PCOD9470123
Probable space group: C M C M
;
_chemical_formula_sum "Si O2"
_cell_formula_units_Z 96
_cell_length_a 25.891595
_cell_length_b 26.142624
_cell_length_c 8.682134
_cell_angle_alpha 90.000000
_cell_angle_beta 90.000000
_cell_angle_gamma 90.000000
_cell_volume 5876.712791
_symmetry_space_group_name_H-M "C M C M"
_symmetry_group_IT_number 63
_symmetry_cell_setting 'orthorhombic'
loop_
_space_group_symop_operation_xyz
x,y,z
-x,-y,1/2+z
x,-y,-z
-x,y,1/2-z
-x,-y,-z
x,y,1/2-z
-x,y,z
x,-y,1/2+z
1/2+x,1/2+y,z
1/2-x,1/2-y,1/2+z
1/2+x,1/2-y,-z
1/2-x,1/2+y,1/2-z
1/2-x,1/2-y,-z
1/2+x,1/2+y,1/2-z
1/2-x,1/2+y,z
1/2+x,1/2-y,1/2+z
loop_
_atom_site_type_symbol
_atom_site_label
_atom_site_fract_x
_atom_site_fract_y
_atom_site_fract_z
Si Si1 0.333504 0.755836 0.065666
Si Si2 0.942647 0.246320 0.934152
Si Si3 0.440790 0.366053 0.923883
Si Si4 0.245220 0.829883 0.563327
Si Si5 0.764687 0.053613 0.067431
Si Si6 0.377862 0.451000 0.071210
O O1 0.338799 0.756794 0.250000
O O2 0.308826 0.699684 0.023344
O O3 0.388499 0.769753 0.990166
O O4 0.290414 0.796003 0.010215
O O5 0.940456 0.239844 0.750000
O O6 0.000000 0.269447 0.969057
O O7 0.941446 0.191945 0.020050
O O8 0.419307 0.369712 0.750000
O O9 0.500000 0.383712 0.920421
O O10 0.409493 0.400346 0.040735
O O11 0.248669 0.828083 0.750000
O O12 0.251307 0.889177 0.514356
O O13 0.757873 0.051662 0.250000
O O14 0.824975 0.052957 0.023269
O O15 0.742709 0.000000 0.000000
O O16 0.366774 0.458724 0.250000
O O17 0.406657 0.500000 0.000000
#
# Coordination Sequence:
#
# PCOD9470123 Si02
#       6
#    16  16  16  16  16  16
#     4  10  19  31  50  73  97 127 162 200 240 284
#     4  10  20  33  49  69  94 124 156 190 231 281
#     4  10  20  33  47  62  82 110 147 191 235 277
#     4   9  19  33  48  69  98 129 159 196 242 288
#     4  10  19  32  49  68  93 123 156 193 233 279
#     4  11  21  32  46  62  83 112 148 190 234 279
#
# _framework density 16.335664000000001
#
# number of rings (size 3 to 8) (size 9 to 14) (size 15 to 20)
#    0.000    2.000    0.000    5.500    0.000    5.667 
#    0.000    0.000    0.000    0.000    0.000    0.000 
#    0.000    0.667    0.000    2.167    0.000    2.667 
#
# Total GULP energy -267385.857197 kJ/mol
# GULP energy per Si atom -5570.538692 kJ/mol
# Density = 1.629848 g / cm^3
# Si number density = 16.335664 Si / 1000 Ang^3
#
#
#
# Elastic Constant Matrix: (Units=GPa)
#
#
# Indices 1 2 3 4 5 6 
#
# 1 76.9270 16.8742 17.2014 0.0000 0.0000 0.0000
# 2 16.8742 79.3746 18.8085 0.0000 0.0000 0.0000
# 3 17.2014 18.8085 37.3415 0.0000 0.0000 0.0000
# 4 0.0000 0.0000 0.0000 23.8833 0.0000 0.0000
# 5 0.0000 0.0000 0.0000 0.0000 20.1589 0.0000
# 6 0.0000 0.0000 0.0000 0.0000 0.0000 26.8980
#
#
#
# Elastic Compliance Matrix: (Units=1/GPa)
#
#
# Indices 1 2 3 4 5 6 
#
# 1 0.014697 -0.001726 -0.005901 0.000000 0.000000 0.000000
# 2 -0.001726 0.014509 -0.006513 0.000000 0.000000 0.000000
# 3 -0.005901 -0.006513 0.032778 0.000000 0.000000 0.000000
# 4 0.000000 0.000000 0.000000 0.041870 0.000000 0.000000
# 5 0.000000 0.000000 0.000000 0.000000 0.049606 0.000000
# 6 0.000000 0.000000 0.000000 0.000000 0.000000 0.037177
#
#
# Mechanical properties :
#
#
# Convention : Reuss Voigt Hill
#
# Bulk Modulus (GPa) = 29.66921 33.26791 31.46856
# Shear Modulus (GPa) = 21.72469 23.57198 22.64833
#
# Velocity S-wave (km/s) = 3.65073 3.80277 3.72753
# Velocity P-wave (km/s) = 5.99767 6.30007 6.15073
#
# Compressibility (1/GPa) = 0.03370498
#
# Stress axis : x y z
#
# Youngs Moduli (GPa) = 68.03892 68.92419 30.50788
#
# Poissons Ratio (x) = 0.11898 0.18002
# Poissons Ratio (y) = 0.11745 0.19869
# Poissons Ratio (z) = 0.40149 0.44888
#
# Static dielectric constant tensor:
#      x y z
#    x 1.572740 0.000000 0.000000 
#    y 0.000000 1.594130 0.000000 
#    z 0.000000 0.000000 1.552950 
# 
# From -- ./inp_files/8553.got.cif
#   From: 2010.05.17/outbox.cif.g08.bks.cpg/sg63_5_cif.got.tgz:8553.got - 2010.06.03 15:47:04.
