data_PCOD9470820
_publ_section_title
;
Structure prediction by ZEFSAII (Michael W. Deem and Ramdas Pophale) SiO2 
 PCOD9470820
Probable space group: C M C M
;
_chemical_formula_sum "Si O2"
_cell_formula_units_Z 116
_cell_length_a 7.996000
_cell_length_b 26.093343
_cell_length_c 27.346900
_cell_angle_alpha 90.000000
_cell_angle_beta 90.000000
_cell_angle_gamma 90.000000
_cell_volume 5705.722045
_symmetry_space_group_name_H-M "C M C M"
_symmetry_group_IT_number 63
_symmetry_cell_setting 'orthorhombic'
loop_
_space_group_symop_operation_xyz
x,y,z
-x,-y,1/2+z
x,-y,-z
-x,y,1/2-z
-x,-y,-z
x,y,1/2-z
-x,y,z
x,-y,1/2+z
1/2+x,1/2+y,z
1/2-x,1/2-y,1/2+z
1/2+x,1/2-y,-z
1/2-x,1/2+y,1/2-z
1/2-x,1/2-y,-z
1/2+x,1/2+y,1/2-z
1/2-x,1/2+y,z
1/2+x,1/2-y,1/2+z
loop_
_atom_site_type_symbol
_atom_site_label
_atom_site_fract_x
_atom_site_fract_y
_atom_site_fract_z
Si Si1 0.303701 0.694754 0.096901
Si Si2 0.802150 0.480372 0.359743
Si Si3 0.805095 0.802888 0.113954
Si Si4 0.500000 0.103986 0.250000
Si Si5 0.796112 0.162262 0.991851
Si Si6 0.700353 0.882458 0.195780
Si Si7 0.185591 0.406070 0.649046
Si Si8 0.702250 0.451962 0.032773
O O1 0.500000 0.706195 0.094511
O O2 0.218603 0.742774 0.123135
O O3 0.278738 0.641420 0.124962
O O4 0.235967 0.688712 0.041478
O O5 0.733118 0.437429 0.323005
O O6 0.732545 0.538026 0.357588
O O7 0.778573 0.457731 0.413643
O O8 0.000000 0.486273 0.348409
O O9 0.735420 0.814630 0.059572
O O10 0.732982 0.838937 0.155825
O O11 0.000000 0.815606 0.111918
O O12 0.356947 0.102399 0.206075
O O13 0.752376 0.102159 0.991180
O O14 0.000000 0.165555 0.992860
O O15 0.763976 0.869880 0.250000
O O16 0.500000 0.887575 0.198511
O O17 0.000000 0.407517 0.624441
O O18 0.500000 0.452949 0.037835
O O19 0.753461 0.500000 0.000000
#
# Coordination Sequence:
#
# PCOD9470820 Si02
#       8
#    16  16  16   4  16  16  16  16
#     4  11  22  39  62  88 118 151 198 249 296 352
#     4  10  20  34  59  88 118 150 192 243 289 346
#     4  11  22  40  61  85 118 156 201 243 293 357
#     4   8  20  40  66  80 118 156 202 240 296 362
#     4   9  19  35  56  84 119 158 193 233 293 355
#     4  10  22  39  61  88 118 153 196 247 301 349
#     4   9  20  38  60  87 114 154 196 237 294 352
#     4  10  19  33  54  82 121 163 195 232 290 354
#
# _framework density 20.330468
#
# number of rings (size 3 to 8) (size 9 to 14) (size 15 to 20)
#    0.414    1.655    1.379    2.069    0.966    2.207 
#    1.241    3.793    0.000    0.000    0.000    0.000 
#    0.000    0.000    0.000    0.000    0.000    0.000 
#
# Total GULP energy -323067.356292 kJ/mol
# GULP energy per Si atom -5570.126833 kJ/mol
# Density = 2.028420 g / cm^3
# Si number density = 20.330468 Si / 1000 Ang^3
#
#
#
# Elastic Constant Matrix: (Units=GPa)
#
#
# Indices 1 2 3 4 5 6 
#
# 1 16.6250 -0.2580 1.8700 0.0000 0.0000 0.0000
# 2 -0.2580 122.1697 36.0222 0.0000 0.0000 0.0000
# 3 1.8700 36.0222 88.7867 0.0000 0.0000 0.0000
# 4 0.0000 0.0000 0.0000 8.9732 0.0000 0.0000
# 5 0.0000 0.0000 0.0000 0.0000 15.5430 0.0000
# 6 0.0000 0.0000 0.0000 0.0000 0.0000 9.3076
#
#
#
# Elastic Compliance Matrix: (Units=1/GPa)
#
#
# Indices 1 2 3 4 5 6 
#
# 1 0.060328 0.000570 -0.001502 0.000000 0.000000 0.000000
# 2 0.000570 0.009303 -0.003786 0.000000 0.000000 0.000000
# 3 -0.001502 -0.003786 0.012831 0.000000 0.000000 0.000000
# 4 0.000000 0.000000 0.000000 0.111443 0.000000 0.000000
# 5 0.000000 0.000000 0.000000 0.000000 0.064337 0.000000
# 6 0.000000 0.000000 0.000000 0.000000 0.000000 0.107440
#
#
# Mechanical properties :
#
#
# Convention : Reuss Voigt Hill
#
# Bulk Modulus (GPa) = 13.69380 33.64997 23.67189
# Shear Modulus (GPa) = 12.51690 19.42790 15.97240
#
# Velocity S-wave (km/s) = 2.48397 3.09464 2.80597
# Velocity P-wave (km/s) = 3.87001 5.41816 4.70816
#
# Compressibility (1/GPa) = 0.07302573
#
# Stress axis : x y z
#
# Youngs Moduli (GPa) = 16.57601 107.49255 77.93756
#
# Poissons Ratio (x) = -0.06130 0.11706
# Poissons Ratio (y) = -0.00945 0.29510
# Poissons Ratio (z) = 0.02490 0.40701
#
# Static dielectric constant tensor:
#      x y z
#    x 1.730660 0.000000 0.000000 
#    y 0.000000 1.724730 0.000000 
#    z 0.000000 0.000000 1.703620 
# 
# From -- ./inp_files/67433.got.cif
#   From: 2010.05.17/outbox.cif.g08.bks.cpg/sg63_34_cif.got.tgz:67433.got - 2010.06.03 15:47:04.
