data_PCOD9470872
_publ_section_title
;
Structure prediction by ZEFSAII (Michael W. Deem and Ramdas Pophale) SiO2 
 PCOD9470872
Probable space group: C M C M
;
_chemical_formula_sum "Si O2"
_cell_formula_units_Z 96
_cell_length_a 7.611675
_cell_length_b 27.845753
_cell_length_c 25.456265
_cell_angle_alpha 90.000000
_cell_angle_beta 90.000000
_cell_angle_gamma 90.000000
_cell_volume 5395.527203
_symmetry_space_group_name_H-M "C M C M"
_symmetry_group_IT_number 63
_symmetry_cell_setting 'orthorhombic'
loop_
_space_group_symop_operation_xyz
x,y,z
-x,-y,1/2+z
x,-y,-z
-x,y,1/2-z
-x,-y,-z
x,y,1/2-z
-x,y,z
x,-y,1/2+z
1/2+x,1/2+y,z
1/2-x,1/2-y,1/2+z
1/2+x,1/2-y,-z
1/2-x,1/2+y,1/2-z
1/2-x,1/2-y,-z
1/2+x,1/2+y,1/2-z
1/2-x,1/2+y,z
1/2+x,1/2-y,1/2+z
loop_
_atom_site_type_symbol
_atom_site_label
_atom_site_fract_x
_atom_site_fract_y
_atom_site_fract_z
Si Si1 0.792929 0.690584 0.250000
Si Si2 0.286718 0.872387 0.651145
Si Si3 0.710250 0.801997 0.250000
Si Si4 0.201203 0.629135 0.656249
Si Si5 0.000000 0.944795 0.686722
Si Si6 0.795143 0.803576 0.065256
Si Si7 0.500000 0.441573 0.313255
Si Si8 0.712198 0.804052 0.944089
O O1 0.730408 0.664327 0.302493
O O2 0.764739 0.747075 0.250000
O O3 0.000000 0.682711 0.250000
O O4 0.500000 0.879996 0.652975
O O5 0.242540 0.845605 0.596777
O O6 0.172096 0.919492 0.662010
O O7 0.500000 0.801761 0.250000
O O8 0.765979 0.831313 0.301363
O O9 0.206808 0.656004 0.600530
O O10 0.330358 0.584434 0.662108
O O11 0.000000 0.615971 0.668815
O O12 0.000000 0.936986 0.750000
O O13 0.000000 0.001644 0.677443
O O14 0.726481 0.749113 0.074061
O O15 0.000000 0.804202 0.079695
O O16 0.776938 0.812458 0.003099
O O17 0.500000 0.433809 0.250000
O O18 0.500000 0.801323 0.946290
#
# Coordination Sequence:
#
# PCOD9470872 Si02
#       8
#     8  16   8  16   8  16   8  16
#     4  10  20  32  52  81 117 154 182 224 283 344
#     4  10  21  38  56  82 118 150 189 237 290 343
#     4  10  22  32  50  83 113 150 188 222 279 348
#     4  11  22  38  57  83 117 150 191 240 293 345
#     4  11  24  40  63  87 111 151 200 247 299 346
#     4  10  19  33  55  84 120 160 197 233 276 342
#     4  11  24  42  63  85 113 151 198 249 301 350
#     4   9  19  34  53  83 121 161 196 229 281 342
#
# _framework density 17.792514000000001
#
# number of rings (size 3 to 8) (size 9 to 14) (size 15 to 20)
#    0.000    1.833    2.500    1.500    3.500    2.667 
#    0.000    1.667    0.000    2.000    0.000    3.500 
#    0.000    0.000    0.000    0.000    0.000    0.000 
#
# Total GULP energy -267924.948257 kJ/mol
# GULP energy per Si atom -5581.769755 kJ/mol
# Density = 1.775202 g / cm^3
# Si number density = 17.792514 Si / 1000 Ang^3
#
#
#
# Elastic Constant Matrix: (Units=GPa)
#
#
# Indices 1 2 3 4 5 6 
#
# 1 79.2839 49.5108 27.6280 0.0000 0.0000 0.0000
# 2 49.5108 134.8990 58.0539 0.0000 0.0000 0.0000
# 3 27.6280 58.0539 74.2270 0.0000 0.0000 0.0000
# 4 0.0000 0.0000 0.0000 24.8558 0.0000 0.0000
# 5 0.0000 0.0000 0.0000 0.0000 0.8101 0.0000
# 6 0.0000 0.0000 0.0000 0.0000 0.0000 19.6780
#
#
#
# Elastic Compliance Matrix: (Units=1/GPa)
#
#
# Indices 1 2 3 4 5 6 
#
# 1 0.016583 -0.005170 -0.002129 0.000000 0.000000 0.000000
# 2 -0.005170 0.012786 -0.008076 0.000000 0.000000 0.000000
# 3 -0.002129 -0.008076 0.020581 0.000000 0.000000 0.000000
# 4 0.000000 0.000000 0.000000 0.040232 0.000000 0.000000
# 5 0.000000 0.000000 0.000000 0.000000 1.234360 0.000000
# 6 0.000000 0.000000 0.000000 0.000000 0.000000 0.050818
#
#
# Mechanical properties :
#
#
# Convention : Reuss Voigt Hill
#
# Bulk Modulus (GPa) = 52.08173 62.08836 57.08505
# Shear Modulus (GPa) = 3.53980 19.28325 11.41152
#
# Velocity S-wave (km/s) = 1.41202 3.29566 2.53527
# Velocity P-wave (km/s) = 5.65629 7.03231 6.38150
#
# Compressibility (1/GPa) = 0.01920059
#
# Stress axis : x y z
#
# Youngs Moduli (GPa) = 60.30104 78.21099 48.58962
#
# Poissons Ratio (x) = 0.40438 0.10343
# Poissons Ratio (y) = 0.31178 0.39239
# Poissons Ratio (z) = 0.12836 0.63160
#
# Static dielectric constant tensor:
#      x y z
#    x 1.680230 0.000000 0.000000 
#    y 0.000000 1.580140 0.000000 
#    z 0.000000 0.000000 1.611650 
# 
# From -- ./inp_files/60121.got.cif
#   From: 2010.05.17/outbox.cif.g08.bks.cpg/sg63_31_cif.got.tgz:60121.got - 2010.06.03 15:47:04.
