data_PCOD9470570
_publ_section_title
;
Structure prediction by ZEFSAII (Michael W. Deem and Ramdas Pophale) SiO2 
 PCOD9470570
Probable space group: C M C M
;
_chemical_formula_sum "Si O2"
_cell_formula_units_Z 96
_cell_length_a 14.269716
_cell_length_b 22.575414
_cell_length_c 14.847735
_cell_angle_alpha 90.000000
_cell_angle_beta 90.000000
_cell_angle_gamma 90.000000
_cell_volume 4783.119826
_symmetry_space_group_name_H-M "C M C M"
_symmetry_group_IT_number 63
_symmetry_cell_setting 'orthorhombic'
loop_
_space_group_symop_operation_xyz
x,y,z
-x,-y,1/2+z
x,-y,-z
-x,y,1/2-z
-x,-y,-z
x,y,1/2-z
-x,y,z
x,-y,1/2+z
1/2+x,1/2+y,z
1/2-x,1/2-y,1/2+z
1/2+x,1/2-y,-z
1/2-x,1/2+y,1/2-z
1/2-x,1/2-y,-z
1/2+x,1/2+y,1/2-z
1/2-x,1/2+y,z
1/2+x,1/2-y,1/2+z
loop_
_atom_site_type_symbol
_atom_site_label
_atom_site_fract_x
_atom_site_fract_y
_atom_site_fract_z
Si Si1 0.700433 0.521639 0.602783
Si Si2 0.389377 0.249799 0.352517
Si Si3 0.887963 0.100679 0.150170
Si Si4 0.897697 0.483060 0.648451
Si Si5 0.105406 0.634274 0.468930
Si Si6 0.805076 0.855990 0.461956
O O1 0.707911 0.500000 0.500000
O O2 0.642510 0.468595 0.647534
O O3 0.805853 0.522442 0.640212
O O4 0.660133 0.587629 0.597037
O O5 0.354603 0.253603 0.250000
O O6 0.500000 0.264084 0.352418
O O7 0.381212 0.183834 0.391915
O O8 0.339578 0.295582 0.418940
O O9 0.861458 0.123684 0.250000
O O10 0.000000 0.104738 0.140235
O O11 0.840225 0.132820 0.064749
O O12 0.897771 0.458126 0.750000
O O13 0.888859 0.429870 0.577792
O O14 0.000000 0.511932 0.634132
O O15 0.192424 0.641530 0.534962
O O16 0.000000 0.641867 0.505858
#
# Coordination Sequence:
#
# PCOD9470570 Si02
#       6
#    16  16  16  16  16  16
#     4  10  20  33  50  78 109 147 184 224 280 340
#     4  10  22  39  59  85 115 151 198 246 290 341
#     4  10  21  36  55  81 114 152 193 237 287 344
#     4  10  19  32  54  82 110 142 182 230 281 337
#     4  10  20  36  59  84 113 148 191 240 292 340
#     4  11  22  37  58  86 114 154 189 241 292 347
#
# _framework density 20.070584
#
# number of rings (size 3 to 8) (size 9 to 14) (size 15 to 20)
#    0.000    1.833    3.333    2.000    0.000    8.667 
#    0.000    1.667    0.000    0.500    0.000    0.000 
#    0.000    0.000    0.000    0.000    0.000    0.000 
#
# Total GULP energy -267864.092897 kJ/mol
# GULP energy per Si atom -5580.501935 kJ/mol
# Density = 2.002490 g / cm^3
# Si number density = 20.070584 Si / 1000 Ang^3
#
#
#
# Elastic Constant Matrix: (Units=GPa)
#
#
# Indices 1 2 3 4 5 6 
#
# 1 66.1288 16.4884 17.8407 0.0000 0.0000 0.0000
# 2 16.4884 47.1860 26.3674 0.0000 0.0000 0.0000
# 3 17.8407 26.3674 58.9793 0.0000 0.0000 0.0000
# 4 0.0000 0.0000 0.0000 17.3416 0.0000 0.0000
# 5 0.0000 0.0000 0.0000 0.0000 23.5208 0.0000
# 6 0.0000 0.0000 0.0000 0.0000 0.0000 9.6922
#
#
#
# Elastic Compliance Matrix: (Units=1/GPa)
#
#
# Indices 1 2 3 4 5 6 
#
# 1 0.017040 -0.004098 -0.003323 0.000000 0.000000 0.000000
# 2 -0.004098 0.029235 -0.011831 0.000000 0.000000 0.000000
# 3 -0.003323 -0.011831 0.023249 0.000000 0.000000 0.000000
# 4 0.000000 0.000000 0.000000 0.057665 0.000000 0.000000
# 5 0.000000 0.000000 0.000000 0.000000 0.042516 0.000000
# 6 0.000000 0.000000 0.000000 0.000000 0.000000 0.103176
#
#
# Mechanical properties :
#
#
# Convention : Reuss Voigt Hill
#
# Bulk Modulus (GPa) = 32.23410 32.63191 32.43301
# Shear Modulus (GPa) = 15.54130 17.55075 16.54602
#
# Velocity S-wave (km/s) = 2.78570 2.96032 2.87434
# Velocity P-wave (km/s) = 5.14219 5.28947 5.21635
#
# Compressibility (1/GPa) = 0.03102304
#
# Stress axis : x y z
#
# Youngs Moduli (GPa) = 58.68507 34.20500 43.01241
#
# Poissons Ratio (x) = 0.14017 0.14291
# Poissons Ratio (y) = 0.24048 0.50886
# Poissons Ratio (z) = 0.19498 0.40466
#
# Static dielectric constant tensor:
#      x y z
#    x 1.728260 0.000000 0.000000 
#    y 0.000000 1.701750 0.000000 
#    z 0.000000 0.000000 1.726250 
# 
# From -- ./inp_files/31860.got.cif
#   From: 2010.05.17/outbox.cif.g08.bks.cpg/sg63_16_cif.got.tgz:31860.got - 2010.06.03 15:47:04.
