data_PCOD9470302
_publ_section_title
;
Structure prediction by ZEFSAII (Michael W. Deem and Ramdas Pophale) SiO2 
 PCOD9470302
Probable space group: C M C M
;
_chemical_formula_sum "Si O2"
_cell_formula_units_Z 96
_cell_length_a 23.384823
_cell_length_b 26.954768
_cell_length_c 8.103720
_cell_angle_alpha 90.000000
_cell_angle_beta 90.000000
_cell_angle_gamma 90.000000
_cell_volume 5108.037914
_symmetry_space_group_name_H-M "C M C M"
_symmetry_group_IT_number 63
_symmetry_cell_setting 'orthorhombic'
loop_
_space_group_symop_operation_xyz
x,y,z
-x,-y,1/2+z
x,-y,-z
-x,y,1/2-z
-x,-y,-z
x,y,1/2-z
-x,y,z
x,-y,1/2+z
1/2+x,1/2+y,z
1/2-x,1/2-y,1/2+z
1/2+x,1/2-y,-z
1/2-x,1/2+y,1/2-z
1/2-x,1/2-y,-z
1/2+x,1/2+y,1/2-z
1/2-x,1/2+y,z
1/2+x,1/2-y,1/2+z
loop_
_atom_site_type_symbol
_atom_site_label
_atom_site_fract_x
_atom_site_fract_y
_atom_site_fract_z
Si Si1 0.567183 0.751735 0.549472
Si Si2 0.873060 0.847701 0.063433
Si Si3 0.319985 0.444778 0.554784
Si Si4 0.239189 0.195131 0.061563
Si Si5 0.366041 0.151795 0.440318
Si Si6 0.311528 0.055988 0.450336
O O1 0.576710 0.751136 0.750000
O O2 0.500000 0.754712 0.518186
O O3 0.591982 0.698836 0.487823
O O4 0.598617 0.801802 0.486839
O O5 0.893618 0.853562 0.250000
O O6 0.865703 0.902485 0.989947
O O7 0.807889 0.828632 0.054301
O O8 0.336345 0.500000 0.500000
O O9 0.314543 0.444302 0.750000
O O10 0.254561 0.435135 0.491043
O O11 0.217117 0.193548 0.250000
O O12 0.300230 0.169196 0.062637
O O13 0.250000 0.250000 0.000000
O O14 0.386584 0.146439 0.250000
O O15 0.357375 0.096707 0.513114
O O16 0.311160 0.059872 0.250000
O O17 0.325831 0.000000 0.500000
#
# Coordination Sequence:
#
# PCOD9470302 Si02
#       6
#    16  16  16  16  16  16
#     4   9  18  32  51  74  98 129 172 217 255 297
#     4  11  20  31  50  76 104 134 168 208 256 310
#     4  10  19  32  49  73 106 139 168 202 247 303
#     4  11  19  30  46  72 104 133 165 204 254 311
#     4   9  16  29  47  69  99 131 164 204 246 295
#     4   9  17  29  45  68 100 133 163 196 239 294
#
# _framework density 18.79391
#
# number of rings (size 3 to 8) (size 9 to 14) (size 15 to 20)
#    0.000    2.167    3.333    1.500    0.000    0.667 
#    0.000    0.000    0.000    3.000    0.000    0.000 
#    0.000    0.000    0.000    0.000    0.000    0.000 
#
# Total GULP energy -267214.537062 kJ/mol
# GULP energy per Si atom -5566.969522 kJ/mol
# Density = 1.875113 g / cm^3
# Si number density = 18.793910 Si / 1000 Ang^3
#
#
#
# Elastic Constant Matrix: (Units=GPa)
#
#
# Indices 1 2 3 4 5 6 
#
# 1 53.8732 49.4239 2.3371 0.0000 0.0000 0.0000
# 2 49.4239 188.5770 12.3626 0.0000 0.0000 0.0000
# 3 2.3371 12.3626 18.4870 0.0000 0.0000 0.0000
# 4 0.0000 0.0000 0.0000 17.8796 0.0000 0.0000
# 5 0.0000 0.0000 0.0000 0.0000 9.3403 0.0000
# 6 0.0000 0.0000 0.0000 0.0000 0.0000 21.9184
#
#
#
# Elastic Compliance Matrix: (Units=1/GPa)
#
#
# Indices 1 2 3 4 5 6 
#
# 1 0.024466 -0.006494 0.001250 0.000000 0.000000 0.000000
# 2 -0.006494 0.007270 -0.004040 0.000000 0.000000 0.000000
# 3 0.001250 -0.004040 0.056636 0.000000 0.000000 0.000000
# 4 0.000000 0.000000 0.000000 0.055930 0.000000 0.000000
# 5 0.000000 0.000000 0.000000 0.000000 0.107063 0.000000
# 6 0.000000 0.000000 0.000000 0.000000 0.000000 0.045624
#
#
# Mechanical properties :
#
#
# Convention : Reuss Voigt Hill
#
# Bulk Modulus (GPa) = 14.32627 43.24271 28.78449
# Shear Modulus (GPa) = 14.75689 22.94857 18.85273
#
# Velocity S-wave (km/s) = 2.80517 3.49816 3.17066
# Velocity P-wave (km/s) = 4.25809 6.27495 5.36220
#
# Compressibility (1/GPa) = 0.06980186
#
# Stress axis : x y z
#
# Youngs Moduli (GPa) = 40.87369 137.55568 17.65663
#
# Poissons Ratio (x) = 0.89330 -0.02207
# Poissons Ratio (y) = 0.26544 0.07134
# Poissons Ratio (z) = -0.05108 0.55579
#
# Static dielectric constant tensor:
#      x y z
#    x 1.616680 0.000000 0.000000 
#    y 0.000000 1.708610 0.000000 
#    z 0.000000 0.000000 1.665180 
# 
# From -- ./inp_files/8563.got.cif
#   From: 2010.05.17/outbox.cif.g08.bks.cpg/sg63_5_cif.got.tgz:8563.got - 2010.06.03 15:47:04.
