data_PCOD9470582
_publ_section_title
;
Structure prediction by ZEFSAII (Michael W. Deem and Ramdas Pophale) SiO2 
 PCOD9470582
Probable space group: C M C M
;
_chemical_formula_sum "Si O2"
_cell_formula_units_Z 116
_cell_length_a 9.559326
_cell_length_b 22.901530
_cell_length_c 25.912788
_cell_angle_alpha 90.000000
_cell_angle_beta 90.000000
_cell_angle_gamma 90.000000
_cell_volume 5672.910241
_symmetry_space_group_name_H-M "C M C M"
_symmetry_group_IT_number 63
_symmetry_cell_setting 'orthorhombic'
loop_
_space_group_symop_operation_xyz
x,y,z
-x,-y,1/2+z
x,-y,-z
-x,y,1/2-z
-x,-y,-z
x,y,1/2-z
-x,y,z
x,-y,1/2+z
1/2+x,1/2+y,z
1/2-x,1/2-y,1/2+z
1/2+x,1/2-y,-z
1/2-x,1/2+y,1/2-z
1/2-x,1/2-y,-z
1/2+x,1/2+y,1/2-z
1/2-x,1/2+y,z
1/2+x,1/2-y,1/2+z
loop_
_atom_site_type_symbol
_atom_site_label
_atom_site_fract_x
_atom_site_fract_y
_atom_site_fract_z
Si Si1 0.166428 0.646758 0.456717
Si Si2 0.163609 0.425374 0.649490
Si Si3 0.660400 0.748313 0.407584
Si Si4 0.844406 0.167582 0.653478
Si Si5 0.348042 0.668781 0.306197
Si Si6 0.838352 0.937290 0.024977
Si Si7 0.160928 0.959050 0.352874
Si Si8 0.500000 0.712531 0.750000
O O1 0.187973 0.603554 0.407207
O O2 0.248355 0.706975 0.444989
O O3 0.236365 0.612393 0.503801
O O4 0.000000 0.656217 0.462139
O O5 0.225199 0.377221 0.687719
O O6 0.243154 0.485776 0.657308
O O7 0.000000 0.433375 0.655974
O O8 0.500000 0.757496 0.425112
O O9 0.741994 0.805611 0.388779
O O10 0.655573 0.712243 0.353852
O O11 0.800422 0.103136 0.672191
O O12 0.000000 0.159762 0.628877
O O13 0.880038 0.206872 0.703502
O O14 0.341999 0.696871 0.250000
O O15 0.500000 0.637883 0.310010
O O16 0.830968 0.946142 0.085986
O O17 0.000000 0.924036 0.010044
O O18 0.801952 0.000000 0.000000
O O19 0.000000 0.972621 0.339200
#
# Coordination Sequence:
#
# PCOD9470582 Si02
#       8
#    16  16  16  16  16  16  16   4
#     4  10  20  34  53  82 116 149 183 225 285 338
#     4  10  20  33  50  77 110 142 176 225 279 327
#     4  10  20  35  58  83 112 141 180 236 282 331
#     4   9  20  38  58  81 106 143 186 220 276 327
#     4   9  19  34  52  76 103 137 176 218 275 339
#     4  10  19  32  55  82 110 145 192 235 275 324
#     4  10  20  36  56  78 110 147 185 230 270 330
#     4   8  20  40  62  80 106 144 192 228 264 334
#
# _framework density 20.448058
#
# number of rings (size 3 to 8) (size 9 to 14) (size 15 to 20)
#    0.414    1.931    1.379    1.241    0.966    3.310 
#    1.241    0.690    0.000    0.000    0.000    0.000 
#    0.000    0.000    0.000    0.000    0.000    0.000 
#
# Total GULP energy -322913.226950 kJ/mol
# GULP energy per Si atom -5567.469430 kJ/mol
# Density = 2.040152 g / cm^3
# Si number density = 20.448058 Si / 1000 Ang^3
#
#
#
# Elastic Constant Matrix: (Units=GPa)
#
#
# Indices 1 2 3 4 5 6 
#
# 1 82.0049 42.8039 -6.8970 0.0000 0.0000 0.0000
# 2 42.8039 57.9657 -9.4061 0.0000 0.0000 0.0000
# 3 -6.8970 -9.4061 27.9177 0.0000 0.0000 0.0000
# 4 0.0000 0.0000 0.0000 15.4001 0.0000 0.0000
# 5 0.0000 0.0000 0.0000 0.0000 19.1764 0.0000
# 6 0.0000 0.0000 0.0000 0.0000 0.0000 27.6582
#
#
#
# Elastic Compliance Matrix: (Units=1/GPa)
#
#
# Indices 1 2 3 4 5 6 
#
# 1 0.019842 -0.014658 -0.000037 0.000000 0.000000 0.000000
# 2 -0.014658 0.029078 0.006176 0.000000 0.000000 0.000000
# 3 -0.000037 0.006176 0.037891 0.000000 0.000000 0.000000
# 4 0.000000 0.000000 0.000000 0.064934 0.000000 0.000000
# 5 0.000000 0.000000 0.000000 0.000000 0.052148 0.000000
# 6 0.000000 0.000000 0.000000 0.000000 0.000000 0.036156
#
#
# Mechanical properties :
#
#
# Convention : Reuss Voigt Hill
#
# Bulk Modulus (GPa) = 14.33218 24.54331 19.43775
# Shear Modulus (GPa) = 17.83513 21.87278 19.85396
#
# Velocity S-wave (km/s) = 2.95653 3.27414 3.11938
# Velocity P-wave (km/s) = 4.32193 5.13051 4.74348
#
# Compressibility (1/GPa) = 0.06977305
#
# Stress axis : x y z
#
# Youngs Moduli (GPa) = 50.39694 34.39030 26.39133
#
# Poissons Ratio (x) = 0.50410 0.00097
# Poissons Ratio (y) = 0.73874 -0.16299
# Poissons Ratio (z) = 0.00185 -0.21239
#
# Static dielectric constant tensor:
#      x y z
#    x 1.733230 0.000000 0.000000 
#    y 0.000000 1.747160 0.000000 
#    z 0.000000 0.000000 1.733970 
# 
# From -- ./inp_files/67449.got.cif
#   From: 2010.05.17/outbox.cif.g08.bks.cpg/sg63_34_cif.got.tgz:67449.got - 2010.06.03 15:47:04.
