data_PCOD9470437
_publ_section_title
;
Structure prediction by ZEFSAII (Michael W. Deem and Ramdas Pophale) SiO2 
 PCOD9470437
Probable space group: C M C M
;
_chemical_formula_sum "Si O2"
_cell_formula_units_Z 80
_cell_length_a 8.104035
_cell_length_b 29.787079
_cell_length_c 15.141147
_cell_angle_alpha 90.000000
_cell_angle_beta 90.000000
_cell_angle_gamma 90.000000
_cell_volume 3655.005216
_symmetry_space_group_name_H-M "C M C M"
_symmetry_group_IT_number 63
_symmetry_cell_setting 'orthorhombic'
loop_
_space_group_symop_operation_xyz
x,y,z
-x,-y,1/2+z
x,-y,-z
-x,y,1/2-z
-x,-y,-z
x,y,1/2-z
-x,y,z
x,-y,1/2+z
1/2+x,1/2+y,z
1/2-x,1/2-y,1/2+z
1/2+x,1/2-y,-z
1/2-x,1/2+y,1/2-z
1/2-x,1/2-y,-z
1/2+x,1/2+y,1/2-z
1/2-x,1/2+y,z
1/2+x,1/2-y,1/2+z
loop_
_atom_site_type_symbol
_atom_site_label
_atom_site_fract_x
_atom_site_fract_y
_atom_site_fract_z
Si Si1 0.175942 0.611583 0.851514
Si Si2 0.802127 0.301544 0.580573
Si Si3 0.500000 0.459182 0.858076
Si Si4 0.813129 0.597995 0.356001
Si Si5 0.500000 0.436814 0.141382
Si Si6 0.689081 0.294004 0.116851
O O1 0.168184 0.596008 0.750000
O O2 0.336447 0.588468 0.891369
O O3 0.203357 0.664949 0.849604
O O4 0.000000 0.601686 0.894882
O O5 0.774993 0.350059 0.622112
O O6 0.704464 0.297934 0.489214
O O7 0.760904 0.257168 0.637319
O O8 0.000000 0.297844 0.562290
O O9 0.500000 0.457993 0.750000
O O10 0.334251 0.433785 0.888209
O O11 0.500000 0.511251 0.883261
O O12 0.816919 0.593791 0.250000
O O13 0.000000 0.587816 0.387738
O O14 0.500000 0.433721 0.250000
O O15 0.500000 0.301107 0.144705
#
# Coordination Sequence:
#
# PCOD9470437 Si02
#       6
#    16  16   8  16   8  16
#     4  10  20  34  53  77 105 136 171 214 261 307
#     4   9  19  33  50  74 105 141 176 211 255 308
#     4   9  18  32  53  79 105 135 171 215 262 309
#     4   9  18  33  52  76 105 135 170 212 258 306
#     4   9  18  34  53  77 107 135 171 215 262 313
#     4  10  19  32  52  75 104 141 176 214 256 305
#
# _framework density 21.887794
#
# number of rings (size 3 to 8) (size 9 to 14) (size 15 to 20)
#    0.000    2.600    1.000    0.600    1.400    2.400 
#    0.000    6.000    0.000    2.400    0.000    4.200 
#    0.000    0.000    0.000    0.000    0.000    0.000 
#
# Total GULP energy -223251.924726 kJ/mol
# GULP energy per Si atom -5581.298118 kJ/mol
# Density = 2.183798 g / cm^3
# Si number density = 21.887794 Si / 1000 Ang^3
#
#
#
# Elastic Constant Matrix: (Units=GPa)
#
#
# Indices 1 2 3 4 5 6 
#
# 1 166.1793 102.3369 12.5104 0.0000 0.0000 0.0000
# 2 102.3369 143.7116 -2.0393 0.0000 0.0000 0.0000
# 3 12.5104 -2.0393 43.5049 0.0000 0.0000 0.0000
# 4 0.0000 0.0000 0.0000 32.9706 0.0000 0.0000
# 5 0.0000 0.0000 0.0000 0.0000 -2.7683 0.0000
# 6 0.0000 0.0000 0.0000 0.0000 0.0000 19.1073
#
#
#
# Elastic Compliance Matrix: (Units=1/GPa)
#
#
# Indices 1 2 3 4 5 6 
#
# 1 0.011259 -0.008069 -0.003616 0.000000 0.000000 0.000000
# 2 -0.008069 0.012745 0.002918 0.000000 0.000000 0.000000
# 3 -0.003616 0.002918 0.024162 0.000000 0.000000 0.000000
# 4 0.000000 0.000000 0.000000 0.030330 0.000000 0.000000
# 5 0.000000 0.000000 0.000000 0.000000 -0.361229 0.000000
# 6 0.000000 0.000000 0.000000 0.000000 0.000000 0.052336
#
#
# Mechanical properties :
#
#
# Convention : Reuss Voigt Hill
#
# Bulk Modulus (GPa) = 32.64439 64.33464 48.48952
# Shear Modulus (GPa) = -24.67276 25.90110 0.61417
#
# Velocity S-wave (km/s) = -3.36108 3.44373 0.53029
# Velocity P-wave (km/s) = 0.34010 6.72823 4.75150
#
# Compressibility (1/GPa) = 0.03063313
#
# Stress axis : x y z
#
# Youngs Moduli (GPa) = 88.82099 78.45969 41.38651
#
# Poissons Ratio (x) = 0.63306 0.14964
# Poissons Ratio (y) = 0.71666 -0.12075
# Poissons Ratio (z) = 0.32116 -0.22892
#
# Static dielectric constant tensor:
#      x y z
#    x 1.819650 0.000000 0.000000 
#    y 0.000000 1.771710 0.000000 
#    z 0.000000 0.000000 1.830140 
# 
# From -- ./inp_files/50932.got.cif
#   From: 2010.05.17/outbox.cif.g08.bks.cpg/sg63_26_cif.got.tgz:50932.got - 2010.06.03 15:47:04.
