data_PCOD9470037
_publ_section_title
;
Structure prediction by ZEFSAII (Michael W. Deem and Ramdas Pophale) SiO2 
 PCOD9470037
Probable space group: C M C M
;
_chemical_formula_sum "Si O2"
_cell_formula_units_Z 64
_cell_length_a 13.299701
_cell_length_b 23.646149
_cell_length_c 10.270530
_cell_angle_alpha 90.000000
_cell_angle_beta 90.000000
_cell_angle_gamma 90.000000
_cell_volume 3229.945205
_symmetry_space_group_name_H-M "C M C M"
_symmetry_group_IT_number 63
_symmetry_cell_setting 'orthorhombic'
loop_
_space_group_symop_operation_xyz
x,y,z
-x,-y,1/2+z
x,-y,-z
-x,y,1/2-z
-x,-y,-z
x,y,1/2-z
-x,y,z
x,-y,1/2+z
1/2+x,1/2+y,z
1/2-x,1/2-y,1/2+z
1/2+x,1/2-y,-z
1/2-x,1/2+y,1/2-z
1/2-x,1/2-y,-z
1/2+x,1/2+y,1/2-z
1/2-x,1/2+y,z
1/2+x,1/2-y,1/2+z
loop_
_atom_site_type_symbol
_atom_site_label
_atom_site_fract_x
_atom_site_fract_y
_atom_site_fract_z
Si Si1 0.385032 0.922847 0.750000
Si Si2 0.246410 0.567091 0.502610
Si Si3 0.109955 0.731346 0.600286
Si Si4 0.174195 0.173942 0.596670
Si Si5 0.109690 0.558093 0.750000
O O1 0.500000 0.898665 0.750000
O O2 0.315717 0.912797 0.623974
O O3 0.398912 0.990447 0.750000
O O4 0.273820 0.500000 0.500000
O O5 0.334006 0.611191 0.536736
O O6 0.170602 0.572542 0.622854
O O7 0.114942 0.753206 0.750000
O O8 0.118845 0.780708 0.493664
O O9 0.207806 0.692266 0.585885
O O10 0.000000 0.703695 0.584431
O O11 0.147147 0.175675 0.750000
O O12 0.000000 0.583897 0.750000
#
# Coordination Sequence:
#
# PCOD9470037 Si02
#       5
#     8  16  16  16   8
#     4   9  18  28  40  65 101 141 179 213 253 306
#     4  10  19  31  48  74 107 142 178 217 265 319
#     4   9  20  38  59  81 106 140 180 226 276 319
#     4  10  20  36  57  82 110 142 182 222 265 323
#     4   9  16  28  44  63  97 141 179 213 253 310
#
# _framework density 19.814577
#
# number of rings (size 3 to 8) (size 9 to 14) (size 15 to 20)
#    0.000    2.500    1.250    0.750    1.750    5.500 
#    0.000    0.000    0.000    0.750    0.000    0.000 
#    0.000    0.000    0.000    0.000    0.000    0.000 
#
# Total GULP energy -178281.839967 kJ/mol
# GULP energy per Si atom -5571.307499 kJ/mol
# Density = 1.976948 g / cm^3
# Si number density = 19.814577 Si / 1000 Ang^3
#
#
#
# Elastic Constant Matrix: (Units=GPa)
#
#
# Indices 1 2 3 4 5 6 
#
# 1 36.6605 2.6477 4.8181 0.0000 0.0000 0.0000
# 2 2.6477 83.5451 30.6570 0.0000 0.0000 0.0000
# 3 4.8181 30.6570 131.1419 0.0000 0.0000 0.0000
# 4 0.0000 0.0000 0.0000 30.3094 0.0000 0.0000
# 5 0.0000 0.0000 0.0000 0.0000 -99.0534 0.0000
# 6 0.0000 0.0000 0.0000 0.0000 0.0000 8.4035
#
#
#
# Elastic Compliance Matrix: (Units=1/GPa)
#
#
# Indices 1 2 3 4 5 6 
#
# 1 0.027432 -0.000546 -0.000880 0.000000 0.000000 0.000000
# 2 -0.000546 0.013104 -0.003043 0.000000 0.000000 0.000000
# 3 -0.000880 -0.003043 0.008369 0.000000 0.000000 0.000000
# 4 0.000000 0.000000 0.000000 0.032993 0.000000 0.000000
# 5 0.000000 0.000000 0.000000 0.000000 -0.010096 0.000000
# 6 0.000000 0.000000 0.000000 0.000000 0.000000 0.118998
#
#
# Mechanical properties :
#
#
# Convention : Reuss Voigt Hill
#
# Bulk Modulus (GPa) = 25.02148 36.39926 30.71037
# Shear Modulus (GPa) = 23.46734 2.14689 12.80711
#
# Velocity S-wave (km/s) = 3.44517 1.04204 2.54510
# Velocity P-wave (km/s) = 5.33674 4.45619 4.91622
#
# Compressibility (1/GPa) = 0.03996567
#
# Stress axis : x y z
#
# Youngs Moduli (GPa) = 36.45320 76.31498 119.48779
#
# Poissons Ratio (x) = 0.04170 0.10516
# Poissons Ratio (y) = 0.01992 0.36362
# Poissons Ratio (z) = 0.03208 0.23224
#
# Static dielectric constant tensor:
#      x y z
#    x 1.707200 0.000000 0.000000 
#    y 0.000000 1.723550 0.000000 
#    z 0.000000 0.000000 1.702680 
# 
# From -- ./inp_files/4510.got.cif
#   From: 2010.05.17/outbox.cif.g08.bks.cpg/sg63_3_cif.got.tgz:4510.got - 2010.06.03 15:47:04.
