data_PCOD9470294
_publ_section_title
;
Structure prediction by ZEFSAII (Michael W. Deem and Ramdas Pophale) SiO2 
 PCOD9470294
Probable space group: C M C M
;
_chemical_formula_sum "Si O2"
_cell_formula_units_Z 112
_cell_length_a 7.348488
_cell_length_b 23.181748
_cell_length_c 29.363605
_cell_angle_alpha 90.000000
_cell_angle_beta 90.000000
_cell_angle_gamma 90.000000
_cell_volume 5002.113514
_symmetry_space_group_name_H-M "C M C M"
_symmetry_group_IT_number 63
_symmetry_cell_setting 'orthorhombic'
loop_
_space_group_symop_operation_xyz
x,y,z
-x,-y,1/2+z
x,-y,-z
-x,y,1/2-z
-x,-y,-z
x,y,1/2-z
-x,y,z
x,-y,1/2+z
1/2+x,1/2+y,z
1/2-x,1/2-y,1/2+z
1/2+x,1/2-y,-z
1/2-x,1/2+y,1/2-z
1/2-x,1/2-y,-z
1/2+x,1/2+y,1/2-z
1/2-x,1/2+y,z
1/2+x,1/2-y,1/2+z
loop_
_atom_site_type_symbol
_atom_site_label
_atom_site_fract_x
_atom_site_fract_y
_atom_site_fract_z
Si Si1 0.217955 0.690637 0.471652
Si Si2 0.278500 0.877183 0.699057
Si Si3 0.218695 0.303603 0.200625
Si Si4 0.221972 0.558083 0.027849
Si Si5 0.719944 0.976437 0.628990
Si Si6 0.210833 0.285038 0.629493
Si Si7 0.221535 0.563022 0.799586
O O1 0.250000 0.750000 0.500000
O O2 0.279561 0.624589 0.484975
O O3 0.287378 0.704483 0.420440
O O4 0.000000 0.685769 0.470976
O O5 0.210173 0.879065 0.750000
O O6 0.500000 0.874759 0.701678
O O7 0.233706 0.931371 0.668254
O O8 0.210040 0.823763 0.669721
O O9 0.281087 0.277913 0.250000
O O10 0.282520 0.276697 0.153240
O O11 0.270951 0.370295 0.201143
O O12 0.000000 0.300497 0.200608
O O13 0.281386 0.545048 0.079832
O O14 0.000000 0.558791 0.025753
O O15 0.277485 0.500000 0.000000
O O16 0.500000 0.978728 0.624740
O O17 0.782666 0.035039 0.653025
O O18 0.000000 0.302437 0.624929
O O19 0.277974 0.537535 0.750000
O O20 0.000000 0.558881 0.799617
#
# Coordination Sequence:
#
# PCOD9470294 Si02
#       7
#    16  16  16  16  16  16  16
#     4  10  21  37  55  77 106 138 176 224 274 324
#     4   9  15  23  40  66  94 122 151 189 242 295
#     4   9  18  31  46  70 106 141 170 202 244 302
#     4   9  17  30  48  71 100 133 169 217 273 320
#     4   9  14  23  40  64  93 122 156 198 246 298
#     4  10  19  32  49  71  99 129 167 213 254 299
#     4   8  14  24  39  63  97 131 160 197 247 301
#
# _framework density 22.390533999999999
#
# number of rings (size 3 to 8) (size 9 to 14) (size 15 to 20)
#    0.000    2.857    1.429    1.714    0.000    4.286 
#    0.000    2.857    0.000    0.429    0.000    2.000 
#    0.000    2.286    0.000    0.000    0.000    0.000 
#
# Total GULP energy -311845.627969 kJ/mol
# GULP energy per Si atom -5568.671928 kJ/mol
# Density = 2.233957 g / cm^3
# Si number density = 22.390534 Si / 1000 Ang^3
#
#
#
# Elastic Constant Matrix: (Units=GPa)
#
#
# Indices 1 2 3 4 5 6 
#
# 1 81.6624 2.2227 5.7783 0.0000 0.0000 0.0000
# 2 2.2227 145.7085 92.2354 0.0000 0.0000 0.0000
# 3 5.7783 92.2354 165.6031 0.0000 0.0000 0.0000
# 4 0.0000 0.0000 0.0000 -3.1031 0.0000 0.0000
# 5 0.0000 0.0000 0.0000 0.0000 -6.1381 0.0000
# 6 0.0000 0.0000 0.0000 0.0000 0.0000 3.3426
#
#
#
# Elastic Compliance Matrix: (Units=1/GPa)
#
#
# Indices 1 2 3 4 5 6 
#
# 1 0.012277 0.000130 -0.000501 0.000000 0.000000 0.000000
# 2 0.000130 0.010602 -0.005909 0.000000 0.000000 0.000000
# 3 -0.000501 -0.005909 0.009347 0.000000 0.000000 0.000000
# 4 0.000000 0.000000 0.000000 -0.322261 0.000000 0.000000
# 5 0.000000 0.000000 0.000000 0.000000 -0.162917 0.000000
# 6 0.000000 0.000000 0.000000 0.000000 0.000000 0.299171
#
#
# Mechanical properties :
#
#
# Convention : Reuss Voigt Hill
#
# Bulk Modulus (GPa) = 50.84966 65.93857 58.39411
# Shear Modulus (GPa) = -37.12926 18.33612 -9.39657
#
# Velocity S-wave (km/s) = -4.07659 2.86479 -2.05080
# Velocity P-wave (km/s) = 0.77559 6.36050 4.53086
#
# Compressibility (1/GPa) = 0.01966581
#
# Stress axis : x y z
#
# Youngs Moduli (GPa) = 81.45032 94.32425 106.98278
#
# Poissons Ratio (x) = -0.01222 0.05355
# Poissons Ratio (y) = -0.01055 0.63220
# Poissons Ratio (z) = 0.04077 0.55739
#
# Static dielectric constant tensor:
#      x y z
#    x 1.955600 0.000000 0.000000 
#    y 0.000000 2.300600 0.000000 
#    z 0.000000 0.000000 1.795290 
# 
# From -- ./inp_files/61925.got.cif
#   From: 2010.05.17/outbox.cif.g08.bks.cpg/sg63_31_cif.got.tgz:61925.got - 2010.06.03 15:47:04.
