data_PCOD9470934
_publ_section_title
;
Structure prediction by ZEFSAII (Michael W. Deem and Ramdas Pophale) SiO2 
 PCOD9470934
Probable space group: C M C M
;
_chemical_formula_sum "Si O2"
_cell_formula_units_Z 80
_cell_length_a 18.056615
_cell_length_b 15.689387
_cell_length_c 15.356666
_cell_angle_alpha 90.000000
_cell_angle_beta 90.000000
_cell_angle_gamma 90.000000
_cell_volume 4350.500796
_symmetry_space_group_name_H-M "C M C M"
_symmetry_group_IT_number 63
_symmetry_cell_setting 'orthorhombic'
loop_
_space_group_symop_operation_xyz
x,y,z
-x,-y,1/2+z
x,-y,-z
-x,y,1/2-z
-x,-y,-z
x,y,1/2-z
-x,y,z
x,-y,1/2+z
1/2+x,1/2+y,z
1/2-x,1/2-y,1/2+z
1/2+x,1/2-y,-z
1/2-x,1/2+y,1/2-z
1/2-x,1/2-y,-z
1/2+x,1/2+y,1/2-z
1/2-x,1/2+y,z
1/2+x,1/2-y,1/2+z
loop_
_atom_site_type_symbol
_atom_site_label
_atom_site_fract_x
_atom_site_fract_y
_atom_site_fract_z
Si Si1 0.820417 0.743295 0.845674
Si Si2 0.914091 0.715184 0.480686
Si Si3 0.262769 0.572698 0.609716
Si Si4 0.417769 0.374530 0.349904
Si Si5 0.282625 0.892701 0.913257
O O1 0.854529 0.753541 0.750000
O O2 0.773275 0.655775 0.847429
O O3 0.763674 0.820585 0.863858
O O4 0.877323 0.736991 0.926121
O O5 0.909503 0.797014 0.417345
O O6 0.863706 0.642546 0.436285
O O7 0.000000 0.691542 0.489866
O O8 0.348438 0.564211 0.635191
O O9 0.256488 0.592836 0.506940
O O10 0.220150 0.485388 0.629995
O O11 0.413859 0.343128 0.250000
O O12 0.500000 0.412400 0.362220
#
# Coordination Sequence:
#
# PCOD9470934 Si02
#       5
#    16  16  16  16  16
#     4  11  21  36  57  84 120 158 198 238 289 352
#     4  10  20  38  60  86 120 152 194 243 288 343
#     4  10  19  36  57  83 116 149 197 248 287 344
#     4  10  19  33  57  86 115 148 186 239 301 346
#     4  10  20  36  58  86 112 152 200 238 291 344
#
# _framework density 18.388687999999998
#
# number of rings (size 3 to 8) (size 9 to 14) (size 15 to 20)
#    0.000    1.800    4.000    1.800    0.000    2.000 
#    0.000   11.000    0.000    0.000    0.000    0.000 
#    0.000    0.000    0.000    0.000    0.000    0.000 
#
# Total GULP energy -223084.990809 kJ/mol
# GULP energy per Si atom -5577.124770 kJ/mol
# Density = 1.834683 g / cm^3
# Si number density = 18.388688 Si / 1000 Ang^3
#
#
#
# Elastic Constant Matrix: (Units=GPa)
#
#
# Indices 1 2 3 4 5 6 
#
# 1 115.0229 21.2240 17.3110 0.0000 0.0000 0.0000
# 2 21.2240 92.1995 13.1246 0.0000 0.0000 0.0000
# 3 17.3110 13.1246 64.7244 0.0000 0.0000 0.0000
# 4 0.0000 0.0000 0.0000 -5.3620 0.0000 0.0000
# 5 0.0000 0.0000 0.0000 0.0000 13.8616 0.0000
# 6 0.0000 0.0000 0.0000 0.0000 0.0000 22.4150
#
#
#
# Elastic Compliance Matrix: (Units=1/GPa)
#
#
# Indices 1 2 3 4 5 6 
#
# 1 0.009356 -0.001851 -0.002127 0.000000 0.000000 0.000000
# 2 -0.001851 0.011535 -0.001844 0.000000 0.000000 0.000000
# 3 -0.002127 -0.001844 0.016393 0.000000 0.000000 0.000000
# 4 0.000000 0.000000 0.000000 -0.186497 0.000000 0.000000
# 5 0.000000 0.000000 0.000000 0.000000 0.072142 0.000000
# 6 0.000000 0.000000 0.000000 0.000000 0.000000 0.044613
#
#
# Mechanical properties :
#
#
# Convention : Reuss Voigt Hill
#
# Bulk Modulus (GPa) = 39.00207 41.69623 40.34915
# Shear Modulus (GPa) = -407.51036 20.86873 -193.32082
#
# Velocity S-wave (km/s) = -14.90270 3.37243 -10.26443
# Velocity P-wave (km/s) = 16.57904 6.15537 10.88522
#
# Compressibility (1/GPa) = 0.02563966
#
# Stress axis : x y z
#
# Youngs Moduli (GPa) = 106.88853 86.69574 61.00208
#
# Poissons Ratio (x) = 0.16046 0.12975
# Poissons Ratio (y) = 0.19783 0.11248
# Poissons Ratio (z) = 0.22734 0.15986
#
# Static dielectric constant tensor:
#      x y z
#    x 1.624020 0.000000 0.000000 
#    y 0.000000 1.634860 0.000000 
#    z 0.000000 0.000000 1.687690 
# 
# From -- ./inp_files/33847.got.cif
#   From: 2010.05.17/outbox.cif.g08.bks.cpg/sg63_17_cif.got.tgz:33847.got - 2010.06.03 15:47:04.
