data_PCOD9470048
_publ_section_title
;
Structure prediction by ZEFSAII (Michael W. Deem and Ramdas Pophale) SiO2 
 PCOD9470048
Probable space group: C M C M
;
_chemical_formula_sum "Si O2"
_cell_formula_units_Z 96
_cell_length_a 14.042729
_cell_length_b 24.345078
_cell_length_c 17.170948
_cell_angle_alpha 90.000000
_cell_angle_beta 90.000000
_cell_angle_gamma 90.000000
_cell_volume 5870.254879
_symmetry_space_group_name_H-M "C M C M"
_symmetry_group_IT_number 63
_symmetry_cell_setting 'orthorhombic'
loop_
_space_group_symop_operation_xyz
x,y,z
-x,-y,1/2+z
x,-y,-z
-x,y,1/2-z
-x,-y,-z
x,y,1/2-z
-x,y,z
x,-y,1/2+z
1/2+x,1/2+y,z
1/2-x,1/2-y,1/2+z
1/2+x,1/2-y,-z
1/2-x,1/2+y,1/2-z
1/2-x,1/2-y,-z
1/2+x,1/2+y,1/2-z
1/2-x,1/2+y,z
1/2+x,1/2-y,1/2+z
loop_
_atom_site_type_symbol
_atom_site_label
_atom_site_fract_x
_atom_site_fract_y
_atom_site_fract_z
Si Si1 0.611141 0.177204 0.424464
Si Si2 0.886846 0.436495 0.657431
Si Si3 0.106433 0.107447 0.844565
Si Si4 0.796736 0.221781 0.840740
Si Si5 0.608389 0.836205 0.390212
Si Si6 0.297534 0.949052 0.155561
O O1 0.500000 0.187057 0.402087
O O2 0.639621 0.118667 0.387940
O O3 0.675218 0.225922 0.391218
O O4 0.615658 0.173726 0.517424
O O5 0.870211 0.428799 0.750000
O O6 0.832464 0.491135 0.630633
O O7 0.000000 0.445541 0.646794
O O8 0.105073 0.105943 0.750000
O O9 0.139921 0.169007 0.865266
O O10 0.190199 0.066323 0.869356
O O11 0.000000 0.095624 0.872633
O O12 0.816190 0.233321 0.750000
O O13 0.688177 0.201512 0.850155
O O14 0.500000 0.825552 0.365065
O O15 0.635821 0.899421 0.372987
O O16 0.301097 0.947907 0.250000
#
# Coordination Sequence:
#
# PCOD9470048 Si02
#       6
#    16  16  16  16  16  16
#     4  10  20  32  47  69  97 125 153 191 239 288
#     4   9  17  29  46  68  93 121 153 189 230 278
#     4   8  14  25  43  67  89 109 141 188 235 271
#     4  10  19  31  49  70  92 120 155 194 234 279
#     4  10  20  32  47  69  96 125 156 191 236 287
#     4   9  17  29  46  68  93 122 157 196 235 276
#
# _framework density 16.353634
#
# number of rings (size 3 to 8) (size 9 to 14) (size 15 to 20)
#    0.000    2.667    0.000    3.500    0.000    4.333 
#    0.000    2.500    0.000    1.000    0.000    7.000 
#    0.000    0.000    0.000    0.000    0.000    0.000 
#
# Total GULP energy -267579.251379 kJ/mol
# GULP energy per Si atom -5574.567737 kJ/mol
# Density = 1.631641 g / cm^3
# Si number density = 16.353634 Si / 1000 Ang^3
#
#
#
# Elastic Constant Matrix: (Units=GPa)
#
#
# Indices 1 2 3 4 5 6 
#
# 1 65.6677 22.7921 2.6467 0.0000 0.0000 0.0000
# 2 22.7921 79.7036 10.3908 0.0000 0.0000 0.0000
# 3 2.6467 10.3908 17.1969 0.0000 0.0000 0.0000
# 4 0.0000 0.0000 0.0000 30.0059 0.0000 0.0000
# 5 0.0000 0.0000 0.0000 0.0000 17.7027 0.0000
# 6 0.0000 0.0000 0.0000 0.0000 0.0000 17.8445
#
#
#
# Elastic Compliance Matrix: (Units=1/GPa)
#
#
# Indices 1 2 3 4 5 6 
#
# 1 0.016908 -0.004880 0.000346 0.000000 0.000000 0.000000
# 2 -0.004880 0.015028 -0.008329 0.000000 0.000000 0.000000
# 3 0.000346 -0.008329 0.063130 0.000000 0.000000 0.000000
# 4 0.000000 0.000000 0.000000 0.033327 0.000000 0.000000
# 5 0.000000 0.000000 0.000000 0.000000 0.056488 0.000000
# 6 0.000000 0.000000 0.000000 0.000000 0.000000 0.056040
#
#
# Mechanical properties :
#
#
# Convention : Reuss Voigt Hill
#
# Bulk Modulus (GPa) = 14.42175 26.02528 20.22351
# Shear Modulus (GPa) = 17.25570 21.55987 19.40778
#
# Velocity S-wave (km/s) = 3.25185 3.63485 3.44867
# Velocity P-wave (km/s) = 4.78928 5.79352 5.31517
#
# Compressibility (1/GPa) = 0.06933971
#
# Stress axis : x y z
#
# Youngs Moduli (GPa) = 59.14342 66.54292 15.84044
#
# Poissons Ratio (x) = 0.32474 -0.00549
# Poissons Ratio (y) = 0.28863 0.13194
# Poissons Ratio (z) = -0.02049 0.55425
#
# Static dielectric constant tensor:
#      x y z
#    x 1.561400 0.000000 0.000000 
#    y 0.000000 1.525270 0.000000 
#    z 0.000000 0.000000 1.539820 
# 
# From -- ./inp_files/53060.got.cif
#   From: 2010.05.17/outbox.cif.g08.bks.cpg/sg63_27_cif.got.tgz:53060.got - 2010.06.03 15:47:04.
