data_PCOD9470234
_publ_section_title
;
Structure prediction by ZEFSAII (Michael W. Deem and Ramdas Pophale) SiO2 
 PCOD9470234
Probable space group: C M C M
;
_chemical_formula_sum "Si O2"
_cell_formula_units_Z 80
_cell_length_a 20.582017
_cell_length_b 20.164689
_cell_length_c 11.077904
_cell_angle_alpha 90.000000
_cell_angle_beta 90.000000
_cell_angle_gamma 90.000000
_cell_volume 4597.662185
_symmetry_space_group_name_H-M "C M C M"
_symmetry_group_IT_number 63
_symmetry_cell_setting 'orthorhombic'
loop_
_space_group_symop_operation_xyz
x,y,z
-x,-y,1/2+z
x,-y,-z
-x,y,1/2-z
-x,-y,-z
x,y,1/2-z
-x,y,z
x,-y,1/2+z
1/2+x,1/2+y,z
1/2-x,1/2-y,1/2+z
1/2+x,1/2-y,-z
1/2-x,1/2+y,1/2-z
1/2-x,1/2-y,-z
1/2+x,1/2+y,1/2-z
1/2-x,1/2+y,z
1/2+x,1/2-y,1/2+z
loop_
_atom_site_type_symbol
_atom_site_label
_atom_site_fract_x
_atom_site_fract_y
_atom_site_fract_z
Si Si1 0.422180 0.195148 0.250000
Si Si2 0.334378 0.820500 0.528555
Si Si3 0.685610 0.310389 0.612304
Si Si4 0.422985 0.648150 0.750000
Si Si5 0.798411 0.449092 0.390564
Si Si6 0.148468 0.929175 0.459554
O O1 0.500000 0.187292 0.250000
O O2 0.388015 0.166499 0.369657
O O3 0.405385 0.273977 0.250000
O O4 0.343241 0.748837 0.467701
O O5 0.263112 0.815508 0.589872
O O6 0.329222 0.878613 0.429374
O O7 0.673160 0.295216 0.750000
O O8 0.658031 0.381057 0.573064
O O9 0.500000 0.644406 0.750000
O O10 0.394107 0.610600 0.864778
O O11 0.816114 0.500000 0.500000
O O12 0.813365 0.466960 0.250000
O O13 0.720142 0.440995 0.402128
O O14 0.122022 0.000000 0.500000
#
# Coordination Sequence:
#
# PCOD9470234 Si02
#       6
#     8  16  16   8  16  16
#     4  11  22  38  59  82 112 151 196 235 279 339
#     4  10  20  33  55  83 113 142 186 228 283 344
#     4  10  19  31  53  82 111 140 177 234 291 338
#     4  11  22  38  55  72 108 153 202 235 265 325
#     4  10  21  34  57  90 121 146 175 234 298 349
#     4  10  21  33  53  78 113 147 188 232 283 333
#
# _framework density 17.400145999999999
#
# number of rings (size 3 to 8) (size 9 to 14) (size 15 to 20)
#    0.000    1.800    4.000    0.600    2.800    2.800 
#    0.000    0.000    0.000    4.200    0.000    0.000 
#    0.000    0.000    0.000    0.000    0.000    0.000 
#
# Total GULP energy -223075.682435 kJ/mol
# GULP energy per Si atom -5576.892061 kJ/mol
# Density = 1.736054 g / cm^3
# Si number density = 17.400146 Si / 1000 Ang^3
#
#
#
# Elastic Constant Matrix: (Units=GPa)
#
#
# Indices 1 2 3 4 5 6 
#
# 1 25.3967 5.6851 21.3216 0.0000 0.0000 0.0000
# 2 5.6851 67.5953 16.7078 0.0000 0.0000 0.0000
# 3 21.3216 16.7078 114.3844 0.0000 0.0000 0.0000
# 4 0.0000 0.0000 0.0000 23.9949 0.0000 0.0000
# 5 0.0000 0.0000 0.0000 0.0000 15.9459 0.0000
# 6 0.0000 0.0000 0.0000 0.0000 0.0000 14.3826
#
#
#
# Elastic Compliance Matrix: (Units=1/GPa)
#
#
# Indices 1 2 3 4 5 6 
#
# 1 0.046902 -0.001851 -0.008472 0.000000 0.000000 0.000000
# 2 -0.001851 0.015421 -0.001908 0.000000 0.000000 0.000000
# 3 -0.008472 -0.001908 0.010600 0.000000 0.000000 0.000000
# 4 0.000000 0.000000 0.000000 0.041675 0.000000 0.000000
# 5 0.000000 0.000000 0.000000 0.000000 0.062712 0.000000
# 6 0.000000 0.000000 0.000000 0.000000 0.000000 0.069528
#
#
# Mechanical properties :
#
#
# Convention : Reuss Voigt Hill
#
# Bulk Modulus (GPa) = 20.63439 32.75615 26.69527
# Shear Modulus (GPa) = 17.39402 21.77549 19.58476
#
# Velocity S-wave (km/s) = 3.16515 3.54143 3.35856
# Velocity P-wave (km/s) = 5.02415 5.96560 5.51500
#
# Compressibility (1/GPa) = 0.04846277
#
# Stress axis : x y z
#
# Youngs Moduli (GPa) = 21.32084 64.84636 94.33633
#
# Poissons Ratio (x) = 0.12000 0.79926
# Poissons Ratio (y) = 0.03946 0.17995
# Poissons Ratio (z) = 0.18064 0.12370
#
# Static dielectric constant tensor:
#      x y z
#    x 1.558650 0.000000 0.000000 
#    y 0.000000 1.607660 0.000000 
#    z 0.000000 0.000000 1.592030 
# 
# From -- ./inp_files/22499.got.cif
#   From: 2010.05.17/outbox.cif.g08.bks.cpg/sg63_12_cif.got.tgz:22499.got - 2010.06.03 15:47:04.
