data_PCOD9470043
_publ_section_title
;
Structure prediction by ZEFSAII (Michael W. Deem and Ramdas Pophale) SiO2 
 PCOD9470043
Probable space group: C M C M
;
_chemical_formula_sum "Si O2"
_cell_formula_units_Z 112
_cell_length_a 14.476333
_cell_length_b 31.414563
_cell_length_c 15.105692
_cell_angle_alpha 90.000000
_cell_angle_beta 90.000000
_cell_angle_gamma 90.000000
_cell_volume 6869.580431
_symmetry_space_group_name_H-M "C M C M"
_symmetry_group_IT_number 63
_symmetry_cell_setting 'orthorhombic'
loop_
_space_group_symop_operation_xyz
x,y,z
-x,-y,1/2+z
x,-y,-z
-x,y,1/2-z
-x,-y,-z
x,y,1/2-z
-x,y,z
x,-y,1/2+z
1/2+x,1/2+y,z
1/2-x,1/2-y,1/2+z
1/2+x,1/2-y,-z
1/2-x,1/2+y,1/2-z
1/2-x,1/2-y,-z
1/2+x,1/2+y,1/2-z
1/2-x,1/2+y,z
1/2+x,1/2-y,1/2+z
loop_
_atom_site_type_symbol
_atom_site_label
_atom_site_fract_x
_atom_site_fract_y
_atom_site_fract_z
Si Si1 0.783751 0.800477 0.844732
Si Si2 0.235067 0.350617 0.018918
Si Si3 0.611805 0.996740 0.351905
Si Si4 0.605223 0.775040 0.418800
Si Si5 0.111348 0.568350 0.493170
Si Si6 0.105932 0.147853 0.648976
Si Si7 0.398251 0.748783 0.621884
O O1 0.798921 0.822193 0.750000
O O2 0.855791 0.761831 0.856496
O O3 0.684045 0.777538 0.844180
O O4 0.780549 0.829866 0.931378
O O5 0.175986 0.314318 0.070971
O O6 0.164382 0.387382 0.991807
O O7 0.316116 0.367520 0.082059
O O8 0.645368 0.995217 0.250000
O O9 0.500000 0.996670 0.347957
O O10 0.636506 0.038756 0.408865
O O11 0.635919 0.957317 0.416510
O O12 0.500000 0.788016 0.397391
O O13 0.604927 0.753619 0.516005
O O14 0.000000 0.574104 0.492336
O O15 0.121908 0.134131 0.750000
O O16 0.112272 0.199511 0.646279
O O17 0.000000 0.137218 0.624302
O O18 0.500000 0.763190 0.650327
#
# Coordination Sequence:
#
# PCOD9470043 Si02
#       7
#    16  16  16  16  16  16  16
#     4  11  21  32  44  63  93 130 169 203 243 292
#     4  11  20  33  48  73  99 126 160 211 252 287
#     4   8  15  31  53  75 102 135 164 189 226 287
#     4  10  19  32  47  63  90 130 168 204 248 292
#     4   9  18  31  50  77 106 133 160 191 236 294
#     4  10  19  31  49  68  87 118 162 211 254 283
#     4   9  16  30  48  61  78 112 161 211 247 275
#
# _framework density 16.303761999999999
#
# number of rings (size 3 to 8) (size 9 to 14) (size 15 to 20)
#    0.000    2.286    2.857    2.571    0.000    2.857 
#    0.000    0.000    0.000    2.571    0.000    2.000 
#    0.000    1.143    0.000    0.000    0.000    0.000 
#
# Total GULP energy -311976.212633 kJ/mol
# GULP energy per Si atom -5571.003797 kJ/mol
# Density = 1.626665 g / cm^3
# Si number density = 16.303762 Si / 1000 Ang^3
#
#
#
# Elastic Constant Matrix: (Units=GPa)
#
#
# Indices 1 2 3 4 5 6 
#
# 1 61.6193 7.0317 32.3458 0.0000 0.0000 0.0000
# 2 7.0317 45.8941 13.1753 0.0000 0.0000 0.0000
# 3 32.3458 13.1753 86.5498 0.0000 0.0000 0.0000
# 4 0.0000 0.0000 0.0000 14.4267 0.0000 0.0000
# 5 0.0000 0.0000 0.0000 0.0000 0.8213 0.0000
# 6 0.0000 0.0000 0.0000 0.0000 0.0000 19.4222
#
#
#
# Elastic Compliance Matrix: (Units=1/GPa)
#
#
# Indices 1 2 3 4 5 6 
#
# 1 0.020231 -0.000972 -0.007413 0.000000 0.000000 0.000000
# 2 -0.000972 0.022832 -0.003113 0.000000 0.000000 0.000000
# 3 -0.007413 -0.003113 0.014798 0.000000 0.000000 0.000000
# 4 0.000000 0.000000 0.000000 0.069316 0.000000 0.000000
# 5 0.000000 0.000000 0.000000 0.000000 1.217514 0.000000
# 6 0.000000 0.000000 0.000000 0.000000 0.000000 0.051487
#
#
# Mechanical properties :
#
#
# Convention : Reuss Voigt Hill
#
# Bulk Modulus (GPa) = 28.68060 33.24099 30.96079
# Shear Modulus (GPa) = 3.49456 16.36806 9.93131
#
# Velocity S-wave (km/s) = 1.46563 3.17194 2.47076
# Velocity P-wave (km/s) = 4.52699 5.81788 5.21255
#
# Compressibility (1/GPa) = 0.03486678
#
# Stress axis : x y z
#
# Youngs Moduli (GPa) = 49.42961 43.79872 67.57566
#
# Poissons Ratio (x) = 0.04256 0.50093
# Poissons Ratio (y) = 0.04803 0.21033
# Poissons Ratio (z) = 0.36641 0.13632
#
# Static dielectric constant tensor:
#      x y z
#    x 1.556800 0.000000 0.000000 
#    y 0.000000 1.517640 0.000000 
#    z 0.000000 0.000000 1.603780 
# 
# From -- ./inp_files/32743.got.cif
#   From: 2010.05.17/outbox.cif.g08.bks.cpg/sg63_17_cif.got.tgz:32743.got - 2010.06.03 15:47:04.
