data_PCOD9470933
_publ_section_title
;
Structure prediction by ZEFSAII (Michael W. Deem and Ramdas Pophale) SiO2 
 PCOD9470933
Probable space group: C M C M
;
_chemical_formula_sum "Si O2"
_cell_formula_units_Z 96
_cell_length_a 28.748315
_cell_length_b 20.329090
_cell_length_c 9.183787
_cell_angle_alpha 90.000000
_cell_angle_beta 90.000000
_cell_angle_gamma 90.000000
_cell_volume 5367.253847
_symmetry_space_group_name_H-M "C M C M"
_symmetry_group_IT_number 63
_symmetry_cell_setting 'orthorhombic'
loop_
_space_group_symop_operation_xyz
x,y,z
-x,-y,1/2+z
x,-y,-z
-x,y,1/2-z
-x,-y,-z
x,y,1/2-z
-x,y,z
x,-y,1/2+z
1/2+x,1/2+y,z
1/2-x,1/2-y,1/2+z
1/2+x,1/2-y,-z
1/2-x,1/2+y,1/2-z
1/2-x,1/2-y,-z
1/2+x,1/2+y,1/2-z
1/2-x,1/2+y,z
1/2+x,1/2-y,1/2+z
loop_
_atom_site_type_symbol
_atom_site_label
_atom_site_fract_x
_atom_site_fract_y
_atom_site_fract_z
Si Si1 0.779145 0.845614 0.418139
Si Si2 0.593023 0.811344 0.423464
Si Si3 0.445245 0.665866 0.424636
Si Si4 0.628935 0.571069 0.574737
Si Si5 0.690309 0.192556 0.417921
Si Si6 0.555599 0.936542 0.914274
O O1 0.766143 0.859300 0.250000
O O2 0.822185 0.892214 0.458836
O O3 0.734224 0.847713 0.520685
O O4 0.796703 0.770050 0.423706
O O5 0.591464 0.818594 0.250000
O O6 0.571302 0.740097 0.459739
O O7 0.645362 0.815592 0.482544
O O8 0.565829 0.870151 0.499811
O O9 0.439084 0.656564 0.250000
O O10 0.500000 0.658201 0.457328
O O11 0.412773 0.615354 0.510950
O O12 0.627978 0.500000 0.500000
O O13 0.625069 0.566158 0.750000
O O14 0.680586 0.175886 0.250000
O O15 0.574205 0.933516 0.750000
O O16 0.500000 0.943908 0.905191
O O17 0.574274 0.000000 0.000000
#
# Coordination Sequence:
#
# PCOD9470933 Si02
#       6
#    16  16  16  16  16  16
#     4   9  19  36  56  82 113 145 185 231 283 343
#     4  11  21  35  58  87 120 154 191 239 291 344
#     4  10  22  39  59  85 116 152 198 248 296 347
#     4  11  23  40  61  85 116 154 196 243 296 355
#     4  10  19  33  57  86 115 144 185 233 282 339
#     4  10  21  37  57  81 112 151 193 235 283 342
#
# _framework density 17.886241999999999
#
# number of rings (size 3 to 8) (size 9 to 14) (size 15 to 20)
#    0.000    1.833    1.667    2.500    0.000    5.000 
#    0.000    0.833    0.000    2.000    0.000    0.000 
#    0.000    0.000    0.000    0.000    0.000    0.000 
#
# Total GULP energy -267960.499651 kJ/mol
# GULP energy per Si atom -5582.510409 kJ/mol
# Density = 1.784553 g / cm^3
# Si number density = 17.886242 Si / 1000 Ang^3
#
#
#
# Elastic Constant Matrix: (Units=GPa)
#
#
# Indices 1 2 3 4 5 6 
#
# 1 91.2175 60.1603 53.8772 0.0000 0.0000 0.0000
# 2 60.1603 129.9708 76.8780 0.0000 0.0000 0.0000
# 3 53.8772 76.8780 100.2292 0.0000 0.0000 0.0000
# 4 0.0000 0.0000 0.0000 25.9137 0.0000 0.0000
# 5 0.0000 0.0000 0.0000 0.0000 33.5050 0.0000
# 6 0.0000 0.0000 0.0000 0.0000 0.0000 21.8123
#
#
#
# Elastic Compliance Matrix: (Units=1/GPa)
#
#
# Indices 1 2 3 4 5 6 
#
# 1 0.017464 -0.004633 -0.005834 0.000000 0.000000 0.000000
# 2 -0.004633 0.015313 -0.009255 0.000000 0.000000 0.000000
# 3 -0.005834 -0.009255 0.020212 0.000000 0.000000 0.000000
# 4 0.000000 0.000000 0.000000 0.038590 0.000000 0.000000
# 5 0.000000 0.000000 0.000000 0.000000 0.029846 0.000000
# 6 0.000000 0.000000 0.000000 0.000000 0.000000 0.045846
#
#
# Mechanical properties :
#
#
# Convention : Reuss Voigt Hill
#
# Bulk Modulus (GPa) = 73.82772 78.13875 75.98323
# Shear Modulus (GPa) = 23.67093 24.94633 24.30863
#
# Velocity S-wave (km/s) = 3.64182 3.73865 3.69055
# Velocity P-wave (km/s) = 7.68438 7.90051 7.79319
#
# Compressibility (1/GPa) = 0.01354505
#
# Stress axis : x y z
#
# Youngs Moduli (GPa) = 57.25989 65.30520 49.47559
#
# Poissons Ratio (x) = 0.30254 0.28865
# Poissons Ratio (y) = 0.26527 0.45789
# Poissons Ratio (z) = 0.33407 0.60439
#
# Static dielectric constant tensor:
#      x y z
#    x 1.600450 0.000000 0.000000 
#    y 0.000000 1.584870 0.000000 
#    z 0.000000 0.000000 1.604660 
# 
# From -- ./inp_files/12354.got.cif
#   From: 2010.05.17/outbox.cif.g08.bks.cpg/sg63_7_cif.got.tgz:12354.got - 2010.06.03 15:47:04.
