data_PCOD9470579
_publ_section_title
;
Structure prediction by ZEFSAII (Michael W. Deem and Ramdas Pophale) SiO2 
 PCOD9470579
Probable space group: C M C M
;
_chemical_formula_sum "Si O2"
_cell_formula_units_Z 48
_cell_length_a 9.315051
_cell_length_b 16.794701
_cell_length_c 14.408289
_cell_angle_alpha 90.000000
_cell_angle_beta 90.000000
_cell_angle_gamma 90.000000
_cell_volume 2254.083108
_symmetry_space_group_name_H-M "C M C M"
_symmetry_group_IT_number 63
_symmetry_cell_setting 'orthorhombic'
loop_
_space_group_symop_operation_xyz
x,y,z
-x,-y,1/2+z
x,-y,-z
-x,y,1/2-z
-x,-y,-z
x,y,1/2-z
-x,y,z
x,-y,1/2+z
1/2+x,1/2+y,z
1/2-x,1/2-y,1/2+z
1/2+x,1/2-y,-z
1/2-x,1/2+y,1/2-z
1/2-x,1/2-y,-z
1/2+x,1/2+y,1/2-z
1/2-x,1/2+y,z
1/2+x,1/2-y,1/2+z
loop_
_atom_site_type_symbol
_atom_site_label
_atom_site_fract_x
_atom_site_fract_y
_atom_site_fract_z
Si Si1 0.336403 0.424358 0.942511
Si Si2 0.668860 0.165233 0.750000
Si Si3 0.152881 0.985797 0.250000
Si Si4 0.665121 0.787656 0.857175
O O1 0.500000 0.406483 0.975478
O O2 0.346961 0.459581 0.839451
O O3 0.239160 0.346805 0.929738
O O4 0.279098 0.500000 0.000000
O O5 0.500000 0.177816 0.750000
O O6 0.716227 0.074527 0.750000
O O7 0.741794 0.208460 0.661179
O O8 0.000000 0.938856 0.250000
O O9 0.665262 0.822093 0.750000
O O10 0.500000 0.771471 0.880699
#
# Coordination Sequence:
#
# PCOD9470579 Si02
#       4
#    16   8   8  16
#     4  10  20  34  56  83 108 140 180 218 262 317
#     4  10  19  32  55  79 103 139 181 220 265 318
#     4  10  19  34  53  77 111 139 169 220 267 310
#     4   9  18  33  54  77 104 138 175 214 264 316
#
# _framework density 21.294689999999999
#
# number of rings (size 3 to 8) (size 9 to 14) (size 15 to 20)
#    1.000    1.333    1.667    2.000    0.000    2.000 
#    0.000    1.667    0.000    0.000    0.000    0.000 
#    0.000    0.000    0.000    0.000    0.000    0.000 
#
# Total GULP energy -133764.028781 kJ/mol
# GULP energy per Si atom -5573.501199 kJ/mol
# Density = 2.124622 g / cm^3
# Si number density = 21.294690 Si / 1000 Ang^3
#
#
#
# Elastic Constant Matrix: (Units=GPa)
#
#
# Indices 1 2 3 4 5 6 
#
# 1 137.5988 36.7472 -17.4843 0.0000 0.0000 0.0000
# 2 36.7472 41.9078 -15.0690 0.0000 0.0000 0.0000
# 3 -17.4843 -15.0690 42.8729 0.0000 0.0000 0.0000
# 4 0.0000 0.0000 0.0000 16.0130 0.0000 0.0000
# 5 0.0000 0.0000 0.0000 0.0000 15.2638 0.0000
# 6 0.0000 0.0000 0.0000 0.0000 0.0000 25.8053
#
#
#
# Elastic Compliance Matrix: (Units=1/GPa)
#
#
# Indices 1 2 3 4 5 6 
#
# 1 0.009534 -0.007969 0.001087 0.000000 0.000000 0.000000
# 2 -0.007969 0.033975 0.008692 0.000000 0.000000 0.000000
# 3 0.001087 0.008692 0.026823 0.000000 0.000000 0.000000
# 4 0.000000 0.000000 0.000000 0.062449 0.000000 0.000000
# 5 0.000000 0.000000 0.000000 0.000000 0.065514 0.000000
# 6 0.000000 0.000000 0.000000 0.000000 0.000000 0.038752
#
#
# Mechanical properties :
#
#
# Convention : Reuss Voigt Hill
#
# Bulk Modulus (GPa) = 13.52240 25.64082 19.58161
# Shear Modulus (GPa) = 19.37400 25.96212 22.66806
#
# Velocity S-wave (km/s) = 3.01957 3.49547 3.26620
# Velocity P-wave (km/s) = 4.30360 5.32524 4.84144
#
# Compressibility (1/GPa) = 0.07395139
#
# Stress axis : x y z
#
# Youngs Moduli (GPa) = 104.88959 29.43352 37.28140
#
# Poissons Ratio (x) = 0.23455 -0.04053
# Poissons Ratio (y) = 0.83586 -0.32404
# Poissons Ratio (z) = -0.11403 -0.25583
#
# Static dielectric constant tensor:
#      x y z
#    x 1.765950 0.000000 0.000000 
#    y 0.000000 1.750630 0.000000 
#    z 0.000000 0.000000 1.810970 
# 
# From -- ./inp_files/26970.got.cif
#   From: 2010.05.17/outbox.cif.g08.bks.cpg/sg63_14_cif.got.tgz:26970.got - 2010.06.03 15:47:04.
