data_PCOD9470137
_publ_section_title
;
Structure prediction by ZEFSAII (Michael W. Deem and Ramdas Pophale) SiO2 
 PCOD9470137
Probable space group: C M C M
;
_chemical_formula_sum "Si O2"
_cell_formula_units_Z 96
_cell_length_a 9.097487
_cell_length_b 28.853189
_cell_length_c 20.326565
_cell_angle_alpha 90.000000
_cell_angle_beta 90.000000
_cell_angle_gamma 90.000000
_cell_volume 5335.550777
_symmetry_space_group_name_H-M "C M C M"
_symmetry_group_IT_number 63
_symmetry_cell_setting 'orthorhombic'
loop_
_space_group_symop_operation_xyz
x,y,z
-x,-y,1/2+z
x,-y,-z
-x,y,1/2-z
-x,-y,-z
x,y,1/2-z
-x,y,z
x,-y,1/2+z
1/2+x,1/2+y,z
1/2-x,1/2-y,1/2+z
1/2+x,1/2-y,-z
1/2-x,1/2+y,1/2-z
1/2-x,1/2-y,-z
1/2+x,1/2+y,1/2-z
1/2-x,1/2+y,z
1/2+x,1/2-y,1/2+z
loop_
_atom_site_type_symbol
_atom_site_label
_atom_site_fract_x
_atom_site_fract_y
_atom_site_fract_z
Si Si1 0.669980 0.817595 0.621686
Si Si2 0.676950 0.766878 0.431737
Si Si3 0.163455 0.904201 0.827610
Si Si4 0.331384 0.864201 0.023397
Si Si5 0.824765 0.497420 0.672164
Si Si6 0.175592 0.958784 0.050458
O O1 0.500000 0.813523 0.641744
O O2 0.750059 0.767965 0.620090
O O3 0.760382 0.855154 0.662048
O O4 0.671749 0.840080 0.548287
O O5 0.500000 0.761179 0.434539
O O6 0.750000 0.750000 0.500000
O O7 0.707691 0.821814 0.427377
O O8 0.148429 0.910876 0.750000
O O9 0.000000 0.906206 0.858102
O O10 0.265128 0.946737 0.849334
O O11 0.500000 0.878560 0.036219
O O12 0.229161 0.908731 0.025816
O O13 0.790303 0.504977 0.750000
O O14 0.747859 0.532083 0.621627
O O15 0.000000 0.499000 0.665459
O O16 0.000000 0.960096 0.055969
O O17 0.220342 0.000000 0.000000
#
# Coordination Sequence:
#
# PCOD9470137 Si02
#       6
#    16  16  16  16  16  16
#     4  10  19  31  50  75 102 133 167 204 251 303
#     4   9  17  30  48  71  99 130 164 201 246 301
#     4  10  20  33  50  73 101 132 166 206 252 301
#     4   9  19  33  49  72 101 133 167 205 251 300
#     4  10  21  37  56  76 101 137 177 214 257 311
#     4  11  23  35  51  78 108 138 173 215 262 307
#
# _framework density 17.992519000000001
#
# number of rings (size 3 to 8) (size 9 to 14) (size 15 to 20)
#    0.000    2.167    0.000    4.500    0.000   10.000 
#    0.000    0.000    0.000    1.000    0.000    7.000 
#    0.000    0.000    0.000    0.000    0.000    0.000 
#
# Total GULP energy -267587.017142 kJ/mol
# GULP energy per Si atom -5574.729524 kJ/mol
# Density = 1.795157 g / cm^3
# Si number density = 17.992519 Si / 1000 Ang^3
#
#
#
# Elastic Constant Matrix: (Units=GPa)
#
#
# Indices 1 2 3 4 5 6 
#
# 1 97.2619 47.4629 26.0840 0.0000 0.0000 0.0000
# 2 47.4629 89.8077 13.8346 0.0000 0.0000 0.0000
# 3 26.0840 13.8346 29.7247 0.0000 0.0000 0.0000
# 4 0.0000 0.0000 0.0000 29.5322 0.0000 0.0000
# 5 0.0000 0.0000 0.0000 0.0000 20.3886 0.0000
# 6 0.0000 0.0000 0.0000 0.0000 0.0000 35.1327
#
#
#
# Elastic Compliance Matrix: (Units=1/GPa)
#
#
# Indices 1 2 3 4 5 6 
#
# 1 0.016833 -0.007132 -0.011452 0.000000 0.000000 0.000000
# 2 -0.007132 0.015017 -0.000731 0.000000 0.000000 0.000000
# 3 -0.011452 -0.000731 0.044031 0.000000 0.000000 0.000000
# 4 0.000000 0.000000 0.000000 0.033861 0.000000 0.000000
# 5 0.000000 0.000000 0.000000 0.000000 0.049047 0.000000
# 6 0.000000 0.000000 0.000000 0.000000 0.000000 0.028463
#
#
# Mechanical properties :
#
#
# Convention : Reuss Voigt Hill
#
# Bulk Modulus (GPa) = 26.84424 43.50637 35.17530
# Shear Modulus (GPa) = 20.98199 25.63823 23.31011
#
# Velocity S-wave (km/s) = 3.41860 3.77893 3.60327
# Velocity P-wave (km/s) = 5.52580 6.57823 6.07485
#
# Compressibility (1/GPa) = 0.03725195
#
# Stress axis : x y z
#
# Youngs Moduli (GPa) = 59.40661 66.59244 22.71108
#
# Poissons Ratio (x) = 0.47494 0.26009
# Poissons Ratio (y) = 0.42369 0.01659
# Poissons Ratio (z) = 0.68032 0.04865
#
# Static dielectric constant tensor:
#      x y z
#    x 1.621990 0.000000 0.000000 
#    y 0.000000 1.637020 0.000000 
#    z 0.000000 0.000000 1.702710 
# 
# From -- ./inp_files/51368.got.cif
#   From: 2010.05.17/outbox.cif.g08.bks.cpg/sg63_26_cif.got.tgz:51368.got - 2010.06.03 15:47:04.
