data_PCOD9470691
_publ_section_title
;
Structure prediction by ZEFSAII (Michael W. Deem and Ramdas Pophale) SiO2 
 PCOD9470691
Probable space group: C M C M
;
_chemical_formula_sum "Si O2"
_cell_formula_units_Z 72
_cell_length_a 14.754020
_cell_length_b 19.007361
_cell_length_c 14.583097
_cell_angle_alpha 90.000000
_cell_angle_beta 90.000000
_cell_angle_gamma 90.000000
_cell_volume 4089.610579
_symmetry_space_group_name_H-M "C M C M"
_symmetry_group_IT_number 63
_symmetry_cell_setting 'orthorhombic'
loop_
_space_group_symop_operation_xyz
x,y,z
-x,-y,1/2+z
x,-y,-z
-x,y,1/2-z
-x,-y,-z
x,y,1/2-z
-x,y,z
x,-y,1/2+z
1/2+x,1/2+y,z
1/2-x,1/2-y,1/2+z
1/2+x,1/2-y,-z
1/2-x,1/2+y,1/2-z
1/2-x,1/2-y,-z
1/2+x,1/2+y,1/2-z
1/2-x,1/2+y,z
1/2+x,1/2-y,1/2+z
loop_
_atom_site_type_symbol
_atom_site_label
_atom_site_fract_x
_atom_site_fract_y
_atom_site_fract_z
Si Si1 0.000000 0.642940 0.639348
Si Si2 0.198319 0.823199 0.006687
Si Si3 0.500000 0.557624 0.142384
Si Si4 0.000000 0.203987 0.045666
Si Si5 0.193782 0.420130 0.140421
Si Si6 0.699407 0.557775 0.139618
O O1 0.000000 0.719497 0.592291
O O2 0.908645 0.600771 0.614273
O O3 0.000000 0.652184 0.750000
O O4 0.237980 0.867392 0.090500
O O5 0.250000 0.750000 0.000000
O O6 0.091490 0.807822 0.011110
O O7 0.215110 0.871031 0.916367
O O8 0.500000 0.544638 0.250000
O O9 0.500000 0.641176 0.120932
O O10 0.598310 0.531155 0.109756
O O11 0.201216 0.412785 0.250000
O O12 0.226140 0.498967 0.117786
O O13 0.698395 0.569237 0.250000
#
# Coordination Sequence:
#
# PCOD9470691 Si02
#       6
#     8  16   8   8  16  16
#     4  10  19  34  57  80 106 143 194 237 265 310
#     4  11  21  35  56  81 114 145 184 230 279 331
#     4   8  15  29  53  80 104 135 175 228 276 319
#     4  10  19  33  52  81 111 139 185 228 275 325
#     4  10  21  37  56  81 110 146 187 230 276 329
#     4   9  19  35  56  82 112 144 183 228 280 329
#
# _framework density 17.605588000000001
#
# number of rings (size 3 to 8) (size 9 to 14) (size 15 to 20)
#    0.000    2.222    2.222    1.000    0.000    2.667 
#    0.000    8.333    0.000    0.000    0.000    0.000 
#    0.000    0.000    0.000    0.000    0.000    0.000 
#
# Total GULP energy -200671.135816 kJ/mol
# GULP energy per Si atom -5574.198217 kJ/mol
# Density = 1.756552 g / cm^3
# Si number density = 17.605588 Si / 1000 Ang^3
#
#
#
# Elastic Constant Matrix: (Units=GPa)
#
#
# Indices 1 2 3 4 5 6 
#
# 1 160.5189 84.4505 42.2159 0.0000 0.0000 0.0000
# 2 84.4505 99.5803 28.4149 0.0000 0.0000 0.0000
# 3 42.2159 28.4149 41.9149 0.0000 0.0000 0.0000
# 4 0.0000 0.0000 0.0000 24.6361 0.0000 0.0000
# 5 0.0000 0.0000 0.0000 0.0000 26.3763 0.0000
# 6 0.0000 0.0000 0.0000 0.0000 0.0000 35.6710
#
#
#
# Elastic Compliance Matrix: (Units=1/GPa)
#
#
# Indices 1 2 3 4 5 6 
#
# 1 0.012628 -0.008778 -0.006768 0.000000 0.000000 0.000000
# 2 -0.008778 0.018553 -0.003736 0.000000 0.000000 0.000000
# 3 -0.006768 -0.003736 0.033207 0.000000 0.000000 0.000000
# 4 0.000000 0.000000 0.000000 0.040591 0.000000 0.000000
# 5 0.000000 0.000000 0.000000 0.000000 0.037913 0.000000
# 6 0.000000 0.000000 0.000000 0.000000 0.000000 0.028034
#
#
# Mechanical properties :
#
#
# Convention : Reuss Voigt Hill
#
# Bulk Modulus (GPa) = 38.72407 68.01961 53.37184
# Shear Modulus (GPa) = 22.92559 27.13220 25.02889
#
# Velocity S-wave (km/s) = 3.61248 3.92996 3.77456
# Velocity P-wave (km/s) = 6.28038 7.70142 7.02691
#
# Compressibility (1/GPa) = 0.02582373
#
# Stress axis : x y z
#
# Youngs Moduli (GPa) = 79.18929 53.90068 30.11419
#
# Poissons Ratio (x) = 0.47315 0.20381
# Poissons Ratio (y) = 0.69514 0.11251
# Poissons Ratio (z) = 0.53594 0.20137
#
# Static dielectric constant tensor:
#      x y z
#    x 1.624820 0.000000 0.000000 
#    y 0.000000 1.580540 0.000000 
#    z 0.000000 0.000000 1.598500 
# 
# From -- ./inp_files/31492.got.cif
#   From: 2010.05.17/outbox.cif.g08.bks.cpg/sg63_16_cif.got.tgz:31492.got - 2010.06.03 15:47:04.
