data_PCOD9470060
_publ_section_title
;
Structure prediction by ZEFSAII (Michael W. Deem and Ramdas Pophale) SiO2 
 PCOD9470060
Probable space group: C M C M
;
_chemical_formula_sum "Si O2"
_cell_formula_units_Z 96
_cell_length_a 8.913178
_cell_length_b 24.128438
_cell_length_c 26.573855
_cell_angle_alpha 90.000000
_cell_angle_beta 90.000000
_cell_angle_gamma 90.000000
_cell_volume 5715.001498
_symmetry_space_group_name_H-M "C M C M"
_symmetry_group_IT_number 63
_symmetry_cell_setting 'orthorhombic'
loop_
_space_group_symop_operation_xyz
x,y,z
-x,-y,1/2+z
x,-y,-z
-x,y,1/2-z
-x,-y,-z
x,y,1/2-z
-x,y,z
x,-y,1/2+z
1/2+x,1/2+y,z
1/2-x,1/2-y,1/2+z
1/2+x,1/2-y,-z
1/2-x,1/2+y,1/2-z
1/2-x,1/2-y,-z
1/2+x,1/2+y,1/2-z
1/2-x,1/2+y,z
1/2+x,1/2-y,1/2+z
loop_
_atom_site_type_symbol
_atom_site_label
_atom_site_fract_x
_atom_site_fract_y
_atom_site_fract_z
Si Si1 0.321890 0.724456 0.050793
Si Si2 0.322687 0.105193 0.069224
Si Si3 0.180111 0.583832 0.807603
Si Si4 0.674378 0.577685 0.532090
Si Si5 0.822295 0.335337 0.396634
Si Si6 0.676316 0.508111 0.377031
O O1 0.500000 0.717534 0.042734
O O2 0.249731 0.666024 0.065278
O O3 0.299670 0.770413 0.094452
O O4 0.250000 0.750000 0.000000
O O5 0.500000 0.109523 0.073670
O O6 0.255860 0.066431 0.112911
O O7 0.277389 0.075973 0.016623
O O8 0.228742 0.590739 0.750000
O O9 0.213443 0.637124 0.842874
O O10 0.253140 0.530268 0.833800
O O11 0.000000 0.576934 0.808332
O O12 0.500000 0.579436 0.516516
O O13 0.722284 0.632247 0.562834
O O14 0.693414 0.528241 0.571821
O O15 0.000000 0.346624 0.406910
O O16 0.500000 0.515899 0.368319
#
# Coordination Sequence:
#
# PCOD9470060 Si02
#       6
#    16  16  16  16  16  16
#     4  11  21  33  50  73 105 144 183 219 255 306
#     4  12  23  33  48  71 103 144 181 214 257 311
#     4   9  18  35  59  83 105 130 164 211 266 320
#     4  10  19  31  49  72 102 137 172 214 259 306
#     4   9  18  32  51  76 104 136 174 213 256 308
#     4  10  21  35  51  75 104 134 172 217 263 312
#
# _framework density 16.797896000000001
#
# number of rings (size 3 to 8) (size 9 to 14) (size 15 to 20)
#    0.000    1.833    1.667    3.500    0.000    5.000 
#    0.000    0.000    0.000    1.000    0.000    2.333 
#    0.000    0.000    0.000    0.000    0.000    0.000 
#
# Total GULP energy -267873.679294 kJ/mol
# GULP energy per Si atom -5580.701652 kJ/mol
# Density = 1.675966 g / cm^3
# Si number density = 16.797896 Si / 1000 Ang^3
#
#
#
# Elastic Constant Matrix: (Units=GPa)
#
#
# Indices 1 2 3 4 5 6 
#
# 1 78.1027 50.6026 37.3404 0.0000 0.0000 0.0000
# 2 50.6026 95.1263 43.6886 0.0000 0.0000 0.0000
# 3 37.3404 43.6886 92.8645 0.0000 0.0000 0.0000
# 4 0.0000 0.0000 0.0000 11.8296 0.0000 0.0000
# 5 0.0000 0.0000 0.0000 0.0000 16.7324 0.0000
# 6 0.0000 0.0000 0.0000 0.0000 0.0000 21.6897
#
#
#
# Elastic Compliance Matrix: (Units=1/GPa)
#
#
# Indices 1 2 3 4 5 6 
#
# 1 0.020638 -0.009143 -0.003997 0.000000 0.000000 0.000000
# 2 -0.009143 0.017460 -0.004538 0.000000 0.000000 0.000000
# 3 -0.003997 -0.004538 0.014511 0.000000 0.000000 0.000000
# 4 0.000000 0.000000 0.000000 0.084533 0.000000 0.000000
# 5 0.000000 0.000000 0.000000 0.000000 0.059764 0.000000
# 6 0.000000 0.000000 0.000000 0.000000 0.000000 0.046105
#
#
# Mechanical properties :
#
#
# Convention : Reuss Voigt Hill
#
# Bulk Modulus (GPa) = 57.96112 58.81739 58.38926
# Shear Modulus (GPa) = 17.59831 19.01447 18.30639
#
# Velocity S-wave (km/s) = 3.24025 3.36810 3.30480
# Velocity P-wave (km/s) = 6.96985 7.08634 7.02834
#
# Compressibility (1/GPa) = 0.01725295
#
# Stress axis : x y z
#
# Youngs Moduli (GPa) = 48.45358 57.27395 68.91538
#
# Poissons Ratio (x) = 0.52364 0.27548
# Poissons Ratio (y) = 0.44300 0.31273
# Poissons Ratio (z) = 0.19368 0.25990
#
# Static dielectric constant tensor:
#      x y z
#    x 1.559370 0.000000 0.000000 
#    y 0.000000 1.581380 0.000000 
#    z 0.000000 0.000000 1.558710 
# 
# From -- ./inp_files/66909.got.cif
#   From: 2010.05.17/outbox.cif.g08.bks.cpg/sg63_34_cif.got.tgz:66909.got - 2010.06.03 15:47:04.
