data_PCOD9470098
_publ_section_title
;
Structure prediction by ZEFSAII (Michael W. Deem and Ramdas Pophale) SiO2 
 PCOD9470098
Probable space group: C M C M
;
_chemical_formula_sum "Si O2"
_cell_formula_units_Z 72
_cell_length_a 25.477466
_cell_length_b 5.211945
_cell_length_c 27.381652
_cell_angle_alpha 90.000000
_cell_angle_beta 90.000000
_cell_angle_gamma 90.000000
_cell_volume 3635.931573
_symmetry_space_group_name_H-M "C M C M"
_symmetry_group_IT_number 63
_symmetry_cell_setting 'orthorhombic'
loop_
_space_group_symop_operation_xyz
x,y,z
-x,-y,1/2+z
x,-y,-z
-x,y,1/2-z
-x,-y,-z
x,y,1/2-z
-x,y,z
x,-y,1/2+z
1/2+x,1/2+y,z
1/2-x,1/2-y,1/2+z
1/2+x,1/2-y,-z
1/2-x,1/2+y,1/2-z
1/2-x,1/2-y,-z
1/2+x,1/2+y,1/2-z
1/2-x,1/2+y,z
1/2+x,1/2-y,1/2+z
loop_
_atom_site_type_symbol
_atom_site_label
_atom_site_fract_x
_atom_site_fract_y
_atom_site_fract_z
Si Si1 0.063152 0.839514 0.866861
Si Si2 0.396478 0.972675 0.558170
Si Si3 0.936607 0.325166 0.694275
Si Si4 0.220682 0.474401 0.940556
Si Si5 0.500000 0.747963 0.965470
O O1 0.089144 0.742457 0.916887
O O2 0.082721 0.090792 0.838987
O O3 0.000000 0.853772 0.874882
O O4 0.073287 0.597531 0.830828
O O5 0.338281 0.898630 0.574553
O O6 0.446787 0.786195 0.565595
O O7 0.392356 0.000000 0.500000
O O8 0.917589 0.313750 0.750000
O O9 0.000000 0.296327 0.696002
O O10 0.239277 0.754472 0.924094
O O11 0.221908 0.500000 0.000000
O O12 0.500000 0.500000 0.000000
O O13 0.500000 0.000000 0.000000
#
# Coordination Sequence:
#
# PCOD9470098 Si02
#       5
#    16  16  16  16   8
#     4  10  19  31  49  74 102 136 172 206 254 313
#     4  10  21  36  52  76 111 144 177 214 253 312
#     4   9  18  32  49  69  98 134 172 214 256 302
#     4   9  19  34  52  70  94 134 181 223 259 290
#     4  10  22  34  48  70 101 144 175 198 246 300
#
# _framework density 19.802351000000002
#
# number of rings (size 3 to 8) (size 9 to 14) (size 15 to 20)
#    0.000    2.444    1.111    0.667    0.000   14.222 
#    0.000    0.000    0.000    0.000    0.000    0.000 
#    0.000   17.778    0.000    0.000    0.000    0.000 
#
# Total GULP energy -200936.794518 kJ/mol
# GULP energy per Si atom -5581.577626 kJ/mol
# Density = 1.975728 g / cm^3
# Si number density = 19.802351 Si / 1000 Ang^3
#
#
#
# Elastic Constant Matrix: (Units=GPa)
#
#
# Indices 1 2 3 4 5 6 
#
# 1 103.6410 31.3967 5.4827 0.0000 0.0000 0.0000
# 2 31.3967 106.5431 24.5238 0.0000 0.0000 0.0000
# 3 5.4827 24.5238 91.1303 0.0000 0.0000 0.0000
# 4 0.0000 0.0000 0.0000 21.4450 0.0000 0.0000
# 5 0.0000 0.0000 0.0000 0.0000 -3.7490 0.0000
# 6 0.0000 0.0000 0.0000 0.0000 0.0000 15.9886
#
#
#
# Elastic Compliance Matrix: (Units=1/GPa)
#
#
# Indices 1 2 3 4 5 6 
#
# 1 0.010598 -0.003173 0.000216 0.000000 0.000000 0.000000
# 2 -0.003173 0.010956 -0.002757 0.000000 0.000000 0.000000
# 3 0.000216 -0.002757 0.011702 0.000000 0.000000 0.000000
# 4 0.000000 0.000000 0.000000 0.046631 0.000000 0.000000
# 5 0.000000 0.000000 0.000000 0.000000 -0.266739 0.000000
# 6 0.000000 0.000000 0.000000 0.000000 0.000000 0.062545
#
#
# Mechanical properties :
#
#
# Convention : Reuss Voigt Hill
#
# Bulk Modulus (GPa) = 45.81232 47.12455 46.46843
# Shear Modulus (GPa) = -47.34738 22.73100 -12.30819
#
# Velocity S-wave (km/s) = -4.89509 3.39173 -2.49580
# Velocity P-wave (km/s) = 2.96043 6.26000 3.90022
#
# Compressibility (1/GPa) = 0.02182819
#
# Stress axis : x y z
#
# Youngs Moduli (GPa) = 94.35328 91.27770 85.45322
#
# Poissons Ratio (x) = 0.28962 -0.01848
# Poissons Ratio (y) = 0.29938 0.23562
# Poissons Ratio (z) = -0.02040 0.25168
#
# Static dielectric constant tensor:
#      x y z
#    x 1.710300 0.000000 0.000000 
#    y 0.000000 1.645480 0.000000 
#    z 0.000000 0.000000 1.739030 
# 
# From -- ./inp_files/70866.got.cif
#   From: 2010.05.17/outbox.cif.g08.bks.cpg/sg63_36_cif.got.tgz:70866.got - 2010.06.03 15:47:04.
