data_PCOD9470723
_publ_section_title
;
Structure prediction by ZEFSAII (Michael W. Deem and Ramdas Pophale) SiO2 
 PCOD9470723
Probable space group: C M C M
;
_chemical_formula_sum "Si O2"
_cell_formula_units_Z 104
_cell_length_a 28.829397
_cell_length_b 23.632287
_cell_length_c 8.670734
_cell_angle_alpha 90.000000
_cell_angle_beta 90.000000
_cell_angle_gamma 90.000000
_cell_volume 5907.410820
_symmetry_space_group_name_H-M "C M C M"
_symmetry_group_IT_number 63
_symmetry_cell_setting 'orthorhombic'
loop_
_space_group_symop_operation_xyz
x,y,z
-x,-y,1/2+z
x,-y,-z
-x,y,1/2-z
-x,-y,-z
x,y,1/2-z
-x,y,z
x,-y,1/2+z
1/2+x,1/2+y,z
1/2-x,1/2-y,1/2+z
1/2+x,1/2-y,-z
1/2-x,1/2+y,1/2-z
1/2-x,1/2-y,-z
1/2+x,1/2+y,1/2-z
1/2-x,1/2+y,z
1/2+x,1/2-y,1/2+z
loop_
_atom_site_type_symbol
_atom_site_label
_atom_site_fract_x
_atom_site_fract_y
_atom_site_fract_z
Si Si1 0.301688 0.239873 0.934978
Si Si2 0.946836 0.563327 0.936731
Si Si3 0.000000 0.936444 0.435041
Si Si4 0.264875 0.938870 0.433854
Si Si5 0.854890 0.626641 0.937534
Si Si6 0.099905 0.063512 0.935178
Si Si7 0.816409 0.134694 0.066841
O O1 0.297049 0.233410 0.750000
O O2 0.331931 0.186191 0.990779
O O3 0.325515 0.299795 0.969536
O O4 0.250000 0.250000 0.000000
O O5 0.945386 0.560985 0.750000
O O6 0.906014 0.606341 0.988237
O O7 0.000000 0.578928 0.981236
O O8 0.937907 0.500000 0.000000
O O9 0.049471 0.911111 0.480055
O O10 0.000000 0.940177 0.250000
O O11 0.000000 0.000000 0.500000
O O12 0.262438 0.941336 0.250000
O O13 0.316905 0.920973 0.479782
O O14 0.230010 0.890368 0.490919
O O15 0.251892 0.000000 0.500000
O O16 0.856489 0.629705 0.750000
O O17 0.103798 0.062039 0.750000
O O18 0.141341 0.098088 0.006546
O O19 0.101869 0.000000 0.000000
O O20 0.811213 0.129200 0.250000
#
# Coordination Sequence:
#
# PCOD9470723 Si02
#       7
#    16  16   8  16  16  16  16
#     4  10  20  36  55  73  98 131 174 216 251 298
#     4   9  17  31  53  80 108 137 168 207 258 313
#     4   8  16  30  50  74  96 126 162 200 243 294
#     4  11  21  33  50  72 103 135 166 206 253 304
#     4   9  18  33  53  75 101 134 170 210 254 303
#     4  10  19  33  53  76 103 132 166 206 254 305
#     4  11  22  34  50  73 101 133 170 211 253 302
#
# _framework density 17.605005999999999
#
# number of rings (size 3 to 8) (size 9 to 14) (size 15 to 20)
#    0.000    2.154    1.538    2.308    0.000    1.231 
#    0.000    1.538    1.692    0.000    0.000    0.000 
#    0.000    0.000    0.000    0.000    0.000    0.000 
#
# Total GULP energy -289797.044194 kJ/mol
# GULP energy per Si atom -5573.020081 kJ/mol
# Density = 1.756494 g / cm^3
# Si number density = 17.605006 Si / 1000 Ang^3
#
#
#
# Elastic Constant Matrix: (Units=GPa)
#
#
# Indices 1 2 3 4 5 6 
#
# 1 136.5024 52.7689 14.3228 0.0000 0.0000 0.0000
# 2 52.7689 96.6558 21.1101 0.0000 0.0000 0.0000
# 3 14.3228 21.1101 14.3312 0.0000 0.0000 0.0000
# 4 0.0000 0.0000 0.0000 15.8104 0.0000 0.0000
# 5 0.0000 0.0000 0.0000 0.0000 11.2630 0.0000
# 6 0.0000 0.0000 0.0000 0.0000 0.0000 15.6986
#
#
#
# Elastic Compliance Matrix: (Units=1/GPa)
#
#
# Indices 1 2 3 4 5 6 
#
# 1 0.009356 -0.004520 -0.002693 0.000000 0.000000 0.000000
# 2 -0.004520 0.017436 -0.021167 0.000000 0.000000 0.000000
# 3 -0.002693 -0.021167 0.103649 0.000000 0.000000 0.000000
# 4 0.000000 0.000000 0.000000 0.063249 0.000000 0.000000
# 5 0.000000 0.000000 0.000000 0.000000 0.088786 0.000000
# 6 0.000000 0.000000 0.000000 0.000000 0.000000 0.063700
#
#
# Mechanical properties :
#
#
# Convention : Reuss Voigt Hill
#
# Bulk Modulus (GPa) = 13.57191 47.09923 30.33557
# Shear Modulus (GPa) = 11.69601 19.17357 15.43479
#
# Velocity S-wave (km/s) = 2.58031 3.30373 2.96417
# Velocity P-wave (km/s) = 4.07470 6.43150 5.38365
#
# Compressibility (1/GPa) = 0.07368160
#
# Stress axis : x y z
#
# Youngs Moduli (GPa) = 106.88821 57.35113 9.64797
#
# Poissons Ratio (x) = 0.25920 0.02598
# Poissons Ratio (y) = 0.48308 0.20422
# Poissons Ratio (z) = 0.28783 1.21397
#
# Static dielectric constant tensor:
#      x y z
#    x 1.633970 0.000000 0.000000 
#    y 0.000000 1.583650 0.000000 
#    z 0.000000 0.000000 1.605320 
# 
# From -- ./inp_files/12867.got.cif
#   From: 2010.05.17/outbox.cif.g08.bks.cpg/sg63_7_cif.got.tgz:12867.got - 2010.06.03 15:47:04.
