data_PCOD9470725
_publ_section_title
;
Structure prediction by ZEFSAII (Michael W. Deem and Ramdas Pophale) SiO2 
 PCOD9470725
Probable space group: C M C M
;
_chemical_formula_sum "Si O2"
_cell_formula_units_Z 88
_cell_length_a 21.695817
_cell_length_b 25.289072
_cell_length_c 9.260346
_cell_angle_alpha 90.000000
_cell_angle_beta 90.000000
_cell_angle_gamma 90.000000
_cell_volume 5080.846983
_symmetry_space_group_name_H-M "C M C M"
_symmetry_group_IT_number 63
_symmetry_cell_setting 'orthorhombic'
loop_
_space_group_symop_operation_xyz
x,y,z
-x,-y,1/2+z
x,-y,-z
-x,y,1/2-z
-x,-y,-z
x,y,1/2-z
-x,y,z
x,-y,1/2+z
1/2+x,1/2+y,z
1/2-x,1/2-y,1/2+z
1/2+x,1/2-y,-z
1/2-x,1/2+y,1/2-z
1/2-x,1/2-y,-z
1/2+x,1/2+y,1/2-z
1/2-x,1/2+y,z
1/2+x,1/2-y,1/2+z
loop_
_atom_site_type_symbol
_atom_site_label
_atom_site_fract_x
_atom_site_fract_y
_atom_site_fract_z
Si Si1 0.574224 0.151391 0.081457
Si Si2 0.073651 0.241472 0.079784
Si Si3 0.379221 0.374062 0.576716
Si Si4 0.714971 0.445723 0.419215
Si Si5 0.500000 0.556442 0.077065
Si Si6 0.862610 0.445591 0.080307
O O1 0.590950 0.148544 0.250000
O O2 0.500000 0.147479 0.069878
O O3 0.592121 0.207880 0.013382
O O4 0.604558 0.103793 0.993841
O O5 0.084225 0.252181 0.250000
O O6 0.106946 0.186894 0.040800
O O7 0.000000 0.233104 0.062317
O O8 0.370225 0.377468 0.750000
O O9 0.321747 0.398380 0.493285
O O10 0.439382 0.409339 0.540731
O O11 0.697410 0.500000 0.500000
O O12 0.699896 0.449773 0.250000
O O13 0.788601 0.439315 0.433322
O O14 0.500000 0.548671 0.250000
O O15 0.500000 0.500000 0.000000
O O16 0.877634 0.448823 0.250000
O O17 0.879760 0.500000 0.000000
#
# Coordination Sequence:
#
# PCOD9470725 Si02
#       6
#    16  16  16  16   8  16
#     4  10  21  36  56  84 113 138 170 215 263 316
#     4   9  17  33  55  77 105 143 181 219 265 316
#     4  10  19  33  53  76 105 141 182 223 267 316
#     4  10  21  36  54  77 105 139 180 222 266 317
#     4  10  20  32  46  72 106 138 177 224 267 312
#     4  10  21  38  59  81 107 140 176 215 262 318
#
# _framework density 17.319948
#
# number of rings (size 3 to 8) (size 9 to 14) (size 15 to 20)
#    0.000    2.182    0.909    2.182    0.000    6.545 
#    0.000    0.909    0.000    0.000    0.000    0.000 
#    0.000    0.000    0.000    0.000    0.000    0.000 
#
# Total GULP energy -245643.628494 kJ/mol
# GULP energy per Si atom -5582.809739 kJ/mol
# Density = 1.728053 g / cm^3
# Si number density = 17.319948 Si / 1000 Ang^3
#
#
#
# Elastic Constant Matrix: (Units=GPa)
#
#
# Indices 1 2 3 4 5 6 
#
# 1 23.0022 51.1323 47.3658 0.0000 0.0000 0.0000
# 2 51.1323 180.4618 106.6838 0.0000 0.0000 0.0000
# 3 47.3658 106.6838 113.9159 0.0000 0.0000 0.0000
# 4 0.0000 0.0000 0.0000 36.3481 0.0000 0.0000
# 5 0.0000 0.0000 0.0000 0.0000 28.9654 0.0000
# 6 0.0000 0.0000 0.0000 0.0000 0.0000 27.4433
#
#
#
# Elastic Compliance Matrix: (Units=1/GPa)
#
#
# Indices 1 2 3 4 5 6 
#
# 1 0.365216 -0.030711 -0.123094 0.000000 0.000000 0.000000
# 2 -0.030711 0.014997 -0.001275 0.000000 0.000000 0.000000
# 3 -0.123094 -0.001275 0.061155 0.000000 0.000000 0.000000
# 4 0.000000 0.000000 0.000000 0.027512 0.000000 0.000000
# 5 0.000000 0.000000 0.000000 0.000000 0.034524 0.000000
# 6 0.000000 0.000000 0.000000 0.000000 0.000000 0.036439
#
#
# Mechanical properties :
#
#
# Convention : Reuss Voigt Hill
#
# Bulk Modulus (GPa) = 7.62155 80.86040 44.24098
# Shear Modulus (GPa) = 5.59448 26.03122 15.81285
#
# Velocity S-wave (km/s) = 1.79919 3.88101 3.02484
# Velocity P-wave (km/s) = 2.95400 8.17745 6.14804
#
# Compressibility (1/GPa) = 0.13120690
#
# Stress axis : x y z
#
# Youngs Moduli (GPa) = 2.73811 66.67975 16.35201
#
# Poissons Ratio (x) = 2.04783 2.01283
# Poissons Ratio (y) = 0.08409 0.02085
# Poissons Ratio (z) = 0.33704 0.08504
#
# Static dielectric constant tensor:
#      x y z
#    x 1.576820 0.000000 0.000000 
#    y 0.000000 1.557950 0.000000 
#    z 0.000000 0.000000 1.578710 
# 
# From -- ./inp_files/8187.got.cif
#   From: 2010.05.17/outbox.cif.g08.bks.cpg/sg63_5_cif.got.tgz:8187.got - 2010.06.03 15:47:04.
