data_PCOD9470053
_publ_section_title
;
Structure prediction by ZEFSAII (Michael W. Deem and Ramdas Pophale) SiO2 
 PCOD9470053
Probable space group: C M C M
;
_chemical_formula_sum "Si O2"
_cell_formula_units_Z 96
_cell_length_a 7.399529
_cell_length_b 18.681719
_cell_length_c 32.183689
_cell_angle_alpha 90.000000
_cell_angle_beta 90.000000
_cell_angle_gamma 90.000000
_cell_volume 4448.941907
_symmetry_space_group_name_H-M "C M C M"
_symmetry_group_IT_number 63
_symmetry_cell_setting 'orthorhombic'
loop_
_space_group_symop_operation_xyz
x,y,z
-x,-y,1/2+z
x,-y,-z
-x,y,1/2-z
-x,-y,-z
x,y,1/2-z
-x,y,z
x,-y,1/2+z
1/2+x,1/2+y,z
1/2-x,1/2-y,1/2+z
1/2+x,1/2-y,-z
1/2-x,1/2+y,1/2-z
1/2-x,1/2-y,-z
1/2+x,1/2+y,1/2-z
1/2-x,1/2+y,z
1/2+x,1/2-y,1/2+z
loop_
_atom_site_type_symbol
_atom_site_label
_atom_site_fract_x
_atom_site_fract_y
_atom_site_fract_z
Si Si1 0.720196 0.044096 0.203570
Si Si2 0.283976 0.207290 0.042310
Si Si3 0.721276 0.043514 0.459237
Si Si4 0.720072 0.789879 0.703493
Si Si5 0.215352 0.538506 0.877038
Si Si6 0.283353 0.706697 0.877393
O O1 0.778899 0.022780 0.250000
O O2 0.500000 0.042417 0.203836
O O3 0.770959 0.127103 0.196655
O O4 0.784784 0.994596 0.166103
O O5 0.500000 0.202541 0.047064
O O6 0.217888 0.125773 0.039925
O O7 0.214435 0.250431 0.082373
O O8 0.250000 0.250000 0.000000
O O9 0.500000 0.043526 0.459337
O O10 0.777859 0.000000 0.500000
O O11 0.782455 0.003641 0.417477
O O12 0.778498 0.768526 0.750000
O O13 0.500000 0.788187 0.703656
O O14 0.783657 0.740700 0.665780
O O15 0.246418 0.622770 0.880398
O O16 0.000000 0.527272 0.876542
O O17 0.500000 0.715065 0.877034
#
# Coordination Sequence:
#
# PCOD9470053 Si02
#       6
#    16  16  16  16  16  16
#     4   8  14  26  46  71  94 118 156 202 237 268
#     4  10  20  34  52  73  97 124 156 196 239 283
#     4   9  17  30  49  70  90 116 154 194 227 267
#     4   8  14  27  48  71  95 126 163 199 236 281
#     4  10  19  31  49  71  95 125 159 194 234 278
#     4  10  20  32  47  71 101 128 156 193 236 282
#
# _framework density 21.578164999999998
#
# number of rings (size 3 to 8) (size 9 to 14) (size 15 to 20)
#    0.000    2.833    0.000    3.000    0.000    6.667 
#    0.000    0.833    0.000    6.000    0.000    2.333 
#    0.000    0.000    0.000    0.000    0.000    0.000 
#
# Total GULP energy -268125.808640 kJ/mol
# GULP energy per Si atom -5585.954347 kJ/mol
# Density = 2.152905 g / cm^3
# Si number density = 21.578165 Si / 1000 Ang^3
#
#
#
# Elastic Constant Matrix: (Units=GPa)
#
#
# Indices 1 2 3 4 5 6 
#
# 1 72.1341 -0.5735 7.3531 0.0000 0.0000 0.0000
# 2 -0.5735 206.0972 164.5996 0.0000 0.0000 0.0000
# 3 7.3531 164.5996 251.3327 0.0000 0.0000 0.0000
# 4 0.0000 0.0000 0.0000 47.5738 0.0000 0.0000
# 5 0.0000 0.0000 0.0000 0.0000 -7.1842 0.0000
# 6 0.0000 0.0000 0.0000 0.0000 0.0000 15.7265
#
#
#
# Elastic Compliance Matrix: (Units=1/GPa)
#
#
# Indices 1 2 3 4 5 6 
#
# 1 0.013962 0.000765 -0.000910 0.000000 0.000000 0.000000
# 2 0.000765 0.010215 -0.006712 0.000000 0.000000 0.000000
# 3 -0.000910 -0.006712 0.008401 0.000000 0.000000 0.000000
# 4 0.000000 0.000000 0.000000 0.021020 0.000000 0.000000
# 5 0.000000 0.000000 0.000000 0.000000 -0.139195 0.000000
# 6 0.000000 0.000000 0.000000 0.000000 0.000000 0.063587
#
#
# Mechanical properties :
#
#
# Convention : Reuss Voigt Hill
#
# Bulk Modulus (GPa) = 53.00820 96.92472 74.96646
# Shear Modulus (GPa) = -2489.67395 35.10219 -1227.28588
#
# Velocity S-wave (km/s) = -34.00438 4.03767 -23.87462
# Velocity P-wave (km/s) = 38.95012 8.17022 26.92916
#
# Compressibility (1/GPa) = 0.01886501
#
# Stress axis : x y z
#
# Youngs Moduli (GPa) = 71.62349 97.89588 119.02931
#
# Poissons Ratio (x) = -0.07493 0.10829
# Poissons Ratio (y) = -0.05482 0.79895
# Poissons Ratio (z) = 0.06516 0.65710
#
# Static dielectric constant tensor:
#      x y z
#    x 1.858480 0.000000 0.000000 
#    y 0.000000 1.726400 0.000000 
#    z 0.000000 0.000000 1.762620 
# 
# From -- ./inp_files/68304.got.cif
#   From: 2010.05.17/outbox.cif.g08.bks.cpg/sg63_35_cif.got.tgz:68304.got - 2010.06.03 15:47:04.
