data_PCOD9470056
_publ_section_title
;
Structure prediction by ZEFSAII (Michael W. Deem and Ramdas Pophale) SiO2 
 PCOD9470056
Probable space group: C M C M
;
_chemical_formula_sum "Si O2"
_cell_formula_units_Z 96
_cell_length_a 17.908606
_cell_length_b 18.231130
_cell_length_c 18.030658
_cell_angle_alpha 90.000000
_cell_angle_beta 90.000000
_cell_angle_gamma 90.000000
_cell_volume 5886.903891
_symmetry_space_group_name_H-M "C M C M"
_symmetry_group_IT_number 63
_symmetry_cell_setting 'orthorhombic'
loop_
_space_group_symop_operation_xyz
x,y,z
-x,-y,1/2+z
x,-y,-z
-x,y,1/2-z
-x,-y,-z
x,y,1/2-z
-x,y,z
x,-y,1/2+z
1/2+x,1/2+y,z
1/2-x,1/2-y,1/2+z
1/2+x,1/2-y,-z
1/2-x,1/2+y,1/2-z
1/2-x,1/2-y,-z
1/2+x,1/2+y,1/2-z
1/2-x,1/2+y,z
1/2+x,1/2-y,1/2+z
loop_
_atom_site_type_symbol
_atom_site_label
_atom_site_fract_x
_atom_site_fract_y
_atom_site_fract_z
Si Si1 0.182065 0.998109 0.916563
Si Si2 0.416089 0.608165 0.661375
Si Si3 0.411932 0.007961 0.662679
Si Si4 0.315865 0.116960 0.925032
Si Si5 0.695675 0.882329 0.900612
Si Si6 0.213431 0.778633 0.338434
O O1 0.223006 0.922065 0.898120
O O2 0.120476 0.031301 0.862824
O O3 0.250758 0.055738 0.917035
O O4 0.151498 0.000000 0.000000
O O5 0.419153 0.610387 0.750000
O O6 0.500000 0.617423 0.632096
O O7 0.358913 0.672669 0.638925
O O8 0.396258 0.020330 0.750000
O O9 0.500000 0.995024 0.653443
O O10 0.363965 0.938111 0.635341
O O11 0.385388 0.078304 0.615156
O O12 0.283684 0.187630 0.882789
O O13 0.325087 0.128608 0.012705
O O14 0.699384 0.805189 0.859522
O O15 0.224259 0.787147 0.250000
#
# Coordination Sequence:
#
# PCOD9470056 Si02
#       6
#    16  16  16  16  16  16
#     4   8  16  30  48  69  90 117 153 191 228 269
#     4   9  18  31  46  65  91 123 153 181 222 278
#     4  10  20  33  50  73 100 129 162 200 243 293
#     4   9  18  33  50  68  95 130 164 193 230 290
#     4  10  19  31  50  75  98 120 155 204 247 280
#     4  10  19  31  49  71  96 126 158 195 239 285
#
# _framework density 16.307383999999999
#
# number of rings (size 3 to 8) (size 9 to 14) (size 15 to 20)
#    0.000    2.667    0.000    3.000    0.000    7.000 
#    0.000    1.667    0.000    1.000    0.000    2.333 
#    0.000    0.000    0.000    0.000    0.000    0.000 
#
# Total GULP energy -267351.461936 kJ/mol
# GULP energy per Si atom -5569.822124 kJ/mol
# Density = 1.627027 g / cm^3
# Si number density = 16.307384 Si / 1000 Ang^3
#
#
#
# Elastic Constant Matrix: (Units=GPa)
#
#
# Indices 1 2 3 4 5 6 
#
# 1 46.0502 31.8343 11.8415 0.0000 0.0000 0.0000
# 2 31.8343 71.1608 15.4943 0.0000 0.0000 0.0000
# 3 11.8415 15.4943 30.9985 0.0000 0.0000 0.0000
# 4 0.0000 0.0000 0.0000 28.8401 0.0000 0.0000
# 5 0.0000 0.0000 0.0000 0.0000 17.9898 0.0000
# 6 0.0000 0.0000 0.0000 0.0000 0.0000 1.7315
#
#
#
# Elastic Compliance Matrix: (Units=1/GPa)
#
#
# Indices 1 2 3 4 5 6 
#
# 1 0.032325 -0.013210 -0.005745 0.000000 0.000000 0.000000
# 2 -0.013210 0.021167 -0.005534 0.000000 0.000000 0.000000
# 3 -0.005745 -0.005534 0.037220 0.000000 0.000000 0.000000
# 4 0.000000 0.000000 0.000000 0.034674 0.000000 0.000000
# 5 0.000000 0.000000 0.000000 0.000000 0.055587 0.000000
# 6 0.000000 0.000000 0.000000 0.000000 0.000000 0.577550
#
#
# Mechanical properties :
#
#
# Convention : Reuss Voigt Hill
#
# Bulk Modulus (GPa) = 23.96124 29.61663 26.78894
# Shear Modulus (GPa) = 6.08707 15.64823 10.86765
#
# Velocity S-wave (km/s) = 1.93412 3.10107 2.58432
# Velocity P-wave (km/s) = 4.43995 5.56984 5.03668
#
# Compressibility (1/GPa) = 0.04173406
#
# Stress axis : x y z
#
# Youngs Moduli (GPa) = 30.93619 47.24311 26.86698
#
# Poissons Ratio (x) = 0.62407 0.15436
# Poissons Ratio (y) = 0.40866 0.14868
# Poissons Ratio (z) = 0.17774 0.26144
#
# Static dielectric constant tensor:
#      x y z
#    x 1.548070 0.000000 0.000000 
#    y 0.000000 1.542700 0.000000 
#    z 0.000000 0.000000 1.566450 
# 
# From -- ./inp_files/45767.got.cif
#   From: 2010.05.17/outbox.cif.g08.bks.cpg/sg63_23_cif.got.tgz:45767.got - 2010.06.03 15:47:04.
