data_PCOD9470112
_publ_section_title
;
Structure prediction by ZEFSAII (Michael W. Deem and Ramdas Pophale) SiO2 
 PCOD9470112
Probable space group: C M C M
;
_chemical_formula_sum "Si O2"
_cell_formula_units_Z 112
_cell_length_a 12.991903
_cell_length_b 33.914411
_cell_length_c 12.108899
_cell_angle_alpha 90.000000
_cell_angle_beta 90.000000
_cell_angle_gamma 90.000000
_cell_volume 5335.335143
_symmetry_space_group_name_H-M "C M C M"
_symmetry_group_IT_number 63
_symmetry_cell_setting 'orthorhombic'
loop_
_space_group_symop_operation_xyz
x,y,z
-x,-y,1/2+z
x,-y,-z
-x,y,1/2-z
-x,-y,-z
x,y,1/2-z
-x,y,z
x,-y,1/2+z
1/2+x,1/2+y,z
1/2-x,1/2-y,1/2+z
1/2+x,1/2-y,-z
1/2-x,1/2+y,1/2-z
1/2-x,1/2-y,-z
1/2+x,1/2+y,1/2-z
1/2-x,1/2+y,z
1/2+x,1/2-y,1/2+z
loop_
_atom_site_type_symbol
_atom_site_label
_atom_site_fract_x
_atom_site_fract_y
_atom_site_fract_z
Si Si1 0.115281 0.166690 0.956631
Si Si2 0.831814 0.104559 0.131645
Si Si3 0.113168 0.606558 0.461054
Si Si4 0.668759 0.511335 0.375897
Si Si5 0.116626 0.466930 0.126048
Si Si6 0.623249 0.263877 0.873253
Si Si7 0.830534 0.674305 0.873358
O O1 0.117863 0.127467 0.030980
O O2 0.145963 0.201988 0.040245
O O3 0.000000 0.173284 0.913546
O O4 0.209120 0.164477 0.873068
O O5 0.868550 0.120026 0.250000
O O6 0.709034 0.110086 0.119859
O O7 0.847898 0.057987 0.127283
O O8 0.129408 0.567862 0.537721
O O9 0.118896 0.644302 0.541516
O O10 0.000000 0.603757 0.410198
O O11 0.628241 0.500000 0.500000
O O12 0.633922 0.497090 0.250000
O O13 0.789404 0.497745 0.379740
O O14 0.121765 0.449539 0.250000
O O15 0.000000 0.483647 0.114792
O O16 0.665301 0.272032 0.750000
O O17 0.500000 0.263205 0.866200
O O18 0.656155 0.219942 0.905969
O O19 0.873079 0.669991 0.750000
#
# Coordination Sequence:
#
# PCOD9470112 Si02
#       7
#    16  16  16  16  16  16  16
#     4  10  21  37  56  77 103 140 186 231 274 320
#     4  10  21  35  52  77 104 136 181 230 277 324
#     4  10  19  31  49  75 111 146 179 213 261 325
#     4  10  19  33  51  74 104 139 180 228 281 337
#     4   9  17  28  45  70 101 139 180 215 255 320
#     4   9  17  31  54  82 109 138 174 216 264 322
#     4  10  20  33  52  80 111 143 178 222 272 321
#
# _framework density 20.992121000000001
#
# number of rings (size 3 to 8) (size 9 to 14) (size 15 to 20)
#    0.000    2.286    1.429    1.714    0.000    3.714 
#    0.000    1.429    0.000    0.429    0.000    4.000 
#    0.000    0.000    0.000    0.000    0.000    0.000 
#
# Total GULP energy -312200.080071 kJ/mol
# GULP energy per Si atom -5575.001430 kJ/mol
# Density = 2.094434 g / cm^3
# Si number density = 20.992121 Si / 1000 Ang^3
#
#
#
# Elastic Constant Matrix: (Units=GPa)
#
#
# Indices 1 2 3 4 5 6 
#
# 1 31.8132 -11.4360 32.6347 0.0000 0.0000 0.0000
# 2 -11.4360 67.1105 24.1611 0.0000 0.0000 0.0000
# 3 32.6347 24.1611 79.0306 0.0000 0.0000 0.0000
# 4 0.0000 0.0000 0.0000 -216.4191 0.0000 0.0000
# 5 0.0000 0.0000 0.0000 0.0000 -307.4282 0.0000
# 6 0.0000 0.0000 0.0000 0.0000 0.0000 13.2998
#
#
#
# Elastic Compliance Matrix: (Units=1/GPa)
#
#
# Indices 1 2 3 4 5 6 
#
# 1 0.093810 0.033634 -0.049020 0.000000 0.000000 0.000000
# 2 0.033634 0.028803 -0.022694 0.000000 0.000000 0.000000
# 3 -0.049020 -0.022694 0.039834 0.000000 0.000000 0.000000
# 4 0.000000 0.000000 0.000000 -0.004621 0.000000 0.000000
# 5 0.000000 0.000000 0.000000 0.000000 -0.003253 0.000000
# 6 0.000000 0.000000 0.000000 0.000000 0.000000 0.075189
#
#
# Mechanical properties :
#
#
# Convention : Reuss Voigt Hill
#
# Bulk Modulus (GPa) = 11.58943 29.85266 20.72104
# Shear Modulus (GPa) = 14.93943 -93.26987 -39.16522
#
# Velocity S-wave (km/s) = 2.67061 -6.67288 -4.32407
# Velocity P-wave (km/s) = 3.87845 6.71700 3.87787
#
# Compressibility (1/GPa) = 0.08628551
#
# Stress axis : x y z
#
# Youngs Moduli (GPa) = 10.65983 34.71902 25.10435
#
# Poissons Ratio (x) = -1.16774 1.23062
# Poissons Ratio (y) = -0.35853 0.56973
# Poissons Ratio (z) = 0.52255 0.78792
#
# Static dielectric constant tensor:
#      x y z
#    x 1.761360 0.000000 0.000000 
#    y 0.000000 1.724140 0.000000 
#    z 0.000000 0.000000 1.854140 
# 
# From -- ./inp_files/20056.got.cif
#   From: 2010.05.17/outbox.cif.g08.bks.cpg/sg63_11_cif.got.tgz:20056.got - 2010.06.03 15:47:04.
