data_PCOD9470982
_publ_section_title
;
Structure prediction by ZEFSAII (Michael W. Deem and Ramdas Pophale) SiO2 
 PCOD9470982
Probable space group: C M C M
;
_chemical_formula_sum "Si O2"
_cell_formula_units_Z 88
_cell_length_a 28.254657
_cell_length_b 17.720628
_cell_length_c 7.720633
_cell_angle_alpha 90.000000
_cell_angle_beta 90.000000
_cell_angle_gamma 90.000000
_cell_volume 3865.645790
_symmetry_space_group_name_H-M "C M C M"
_symmetry_group_IT_number 63
_symmetry_cell_setting 'orthorhombic'
loop_
_space_group_symop_operation_xyz
x,y,z
-x,-y,1/2+z
x,-y,-z
-x,y,1/2-z
-x,-y,-z
x,y,1/2-z
-x,y,z
x,-y,1/2+z
1/2+x,1/2+y,z
1/2-x,1/2-y,1/2+z
1/2+x,1/2-y,-z
1/2-x,1/2+y,1/2-z
1/2-x,1/2-y,-z
1/2+x,1/2+y,1/2-z
1/2-x,1/2+y,z
1/2+x,1/2-y,1/2+z
loop_
_atom_site_type_symbol
_atom_site_label
_atom_site_fract_x
_atom_site_fract_y
_atom_site_fract_z
Si Si1 0.344291 0.885580 0.049338
Si Si2 0.552224 0.862790 0.038992
Si Si3 0.082151 0.194497 0.049161
Si Si4 0.000000 0.913279 0.045412
Si Si5 0.743869 0.419216 0.459155
Si Si6 0.681144 0.718125 0.946477
O O1 0.347095 0.908584 0.250000
O O2 0.397409 0.897116 0.976229
O O3 0.297471 0.921391 0.968247
O O4 0.330177 0.796623 0.041514
O O5 0.552194 0.868454 0.250000
O O6 0.500000 0.889524 0.979463
O O7 0.558051 0.773879 0.995644
O O8 0.095274 0.203429 0.250000
O O9 0.045385 0.128261 0.030083
O O10 0.129739 0.179551 0.945596
O O11 0.000000 0.902122 0.250000
O O12 0.000000 0.000000 0.000000
O O13 0.720799 0.500000 0.500000
O O14 0.745549 0.412301 0.250000
O O15 0.717423 0.343330 0.520999
O O16 0.695579 0.736841 0.750000
#
# Coordination Sequence:
#
# PCOD9470982 Si02
#       6
#    16  16  16   8  16  16
#     4   9  18  33  54  80 106 137 178 222 270 324
#     4   8  13  25  50  78 101 126 162 207 253 307
#     4  10  19  34  53  74 102 134 174 217 262 314
#     4  12  24  36  50  70 100 140 181 220 265 316
#     4  10  22  37  53  75 105 141 181 223 271 332
#     4  10  20  34  53  79 107 136 177 225 272 322
#
# _framework density 22.764631999999999
#
# number of rings (size 3 to 8) (size 9 to 14) (size 15 to 20)
#    0.000    2.364    0.909    3.545    0.000    2.909 
#    0.000    1.818    0.000    0.545    0.000    0.000 
#    0.000    0.000    0.000    0.000    0.000    0.000 
#
# Total GULP energy -245441.211087 kJ/mol
# GULP energy per Si atom -5578.209343 kJ/mol
# Density = 2.271282 g / cm^3
# Si number density = 22.764632 Si / 1000 Ang^3
#
#
#
# Elastic Constant Matrix: (Units=GPa)
#
#
# Indices 1 2 3 4 5 6 
#
# 1 133.9470 15.5092 1.3218 0.0000 0.0000 0.0000
# 2 15.5092 48.5194 -6.6188 0.0000 0.0000 0.0000
# 3 1.3218 -6.6188 54.7298 0.0000 0.0000 0.0000
# 4 0.0000 0.0000 0.0000 3.4464 0.0000 0.0000
# 5 0.0000 0.0000 0.0000 0.0000 12.2703 0.0000
# 6 0.0000 0.0000 0.0000 0.0000 0.0000 3.7159
#
#
#
# Elastic Compliance Matrix: (Units=1/GPa)
#
#
# Indices 1 2 3 4 5 6 
#
# 1 0.007766 -0.002550 -0.000496 0.000000 0.000000 0.000000
# 2 -0.002550 0.021793 0.002697 0.000000 0.000000 0.000000
# 3 -0.000496 0.002697 0.018610 0.000000 0.000000 0.000000
# 4 0.000000 0.000000 0.000000 0.290158 0.000000 0.000000
# 5 0.000000 0.000000 0.000000 0.000000 0.081498 0.000000
# 6 0.000000 0.000000 0.000000 0.000000 0.000000 0.269117
#
#
# Mechanical properties :
#
#
# Convention : Reuss Voigt Hill
#
# Bulk Modulus (GPa) = 21.06530 28.62450 24.84490
# Shear Modulus (GPa) = 7.08755 19.01878 13.05316
#
# Velocity S-wave (km/s) = 1.76640 2.89356 2.39717
# Velocity P-wave (km/s) = 3.66522 4.87493 4.31270
#
# Compressibility (1/GPa) = 0.04747143
#
# Stress axis : x y z
#
# Youngs Moduli (GPa) = 128.76998 45.88556 53.73529
#
# Poissons Ratio (x) = 0.11701 0.02665
# Poissons Ratio (y) = 0.32836 -0.14493
# Poissons Ratio (z) = 0.06386 -0.12376
#
# Static dielectric constant tensor:
#      x y z
#    x 1.896160 0.000000 0.000000 
#    y 0.000000 1.829450 0.000000 
#    z 0.000000 0.000000 1.863240 
# 
# From -- ./inp_files/14172.got.cif
#   From: 2010.05.17/outbox.cif.g08.bks.cpg/sg63_8_cif.got.tgz:14172.got - 2010.06.03 15:47:04.
