data_PCOD9470402
_publ_section_title
;
Structure prediction by ZEFSAII (Michael W. Deem and Ramdas Pophale) SiO2 
 PCOD9470402
Probable space group: C M C M
;
_chemical_formula_sum "Si O2"
_cell_formula_units_Z 128
_cell_length_a 18.513896
_cell_length_b 17.866807
_cell_length_c 22.851014
_cell_angle_alpha 90.000000
_cell_angle_beta 90.000000
_cell_angle_gamma 90.000000
_cell_volume 7558.754537
_symmetry_space_group_name_H-M "C M C M"
_symmetry_group_IT_number 63
_symmetry_cell_setting 'orthorhombic'
loop_
_space_group_symop_operation_xyz
x,y,z
-x,-y,1/2+z
x,-y,-z
-x,y,1/2-z
-x,-y,-z
x,y,1/2-z
-x,y,z
x,-y,1/2+z
1/2+x,1/2+y,z
1/2-x,1/2-y,1/2+z
1/2+x,1/2-y,-z
1/2-x,1/2+y,1/2-z
1/2-x,1/2-y,-z
1/2+x,1/2+y,1/2-z
1/2-x,1/2+y,z
1/2+x,1/2-y,1/2+z
loop_
_atom_site_type_symbol
_atom_site_label
_atom_site_fract_x
_atom_site_fract_y
_atom_site_fract_z
Si Si1 0.582538 0.184005 0.652976
Si Si2 0.800928 0.390732 0.863308
Si Si3 0.416143 0.771552 0.603137
Si Si4 0.801165 0.444409 0.318770
Si Si5 0.707252 0.726241 0.185296
Si Si6 0.268970 0.914811 0.996191
Si Si7 0.294321 0.340748 0.107154
Si Si8 0.579989 0.853880 0.019392
O O1 0.500000 0.176326 0.672285
O O2 0.623037 0.257061 0.677317
O O3 0.583420 0.185077 0.582388
O O4 0.632505 0.113619 0.671665
O O5 0.870637 0.336078 0.863228
O O6 0.819460 0.474693 0.845060
O O7 0.739018 0.355907 0.822418
O O8 0.769778 0.389962 0.929155
O O9 0.500000 0.769044 0.619889
O O10 0.374222 0.693273 0.611263
O O11 0.412069 0.796900 0.534866
O O12 0.786810 0.449823 0.250000
O O13 0.732342 0.410657 0.353781
O O14 0.728235 0.754672 0.250000
O O15 0.745248 0.774252 0.134145
O O16 0.226286 0.861639 0.040833
O O17 0.352954 0.910094 0.016122
O O18 0.243127 0.000000 0.000000
O O19 0.500000 0.888916 0.013995
#
# Coordination Sequence:
#
# PCOD9470402 Si02
#       8
#    16  16  16  16  16  16  16  16
#     4  10  19  32  51  76 106 139 176 208 252 311
#     4  10  21  33  55  79 106 138 171 220 266 311
#     4   9  20  34  53  79 108 140 171 214 269 320
#     4  11  21  36  53  77 107 139 177 213 264 313
#     4  10  20  34  51  74 103 139 182 214 256 304
#     4  11  18  31  51  79 109 131 178 217 264 319
#     4  10  19  33  55  76 102 139 175 225 258 309
#     4   9  17  29  47  74 110 141 165 204 261 318
#
# _framework density 16.934007000000001
#
# number of rings (size 3 to 8) (size 9 to 14) (size 15 to 20)
#    0.000    2.000    3.750    1.875    1.750    3.250 
#    0.000    2.500    0.000   14.250    0.000    0.000 
#    0.000    0.000    0.000    0.000    0.000    0.000 
#
# Total GULP energy -356466.181444 kJ/mol
# GULP energy per Si atom -5569.784085 kJ/mol
# Density = 1.689546 g / cm^3
# Si number density = 16.934007 Si / 1000 Ang^3
#
#
#
# Elastic Constant Matrix: (Units=GPa)
#
#
# Indices 1 2 3 4 5 6 
#
# 1 100.4451 63.5540 29.4412 0.0000 0.0000 0.0000
# 2 63.5540 59.1782 11.2207 0.0000 0.0000 0.0000
# 3 29.4412 11.2207 67.7102 0.0000 0.0000 0.0000
# 4 0.0000 0.0000 0.0000 15.9530 0.0000 0.0000
# 5 0.0000 0.0000 0.0000 0.0000 10.9355 0.0000
# 6 0.0000 0.0000 0.0000 0.0000 0.0000 19.1839
#
#
#
# Elastic Compliance Matrix: (Units=1/GPa)
#
#
# Indices 1 2 3 4 5 6 
#
# 1 0.036258 -0.037116 -0.009615 0.000000 0.000000 0.000000
# 2 -0.037116 0.055441 0.006951 0.000000 0.000000 0.000000
# 3 -0.009615 0.006951 0.017797 0.000000 0.000000 0.000000
# 4 0.000000 0.000000 0.000000 0.062684 0.000000 0.000000
# 5 0.000000 0.000000 0.000000 0.000000 0.091445 0.000000
# 6 0.000000 0.000000 0.000000 0.000000 0.000000 0.052127
#
#
# Mechanical properties :
#
#
# Convention : Reuss Voigt Hill
#
# Bulk Modulus (GPa) = 33.40362 48.41834 40.91098
# Shear Modulus (GPa) = 12.33683 17.42233 14.87958
#
# Velocity S-wave (km/s) = 2.70205 3.21103 2.96747
# Velocity P-wave (km/s) = 5.43170 6.51169 5.99606
#
# Compressibility (1/GPa) = 0.02993687
#
# Stress axis : x y z
#
# Youngs Moduli (GPa) = 27.58015 18.03732 56.18768
#
# Poissons Ratio (x) = 0.66947 0.54022
# Poissons Ratio (y) = 1.02366 -0.39056
# Poissons Ratio (z) = 0.26517 -0.12538
#
# Static dielectric constant tensor:
#      x y z
#    x 1.580820 0.000000 0.000000 
#    y 0.000000 1.580860 0.000000 
#    z 0.000000 0.000000 1.604210 
# 
# From -- ./inp_files/64072.got.cif
#   From: 2010.05.17/outbox.cif.g08.bks.cpg/sg63_33_cif.got.tgz:64072.got - 2010.06.03 15:47:04.
