data_PCOD9470344
_publ_section_title
;
Structure prediction by ZEFSAII (Michael W. Deem and Ramdas Pophale) SiO2 
 PCOD9470344
Probable space group: C M C M
;
_chemical_formula_sum "Si O2"
_cell_formula_units_Z 96
_cell_length_a 22.221294
_cell_length_b 14.837226
_cell_length_c 17.285070
_cell_angle_alpha 90.000000
_cell_angle_beta 90.000000
_cell_angle_gamma 90.000000
_cell_volume 5698.928391
_symmetry_space_group_name_H-M "C M C M"
_symmetry_group_IT_number 63
_symmetry_cell_setting 'orthorhombic'
loop_
_space_group_symop_operation_xyz
x,y,z
-x,-y,1/2+z
x,-y,-z
-x,y,1/2-z
-x,-y,-z
x,y,1/2-z
-x,y,z
x,-y,1/2+z
1/2+x,1/2+y,z
1/2-x,1/2-y,1/2+z
1/2+x,1/2-y,-z
1/2-x,1/2+y,1/2-z
1/2-x,1/2-y,-z
1/2+x,1/2+y,1/2-z
1/2-x,1/2+y,z
1/2+x,1/2-y,1/2+z
loop_
_atom_site_type_symbol
_atom_site_label
_atom_site_fract_x
_atom_site_fract_y
_atom_site_fract_z
Si Si1 0.751839 0.952410 0.158430
Si Si2 0.000000 0.269012 0.840412
Si Si3 0.622691 0.551852 0.920737
Si Si4 0.200690 0.284961 0.062625
Si Si5 0.879134 0.265816 0.572203
Si Si6 0.000000 0.950859 0.339273
Si Si7 0.734803 0.843902 0.841435
O O1 0.742337 0.936246 0.250000
O O2 0.822603 0.956137 0.139163
O O3 0.722567 0.874123 0.106680
O O4 0.728304 0.051632 0.136274
O O5 0.940468 0.297513 0.887432
O O6 0.000000 0.297869 0.750000
O O7 0.000000 0.159129 0.838777
O O8 0.617024 0.658211 0.937087
O O9 0.560115 0.519728 0.883655
O O10 0.636531 0.500000 0.000000
O O11 0.205722 0.202774 0.122978
O O12 0.250000 0.250000 0.000000
O O13 0.140890 0.300560 0.012525
O O14 0.823935 0.290840 0.629012
O O15 0.000000 0.979939 0.250000
O O16 0.738308 0.838776 0.750000
#
# Coordination Sequence:
#
# PCOD9470344 Si02
#       7
#    16   8  16  16  16   8  16
#     4  11  22  33  52  79 109 146 183 223 274 330
#     4   9  18  33  55  78 103 139 180 226 276 322
#     4  11  20  32  52  76 110 144 182 226 269 323
#     4  10  19  32  50  75 107 142 172 219 274 321
#     4  10  20  33  52  78 105 137 178 224 276 318
#     4   9  19  33  49  73 106 147 186 220 268 320
#     4  10  20  33  52  78 108 143 182 225 272 320
#
# _framework density 16.845272999999999
#
# number of rings (size 3 to 8) (size 9 to 14) (size 15 to 20)
#    0.000    1.833    3.333    2.750    2.333    1.333 
#    0.000    0.000    0.000    2.000    0.000    3.500 
#    0.000    0.000    0.000    0.333    0.000    0.000 
#
# Total GULP energy -267469.416233 kJ/mol
# GULP energy per Si atom -5572.279505 kJ/mol
# Density = 1.680693 g / cm^3
# Si number density = 16.845273 Si / 1000 Ang^3
#
#
#
# Elastic Constant Matrix: (Units=GPa)
#
#
# Indices 1 2 3 4 5 6 
#
# 1 80.9959 13.8130 39.1652 0.0000 0.0000 0.0000
# 2 13.8130 75.4816 51.5352 0.0000 0.0000 0.0000
# 3 39.1652 51.5352 88.3679 0.0000 0.0000 0.0000
# 4 0.0000 0.0000 0.0000 26.3973 0.0000 0.0000
# 5 0.0000 0.0000 0.0000 0.0000 25.9235 0.0000
# 6 0.0000 0.0000 0.0000 0.0000 0.0000 15.0533
#
#
#
# Elastic Compliance Matrix: (Units=1/GPa)
#
#
# Indices 1 2 3 4 5 6 
#
# 1 0.016170 0.003213 -0.009041 0.000000 0.000000 0.000000
# 2 0.003213 0.022652 -0.014635 0.000000 0.000000 0.000000
# 3 -0.009041 -0.014635 0.023858 0.000000 0.000000 0.000000
# 4 0.000000 0.000000 0.000000 0.037883 0.000000 0.000000
# 5 0.000000 0.000000 0.000000 0.000000 0.038575 0.000000
# 6 0.000000 0.000000 0.000000 0.000000 0.000000 0.066430
#
#
# Mechanical properties :
#
#
# Convention : Reuss Voigt Hill
#
# Bulk Modulus (GPa) = 45.96392 50.43025 48.19708
# Shear Modulus (GPa) = 19.70493 22.83031 21.26762
#
# Velocity S-wave (km/s) = 3.42389 3.68543 3.55706
# Velocity P-wave (km/s) = 6.55560 6.93629 6.74863
#
# Compressibility (1/GPa) = 0.02175620
#
# Stress axis : x y z
#
# Youngs Moduli (GPa) = 61.84359 44.14614 41.91477
#
# Poissons Ratio (x) = -0.14186 0.37893
# Poissons Ratio (y) = -0.19873 0.61341
# Poissons Ratio (z) = 0.55910 0.64606
#
# Static dielectric constant tensor:
#      x y z
#    x 1.583740 0.000000 0.000000 
#    y 0.000000 1.584710 0.000000 
#    z 0.000000 0.000000 1.637170 
# 
# From -- ./inp_files/36831.got.cif
#   From: 2010.05.17/outbox.cif.g08.bks.cpg/sg63_19_cif.got.tgz:36831.got - 2010.06.03 15:47:04.
