data_PCOD9470730
_publ_section_title
;
Structure prediction by ZEFSAII (Michael W. Deem and Ramdas Pophale) SiO2 
 PCOD9470730
Probable space group: C M C M
;
_chemical_formula_sum "Si O2"
_cell_formula_units_Z 96
_cell_length_a 26.096888
_cell_length_b 24.474829
_cell_length_c 8.073114
_cell_angle_alpha 90.000000
_cell_angle_beta 90.000000
_cell_angle_gamma 90.000000
_cell_volume 5156.434115
_symmetry_space_group_name_H-M "C M C M"
_symmetry_group_IT_number 63
_symmetry_cell_setting 'orthorhombic'
loop_
_space_group_symop_operation_xyz
x,y,z
-x,-y,1/2+z
x,-y,-z
-x,y,1/2-z
-x,-y,-z
x,y,1/2-z
-x,y,z
x,-y,1/2+z
1/2+x,1/2+y,z
1/2-x,1/2-y,1/2+z
1/2+x,1/2-y,-z
1/2-x,1/2+y,1/2-z
1/2-x,1/2-y,-z
1/2+x,1/2+y,1/2-z
1/2-x,1/2+y,z
1/2+x,1/2-y,1/2+z
loop_
_atom_site_type_symbol
_atom_site_label
_atom_site_fract_x
_atom_site_fract_y
_atom_site_fract_z
Si Si1 0.308317 0.438747 0.552456
Si Si2 0.691912 0.061452 0.049745
Si Si3 0.901799 0.632933 0.449147
Si Si4 0.000000 0.062872 0.549921
Si Si5 0.000000 0.563008 0.946952
Si Si6 0.902685 0.867132 0.449293
Si Si7 0.059811 0.749889 0.452661
O O1 0.324152 0.500000 0.500000
O O2 0.306750 0.437705 0.750000
O O3 0.250189 0.429434 0.489604
O O4 0.349069 0.394373 0.494676
O O5 0.692598 0.063704 0.250000
O O6 0.650203 0.104768 0.988135
O O7 0.676693 0.000000 0.000000
O O8 0.897616 0.636450 0.250000
O O9 0.913996 0.693903 0.510799
O O10 0.949826 0.594176 0.488006
O O11 0.949289 0.094494 0.490461
O O12 0.000000 0.065336 0.750000
O O13 0.000000 0.000000 0.500000
O O14 0.000000 0.565807 0.750000
O O15 0.000000 0.500000 0.000000
O O16 0.905962 0.865850 0.250000
O O17 0.912359 0.805307 0.507885
O O18 0.060291 0.749365 0.250000
O O19 0.000000 0.750982 0.501414
#
# Coordination Sequence:
#
# PCOD9470730 Si02
#       7
#    16  16  16   8   8  16  16
#     4  10  20  35  53  76 106 138 173 216 266 315
#     4   9  19  34  54  78 104 136 174 217 263 313
#     4  10  19  35  58  80 103 137 180 219 260 311
#     4  10  20  31  46  70 100 127 161 210 257 302
#     4  12  24  35  50  78 112 141 171 216 269 320
#     4  10  19  33  53  77 103 135 176 216 256 309
#     4   9  16  31  56  79 101 136 179 216 251 305
#
# _framework density 18.617516999999999
#
# number of rings (size 3 to 8) (size 9 to 14) (size 15 to 20)
#    0.000    2.167    1.667    2.250    0.000    4.667 
#    0.000    1.667    0.000    0.000    0.000    0.000 
#    0.000    0.000    0.000    0.000    0.000    0.000 
#
# Total GULP energy -267932.593827 kJ/mol
# GULP energy per Si atom -5581.929038 kJ/mol
# Density = 1.857514 g / cm^3
# Si number density = 18.617517 Si / 1000 Ang^3
#
#
#
# Elastic Constant Matrix: (Units=GPa)
#
#
# Indices 1 2 3 4 5 6 
#
# 1 130.3328 113.4294 6.3488 0.0000 0.0000 0.0000
# 2 113.4294 207.4697 8.8400 0.0000 0.0000 0.0000
# 3 6.3488 8.8400 10.2731 0.0000 0.0000 0.0000
# 4 0.0000 0.0000 0.0000 17.7205 0.0000 0.0000
# 5 0.0000 0.0000 0.0000 0.0000 2.0587 0.0000
# 6 0.0000 0.0000 0.0000 0.0000 0.0000 2.1306
#
#
#
# Elastic Compliance Matrix: (Units=1/GPa)
#
#
# Indices 1 2 3 4 5 6 
#
# 1 0.014687 -0.007934 -0.002249 0.000000 0.000000 0.000000
# 2 -0.007934 0.009289 -0.003090 0.000000 0.000000 0.000000
# 3 -0.002249 -0.003090 0.101391 0.000000 0.000000 0.000000
# 4 0.000000 0.000000 0.000000 0.056432 0.000000 0.000000
# 5 0.000000 0.000000 0.000000 0.000000 0.485744 0.000000
# 6 0.000000 0.000000 0.000000 0.000000 0.000000 0.469353
#
#
# Mechanical properties :
#
#
# Convention : Reuss Voigt Hill
#
# Bulk Modulus (GPa) = 10.11940 67.25688 38.68814
# Shear Modulus (GPa) = 4.17926 19.01245 11.59586
#
# Velocity S-wave (km/s) = 1.49989 3.19911 2.49840
# Velocity P-wave (km/s) = 2.90634 7.06044 5.39891
#
# Compressibility (1/GPa) = 0.09882007
#
# Stress axis : x y z
#
# Youngs Moduli (GPa) = 68.08574 107.64886 9.86281
#
# Poissons Ratio (x) = 0.85410 0.02219
# Poissons Ratio (y) = 0.54020 0.03048
# Poissons Ratio (z) = 0.15315 0.33267
#
# Static dielectric constant tensor:
#      x y z
#    x 1.480970 0.000000 0.000000 
#    y 0.000000 1.631910 0.000000 
#    z 0.000000 0.000000 1.660650 
# 
# From -- ./inp_files/12800.got.cif
#   From: 2010.05.17/outbox.cif.g08.bks.cpg/sg63_7_cif.got.tgz:12800.got - 2010.06.03 15:47:04.
