data_PCOD9470408
_publ_section_title
;
Structure prediction by ZEFSAII (Michael W. Deem and Ramdas Pophale) SiO2 
 PCOD9470408
Probable space group: C M C M
;
_chemical_formula_sum "Si O2"
_cell_formula_units_Z 104
_cell_length_a 26.712647
_cell_length_b 22.173656
_cell_length_c 8.527565
_cell_angle_alpha 90.000000
_cell_angle_beta 90.000000
_cell_angle_gamma 90.000000
_cell_volume 5051.022105
_symmetry_space_group_name_H-M "C M C M"
_symmetry_group_IT_number 63
_symmetry_cell_setting 'orthorhombic'
loop_
_space_group_symop_operation_xyz
x,y,z
-x,-y,1/2+z
x,-y,-z
-x,y,1/2-z
-x,-y,-z
x,y,1/2-z
-x,y,z
x,-y,1/2+z
1/2+x,1/2+y,z
1/2-x,1/2-y,1/2+z
1/2+x,1/2-y,-z
1/2-x,1/2+y,1/2-z
1/2-x,1/2-y,-z
1/2+x,1/2+y,1/2-z
1/2-x,1/2+y,z
1/2+x,1/2-y,1/2+z
loop_
_atom_site_type_symbol
_atom_site_label
_atom_site_fract_x
_atom_site_fract_y
_atom_site_fract_z
Si Si1 0.215638 0.157701 0.934633
Si Si2 0.707804 0.063875 0.063415
Si Si3 0.356744 0.247571 0.937946
Si Si4 0.055452 0.837455 0.560562
Si Si5 0.107060 0.380686 0.939010
Si Si6 0.367719 0.566907 0.437565
Si Si7 0.500000 0.931463 0.559782
O O1 0.222153 0.164062 0.750000
O O2 0.263957 0.123882 0.004087
O O3 0.194069 0.220678 0.001591
O O4 0.172520 0.109312 0.978335
O O5 0.712378 0.062628 0.250000
O O6 0.649514 0.070635 0.017820
O O7 0.728091 0.000000 0.000000
O O8 0.354327 0.248429 0.750000
O O9 0.403081 0.289763 0.992701
O O10 0.371645 0.181866 0.995934
O O11 0.053266 0.831467 0.750000
O O12 0.078389 0.903144 0.529166
O O13 0.000000 0.828181 0.496862
O O14 0.105826 0.376748 0.750000
O O15 0.051268 0.398414 0.992593
O O16 0.364297 0.500000 0.500000
O O17 0.358825 0.569702 0.250000
O O18 0.500000 0.932216 0.750000
O O19 0.500000 0.000000 0.500000
#
# Coordination Sequence:
#
# PCOD9470408 Si02
#       7
#    16  16  16  16  16  16   8
#     4  11  22  38  60  84 116 155 196 244 299 356
#     4  11  23  40  62  89 121 157 200 247 298 355
#     4  10  21  37  60  88 119 154 199 246 294 356
#     4   8  16  31  50  74 106 143 185 237 289 340
#     4  10  23  41  62  90 125 161 197 246 301 359
#     4  10  19  32  51  76 109 148 192 241 292 353
#     4  10  22  42  66  94 128 164 205 250 303 360
#
# _framework density 20.589891999999999
#
# number of rings (size 3 to 8) (size 9 to 14) (size 15 to 20)
#    0.000    2.000    0.000    4.615    1.077    2.769 
#    0.000    0.000    0.000    8.769    0.000    0.000 
#    0.000    0.000    0.000    0.000    0.000    0.000 
#
# Total GULP energy -290322.362035 kJ/mol
# GULP energy per Si atom -5583.122347 kJ/mol
# Density = 2.054303 g / cm^3
# Si number density = 20.589892 Si / 1000 Ang^3
#
#
#
# Elastic Constant Matrix: (Units=GPa)
#
#
# Indices 1 2 3 4 5 6 
#
# 1 148.5974 52.4531 27.0985 0.0000 0.0000 0.0000
# 2 52.4531 130.0201 18.5592 0.0000 0.0000 0.0000
# 3 27.0985 18.5592 20.6821 0.0000 0.0000 0.0000
# 4 0.0000 0.0000 0.0000 29.8358 0.0000 0.0000
# 5 0.0000 0.0000 0.0000 0.0000 12.2713 0.0000
# 6 0.0000 0.0000 0.0000 0.0000 0.0000 25.8382
#
#
#
# Elastic Compliance Matrix: (Units=1/GPa)
#
#
# Indices 1 2 3 4 5 6 
#
# 1 0.009424 -0.002339 -0.010249 0.000000 0.000000 0.000000
# 2 -0.002339 0.009402 -0.005372 0.000000 0.000000 0.000000
# 3 -0.010249 -0.005372 0.066600 0.000000 0.000000 0.000000
# 4 0.000000 0.000000 0.000000 0.033517 0.000000 0.000000
# 5 0.000000 0.000000 0.000000 0.000000 0.081491 0.000000
# 6 0.000000 0.000000 0.000000 0.000000 0.000000 0.038702
#
#
# Mechanical properties :
#
#
# Convention : Reuss Voigt Hill
#
# Bulk Modulus (GPa) = 20.19950 55.05789 37.62870
# Shear Modulus (GPa) = 17.14921 27.00164 22.07542
#
# Velocity S-wave (km/s) = 2.88912 3.62526 3.27792
# Velocity P-wave (km/s) = 4.57833 6.65745 5.71326
#
# Compressibility (1/GPa) = 0.04950618
#
# Stress axis : x y z
#
# Youngs Moduli (GPa) = 106.10880 106.36593 15.01493
#
# Poissons Ratio (x) = 0.24879 0.15389
# Poissons Ratio (y) = 0.24819 0.08066
# Poissons Ratio (z) = 1.08753 0.57138
#
# Static dielectric constant tensor:
#      x y z
#    x 1.777630 0.000000 0.000000 
#    y 0.000000 1.646980 0.000000 
#    z 0.000000 0.000000 1.696610 
# 
# From -- ./inp_files/12518.got.cif
#   From: 2010.05.17/outbox.cif.g08.bks.cpg/sg63_7_cif.got.tgz:12518.got - 2010.06.03 15:47:04.
