data_PCOD9470880
_publ_section_title
;
Structure prediction by ZEFSAII (Michael W. Deem and Ramdas Pophale) SiO2 
 PCOD9470880
Probable space group: C M C M
;
_chemical_formula_sum "Si O2"
_cell_formula_units_Z 112
_cell_length_a 16.393886
_cell_length_b 18.380772
_cell_length_c 16.565774
_cell_angle_alpha 90.000000
_cell_angle_beta 90.000000
_cell_angle_gamma 90.000000
_cell_volume 4991.802462
_symmetry_space_group_name_H-M "C M C M"
_symmetry_group_IT_number 63
_symmetry_cell_setting 'orthorhombic'
loop_
_space_group_symop_operation_xyz
x,y,z
-x,-y,1/2+z
x,-y,-z
-x,y,1/2-z
-x,-y,-z
x,y,1/2-z
-x,y,z
x,-y,1/2+z
1/2+x,1/2+y,z
1/2-x,1/2-y,1/2+z
1/2+x,1/2-y,-z
1/2-x,1/2+y,1/2-z
1/2-x,1/2-y,-z
1/2+x,1/2+y,1/2-z
1/2-x,1/2+y,z
1/2+x,1/2-y,1/2+z
loop_
_atom_site_type_symbol
_atom_site_label
_atom_site_fract_x
_atom_site_fract_y
_atom_site_fract_z
Si Si1 0.677455 0.645644 0.659921
Si Si2 0.310551 0.579641 0.340930
Si Si3 0.587700 0.770737 0.028358
Si Si4 0.630894 0.965455 0.658189
Si Si5 0.593156 0.398712 0.996170
Si Si6 0.871486 0.379274 0.156538
Si Si7 0.177649 0.688263 0.384156
O O1 0.651702 0.620888 0.750000
O O2 0.635935 0.606498 0.583533
O O3 0.774317 0.634401 0.652879
O O4 0.659445 0.733006 0.653411
O O5 0.346724 0.577528 0.250000
O O6 0.230150 0.528917 0.340902
O O7 0.362919 0.562567 0.420419
O O8 0.264773 0.658022 0.354504
O O9 0.500000 0.785924 0.986432
O O10 0.592500 0.684905 0.033965
O O11 0.588581 0.813093 0.110934
O O12 0.665694 0.798517 0.978673
O O13 0.601929 0.966354 0.750000
O O14 0.619541 0.882404 0.630194
O O15 0.604891 0.041578 0.619026
O O16 0.500000 0.421586 0.005876
O O17 0.894104 0.380484 0.250000
#
# Coordination Sequence:
#
# PCOD9470880 Si02
#       7
#    16  16  16  16  16  16  16
#     4  10  19  33  56  80 103 139 185 229 271 315
#     4   9  17  32  56  78 101 137 178 224 273 317
#     4  10  21  34  49  74 112 147 175 216 271 324
#     4   8  17  33  53  76 102 133 175 225 268 310
#     4  10  21  35  51  80 115 143 176 221 272 330
#     4  10  20  34  53  78 107 137 178 226 273 322
#     4   9  17  33  54  76 100 133 183 226 259 311
#
# _framework density 22.436786000000001
#
# number of rings (size 3 to 8) (size 9 to 14) (size 15 to 20)
#    0.857    1.714    0.000    2.571    0.000    5.429 
#    0.000    2.857    0.000    6.000    0.000    4.000 
#    0.000    0.000    0.000    0.000    0.000    0.000 
#
# Total GULP energy -311740.874933 kJ/mol
# GULP energy per Si atom -5566.801338 kJ/mol
# Density = 2.238572 g / cm^3
# Si number density = 22.436786 Si / 1000 Ang^3
#
#
#
# Elastic Constant Matrix: (Units=GPa)
#
#
# Indices 1 2 3 4 5 6 
#
# 1 62.6920 5.8288 48.6192 0.0000 0.0000 0.0000
# 2 5.8288 142.2393 29.8762 0.0000 0.0000 0.0000
# 3 48.6192 29.8762 114.3171 0.0000 0.0000 0.0000
# 4 0.0000 0.0000 0.0000 -15.3233 0.0000 0.0000
# 5 0.0000 0.0000 0.0000 0.0000 -19.5337 0.0000
# 6 0.0000 0.0000 0.0000 0.0000 0.0000 -13.4900
#
#
#
# Elastic Compliance Matrix: (Units=1/GPa)
#
#
# Indices 1 2 3 4 5 6 
#
# 1 0.024002 0.001228 -0.010529 0.000000 0.000000 0.000000
# 2 0.001228 0.007502 -0.002483 0.000000 0.000000 0.000000
# 3 -0.010529 -0.002483 0.013875 0.000000 0.000000 0.000000
# 4 0.000000 0.000000 0.000000 -0.065260 0.000000 0.000000
# 5 0.000000 0.000000 0.000000 0.000000 -0.051194 0.000000
# 6 0.000000 0.000000 0.000000 0.000000 0.000000 -0.074129
#
#
# Mechanical properties :
#
#
# Convention : Reuss Voigt Hill
#
# Bulk Modulus (GPa) = 45.84924 54.21076 50.03000
# Shear Modulus (GPa) = -43.71941 5.99221 -18.86360
#
# Velocity S-wave (km/s) = -4.41904 1.63600 -2.90270
# Velocity P-wave (km/s) = 2.35754 5.27093 3.33352
#
# Compressibility (1/GPa) = 0.02181061
#
# Stress axis : x y z
#
# Youngs Moduli (GPa) = 41.66238 133.30548 72.07452
#
# Poissons Ratio (x) = -0.16370 0.75889
# Poissons Ratio (y) = -0.05116 0.17894
# Poissons Ratio (z) = 0.43867 0.33097
#
# Static dielectric constant tensor:
#      x y z
#    x 1.864370 0.000000 0.000000 
#    y 0.000000 1.893100 0.000000 
#    z 0.000000 0.000000 1.823840 
# 
# From -- ./inp_files/47453.got.cif
#   From: 2010.05.17/outbox.cif.g08.bks.cpg/sg63_24_cif.got.tgz:47453.got - 2010.06.03 15:47:04.
