data_PCOD9470422
_publ_section_title
;
Structure prediction by ZEFSAII (Michael W. Deem and Ramdas Pophale) SiO2 
 PCOD9470422
Probable space group: C M C M
;
_chemical_formula_sum "Si O2"
_cell_formula_units_Z 80
_cell_length_a 28.279975
_cell_length_b 20.558024
_cell_length_c 8.037305
_cell_angle_alpha 90.000000
_cell_angle_beta 90.000000
_cell_angle_gamma 90.000000
_cell_volume 4672.731634
_symmetry_space_group_name_H-M "C M C M"
_symmetry_group_IT_number 63
_symmetry_cell_setting 'orthorhombic'
loop_
_space_group_symop_operation_xyz
x,y,z
-x,-y,1/2+z
x,-y,-z
-x,y,1/2-z
-x,-y,-z
x,y,1/2-z
-x,y,z
x,-y,1/2+z
1/2+x,1/2+y,z
1/2-x,1/2-y,1/2+z
1/2+x,1/2-y,-z
1/2-x,1/2+y,1/2-z
1/2-x,1/2-y,-z
1/2+x,1/2+y,1/2-z
1/2-x,1/2+y,z
1/2+x,1/2-y,1/2+z
loop_
_atom_site_type_symbol
_atom_site_label
_atom_site_fract_x
_atom_site_fract_y
_atom_site_fract_z
Si Si1 0.385082 0.240120 0.434141
Si Si2 0.214155 0.693501 0.553714
Si Si3 0.880341 0.102607 0.561601
Si Si4 0.553732 0.243597 0.750000
Si Si5 0.774972 0.929250 0.948304
Si Si6 0.054773 0.097763 0.250000
O O1 0.404037 0.226218 0.250000
O O2 0.334817 0.205739 0.459607
O O3 0.378081 0.318467 0.445516
O O4 0.419225 0.221932 0.584639
O O5 0.205020 0.698919 0.750000
O O6 0.250000 0.750000 0.500000
O O7 0.240066 0.626334 0.512741
O O8 0.894693 0.084212 0.750000
O O9 0.827243 0.079068 0.525907
O O10 0.915871 0.079623 0.416323
O O11 0.500000 0.221626 0.750000
O O12 0.553701 0.322891 0.750000
O O13 0.779584 0.923588 0.750000
O O14 0.757102 0.000000 0.000000
O O15 0.000000 0.075618 0.250000
#
# Coordination Sequence:
#
# PCOD9470422 Si02
#       6
#    16  16  16   8  16   8
#     4  10  19  32  51  79 110 142 183 225 267 324
#     4  12  22  34  54  82 112 148 188 226 269 328
#     4  10  19  33  52  76 104 138 183 225 271 328
#     4   9  18  32  50  75 110 144 176 226 281 325
#     4  12  24  38  54  79 110 147 186 226 276 333
#     4   9  18  32  52  75 100 136 180 230 283 325
#
# _framework density 17.120607
#
# number of rings (size 3 to 8) (size 9 to 14) (size 15 to 20)
#    0.000    1.400    4.000    3.600    0.000    0.800 
#    0.000    4.000    0.000    0.600    0.000    0.000 
#    0.000    0.800    0.400    0.000    0.000    0.000 
#
# Total GULP energy -223470.521879 kJ/mol
# GULP energy per Si atom -5586.763047 kJ/mol
# Density = 1.708164 g / cm^3
# Si number density = 17.120607 Si / 1000 Ang^3
#
#
#
# Elastic Constant Matrix: (Units=GPa)
#
#
# Indices 1 2 3 4 5 6 
#
# 1 96.1333 26.7456 44.4879 0.0000 0.0000 0.0000
# 2 26.7456 60.3309 23.1651 0.0000 0.0000 0.0000
# 3 44.4879 23.1651 149.8918 0.0000 0.0000 0.0000
# 4 0.0000 0.0000 0.0000 18.4277 0.0000 0.0000
# 5 0.0000 0.0000 0.0000 0.0000 19.3233 0.0000
# 6 0.0000 0.0000 0.0000 0.0000 0.0000 2.6833
#
#
#
# Elastic Compliance Matrix: (Units=1/GPa)
#
#
# Indices 1 2 3 4 5 6 
#
# 1 0.013163 -0.004609 -0.003194 0.000000 0.000000 0.000000
# 2 -0.004609 0.019235 -0.001605 0.000000 0.000000 0.000000
# 3 -0.003194 -0.001605 0.007868 0.000000 0.000000 0.000000
# 4 0.000000 0.000000 0.000000 0.054266 0.000000 0.000000
# 5 0.000000 0.000000 0.000000 0.000000 0.051751 0.000000
# 6 0.000000 0.000000 0.000000 0.000000 0.000000 0.372676
#
#
# Mechanical properties :
#
#
# Convention : Reuss Voigt Hill
#
# Bulk Modulus (GPa) = 46.62200 55.01702 50.81951
# Shear Modulus (GPa) = 9.17560 22.21736 15.69648
#
# Velocity S-wave (km/s) = 2.31755 3.60626 3.03119
# Velocity P-wave (km/s) = 5.86958 7.03882 6.48062
#
# Compressibility (1/GPa) = 0.02144910
#
# Stress axis : x y z
#
# Youngs Moduli (GPa) = 75.97210 51.98982 127.10359
#
# Poissons Ratio (x) = 0.23960 0.40603
# Poissons Ratio (y) = 0.35013 0.20397
# Poissons Ratio (z) = 0.24269 0.08343
#
# Static dielectric constant tensor:
#      x y z
#    x 1.573310 0.000000 0.000000 
#    y 0.000000 1.549650 0.000000 
#    z 0.000000 0.000000 1.603370 
# 
# From -- ./inp_files/12284.got.cif
#   From: 2010.05.17/outbox.cif.g08.bks.cpg/sg63_7_cif.got.tgz:12284.got - 2010.06.03 15:47:04.
