data_PCOD9470281
_publ_section_title
;
Structure prediction by ZEFSAII (Michael W. Deem and Ramdas Pophale) SiO2 
 PCOD9470281
Probable space group: C M C M
;
_chemical_formula_sum "Si O2"
_cell_formula_units_Z 96
_cell_length_a 25.889740
_cell_length_b 9.809804
_cell_length_c 22.750407
_cell_angle_alpha 90.000000
_cell_angle_beta 90.000000
_cell_angle_gamma 90.000000
_cell_volume 5777.995374
_symmetry_space_group_name_H-M "C M C M"
_symmetry_group_IT_number 63
_symmetry_cell_setting 'orthorhombic'
loop_
_space_group_symop_operation_xyz
x,y,z
-x,-y,1/2+z
x,-y,-z
-x,y,1/2-z
-x,-y,-z
x,y,1/2-z
-x,y,z
x,-y,1/2+z
1/2+x,1/2+y,z
1/2-x,1/2-y,1/2+z
1/2+x,1/2-y,-z
1/2-x,1/2+y,1/2-z
1/2-x,1/2-y,-z
1/2+x,1/2+y,1/2-z
1/2-x,1/2+y,z
1/2+x,1/2-y,1/2+z
loop_
_atom_site_type_symbol
_atom_site_label
_atom_site_fract_x
_atom_site_fract_y
_atom_site_fract_z
Si Si1 0.441494 0.607057 0.415567
Si Si2 0.941925 0.210968 0.543621
Si Si3 0.720212 0.495969 0.750000
Si Si4 0.817434 0.691783 0.250000
Si Si5 0.164989 0.049133 0.129541
Si Si6 0.744870 0.875261 0.543431
Si Si7 0.848693 0.275264 0.620214
O O1 0.500000 0.638035 0.394407
O O2 0.430957 0.696256 0.474093
O O3 0.442255 0.447372 0.434921
O O4 0.392017 0.614194 0.373509
O O5 0.900419 0.292207 0.581861
O O6 0.000000 0.264100 0.551168
O O7 0.777524 0.433942 0.750000
O O8 0.713515 0.661540 0.750000
O O9 0.691627 0.439527 0.807533
O O10 0.849820 0.689730 0.310576
O O11 0.202377 0.108183 0.079814
O O12 0.161835 0.887130 0.117125
O O13 0.750000 0.750000 0.500000
O O14 0.698559 0.852479 0.589305
O O15 0.735449 0.000000 0.500000
#
# Coordination Sequence:
#
# PCOD9470281 Si02
#       7
#    16  16   8   8  16  16  16
#     4   8  14  25  44  70  98 129 161 197 249 299
#     4   8  14  26  46  70  97 129 161 200 247 294
#     4  10  20  34  49  69  99 139 166 201 244 296
#     4  10  20  34  51  69  99 137 168 201 244 292
#     4  10  19  32  49  70 102 131 166 205 246 294
#     4  12  22  31  48  73 101 130 158 205 253 293
#     4  10  19  33  49  71 101 131 166 205 246 298
#
# _framework density 16.614758999999999
#
# number of rings (size 3 to 8) (size 9 to 14) (size 15 to 20)
#    0.000    2.333    3.333    2.000    2.333    0.000 
#    0.000    0.833    0.000    5.500    0.000    0.000 
#    0.000    1.333    0.000    0.000    0.000    0.000 
#
# Total GULP energy -267297.264924 kJ/mol
# GULP energy per Si atom -5568.693019 kJ/mol
# Density = 1.657694 g / cm^3
# Si number density = 16.614759 Si / 1000 Ang^3
#
#
#
# Elastic Constant Matrix: (Units=GPa)
#
#
# Indices 1 2 3 4 5 6 
#
# 1 86.1612 10.3464 25.6430 0.0000 0.0000 0.0000
# 2 10.3464 29.9109 20.9666 0.0000 0.0000 0.0000
# 3 25.6430 20.9666 68.1858 0.0000 0.0000 0.0000
# 4 0.0000 0.0000 0.0000 16.3877 0.0000 0.0000
# 5 0.0000 0.0000 0.0000 0.0000 25.6295 0.0000
# 6 0.0000 0.0000 0.0000 0.0000 0.0000 11.6121
#
#
#
# Elastic Compliance Matrix: (Units=1/GPa)
#
#
# Indices 1 2 3 4 5 6 
#
# 1 0.013113 -0.001376 -0.004509 0.000000 0.000000 0.000000
# 2 -0.001376 0.042763 -0.012632 0.000000 0.000000 0.000000
# 3 -0.004509 -0.012632 0.020246 0.000000 0.000000 0.000000
# 4 0.000000 0.000000 0.000000 0.061021 0.000000 0.000000
# 5 0.000000 0.000000 0.000000 0.000000 0.039018 0.000000
# 6 0.000000 0.000000 0.000000 0.000000 0.000000 0.086117
#
#
# Mechanical properties :
#
#
# Convention : Reuss Voigt Hill
#
# Bulk Modulus (GPa) = 25.58226 33.12999 29.35613
# Shear Modulus (GPa) = 16.00820 19.21265 17.61042
#
# Velocity S-wave (km/s) = 3.10739 3.40422 3.25918
# Velocity P-wave (km/s) = 5.32026 5.95273 5.64536
#
# Compressibility (1/GPa) = 0.03908958
#
# Stress axis : x y z
#
# Youngs Moduli (GPa) = 76.25926 23.38466 49.39339
#
# Poissons Ratio (x) = 0.03217 0.22269
# Poissons Ratio (y) = 0.10490 0.62394
# Poissons Ratio (z) = 0.34382 0.29540
#
# Static dielectric constant tensor:
#      x y z
#    x 1.588350 0.000000 0.000000 
#    y 0.000000 1.548540 0.000000 
#    z 0.000000 0.000000 1.568280 
# 
# From -- ./inp_files/57538.got.cif
#   From: 2010.05.17/outbox.cif.g08.bks.cpg/sg63_29_cif.got.tgz:57538.got - 2010.06.03 15:47:04.
