data_PCOD9470801
_publ_section_title
;
Structure prediction by ZEFSAII (Michael W. Deem and Ramdas Pophale) SiO2 
 PCOD9470801
Probable space group: C M C M
;
_chemical_formula_sum "Si O2"
_cell_formula_units_Z 80
_cell_length_a 7.490236
_cell_length_b 21.058752
_cell_length_c 23.375747
_cell_angle_alpha 90.000000
_cell_angle_beta 90.000000
_cell_angle_gamma 90.000000
_cell_volume 3687.173975
_symmetry_space_group_name_H-M "C M C M"
_symmetry_group_IT_number 63
_symmetry_cell_setting 'orthorhombic'
loop_
_space_group_symop_operation_xyz
x,y,z
-x,-y,1/2+z
x,-y,-z
-x,y,1/2-z
-x,-y,-z
x,y,1/2-z
-x,y,z
x,-y,1/2+z
1/2+x,1/2+y,z
1/2-x,1/2-y,1/2+z
1/2+x,1/2-y,-z
1/2-x,1/2+y,1/2-z
1/2-x,1/2-y,-z
1/2+x,1/2+y,1/2-z
1/2-x,1/2+y,z
1/2+x,1/2-y,1/2+z
loop_
_atom_site_type_symbol
_atom_site_label
_atom_site_fract_x
_atom_site_fract_y
_atom_site_fract_z
Si Si1 0.708213 0.260767 0.365053
Si Si2 0.283803 0.358684 0.559495
Si Si3 0.280605 0.194225 0.250000
Si Si4 0.719238 0.383995 0.070969
Si Si5 0.286981 0.047883 0.250000
Si Si6 0.789987 0.015757 0.376883
O O1 0.500000 0.272683 0.353136
O O2 0.721027 0.207351 0.413964
O O3 0.781761 0.230162 0.306983
O O4 0.782322 0.326841 0.388452
O O5 0.500000 0.356898 0.561151
O O6 0.228572 0.370189 0.494259
O O7 0.218760 0.417858 0.598096
O O8 0.500000 0.192642 0.250000
O O9 0.221423 0.120934 0.250000
O O10 0.500000 0.383906 0.071677
O O11 0.781284 0.452435 0.093228
O O12 0.500000 0.049642 0.250000
O O13 0.229914 0.014954 0.191297
O O14 0.000000 0.016696 0.390436
#
# Coordination Sequence:
#
# PCOD9470801 Si02
#       6
#    16  16   8  16   8  16
#     4  10  19  34  55  77 103 140 180 216 259 310
#     4  10  19  33  54  80 109 139 173 217 264 308
#     4   9  18  32  51  73  99 132 172 215 255 305
#     4   9  19  34  54  80 108 138 175 218 261 311
#     4  11  21  36  55  77 107 136 174 221 265 309
#     4  10  20  35  56  80 106 139 177 214 260 316
#
# _framework density 21.696835
#
# number of rings (size 3 to 8) (size 9 to 14) (size 15 to 20)
#    0.000    2.200    2.000    1.500    0.000    3.200 
#    0.000    5.500    0.000    2.400    0.000    0.000 
#    0.000    0.000    0.000    0.000    0.000    0.000 
#
# Total GULP energy -223520.661459 kJ/mol
# GULP energy per Si atom -5588.016536 kJ/mol
# Density = 2.164745 g / cm^3
# Si number density = 21.696835 Si / 1000 Ang^3
#
#
#
# Elastic Constant Matrix: (Units=GPa)
#
#
# Indices 1 2 3 4 5 6 
#
# 1 55.5296 -4.4218 -13.5377 0.0000 0.0000 0.0000
# 2 -4.4218 61.7404 -20.3628 0.0000 0.0000 0.0000
# 3 -13.5377 -20.3628 59.9319 0.0000 0.0000 0.0000
# 4 0.0000 0.0000 0.0000 45.7254 0.0000 0.0000
# 5 0.0000 0.0000 0.0000 0.0000 3.8725 0.0000
# 6 0.0000 0.0000 0.0000 0.0000 0.0000 3.4023
#
#
#
# Elastic Compliance Matrix: (Units=1/GPa)
#
#
# Indices 1 2 3 4 5 6 
#
# 1 0.019613 0.003227 0.005527 0.000000 0.000000 0.000000
# 2 0.003227 0.018772 0.007107 0.000000 0.000000 0.000000
# 3 0.005527 0.007107 0.020349 0.000000 0.000000 0.000000
# 4 0.000000 0.000000 0.000000 0.021870 0.000000 0.000000
# 5 0.000000 0.000000 0.000000 0.000000 0.258232 0.000000
# 6 0.000000 0.000000 0.000000 0.000000 0.000000 0.293921
#
#
# Mechanical properties :
#
#
# Convention : Reuss Voigt Hill
#
# Bulk Modulus (GPa) = 11.05505 11.17304 11.11404
# Shear Modulus (GPa) = 7.92160 24.96830 16.44495
#
# Velocity S-wave (km/s) = 1.91284 3.39600 2.75606
# Velocity P-wave (km/s) = 3.15989 4.53187 3.90658
#
# Compressibility (1/GPa) = 0.09045643
#
# Stress axis : x y z
#
# Youngs Moduli (GPa) = 50.98711 53.27078 49.14297
#
# Poissons Ratio (x) = -0.17193 -0.27160
# Poissons Ratio (y) = -0.16456 -0.34926
# Poissons Ratio (z) = -0.28180 -0.37860
#
# Static dielectric constant tensor:
#      x y z
#    x 1.838530 0.000000 0.000000 
#    y 0.000000 1.754400 0.000000 
#    z 0.000000 0.000000 1.800550 
# 
# From -- ./inp_files/50900.got.cif
#   From: 2010.05.17/outbox.cif.g08.bks.cpg/sg63_26_cif.got.tgz:50900.got - 2010.06.03 15:47:04.
