data_PCOD9470174
_publ_section_title
;
Structure prediction by ZEFSAII (Michael W. Deem and Ramdas Pophale) SiO2 
 PCOD9470174
Probable space group: C M C M
;
_chemical_formula_sum "Si O2"
_cell_formula_units_Z 96
_cell_length_a 7.373647
_cell_length_b 21.859651
_cell_length_c 26.337093
_cell_angle_alpha 90.000000
_cell_angle_beta 90.000000
_cell_angle_gamma 90.000000
_cell_volume 4245.153554
_symmetry_space_group_name_H-M "C M C M"
_symmetry_group_IT_number 63
_symmetry_cell_setting 'orthorhombic'
loop_
_space_group_symop_operation_xyz
x,y,z
-x,-y,1/2+z
x,-y,-z
-x,y,1/2-z
-x,-y,-z
x,y,1/2-z
-x,y,z
x,-y,1/2+z
1/2+x,1/2+y,z
1/2-x,1/2-y,1/2+z
1/2+x,1/2-y,-z
1/2-x,1/2+y,1/2-z
1/2-x,1/2-y,-z
1/2+x,1/2+y,1/2-z
1/2-x,1/2+y,z
1/2+x,1/2-y,1/2+z
loop_
_atom_site_type_symbol
_atom_site_label
_atom_site_fract_x
_atom_site_fract_y
_atom_site_fract_z
Si Si1 0.721248 0.495260 0.147402
Si Si2 0.289039 0.745681 0.645422
Si Si3 0.282837 0.305580 0.038964
Si Si4 0.718653 0.626454 0.189976
Si Si5 0.205942 0.796038 0.250000
Si Si6 0.204676 0.060611 0.750000
Si Si7 0.778462 0.054552 0.962027
O O1 0.500000 0.492725 0.145190
O O2 0.772399 0.564415 0.161389
O O3 0.786264 0.458902 0.196840
O O4 0.779760 0.466070 0.094440
O O5 0.500000 0.725675 0.645895
O O6 0.213455 0.718196 0.593690
O O7 0.281101 0.818065 0.654297
O O8 0.203943 0.722671 0.697773
O O9 0.500000 0.310733 0.042031
O O10 0.219306 0.375104 0.026789
O O11 0.250000 0.250000 0.000000
O O12 0.778050 0.629389 0.250000
O O13 0.500000 0.628064 0.191874
O O14 0.189356 0.867730 0.250000
O O15 0.000000 0.768562 0.250000
O O16 0.000000 0.032477 0.750000
O O17 0.000000 0.055165 0.963575
O O18 0.721480 0.000000 0.000000
#
# Coordination Sequence:
#
# PCOD9470174 Si02
#       7
#    16  16  16  16   8   8  16
#     4   9  16  27  45  72 104 130 164 215 264 310
#     4  10  20  34  51  75 107 141 177 213 259 322
#     4  10  22  38  57  82 110 142 183 228 274 328
#     4  10  19  31  50  81 111 137 172 214 264 319
#     4   9  16  27  47  71  99 135 168 207 262 318
#     4   9  14  23  42  67  95 125 156 205 264 306
#     4   9  18  32  51  76 104 135 174 222 272 316
#
# _framework density 22.614023
#
# number of rings (size 3 to 8) (size 9 to 14) (size 15 to 20)
#    0.000    2.500    1.667    1.000    2.333    4.667 
#    0.000    0.000    0.000    1.500    0.000    2.333 
#    0.000    0.000    0.000    0.000    0.000    0.000 
#
# Total GULP energy -267691.752794 kJ/mol
# GULP energy per Si atom -5576.911517 kJ/mol
# Density = 2.256255 g / cm^3
# Si number density = 22.614023 Si / 1000 Ang^3
#
#
#
# Elastic Constant Matrix: (Units=GPa)
#
#
# Indices 1 2 3 4 5 6 
#
# 1 82.5398 2.0334 7.7176 0.0000 0.0000 0.0000
# 2 2.0334 185.0444 106.4842 0.0000 0.0000 0.0000
# 3 7.7176 106.4842 189.9721 0.0000 0.0000 0.0000
# 4 0.0000 0.0000 0.0000 40.5281 0.0000 0.0000
# 5 0.0000 0.0000 0.0000 0.0000 1.6010 0.0000
# 6 0.0000 0.0000 0.0000 0.0000 0.0000 16.3323
#
#
#
# Elastic Compliance Matrix: (Units=1/GPa)
#
#
# Indices 1 2 3 4 5 6 
#
# 1 0.012168 0.000223 -0.000619 0.000000 0.000000 0.000000
# 2 0.000223 0.007981 -0.004483 0.000000 0.000000 0.000000
# 3 -0.000619 -0.004483 0.007802 0.000000 0.000000 0.000000
# 4 0.000000 0.000000 0.000000 0.024674 0.000000 0.000000
# 5 0.000000 0.000000 0.000000 0.000000 0.624622 0.000000
# 6 0.000000 0.000000 0.000000 0.000000 0.000000 0.061229
#
#
# Mechanical properties :
#
#
# Convention : Reuss Voigt Hill
#
# Bulk Modulus (GPa) = 54.96838 76.66965 65.81901
# Shear Modulus (GPa) = 6.62867 34.44701 20.53784
#
# Velocity S-wave (km/s) = 1.71394 3.90713 3.01689
# Velocity P-wave (km/s) = 5.31759 7.37098 6.42683
#
# Compressibility (1/GPa) = 0.01819228
#
# Stress axis : x y z
#
# Youngs Moduli (GPa) = 82.18432 125.29342 128.17606
#
# Poissons Ratio (x) = -0.02788 0.07935
# Poissons Ratio (y) = -0.01829 0.57458
# Poissons Ratio (z) = 0.05088 0.56166
#
# Static dielectric constant tensor:
#      x y z
#    x 1.834580 0.000000 0.000000 
#    y 0.000000 1.873790 0.000000 
#    z 0.000000 0.000000 1.813300 
# 
# From -- ./inp_files/61718.got.cif
#   From: 2010.05.17/outbox.cif.g08.bks.cpg/sg63_31_cif.got.tgz:61718.got - 2010.06.03 15:47:04.
