data_PCOD9470032
_publ_section_title
;
Structure prediction by ZEFSAII (Michael W. Deem and Ramdas Pophale) SiO2 
 PCOD9470032
Probable space group: C M C M
;
_chemical_formula_sum "Si O2"
_cell_formula_units_Z 80
_cell_length_a 28.172403
_cell_length_b 18.399227
_cell_length_c 8.557997
_cell_angle_alpha 90.000000
_cell_angle_beta 90.000000
_cell_angle_gamma 90.000000
_cell_volume 4436.041493
_symmetry_space_group_name_H-M "C M C M"
_symmetry_group_IT_number 63
_symmetry_cell_setting 'orthorhombic'
loop_
_space_group_symop_operation_xyz
x,y,z
-x,-y,1/2+z
x,-y,-z
-x,y,1/2-z
-x,-y,-z
x,y,1/2-z
-x,y,z
x,-y,1/2+z
1/2+x,1/2+y,z
1/2-x,1/2-y,1/2+z
1/2+x,1/2-y,-z
1/2-x,1/2+y,1/2-z
1/2-x,1/2-y,-z
1/2+x,1/2+y,1/2-z
1/2-x,1/2+y,z
1/2+x,1/2-y,1/2+z
loop_
_atom_site_type_symbol
_atom_site_label
_atom_site_fract_x
_atom_site_fract_y
_atom_site_fract_z
Si Si1 0.188487 0.868750 0.563420
Si Si2 0.910951 0.923999 0.062830
Si Si3 0.845948 0.283988 0.561713
Si Si4 0.948394 0.767541 0.060311
Si Si5 0.210820 0.579265 0.563803
O O1 0.191315 0.871790 0.750000
O O2 0.141747 0.910816 0.504795
O O3 0.181677 0.785523 0.507733
O O4 0.235772 0.902180 0.490717
O O5 0.908222 0.926250 0.250000
O O6 0.940345 0.852145 0.018066
O O7 0.930159 0.000000 0.000000
O O8 0.843650 0.279281 0.750000
O O9 0.901040 0.274935 0.511314
O O10 0.822753 0.358014 0.504482
O O11 0.948826 0.764570 0.250000
O O12 0.000000 0.742359 0.003922
O O13 0.197827 0.500000 0.500000
O O14 0.208696 0.579835 0.750000
#
# Coordination Sequence:
#
# PCOD9470032 Si02
#       5
#    16  16  16  16  16
#     4  11  21  35  54  77 107 143 181 214 252 302
#     4  10  19  31  48  73 107 143 179 217 259 305
#     4  10  20  36  57  81 108 138 174 214 258 307
#     4   8  16  32  54  77 101 133 173 216 262 311
#     4  12  24  38  55  78 108 139 174 214 260 309
#
# _framework density 18.034096000000002
#
# number of rings (size 3 to 8) (size 9 to 14) (size 15 to 20)
#    0.000    1.800    0.000    7.200    0.000    0.400 
#    0.000    0.000    0.000   21.600    0.000    0.000 
#    0.000    0.000    0.000    0.000    0.000    0.000 
#
# Total GULP energy -223457.265374 kJ/mol
# GULP energy per Si atom -5586.431634 kJ/mol
# Density = 1.799305 g / cm^3
# Si number density = 18.034096 Si / 1000 Ang^3
#
#
#
# Elastic Constant Matrix: (Units=GPa)
#
#
# Indices 1 2 3 4 5 6 
#
# 1 45.8412 -3.4057 -7.4261 0.0000 0.0000 0.0000
# 2 -3.4057 55.8782 -3.3448 0.0000 0.0000 0.0000
# 3 -7.4261 -3.3448 65.3080 0.0000 0.0000 0.0000
# 4 0.0000 0.0000 0.0000 31.9608 0.0000 0.0000
# 5 0.0000 0.0000 0.0000 0.0000 11.1233 0.0000
# 6 0.0000 0.0000 0.0000 0.0000 0.0000 5.7935
#
#
#
# Elastic Compliance Matrix: (Units=1/GPa)
#
#
# Indices 1 2 3 4 5 6 
#
# 1 0.022352 0.001519 0.002619 0.000000 0.000000 0.000000
# 2 0.001519 0.018054 0.001097 0.000000 0.000000 0.000000
# 3 0.002619 0.001097 0.015666 0.000000 0.000000 0.000000
# 4 0.000000 0.000000 0.000000 0.031288 0.000000 0.000000
# 5 0.000000 0.000000 0.000000 0.000000 0.089901 0.000000
# 6 0.000000 0.000000 0.000000 0.000000 0.000000 0.172608
#
#
# Mechanical properties :
#
#
# Convention : Reuss Voigt Hill
#
# Bulk Modulus (GPa) = 15.02767 15.40822 15.21794
# Shear Modulus (GPa) = 13.82823 21.85577 17.84200
#
# Velocity S-wave (km/s) = 2.77209 3.48503 3.14880
# Velocity P-wave (km/s) = 4.31242 4.97558 4.65582
#
# Compressibility (1/GPa) = 0.06654393
#
# Stress axis : x y z
#
# Youngs Moduli (GPa) = 44.73942 55.38829 63.83199
#
# Poissons Ratio (x) = -0.08414 -0.16720
# Poissons Ratio (y) = -0.06796 -0.07005
# Poissons Ratio (z) = -0.11719 -0.06078
#
# Static dielectric constant tensor:
#      x y z
#    x 1.621790 0.000000 0.000000 
#    y 0.000000 1.604240 0.000000 
#    z 0.000000 0.000000 1.604290 
# 
# From -- ./inp_files/12046.got.cif
#   From: 2010.05.17/outbox.cif.g08.bks.cpg/sg63_7_cif.got.tgz:12046.got - 2010.06.03 15:47:04.
