data_PCOD9470330
_publ_section_title
;
Structure prediction by ZEFSAII (Michael W. Deem and Ramdas Pophale) SiO2 
 PCOD9470330
Probable space group: C M C M
;
_chemical_formula_sum "Si O2"
_cell_formula_units_Z 96
_cell_length_a 9.067259
_cell_length_b 28.490400
_cell_length_c 19.906952
_cell_angle_alpha 90.000000
_cell_angle_beta 90.000000
_cell_angle_gamma 90.000000
_cell_volume 5142.559642
_symmetry_space_group_name_H-M "C M C M"
_symmetry_group_IT_number 63
_symmetry_cell_setting 'orthorhombic'
loop_
_space_group_symop_operation_xyz
x,y,z
-x,-y,1/2+z
x,-y,-z
-x,y,1/2-z
-x,-y,-z
x,y,1/2-z
-x,y,z
x,-y,1/2+z
1/2+x,1/2+y,z
1/2-x,1/2-y,1/2+z
1/2+x,1/2-y,-z
1/2-x,1/2+y,1/2-z
1/2-x,1/2-y,-z
1/2+x,1/2+y,1/2-z
1/2-x,1/2+y,z
1/2+x,1/2-y,1/2+z
loop_
_atom_site_type_symbol
_atom_site_label
_atom_site_fract_x
_atom_site_fract_y
_atom_site_fract_z
Si Si1 0.667724 0.064319 0.878125
Si Si2 0.832839 0.337669 0.328999
Si Si3 0.169485 0.977213 0.575402
Si Si4 0.825715 0.743503 0.330161
Si Si5 0.832475 0.609983 0.025804
Si Si6 0.823494 0.207353 0.457956
O O1 0.500000 0.055196 0.855422
O O2 0.725746 0.110034 0.840016
O O3 0.760412 0.017062 0.877673
O O4 0.661523 0.083384 0.954454
O O5 0.849442 0.331083 0.250000
O O6 0.725121 0.296250 0.350336
O O7 0.000000 0.334023 0.359375
O O8 0.259303 0.928774 0.574046
O O9 0.000000 0.968220 0.591611
O O10 0.173787 0.000000 0.500000
O O11 0.798348 0.736464 0.250000
O O12 0.730860 0.711983 0.380586
O O13 0.000000 0.737545 0.341611
O O14 0.737783 0.657046 0.018110
O O15 0.000000 0.621737 0.045810
O O16 0.750000 0.250000 0.500000
O O17 0.000000 0.210145 0.462877
#
# Coordination Sequence:
#
# PCOD9470330 Si02
#       6
#    16  16  16  16  16  16
#     4   9  17  29  47  71  99 131 164 202 251 305
#     4   9  17  30  49  73 101 133 169 208 252 304
#     4   9  17  29  46  69  96 127 162 200 247 306
#     4  10  21  37  56  78 106 141 180 219 263 318
#     4  10  19  32  50  73 102 133 167 209 258 309
#     4  12  24  37  55  80 110 141 177 222 270 316
#
# _framework density 18.667746000000001
#
# number of rings (size 3 to 8) (size 9 to 14) (size 15 to 20)
#    0.000    2.167    0.000    4.000    0.000    5.667 
#    0.000    0.000    0.000    1.000    0.000    2.333 
#    0.000    0.000    0.000    0.000    0.000    0.000 
#
# Total GULP energy -267585.899331 kJ/mol
# GULP energy per Si atom -5574.706236 kJ/mol
# Density = 1.862526 g / cm^3
# Si number density = 18.667746 Si / 1000 Ang^3
#
#
#
# Elastic Constant Matrix: (Units=GPa)
#
#
# Indices 1 2 3 4 5 6 
#
# 1 119.5848 46.4374 21.2388 0.0000 0.0000 0.0000
# 2 46.4374 81.4679 5.0067 0.0000 0.0000 0.0000
# 3 21.2388 5.0067 21.9485 0.0000 0.0000 0.0000
# 4 0.0000 0.0000 0.0000 27.7275 0.0000 0.0000
# 5 0.0000 0.0000 0.0000 0.0000 17.9121 0.0000
# 6 0.0000 0.0000 0.0000 0.0000 0.0000 28.5242
#
#
#
# Elastic Compliance Matrix: (Units=1/GPa)
#
#
# Indices 1 2 3 4 5 6 
#
# 1 0.012904 -0.006682 -0.010962 0.000000 0.000000 0.000000
# 2 -0.006682 0.015909 0.002837 0.000000 0.000000 0.000000
# 3 -0.010962 0.002837 0.055522 0.000000 0.000000 0.000000
# 4 0.000000 0.000000 0.000000 0.036065 0.000000 0.000000
# 5 0.000000 0.000000 0.000000 0.000000 0.055828 0.000000
# 6 0.000000 0.000000 0.000000 0.000000 0.000000 0.035058
#
#
# Mechanical properties :
#
#
# Convention : Reuss Voigt Hill
#
# Bulk Modulus (GPa) = 18.27485 40.92966 29.60226
# Shear Modulus (GPa) = 19.29448 24.85400 22.07424
#
# Velocity S-wave (km/s) = 3.21841 3.65278 3.44245
# Velocity P-wave (km/s) = 4.86021 6.30581 5.62961
#
# Compressibility (1/GPa) = 0.05472000
#
# Stress axis : x y z
#
# Youngs Moduli (GPa) = 77.49613 62.85737 18.01081
#
# Poissons Ratio (x) = 0.41999 0.19744
# Poissons Ratio (y) = 0.51780 -0.05109
# Poissons Ratio (z) = 0.84955 -0.17830
#
# Static dielectric constant tensor:
#      x y z
#    x 1.651260 0.000000 0.000000 
#    y 0.000000 1.658350 0.000000 
#    z 0.000000 0.000000 1.693400 
# 
# From -- ./inp_files/51301.got.cif
#   From: 2010.05.17/outbox.cif.g08.bks.cpg/sg63_26_cif.got.tgz:51301.got - 2010.06.03 15:47:04.
