data_PCOD9470522
_publ_section_title
;
Structure prediction by ZEFSAII (Michael W. Deem and Ramdas Pophale) SiO2 
 PCOD9470522
Probable space group: C M C M
;
_chemical_formula_sum "Si O2"
_cell_formula_units_Z 96
_cell_length_a 19.963370
_cell_length_b 15.569566
_cell_length_c 14.456521
_cell_angle_alpha 90.000000
_cell_angle_beta 90.000000
_cell_angle_gamma 90.000000
_cell_volume 4493.390412
_symmetry_space_group_name_H-M "C M C M"
_symmetry_group_IT_number 63
_symmetry_cell_setting 'orthorhombic'
loop_
_space_group_symop_operation_xyz
x,y,z
-x,-y,1/2+z
x,-y,-z
-x,y,1/2-z
-x,-y,-z
x,y,1/2-z
-x,y,z
x,-y,1/2+z
1/2+x,1/2+y,z
1/2-x,1/2-y,1/2+z
1/2+x,1/2-y,-z
1/2-x,1/2+y,1/2-z
1/2-x,1/2-y,-z
1/2+x,1/2+y,1/2-z
1/2-x,1/2+y,z
1/2+x,1/2-y,1/2+z
loop_
_atom_site_type_symbol
_atom_site_label
_atom_site_fract_x
_atom_site_fract_y
_atom_site_fract_z
Si Si1 0.423782 0.267099 0.909664
Si Si2 0.214113 0.887162 0.141310
Si Si3 0.303140 0.957072 0.637026
Si Si4 0.076996 0.573513 0.640059
Si Si5 0.271946 0.710030 0.140286
Si Si6 0.926893 0.086495 0.561937
O O1 0.500000 0.276851 0.866300
O O2 0.414176 0.163734 0.913778
O O3 0.352472 0.298340 0.868032
O O4 0.427862 0.327485 0.999394
O O5 0.228845 0.885195 0.250000
O O6 0.243254 0.799116 0.101210
O O7 0.136038 0.901432 0.126953
O O8 0.252964 0.969007 0.104810
O O9 0.302958 0.952478 0.750000
O O10 0.272733 0.868050 0.602863
O O11 0.375478 0.995096 0.612071
O O12 0.090631 0.593752 0.750000
O O13 0.000000 0.547852 0.632202
O O14 0.259187 0.711625 0.250000
O O15 0.000000 0.077993 0.607250
O O16 0.918166 0.000000 0.500000
#
# Coordination Sequence:
#
# PCOD9470522 Si02
#       6
#    16  16  16  16  16  16
#     4  10  19  32  53  79 108 143 183 231 284 332
#     4  10  20  36  57  80 109 146 187 231 281 336
#     4   9  17  31  50  76 110 143 179 228 279 326
#     4   9  16  29  51  77 106 141 181 228 281 330
#     4  10  19  32  53  83 116 149 186 230 280 336
#     4  10  22  39  56  78 111 148 187 234 286 337
#
# _framework density 21.364713999999999
#
# number of rings (size 3 to 8) (size 9 to 14) (size 15 to 20)
#    0.000    2.333    1.667    1.500    0.000    2.000 
#    0.000    1.667    0.000   12.000    0.000    3.500 
#    0.000    0.000    0.000    0.000    0.000    0.000 
#
# Total GULP energy -267521.163359 kJ/mol
# GULP energy per Si atom -5573.357570 kJ/mol
# Density = 2.131609 g / cm^3
# Si number density = 21.364714 Si / 1000 Ang^3
#
#
#
# Elastic Constant Matrix: (Units=GPa)
#
#
# Indices 1 2 3 4 5 6 
#
# 1 124.5665 52.1212 8.5442 0.0000 0.0000 0.0000
# 2 52.1212 101.3299 24.7758 0.0000 0.0000 0.0000
# 3 8.5442 24.7758 29.3690 0.0000 0.0000 0.0000
# 4 0.0000 0.0000 0.0000 16.0554 0.0000 0.0000
# 5 0.0000 0.0000 0.0000 0.0000 1.7018 0.0000
# 6 0.0000 0.0000 0.0000 0.0000 0.0000 139.5348
#
#
#
# Elastic Compliance Matrix: (Units=1/GPa)
#
#
# Indices 1 2 3 4 5 6 
#
# 1 0.010309 -0.005757 0.001857 0.000000 0.000000 0.000000
# 2 -0.005757 0.015648 -0.011526 0.000000 0.000000 0.000000
# 3 0.001857 -0.011526 0.043233 0.000000 0.000000 0.000000
# 4 0.000000 0.000000 0.000000 0.062284 0.000000 0.000000
# 5 0.000000 0.000000 0.000000 0.000000 0.587629 0.000000
# 6 0.000000 0.000000 0.000000 0.000000 0.000000 0.007167
#
#
# Mechanical properties :
#
#
# Convention : Reuss Voigt Hill
#
# Bulk Modulus (GPa) = 26.08326 47.34977 36.71651
# Shear Modulus (GPa) = 6.49434 42.77999 24.63717
#
# Velocity S-wave (km/s) = 1.74538 4.47964 3.39952
# Velocity P-wave (km/s) = 4.03694 6.99764 5.71243
#
# Compressibility (1/GPa) = 0.03833876
#
# Stress axis : x y z
#
# Youngs Moduli (GPa) = 97.00012 63.90538 23.13073
#
# Poissons Ratio (x) = 0.36790 -0.04296
# Poissons Ratio (y) = 0.55842 0.26660
# Poissons Ratio (z) = -0.18016 0.73657
#
# Static dielectric constant tensor:
#      x y z
#    x 1.785240 0.000000 0.000000 
#    y 0.000000 1.821720 0.000000 
#    z 0.000000 0.000000 1.832630 
# 
# From -- ./inp_files/35386.got.cif
#   From: 2010.05.17/outbox.cif.g08.bks.cpg/sg63_18_cif.got.tgz:35386.got - 2010.06.03 15:47:04.
