data_PCOD9470564
_publ_section_title
;
Structure prediction by ZEFSAII (Michael W. Deem and Ramdas Pophale) SiO2 
 PCOD9470564
Probable space group: C M C M
;
_chemical_formula_sum "Si O2"
_cell_formula_units_Z 84
_cell_length_a 16.063759
_cell_length_b 16.887715
_cell_length_c 14.444262
_cell_angle_alpha 90.000000
_cell_angle_beta 90.000000
_cell_angle_gamma 90.000000
_cell_volume 3918.442051
_symmetry_space_group_name_H-M "C M C M"
_symmetry_group_IT_number 63
_symmetry_cell_setting 'orthorhombic'
loop_
_space_group_symop_operation_xyz
x,y,z
-x,-y,1/2+z
x,-y,-z
-x,y,1/2-z
-x,-y,-z
x,y,1/2-z
-x,y,z
x,-y,1/2+z
1/2+x,1/2+y,z
1/2-x,1/2-y,1/2+z
1/2+x,1/2-y,-z
1/2-x,1/2+y,1/2-z
1/2-x,1/2-y,-z
1/2+x,1/2+y,1/2-z
1/2-x,1/2+y,z
1/2+x,1/2-y,1/2+z
loop_
_atom_site_type_symbol
_atom_site_label
_atom_site_fract_x
_atom_site_fract_y
_atom_site_fract_z
Si Si1 0.757435 0.114397 0.353317
Si Si2 0.500000 0.118964 0.750000
Si Si3 0.619062 0.172595 0.911608
Si Si4 0.301332 0.298083 0.357834
Si Si5 0.094504 0.152907 0.029252
Si Si6 0.589280 0.933522 0.921909
O O1 0.790924 0.105671 0.250000
O O2 0.722484 0.204653 0.363271
O O3 0.831905 0.100785 0.425398
O O4 0.674162 0.062853 0.365664
O O5 0.571168 0.126887 0.831714
O O6 0.717102 0.161800 0.896102
O O7 0.597677 0.265925 0.909511
O O8 0.593094 0.143775 0.013010
O O9 0.316332 0.316361 0.250000
O O10 0.374815 0.322525 0.426753
O O11 0.000000 0.122599 0.030224
O O12 0.500000 0.936868 0.870932
O O13 0.590156 0.000000 0.000000
#
# Coordination Sequence:
#
# PCOD9470564 Si02
#       6
#    16   4  16  16  16  16
#     4  10  21  36  55  81 113 147 186 227 278 333
#     4  12  20  28  58  80 108 144 186 228 278 326
#     4  11  19  34  51  80 112 141 178 227 276 326
#     4  10  19  32  54  80 113 145 179 225 281 338
#     4  11  20  32  57  82 114 144 178 227 282 336
#     4  11  22  38  56  77 111 152 188 226 269 322
#
# _framework density 21.437092
#
# number of rings (size 3 to 8) (size 9 to 14) (size 15 to 20)
#    0.000    1.333    6.667    1.143    1.333    1.143 
#    1.714    1.905    0.000    0.571    0.000    0.000 
#    0.000    0.000    0.000    0.000    0.000    0.000 
#
# Total GULP energy -233891.948466 kJ/mol
# GULP energy per Si atom -5568.855916 kJ/mol
# Density = 2.138830 g / cm^3
# Si number density = 21.437092 Si / 1000 Ang^3
#
#
#
# Elastic Constant Matrix: (Units=GPa)
#
#
# Indices 1 2 3 4 5 6 
#
# 1 171.8796 13.2301 63.1765 0.0000 0.0000 0.0000
# 2 13.2301 9.9603 -13.5946 0.0000 0.0000 0.0000
# 3 63.1765 -13.5946 104.6957 0.0000 0.0000 0.0000
# 4 0.0000 0.0000 0.0000 3.1002 0.0000 0.0000
# 5 0.0000 0.0000 0.0000 0.0000 44.0828 0.0000
# 6 0.0000 0.0000 0.0000 0.0000 0.0000 11.1821
#
#
#
# Elastic Compliance Matrix: (Units=1/GPa)
#
#
# Indices 1 2 3 4 5 6 
#
# 1 0.012870 -0.033660 -0.012137 0.000000 0.000000 0.000000
# 2 -0.033660 0.210060 0.047588 0.000000 0.000000 0.000000
# 3 -0.012137 0.047588 0.023054 0.000000 0.000000 0.000000
# 4 0.000000 0.000000 0.000000 0.322562 0.000000 0.000000
# 5 0.000000 0.000000 0.000000 0.000000 0.022685 0.000000
# 6 0.000000 0.000000 0.000000 0.000000 0.000000 0.089429
#
#
# Mechanical properties :
#
#
# Convention : Reuss Voigt Hill
#
# Bulk Modulus (GPa) = 4.00696 45.79551 24.90124
# Shear Modulus (GPa) = 6.57663 26.58791 16.58227
#
# Velocity S-wave (km/s) = 1.75344 3.52558 2.78426
# Velocity P-wave (km/s) = 2.44389 6.16296 4.68800
#
# Compressibility (1/GPa) = 0.24956554
#
# Stress axis : x y z
#
# Youngs Moduli (GPa) = 77.69990 4.76054 43.37560
#
# Poissons Ratio (x) = 0.16024 0.52645
# Poissons Ratio (y) = 2.61541 -2.06414
# Poissons Ratio (z) = 0.94304 -0.22654
#
# Static dielectric constant tensor:
#      x y z
#    x 1.813650 0.000000 0.000000 
#    y 0.000000 1.861420 0.000000 
#    z 0.000000 0.000000 1.761170 
# 
# From -- ./inp_files/31736.got.cif
#   From: 2010.05.17/outbox.cif.g08.bks.cpg/sg63_16_cif.got.tgz:31736.got - 2010.06.03 15:47:04.
