data_PCOD9470547
_publ_section_title
;
Structure prediction by ZEFSAII (Michael W. Deem and Ramdas Pophale) SiO2 
 PCOD9470547
Probable space group: C M C M
;
_chemical_formula_sum "Si O2"
_cell_formula_units_Z 64
_cell_length_a 25.298819
_cell_length_b 7.975177
_cell_length_c 15.185675
_cell_angle_alpha 90.000000
_cell_angle_beta 90.000000
_cell_angle_gamma 90.000000
_cell_volume 3063.900654
_symmetry_space_group_name_H-M "C M C M"
_symmetry_group_IT_number 63
_symmetry_cell_setting 'orthorhombic'
loop_
_space_group_symop_operation_xyz
x,y,z
-x,-y,1/2+z
x,-y,-z
-x,y,1/2-z
-x,-y,-z
x,y,1/2-z
-x,y,z
x,-y,1/2+z
1/2+x,1/2+y,z
1/2-x,1/2-y,1/2+z
1/2+x,1/2-y,-z
1/2-x,1/2+y,1/2-z
1/2-x,1/2-y,-z
1/2+x,1/2+y,1/2-z
1/2-x,1/2+y,z
1/2+x,1/2-y,1/2+z
loop_
_atom_site_type_symbol
_atom_site_label
_atom_site_fract_x
_atom_site_fract_y
_atom_site_fract_z
Si Si1 0.500000 0.762019 0.347565
Si Si2 0.890483 0.768823 0.148726
Si Si3 0.810994 0.202756 0.000332
Si Si4 0.112165 0.827841 0.850603
Si Si5 0.000000 0.610477 0.089996
O O1 0.500000 0.680299 0.250000
O O2 0.445192 0.712146 0.391170
O O3 0.500000 0.960136 0.340362
O O4 0.886228 0.707365 0.250000
O O5 0.843109 0.721184 0.082361
O O6 0.946707 0.715034 0.107335
O O7 0.886182 0.970947 0.152482
O O8 0.750000 0.250000 0.000000
O O9 0.842372 0.248922 0.089241
O O10 0.814200 0.000000 0.000000
O O11 0.114411 0.764445 0.750000
O O12 0.000000 0.500000 0.000000
#
# Coordination Sequence:
#
# PCOD9470547 Si02
#       5
#     8  16  16  16   8
#     4  10  19  32  53  84 113 136 172 228 283 332
#     4  10  21  39  60  82 113 157 197 232 285 359
#     4  10  22  38  56  80 110 146 193 242 285 337
#     4   9  19  37  60  83 112 151 193 234 285 350
#     4  12  23  34  54  86 121 150 185 236 295 348
#
# _framework density 20.888404999999999
#
# number of rings (size 3 to 8) (size 9 to 14) (size 15 to 20)
#    0.000    2.000    0.000    3.375    0.000    6.000 
#    0.000    5.000    0.000    0.000    0.000    0.000 
#    0.000    0.000    0.000    0.000    0.000    0.000 
#
# Total GULP energy -178512.291457 kJ/mol
# GULP energy per Si atom -5578.509108 kJ/mol
# Density = 2.084086 g / cm^3
# Si number density = 20.888405 Si / 1000 Ang^3
#
#
#
# Elastic Constant Matrix: (Units=GPa)
#
#
# Indices 1 2 3 4 5 6 
#
# 1 214.7058 3.6368 102.0305 0.0000 0.0000 0.0000
# 2 3.6368 14.9782 16.9255 0.0000 0.0000 0.0000
# 3 102.0305 16.9255 175.3934 0.0000 0.0000 0.0000
# 4 0.0000 0.0000 0.0000 19.6792 0.0000 0.0000
# 5 0.0000 0.0000 0.0000 0.0000 116.8828 0.0000
# 6 0.0000 0.0000 0.0000 0.0000 0.0000 37.4657
#
#
#
# Elastic Compliance Matrix: (Units=1/GPa)
#
#
# Indices 1 2 3 4 5 6 
#
# 1 0.006559 0.003052 -0.004110 0.000000 0.000000 0.000000
# 2 0.003052 0.076355 -0.009143 0.000000 0.000000 0.000000
# 3 -0.004110 -0.009143 0.008975 0.000000 0.000000 0.000000
# 4 0.000000 0.000000 0.000000 0.050815 0.000000 0.000000
# 5 0.000000 0.000000 0.000000 0.000000 0.008556 0.000000
# 6 0.000000 0.000000 0.000000 0.000000 0.000000 0.026691
#
#
# Mechanical properties :
#
#
# Convention : Reuss Voigt Hill
#
# Bulk Modulus (GPa) = 13.98898 72.25144 43.12021
# Shear Modulus (GPa) = 22.50408 53.63784 38.07096
#
# Velocity S-wave (km/s) = 3.28586 5.07287 4.27381
# Velocity P-wave (km/s) = 4.59428 8.30520 6.71132
#
# Compressibility (1/GPa) = 0.07148485
#
# Stress axis : x y z
#
# Youngs Moduli (GPa) = 152.46331 13.09677 111.42441
#
# Poissons Ratio (x) = -0.03997 0.45795
# Poissons Ratio (y) = -0.46528 1.01881
# Poissons Ratio (z) = 0.62662 0.11975
#
# Static dielectric constant tensor:
#      x y z
#    x 1.724810 0.000000 0.000000 
#    y 0.000000 1.752800 0.000000 
#    z 0.000000 0.000000 1.838660 
# 
# From -- ./inp_files/36225.got.cif
#   From: 2010.05.17/outbox.cif.g08.bks.cpg/sg63_19_cif.got.tgz:36225.got - 2010.06.03 15:47:04.
