data_PCOD9470045
_publ_section_title
;
Structure prediction by ZEFSAII (Michael W. Deem and Ramdas Pophale) SiO2 
 PCOD9470045
Probable space group: C M C M
;
_chemical_formula_sum "Si O2"
_cell_formula_units_Z 48
_cell_length_a 7.310459
_cell_length_b 39.189338
_cell_length_c 7.873834
_cell_angle_alpha 90.000000
_cell_angle_beta 90.000000
_cell_angle_gamma 90.000000
_cell_volume 2255.790834
_symmetry_space_group_name_H-M "C M C M"
_symmetry_group_IT_number 63
_symmetry_cell_setting 'orthorhombic'
loop_
_space_group_symop_operation_xyz
x,y,z
-x,-y,1/2+z
x,-y,-z
-x,y,1/2-z
-x,-y,-z
x,y,1/2-z
-x,y,z
x,-y,1/2+z
1/2+x,1/2+y,z
1/2-x,1/2-y,1/2+z
1/2+x,1/2-y,-z
1/2-x,1/2+y,1/2-z
1/2-x,1/2-y,-z
1/2+x,1/2+y,1/2-z
1/2-x,1/2+y,z
1/2+x,1/2-y,1/2+z
loop_
_atom_site_type_symbol
_atom_site_label
_atom_site_fract_x
_atom_site_fract_y
_atom_site_fract_z
Si Si1 0.276073 0.835397 0.250000
Si Si2 0.281750 0.211254 0.059449
Si Si3 0.223098 0.413874 0.250000
Si Si4 0.777160 0.537986 0.057118
O O1 0.500000 0.834921 0.250000
O O2 0.214553 0.814829 0.416713
O O3 0.219195 0.874665 0.250000
O O4 0.209759 0.206335 0.250000
O O5 0.500000 0.206640 0.067143
O O6 0.250000 0.250000 0.000000
O O7 0.281088 0.434545 0.417500
O O8 0.000000 0.414076 0.250000
O O9 0.718769 0.544872 0.250000
O O10 0.000000 0.538058 0.057093
O O11 0.721735 0.500000 0.000000
#
# Coordination Sequence:
#
# PCOD9470045 Si02
#       4
#     8  16   8  16
#     4   9  18  30  41  59  86 109 141 191 231 263
#     4  10  19  31  49  69  89 117 153 188 226 273
#     4   9  16  24  34  49  72 101 131 175 225 253
#     4   9  14  20  31  46  65  93 132 173 210 251
#
# _framework density 21.278569000000001
#
# number of rings (size 3 to 8) (size 9 to 14) (size 15 to 20)
#    0.000    2.667    3.333    0.000    0.000    1.333 
#    0.000    6.667    0.000    0.000    0.000    0.000 
#    0.000    0.000    0.000    0.000    0.000    6.667 
#
# Total GULP energy -134087.173393 kJ/mol
# GULP energy per Si atom -5586.965558 kJ/mol
# Density = 2.123014 g / cm^3
# Si number density = 21.278569 Si / 1000 Ang^3
#
#
#
# Elastic Constant Matrix: (Units=GPa)
#
#
# Indices 1 2 3 4 5 6 
#
# 1 88.0711 2.5734 11.1739 0.0000 0.0000 0.0000
# 2 2.5734 229.1370 157.0250 0.0000 0.0000 0.0000
# 3 11.1739 157.0250 283.5489 0.0000 0.0000 0.0000
# 4 0.0000 0.0000 0.0000 39.7076 0.0000 0.0000
# 5 0.0000 0.0000 0.0000 0.0000 -9.3013 0.0000
# 6 0.0000 0.0000 0.0000 0.0000 0.0000 0.7648
#
#
#
# Elastic Compliance Matrix: (Units=1/GPa)
#
#
# Indices 1 2 3 4 5 6 
#
# 1 0.011424 0.000290 -0.000611 0.000000 0.000000 0.000000
# 2 0.000290 0.007041 -0.003911 0.000000 0.000000 0.000000
# 3 -0.000611 -0.003911 0.005716 0.000000 0.000000 0.000000
# 4 0.000000 0.000000 0.000000 0.025184 0.000000 0.000000
# 5 0.000000 0.000000 0.000000 0.000000 -0.107512 0.000000
# 6 0.000000 0.000000 0.000000 0.000000 0.000000 1.307573
#
#
# Mechanical properties :
#
#
# Convention : Reuss Voigt Hill
#
# Bulk Modulus (GPa) = 63.61944 104.70017 84.15980
# Shear Modulus (GPa) = 3.95843 34.89987 19.42915
#
# Velocity S-wave (km/s) = 1.36540 4.05426 3.02501
# Velocity P-wave (km/s) = 5.69641 8.43963 7.19988
#
# Compressibility (1/GPa) = 0.01571847
#
# Stress axis : x y z
#
# Youngs Moduli (GPa) = 87.53884 142.02995 174.93570
#
# Poissons Ratio (x) = -0.04125 0.10688
# Poissons Ratio (y) = -0.02542 0.68409
# Poissons Ratio (z) = 0.05349 0.55541
#
# Static dielectric constant tensor:
#      x y z
#    x 2.314920 0.000000 0.000000 
#    y 0.000000 1.691730 0.000000 
#    z 0.000000 0.000000 1.744100 
# 
# From -- ./inp_files/2697.got.cif
#   From: 2010.05.17/outbox.cif.g08.bks.cpg/sg63_2_cif.got.tgz:2697.got - 2010.06.03 15:47:04.
