data_PCOD9470948
_publ_section_title
;
Structure prediction by ZEFSAII (Michael W. Deem and Ramdas Pophale) SiO2 
 PCOD9470948
Probable space group: C M C M
;
_chemical_formula_sum "Si O2"
_cell_formula_units_Z 64
_cell_length_a 8.355685
_cell_length_b 27.731597
_cell_length_c 13.784254
_cell_angle_alpha 90.000000
_cell_angle_beta 90.000000
_cell_angle_gamma 90.000000
_cell_volume 3194.038941
_symmetry_space_group_name_H-M "C M C M"
_symmetry_group_IT_number 63
_symmetry_cell_setting 'orthorhombic'
loop_
_space_group_symop_operation_xyz
x,y,z
-x,-y,1/2+z
x,-y,-z
-x,y,1/2-z
-x,-y,-z
x,y,1/2-z
-x,y,z
x,-y,1/2+z
1/2+x,1/2+y,z
1/2-x,1/2-y,1/2+z
1/2+x,1/2-y,-z
1/2-x,1/2+y,1/2-z
1/2-x,1/2-y,-z
1/2+x,1/2+y,1/2-z
1/2-x,1/2+y,z
1/2+x,1/2-y,1/2+z
loop_
_atom_site_type_symbol
_atom_site_label
_atom_site_fract_x
_atom_site_fract_y
_atom_site_fract_z
Si Si1 0.804151 0.667353 0.750000
Si Si2 0.695887 0.057303 0.750000
Si Si3 0.691515 0.802159 0.466264
Si Si4 0.310292 0.628498 0.360602
Si Si5 0.684632 0.021957 0.394413
O O1 0.750592 0.611751 0.750000
O O2 0.752061 0.688447 0.854733
O O3 0.000000 0.669559 0.750000
O O4 0.500000 0.059827 0.750000
O O5 0.750127 0.023818 0.662981
O O6 0.500000 0.803177 0.462824
O O7 0.750000 0.750000 0.500000
O O8 0.742039 0.840799 0.549018
O O9 0.251187 0.640535 0.250000
O O10 0.500000 0.636541 0.360126
O O11 0.274526 0.571972 0.378976
O O12 0.500000 0.031526 0.364497
O O13 0.680980 0.000000 0.500000
#
# Coordination Sequence:
#
# PCOD9470948 Si02
#       5
#     8   8  16  16  16
#     4   9  20  40  64  91 124 159 200 259 316 373
#     4   9  16  30  54  85 116 151 196 241 298 359
#     4  11  24  43  68  95 124 161 209 262 323 381
#     4  11  24  41  61  90 131 172 213 259 311 370
#     4  10  19  33  58  89 121 159 207 258 307 368
#
# _framework density 20.037326
#
# number of rings (size 3 to 8) (size 9 to 14) (size 15 to 20)
#    0.000    1.750    1.250    3.000    1.750    6.000 
#    0.000    1.875    0.000    1.500    0.000    0.000 
#    0.000    0.000    0.000    0.000    0.000    0.000 
#
# Total GULP energy -178347.701633 kJ/mol
# GULP energy per Si atom -5573.365676 kJ/mol
# Density = 1.999172 g / cm^3
# Si number density = 20.037326 Si / 1000 Ang^3
#
#
#
# Elastic Constant Matrix: (Units=GPa)
#
#
# Indices 1 2 3 4 5 6 
#
# 1 33.4071 15.5812 28.9685 0.0000 0.0000 0.0000
# 2 15.5812 157.1654 103.2977 0.0000 0.0000 0.0000
# 3 28.9685 103.2977 215.7292 0.0000 0.0000 0.0000
# 4 0.0000 0.0000 0.0000 22.6490 0.0000 0.0000
# 5 0.0000 0.0000 0.0000 0.0000 23.1126 0.0000
# 6 0.0000 0.0000 0.0000 0.0000 0.0000 33.2171
#
#
#
# Elastic Compliance Matrix: (Units=1/GPa)
#
#
# Indices 1 2 3 4 5 6 
#
# 1 0.033910 -0.000538 -0.004296 0.000000 0.000000 0.000000
# 2 -0.000538 0.009293 -0.004378 0.000000 0.000000 0.000000
# 3 -0.004296 -0.004378 0.007308 0.000000 0.000000 0.000000
# 4 0.000000 0.000000 0.000000 0.044152 0.000000 0.000000
# 5 0.000000 0.000000 0.000000 0.000000 0.043266 0.000000
# 6 0.000000 0.000000 0.000000 0.000000 0.000000 0.030105
#
#
# Mechanical properties :
#
#
# Convention : Reuss Voigt Hill
#
# Bulk Modulus (GPa) = 31.16420 77.99962 54.58191
# Shear Modulus (GPa) = 25.36083 33.02602 29.19342
#
# Velocity S-wave (km/s) = 3.56150 4.06424 3.82115
# Velocity P-wave (km/s) = 5.70081 7.81254 6.83867
#
# Compressibility (1/GPa) = 0.03208810
#
# Stress axis : x y z
#
# Youngs Moduli (GPa) = 29.49000 107.60424 136.82875
#
# Poissons Ratio (x) = 0.05794 0.58777
# Poissons Ratio (y) = 0.01588 0.59898
# Poissons Ratio (z) = 0.12668 0.47105
#
# Static dielectric constant tensor:
#      x y z
#    x 1.734310 0.000000 0.000000 
#    y 0.000000 1.664540 0.000000 
#    z 0.000000 0.000000 1.720870 
# 
# From -- ./inp_files/27619.got.cif
#   From: 2010.05.17/outbox.cif.g08.bks.cpg/sg63_14_cif.got.tgz:27619.got - 2010.06.03 15:47:04.
