data_PCOD9470560
_publ_section_title
;
Structure prediction by ZEFSAII (Michael W. Deem and Ramdas Pophale) SiO2 
 PCOD9470560
Probable space group: C M C M
;
_chemical_formula_sum "Si O2"
_cell_formula_units_Z 88
_cell_length_a 11.241612
_cell_length_b 29.071642
_cell_length_c 13.245220
_cell_angle_alpha 90.000000
_cell_angle_beta 90.000000
_cell_angle_gamma 90.000000
_cell_volume 4328.698422
_symmetry_space_group_name_H-M "C M C M"
_symmetry_group_IT_number 63
_symmetry_cell_setting 'orthorhombic'
loop_
_space_group_symop_operation_xyz
x,y,z
-x,-y,1/2+z
x,-y,-z
-x,y,1/2-z
-x,-y,-z
x,y,1/2-z
-x,y,z
x,-y,1/2+z
1/2+x,1/2+y,z
1/2-x,1/2-y,1/2+z
1/2+x,1/2-y,-z
1/2-x,1/2+y,1/2-z
1/2-x,1/2-y,-z
1/2+x,1/2+y,1/2-z
1/2-x,1/2+y,z
1/2+x,1/2-y,1/2+z
loop_
_atom_site_type_symbol
_atom_site_label
_atom_site_fract_x
_atom_site_fract_y
_atom_site_fract_z
Si Si1 0.000000 0.818124 0.003762
Si Si2 0.863752 0.617983 0.058477
Si Si3 0.730021 0.534301 0.133569
Si Si4 0.500000 0.411563 0.625505
Si Si5 0.000000 0.724631 0.631053
Si Si6 0.138733 0.442439 0.133316
Si Si7 0.758118 0.302571 0.466694
O O1 0.000000 0.862902 0.931524
O O2 0.000000 0.772184 0.933217
O O3 0.875691 0.816677 0.066319
O O4 0.827812 0.574496 0.125179
O O5 0.000000 0.629796 0.075478
O O6 0.845052 0.598526 0.944857
O O7 0.785931 0.663744 0.061502
O O8 0.701031 0.526117 0.250000
O O9 0.613328 0.558506 0.090714
O O10 0.780553 0.485277 0.100421
O O11 0.500000 0.405682 0.750000
O O12 0.878200 0.697369 0.601613
O O13 0.000000 0.733793 0.750000
O O14 0.161570 0.430315 0.250000
O O15 0.000000 0.456889 0.126258
O O16 0.750000 0.250000 0.500000
#
# Coordination Sequence:
#
# PCOD9470560 Si02
#       7
#     8  16  16   8   8  16  16
#     4  10  19  38  60  82 118 152 193 236 298 346
#     4  11  20  34  56  82 111 147 193 234 293 350
#     4  10  20  34  52  79 112 145 186 237 292 350
#     4  10  19  32  54  79 107 148 192 232 277 352
#     4  10  21  38  62  88 113 151 200 247 293 352
#     4   9  19  35  55  79 109 144 187 240 289 339
#     4  10  21  37  58  86 116 151 188 242 292 344
#
# _framework density 20.329436999999999
#
# number of rings (size 3 to 8) (size 9 to 14) (size 15 to 20)
#    0.000    2.000    2.727    1.364    0.000    3.273 
#    0.000    3.182    0.000    0.000    0.000    0.000 
#    0.000    0.000    0.000    0.000    0.000    0.000 
#
# Total GULP energy -245070.137125 kJ/mol
# GULP energy per Si atom -5569.775844 kJ/mol
# Density = 2.028317 g / cm^3
# Si number density = 20.329437 Si / 1000 Ang^3
#
#
#
# Elastic Constant Matrix: (Units=GPa)
#
#
# Indices 1 2 3 4 5 6 
#
# 1 135.4440 25.4812 11.2640 0.0000 0.0000 0.0000
# 2 25.4812 102.8024 -12.2398 0.0000 0.0000 0.0000
# 3 11.2640 -12.2398 35.6165 0.0000 0.0000 0.0000
# 4 0.0000 0.0000 0.0000 15.4755 0.0000 0.0000
# 5 0.0000 0.0000 0.0000 0.0000 16.7204 0.0000
# 6 0.0000 0.0000 0.0000 0.0000 0.0000 35.1983
#
#
#
# Elastic Compliance Matrix: (Units=1/GPa)
#
#
# Indices 1 2 3 4 5 6 
#
# 1 0.008121 -0.002418 -0.003399 0.000000 0.000000 0.000000
# 2 -0.002418 0.010862 0.004497 0.000000 0.000000 0.000000
# 3 -0.003399 0.004497 0.030697 0.000000 0.000000 0.000000
# 4 0.000000 0.000000 0.000000 0.064618 0.000000 0.000000
# 5 0.000000 0.000000 0.000000 0.000000 0.059807 0.000000
# 6 0.000000 0.000000 0.000000 0.000000 0.000000 0.028410
#
#
# Mechanical properties :
#
#
# Convention : Reuss Voigt Hill
#
# Bulk Modulus (GPa) = 21.25768 35.87485 28.56627
# Shear Modulus (GPa) = 22.64135 30.10267 26.37201
#
# Velocity S-wave (km/s) = 3.34087 3.85222 3.60562
# Velocity P-wave (km/s) = 5.03599 6.12137 5.60501
#
# Compressibility (1/GPa) = 0.04704183
#
# Stress axis : x y z
#
# Youngs Moduli (GPa) = 123.14343 92.06335 32.57603
#
# Poissons Ratio (x) = 0.22256 0.11073
# Poissons Ratio (y) = 0.29770 -0.14651
# Poissons Ratio (z) = 0.41857 -0.41404
#
# Static dielectric constant tensor:
#      x y z
#    x 1.787430 0.000000 0.000000 
#    y 0.000000 1.736670 0.000000 
#    z 0.000000 0.000000 1.740750 
# 
# From -- ./inp_files/30177.got.cif
#   From: 2010.05.17/outbox.cif.g08.bks.cpg/sg63_16_cif.got.tgz:30177.got - 2010.06.03 15:47:04.
