data_PCOD9470511
_publ_section_title
;
Structure prediction by ZEFSAII (Michael W. Deem and Ramdas Pophale) SiO2 
 PCOD9470511
Probable space group: C M C M
;
_chemical_formula_sum "Si O2"
_cell_formula_units_Z 80
_cell_length_a 20.900934
_cell_length_b 12.812402
_cell_length_c 16.959835
_cell_angle_alpha 90.000000
_cell_angle_beta 90.000000
_cell_angle_gamma 90.000000
_cell_volume 4541.694034
_symmetry_space_group_name_H-M "C M C M"
_symmetry_group_IT_number 63
_symmetry_cell_setting 'orthorhombic'
loop_
_space_group_symop_operation_xyz
x,y,z
-x,-y,1/2+z
x,-y,-z
-x,y,1/2-z
-x,-y,-z
x,y,1/2-z
-x,y,z
x,-y,1/2+z
1/2+x,1/2+y,z
1/2-x,1/2-y,1/2+z
1/2+x,1/2-y,-z
1/2-x,1/2+y,1/2-z
1/2-x,1/2-y,-z
1/2+x,1/2+y,1/2-z
1/2-x,1/2+y,z
1/2+x,1/2-y,1/2+z
loop_
_atom_site_type_symbol
_atom_site_label
_atom_site_fract_x
_atom_site_fract_y
_atom_site_fract_z
Si Si1 0.665336 0.824148 0.118115
Si Si2 0.811093 0.870824 0.159193
Si Si3 0.666425 0.835224 0.569901
Si Si4 0.296864 0.602628 0.343016
Si Si5 0.075176 0.489666 0.659090
O O1 0.733888 0.860427 0.152587
O O2 0.659219 0.702992 0.141268
O O3 0.610194 0.899486 0.148673
O O4 0.669546 0.834372 0.023904
O O5 0.829165 0.850553 0.250000
O O6 0.839367 0.782062 0.103288
O O7 0.826433 0.990154 0.137958
O O8 0.732836 0.879127 0.606081
O O9 0.610423 0.908495 0.602048
O O10 0.279468 0.600755 0.250000
O O11 0.083984 0.455668 0.750000
O O12 0.000000 0.497175 0.642681
#
# Coordination Sequence:
#
# PCOD9470511 Si02
#       5
#    16  16  16  16  16
#     4  11  21  32  51  78 109 138 173 220 268 316
#     4  10  19  32  53  77 108 143 175 214 260 316
#     4  11  21  32  51  78 109 138 173 220 268 316
#     4  10  19  32  53  77 108 143 175 214 260 316
#     4  11  23  39  57  75 103 143 184 221 260 317
#
# _framework density 17.614571999999999
#
# number of rings (size 3 to 8) (size 9 to 14) (size 15 to 20)
#    0.000    1.400    2.000    7.800    0.000    4.000 
#    0.000    0.000    0.000    1.200    0.000    8.400 
#    0.000    0.000    0.000    0.000    0.000    0.000 
#
# Total GULP energy -223460.036368 kJ/mol
# GULP energy per Si atom -5586.500909 kJ/mol
# Density = 1.757448 g / cm^3
# Si number density = 17.614572 Si / 1000 Ang^3
#
#
#
# Elastic Constant Matrix: (Units=GPa)
#
#
# Indices 1 2 3 4 5 6 
#
# 1 43.0772 18.0213 3.1310 0.0000 0.0000 0.0000
# 2 18.0213 107.2624 8.7622 0.0000 0.0000 0.0000
# 3 3.1310 8.7622 73.0685 0.0000 0.0000 0.0000
# 4 0.0000 0.0000 0.0000 -131.1512 0.0000 0.0000
# 5 0.0000 0.0000 0.0000 0.0000 222.1058 0.0000
# 6 0.0000 0.0000 0.0000 0.0000 0.0000 13.6195
#
#
#
# Elastic Compliance Matrix: (Units=1/GPa)
#
#
# Indices 1 2 3 4 5 6 
#
# 1 0.024993 -0.004152 -0.000573 0.000000 0.000000 0.000000
# 2 -0.004152 0.010105 -0.001034 0.000000 0.000000 0.000000
# 3 -0.000573 -0.001034 0.013834 0.000000 0.000000 0.000000
# 4 0.000000 0.000000 0.000000 -0.007625 0.000000 0.000000
# 5 0.000000 0.000000 0.000000 0.000000 0.004502 0.000000
# 6 0.000000 0.000000 0.000000 0.000000 0.000000 0.073424
#
#
# Mechanical properties :
#
#
# Convention : Reuss Voigt Hill
#
# Bulk Modulus (GPa) = 26.72798 31.47076 29.09937
# Shear Modulus (GPa) = 34.91050 33.81441 34.36245
#
# Velocity S-wave (km/s) = 4.45669 4.38617 4.42157
# Velocity P-wave (km/s) = 6.45675 6.59973 6.52863
#
# Compressibility (1/GPa) = 0.03741398
#
# Stress axis : x y z
#
# Youngs Moduli (GPa) = 40.01138 98.96078 72.28400
#
# Poissons Ratio (x) = 0.41091 0.04142
# Poissons Ratio (y) = 0.16614 0.07473
# Poissons Ratio (z) = 0.02293 0.10231
#
# Static dielectric constant tensor:
#      x y z
#    x 1.556920 0.000000 0.000000 
#    y 0.000000 1.636830 0.000000 
#    z 0.000000 0.000000 1.605950 
# 
# From -- ./inp_files/36448.got.cif
#   From: 2010.05.17/outbox.cif.g08.bks.cpg/sg63_19_cif.got.tgz:36448.got - 2010.06.03 15:47:04.
