data_PCOD9470902
_publ_section_title
;
Structure prediction by ZEFSAII (Michael W. Deem and Ramdas Pophale) SiO2 
 PCOD9470902
Probable space group: C M C M
;
_chemical_formula_sum "Si O2"
_cell_formula_units_Z 96
_cell_length_a 8.788837
_cell_length_b 24.096115
_cell_length_c 25.771804
_cell_angle_alpha 90.000000
_cell_angle_beta 90.000000
_cell_angle_gamma 90.000000
_cell_volume 5457.870879
_symmetry_space_group_name_H-M "C M C M"
_symmetry_group_IT_number 63
_symmetry_cell_setting 'orthorhombic'
loop_
_space_group_symop_operation_xyz
x,y,z
-x,-y,1/2+z
x,-y,-z
-x,y,1/2-z
-x,-y,-z
x,y,1/2-z
-x,y,z
x,-y,1/2+z
1/2+x,1/2+y,z
1/2-x,1/2-y,1/2+z
1/2+x,1/2-y,-z
1/2-x,1/2+y,1/2-z
1/2-x,1/2-y,-z
1/2+x,1/2+y,1/2-z
1/2-x,1/2+y,z
1/2+x,1/2-y,1/2+z
loop_
_atom_site_type_symbol
_atom_site_label
_atom_site_fract_x
_atom_site_fract_y
_atom_site_fract_z
Si Si1 0.814714 0.439578 0.690954
Si Si2 0.320064 0.363744 0.098241
Si Si3 0.681772 0.066691 0.688788
Si Si4 0.818322 0.435582 0.006420
Si Si5 0.817406 0.363016 0.903501
Si Si6 0.318924 0.249491 0.557958
O O1 0.765499 0.427517 0.750000
O O2 0.771089 0.502888 0.677421
O O3 0.765793 0.395582 0.647972
O O4 0.000000 0.439456 0.691032
O O5 0.500000 0.355865 0.096908
O O6 0.267290 0.390759 0.152098
O O7 0.268745 0.405869 0.052901
O O8 0.239202 0.305448 0.086689
O O9 0.707145 0.076097 0.750000
O O10 0.500000 0.070702 0.679309
O O11 0.000000 0.432864 0.017344
O O12 0.777374 0.500000 0.000000
O O13 0.790258 0.402276 0.953294
O O14 0.736753 0.304762 0.913119
O O15 0.000000 0.354129 0.900316
O O16 0.500000 0.248456 0.553939
O O17 0.250000 0.250000 0.500000
#
# Coordination Sequence:
#
# PCOD9470902 Si02
#       6
#    16  16  16  16  16  16
#     4   8  15  31  58  89 117 148 187 227 273 334
#     4  12  24  37  56  83 115 150 190 236 286 340
#     4   9  18  36  62  88 115 151 192 232 278 335
#     4  10  20  34  55  82 113 149 187 230 282 343
#     4  10  19  33  56  84 114 148 187 232 281 336
#     4  12  24  40  59  79 108 149 194 239 289 344
#
# _framework density 17.589276000000002
#
# number of rings (size 3 to 8) (size 9 to 14) (size 15 to 20)
#    0.000    1.833    1.667    5.000    0.000    3.333 
#    0.000    3.333    0.000    4.500    0.000    0.000 
#    0.000    0.000    0.000    0.000    0.000    0.000 
#
# Total GULP energy -268114.349631 kJ/mol
# GULP energy per Si atom -5585.715617 kJ/mol
# Density = 1.754924 g / cm^3
# Si number density = 17.589276 Si / 1000 Ang^3
#
#
#
# Elastic Constant Matrix: (Units=GPa)
#
#
# Indices 1 2 3 4 5 6 
#
# 1 76.4787 68.7613 52.4339 0.0000 0.0000 0.0000
# 2 68.7613 162.5290 76.3231 0.0000 0.0000 0.0000
# 3 52.4339 76.3231 87.5047 0.0000 0.0000 0.0000
# 4 0.0000 0.0000 0.0000 18.5201 0.0000 0.0000
# 5 0.0000 0.0000 0.0000 0.0000 15.2192 0.0000
# 6 0.0000 0.0000 0.0000 0.0000 0.0000 26.4860
#
#
#
# Elastic Compliance Matrix: (Units=1/GPa)
#
#
# Indices 1 2 3 4 5 6 
#
# 1 0.025295 -0.006070 -0.009863 0.000000 0.000000 0.000000
# 2 -0.006070 0.011878 -0.006723 0.000000 0.000000 0.000000
# 3 -0.009863 -0.006723 0.023201 0.000000 0.000000 0.000000
# 4 0.000000 0.000000 0.000000 0.053995 0.000000 0.000000
# 5 0.000000 0.000000 0.000000 0.000000 0.065706 0.000000
# 6 0.000000 0.000000 0.000000 0.000000 0.000000 0.037756
#
#
# Mechanical properties :
#
#
# Convention : Reuss Voigt Hill
#
# Bulk Modulus (GPa) = 66.38653 80.17209 73.27931
# Shear Modulus (GPa) = 18.64536 20.64470 19.64503
#
# Velocity S-wave (km/s) = 3.25936 3.42966 3.34559
# Velocity P-wave (km/s) = 7.21035 7.83342 7.52833
#
# Compressibility (1/GPa) = 0.01506330
#
# Stress axis : x y z
#
# Youngs Moduli (GPa) = 39.53372 84.19061 43.10085
#
# Poissons Ratio (x) = 0.51105 0.42508
# Poissons Ratio (y) = 0.23997 0.28976
# Poissons Ratio (z) = 0.38990 0.56599
#
# Static dielectric constant tensor:
#      x y z
#    x 1.595250 0.000000 0.000000 
#    y 0.000000 1.576340 0.000000 
#    z 0.000000 0.000000 1.586960 
# 
# From -- ./inp_files/66980.got.cif
#   From: 2010.05.17/outbox.cif.g08.bks.cpg/sg63_34_cif.got.tgz:66980.got - 2010.06.03 15:47:04.
