data_PCOD9470038
_publ_section_title
;
Structure prediction by ZEFSAII (Michael W. Deem and Ramdas Pophale) SiO2 
 PCOD9470038
Probable space group: C M C M
;
_chemical_formula_sum "Si O2"
_cell_formula_units_Z 68
_cell_length_a 24.158339
_cell_length_b 6.973520
_cell_length_c 14.806388
_cell_angle_alpha 90.000000
_cell_angle_beta 90.000000
_cell_angle_gamma 90.000000
_cell_volume 2494.412349
_symmetry_space_group_name_H-M "C M C M"
_symmetry_group_IT_number 63
_symmetry_cell_setting 'orthorhombic'
loop_
_space_group_symop_operation_xyz
x,y,z
-x,-y,1/2+z
x,-y,-z
-x,y,1/2-z
-x,-y,-z
x,y,1/2-z
-x,y,z
x,-y,1/2+z
1/2+x,1/2+y,z
1/2-x,1/2-y,1/2+z
1/2+x,1/2-y,-z
1/2-x,1/2+y,1/2-z
1/2-x,1/2-y,-z
1/2+x,1/2+y,1/2-z
1/2-x,1/2+y,z
1/2+x,1/2-y,1/2+z
loop_
_atom_site_type_symbol
_atom_site_label
_atom_site_fract_x
_atom_site_fract_y
_atom_site_fract_z
Si Si1 0.297217 0.628626 0.588811
Si Si2 0.000000 0.000000 0.000000
Si Si3 0.415932 0.581853 0.649695
Si Si4 0.178393 0.535324 0.642523
Si Si5 0.940014 0.539297 0.643160
O O1 0.294463 0.500000 0.500000
O O2 0.350000 0.552349 0.643729
O O3 0.236840 0.640908 0.634298
O O4 0.313506 0.850070 0.579227
O O5 0.951517 0.025670 0.076713
O O6 0.433899 0.533164 0.750000
O O7 0.430686 0.808276 0.634143
O O8 0.172925 0.480206 0.750000
O O9 0.119397 0.624968 0.615083
O O10 0.944258 0.577370 0.750000
O O11 0.000000 0.582266 0.600314
#
# Coordination Sequence:
#
# PCOD9470038 Si02
#       5
#    16   4  16  16  16
#     4  11  21  36  53  82 112 146 188 231 281 338
#     4  12  18  28  48  78 104 142 184 220 284 324
#     4  10  19  31  48  74 110 140 176 227 280 330
#     4  10  20  34  55  79 108 145 182 230 288 334
#     4   8  14  27  48  73  99 133 178 227 267 312
#
# _framework density 27.260928
#
# number of rings (size 3 to 8) (size 9 to 14) (size 15 to 20)
#    0.000    2.118    2.353    4.588    0.000    0.000 
#    0.000    0.000    0.000    0.706    3.059    0.000 
#    0.000    0.000    0.000    0.000    0.000    0.000 
#
# Total GULP energy -189809.628623 kJ/mol
# GULP energy per Si atom -5582.636136 kJ/mol
# Density = 2.719888 g / cm^3
# Si number density = 27.260928 Si / 1000 Ang^3
#
#
#
# Elastic Constant Matrix: (Units=GPa)
#
#
# Indices 1 2 3 4 5 6 
#
# 1 349.3156 45.6701 76.9930 0.0000 0.0000 0.0000
# 2 45.6701 94.0252 10.5426 0.0000 0.0000 0.0000
# 3 76.9930 10.5426 130.9725 0.0000 0.0000 0.0000
# 4 0.0000 0.0000 0.0000 0.1167 0.0000 0.0000
# 5 0.0000 0.0000 0.0000 0.0000 48.2100 0.0000
# 6 0.0000 0.0000 0.0000 0.0000 0.0000 33.0813
#
#
#
# Elastic Compliance Matrix: (Units=1/GPa)
#
#
# Indices 1 2 3 4 5 6 
#
# 1 0.003480 -0.001474 -0.001927 0.000000 0.000000 0.000000
# 2 -0.001474 0.011357 -0.000047 0.000000 0.000000 0.000000
# 3 -0.001927 -0.000047 0.008772 0.000000 0.000000 0.000000
# 4 0.000000 0.000000 0.000000 8.568177 0.000000 0.000000
# 5 0.000000 0.000000 0.000000 0.000000 0.020743 0.000000
# 6 0.000000 0.000000 0.000000 0.000000 0.000000 0.030229
#
#
# Mechanical properties :
#
#
# Convention : Reuss Voigt Hill
#
# Bulk Modulus (GPa) = 59.84073 93.41385 76.62729
# Shear Modulus (GPa) = 0.57769 45.68878 23.13324
#
# Velocity S-wave (km/s) = 0.46084 4.09832 2.91621
# Velocity P-wave (km/s) = 4.72037 7.53232 6.28561
#
# Compressibility (1/GPa) = 0.01671103
#
# Stress axis : x y z
#
# Youngs Moduli (GPa) = 287.33303 88.05226 113.99989
#
# Poissons Ratio (x) = 0.12982 0.21970
# Poissons Ratio (y) = 0.42363 0.00541
# Poissons Ratio (z) = 0.55376 0.00418
#
# Static dielectric constant tensor:
#      x y z
#    x 2.119370 0.000000 0.000000 
#    y 0.000000 2.227890 0.000000 
#    z 0.000000 0.000000 2.030030 
# 
# From -- ./inp_files/34969.got.cif
#   From: 2010.05.17/outbox.cif.g08.bks.cpg/sg63_18_cif.got.tgz:34969.got - 2010.06.03 15:47:04.
