data_PCOD9470475
_publ_section_title
;
Structure prediction by ZEFSAII (Michael W. Deem and Ramdas Pophale) SiO2 
 PCOD9470475
Probable space group: C M C M
;
_chemical_formula_sum "Si O2"
_cell_formula_units_Z 80
_cell_length_a 7.511180
_cell_length_b 23.894567
_cell_length_c 20.989955
_cell_angle_alpha 90.000000
_cell_angle_beta 90.000000
_cell_angle_gamma 90.000000
_cell_volume 3767.201429
_symmetry_space_group_name_H-M "C M C M"
_symmetry_group_IT_number 63
_symmetry_cell_setting 'orthorhombic'
loop_
_space_group_symop_operation_xyz
x,y,z
-x,-y,1/2+z
x,-y,-z
-x,y,1/2-z
-x,-y,-z
x,y,1/2-z
-x,y,z
x,-y,1/2+z
1/2+x,1/2+y,z
1/2-x,1/2-y,1/2+z
1/2+x,1/2-y,-z
1/2-x,1/2+y,1/2-z
1/2-x,1/2-y,-z
1/2+x,1/2+y,1/2-z
1/2-x,1/2+y,z
1/2+x,1/2-y,1/2+z
loop_
_atom_site_type_symbol
_atom_site_label
_atom_site_fract_x
_atom_site_fract_y
_atom_site_fract_z
Si Si1 0.293088 0.868556 0.870984
Si Si2 0.787666 0.070458 0.750000
Si Si3 0.284325 0.564060 0.497093
Si Si4 0.715337 0.937905 0.750000
Si Si5 0.717829 0.368364 0.122244
Si Si6 0.214020 0.748124 0.424090
O O1 0.500000 0.858512 0.854771
O O2 0.282932 0.905745 0.934212
O O3 0.218499 0.904426 0.812300
O O4 0.215464 0.808242 0.890750
O O5 0.720090 0.101054 0.686290
O O6 0.000000 0.078584 0.750000
O O7 0.760034 0.003687 0.750000
O O8 0.227346 0.500000 0.500000
O O9 0.500000 0.565417 0.494604
O O10 0.227925 0.596585 0.560278
O O11 0.500000 0.936835 0.750000
O O12 0.500000 0.368180 0.123289
O O13 0.776346 0.304644 0.110491
O O14 0.250000 0.750000 0.500000
O O15 0.000000 0.747070 0.418956
#
# Coordination Sequence:
#
# PCOD9470475 Si02
#       6
#    16   8  16   8  16  16
#     4  10  21  35  54  78 106 143 180 216 266 322
#     4  10  20  37  59  81 105 140 183 220 264 321
#     4  10  19  32  52  78 107 138 177 225 269 310
#     4  10  22  39  53  75 113 144 173 220 270 317
#     4   9  18  32  53  80 107 135 173 223 268 307
#     4  10  19  34  55  80 108 139 177 222 268 315
#
# _framework density 21.235921999999999
#
# number of rings (size 3 to 8) (size 9 to 14) (size 15 to 20)
#    0.000    2.200    2.000    1.200    0.000    3.600 
#    0.000    6.000    0.000    0.000    0.000    2.800 
#    0.000    0.000    0.000    0.000    0.000    0.000 
#
# Total GULP energy -223423.391237 kJ/mol
# GULP energy per Si atom -5585.584781 kJ/mol
# Density = 2.118759 g / cm^3
# Si number density = 21.235922 Si / 1000 Ang^3
#
#
#
# Elastic Constant Matrix: (Units=GPa)
#
#
# Indices 1 2 3 4 5 6 
#
# 1 55.0281 0.2573 -1.5948 0.0000 0.0000 0.0000
# 2 0.2573 237.1707 122.2163 0.0000 0.0000 0.0000
# 3 -1.5948 122.2163 205.8088 0.0000 0.0000 0.0000
# 4 0.0000 0.0000 0.0000 39.8360 0.0000 0.0000
# 5 0.0000 0.0000 0.0000 0.0000 13.3075 0.0000
# 6 0.0000 0.0000 0.0000 0.0000 0.0000 -19.8096
#
#
#
# Elastic Compliance Matrix: (Units=1/GPa)
#
#
# Indices 1 2 3 4 5 6 
#
# 1 0.018180 -0.000133 0.000220 0.000000 0.000000 0.000000
# 2 -0.000133 0.006077 -0.003609 0.000000 0.000000 0.000000
# 3 0.000220 -0.003609 0.007004 0.000000 0.000000 0.000000
# 4 0.000000 0.000000 0.000000 0.025103 0.000000 0.000000
# 5 0.000000 0.000000 0.000000 0.000000 0.075146 0.000000
# 6 0.000000 0.000000 0.000000 0.000000 0.000000 -0.050480
#
#
# Mechanical properties :
#
#
# Convention : Reuss Voigt Hill
#
# Bulk Modulus (GPa) = 41.29705 82.19614 61.74660
# Shear Modulus (GPa) = 52.00469 31.80868 41.90669
#
# Velocity S-wave (km/s) = 4.95401 3.87443 4.44710
# Velocity P-wave (km/s) = 7.22578 7.66845 7.45041
#
# Compressibility (1/GPa) = 0.02421480
#
# Stress axis : x y z
#
# Youngs Moduli (GPa) = 55.00690 164.56816 142.77536
#
# Poissons Ratio (x) = 0.02189 -0.03139
# Poissons Ratio (y) = 0.00732 0.51534
# Poissons Ratio (z) = -0.01209 0.59400
#
# Static dielectric constant tensor:
#      x y z
#    x 1.807580 0.000000 0.000000 
#    y 0.000000 1.747800 0.000000 
#    z 0.000000 0.000000 1.717490 
# 
# From -- ./inp_files/50909.got.cif
#   From: 2010.05.17/outbox.cif.g08.bks.cpg/sg63_26_cif.got.tgz:50909.got - 2010.06.03 15:47:04.
