data_PCOD9470013
_publ_section_title
;
Structure prediction by ZEFSAII (Michael W. Deem and Ramdas Pophale) SiO2 
 PCOD9470013
Probable space group: C M C M
;
_chemical_formula_sum "Si O2"
_cell_formula_units_Z 96
_cell_length_a 8.838088
_cell_length_b 24.303719
_cell_length_c 26.765840
_cell_angle_alpha 90.000000
_cell_angle_beta 90.000000
_cell_angle_gamma 90.000000
_cell_volume 5749.259801
_symmetry_space_group_name_H-M "C M C M"
_symmetry_group_IT_number 63
_symmetry_cell_setting 'orthorhombic'
loop_
_space_group_symop_operation_xyz
x,y,z
-x,-y,1/2+z
x,-y,-z
-x,y,1/2-z
-x,-y,-z
x,y,1/2-z
-x,y,z
x,-y,1/2+z
1/2+x,1/2+y,z
1/2-x,1/2-y,1/2+z
1/2+x,1/2-y,-z
1/2-x,1/2+y,1/2-z
1/2-x,1/2-y,-z
1/2+x,1/2+y,1/2-z
1/2-x,1/2+y,z
1/2+x,1/2-y,1/2+z
loop_
_atom_site_type_symbol
_atom_site_label
_atom_site_fract_x
_atom_site_fract_y
_atom_site_fract_z
Si Si1 0.178775 0.173070 0.390521
Si Si2 0.682493 0.413402 0.692734
Si Si3 0.820145 0.610904 0.571418
Si Si4 0.820072 0.504978 0.875930
Si Si5 0.675961 0.085440 0.458508
Si Si6 0.679658 0.729561 0.552839
O O1 0.229312 0.138601 0.341665
O O2 0.214786 0.131461 0.435962
O O3 0.266141 0.228270 0.404347
O O4 0.000000 0.183860 0.387254
O O5 0.732188 0.408552 0.750000
O O6 0.500000 0.414598 0.691441
O O7 0.742273 0.469026 0.666907
O O8 0.767337 0.566995 0.612869
O O9 0.803839 0.581726 0.517403
O O10 0.736946 0.668813 0.566857
O O11 0.000000 0.620810 0.578586
O O12 0.799012 0.469407 0.926665
O O13 0.000000 0.506844 0.866404
O O14 0.500000 0.102433 0.449770
O O15 0.500000 0.730608 0.547730
O O16 0.750000 0.750000 0.500000
#
# Coordination Sequence:
#
# PCOD9470013 Si02
#       6
#    16  16  16  16  16  16
#     4  10  19  32  51  75 102 133 173 215 254 299
#     4   9  19  36  57  79 103 131 164 210 266 312
#     4  10  19  31  48  71 104 141 172 204 245 296
#     4   9  18  31  49  76 104 132 169 209 252 300
#     4   9  16  28  47  70 101 137 168 202 245 295
#     4  12  23  34  49  71 103 141 178 212 250 300
#
# _framework density 16.697800999999998
#
# number of rings (size 3 to 8) (size 9 to 14) (size 15 to 20)
#    0.000    2.167    1.667    2.500    0.000    3.667 
#    0.000    0.000    0.000    6.000    0.000    2.333 
#    0.000    0.000    0.000    0.000    0.000    0.000 
#
# Total GULP energy -267629.331000 kJ/mol
# GULP energy per Si atom -5575.611063 kJ/mol
# Density = 1.665980 g / cm^3
# Si number density = 16.697801 Si / 1000 Ang^3
#
#
#
# Elastic Constant Matrix: (Units=GPa)
#
#
# Indices 1 2 3 4 5 6 
#
# 1 50.8218 39.3447 33.8717 0.0000 0.0000 0.0000
# 2 39.3447 102.8222 59.5432 0.0000 0.0000 0.0000
# 3 33.8717 59.5432 91.8877 0.0000 0.0000 0.0000
# 4 0.0000 0.0000 0.0000 11.3059 0.0000 0.0000
# 5 0.0000 0.0000 0.0000 0.0000 18.6627 0.0000
# 6 0.0000 0.0000 0.0000 0.0000 0.0000 26.9658
#
#
#
# Elastic Compliance Matrix: (Units=1/GPa)
#
#
# Indices 1 2 3 4 5 6 
#
# 1 0.029740 -0.008054 -0.005744 0.000000 0.000000 0.000000
# 2 -0.008054 0.017748 -0.008532 0.000000 0.000000 0.000000
# 3 -0.005744 -0.008532 0.018529 0.000000 0.000000 0.000000
# 4 0.000000 0.000000 0.000000 0.088449 0.000000 0.000000
# 5 0.000000 0.000000 0.000000 0.000000 0.053583 0.000000
# 6 0.000000 0.000000 0.000000 0.000000 0.000000 0.037084
#
#
# Mechanical properties :
#
#
# Convention : Reuss Voigt Hill
#
# Bulk Modulus (GPa) = 46.82182 56.78345 51.80263
# Shear Modulus (GPa) = 16.84009 18.90503 17.87256
#
# Velocity S-wave (km/s) = 3.17917 3.36845 3.27518
# Velocity P-wave (km/s) = 6.44808 7.01491 6.73746
#
# Compressibility (1/GPa) = 0.02135756
#
# Stress axis : x y z
#
# Youngs Moduli (GPa) = 33.62511 56.34452 53.96978
#
# Poissons Ratio (x) = 0.45377 0.31000
# Poissons Ratio (y) = 0.27080 0.46047
# Poissons Ratio (z) = 0.19314 0.48073
#
# Static dielectric constant tensor:
#      x y z
#    x 1.565710 0.000000 0.000000 
#    y 0.000000 1.576680 0.000000 
#    z 0.000000 0.000000 1.558050 
# 
# From -- ./inp_files/59912.got.cif
#   From: 2010.05.17/outbox.cif.g08.bks.cpg/sg63_30_cif.got.tgz:59912.got - 2010.06.03 15:47:04.
