data_PCOD9470482
_publ_section_title
;
Structure prediction by ZEFSAII (Michael W. Deem and Ramdas Pophale) SiO2 
 PCOD9470482
Probable space group: C M C M
;
_chemical_formula_sum "Si O2"
_cell_formula_units_Z 64
_cell_length_a 7.460663
_cell_length_b 37.725838
_cell_length_c 10.128295
_cell_angle_alpha 90.000000
_cell_angle_beta 90.000000
_cell_angle_gamma 90.000000
_cell_volume 2850.707517
_symmetry_space_group_name_H-M "C M C M"
_symmetry_group_IT_number 63
_symmetry_cell_setting 'orthorhombic'
loop_
_space_group_symop_operation_xyz
x,y,z
-x,-y,1/2+z
x,-y,-z
-x,y,1/2-z
-x,-y,-z
x,y,1/2-z
-x,y,z
x,-y,1/2+z
1/2+x,1/2+y,z
1/2-x,1/2-y,1/2+z
1/2+x,1/2-y,-z
1/2-x,1/2+y,1/2-z
1/2-x,1/2-y,-z
1/2+x,1/2+y,1/2-z
1/2-x,1/2+y,z
1/2+x,1/2-y,1/2+z
loop_
_atom_site_type_symbol
_atom_site_label
_atom_site_fract_x
_atom_site_fract_y
_atom_site_fract_z
Si Si1 0.219313 0.555399 0.250000
Si Si2 0.788438 0.161451 0.894496
Si Si3 0.281160 0.973792 0.250000
Si Si4 0.216247 0.418643 0.469155
Si Si5 0.214719 0.782404 0.599579
O O1 0.276840 0.514376 0.250000
O O2 0.278437 0.574846 0.382365
O O3 0.000000 0.555254 0.250000
O O4 0.712967 0.171461 0.750000
O O5 0.768904 0.119542 0.914700
O O6 0.000000 0.169320 0.889552
O O7 0.716072 0.183186 0.019484
O O8 0.500000 0.974580 0.250000
O O9 0.224096 0.950946 0.123582
O O10 0.000000 0.419447 0.468270
O O11 0.284037 0.778253 0.750000
O O12 0.250000 0.750000 0.500000
O O13 0.000000 0.785423 0.611684
#
# Coordination Sequence:
#
# PCOD9470482 Si02
#       5
#     8  16   8  16  16
#     4   9  18  30  49  77 108 137 174 229 282 321
#     4  10  21  37  56  78 110 148 181 218 269 323
#     4   9  16  30  51  75 104 139 178 225 276 323
#     4  10  19  32  52  79 106 138 183 226 269 322
#     4  10  22  40  62  88 115 146 184 224 271 327
#
# _framework density 22.450566999999999
#
# number of rings (size 3 to 8) (size 9 to 14) (size 15 to 20)
#    0.000    2.250    1.250    1.500    1.750    5.500 
#    0.000    0.000    0.000    4.500    0.000    0.000 
#    0.000    0.000    0.000    0.000    0.000    0.000 
#
# Total GULP energy -178772.255557 kJ/mol
# GULP energy per Si atom -5586.632986 kJ/mol
# Density = 2.239947 g / cm^3
# Si number density = 22.450567 Si / 1000 Ang^3
#
#
#
# Elastic Constant Matrix: (Units=GPa)
#
#
# Indices 1 2 3 4 5 6 
#
# 1 68.1497 -6.5334 12.5049 0.0000 0.0000 0.0000
# 2 -6.5334 83.7710 55.9780 0.0000 0.0000 0.0000
# 3 12.5049 55.9780 227.4036 0.0000 0.0000 0.0000
# 4 0.0000 0.0000 0.0000 42.3572 0.0000 0.0000
# 5 0.0000 0.0000 0.0000 0.0000 6.6566 0.0000
# 6 0.0000 0.0000 0.0000 0.0000 0.0000 302.1275
#
#
#
# Elastic Compliance Matrix: (Units=1/GPa)
#
#
# Indices 1 2 3 4 5 6 
#
# 1 0.015119 0.002076 -0.001342 0.000000 0.000000 0.000000
# 2 0.002076 0.014573 -0.003701 0.000000 0.000000 0.000000
# 3 -0.001342 -0.003701 0.005382 0.000000 0.000000 0.000000
# 4 0.000000 0.000000 0.000000 0.023609 0.000000 0.000000
# 5 0.000000 0.000000 0.000000 0.000000 0.150227 0.000000
# 6 0.000000 0.000000 0.000000 0.000000 0.000000 0.003310
#
#
# Mechanical properties :
#
#
# Convention : Reuss Voigt Hill
#
# Bulk Modulus (GPa) = 34.31861 55.91370 45.11616
# Shear Modulus (GPa) = 21.94252 91.38658 56.66455
#
# Velocity S-wave (km/s) = 3.12968 6.38702 5.02936
# Velocity P-wave (km/s) = 5.32723 8.90794 7.33930
#
# Compressibility (1/GPa) = 0.02913871
#
# Stress axis : x y z
#
# Youngs Moduli (GPa) = 66.14213 68.62195 185.78978
#
# Poissons Ratio (x) = -0.14247 0.24942
# Poissons Ratio (y) = -0.13733 0.68768
# Poissons Ratio (z) = 0.08879 0.25400
#
# Static dielectric constant tensor:
#      x y z
#    x 1.859140 0.000000 0.000000 
#    y 0.000000 1.772130 0.000000 
#    z 0.000000 0.000000 1.830500 
# 
# From -- ./inp_files/3132.got.cif
#   From: 2010.05.17/outbox.cif.g08.bks.cpg/sg63_2_cif.got.tgz:3132.got - 2010.06.03 15:47:04.
