data_PCOD9470492
_publ_section_title
;
Structure prediction by ZEFSAII (Michael W. Deem and Ramdas Pophale) SiO2 
 PCOD9470492
Probable space group: C M C M
;
_chemical_formula_sum "Si O2"
_cell_formula_units_Z 96
_cell_length_a 7.691707
_cell_length_b 30.219703
_cell_length_c 19.484429
_cell_angle_alpha 90.000000
_cell_angle_beta 90.000000
_cell_angle_gamma 90.000000
_cell_volume 4528.982131
_symmetry_space_group_name_H-M "C M C M"
_symmetry_group_IT_number 63
_symmetry_cell_setting 'orthorhombic'
loop_
_space_group_symop_operation_xyz
x,y,z
-x,-y,1/2+z
x,-y,-z
-x,y,1/2-z
-x,-y,-z
x,y,1/2-z
-x,y,z
x,-y,1/2+z
1/2+x,1/2+y,z
1/2-x,1/2-y,1/2+z
1/2+x,1/2-y,-z
1/2-x,1/2+y,1/2-z
1/2-x,1/2-y,-z
1/2+x,1/2+y,1/2-z
1/2-x,1/2+y,z
1/2+x,1/2-y,1/2+z
loop_
_atom_site_type_symbol
_atom_site_label
_atom_site_fract_x
_atom_site_fract_y
_atom_site_fract_z
Si Si1 0.713170 0.687356 0.569077
Si Si2 0.795822 0.163445 0.418766
Si Si3 0.709621 0.968921 0.403247
Si Si4 0.203203 0.261315 0.673535
Si Si5 0.289950 0.936788 0.553933
Si Si6 0.705728 0.385539 0.324884
O O1 0.500000 0.687408 0.565225
O O2 0.775112 0.683035 0.490965
O O3 0.773112 0.729377 0.613510
O O4 0.772079 0.644877 0.613343
O O5 0.716024 0.189003 0.354614
O O6 0.770859 0.110793 0.421202
O O7 0.000000 0.172590 0.415878
O O8 0.500000 0.968962 0.403931
O O9 0.767494 0.947265 0.475764
O O10 0.768533 0.936654 0.343446
O O11 0.766204 0.020028 0.402929
O O12 0.278504 0.255914 0.750000
O O13 0.000000 0.249475 0.678724
O O14 0.500000 0.935997 0.553597
O O15 0.779393 0.374623 0.250000
O O16 0.500000 0.376832 0.322092
#
# Coordination Sequence:
#
# PCOD9470492 Si02
#       6
#    16  16  16  16  16  16
#     4   9  18  34  55  81 108 140 181 219 265 324
#     4  11  21  34  56  85 112 138 175 229 277 316
#     4   9  18  33  53  77 106 139 178 223 264 311
#     4  10  21  38  58  77 104 146 187 220 263 324
#     4   9  18  34  55  78 105 140 180 219 263 317
#     4  10  19  32  52  79 113 147 179 219 269 328
#
# _framework density 21.196815999999998
#
# number of rings (size 3 to 8) (size 9 to 14) (size 15 to 20)
#    0.000    2.333    1.667    2.500    0.000    3.333 
#    0.000    4.167    0.000    3.000    0.000    0.000 
#    0.000    0.000    0.000    0.000    0.000    0.000 
#
# Total GULP energy -267910.155871 kJ/mol
# GULP energy per Si atom -5581.461581 kJ/mol
# Density = 2.114857 g / cm^3
# Si number density = 21.196816 Si / 1000 Ang^3
#
#
#
# Elastic Constant Matrix: (Units=GPa)
#
#
# Indices 1 2 3 4 5 6 
#
# 1 35.4292 -10.2312 -0.3486 0.0000 0.0000 0.0000
# 2 -10.2312 105.9542 20.8383 0.0000 0.0000 0.0000
# 3 -0.3486 20.8383 56.6448 0.0000 0.0000 0.0000
# 4 0.0000 0.0000 0.0000 3.7321 0.0000 0.0000
# 5 0.0000 0.0000 0.0000 0.0000 10.9721 0.0000
# 6 0.0000 0.0000 0.0000 0.0000 0.0000 29.1122
#
#
#
# Elastic Compliance Matrix: (Units=1/GPa)
#
#
# Indices 1 2 3 4 5 6 
#
# 1 0.029079 0.002989 -0.000921 0.000000 0.000000 0.000000
# 2 0.002989 0.010481 -0.003837 0.000000 0.000000 0.000000
# 3 -0.000921 -0.003837 0.019060 0.000000 0.000000 0.000000
# 4 0.000000 0.000000 0.000000 0.267943 0.000000 0.000000
# 5 0.000000 0.000000 0.000000 0.000000 0.091140 0.000000
# 6 0.000000 0.000000 0.000000 0.000000 0.000000 0.034350
#
#
# Mechanical properties :
#
#
# Convention : Reuss Voigt Hill
#
# Bulk Modulus (GPa) = 18.15456 24.28280 21.21868
# Shear Modulus (GPa) = 10.54957 21.28126 15.91542
#
# Velocity S-wave (km/s) = 2.23333 3.17201 2.74312
# Velocity P-wave (km/s) = 3.90304 4.98961 4.47940
#
# Compressibility (1/GPa) = 0.05508258
#
# Stress axis : x y z
#
# Youngs Moduli (GPa) = 34.38859 95.40711 52.46613
#
# Poissons Ratio (x) = -0.28518 0.04830
# Poissons Ratio (y) = -0.10279 0.20134
# Poissons Ratio (z) = 0.03166 0.36612
#
# Static dielectric constant tensor:
#      x y z
#    x 1.799010 0.000000 0.000000 
#    y 0.000000 1.777130 0.000000 
#    z 0.000000 0.000000 1.756000 
# 
# From -- ./inp_files/51296.got.cif
#   From: 2010.05.17/outbox.cif.g08.bks.cpg/sg63_26_cif.got.tgz:51296.got - 2010.06.03 15:47:04.
