data_PCOD9470524
_publ_section_title
;
Structure prediction by ZEFSAII (Michael W. Deem and Ramdas Pophale) SiO2 
 PCOD9470524
Probable space group: C M C M
;
_chemical_formula_sum "Si O2"
_cell_formula_units_Z 64
_cell_length_a 8.081716
_cell_length_b 15.065895
_cell_length_c 25.818153
_cell_angle_alpha 90.000000
_cell_angle_beta 90.000000
_cell_angle_gamma 90.000000
_cell_volume 3143.574023
_symmetry_space_group_name_H-M "C M C M"
_symmetry_group_IT_number 63
_symmetry_cell_setting 'orthorhombic'
loop_
_space_group_symop_operation_xyz
x,y,z
-x,-y,1/2+z
x,-y,-z
-x,y,1/2-z
-x,-y,-z
x,y,1/2-z
-x,y,z
x,-y,1/2+z
1/2+x,1/2+y,z
1/2-x,1/2-y,1/2+z
1/2+x,1/2-y,-z
1/2-x,1/2+y,1/2-z
1/2-x,1/2-y,-z
1/2+x,1/2+y,1/2-z
1/2-x,1/2+y,z
1/2+x,1/2-y,1/2+z
loop_
_atom_site_type_symbol
_atom_site_label
_atom_site_fract_x
_atom_site_fract_y
_atom_site_fract_z
Si Si1 0.806921 0.144820 0.250000
Si Si2 0.801653 0.849408 0.861879
Si Si3 0.804308 0.146974 0.637533
Si Si4 0.690372 0.861098 0.250000
Si Si5 0.702868 0.504141 0.059226
O O1 0.732884 0.119730 0.194350
O O2 0.803874 0.252852 0.250000
O O3 0.000000 0.116951 0.250000
O O4 0.769109 0.745179 0.868037
O O5 0.742382 0.908420 0.909550
O O6 0.000000 0.860578 0.858889
O O7 0.770157 0.111707 0.695683
O O8 0.000000 0.155467 0.631867
O O9 0.743239 0.079414 0.593898
O O10 0.500000 0.887961 0.250000
O O11 0.500000 0.503962 0.058490
O O12 0.758767 0.500000 0.000000
#
# Coordination Sequence:
#
# PCOD9470524 Si02
#       5
#     8  16  16   8  16
#     4   7  12  24  45  71  92 118 160 201 239 295
#     4   9  17  32  53  73 100 139 175 209 258 315
#     4  10  19  32  53  80 106 132 170 219 261 300
#     4   9  17  32  53  77 106 136 166 203 259 325
#     4   9  19  34  51  74 105 142 182 216 250 304
#
# _framework density 20.358992000000001
#
# number of rings (size 3 to 8) (size 9 to 14) (size 15 to 20)
#    0.000    3.000    0.000    2.625    0.000    2.000 
#    0.000    6.250    0.000    5.250    0.000    0.000 
#    0.000    0.000    0.000    0.000    0.000    0.000 
#
# Total GULP energy -178424.546316 kJ/mol
# GULP energy per Si atom -5575.767072 kJ/mol
# Density = 2.031265 g / cm^3
# Si number density = 20.358992 Si / 1000 Ang^3
#
#
#
# Elastic Constant Matrix: (Units=GPa)
#
#
# Indices 1 2 3 4 5 6 
#
# 1 7.6773 -7.3872 6.9935 0.0000 0.0000 0.0000
# 2 -7.3872 88.0636 91.5130 0.0000 0.0000 0.0000
# 3 6.9935 91.5130 234.0697 0.0000 0.0000 0.0000
# 4 0.0000 0.0000 0.0000 34.0321 0.0000 0.0000
# 5 0.0000 0.0000 0.0000 0.0000 14.6939 0.0000
# 6 0.0000 0.0000 0.0000 0.0000 0.0000 14.8419
#
#
#
# Elastic Compliance Matrix: (Units=1/GPa)
#
#
# Indices 1 2 3 4 5 6 
#
# 1 0.181518 0.035138 -0.019161 0.000000 0.000000 0.000000
# 2 0.035138 0.025928 -0.011187 0.000000 0.000000 0.000000
# 3 -0.019161 -0.011187 0.009218 0.000000 0.000000 0.000000
# 4 0.000000 0.000000 0.000000 0.029384 0.000000 0.000000
# 5 0.000000 0.000000 0.000000 0.000000 0.068055 0.000000
# 6 0.000000 0.000000 0.000000 0.000000 0.000000 0.067377
#
#
# Mechanical properties :
#
#
# Convention : Reuss Voigt Hill
#
# Bulk Modulus (GPa) = 4.41999 56.89439 30.65719
# Shear Modulus (GPa) = 11.17782 28.62635 19.90208
#
# Velocity S-wave (km/s) = 2.34569 3.75384 3.12998
# Velocity P-wave (km/s) = 3.08417 6.84066 5.30598
#
# Compressibility (1/GPa) = 0.22624491
#
# Stress axis : x y z
#
# Youngs Moduli (GPa) = 5.50909 38.56846 108.47914
#
# Poissons Ratio (x) = -1.35523 2.07859
# Poissons Ratio (y) = -0.19358 1.21353
# Poissons Ratio (z) = 0.10556 0.43146
#
# Static dielectric constant tensor:
#      x y z
#    x 1.720730 0.000000 0.000000 
#    y 0.000000 1.731460 0.000000 
#    z 0.000000 0.000000 1.741570 
# 
# From -- ./inp_files/59115.got.cif
#   From: 2010.05.17/outbox.cif.g08.bks.cpg/sg63_30_cif.got.tgz:59115.got - 2010.06.03 15:47:04.
