data_PCOD9470066
_publ_section_title
;
Structure prediction by ZEFSAII (Michael W. Deem and Ramdas Pophale) SiO2 
 PCOD9470066
Probable space group: C M C M
;
_chemical_formula_sum "Si O2"
_cell_formula_units_Z 96
_cell_length_a 9.179428
_cell_length_b 25.645900
_cell_length_c 25.507441
_cell_angle_alpha 90.000000
_cell_angle_beta 90.000000
_cell_angle_gamma 90.000000
_cell_volume 6004.826381
_symmetry_space_group_name_H-M "C M C M"
_symmetry_group_IT_number 63
_symmetry_cell_setting 'orthorhombic'
loop_
_space_group_symop_operation_xyz
x,y,z
-x,-y,1/2+z
x,-y,-z
-x,y,1/2-z
-x,-y,-z
x,y,1/2-z
-x,y,z
x,-y,1/2+z
1/2+x,1/2+y,z
1/2-x,1/2-y,1/2+z
1/2+x,1/2-y,-z
1/2-x,1/2+y,1/2-z
1/2-x,1/2-y,-z
1/2+x,1/2+y,1/2-z
1/2-x,1/2+y,z
1/2+x,1/2-y,1/2+z
loop_
_atom_site_type_symbol
_atom_site_label
_atom_site_fract_x
_atom_site_fract_y
_atom_site_fract_z
Si Si1 0.674461 0.848788 0.688853
Si Si2 0.167316 0.257659 0.186336
Si Si3 0.673984 0.942621 0.389519
Si Si4 0.832871 0.936788 0.496646
Si Si5 0.673877 0.934743 0.603145
Si Si6 0.172405 0.136035 0.812709
O O1 0.710983 0.859104 0.750000
O O2 0.500000 0.840241 0.686396
O O3 0.755926 0.796336 0.671163
O O4 0.710626 0.897127 0.651423
O O5 0.166961 0.257676 0.250000
O O6 0.257082 0.308819 0.170621
O O7 0.000000 0.260349 0.168606
O O8 0.500000 0.936023 0.388973
O O9 0.740546 0.924047 0.444980
O O10 0.748359 0.909993 0.343586
O O11 0.705895 0.004549 0.384681
O O12 0.758461 0.918894 0.550495
O O13 0.000000 0.919278 0.492042
O O14 0.833380 0.000000 0.500000
O O15 0.500000 0.931427 0.593507
O O16 0.193266 0.130530 0.750000
O O17 0.000000 0.135848 0.823122
#
# Coordination Sequence:
#
# PCOD9470066 Si02
#       6
#    16  16  16  16  16  16
#     4   9  17  30  48  70  97 128 159 192 233 280
#     4   9  17  30  48  69  92 121 160 200 234 274
#     4  10  19  31  49  72  98 127 160 198 237 280
#     4   9  17  30  48  68  92 124 162 200 236 278
#     4   9  18  31  48  71  98 128 161 196 235 280
#     4  10  20  33  49  70  97 128 160 195 237 284
#
# _framework density 15.98714
#
# number of rings (size 3 to 8) (size 9 to 14) (size 15 to 20)
#    0.000    2.667    0.000    2.000    0.000    7.000 
#    0.000    1.667    0.000    3.000    0.000    0.000 
#    0.000    0.000    0.000    0.000    0.000    0.000 
#
# Total GULP energy -267516.501213 kJ/mol
# GULP energy per Si atom -5573.260442 kJ/mol
# Density = 1.595075 g / cm^3
# Si number density = 15.987140 Si / 1000 Ang^3
#
#
#
# Elastic Constant Matrix: (Units=GPa)
#
#
# Indices 1 2 3 4 5 6 
#
# 1 96.9675 68.4116 64.1163 0.0000 0.0000 0.0000
# 2 68.4116 94.1084 57.7401 0.0000 0.0000 0.0000
# 3 64.1163 57.7401 75.1712 0.0000 0.0000 0.0000
# 4 0.0000 0.0000 0.0000 -3.1261 0.0000 0.0000
# 5 0.0000 0.0000 0.0000 0.0000 27.1420 0.0000
# 6 0.0000 0.0000 0.0000 0.0000 0.0000 25.6770
#
#
#
# Elastic Compliance Matrix: (Units=1/GPa)
#
#
# Indices 1 2 3 4 5 6 
#
# 1 0.028653 -0.011035 -0.015963 0.000000 0.000000 0.000000
# 2 -0.011035 0.024347 -0.009289 0.000000 0.000000 0.000000
# 3 -0.015963 -0.009289 0.034054 0.000000 0.000000 0.000000
# 4 0.000000 0.000000 0.000000 -0.319884 0.000000 0.000000
# 5 0.000000 0.000000 0.000000 0.000000 0.036843 0.000000
# 6 0.000000 0.000000 0.000000 0.000000 0.000000 0.038945
#
#
# Mechanical properties :
#
#
# Convention : Reuss Voigt Hill
#
# Bulk Modulus (GPa) = 69.06455 71.86480 70.46467
# Shear Modulus (GPa) = -62.78309 15.00385 -23.88962
#
# Velocity S-wave (km/s) = -6.27346 3.06681 -3.86981
# Velocity P-wave (km/s) = 3.03004 7.58878 4.91978
#
# Compressibility (1/GPa) = 0.01447921
#
# Stress axis : x y z
#
# Youngs Moduli (GPa) = 34.90018 41.07208 29.36530
#
# Poissons Ratio (x) = 0.45323 0.46876
# Poissons Ratio (y) = 0.38513 0.27279
# Poissons Ratio (z) = 0.55711 0.38153
#
# Static dielectric constant tensor:
#      x y z
#    x 1.537310 0.000000 0.000000 
#    y 0.000000 1.516270 0.000000 
#    z 0.000000 0.000000 1.518090 
# 
# From -- ./inp_files/59898.got.cif
#   From: 2010.05.17/outbox.cif.g08.bks.cpg/sg63_30_cif.got.tgz:59898.got - 2010.06.03 15:47:04.
