data_PCOD9470906
_publ_section_title
;
Structure prediction by ZEFSAII (Michael W. Deem and Ramdas Pophale) SiO2 
 PCOD9470906
Probable space group: C M C M
;
_chemical_formula_sum "Si O2"
_cell_formula_units_Z 96
_cell_length_a 8.991412
_cell_length_b 20.278051
_cell_length_c 28.031155
_cell_angle_alpha 90.000000
_cell_angle_beta 90.000000
_cell_angle_gamma 90.000000
_cell_volume 5110.873149
_symmetry_space_group_name_H-M "C M C M"
_symmetry_group_IT_number 63
_symmetry_cell_setting 'orthorhombic'
loop_
_space_group_symop_operation_xyz
x,y,z
-x,-y,1/2+z
x,-y,-z
-x,y,1/2-z
-x,-y,-z
x,y,1/2-z
-x,y,z
x,-y,1/2+z
1/2+x,1/2+y,z
1/2-x,1/2-y,1/2+z
1/2+x,1/2-y,-z
1/2-x,1/2+y,1/2-z
1/2-x,1/2-y,-z
1/2+x,1/2+y,1/2-z
1/2-x,1/2+y,z
1/2+x,1/2-y,1/2+z
loop_
_atom_site_type_symbol
_atom_site_label
_atom_site_fract_x
_atom_site_fract_y
_atom_site_fract_z
Si Si1 0.174165 0.292945 0.305034
Si Si2 0.321327 0.989711 0.804163
Si Si3 0.175792 0.300948 0.939353
Si Si4 0.823604 0.339500 0.043395
Si Si5 0.176011 0.341034 0.832599
Si Si6 0.176504 0.902292 0.129783
O O1 0.191692 0.313593 0.250000
O O2 0.229895 0.218212 0.310577
O O3 0.268609 0.339413 0.339447
O O4 0.000000 0.298243 0.317564
O O5 0.279859 0.008497 0.750000
O O6 0.500000 0.997749 0.808725
O O7 0.242078 0.034812 0.842945
O O8 0.287214 0.912766 0.812483
O O9 0.269306 0.233653 0.941272
O O10 0.199411 0.337931 0.889684
O O11 0.000000 0.283019 0.941968
O O12 0.210008 0.342567 0.986895
O O13 0.741752 0.391352 0.077040
O O14 0.000000 0.345068 0.050168
O O15 0.000000 0.328986 0.823507
O O16 0.000000 0.904305 0.128390
#
# Coordination Sequence:
#
# PCOD9470906 Si02
#       6
#    16  16  16  16  16  16
#     4  11  23  37  56  84 115 146 186 237 290 344
#     4  10  22  40  60  82 113 153 192 233 288 348
#     4   9  18  33  56  88 119 149 186 230 283 345
#     4  10  19  33  56  85 118 152 187 232 288 340
#     4  10  20  37  61  88 116 148 188 233 284 343
#     4  12  24  38  57  82 112 150 197 242 287 338
#
# _framework density 18.783481999999999
#
# number of rings (size 3 to 8) (size 9 to 14) (size 15 to 20)
#    0.000    1.667    1.667    3.500    0.000    5.667 
#    0.000    0.833    0.000    5.000    0.000    0.000 
#    0.000    0.000    0.000    0.000    0.000    0.000 
#
# Total GULP energy -268214.452163 kJ/mol
# GULP energy per Si atom -5587.801087 kJ/mol
# Density = 1.874073 g / cm^3
# Si number density = 18.783482 Si / 1000 Ang^3
#
#
#
# Elastic Constant Matrix: (Units=GPa)
#
#
# Indices 1 2 3 4 5 6 
#
# 1 49.3424 11.9725 19.2506 0.0000 0.0000 0.0000
# 2 11.9725 37.4038 -2.6668 0.0000 0.0000 0.0000
# 3 19.2506 -2.6668 63.1682 0.0000 0.0000 0.0000
# 4 0.0000 0.0000 0.0000 21.5727 0.0000 0.0000
# 5 0.0000 0.0000 0.0000 0.0000 23.2556 0.0000
# 6 0.0000 0.0000 0.0000 0.0000 0.0000 29.5226
#
#
#
# Elastic Compliance Matrix: (Units=1/GPa)
#
#
# Indices 1 2 3 4 5 6 
#
# 1 0.025580 -0.008770 -0.008166 0.000000 0.000000 0.000000
# 2 -0.008770 0.029823 0.003932 0.000000 0.000000 0.000000
# 3 -0.008166 0.003932 0.018485 0.000000 0.000000 0.000000
# 4 0.000000 0.000000 0.000000 0.046355 0.000000 0.000000
# 5 0.000000 0.000000 0.000000 0.000000 0.043000 0.000000
# 6 0.000000 0.000000 0.000000 0.000000 0.000000 0.033872
#
#
# Mechanical properties :
#
#
# Convention : Reuss Voigt Hill
#
# Bulk Modulus (GPa) = 20.88558 23.00298 21.94428
# Shear Modulus (GPa) = 20.91307 22.96072 21.93690
#
# Velocity S-wave (km/s) = 3.34035 3.50006 3.42114
# Velocity P-wave (km/s) = 5.10103 5.34854 5.22625
#
# Compressibility (1/GPa) = 0.04787992
#
# Stress axis : x y z
#
# Youngs Moduli (GPa) = 39.09235 33.53133 54.09694
#
# Poissons Ratio (x) = 0.29408 0.44175
# Poissons Ratio (y) = 0.34285 -0.21270
# Poissons Ratio (z) = 0.31923 -0.13184
#
# Static dielectric constant tensor:
#      x y z
#    x 1.626380 0.000000 0.000000 
#    y 0.000000 1.620990 0.000000 
#    z 0.000000 0.000000 1.683800 
# 
# From -- ./inp_files/66968.got.cif
#   From: 2010.05.17/outbox.cif.g08.bks.cpg/sg63_34_cif.got.tgz:66968.got - 2010.06.03 15:47:04.
