data_PCOD9470965
_publ_section_title
;
Structure prediction by ZEFSAII (Michael W. Deem and Ramdas Pophale) SiO2 
 PCOD9470965
Probable space group: C M C M
;
_chemical_formula_sum "Si O2"
_cell_formula_units_Z 112
_cell_length_a 17.524311
_cell_length_b 14.744124
_cell_length_c 19.054654
_cell_angle_alpha 90.000000
_cell_angle_beta 90.000000
_cell_angle_gamma 90.000000
_cell_volume 4923.353208
_symmetry_space_group_name_H-M "C M C M"
_symmetry_group_IT_number 63
_symmetry_cell_setting 'orthorhombic'
loop_
_space_group_symop_operation_xyz
x,y,z
-x,-y,1/2+z
x,-y,-z
-x,y,1/2-z
-x,-y,-z
x,y,1/2-z
-x,y,z
x,-y,1/2+z
1/2+x,1/2+y,z
1/2-x,1/2-y,1/2+z
1/2+x,1/2-y,-z
1/2-x,1/2+y,1/2-z
1/2-x,1/2-y,-z
1/2+x,1/2+y,1/2-z
1/2-x,1/2+y,z
1/2+x,1/2-y,1/2+z
loop_
_atom_site_type_symbol
_atom_site_label
_atom_site_fract_x
_atom_site_fract_y
_atom_site_fract_z
Si Si1 0.212618 0.260220 0.168600
Si Si2 0.112510 0.989252 0.168508
Si Si3 0.226203 0.443060 0.830146
Si Si4 0.613050 0.289462 0.333890
Si Si5 0.090995 0.711263 0.554091
Si Si6 0.084808 0.605132 0.416082
Si Si7 0.086453 0.910745 0.967552
O O1 0.195554 0.277914 0.250000
O O2 0.228786 0.152360 0.160223
O O3 0.296841 0.295036 0.151742
O O4 0.145855 0.298060 0.120329
O O5 0.094414 0.008138 0.250000
O O6 0.204707 0.987538 0.163260
O O7 0.084059 0.064619 0.114824
O O8 0.082872 0.889386 0.149150
O O9 0.196947 0.443968 0.750000
O O10 0.155166 0.448431 0.882222
O O11 0.602744 0.275370 0.250000
O O12 0.583348 0.202030 0.374674
O O13 0.099791 0.633290 0.496352
O O14 0.116391 0.809583 0.521880
O O15 0.000000 0.718470 0.570352
O O16 0.000000 0.563753 0.409875
O O17 0.000000 0.908350 0.995117
O O18 0.126304 0.000000 0.000000
#
# Coordination Sequence:
#
# PCOD9470965 Si02
#       7
#    16  16  16  16  16  16  16
#     4   9  17  33  51  71  98 126 166 217 255 292
#     4  10  19  34  51  73 104 135 170 209 251 306
#     4   9  18  32  52  75 100 131 169 214 254 297
#     4   9  19  32  51  75 100 132 166 205 255 305
#     4  10  20  32  49  72  98 133 169 205 249 298
#     4  10  20  34  51  74 105 136 170 211 256 306
#     4  10  20  33  47  70 107 140 167 203 247 299
#
# _framework density 22.748722999999998
#
# number of rings (size 3 to 8) (size 9 to 14) (size 15 to 20)
#    0.000    2.429    1.429    2.143    0.000    5.714 
#    2.571    2.857    0.000    0.857    0.000    6.000 
#    0.000    0.000    0.000    0.000    0.000    0.000 
#
# Total GULP energy -312657.694009 kJ/mol
# GULP energy per Si atom -5583.173107 kJ/mol
# Density = 2.269695 g / cm^3
# Si number density = 22.748723 Si / 1000 Ang^3
#
#
#
# Elastic Constant Matrix: (Units=GPa)
#
#
# Indices 1 2 3 4 5 6 
#
# 1 136.3105 5.5246 61.8750 0.0000 0.0000 0.0000
# 2 5.5246 30.4342 -12.5673 0.0000 0.0000 0.0000
# 3 61.8750 -12.5673 79.5819 0.0000 0.0000 0.0000
# 4 0.0000 0.0000 0.0000 14.6859 0.0000 0.0000
# 5 0.0000 0.0000 0.0000 0.0000 45.6956 0.0000
# 6 0.0000 0.0000 0.0000 0.0000 0.0000 -18.2168
#
#
#
# Elastic Compliance Matrix: (Units=1/GPa)
#
#
# Indices 1 2 3 4 5 6 
#
# 1 0.012503 -0.006722 -0.010783 0.000000 0.000000 0.000000
# 2 -0.006722 0.038764 0.011348 0.000000 0.000000 0.000000
# 3 -0.010783 0.011348 0.022741 0.000000 0.000000 0.000000
# 4 0.000000 0.000000 0.000000 0.068093 0.000000 0.000000
# 5 0.000000 0.000000 0.000000 0.000000 0.021884 0.000000
# 6 0.000000 0.000000 0.000000 0.000000 0.000000 -0.054894
#
#
# Mechanical properties :
#
#
# Convention : Reuss Voigt Hill
#
# Bulk Modulus (GPa) = 16.20884 39.55457 27.88171
# Shear Modulus (GPa) = 35.21867 21.19922 28.20894
#
# Velocity S-wave (km/s) = 3.93894 3.05599 3.52522
# Velocity P-wave (km/s) = 5.27519 5.46603 5.37145
#
# Compressibility (1/GPa) = 0.06169473
#
# Stress axis : x y z
#
# Youngs Moduli (GPa) = 79.97894 25.79704 43.97255
#
# Poissons Ratio (x) = 0.17342 0.47415
# Poissons Ratio (y) = 0.53764 -0.49901
# Poissons Ratio (z) = 0.86240 -0.29275
#
# Static dielectric constant tensor:
#      x y z
#    x 1.817530 0.000000 0.000000 
#    y 0.000000 1.904600 0.000000 
#    z 0.000000 0.000000 1.859310 
# 
# From -- ./inp_files/46089.got.cif
#   From: 2010.05.17/outbox.cif.g08.bks.cpg/sg63_24_cif.got.tgz:46089.got - 2010.06.03 15:47:04.
