data_PCOD9470042
_publ_section_title
;
Structure prediction by ZEFSAII (Michael W. Deem and Ramdas Pophale) SiO2 
 PCOD9470042
Probable space group: C M C M
;
_chemical_formula_sum "Si O2"
_cell_formula_units_Z 112
_cell_length_a 26.688810
_cell_length_b 13.567292
_cell_length_c 19.133215
_cell_angle_alpha 90.000000
_cell_angle_beta 90.000000
_cell_angle_gamma 90.000000
_cell_volume 6928.039159
_symmetry_space_group_name_H-M "C M C M"
_symmetry_group_IT_number 63
_symmetry_cell_setting 'orthorhombic'
loop_
_space_group_symop_operation_xyz
x,y,z
-x,-y,1/2+z
x,-y,-z
-x,y,1/2-z
-x,-y,-z
x,y,1/2-z
-x,y,z
x,-y,1/2+z
1/2+x,1/2+y,z
1/2-x,1/2-y,1/2+z
1/2+x,1/2-y,-z
1/2-x,1/2+y,1/2-z
1/2-x,1/2-y,-z
1/2+x,1/2+y,1/2-z
1/2-x,1/2+y,z
1/2+x,1/2-y,1/2+z
loop_
_atom_site_type_symbol
_atom_site_label
_atom_site_fract_x
_atom_site_fract_y
_atom_site_fract_z
Si Si1 0.114854 0.090620 0.830012
Si Si2 0.141784 0.241807 0.038957
Si Si3 0.780950 0.592858 0.331507
Si Si4 0.305061 0.068203 0.566682
Si Si5 0.165838 0.114699 0.172151
Si Si6 0.059223 0.109389 0.528711
Si Si7 0.793440 0.803396 0.404511
O O1 0.102776 0.118440 0.750000
O O2 0.074401 0.114079 0.889603
O O3 0.166270 0.141641 0.855701
O O4 0.126568 0.974185 0.831564
O O5 0.149260 0.358895 0.047755
O O6 0.154868 0.192148 0.112377
O O7 0.090185 0.194269 0.011368
O O8 0.182139 0.207853 0.980901
O O9 0.793609 0.602591 0.250000
O O10 0.811837 0.507392 0.369600
O O11 0.721527 0.570065 0.336953
O O12 0.786595 0.695829 0.371573
O O13 0.258234 0.138107 0.586734
O O14 0.292432 0.000000 0.500000
O O15 0.164711 0.158993 0.250000
O O16 0.000000 0.119638 0.519033
O O17 0.074358 0.000000 0.500000
#
# Coordination Sequence:
#
# PCOD9470042 Si02
#       7
#    16  16  16  16  16  16  16
#     4  10  20  33  52  78 110 141 172 217 273 328
#     4  11  21  35  54  75 105 144 180 224 272 325
#     4  11  22  34  48  75 111 147 187 222 255 310
#     4  12  22  33  50  77 107 146 190 221 260 314
#     4  10  19  31  48  76 111 145 179 216 264 319
#     4  10  21  37  59  83 104 131 175 231 283 334
#     4  11  21  32  52  75 110 146 183 221 259 310
#
# _framework density 16.16619
#
# number of rings (size 3 to 8) (size 9 to 14) (size 15 to 20)
#    0.000    1.286    5.714    1.714    0.000    1.429 
#    0.000    0.000    0.000    0.857    0.000    0.000 
#    0.000    0.000    0.000    0.000    0.000    0.000 
#
# Total GULP energy -312391.716605 kJ/mol
# GULP energy per Si atom -5578.423511 kJ/mol
# Density = 1.612940 g / cm^3
# Si number density = 16.166190 Si / 1000 Ang^3
#
#
#
# Elastic Constant Matrix: (Units=GPa)
#
#
# Indices 1 2 3 4 5 6 
#
# 1 53.1788 34.8263 27.5394 0.0000 0.0000 0.0000
# 2 34.8263 102.6549 47.3148 0.0000 0.0000 0.0000
# 3 27.5394 47.3148 125.2036 0.0000 0.0000 0.0000
# 4 0.0000 0.0000 0.0000 29.2655 0.0000 0.0000
# 5 0.0000 0.0000 0.0000 0.0000 9.8850 0.0000
# 6 0.0000 0.0000 0.0000 0.0000 0.0000 18.6709
#
#
#
# Elastic Compliance Matrix: (Units=1/GPa)
#
#
# Indices 1 2 3 4 5 6 
#
# 1 0.024945 -0.007185 -0.002772 0.000000 0.000000 0.000000
# 2 -0.007185 0.013866 -0.003659 0.000000 0.000000 0.000000
# 3 -0.002772 -0.003659 0.009980 0.000000 0.000000 0.000000
# 4 0.000000 0.000000 0.000000 0.034170 0.000000 0.000000
# 5 0.000000 0.000000 0.000000 0.000000 0.101164 0.000000
# 6 0.000000 0.000000 0.000000 0.000000 0.000000 0.053559
#
#
# Mechanical properties :
#
#
# Convention : Reuss Voigt Hill
#
# Bulk Modulus (GPa) = 46.38667 55.59980 50.99323
# Shear Modulus (GPa) = 18.37544 22.98806 20.68175
#
# Velocity S-wave (km/s) = 3.37509 3.77501 3.58064
# Velocity P-wave (km/s) = 6.62905 7.31220 6.97899
#
# Compressibility (1/GPa) = 0.02155792
#
# Stress axis : x y z
#
# Youngs Moduli (GPa) = 40.08742 72.12004 100.20534
#
# Poissons Ratio (x) = 0.51822 0.27772
# Poissons Ratio (y) = 0.28805 0.36669
# Poissons Ratio (z) = 0.11110 0.26392
#
# Static dielectric constant tensor:
#      x y z
#    x 1.522510 0.000000 0.000000 
#    y 0.000000 1.553900 0.000000 
#    z 0.000000 0.000000 1.558060 
# 
# From -- ./inp_files/58343.got.cif
#   From: 2010.05.17/outbox.cif.g08.bks.cpg/sg63_30_cif.got.tgz:58343.got - 2010.06.03 15:47:04.
