data_PCOD9470258
_publ_section_title
;
Structure prediction by ZEFSAII (Michael W. Deem and Ramdas Pophale) SiO2 
 PCOD9470258
Probable space group: C M C M
;
_chemical_formula_sum "Si O2"
_cell_formula_units_Z 88
_cell_length_a 31.604489
_cell_length_b 5.149265
_cell_length_c 34.347155
_cell_angle_alpha 90.000000
_cell_angle_beta 90.000000
_cell_angle_gamma 90.000000
_cell_volume 5589.652194
_symmetry_space_group_name_H-M "C M C M"
_symmetry_group_IT_number 63
_symmetry_cell_setting 'orthorhombic'
loop_
_space_group_symop_operation_xyz
x,y,z
-x,-y,1/2+z
x,-y,-z
-x,y,1/2-z
-x,-y,-z
x,y,1/2-z
-x,y,z
x,-y,1/2+z
1/2+x,1/2+y,z
1/2-x,1/2-y,1/2+z
1/2+x,1/2-y,-z
1/2-x,1/2+y,1/2-z
1/2-x,1/2-y,-z
1/2+x,1/2+y,1/2-z
1/2-x,1/2+y,z
1/2+x,1/2-y,1/2+z
loop_
_atom_site_type_symbol
_atom_site_label
_atom_site_fract_x
_atom_site_fract_y
_atom_site_fract_z
Si Si1 0.084644 0.381820 0.426371
Si Si2 0.869612 0.103637 0.544278
Si Si3 0.051048 0.452585 0.656970
Si Si4 0.000000 0.252382 0.472561
Si Si5 0.271835 0.460181 0.453434
Si Si6 0.948874 0.959792 0.705908
O O1 0.105156 0.628748 0.448759
O O2 0.073279 0.479332 0.383395
O O3 0.041683 0.278084 0.446406
O O4 0.114668 0.131220 0.428492
O O5 0.875687 0.000000 0.500000
O O6 0.819634 0.136798 0.551328
O O7 0.065002 0.182007 0.675988
O O8 0.000000 0.444725 0.650229
O O9 0.059831 0.678813 0.688094
O O10 0.000000 0.500000 0.500000
O O11 0.000000 0.000000 0.500000
O O12 0.266068 0.500000 0.500000
O O13 0.239573 0.244217 0.437772
O O14 0.932970 0.991682 0.750000
O O15 0.000000 0.984067 0.707764
#
# Coordination Sequence:
#
# PCOD9470258 Si02
#       6
#    16  16  16   8  16  16
#     4  12  22  35  47  66  92 127 165 204 244 271
#     4  11  22  34  50  68  92 120 162 208 242 283
#     4  10  19  32  46  64  90 121 156 194 236 277
#     4  12  24  36  48  60  83 126 175 214 238 258
#     4   9  17  31  50  70  88 110 143 191 247 298
#     4   9  17  29  48  68  86 109 148 196 237 280
#
# _framework density 15.743378
#
# number of rings (size 3 to 8) (size 9 to 14) (size 15 to 20)
#    0.000    1.636    0.909    6.000    0.000    5.091 
#    0.000    0.000    0.000    0.000    0.000    0.000 
#    0.000    0.000    0.000    0.000    0.000  229.091 
#
# Total GULP energy -245472.294379 kJ/mol
# GULP energy per Si atom -5578.915781 kJ/mol
# Density = 1.570755 g / cm^3
# Si number density = 15.743378 Si / 1000 Ang^3
#
#
#
# Elastic Constant Matrix: (Units=GPa)
#
#
# Indices 1 2 3 4 5 6 
#
# 1 48.7719 25.2101 12.3931 0.0000 0.0000 0.0000
# 2 25.2101 79.0892 -6.9263 0.0000 0.0000 0.0000
# 3 12.3931 -6.9263 42.2938 0.0000 0.0000 0.0000
# 4 0.0000 0.0000 0.0000 14.4820 0.0000 0.0000
# 5 0.0000 0.0000 0.0000 0.0000 4.8027 0.0000
# 6 0.0000 0.0000 0.0000 0.0000 0.0000 12.9003
#
#
#
# Elastic Compliance Matrix: (Units=1/GPa)
#
#
# Indices 1 2 3 4 5 6 
#
# 1 0.028072 -0.009809 -0.009832 0.000000 0.000000 0.000000
# 2 -0.009809 0.016256 0.005536 0.000000 0.000000 0.000000
# 3 -0.009832 0.005536 0.027432 0.000000 0.000000 0.000000
# 4 0.000000 0.000000 0.000000 0.069051 0.000000 0.000000
# 5 0.000000 0.000000 0.000000 0.000000 0.208216 0.000000
# 6 0.000000 0.000000 0.000000 0.000000 0.000000 0.077518
#
#
# Mechanical properties :
#
#
# Convention : Reuss Voigt Hill
#
# Bulk Modulus (GPa) = 22.96232 25.72319 24.34275
# Shear Modulus (GPa) = 10.65481 15.73553 13.19517
#
# Velocity S-wave (km/s) = 2.60432 3.16492 2.89821
# Velocity P-wave (km/s) = 4.86419 5.45254 5.16675
#
# Compressibility (1/GPa) = 0.04354961
#
# Stress axis : x y z
#
# Youngs Moduli (GPa) = 35.62210 61.51732 36.45387
#
# Poissons Ratio (x) = 0.60344 0.35843
# Poissons Ratio (y) = 0.34943 -0.20183
# Poissons Ratio (z) = 0.35025 -0.34059
#
# Static dielectric constant tensor:
#      x y z
#    x 1.592120 0.000000 0.000000 
#    y 0.000000 1.543740 0.000000 
#    z 0.000000 0.000000 1.512060 
# 
# From -- ./inp_files/74470.got.cif
#   From: 2010.05.17/outbox.cif.g08.bks.cpg/sg63_38_cif.got.tgz:74470.got - 2010.06.03 15:47:04.
