data_PCOD9470088
_publ_section_title
;
Structure prediction by ZEFSAII (Michael W. Deem and Ramdas Pophale) SiO2 
 PCOD9470088
Probable space group: C M C M
;
_chemical_formula_sum "Si O2"
_cell_formula_units_Z 64
_cell_length_a 11.141276
_cell_length_b 14.538298
_cell_length_c 17.625677
_cell_angle_alpha 90.000000
_cell_angle_beta 90.000000
_cell_angle_gamma 90.000000
_cell_volume 2854.922391
_symmetry_space_group_name_H-M "C M C M"
_symmetry_group_IT_number 63
_symmetry_cell_setting 'orthorhombic'
loop_
_space_group_symop_operation_xyz
x,y,z
-x,-y,1/2+z
x,-y,-z
-x,y,1/2-z
-x,-y,-z
x,y,1/2-z
-x,y,z
x,-y,1/2+z
1/2+x,1/2+y,z
1/2-x,1/2-y,1/2+z
1/2+x,1/2-y,-z
1/2-x,1/2+y,1/2-z
1/2-x,1/2-y,-z
1/2+x,1/2+y,1/2-z
1/2-x,1/2+y,z
1/2+x,1/2-y,1/2+z
loop_
_atom_site_type_symbol
_atom_site_label
_atom_site_fract_x
_atom_site_fract_y
_atom_site_fract_z
Si Si1 0.749886 0.768774 0.089758
Si Si2 0.000000 0.232957 0.837671
Si Si3 0.743689 0.512219 0.589853
Si Si4 0.000000 0.488830 0.092082
Si Si5 0.500000 0.508037 0.663429
Si Si6 0.000000 0.280794 0.341676
O O1 0.752541 0.878556 0.103751
O O2 0.625095 0.737064 0.128405
O O3 0.876894 0.735452 0.122908
O O4 0.750000 0.750000 0.000000
O O5 0.000000 0.259559 0.750000
O O6 0.000000 0.120286 0.840510
O O7 0.737231 0.500000 0.500000
O O8 0.871260 0.473580 0.618271
O O9 0.622240 0.475594 0.625218
O O10 0.000000 0.382507 0.119222
O O11 0.000000 0.500000 0.000000
O O12 0.500000 0.479649 0.750000
O O13 0.000000 0.287009 0.250000
#
# Coordination Sequence:
#
# PCOD9470088 Si02
#       6
#    16   8  16   8   8   8
#     4  10  19  31  49  73  97 125 162 204 246 293
#     4   9  17  30  47  68  94 124 158 198 240 283
#     4   9  17  30  48  68  92 121 153 191 234 284
#     4   8  16  29  46  71  97 123 157 202 249 294
#     4   9  17  28  45  69  93 118 154 192 227 272
#     4  10  19  31  50  76 101 129 169 214 251 293
#
# _framework density 22.417421999999998
#
# number of rings (size 3 to 8) (size 9 to 14) (size 15 to 20)
#    0.000    2.750    0.000    1.875    0.000    6.000 
#    0.000    0.000    0.000    4.500    0.000   38.500 
#    0.000    0.000    0.000    0.000    0.000    0.000 
#
# Total GULP energy -178519.751152 kJ/mol
# GULP energy per Si atom -5578.742224 kJ/mol
# Density = 2.236640 g / cm^3
# Si number density = 22.417422 Si / 1000 Ang^3
#
#
#
# Elastic Constant Matrix: (Units=GPa)
#
#
# Indices 1 2 3 4 5 6 
#
# 1 334.5512 17.9595 120.2078 0.0000 0.0000 0.0000
# 2 17.9595 92.5815 2.6871 0.0000 0.0000 0.0000
# 3 120.2078 2.6871 122.2578 0.0000 0.0000 0.0000
# 4 0.0000 0.0000 0.0000 20.9679 0.0000 0.0000
# 5 0.0000 0.0000 0.0000 0.0000 4.2681 0.0000
# 6 0.0000 0.0000 0.0000 0.0000 0.0000 -16.2032
#
#
#
# Elastic Compliance Matrix: (Units=1/GPa)
#
#
# Indices 1 2 3 4 5 6 
#
# 1 0.004677 -0.000774 -0.004581 0.000000 0.000000 0.000000
# 2 -0.000774 0.010936 0.000521 0.000000 0.000000 0.000000
# 3 -0.004581 0.000521 0.012672 0.000000 0.000000 0.000000
# 4 0.000000 0.000000 0.000000 0.047692 0.000000 0.000000
# 5 0.000000 0.000000 0.000000 0.000000 0.234295 0.000000
# 6 0.000000 0.000000 0.000000 0.000000 0.000000 -0.061716
#
#
# Mechanical properties :
#
#
# Convention : Reuss Voigt Hill
#
# Bulk Modulus (GPa) = 53.71649 92.34438 73.03043
# Shear Modulus (GPa) = 18.90850 29.04230 23.97540
#
# Velocity S-wave (km/s) = 2.90741 3.60324 3.27387
# Velocity P-wave (km/s) = 5.94009 7.65465 6.85122
#
# Compressibility (1/GPa) = 0.01861626
#
# Stress axis : x y z
#
# Youngs Moduli (GPa) = 213.82318 91.43804 78.91110
#
# Poissons Ratio (x) = 0.07080 0.36152
# Poissons Ratio (y) = 0.16555 -0.04110
# Poissons Ratio (z) = 0.97959 -0.04763
#
# Static dielectric constant tensor:
#      x y z
#    x 1.874530 0.000000 0.000000 
#    y 0.000000 1.814210 0.000000 
#    z 0.000000 0.000000 1.725330 
# 
# From -- ./inp_files/29220.got.cif
#   From: 2010.05.17/outbox.cif.g08.bks.cpg/sg63_15_cif.got.tgz:29220.got - 2010.06.03 15:47:04.
