data_PCOD9470383
_publ_section_title
;
Structure prediction by ZEFSAII (Michael W. Deem and Ramdas Pophale) SiO2 
 PCOD9470383
Probable space group: C M C M
;
_chemical_formula_sum "Si O2"
_cell_formula_units_Z 64
_cell_length_a 28.901635
_cell_length_b 11.384367
_cell_length_c 9.086272
_cell_angle_alpha 90.000000
_cell_angle_beta 90.000000
_cell_angle_gamma 90.000000
_cell_volume 2989.627179
_symmetry_space_group_name_H-M "C M C M"
_symmetry_group_IT_number 63
_symmetry_cell_setting 'orthorhombic'
loop_
_space_group_symop_operation_xyz
x,y,z
-x,-y,1/2+z
x,-y,-z
-x,y,1/2-z
-x,-y,-z
x,y,1/2-z
-x,y,z
x,-y,1/2+z
1/2+x,1/2+y,z
1/2-x,1/2-y,1/2+z
1/2+x,1/2-y,-z
1/2-x,1/2+y,1/2-z
1/2-x,1/2-y,-z
1/2+x,1/2+y,1/2-z
1/2-x,1/2+y,z
1/2+x,1/2-y,1/2+z
loop_
_atom_site_type_symbol
_atom_site_label
_atom_site_fract_x
_atom_site_fract_y
_atom_site_fract_z
Si Si1 0.687002 0.354507 0.416204
Si Si2 0.081030 0.877109 0.429559
Si Si3 0.944248 0.376102 0.421212
Si Si4 0.281576 0.096894 0.412113
O O1 0.692542 0.400150 0.250000
O O2 0.635848 0.382724 0.466277
O O3 0.690442 0.214934 0.409849
O O4 0.731346 0.384039 0.514758
O O5 0.075154 0.877347 0.250000
O O6 0.065985 0.749427 0.496031
O O7 0.061220 0.000000 0.500000
O O8 0.929062 0.500000 0.500000
O O9 0.927533 0.371420 0.250000
O O10 0.000000 0.382777 0.416671
O O11 0.274281 0.053485 0.250000
O O12 0.308588 0.000000 0.500000
#
# Coordination Sequence:
#
# PCOD9470383 Si02
#       4
#    16  16  16  16
#     4   9  20  36  52  75 107 145 189 235 285 339
#     4  11  23  39  60  88 122 158 198 244 294 350
#     4  10  22  42  67  93 121 154 192 236 289 349
#     4  10  19  32  51  74 103 142 188 237 287 339
#
# _framework density 21.407350000000001
#
# number of rings (size 3 to 8) (size 9 to 14) (size 15 to 20)
#    0.000    2.000    0.000    3.000    0.000    8.000 
#    0.000    2.500    0.000    0.000    0.000    0.000 
#    0.000    0.000    0.000    0.000    0.000    0.000 
#
# Total GULP energy -178146.373481 kJ/mol
# GULP energy per Si atom -5567.074171 kJ/mol
# Density = 2.135863 g / cm^3
# Si number density = 21.407350 Si / 1000 Ang^3
#
#
#
# Elastic Constant Matrix: (Units=GPa)
#
#
# Indices 1 2 3 4 5 6 
#
# 1 42.2054 20.3301 19.0140 0.0000 0.0000 0.0000
# 2 20.3301 190.5050 68.5390 0.0000 0.0000 0.0000
# 3 19.0140 68.5390 92.4954 0.0000 0.0000 0.0000
# 4 0.0000 0.0000 0.0000 41.8830 0.0000 0.0000
# 5 0.0000 0.0000 0.0000 0.0000 19.1360 0.0000
# 6 0.0000 0.0000 0.0000 0.0000 0.0000 54.3815
#
#
#
# Elastic Compliance Matrix: (Units=1/GPa)
#
#
# Indices 1 2 3 4 5 6 
#
# 1 0.026303 -0.001175 -0.004537 0.000000 0.000000 0.000000
# 2 -0.001175 0.007210 -0.005101 0.000000 0.000000 0.000000
# 3 -0.004537 -0.005101 0.015524 0.000000 0.000000 0.000000
# 4 0.000000 0.000000 0.000000 0.023876 0.000000 0.000000
# 5 0.000000 0.000000 0.000000 0.000000 0.052257 0.000000
# 6 0.000000 0.000000 0.000000 0.000000 0.000000 0.018389
#
#
# Mechanical properties :
#
#
# Convention : Reuss Voigt Hill
#
# Bulk Modulus (GPa) = 36.48018 60.10801 48.29409
# Shear Modulus (GPa) = 28.68274 37.56828 33.12551
#
# Velocity S-wave (km/s) = 3.66437 4.19373 3.93795
# Velocity P-wave (km/s) = 5.91451 7.18255 6.57915
#
# Compressibility (1/GPa) = 0.02741215
#
# Stress axis : x y z
#
# Youngs Moduli (GPa) = 38.01801 138.70073 64.41774
#
# Poissons Ratio (x) = 0.16296 0.29223
# Poissons Ratio (y) = 0.04467 0.32859
# Poissons Ratio (z) = 0.17247 0.70750
#
# Static dielectric constant tensor:
#      x y z
#    x 1.755590 0.000000 0.000000 
#    y 0.000000 1.841220 0.000000 
#    z 0.000000 0.000000 1.888190 
# 
# From -- ./inp_files/13726.got.cif
#   From: 2010.05.17/outbox.cif.g08.bks.cpg/sg63_7_cif.got.tgz:13726.got - 2010.06.03 15:47:04.
