data_PCOD9470878
_publ_section_title
;
Structure prediction by ZEFSAII (Michael W. Deem and Ramdas Pophale) SiO2 
 PCOD9470878
Probable space group: C M C M
;
_chemical_formula_sum "Si O2"
_cell_formula_units_Z 116
_cell_length_a 26.951370
_cell_length_b 25.421807
_cell_length_c 7.692056
_cell_angle_alpha 90.000000
_cell_angle_beta 90.000000
_cell_angle_gamma 90.000000
_cell_volume 5270.231603
_symmetry_space_group_name_H-M "C M C M"
_symmetry_group_IT_number 63
_symmetry_cell_setting 'orthorhombic'
loop_
_space_group_symop_operation_xyz
x,y,z
-x,-y,1/2+z
x,-y,-z
-x,y,1/2-z
-x,-y,-z
x,y,1/2-z
-x,y,z
x,-y,1/2+z
1/2+x,1/2+y,z
1/2-x,1/2-y,1/2+z
1/2+x,1/2-y,-z
1/2-x,1/2+y,1/2-z
1/2-x,1/2-y,-z
1/2+x,1/2+y,1/2-z
1/2-x,1/2+y,z
1/2+x,1/2-y,1/2+z
loop_
_atom_site_type_symbol
_atom_site_label
_atom_site_fract_x
_atom_site_fract_y
_atom_site_fract_z
Si Si1 0.500000 0.089200 0.250000
Si Si2 0.737221 0.593872 0.462419
Si Si3 0.839824 0.556313 0.456079
Si Si4 0.786179 0.702778 0.042111
Si Si5 0.056565 0.843359 0.457923
Si Si6 0.571720 0.877777 0.444238
Si Si7 0.103497 0.733289 0.038488
Si Si8 0.871420 0.060645 0.456478
O O1 0.542495 0.093343 0.403545
O O2 0.734490 0.593905 0.250000
O O3 0.782933 0.557207 0.517066
O O4 0.757599 0.650710 0.520137
O O5 0.683199 0.576829 0.527371
O O6 0.862644 0.500000 0.500000
O O7 0.839889 0.564502 0.250000
O O8 0.871703 0.602586 0.538417
O O9 0.791674 0.696004 0.250000
O O10 0.840884 0.718893 0.977685
O O11 0.750000 0.750000 0.000000
O O12 0.053489 0.837450 0.250000
O O13 0.084435 0.790377 0.521492
O O14 0.088105 0.896034 0.490024
O O15 0.000000 0.846635 0.525101
O O16 0.555012 0.889966 0.250000
O O17 0.569489 0.815286 0.478378
O O18 0.103135 0.733007 0.250000
O O19 0.868495 0.063595 0.250000
O O20 0.883036 0.000000 0.500000
#
# Coordination Sequence:
#
# PCOD9470878 Si02
#       8
#     4  16  16  16  16  16  16  16
#     4  12  26  48  70  94 142 176 222 296 340 386
#     4   9  19  36  61  92 130 174 213 264 337 403
#     4  11  21  41  67  95 135 173 217 278 335 403
#     4  10  19  33  55  87 130 175 211 256 325 391
#     4  10  23  41  65  94 127 174 226 276 345 408
#     4  12  25  43  71 102 129 179 231 275 346 415
#     4  10  20  39  65  94 135 177 214 276 340 401
#     4  11  23  41  64  92 130 171 223 282 341 409
#
# _framework density 22.010418000000001
#
# number of rings (size 3 to 8) (size 9 to 14) (size 15 to 20)
#    0.000    1.517    2.759    2.276    0.966    1.655 
#    0.000    3.103    0.000    0.000    0.000    0.000 
#    0.000    0.000    0.000    0.000    0.000    0.000 
#
# Total GULP energy -323483.053031 kJ/mol
# GULP energy per Si atom -5577.294018 kJ/mol
# Density = 2.196032 g / cm^3
# Si number density = 22.010418 Si / 1000 Ang^3
#
#
#
# Elastic Constant Matrix: (Units=GPa)
#
#
# Indices 1 2 3 4 5 6 
#
# 1 120.9483 57.6784 16.1082 0.0000 0.0000 0.0000
# 2 57.6784 161.0309 3.1767 0.0000 0.0000 0.0000
# 3 16.1082 3.1767 84.4299 0.0000 0.0000 0.0000
# 4 0.0000 0.0000 0.0000 19.6937 0.0000 0.0000
# 5 0.0000 0.0000 0.0000 0.0000 -20.1672 0.0000
# 6 0.0000 0.0000 0.0000 0.0000 0.0000 1.2898
#
#
#
# Elastic Compliance Matrix: (Units=1/GPa)
#
#
# Indices 1 2 3 4 5 6 
#
# 1 0.010242 -0.003633 -0.001817 0.000000 0.000000 0.000000
# 2 -0.003633 0.007503 0.000411 0.000000 0.000000 0.000000
# 3 -0.001817 0.000411 0.012175 0.000000 0.000000 0.000000
# 4 0.000000 0.000000 0.000000 0.050778 0.000000 0.000000
# 5 0.000000 0.000000 0.000000 0.000000 -0.049586 0.000000
# 6 0.000000 0.000000 0.000000 0.000000 0.000000 0.775288
#
#
# Mechanical properties :
#
#
# Convention : Reuss Voigt Hill
#
# Bulk Modulus (GPa) = 50.39800 57.81507 54.10653
# Shear Modulus (GPa) = 6.07464 19.45966 12.76715
#
# Velocity S-wave (km/s) = 1.66309 2.97663 2.41104
# Velocity P-wave (km/s) = 5.16090 6.17559 5.69090
#
# Compressibility (1/GPa) = 0.01984206
#
# Stress axis : x y z
#
# Youngs Moduli (GPa) = 97.63253 133.27834 82.13254
#
# Poissons Ratio (x) = 0.48418 0.14927
# Poissons Ratio (y) = 0.35468 -0.03374
# Poissons Ratio (z) = 0.17744 -0.05475
#
# Static dielectric constant tensor:
#      x y z
#    x 1.894970 0.000000 0.000000 
#    y 0.000000 1.845150 0.000000 
#    z 0.000000 0.000000 1.803350 
# 
# From -- ./inp_files/12955.got.cif
#   From: 2010.05.17/outbox.cif.g08.bks.cpg/sg63_7_cif.got.tgz:12955.got - 2010.06.03 15:47:04.
