data_PCOD9470441
_publ_section_title
;
Structure prediction by ZEFSAII (Michael W. Deem and Ramdas Pophale) SiO2 
 PCOD9470441
Probable space group: C M C M
;
_chemical_formula_sum "Si O2"
_cell_formula_units_Z 80
_cell_length_a 9.357324
_cell_length_b 14.582745
_cell_length_c 26.643091
_cell_angle_alpha 90.000000
_cell_angle_beta 90.000000
_cell_angle_gamma 90.000000
_cell_volume 3635.595499
_symmetry_space_group_name_H-M "C M C M"
_symmetry_group_IT_number 63
_symmetry_cell_setting 'orthorhombic'
loop_
_space_group_symop_operation_xyz
x,y,z
-x,-y,1/2+z
x,-y,-z
-x,y,1/2-z
-x,-y,-z
x,y,1/2-z
-x,y,z
x,-y,1/2+z
1/2+x,1/2+y,z
1/2-x,1/2-y,1/2+z
1/2+x,1/2-y,-z
1/2-x,1/2+y,1/2-z
1/2-x,1/2-y,-z
1/2+x,1/2+y,1/2-z
1/2-x,1/2+y,z
1/2+x,1/2-y,1/2+z
loop_
_atom_site_type_symbol
_atom_site_label
_atom_site_fract_x
_atom_site_fract_y
_atom_site_fract_z
Si Si1 0.338938 0.353928 0.250000
Si Si2 0.338005 0.387175 0.859879
Si Si3 0.338761 0.571750 0.250000
Si Si4 0.839379 0.671031 0.649873
Si Si5 0.336393 0.871420 0.544098
Si Si6 0.836254 0.147590 0.945365
O O1 0.500000 0.314706 0.250000
O O2 0.351420 0.463224 0.250000
O O3 0.249386 0.330021 0.200931
O O4 0.500000 0.427062 0.861372
O O5 0.274339 0.403983 0.804192
O O6 0.353251 0.277732 0.864166
O O7 0.241311 0.412584 0.907109
O O8 0.500000 0.614625 0.250000
O O9 0.748627 0.625846 0.605473
O O10 0.000000 0.633121 0.655480
O O11 0.500000 0.901972 0.540053
O O12 0.247035 0.888755 0.493800
O O13 0.339483 0.759548 0.549875
O O14 0.000000 0.116360 0.943908
#
# Coordination Sequence:
#
# PCOD9470441 Si02
#       6
#     8  16   8  16  16  16
#     4  11  22  35  51  71  98 131 166 204 246 295
#     4   9  17  32  53  74  97 129 168 205 242 288
#     4   9  19  35  53  71  94 129 170 206 242 291
#     4  10  19  32  52  76 101 129 163 205 248 289
#     4   9  16  26  43  72 105 131 158 197 245 291
#     4   9  16  27  45  71 102 133 163 196 238 290
#
# _framework density 22.004646000000001
#
# number of rings (size 3 to 8) (size 9 to 14) (size 15 to 20)
#    0.000    2.600    0.000    2.700    0.000    7.200 
#    0.000    2.500    0.000    1.200    0.000    8.400 
#    0.000    0.000    0.000    0.000    0.000    0.000 
#
# Total GULP energy -223371.063808 kJ/mol
# GULP energy per Si atom -5584.276595 kJ/mol
# Density = 2.195456 g / cm^3
# Si number density = 22.004646 Si / 1000 Ang^3
#
#
#
# Elastic Constant Matrix: (Units=GPa)
#
#
# Indices 1 2 3 4 5 6 
#
# 1 210.7273 3.9055 135.9019 0.0000 0.0000 0.0000
# 2 3.9055 37.3562 -8.5684 0.0000 0.0000 0.0000
# 3 135.9019 -8.5684 223.1067 0.0000 0.0000 0.0000
# 4 0.0000 0.0000 0.0000 -76.3438 0.0000 0.0000
# 5 0.0000 0.0000 0.0000 0.0000 95.9453 0.0000
# 6 0.0000 0.0000 0.0000 0.0000 0.0000 -7.5330
#
#
#
# Elastic Compliance Matrix: (Units=1/GPa)
#
#
# Indices 1 2 3 4 5 6 
#
# 1 0.007956 -0.001961 -0.004921 0.000000 0.000000 0.000000
# 2 -0.001961 0.027490 0.002250 0.000000 0.000000 0.000000
# 3 -0.004921 0.002250 0.007566 0.000000 0.000000 0.000000
# 4 0.000000 0.000000 0.000000 -0.013099 0.000000 0.000000
# 5 0.000000 0.000000 0.000000 0.000000 0.010423 0.000000
# 6 0.000000 0.000000 0.000000 0.000000 0.000000 -0.132749
#
#
# Mechanical properties :
#
#
# Convention : Reuss Voigt Hill
#
# Bulk Modulus (GPa) = 29.63089 81.51870 55.57480
# Shear Modulus (GPa) = -69.54212 25.07709 -22.23251
#
# Velocity S-wave (km/s) = -5.62779 3.37950 -3.18206
# Velocity P-wave (km/s) = 5.36044 7.23565 3.43658
#
# Compressibility (1/GPa) = 0.03374857
#
# Stress axis : x y z
#
# Youngs Moduli (GPa) = 125.69606 36.37635 132.16403
#
# Poissons Ratio (x) = 0.07132 0.65043
# Poissons Ratio (y) = 0.24644 -0.29737
# Poissons Ratio (z) = 0.61860 -0.08185
#
# Static dielectric constant tensor:
#      x y z
#    x 1.802810 0.000000 0.000000 
#    y 0.000000 1.834360 0.000000 
#    z 0.000000 0.000000 1.789130 
# 
# From -- ./inp_files/59516.got.cif
#   From: 2010.05.17/outbox.cif.g08.bks.cpg/sg63_30_cif.got.tgz:59516.got - 2010.06.03 15:47:04.
