data_PCOD9470775
_publ_section_title
;
Structure prediction by ZEFSAII (Michael W. Deem and Ramdas Pophale) SiO2 
 PCOD9470775
Probable space group: C M C M
;
_chemical_formula_sum "Si O2"
_cell_formula_units_Z 64
_cell_length_a 8.035339
_cell_length_b 14.507331
_cell_length_c 24.576300
_cell_angle_alpha 90.000000
_cell_angle_beta 90.000000
_cell_angle_gamma 90.000000
_cell_volume 2864.891795
_symmetry_space_group_name_H-M "C M C M"
_symmetry_group_IT_number 63
_symmetry_cell_setting 'orthorhombic'
loop_
_space_group_symop_operation_xyz
x,y,z
-x,-y,1/2+z
x,-y,-z
-x,y,1/2-z
-x,-y,-z
x,y,1/2-z
-x,y,z
x,-y,1/2+z
1/2+x,1/2+y,z
1/2-x,1/2-y,1/2+z
1/2+x,1/2-y,-z
1/2-x,1/2+y,1/2-z
1/2-x,1/2-y,-z
1/2+x,1/2+y,1/2-z
1/2-x,1/2+y,z
1/2+x,1/2-y,1/2+z
loop_
_atom_site_type_symbol
_atom_site_label
_atom_site_fract_x
_atom_site_fract_y
_atom_site_fract_z
Si Si1 0.311407 0.849663 0.750000
Si Si2 0.319456 0.901538 0.369074
Si Si3 0.000000 0.892717 0.434014
Si Si4 0.500000 0.380902 0.940282
Si Si5 0.190437 0.617296 0.370689
Si Si6 0.310197 0.370719 0.250000
O O1 0.500000 0.888589 0.750000
O O2 0.241053 0.876431 0.808642
O O3 0.318215 0.739646 0.750000
O O4 0.500000 0.859764 0.380480
O O5 0.163667 0.861723 0.401499
O O6 0.281851 0.898106 0.304937
O O7 0.326613 0.009298 0.383821
O O8 0.000000 0.860235 0.495920
O O9 0.000000 0.005898 0.434797
O O10 0.667989 0.346455 0.910913
O O11 0.000000 0.655979 0.372270
O O12 0.500000 0.407017 0.250000
#
# Coordination Sequence:
#
# PCOD9470775 Si02
#       6
#     8  16   8   8  16   8
#     4   9  19  34  52  77 104 138 168 212 262 308
#     4  10  19  33  54  77 105 138 169 209 258 308
#     4   9  18  33  51  79 109 130 171 214 252 303
#     4   9  18  31  53  81 103 134 171 212 256 299
#     4   9  18  34  53  76 106 136 170 211 256 306
#     4  11  20  33  53  77 105 139 166 213 263 308
#
# _framework density 22.339413
#
# number of rings (size 3 to 8) (size 9 to 14) (size 15 to 20)
#    0.000    2.500    1.250    1.125    0.000    3.500 
#    4.500    5.000    0.000    1.500    0.000    0.000 
#    0.000    0.000    0.000    0.000    0.000    0.000 
#
# Total GULP energy -178654.654524 kJ/mol
# GULP energy per Si atom -5582.957954 kJ/mol
# Density = 2.228857 g / cm^3
# Si number density = 22.339413 Si / 1000 Ang^3
#
#
#
# Elastic Constant Matrix: (Units=GPa)
#
#
# Indices 1 2 3 4 5 6 
#
# 1 204.2819 16.7345 116.7999 0.0000 0.0000 0.0000
# 2 16.7345 41.8571 -11.6772 0.0000 0.0000 0.0000
# 3 116.7999 -11.6772 170.2122 0.0000 0.0000 0.0000
# 4 0.0000 0.0000 0.0000 -129.8244 0.0000 0.0000
# 5 0.0000 0.0000 0.0000 0.0000 -60.3950 0.0000
# 6 0.0000 0.0000 0.0000 0.0000 0.0000 6.8624
#
#
#
# Elastic Compliance Matrix: (Units=1/GPa)
#
#
# Indices 1 2 3 4 5 6 
#
# 1 0.009156 -0.005519 -0.006662 0.000000 0.000000 0.000000
# 2 -0.005519 0.027684 0.005686 0.000000 0.000000 0.000000
# 3 -0.006662 0.005686 0.010836 0.000000 0.000000 0.000000
# 4 0.000000 0.000000 0.000000 -0.007703 0.000000 0.000000
# 5 0.000000 0.000000 0.000000 0.000000 -0.016558 0.000000
# 6 0.000000 0.000000 0.000000 0.000000 0.000000 0.145723
#
#
# Mechanical properties :
#
#
# Convention : Reuss Voigt Hill
#
# Bulk Modulus (GPa) = 28.82867 73.34062 51.08464
# Shear Modulus (GPa) = 25.81453 -17.03847 4.38803
#
# Velocity S-wave (km/s) = 3.40304 -2.76471 1.40304
# Velocity P-wave (km/s) = 5.32670 4.76549 5.05389
#
# Compressibility (1/GPa) = 0.03468770
#
# Stress axis : x y z
#
# Youngs Moduli (GPa) = 109.21662 36.12229 92.28240
#
# Poissons Ratio (x) = 0.19936 0.61475
# Poissons Ratio (y) = 0.60277 -0.52475
# Poissons Ratio (z) = 0.72755 -0.20541
#
# Static dielectric constant tensor:
#      x y z
#    x 1.849440 0.000000 0.000000 
#    y 0.000000 1.838160 0.000000 
#    z 0.000000 0.000000 1.776830 
# 
# From -- ./inp_files/50420.got.cif
#   From: 2010.05.17/outbox.cif.g08.bks.cpg/sg63_26_cif.got.tgz:50420.got - 2010.06.03 15:47:04.
