data_PCOD9470399
_publ_section_title
;
Structure prediction by ZEFSAII (Michael W. Deem and Ramdas Pophale) SiO2 
 PCOD9470399
Probable space group: C M C M
;
_chemical_formula_sum "Si O2"
_cell_formula_units_Z 112
_cell_length_a 14.441836
_cell_length_b 33.843882
_cell_length_c 14.024172
_cell_angle_alpha 90.000000
_cell_angle_beta 90.000000
_cell_angle_gamma 90.000000
_cell_volume 6854.563603
_symmetry_space_group_name_H-M "C M C M"
_symmetry_group_IT_number 63
_symmetry_cell_setting 'orthorhombic'
loop_
_space_group_symop_operation_xyz
x,y,z
-x,-y,1/2+z
x,-y,-z
-x,y,1/2-z
-x,-y,-z
x,y,1/2-z
-x,y,z
x,-y,1/2+z
1/2+x,1/2+y,z
1/2-x,1/2-y,1/2+z
1/2+x,1/2-y,-z
1/2-x,1/2+y,1/2-z
1/2-x,1/2-y,-z
1/2+x,1/2+y,1/2-z
1/2-x,1/2+y,z
1/2+x,1/2-y,1/2+z
loop_
_atom_site_type_symbol
_atom_site_label
_atom_site_fract_x
_atom_site_fract_y
_atom_site_fract_z
Si Si1 0.295375 0.062135 0.362685
Si Si2 0.108120 0.823667 0.997931
Si Si3 0.393214 0.018669 0.863539
Si Si4 0.109868 0.398601 0.468443
Si Si5 0.890561 0.750674 0.640309
Si Si6 0.723014 0.829941 0.136987
Si Si7 0.395512 0.600571 0.361593
O O1 0.314215 0.067147 0.250000
O O2 0.351347 0.093558 0.425851
O O3 0.186726 0.069764 0.379194
O O4 0.328936 0.018229 0.389246
O O5 0.130848 0.785282 0.934004
O O6 0.117637 0.861817 0.929524
O O7 0.000000 0.821083 0.026398
O O8 0.177901 0.827265 0.085597
O O9 0.386360 0.024722 0.750000
O O10 0.500000 0.007468 0.885144
O O11 0.373074 0.059892 0.914161
O O12 0.163865 0.363976 0.414824
O O13 0.000000 0.391196 0.468592
O O14 0.875828 0.764189 0.750000
O O15 0.830401 0.711620 0.624707
O O16 0.000000 0.741148 0.631404
O O17 0.730231 0.837818 0.250000
O O18 0.389110 0.612657 0.250000
O O19 0.500000 0.585154 0.376634
#
# Coordination Sequence:
#
# PCOD9470399 Si02
#       7
#    16  16  16  16  16  16  16
#     4  10  19  32  51  76 104 131 167 217 266 308
#     4  10  19  34  55  76 101 133 173 214 256 304
#     4   9  18  32  51  75 101 134 175 213 251 304
#     4  11  21  34  52  74 104 141 176 210 254 310
#     4   9  18  33  55  81 105 130 165 211 257 303
#     4  11  22  35  51  76 107 139 175 214 255 300
#     4   9  17  31  53  78 101 128 167 213 258 304
#
# _framework density 16.339479999999998
#
# number of rings (size 3 to 8) (size 9 to 14) (size 15 to 20)
#    0.000    2.143    1.429    2.571    0.000    5.429 
#    0.000    0.000    0.000    2.571    0.000    4.000 
#    0.000    0.000    0.000    0.000    0.000    0.000 
#
# Total GULP energy -312354.354400 kJ/mol
# GULP energy per Si atom -5577.756329 kJ/mol
# Density = 1.630229 g / cm^3
# Si number density = 16.339480 Si / 1000 Ang^3
#
#
#
# Elastic Constant Matrix: (Units=GPa)
#
#
# Indices 1 2 3 4 5 6 
#
# 1 105.0414 69.5274 61.7937 0.0000 0.0000 0.0000
# 2 69.5274 83.0046 47.6574 0.0000 0.0000 0.0000
# 3 61.7937 47.6574 79.6669 0.0000 0.0000 0.0000
# 4 0.0000 0.0000 0.0000 24.1750 0.0000 0.0000
# 5 0.0000 0.0000 0.0000 0.0000 26.1796 0.0000
# 6 0.0000 0.0000 0.0000 0.0000 0.0000 22.7337
#
#
#
# Elastic Compliance Matrix: (Units=1/GPa)
#
#
# Indices 1 2 3 4 5 6 
#
# 1 0.026557 -0.015868 -0.011107 0.000000 0.000000 0.000000
# 2 -0.015868 0.027832 -0.004341 0.000000 0.000000 0.000000
# 3 -0.011107 -0.004341 0.023764 0.000000 0.000000 0.000000
# 4 0.000000 0.000000 0.000000 0.041365 0.000000 0.000000
# 5 0.000000 0.000000 0.000000 0.000000 0.038198 0.000000
# 6 0.000000 0.000000 0.000000 0.000000 0.000000 0.043988
#
#
# Mechanical properties :
#
#
# Convention : Reuss Voigt Hill
#
# Bulk Modulus (GPa) = 64.42796 69.51889 66.97342
# Shear Modulus (GPa) = 18.55234 20.53327 19.54281
#
# Velocity S-wave (km/s) = 3.37327 3.54879 3.46214
# Velocity P-wave (km/s) = 7.39516 7.70914 7.55378
#
# Compressibility (1/GPa) = 0.01552121
#
# Stress axis : x y z
#
# Youngs Moduli (GPa) = 37.65480 35.93038 42.08079
#
# Poissons Ratio (x) = 0.57015 0.46737
# Poissons Ratio (y) = 0.59751 0.18267
# Poissons Ratio (z) = 0.41821 0.15597
#
# Static dielectric constant tensor:
#      x y z
#    x 1.543030 0.000000 0.000000 
#    y 0.000000 1.520310 0.000000 
#    z 0.000000 0.000000 1.556090 
# 
# From -- ./inp_files/32518.got.cif
#   From: 2010.05.17/outbox.cif.g08.bks.cpg/sg63_17_cif.got.tgz:32518.got - 2010.06.03 15:47:04.
