data_PCOD9470481
_publ_section_title
;
Structure prediction by ZEFSAII (Michael W. Deem and Ramdas Pophale) SiO2 
 PCOD9470481
Probable space group: C M C M
;
_chemical_formula_sum "Si O2"
_cell_formula_units_Z 104
_cell_length_a 20.349498
_cell_length_b 34.317650
_cell_length_c 8.089502
_cell_angle_alpha 90.000000
_cell_angle_beta 90.000000
_cell_angle_gamma 90.000000
_cell_volume 5649.279049
_symmetry_space_group_name_H-M "C M C M"
_symmetry_group_IT_number 63
_symmetry_cell_setting 'orthorhombic'
loop_
_space_group_symop_operation_xyz
x,y,z
-x,-y,1/2+z
x,-y,-z
-x,y,1/2-z
-x,-y,-z
x,y,1/2-z
-x,y,z
x,-y,1/2+z
1/2+x,1/2+y,z
1/2-x,1/2-y,1/2+z
1/2+x,1/2-y,-z
1/2-x,1/2+y,1/2-z
1/2-x,1/2-y,-z
1/2+x,1/2+y,1/2-z
1/2-x,1/2+y,z
1/2+x,1/2-y,1/2+z
loop_
_atom_site_type_symbol
_atom_site_label
_atom_site_fract_x
_atom_site_fract_y
_atom_site_fract_z
Si Si1 0.361973 0.075351 0.552760
Si Si2 0.723130 0.543417 0.947529
Si Si3 0.188861 0.343157 0.549972
Si Si4 0.830130 0.874649 0.552851
Si Si5 0.825213 0.742944 0.050457
Si Si6 0.500000 0.044462 0.949989
Si Si7 0.425290 0.690549 0.948440
O O1 0.362279 0.069078 0.750000
O O2 0.297296 0.052752 0.487333
O O3 0.351489 0.120589 0.516558
O O4 0.431999 0.062233 0.485440
O O5 0.724796 0.544450 0.750000
O O6 0.702945 0.500000 0.000000
O O7 0.679158 0.580210 0.003391
O O8 0.188756 0.344195 0.750000
O O9 0.264195 0.351521 0.495184
O O10 0.161654 0.301431 0.496011
O O11 0.831623 0.872781 0.750000
O O12 0.892270 0.851055 0.486472
O O13 0.827859 0.743866 0.250000
O O14 0.876039 0.775537 0.987707
O O15 0.750000 0.750000 0.000000
O O16 0.500000 0.048511 0.750000
O O17 0.500000 0.000000 0.000000
O O18 0.427763 0.694632 0.750000
O O19 0.500000 0.693727 0.011361
#
# Coordination Sequence:
#
# PCOD9470481 Si02
#       7
#    16  16  16  16  16   8  16
#     4   9  19  33  49  70 100 137 174 215 263 313
#     4  10  19  32  52  79 106 134 170 215 265 315
#     4   9  18  32  50  75 102 130 172 219 261 306
#     4  10  19  33  54  78 105 136 172 216 261 310
#     4  10  19  33  54  79 106 138 177 221 263 308
#     4  10  20  34  50  70  98 134 178 220 262 316
#     4  10  21  36  54  78 109 144 179 217 264 318
#
# _framework density 18.409427999999998
#
# number of rings (size 3 to 8) (size 9 to 14) (size 15 to 20)
#    0.000    2.308    1.538    1.385    0.000    2.769 
#    1.385    0.000    0.000    0.462    0.000    0.000 
#    0.000    0.000    0.000    0.000    0.000    0.000 
#
# Total GULP energy -289980.513294 kJ/mol
# GULP energy per Si atom -5576.548333 kJ/mol
# Density = 1.836753 g / cm^3
# Si number density = 18.409428 Si / 1000 Ang^3
#
#
#
# Elastic Constant Matrix: (Units=GPa)
#
#
# Indices 1 2 3 4 5 6 
#
# 1 128.8544 75.2917 9.0729 0.0000 0.0000 0.0000
# 2 75.2917 134.1738 0.8669 0.0000 0.0000 0.0000
# 3 9.0729 0.8669 11.3051 0.0000 0.0000 0.0000
# 4 0.0000 0.0000 0.0000 25.4635 0.0000 0.0000
# 5 0.0000 0.0000 0.0000 0.0000 13.3816 0.0000
# 6 0.0000 0.0000 0.0000 0.0000 0.0000 22.8298
#
#
#
# Elastic Compliance Matrix: (Units=1/GPa)
#
#
# Indices 1 2 3 4 5 6 
#
# 1 0.012488 -0.006946 -0.009489 0.000000 0.000000 0.000000
# 2 -0.006946 0.011320 0.004707 0.000000 0.000000 0.000000
# 3 -0.009489 0.004707 0.095710 0.000000 0.000000 0.000000
# 4 0.000000 0.000000 0.000000 0.039272 0.000000 0.000000
# 5 0.000000 0.000000 0.000000 0.000000 0.074730 0.000000
# 6 0.000000 0.000000 0.000000 0.000000 0.000000 0.043802
#
#
# Mechanical properties :
#
#
# Convention : Reuss Voigt Hill
#
# Bulk Modulus (GPa) = 10.41013 49.42181 29.91597
# Shear Modulus (GPa) = 15.02406 24.94176 19.98291
#
# Velocity S-wave (km/s) = 2.85986 3.68480 3.29822
# Velocity P-wave (km/s) = 4.07088 6.70879 5.54887
#
# Compressibility (1/GPa) = 0.09606032
#
# Stress axis : x y z
#
# Youngs Moduli (GPa) = 80.07961 88.33592 10.44824
#
# Poissons Ratio (x) = 0.61359 0.09915
# Poissons Ratio (y) = 0.55624 -0.04917
# Poissons Ratio (z) = 0.75989 -0.41575
#
# Static dielectric constant tensor:
#      x y z
#    x 1.644740 0.000000 0.000000 
#    y 0.000000 1.635450 0.000000 
#    z 0.000000 0.000000 1.640500 
# 
# From -- ./inp_files/9118.got.cif
#   From: 2010.05.17/outbox.cif.g08.bks.cpg/sg63_5_cif.got.tgz:9118.got - 2010.06.03 15:47:04.
