data_PCOD9470381
_publ_section_title
;
Structure prediction by ZEFSAII (Michael W. Deem and Ramdas Pophale) SiO2 
 PCOD9470381
Probable space group: C M C M
;
_chemical_formula_sum "Si O2"
_cell_formula_units_Z 64
_cell_length_a 8.556856
_cell_length_b 25.619543
_cell_length_c 15.165070
_cell_angle_alpha 90.000000
_cell_angle_beta 90.000000
_cell_angle_gamma 90.000000
_cell_volume 3324.528201
_symmetry_space_group_name_H-M "C M C M"
_symmetry_group_IT_number 63
_symmetry_cell_setting 'orthorhombic'
loop_
_space_group_symop_operation_xyz
x,y,z
-x,-y,1/2+z
x,-y,-z
-x,y,1/2-z
-x,-y,-z
x,y,1/2-z
-x,y,z
x,-y,1/2+z
1/2+x,1/2+y,z
1/2-x,1/2-y,1/2+z
1/2+x,1/2-y,-z
1/2-x,1/2+y,1/2-z
1/2-x,1/2-y,-z
1/2+x,1/2+y,1/2-z
1/2-x,1/2+y,z
1/2+x,1/2-y,1/2+z
loop_
_atom_site_type_symbol
_atom_site_label
_atom_site_fract_x
_atom_site_fract_y
_atom_site_fract_z
Si Si1 0.309145 0.191080 0.750000
Si Si2 0.685864 0.612619 0.096569
Si Si3 0.691148 0.689387 0.250000
Si Si4 0.689052 0.888453 0.399306
Si Si5 0.680054 0.997357 0.892680
O O1 0.500000 0.191802 0.750000
O O2 0.255953 0.250790 0.750000
O O3 0.260245 0.157978 0.835495
O O4 0.500000 0.615805 0.088901
O O5 0.741017 0.656906 0.164109
O O6 0.729660 0.554923 0.131605
O O7 0.757514 0.618994 0.999515
O O8 0.500000 0.689568 0.250000
O O9 0.500000 0.890800 0.398793
O O10 0.742215 0.945774 0.365615
O O11 0.500000 0.991989 0.864251
O O12 0.680738 0.000000 0.000000
#
# Coordination Sequence:
#
# PCOD9470381 Si02
#       5
#     8  16   8  16  16
#     4   9  18  35  55  71  95 133 170 203 244 294
#     4  10  19  32  51  74 102 134 163 196 243 296
#     4   9  20  35  49  71 101 133 170 203 238 294
#     4   9  18  33  54  77  98 126 165 205 246 291
#     4   8  15  29  49  75 102 124 157 203 245 292
#
# _framework density 19.250852999999999
#
# number of rings (size 3 to 8) (size 9 to 14) (size 15 to 20)
#    0.000    3.000    0.000    2.250    0.000    6.500 
#    0.000    4.375    0.000    4.500    0.000    0.000 
#    0.000    0.000    0.000    0.000    0.000    0.000 
#
# Total GULP energy -178435.872973 kJ/mol
# GULP energy per Si atom -5576.121030 kJ/mol
# Density = 1.920704 g / cm^3
# Si number density = 19.250853 Si / 1000 Ang^3
#
#
#
# Elastic Constant Matrix: (Units=GPa)
#
#
# Indices 1 2 3 4 5 6 
#
# 1 7.5254 21.7144 12.5325 0.0000 0.0000 0.0000
# 2 21.7144 216.9717 95.3863 0.0000 0.0000 0.0000
# 3 12.5325 95.3863 105.5990 0.0000 0.0000 0.0000
# 4 0.0000 0.0000 0.0000 34.0915 0.0000 0.0000
# 5 0.0000 0.0000 0.0000 0.0000 -31.8351 0.0000
# 6 0.0000 0.0000 0.0000 0.0000 0.0000 21.6833
#
#
#
# Elastic Compliance Matrix: (Units=1/GPa)
#
#
# Indices 1 2 3 4 5 6 
#
# 1 0.191858 -0.015245 -0.008999 0.000000 0.000000 0.000000
# 2 -0.015245 0.008856 -0.006190 0.000000 0.000000 0.000000
# 3 -0.008999 -0.006190 0.016129 0.000000 0.000000 0.000000
# 4 0.000000 0.000000 0.000000 0.029333 0.000000 0.000000
# 5 0.000000 0.000000 0.000000 0.000000 -0.031412 0.000000
# 6 0.000000 0.000000 0.000000 0.000000 0.000000 0.046119
#
#
# Mechanical properties :
#
#
# Convention : Reuss Voigt Hill
#
# Bulk Modulus (GPa) = 6.41131 65.48475 35.94803
# Shear Modulus (GPa) = 13.37820 18.15213 15.76516
#
# Velocity S-wave (km/s) = 2.63903 3.07404 2.86481
# Velocity P-wave (km/s) = 3.55297 6.83301 5.44581
#
# Compressibility (1/GPa) = 0.15597446
#
# Stress axis : x y z
#
# Youngs Moduli (GPa) = 5.21220 112.91812 61.99859
#
# Poissons Ratio (x) = 1.72140 0.55794
# Poissons Ratio (y) = 0.07946 0.38379
# Poissons Ratio (z) = 0.04691 0.69899
#
# Static dielectric constant tensor:
#      x y z
#    x 1.659080 0.000000 0.000000 
#    y 0.000000 1.684760 0.000000 
#    z 0.000000 0.000000 1.676930 
# 
# From -- ./inp_files/27605.got.cif
#   From: 2010.05.17/outbox.cif.g08.bks.cpg/sg63_14_cif.got.tgz:27605.got - 2010.06.03 15:47:04.
