data_PCOD9470020
_publ_section_title
;
Structure prediction by ZEFSAII (Michael W. Deem and Ramdas Pophale) SiO2 
 PCOD9470020
Probable space group: C M C M
;
_chemical_formula_sum "Si O2"
_cell_formula_units_Z 104
_cell_length_a 22.291331
_cell_length_b 12.062848
_cell_length_c 21.961408
_cell_angle_alpha 90.000000
_cell_angle_beta 90.000000
_cell_angle_gamma 90.000000
_cell_volume 5905.355356
_symmetry_space_group_name_H-M "C M C M"
_symmetry_group_IT_number 63
_symmetry_cell_setting 'orthorhombic'
loop_
_space_group_symop_operation_xyz
x,y,z
-x,-y,1/2+z
x,-y,-z
-x,y,1/2-z
-x,-y,-z
x,y,1/2-z
-x,y,z
x,-y,1/2+z
1/2+x,1/2+y,z
1/2-x,1/2-y,1/2+z
1/2+x,1/2-y,-z
1/2-x,1/2+y,1/2-z
1/2-x,1/2-y,-z
1/2+x,1/2+y,1/2-z
1/2-x,1/2+y,z
1/2+x,1/2-y,1/2+z
loop_
_atom_site_type_symbol
_atom_site_label
_atom_site_fract_x
_atom_site_fract_y
_atom_site_fract_z
Si Si1 0.072070 0.150162 0.942562
Si Si2 0.238892 0.649556 0.597472
Si Si3 0.821270 0.500000 0.000000
Si Si4 0.340453 0.829230 0.902341
Si Si5 0.151158 0.778319 0.819967
Si Si6 0.428092 0.393095 0.919928
Si Si7 0.756586 0.458755 0.817326
O O1 0.105724 0.241455 0.902161
O O2 0.000000 0.162504 0.939927
O O3 0.086686 0.024250 0.922557
O O4 0.091150 0.157683 0.014225
O O5 0.219148 0.584982 0.537882
O O6 0.282279 0.751745 0.583259
O O7 0.181027 0.684424 0.637564
O O8 0.268149 0.556430 0.640298
O O9 0.855460 0.578402 0.047096
O O10 0.315798 0.900180 0.845285
O O11 0.134330 0.748381 0.750000
O O12 0.100271 0.834017 0.861643
O O13 0.205302 0.866393 0.814835
O O14 0.500000 0.384830 0.918054
O O15 0.768666 0.501971 0.750000
#
# Coordination Sequence:
#
# PCOD9470020 Si02
#       7
#    16  16   8  16  16  16  16
#     4   9  18  33  52  72  97 129 164 204 247 293
#     4  10  19  31  48  71  98 130 161 199 245 293
#     4  10  20  30  45  74 101 124 162 206 244 290
#     4  10  19  31  49  71  99 130 161 200 249 295
#     4  10  19  31  49  72  99 130 163 199 243 296
#     4   9  18  32  50  73  99 127 161 201 246 293
#     4   9  19  33  48  70  97 127 164 202 240 287
#
# _framework density 17.611132999999999
#
# number of rings (size 3 to 8) (size 9 to 14) (size 15 to 20)
#    0.000    2.462    0.000    3.692    0.000    4.615 
#    0.000    1.154    0.000    5.077    0.000    0.000 
#    0.000    0.000    0.000    0.000    0.000    0.000 
#
# Total GULP energy -289487.832579 kJ/mol
# GULP energy per Si atom -5567.073703 kJ/mol
# Density = 1.757105 g / cm^3
# Si number density = 17.611133 Si / 1000 Ang^3
#
#
#
# Elastic Constant Matrix: (Units=GPa)
#
#
# Indices 1 2 3 4 5 6 
#
# 1 38.6247 7.7625 18.0600 0.0000 0.0000 0.0000
# 2 7.7625 41.4047 5.4154 0.0000 0.0000 0.0000
# 3 18.0600 5.4154 67.9862 0.0000 0.0000 0.0000
# 4 0.0000 0.0000 0.0000 19.4138 0.0000 0.0000
# 5 0.0000 0.0000 0.0000 0.0000-1992.4133 0.0000
# 6 0.0000 0.0000 0.0000 0.0000 0.0000 10.2779
#
#
#
# Elastic Compliance Matrix: (Units=1/GPa)
#
#
# Indices 1 2 3 4 5 6 
#
# 1 0.030440 -0.004698 -0.007712 0.000000 0.000000 0.000000
# 2 -0.004698 0.025131 -0.000754 0.000000 0.000000 0.000000
# 3 -0.007712 -0.000754 0.016818 0.000000 0.000000 0.000000
# 4 0.000000 0.000000 0.000000 0.051510 0.000000 0.000000
# 5 0.000000 0.000000 0.000000 0.000000 -0.000502 0.000000
# 6 0.000000 0.000000 0.000000 0.000000 0.000000 0.097296
#
#
# Mechanical properties :
#
#
# Convention : Reuss Voigt Hill
#
# Bulk Modulus (GPa) = 21.71032 23.38796 22.54914
# Shear Modulus (GPa) = 19.05671 -384.75916 -182.85122
#
# Velocity S-wave (km/s) = 3.29307 -14.79693 -10.20061
# Velocity P-wave (km/s) = 5.17817 16.69201 11.22074
#
# Compressibility (1/GPa) = 0.04606104
#
# Stress axis : x y z
#
# Youngs Moduli (GPa) = 32.85117 39.79111 59.46167
#
# Poissons Ratio (x) = 0.18695 0.45857
# Poissons Ratio (y) = 0.15434 0.04482
# Poissons Ratio (z) = 0.25335 0.02999
#
# Static dielectric constant tensor:
#      x y z
#    x 1.586840 0.000000 0.000000 
#    y 0.000000 1.632030 0.000000 
#    z 0.000000 0.000000 1.762120 
# 
# From -- ./inp_files/64658.got.cif
#   From: 2010.05.17/outbox.cif.g08.bks.cpg/sg63_33_cif.got.tgz:64658.got - 2010.06.03 15:47:04.
