data_PCOD9470673
_publ_section_title
;
Structure prediction by ZEFSAII (Michael W. Deem and Ramdas Pophale) SiO2 
 PCOD9470673
Probable space group: C M C M
;
_chemical_formula_sum "Si O2"
_cell_formula_units_Z 104
_cell_length_a 18.621388
_cell_length_b 34.888199
_cell_length_c 7.414076
_cell_angle_alpha 90.000000
_cell_angle_beta 90.000000
_cell_angle_gamma 90.000000
_cell_volume 4816.678216
_symmetry_space_group_name_H-M "C M C M"
_symmetry_group_IT_number 63
_symmetry_cell_setting 'orthorhombic'
loop_
_space_group_symop_operation_xyz
x,y,z
-x,-y,1/2+z
x,-y,-z
-x,y,1/2-z
-x,-y,-z
x,y,1/2-z
-x,y,z
x,-y,1/2+z
1/2+x,1/2+y,z
1/2-x,1/2-y,1/2+z
1/2+x,1/2-y,-z
1/2-x,1/2+y,1/2-z
1/2-x,1/2-y,-z
1/2+x,1/2+y,1/2-z
1/2-x,1/2+y,z
1/2+x,1/2-y,1/2+z
loop_
_atom_site_type_symbol
_atom_site_label
_atom_site_fract_x
_atom_site_fract_y
_atom_site_fract_z
Si Si1 0.000000 0.454835 0.534582
Si Si2 0.351884 0.082532 0.028913
Si Si3 0.185622 0.667576 0.464312
Si Si4 0.703847 0.544672 0.034831
Si Si5 0.581450 0.602978 0.029755
Si Si6 0.081275 0.738319 0.533585
Si Si7 0.846985 0.817181 0.970494
O O1 0.000000 0.500000 0.500000
O O2 0.073394 0.435677 0.466459
O O3 0.000000 0.449283 0.750000
O O4 0.352896 0.081820 0.250000
O O5 0.341821 0.126455 0.969449
O O6 0.281783 0.058787 0.969359
O O7 0.194008 0.662877 0.250000
O O8 0.129995 0.701647 0.494436
O O9 0.264894 0.678154 0.532784
O O10 0.705262 0.550082 0.250000
O O11 0.639414 0.571640 0.967563
O O12 0.692289 0.500000 0.000000
O O13 0.581248 0.602345 0.250000
O O14 0.500000 0.595613 0.971002
O O15 0.608148 0.645294 0.976848
O O16 0.077558 0.741519 0.750000
O O17 0.117966 0.777511 0.467711
O O18 0.000000 0.734119 0.465858
O O19 0.846672 0.816416 0.750000
#
# Coordination Sequence:
#
# PCOD9470673 Si02
#       7
#     8  16  16  16  16  16  16
#     4  10  20  34  52  74 100 132 170 212 256 302
#     4   9  18  33  53  75  99 130 169 211 251 297
#     4  10  19  33  55  78  99 131 175 214 250 298
#     4  10  19  33  52  75 102 130 164 207 253 302
#     4   9  16  28  50  77 101 131 173 213 246 293
#     4  10  21  34  49  75 109 138 164 205 258 304
#     4   9  16  31  53  75 100 133 173 212 249 294
#
# _framework density 21.591642
#
# number of rings (size 3 to 8) (size 9 to 14) (size 15 to 20)
#    0.000    2.462    1.538    1.385    1.077    2.462 
#    0.000    1.538    0.000    0.923    0.000    0.000 
#    0.000    0.000    0.000    0.000    0.000    0.000 
#
# Total GULP energy -290599.491535 kJ/mol
# GULP energy per Si atom -5588.451760 kJ/mol
# Density = 2.154250 g / cm^3
# Si number density = 21.591642 Si / 1000 Ang^3
#
#
#
# Elastic Constant Matrix: (Units=GPa)
#
#
# Indices 1 2 3 4 5 6 
#
# 1 221.5508 100.1560 1.6301 0.0000 0.0000 0.0000
# 2 100.1560 162.3063 -10.3169 0.0000 0.0000 0.0000
# 3 1.6301 -10.3169 67.8777 0.0000 0.0000 0.0000
# 4 0.0000 0.0000 0.0000 30.6566 0.0000 0.0000
# 5 0.0000 0.0000 0.0000 0.0000 -0.1851 0.0000
# 6 0.0000 0.0000 0.0000 0.0000 0.0000 27.4334
#
#
#
# Elastic Compliance Matrix: (Units=1/GPa)
#
#
# Indices 1 2 3 4 5 6 
#
# 1 0.006297 -0.003934 -0.000749 0.000000 0.000000 0.000000
# 2 -0.003934 0.008678 0.001414 0.000000 0.000000 0.000000
# 3 -0.000749 0.001414 0.014965 0.000000 0.000000 0.000000
# 4 0.000000 0.000000 0.000000 0.032619 0.000000 0.000000
# 5 0.000000 0.000000 0.000000 0.000000 -5.401318 0.000000
# 6 0.000000 0.000000 0.000000 0.000000 0.000000 0.036452
#
#
# Mechanical properties :
#
#
# Convention : Reuss Voigt Hill
#
# Bulk Modulus (GPa) = 42.73034 70.51926 56.62480
# Shear Modulus (GPa) = -0.94554 35.59868 17.32657
#
# Velocity S-wave (km/s) = -0.66247 4.06485 2.83586
# Velocity P-wave (km/s) = 4.38726 7.40014 6.08318
#
# Compressibility (1/GPa) = 0.02340258
#
# Stress axis : x y z
#
# Youngs Moduli (GPa) = 158.79531 115.22858 66.82167
#
# Poissons Ratio (x) = 0.45327 0.05006
# Poissons Ratio (y) = 0.62464 -0.09445
# Poissons Ratio (z) = 0.11896 -0.16288
#
# Static dielectric constant tensor:
#      x y z
#    x 1.758160 0.000000 0.000000 
#    y 0.000000 1.725860 0.000000 
#    z 0.000000 0.000000 1.850340 
# 
# From -- ./inp_files/21608.got.cif
#   From: 2010.05.17/outbox.cif.g08.bks.cpg/sg63_11_cif.got.tgz:21608.got - 2010.06.03 15:47:04.
