data_PCOD9470851
_publ_section_title
;
Structure prediction by ZEFSAII (Michael W. Deem and Ramdas Pophale) SiO2 
 PCOD9470851
Probable space group: C M C M
;
_chemical_formula_sum "Si O2"
_cell_formula_units_Z 88
_cell_length_a 10.224384
_cell_length_b 21.977742
_cell_length_c 19.676839
_cell_angle_alpha 90.000000
_cell_angle_beta 90.000000
_cell_angle_gamma 90.000000
_cell_volume 4421.560329
_symmetry_space_group_name_H-M "C M C M"
_symmetry_group_IT_number 63
_symmetry_cell_setting 'orthorhombic'
loop_
_space_group_symop_operation_xyz
x,y,z
-x,-y,1/2+z
x,-y,-z
-x,y,1/2-z
-x,-y,-z
x,y,1/2-z
-x,y,z
x,-y,1/2+z
1/2+x,1/2+y,z
1/2-x,1/2-y,1/2+z
1/2+x,1/2-y,-z
1/2-x,1/2+y,1/2-z
1/2-x,1/2-y,-z
1/2+x,1/2+y,1/2-z
1/2-x,1/2+y,z
1/2+x,1/2-y,1/2+z
loop_
_atom_site_type_symbol
_atom_site_label
_atom_site_fract_x
_atom_site_fract_y
_atom_site_fract_z
Si Si1 0.000000 0.808031 0.640485
Si Si2 0.784748 0.448456 0.590273
Si Si3 0.500000 0.243088 0.082135
Si Si4 0.787953 0.581005 0.571924
Si Si5 0.500000 0.430334 0.569708
Si Si6 0.699762 0.171618 0.172464
Si Si7 0.000000 0.889044 0.077641
Si Si8 0.000000 0.318011 0.433105
O O1 0.000000 0.857686 0.580641
O O2 0.142302 0.819797 0.673357
O O3 0.000000 0.740298 0.613908
O O4 0.841088 0.515910 0.597858
O O5 0.788563 0.427965 0.510895
O O6 0.629697 0.455673 0.602727
O O7 0.831454 0.393655 0.637443
O O8 0.626178 0.221127 0.125658
O O9 0.500000 0.315565 0.069766
O O10 0.500000 0.206930 0.010592
O O11 0.645283 0.595022 0.603576
O O12 0.877089 0.639250 0.581847
O O13 0.500000 0.432941 0.489058
O O14 0.654444 0.174164 0.250000
#
# Coordination Sequence:
#
# PCOD9470851 Si02
#       8
#     8  16   8  16   8  16   8   8
#     4  10  21  37  60  85 111 146 194 241 284 337
#     4   9  18  33  54  82 115 146 186 233 283 338
#     4  12  23  36  56  86 121 152 190 232 291 350
#     4  10  20  33  54  85 120 147 178 234 297 347
#     4   8  15  29  53  82 110 142 177 236 289 325
#     4  11  23  40  60  82 112 154 199 238 277 340
#     4  10  19  33  55  81 114 148 182 228 292 347
#     4  12  22  34  55  89 124 149 179 237 300 349
#
# _framework density 19.902476
#
# number of rings (size 3 to 8) (size 9 to 14) (size 15 to 20)
#    0.000    1.818    2.727    2.182    0.000    5.818 
#    0.000    0.000    0.000    6.545    0.000    0.000 
#    0.000    0.000    0.000    0.000    0.000    0.000 
#
# Total GULP energy -245118.888820 kJ/mol
# GULP energy per Si atom -5570.883837 kJ/mol
# Density = 1.985718 g / cm^3
# Si number density = 19.902476 Si / 1000 Ang^3
#
#
#
# Elastic Constant Matrix: (Units=GPa)
#
#
# Indices 1 2 3 4 5 6 
#
# 1 94.6433 38.4529 8.3632 0.0000 0.0000 0.0000
# 2 38.4529 171.3064 32.2440 0.0000 0.0000 0.0000
# 3 8.3632 32.2440 53.2314 0.0000 0.0000 0.0000
# 4 0.0000 0.0000 0.0000 8.1110 0.0000 0.0000
# 5 0.0000 0.0000 0.0000 0.0000 -15.1138 0.0000
# 6 0.0000 0.0000 0.0000 0.0000 0.0000 30.7242
#
#
#
# Elastic Compliance Matrix: (Units=1/GPa)
#
#
# Indices 1 2 3 4 5 6 
#
# 1 0.011630 -0.002558 -0.000278 0.000000 0.000000 0.000000
# 2 -0.002558 0.007151 -0.003930 0.000000 0.000000 0.000000
# 3 -0.000278 -0.003930 0.021210 0.000000 0.000000 0.000000
# 4 0.000000 0.000000 0.000000 0.123290 0.000000 0.000000
# 5 0.000000 0.000000 0.000000 0.000000 -0.066165 0.000000
# 6 0.000000 0.000000 0.000000 0.000000 0.000000 0.032548
#
#
# Mechanical properties :
#
#
# Convention : Reuss Voigt Hill
#
# Bulk Modulus (GPa) = 37.79316 53.03350 45.41333
# Shear Modulus (GPa) = 32.89136 20.75235 26.82186
#
# Velocity S-wave (km/s) = 4.06966 3.23259 3.67504
# Velocity P-wave (km/s) = 6.41196 6.37475 6.39338
#
# Compressibility (1/GPa) = 0.02645981
#
# Stress axis : x y z
#
# Youngs Moduli (GPa) = 85.98500 139.83149 47.14760
#
# Poissons Ratio (x) = 0.35773 0.01309
# Poissons Ratio (y) = 0.21998 0.18529
# Poissons Ratio (z) = 0.02386 0.54953
#
# Static dielectric constant tensor:
#      x y z
#    x 1.787890 0.000000 0.000000 
#    y 0.000000 1.694320 0.000000 
#    z 0.000000 0.000000 1.696070 
# 
# From -- ./inp_files/52640.got.cif
#   From: 2010.05.17/outbox.cif.g08.bks.cpg/sg63_27_cif.got.tgz:52640.got - 2010.06.03 15:47:04.
