data_PCOD9470352
_publ_section_title
;
Structure prediction by ZEFSAII (Michael W. Deem and Ramdas Pophale) SiO2 
 PCOD9470352
Probable space group: C M C M
;
_chemical_formula_sum "Si O2"
_cell_formula_units_Z 104
_cell_length_a 26.657681
_cell_length_b 22.163235
_cell_length_c 8.542344
_cell_angle_alpha 90.000000
_cell_angle_beta 90.000000
_cell_angle_gamma 90.000000
_cell_volume 5046.991514
_symmetry_space_group_name_H-M "C M C M"
_symmetry_group_IT_number 63
_symmetry_cell_setting 'orthorhombic'
loop_
_space_group_symop_operation_xyz
x,y,z
-x,-y,1/2+z
x,-y,-z
-x,y,1/2-z
-x,-y,-z
x,y,1/2-z
-x,y,z
x,-y,1/2+z
1/2+x,1/2+y,z
1/2-x,1/2-y,1/2+z
1/2+x,1/2-y,-z
1/2-x,1/2+y,1/2-z
1/2-x,1/2-y,-z
1/2+x,1/2+y,1/2-z
1/2-x,1/2+y,z
1/2+x,1/2-y,1/2+z
loop_
_atom_site_type_symbol
_atom_site_label
_atom_site_fract_x
_atom_site_fract_y
_atom_site_fract_z
Si Si1 0.891023 0.885155 0.439368
Si Si2 0.132687 0.566882 0.062916
Si Si3 0.293402 0.563562 0.434968
Si Si4 0.855802 0.751795 0.060967
Si Si5 0.000000 0.068419 0.560801
Si Si6 0.216497 0.657055 0.565805
Si Si7 0.055633 0.337083 0.560921
O O1 0.888996 0.888904 0.250000
O O2 0.850896 0.930879 0.510769
O O3 0.870792 0.819098 0.485643
O O4 0.948225 0.898806 0.487955
O O5 0.141941 0.569532 0.250000
O O6 0.078715 0.597155 0.031100
O O7 0.135704 0.500000 0.000000
O O8 0.173023 0.609131 0.978319
O O9 0.272197 0.500000 0.500000
O O10 0.289311 0.562041 0.250000
O O11 0.264911 0.623274 0.496501
O O12 0.852961 0.749739 0.250000
O O13 0.902658 0.710437 0.007594
O O14 0.805125 0.720325 0.999456
O O15 0.000000 0.067514 0.750000
O O16 0.000000 0.000000 0.500000
O O17 0.223578 0.662968 0.750000
O O18 0.053347 0.330289 0.750000
O O19 0.000000 0.328227 0.497703
#
# Coordination Sequence:
#
# PCOD9470352 Si02
#       7
#    16  16  16  16   8  16  16
#     4  10  22  40  63  94 126 161 203 247 300 358
#     4  10  19  32  50  76 109 148 193 242 294 354
#     4  12  25  42  64  90 121 157 200 249 302 359
#     4   9  19  36  59  87 120 155 198 246 293 352
#     4  10  22  40  64  94 128 166 205 250 301 358
#     4  11  22  38  60  85 117 155 196 244 298 358
#     4   8  15  28  49  76 106 144 189 238 290 343
#
# _framework density 20.606335000000001
#
# number of rings (size 3 to 8) (size 9 to 14) (size 15 to 20)
#    0.000    2.000    0.000    5.077    1.077    3.385 
#    0.000    0.000    0.000   11.077    0.000    0.000 
#    0.000    0.000    0.000    0.000    0.000    0.000 
#
# Total GULP energy -290361.990605 kJ/mol
# GULP energy per Si atom -5583.884435 kJ/mol
# Density = 2.055943 g / cm^3
# Si number density = 20.606335 Si / 1000 Ang^3
#
#
#
# Elastic Constant Matrix: (Units=GPa)
#
#
# Indices 1 2 3 4 5 6 
#
# 1 150.1094 54.4003 29.5695 0.0000 0.0000 0.0000
# 2 54.4003 130.8124 30.9055 0.0000 0.0000 0.0000
# 3 29.5695 30.9055 46.3731 0.0000 0.0000 0.0000
# 4 0.0000 0.0000 0.0000 26.1473 0.0000 0.0000
# 5 0.0000 0.0000 0.0000 0.0000 21.7832 0.0000
# 6 0.0000 0.0000 0.0000 0.0000 0.0000 25.4522
#
#
#
# Elastic Compliance Matrix: (Units=1/GPa)
#
#
# Indices 1 2 3 4 5 6 
#
# 1 0.008310 -0.002616 -0.003556 0.000000 0.000000 0.000000
# 2 -0.002616 0.009897 -0.004928 0.000000 0.000000 0.000000
# 3 -0.003556 -0.004928 0.027115 0.000000 0.000000 0.000000
# 4 0.000000 0.000000 0.000000 0.038245 0.000000 0.000000
# 5 0.000000 0.000000 0.000000 0.000000 0.045907 0.000000
# 6 0.000000 0.000000 0.000000 0.000000 0.000000 0.039289
#
#
# Mechanical properties :
#
#
# Convention : Reuss Voigt Hill
#
# Bulk Modulus (GPa) = 43.24496 61.89393 52.56945
# Shear Modulus (GPa) = 25.16743 28.83786 27.00265
#
# Velocity S-wave (km/s) = 3.49857 3.74500 3.62388
# Velocity P-wave (km/s) = 6.11161 6.98582 6.56328
#
# Compressibility (1/GPa) = 0.02312408
#
# Stress axis : x y z
#
# Youngs Moduli (GPa) = 120.33380 101.04503 36.87938
#
# Poissons Ratio (x) = 0.26432 0.13113
# Poissons Ratio (y) = 0.31478 0.18173
# Poissons Ratio (z) = 0.42786 0.49791
#
# Static dielectric constant tensor:
#      x y z
#    x 1.763170 0.000000 0.000000 
#    y 0.000000 1.683860 0.000000 
#    z 0.000000 0.000000 1.697760 
# 
# From -- ./inp_files/12490.got.cif
#   From: 2010.05.17/outbox.cif.g08.bks.cpg/sg63_7_cif.got.tgz:12490.got - 2010.06.03 15:47:04.
