data_PCOD9470961
_publ_section_title
;
Structure prediction by ZEFSAII (Michael W. Deem and Ramdas Pophale) SiO2 
 PCOD9470961
Probable space group: C M C M
;
_chemical_formula_sum "Si O2"
_cell_formula_units_Z 48
_cell_length_a 7.944559
_cell_length_b 17.633289
_cell_length_c 15.941021
_cell_angle_alpha 90.000000
_cell_angle_beta 90.000000
_cell_angle_gamma 90.000000
_cell_volume 2233.156985
_symmetry_space_group_name_H-M "C M C M"
_symmetry_group_IT_number 63
_symmetry_cell_setting 'orthorhombic'
loop_
_space_group_symop_operation_xyz
x,y,z
-x,-y,1/2+z
x,-y,-z
-x,y,1/2-z
-x,-y,-z
x,y,1/2-z
-x,y,z
x,-y,1/2+z
1/2+x,1/2+y,z
1/2-x,1/2-y,1/2+z
1/2+x,1/2-y,-z
1/2-x,1/2+y,1/2-z
1/2-x,1/2-y,-z
1/2+x,1/2+y,1/2-z
1/2-x,1/2+y,z
1/2+x,1/2-y,1/2+z
loop_
_atom_site_type_symbol
_atom_site_label
_atom_site_fract_x
_atom_site_fract_y
_atom_site_fract_z
Si Si1 0.500000 0.802342 0.840976
Si Si2 0.699914 0.788544 0.088015
Si Si3 0.000000 0.540835 0.092398
Si Si4 0.685265 0.537336 0.592696
O O1 0.500000 0.839842 0.750000
O O2 0.332129 0.752209 0.850220
O O3 0.500000 0.868828 0.910344
O O4 0.500000 0.778791 0.104836
O O5 0.748021 0.877085 0.085659
O O6 0.750000 0.750000 0.000000
O O7 0.830378 0.511819 0.135481
O O8 0.000000 0.500000 0.000000
O O9 0.668444 0.500000 0.500000
O O10 0.500000 0.536317 0.631430
#
# Coordination Sequence:
#
# PCOD9470961 Si02
#       4
#     8  16   8  16
#     4  12  28  46  65 103 152 181 224 301 369 411
#     4  12  22  39  70 104 132 180 236 284 339 418
#     4  10  20  38  66  93 130 177 230 279 335 419
#     4  10  19  33  61  97 128 163 220 288 328 385
#
# _framework density 21.494235
#
# number of rings (size 3 to 8) (size 9 to 14) (size 15 to 20)
#    0.000    1.000    5.000    4.000    0.000    4.667 
#    0.000    1.667    0.000    0.000    0.000    0.000 
#    0.000    0.000    0.000    0.000    0.000    0.000 
#
# Total GULP energy -133909.055247 kJ/mol
# GULP energy per Si atom -5579.543969 kJ/mol
# Density = 2.144531 g / cm^3
# Si number density = 21.494235 Si / 1000 Ang^3
#
#
#
# Elastic Constant Matrix: (Units=GPa)
#
#
# Indices 1 2 3 4 5 6 
#
# 1 276.8653 70.0712 9.6451 0.0000 0.0000 0.0000
# 2 70.0712 155.6742 5.0802 0.0000 0.0000 0.0000
# 3 9.6451 5.0802 45.5419 0.0000 0.0000 0.0000
# 4 0.0000 0.0000 0.0000 6.9216 0.0000 0.0000
# 5 0.0000 0.0000 0.0000 0.0000 -26.5008 0.0000
# 6 0.0000 0.0000 0.0000 0.0000 0.0000 42.2326
#
#
#
# Elastic Compliance Matrix: (Units=1/GPa)
#
#
# Indices 1 2 3 4 5 6 
#
# 1 0.004096 -0.001822 -0.000664 0.000000 0.000000 0.000000
# 2 -0.001822 0.007258 -0.000424 0.000000 0.000000 0.000000
# 3 -0.000664 -0.000424 0.022146 0.000000 0.000000 0.000000
# 4 0.000000 0.000000 0.000000 0.144475 0.000000 0.000000
# 5 0.000000 0.000000 0.000000 0.000000 -0.037735 0.000000
# 6 0.000000 0.000000 0.000000 0.000000 0.000000 0.023678
#
#
# Mechanical properties :
#
#
# Convention : Reuss Voigt Hill
#
# Bulk Modulus (GPa) = 36.12784 71.96380 54.04582
# Shear Modulus (GPa) = 27.93848 30.74968 29.34408
#
# Velocity S-wave (km/s) = 3.60920 3.78643 3.69888
# Velocity P-wave (km/s) = 5.84920 7.25736 6.59099
#
# Compressibility (1/GPa) = 0.02767949
#
# Stress axis : x y z
#
# Youngs Moduli (GPa) = 244.13203 137.78594 45.15546
#
# Poissons Ratio (x) = 0.25105 0.02999
# Poissons Ratio (y) = 0.44482 0.01913
# Poissons Ratio (z) = 0.16216 0.05838
#
# Static dielectric constant tensor:
#      x y z
#    x 1.871910 0.000000 0.000000 
#    y 0.000000 1.771950 0.000000 
#    z 0.000000 0.000000 1.704680 
# 
# From -- ./inp_files/39324.got.cif
#   From: 2010.05.17/outbox.cif.g08.bks.cpg/sg63_20_cif.got.tgz:39324.got - 2010.06.03 15:47:04.
