data_PCOD9470499
_publ_section_title
;
Structure prediction by ZEFSAII (Michael W. Deem and Ramdas Pophale) SiO2 
 PCOD9470499
Probable space group: C M C M
;
_chemical_formula_sum "Si O2"
_cell_formula_units_Z 72
_cell_length_a 30.041698
_cell_length_b 14.301131
_cell_length_c 8.367871
_cell_angle_alpha 90.000000
_cell_angle_beta 90.000000
_cell_angle_gamma 90.000000
_cell_volume 3595.090581
_symmetry_space_group_name_H-M "C M C M"
_symmetry_group_IT_number 63
_symmetry_cell_setting 'orthorhombic'
loop_
_space_group_symop_operation_xyz
x,y,z
-x,-y,1/2+z
x,-y,-z
-x,y,1/2-z
-x,-y,-z
x,y,1/2-z
-x,y,z
x,-y,1/2+z
1/2+x,1/2+y,z
1/2-x,1/2-y,1/2+z
1/2+x,1/2-y,-z
1/2-x,1/2+y,1/2-z
1/2-x,1/2-y,-z
1/2+x,1/2+y,1/2-z
1/2-x,1/2+y,z
1/2+x,1/2-y,1/2+z
loop_
_atom_site_type_symbol
_atom_site_label
_atom_site_fract_x
_atom_site_fract_y
_atom_site_fract_z
Si Si1 0.729160 0.607830 0.442910
Si Si2 0.586735 0.212747 0.940473
Si Si3 0.000000 0.394027 0.938158
Si Si4 0.674348 0.892346 0.557218
Si Si5 0.368960 0.605754 0.443205
O O1 0.730029 0.500000 0.500000
O O2 0.729298 0.611037 0.250000
O O3 0.777056 0.647502 0.496330
O O4 0.680385 0.640518 0.497949
O O5 0.582512 0.213558 0.750000
O O6 0.594557 0.319339 0.997216
O O7 0.543982 0.160761 0.007619
O O8 0.631958 0.159192 0.985995
O O9 0.000000 0.398974 0.750000
O O10 0.000000 0.500000 0.000000
O O11 0.672203 0.889488 0.750000
O O12 0.672628 0.000000 0.500000
O O13 0.375791 0.500000 0.500000
O O14 0.368502 0.604850 0.250000
#
# Coordination Sequence:
#
# PCOD9470499 Si02
#       5
#    16  16   8  16  16
#     4   8  15  29  49  76 111 151 191 229 273 322
#     4  11  23  39  59  85 115 147 186 232 285 339
#     4  12  26  46  69  90 113 142 179 226 282 340
#     4  10  19  32  52  80 115 153 193 235 278 330
#     4   9  19  36  58  83 115 153 191 233 277 324
#
# _framework density 20.02731
#
# number of rings (size 3 to 8) (size 9 to 14) (size 15 to 20)
#    0.000    2.222    0.000    3.000    0.000    3.556 
#    0.000    0.556    0.000    0.000    0.000    0.000 
#    0.000    0.000    0.000    0.000    0.000    0.000 
#
# Total GULP energy -200879.174824 kJ/mol
# GULP energy per Si atom -5579.977078 kJ/mol
# Density = 1.998173 g / cm^3
# Si number density = 20.027310 Si / 1000 Ang^3
#
#
#
# Elastic Constant Matrix: (Units=GPa)
#
#
# Indices 1 2 3 4 5 6 
#
# 1 170.6012 99.2437 42.2132 0.0000 0.0000 0.0000
# 2 99.2437 130.5858 24.0635 0.0000 0.0000 0.0000
# 3 42.2132 24.0635 51.1129 0.0000 0.0000 0.0000
# 4 0.0000 0.0000 0.0000 19.5271 0.0000 0.0000
# 5 0.0000 0.0000 0.0000 0.0000 20.4800 0.0000
# 6 0.0000 0.0000 0.0000 0.0000 0.0000 36.7406
#
#
#
# Elastic Compliance Matrix: (Units=1/GPa)
#
#
# Indices 1 2 3 4 5 6 
#
# 1 0.012061 -0.008027 -0.006182 0.000000 0.000000 0.000000
# 2 -0.008027 0.013727 0.000166 0.000000 0.000000 0.000000
# 3 -0.006182 0.000166 0.024592 0.000000 0.000000 0.000000
# 4 0.000000 0.000000 0.000000 0.051211 0.000000 0.000000
# 5 0.000000 0.000000 0.000000 0.000000 0.048828 0.000000
# 6 0.000000 0.000000 0.000000 0.000000 0.000000 0.027218
#
#
# Mechanical properties :
#
#
# Convention : Reuss Voigt Hill
#
# Bulk Modulus (GPa) = 44.85220 75.92673 60.38947
# Shear Modulus (GPa) = 23.45740 27.80152 25.62946
#
# Velocity S-wave (km/s) = 3.42610 3.72987 3.58121
# Velocity P-wave (km/s) = 6.17211 7.51952 6.87889
#
# Compressibility (1/GPa) = 0.02229545
#
# Stress axis : x y z
#
# Youngs Moduli (GPa) = 82.91431 72.84695 40.66443
#
# Poissons Ratio (x) = 0.58473 0.25138
# Poissons Ratio (y) = 0.66554 -0.00677
# Poissons Ratio (z) = 0.51255 -0.01213
#
# Static dielectric constant tensor:
#      x y z
#    x 1.736080 0.000000 0.000000 
#    y 0.000000 1.576230 0.000000 
#    z 0.000000 0.000000 1.683960 
# 
# From -- ./inp_files/11733.got.cif
#   From: 2010.05.17/outbox.cif.g08.bks.cpg/sg63_6_cif.got.tgz:11733.got - 2010.06.03 15:47:04.
