data_PCOD9470627
_publ_section_title
;
Structure prediction by ZEFSAII (Michael W. Deem and Ramdas Pophale) SiO2 
 PCOD9470627
Probable space group: C M C M
;
_chemical_formula_sum "Si O2"
_cell_formula_units_Z 104
_cell_length_a 19.871260
_cell_length_b 21.477065
_cell_length_c 14.873262
_cell_angle_alpha 90.000000
_cell_angle_beta 90.000000
_cell_angle_gamma 90.000000
_cell_volume 6347.556360
_symmetry_space_group_name_H-M "C M C M"
_symmetry_group_IT_number 63
_symmetry_cell_setting 'orthorhombic'
loop_
_space_group_symop_operation_xyz
x,y,z
-x,-y,1/2+z
x,-y,-z
-x,y,1/2-z
-x,-y,-z
x,y,1/2-z
-x,y,z
x,-y,1/2+z
1/2+x,1/2+y,z
1/2-x,1/2-y,1/2+z
1/2+x,1/2-y,-z
1/2-x,1/2+y,1/2-z
1/2-x,1/2-y,-z
1/2+x,1/2+y,1/2-z
1/2-x,1/2+y,z
1/2+x,1/2-y,1/2+z
loop_
_atom_site_type_symbol
_atom_site_label
_atom_site_fract_x
_atom_site_fract_y
_atom_site_fract_z
Si Si1 0.500000 0.178348 0.853373
Si Si2 0.763616 0.179498 0.970087
Si Si3 0.000000 0.586045 0.146041
Si Si4 0.647681 0.876771 0.151202
Si Si5 0.361788 0.983505 0.894633
Si Si6 0.770401 0.634114 0.149208
Si Si7 0.866424 0.756861 0.353812
Si Si8 0.000000 0.717327 0.046751
O O1 0.500000 0.202594 0.750000
O O2 0.569226 0.139651 0.863966
O O3 0.500000 0.223342 0.939085
O O4 0.697037 0.151423 0.923461
O O5 0.822347 0.188035 0.897607
O O6 0.750000 0.250000 0.000000
O O7 0.777535 0.143613 0.063119
O O8 0.934576 0.544046 0.130049
O O9 0.000000 0.644577 0.078377
O O10 0.000000 0.608986 0.250000
O O11 0.666461 0.851439 0.250000
O O12 0.652916 0.950909 0.151217
O O13 0.310049 0.929921 0.866332
O O14 0.359472 0.000000 0.000000
O O15 0.741065 0.635780 0.250000
O O16 0.823644 0.691844 0.144295
O O17 0.881916 0.769246 0.250000
O O18 0.933222 0.746214 0.410883
#
# Coordination Sequence:
#
# PCOD9470627 Si02
#       8
#     8  16   8  16  16  16  16   8
#     4  10  21  34  46  67 102 143 181 216 250 297
#     4  10  20  35  50  69  95 132 176 223 268 309
#     4  12  22  32  49  74 108 144 183 219 260 311
#     4  11  21  34  50  71 102 139 180 218 260 308
#     4  12  21  33  48  71 103 143 176 218 260 309
#     4  10  19  33  50  71  98 132 174 215 257 310
#     4  10  20  34  54  75  99 131 173 223 271 312
#     4  12  20  34  54  77 102 138 181 226 265 308
#
# _framework density 16.384257999999999
#
# number of rings (size 3 to 8) (size 9 to 14) (size 15 to 20)
#    0.000    1.231    3.077    6.000    0.000    1.231 
#    0.000    0.769    0.000    0.000    0.000    0.000 
#    0.000    2.462    0.000    3.308    0.000   10.000 
#
# Total GULP energy -290067.572611 kJ/mol
# GULP energy per Si atom -5578.222550 kJ/mol
# Density = 1.634697 g / cm^3
# Si number density = 16.384258 Si / 1000 Ang^3
#
#
#
# Elastic Constant Matrix: (Units=GPa)
#
#
# Indices 1 2 3 4 5 6 
#
# 1 49.2783 36.9553 37.0633 0.0000 0.0000 0.0000
# 2 36.9553 52.0749 31.4846 0.0000 0.0000 0.0000
# 3 37.0633 31.4846 152.0332 0.0000 0.0000 0.0000
# 4 0.0000 0.0000 0.0000 8.5995 0.0000 0.0000
# 5 0.0000 0.0000 0.0000 0.0000 10.0808 0.0000
# 6 0.0000 0.0000 0.0000 0.0000 0.0000 7.4616
#
#
#
# Elastic Compliance Matrix: (Units=1/GPa)
#
#
# Indices 1 2 3 4 5 6 
#
# 1 0.046678 -0.030001 -0.005166 0.000000 0.000000 0.000000
# 2 -0.030001 0.041235 -0.001225 0.000000 0.000000 0.000000
# 3 -0.005166 -0.001225 0.008091 0.000000 0.000000 0.000000
# 4 0.000000 0.000000 0.000000 0.116286 0.000000 0.000000
# 5 0.000000 0.000000 0.000000 0.000000 0.099198 0.000000
# 6 0.000000 0.000000 0.000000 0.000000 0.000000 0.134020
#
#
# Mechanical properties :
#
#
# Convention : Reuss Voigt Hill
#
# Bulk Modulus (GPa) = 43.07239 51.59918 47.33579
# Shear Modulus (GPa) = 9.50513 15.08727 12.29620
#
# Velocity S-wave (km/s) = 2.41122 3.03783 2.74248
# Velocity P-wave (km/s) = 5.83934 6.62314 6.24355
#
# Compressibility (1/GPa) = 0.02321673
#
# Stress axis : x y z
#
# Youngs Moduli (GPa) = 21.42357 24.25141 123.59822
#
# Poissons Ratio (x) = 0.72758 0.63854
# Poissons Ratio (y) = 0.64274 0.15146
# Poissons Ratio (z) = 0.11068 0.02972
#
# Static dielectric constant tensor:
#      x y z
#    x 1.530220 0.000000 0.000000 
#    y 0.000000 1.522060 0.000000 
#    z 0.000000 0.000000 1.586650 
# 
# From -- ./inp_files/34374.got.cif
#   From: 2010.05.17/outbox.cif.g08.bks.cpg/sg63_18_cif.got.tgz:34374.got - 2010.06.03 15:47:04.
