data_PCOD9470193
_publ_section_title
;
Structure prediction by ZEFSAII (Michael W. Deem and Ramdas Pophale) SiO2 
 PCOD9470193
Probable space group: C M C M
;
_chemical_formula_sum "Si O2"
_cell_formula_units_Z 128
_cell_length_a 23.325973
_cell_length_b 19.691169
_cell_length_c 17.219503
_cell_angle_alpha 90.000000
_cell_angle_beta 90.000000
_cell_angle_gamma 90.000000
_cell_volume 7909.187668
_symmetry_space_group_name_H-M "C M C M"
_symmetry_group_IT_number 63
_symmetry_cell_setting 'orthorhombic'
loop_
_space_group_symop_operation_xyz
x,y,z
-x,-y,1/2+z
x,-y,-z
-x,y,1/2-z
-x,-y,-z
x,y,1/2-z
-x,y,z
x,-y,1/2+z
1/2+x,1/2+y,z
1/2-x,1/2-y,1/2+z
1/2+x,1/2-y,-z
1/2-x,1/2+y,1/2-z
1/2-x,1/2-y,-z
1/2+x,1/2+y,1/2-z
1/2-x,1/2+y,z
1/2+x,1/2-y,1/2+z
loop_
_atom_site_type_symbol
_atom_site_label
_atom_site_fract_x
_atom_site_fract_y
_atom_site_fract_z
Si Si1 0.838566 0.004778 0.412869
Si Si2 0.717932 0.074519 0.578768
Si Si3 0.564186 0.578994 0.842553
Si Si4 0.066978 0.359485 0.843510
Si Si5 0.123552 0.783742 0.344175
Si Si6 0.256985 0.785418 0.155881
Si Si7 0.781947 0.134587 0.159734
Si Si8 0.326767 0.934046 0.598531
O O1 0.782649 0.955328 0.412256
O O2 0.888912 0.978076 0.359023
O O3 0.860774 0.000000 0.500000
O O4 0.817350 0.079505 0.389083
O O5 0.715658 0.147925 0.617782
O O6 0.697592 0.077290 0.489004
O O7 0.680863 0.013801 0.616166
O O8 0.559930 0.586356 0.750000
O O9 0.500000 0.566083 0.872650
O O10 0.590622 0.649666 0.873276
O O11 0.073853 0.367677 0.750000
O O12 0.089681 0.284351 0.864447
O O13 0.108941 0.410490 0.887825
O O14 0.000000 0.366901 0.861474
O O15 0.124594 0.786659 0.250000
O O16 0.189961 0.782906 0.368516
O O17 0.258902 0.790760 0.250000
O O18 0.284852 0.712992 0.134188
O O19 0.798534 0.130136 0.250000
O O20 0.715737 0.110545 0.151713
#
# Coordination Sequence:
#
# PCOD9470193 Si02
#       8
#    16  16  16  16  16  16  16  16
#     4  11  20  35  49  72 104 136 170 210 258 305
#     4  10  20  34  49  72 107 135 168 210 259 306
#     4  10  20  33  51  73  98 134 174 209 250 300
#     4  10  19  32  51  75 104 135 166 204 253 308
#     4   9  16  28  46  72 103 126 154 198 248 304
#     4  10  19  31  51  79 103 135 173 205 256 312
#     4  10  19  32  51  74 102 135 172 213 253 301
#     4  10  19  34  49  75 104 135 168 209 255 307
#
# _framework density 16.183709
#
# number of rings (size 3 to 8) (size 9 to 14) (size 15 to 20)
#    0.000    2.000    5.000    1.125    0.000    4.750 
#    2.250    1.250    0.000    0.000    0.000    0.875 
#    0.000    3.000    0.000    0.000    0.000    0.000 
#
# Total GULP energy -356648.713061 kJ/mol
# GULP energy per Si atom -5572.636142 kJ/mol
# Density = 1.614687 g / cm^3
# Si number density = 16.183709 Si / 1000 Ang^3
#
#
#
# Elastic Constant Matrix: (Units=GPa)
#
#
# Indices 1 2 3 4 5 6 
#
# 1 100.0178 59.2681 19.4389 0.0000 0.0000 0.0000
# 2 59.2681 137.5498 34.4099 0.0000 0.0000 0.0000
# 3 19.4389 34.4099 28.3520 0.0000 0.0000 0.0000
# 4 0.0000 0.0000 0.0000 15.7064 0.0000 0.0000
# 5 0.0000 0.0000 0.0000 0.0000 15.8302 0.0000
# 6 0.0000 0.0000 0.0000 0.0000 0.0000 -2.1909
#
#
#
# Elastic Compliance Matrix: (Units=1/GPa)
#
#
# Indices 1 2 3 4 5 6 
#
# 1 0.013623 -0.005074 -0.003182 0.000000 0.000000 0.000000
# 2 -0.005074 0.012330 -0.011485 0.000000 0.000000 0.000000
# 3 -0.003182 -0.011485 0.051392 0.000000 0.000000 0.000000
# 4 0.000000 0.000000 0.000000 0.063668 0.000000 0.000000
# 5 0.000000 0.000000 0.000000 0.000000 0.063170 0.000000
# 6 0.000000 0.000000 0.000000 0.000000 0.000000 -0.456423
#
#
# Mechanical properties :
#
#
# Convention : Reuss Voigt Hill
#
# Bulk Modulus (GPa) = 26.41183 54.68371 40.54777
# Shear Modulus (GPa) = -24.98304 16.05598 -4.46353
#
# Velocity S-wave (km/s) = -3.93328 3.15319 -1.66254
# Velocity P-wave (km/s) = 2.06691 6.86437 4.62857
#
# Compressibility (1/GPa) = 0.03786182
#
# Stress axis : x y z
#
# Youngs Moduli (GPa) = 73.40269 81.10589 19.45831
#
# Poissons Ratio (x) = 0.41153 0.06193
# Poissons Ratio (y) = 0.37245 0.22348
# Poissons Ratio (z) = 0.23360 0.93151
#
# Static dielectric constant tensor:
#      x y z
#    x 1.533120 0.000000 0.000000 
#    y 0.000000 1.559790 0.000000 
#    z 0.000000 0.000000 1.556310 
# 
# From -- ./inp_files/48426.got.cif
#   From: 2010.05.17/outbox.cif.g08.bks.cpg/sg63_25_cif.got.tgz:48426.got - 2010.06.03 15:47:04.
