data_PCOD9470519
_publ_section_title
;
Structure prediction by ZEFSAII (Michael W. Deem and Ramdas Pophale) SiO2 
 PCOD9470519
Probable space group: C M C M
;
_chemical_formula_sum "Si O2"
_cell_formula_units_Z 80
_cell_length_a 27.461578
_cell_length_b 18.539627
_cell_length_c 8.605977
_cell_angle_alpha 90.000000
_cell_angle_beta 90.000000
_cell_angle_gamma 90.000000
_cell_volume 4381.538806
_symmetry_space_group_name_H-M "C M C M"
_symmetry_group_IT_number 63
_symmetry_cell_setting 'orthorhombic'
loop_
_space_group_symop_operation_xyz
x,y,z
-x,-y,1/2+z
x,-y,-z
-x,y,1/2-z
-x,-y,-z
x,y,1/2-z
-x,y,z
x,-y,1/2+z
1/2+x,1/2+y,z
1/2-x,1/2-y,1/2+z
1/2+x,1/2-y,-z
1/2-x,1/2+y,1/2-z
1/2-x,1/2-y,-z
1/2+x,1/2+y,1/2-z
1/2-x,1/2+y,z
1/2+x,1/2-y,1/2+z
loop_
_atom_site_type_symbol
_atom_site_label
_atom_site_fract_x
_atom_site_fract_y
_atom_site_fract_z
Si Si1 0.553045 0.582092 0.436288
Si Si2 0.947784 0.418015 0.562450
Si Si3 0.341304 0.918300 0.936989
Si Si4 0.250046 0.669445 0.936336
Si Si5 0.654133 0.418490 0.436185
O O1 0.552316 0.500000 0.500000
O O2 0.556392 0.580029 0.250000
O O3 0.500000 0.614307 0.478742
O O4 0.602810 0.613729 0.504252
O O5 0.947895 0.500000 0.500000
O O6 0.947844 0.419973 0.750000
O O7 0.894923 0.388034 0.515900
O O8 0.000000 0.385069 0.512458
O O9 0.338666 0.919833 0.750000
O O10 0.297160 0.872356 0.002770
O O11 0.337699 0.000000 0.000000
O O12 0.249353 0.670360 0.750000
O O13 0.299187 0.627632 0.985608
O O14 0.250000 0.750000 0.000000
O O15 0.658859 0.500000 0.500000
O O16 0.652530 0.421953 0.250000
#
# Coordination Sequence:
#
# PCOD9470519 Si02
#       5
#    16  16  16  16  16
#     4   9  16  26  44  72 103 132 161 197 243 291
#     4   8  14  25  43  70 102 132 162 199 243 290
#     4  10  19  32  53  79 106 136 171 210 252 299
#     4  11  24  39  54  73  99 133 172 214 261 308
#     4  10  20  33  52  77 102 131 167 205 248 297
#
# _framework density 18.258424000000002
#
# number of rings (size 3 to 8) (size 9 to 14) (size 15 to 20)
#    0.000    2.400    0.000    4.200    0.000    6.800 
#    0.000    0.000    0.000    1.200    0.000    2.800 
#    0.000    0.000    0.000    0.000    0.000    0.000 
#
# Total GULP energy -222861.683437 kJ/mol
# GULP energy per Si atom -5571.542086 kJ/mol
# Density = 1.821687 g / cm^3
# Si number density = 18.258424 Si / 1000 Ang^3
#
#
#
# Elastic Constant Matrix: (Units=GPa)
#
#
# Indices 1 2 3 4 5 6 
#
# 1 249.6092 69.0494 49.2226 0.0000 0.0000 0.0000
# 2 69.0494 54.3509 18.4153 0.0000 0.0000 0.0000
# 3 49.2226 18.4153 43.6567 0.0000 0.0000 0.0000
# 4 0.0000 0.0000 0.0000 20.0604 0.0000 0.0000
# 5 0.0000 0.0000 0.0000 0.0000 27.0072 0.0000
# 6 0.0000 0.0000 0.0000 0.0000 0.0000 -4.6003
#
#
#
# Elastic Compliance Matrix: (Units=1/GPa)
#
#
# Indices 1 2 3 4 5 6 
#
# 1 0.006942 -0.007195 -0.004791 0.000000 0.000000 0.000000
# 2 -0.007195 0.028926 -0.004089 0.000000 0.000000 0.000000
# 3 -0.004791 -0.004089 0.030033 0.000000 0.000000 0.000000
# 4 0.000000 0.000000 0.000000 0.049849 0.000000 0.000000
# 5 0.000000 0.000000 0.000000 0.000000 0.037027 0.000000
# 6 0.000000 0.000000 0.000000 0.000000 0.000000 -0.217375
#
#
# Mechanical properties :
#
#
# Convention : Reuss Voigt Hill
#
# Bulk Modulus (GPa) = 29.63033 68.99904 49.31469
# Shear Modulus (GPa) = -235.87129 22.55543 -106.65793
#
# Velocity S-wave (km/s) = -11.37828 3.51856 -7.65131
# Velocity P-wave (km/s) = 12.50428 7.37423 7.14065
#
# Compressibility (1/GPa) = 0.03374920
#
# Stress axis : x y z
#
# Youngs Moduli (GPa) = 144.05919 34.57140 33.29674
#
# Poissons Ratio (x) = 0.24876 0.15954
# Poissons Ratio (y) = 1.03657 0.13614
# Poissons Ratio (z) = 0.69025 0.14135
#
# Static dielectric constant tensor:
#      x y z
#    x 1.708840 0.000000 0.000000 
#    y 0.000000 1.571500 0.000000 
#    z 0.000000 0.000000 1.614120 
# 
# From -- ./inp_files/12035.got.cif
#   From: 2010.05.17/outbox.cif.g08.bks.cpg/sg63_7_cif.got.tgz:12035.got - 2010.06.03 15:47:04.
