data_PCOD9470611
_publ_section_title
;
Structure prediction by ZEFSAII (Michael W. Deem and Ramdas Pophale) SiO2 
 PCOD9470611
Probable space group: C M C M
;
_chemical_formula_sum "Si O2"
_cell_formula_units_Z 88
_cell_length_a 21.930255
_cell_length_b 13.964168
_cell_length_c 16.147398
_cell_angle_alpha 90.000000
_cell_angle_beta 90.000000
_cell_angle_gamma 90.000000
_cell_volume 4944.943076
_symmetry_space_group_name_H-M "C M C M"
_symmetry_group_IT_number 63
_symmetry_cell_setting 'orthorhombic'
loop_
_space_group_symop_operation_xyz
x,y,z
-x,-y,1/2+z
x,-y,-z
-x,y,1/2-z
-x,-y,-z
x,y,1/2-z
-x,y,z
x,-y,1/2+z
1/2+x,1/2+y,z
1/2-x,1/2-y,1/2+z
1/2+x,1/2-y,-z
1/2-x,1/2+y,1/2-z
1/2-x,1/2-y,-z
1/2+x,1/2+y,1/2-z
1/2-x,1/2+y,z
1/2+x,1/2-y,1/2+z
loop_
_atom_site_type_symbol
_atom_site_label
_atom_site_fract_x
_atom_site_fract_y
_atom_site_fract_z
Si Si1 0.124604 0.184054 0.908330
Si Si2 0.791226 0.997986 0.409018
Si Si3 0.300339 0.776635 0.250000
Si Si4 0.868824 0.812313 0.591929
Si Si5 0.000000 0.937469 0.415757
Si Si6 0.000000 0.861099 0.655350
Si Si7 0.840501 0.701479 0.250000
Si Si8 0.791424 0.503361 0.250000
O O1 0.176479 0.103437 0.894492
O O2 0.128743 0.256251 0.832342
O O3 0.060182 0.127866 0.911096
O O4 0.137542 0.228632 0.999097
O O5 0.760996 0.000000 0.500000
O O6 0.842865 0.079529 0.413009
O O7 0.748031 0.020135 0.332727
O O8 0.332934 0.738059 0.333420
O O9 0.230327 0.739011 0.250000
O O10 0.306701 0.891311 0.250000
O O11 0.939597 0.821175 0.613071
O O12 0.000000 0.000000 0.500000
O O13 0.000000 0.023014 0.349099
O O14 0.000000 0.830974 0.750000
O O15 0.841319 0.586576 0.250000
#
# Coordination Sequence:
#
# PCOD9470611 Si02
#       8
#    16  16   8  16   8   8   8   8
#     4  11  22  37  58  92 129 158 192 241 311 378
#     4  10  19  32  59  88 119 155 191 242 299 365
#     4  12  24  39  61  83 115 167 214 253 303 350
#     4  11  21  37  59  91 125 155 195 245 310 369
#     4  12  20  36  62  98 131 159 182 245 318 384
#     4  12  22  32  60  97 126 152 191 247 305 367
#     4  12  26  39  57  85 119 165 208 249 295 362
#     4  12  24  42  54  78 122 154 214 256 284 346
#
# _framework density 17.795957999999999
#
# number of rings (size 3 to 8) (size 9 to 14) (size 15 to 20)
#    0.000    0.727    8.182    0.545    1.273    2.182 
#    0.000    0.000    0.000    2.182    0.000    2.545 
#    0.000    0.000    0.000    0.000    0.000    0.000 
#
# Total GULP energy -245685.892592 kJ/mol
# GULP energy per Si atom -5583.770286 kJ/mol
# Density = 1.775545 g / cm^3
# Si number density = 17.795958 Si / 1000 Ang^3
#
#
#
# Elastic Constant Matrix: (Units=GPa)
#
#
# Indices 1 2 3 4 5 6 
#
# 1 58.1147 8.1854 32.9269 0.0000 0.0000 0.0000
# 2 8.1854 62.5422 25.7517 0.0000 0.0000 0.0000
# 3 32.9269 25.7517 147.8410 0.0000 0.0000 0.0000
# 4 0.0000 0.0000 0.0000 22.1044 0.0000 0.0000
# 5 0.0000 0.0000 0.0000 0.0000 42.5578 0.0000
# 6 0.0000 0.0000 0.0000 0.0000 0.0000 17.4100
#
#
#
# Elastic Compliance Matrix: (Units=1/GPa)
#
#
# Indices 1 2 3 4 5 6 
#
# 1 0.019732 -0.000833 -0.004250 0.000000 0.000000 0.000000
# 2 -0.000833 0.017260 -0.002821 0.000000 0.000000 0.000000
# 3 -0.004250 -0.002821 0.008202 0.000000 0.000000 0.000000
# 4 0.000000 0.000000 0.000000 0.045240 0.000000 0.000000
# 5 0.000000 0.000000 0.000000 0.000000 0.023497 0.000000
# 6 0.000000 0.000000 0.000000 0.000000 0.000000 0.057438
#
#
# Mechanical properties :
#
#
# Convention : Reuss Voigt Hill
#
# Bulk Modulus (GPa) = 34.02831 44.69176 39.36004
# Shear Modulus (GPa) = 25.38432 29.85671 27.62051
#
# Velocity S-wave (km/s) = 3.78088 4.10045 3.94390
# Velocity P-wave (km/s) = 6.18247 6.89827 6.55016
#
# Compressibility (1/GPa) = 0.02938729
#
# Stress axis : x y z
#
# Youngs Moduli (GPa) = 50.67788 57.93849 121.92327
#
# Poissons Ratio (x) = 0.04825 0.51814
# Poissons Ratio (y) = 0.04220 0.34393
# Poissons Ratio (z) = 0.21537 0.16344
#
# Static dielectric constant tensor:
#      x y z
#    x 1.592520 0.000000 0.000000 
#    y 0.000000 1.594930 0.000000 
#    z 0.000000 0.000000 1.653640 
# 
# From -- ./inp_files/35278.got.cif
#   From: 2010.05.17/outbox.cif.g08.bks.cpg/sg63_18_cif.got.tgz:35278.got - 2010.06.03 15:47:04.
