data_PCOD9470458
_publ_section_title
;
Structure prediction by ZEFSAII (Michael W. Deem and Ramdas Pophale) SiO2 
 PCOD9470458
Probable space group: C M C M
;
_chemical_formula_sum "Si O2"
_cell_formula_units_Z 80
_cell_length_a 30.410838
_cell_length_b 15.169714
_cell_length_c 8.688706
_cell_angle_alpha 90.000000
_cell_angle_beta 90.000000
_cell_angle_gamma 90.000000
_cell_volume 4008.306130
_symmetry_space_group_name_H-M "C M C M"
_symmetry_group_IT_number 63
_symmetry_cell_setting 'orthorhombic'
loop_
_space_group_symop_operation_xyz
x,y,z
-x,-y,1/2+z
x,-y,-z
-x,y,1/2-z
-x,-y,-z
x,y,1/2-z
-x,y,z
x,-y,1/2+z
1/2+x,1/2+y,z
1/2-x,1/2-y,1/2+z
1/2+x,1/2-y,-z
1/2-x,1/2+y,1/2-z
1/2-x,1/2-y,-z
1/2+x,1/2+y,1/2-z
1/2-x,1/2+y,z
1/2+x,1/2-y,1/2+z
loop_
_atom_site_type_symbol
_atom_site_label
_atom_site_fract_x
_atom_site_fract_y
_atom_site_fract_z
Si Si1 0.856666 0.224467 0.564011
Si Si2 0.220771 0.903235 0.064594
Si Si3 0.178004 0.597488 0.934466
Si Si4 0.951695 0.784147 0.061937
Si Si5 0.552240 0.913990 0.580741
O O1 0.855470 0.228618 0.750000
O O2 0.815341 0.166650 0.509986
O O3 0.851218 0.323596 0.501269
O O4 0.903603 0.179871 0.519859
O O5 0.219039 0.906430 0.250000
O O6 0.271075 0.880994 0.022066
O O7 0.211041 0.000000 0.000000
O O8 0.174137 0.595453 0.750000
O O9 0.169379 0.500000 0.000000
O O10 0.953542 0.783082 0.250000
O O11 0.947532 0.682412 0.007474
O O12 0.000000 0.818367 0.011333
O O13 0.572321 0.906791 0.750000
O O14 0.500000 0.930599 0.598356
O O15 0.570751 0.000000 0.500000
#
# Coordination Sequence:
#
# PCOD9470458 Si02
#       5
#    16  16  16  16  16
#     4  10  19  32  52  77 102 130 168 210 251 297
#     4   9  19  34  53  76 101 131 166 206 252 303
#     4  10  20  34  51  74 105 137 167 201 246 299
#     4   8  15  28  45  65  91 124 161 201 244 289
#     4   8  13  22  36  53  74 104 142 181 220 262
#
# _framework density 19.958555
#
# number of rings (size 3 to 8) (size 9 to 14) (size 15 to 20)
#    0.000    3.000    0.000    2.400    0.000    2.400 
#    0.000    3.000    0.000    2.400    0.000    0.000 
#    0.000    0.000    0.000    0.000    0.000    0.000 
#
# Total GULP energy -222703.157452 kJ/mol
# GULP energy per Si atom -5567.578936 kJ/mol
# Density = 1.991313 g / cm^3
# Si number density = 19.958555 Si / 1000 Ang^3
#
#
#
# Elastic Constant Matrix: (Units=GPa)
#
#
# Indices 1 2 3 4 5 6 
#
# 1 170.4425 37.1098 17.9037 0.0000 0.0000 0.0000
# 2 37.1098 32.7722 2.3236 0.0000 0.0000 0.0000
# 3 17.9037 2.3236 5.5543 0.0000 0.0000 0.0000
# 4 0.0000 0.0000 0.0000 21.3360 0.0000 0.0000
# 5 0.0000 0.0000 0.0000 0.0000 11.5469 0.0000
# 6 0.0000 0.0000 0.0000 0.0000 0.0000 9.2303
#
#
#
# Elastic Compliance Matrix: (Units=1/GPa)
#
#
# Indices 1 2 3 4 5 6 
#
# 1 0.011745 -0.010940 -0.033282 0.000000 0.000000 0.000000
# 2 -0.010940 0.041636 0.017845 0.000000 0.000000 0.000000
# 3 -0.033282 0.017845 0.279856 0.000000 0.000000 0.000000
# 4 0.000000 0.000000 0.000000 0.046869 0.000000 0.000000
# 5 0.000000 0.000000 0.000000 0.000000 0.086603 0.000000
# 6 0.000000 0.000000 0.000000 0.000000 0.000000 0.108339
#
#
# Mechanical properties :
#
#
# Convention : Reuss Voigt Hill
#
# Bulk Modulus (GPa) = 3.56528 35.93814 19.75171
# Shear Modulus (GPa) = 6.93196 18.51809 12.72502
#
# Velocity S-wave (km/s) = 1.86567 3.04933 2.52776
# Velocity P-wave (km/s) = 2.53598 5.51755 4.29386
#
# Compressibility (1/GPa) = 0.28048315
#
# Stress axis : x y z
#
# Youngs Moduli (GPa) = 85.14261 24.01759 3.57326
#
# Poissons Ratio (x) = 0.26275 0.11893
# Poissons Ratio (y) = 0.93144 -0.06376
# Poissons Ratio (z) = 2.83373 -0.42859
#
# Static dielectric constant tensor:
#      x y z
#    x 1.801610 0.000000 0.000000 
#    y 0.000000 1.685700 0.000000 
#    z 0.000000 0.000000 1.696310 
# 
# From -- ./inp_files/24829.got.cif
#   From: 2010.05.17/outbox.cif.g08.bks.cpg/sg63_13_cif.got.tgz:24829.got - 2010.06.03 15:47:04.
