data_PCOD9470034
_publ_section_title
;
Structure prediction by ZEFSAII (Michael W. Deem and Ramdas Pophale) SiO2 
 PCOD9470034
Probable space group: C M C M
;
_chemical_formula_sum "Si O2"
_cell_formula_units_Z 116
_cell_length_a 8.028603
_cell_length_b 27.312650
_cell_length_c 27.102233
_cell_angle_alpha 90.000000
_cell_angle_beta 90.000000
_cell_angle_gamma 90.000000
_cell_volume 5943.043341
_symmetry_space_group_name_H-M "C M C M"
_symmetry_group_IT_number 63
_symmetry_cell_setting 'orthorhombic'
loop_
_space_group_symop_operation_xyz
x,y,z
-x,-y,1/2+z
x,-y,-z
-x,y,1/2-z
-x,-y,-z
x,y,1/2-z
-x,y,z
x,-y,1/2+z
1/2+x,1/2+y,z
1/2-x,1/2-y,1/2+z
1/2+x,1/2-y,-z
1/2-x,1/2+y,1/2-z
1/2-x,1/2-y,-z
1/2+x,1/2+y,1/2-z
1/2-x,1/2+y,z
1/2+x,1/2-y,1/2+z
loop_
_atom_site_type_symbol
_atom_site_label
_atom_site_fract_x
_atom_site_fract_y
_atom_site_fract_z
Si Si1 0.806072 0.370343 0.670212
Si Si2 0.299441 0.569915 0.897734
Si Si3 0.306222 0.419248 0.989557
Si Si4 0.809814 0.316688 0.504101
Si Si5 0.193642 0.822336 0.393467
Si Si6 0.694055 0.966824 0.895221
Si Si7 0.000000 0.864781 0.750000
Si Si8 0.308261 0.282298 0.605629
O O1 0.773862 0.420746 0.640125
O O2 0.651581 0.365024 0.707705
O O3 0.796074 0.322756 0.634735
O O4 0.000000 0.373082 0.688753
O O5 0.500000 0.570853 0.895707
O O6 0.241126 0.623492 0.879248
O O7 0.238932 0.519903 0.873232
O O8 0.249441 0.566496 0.955611
O O9 0.500000 0.405100 0.992946
O O10 0.201999 0.371714 0.974349
O O11 0.290111 0.458540 0.946551
O O12 0.710356 0.320657 0.453103
O O13 0.740271 0.283508 0.547750
O O14 0.000000 0.303937 0.492828
O O15 0.281494 0.773029 0.375362
O O16 0.000000 0.819045 0.380125
O O17 0.500000 0.966736 0.907285
O O18 0.500000 0.296136 0.609549
#
# Coordination Sequence:
#
# PCOD9470034 Si02
#       8
#    16  16  16  16  16  16   4  16
#     4  11  25  44  66  98 127 151 193 251 310 384
#     4   9  20  34  50  75 115 163 209 245 286 330
#     4  10  19  31  48  73 111 160 206 250 284 335
#     4  11  20  31  48  75 113 161 206 256 293 337
#     4  10  21  36  51  77 117 164 209 251 293 333
#     4  11  22  34  54  83 116 153 197 244 298 351
#     4  12  26  48  72  98 118 156 186 248 334 388
#     4  12  22  36  57  84 115 158 205 244 303 362
#
# _framework density 19.518619999999999
#
# number of rings (size 3 to 8) (size 9 to 14) (size 15 to 20)
#    0.000    1.379    2.069    5.586    1.931    4.966 
#    0.000    0.000    0.000    0.000    0.000    0.966 
#    0.000    0.000    0.000    0.000    0.000    0.000 
#
# Total GULP energy -323078.735560 kJ/mol
# GULP energy per Si atom -5570.323027 kJ/mol
# Density = 1.947419 g / cm^3
# Si number density = 19.518620 Si / 1000 Ang^3
#
#
#
# Elastic Constant Matrix: (Units=GPa)
#
#
# Indices 1 2 3 4 5 6 
#
# 1 77.9673 6.4224 16.8006 0.0000 0.0000 0.0000
# 2 6.4224 141.3343 13.9662 0.0000 0.0000 0.0000
# 3 16.8006 13.9662 35.5306 0.0000 0.0000 0.0000
# 4 0.0000 0.0000 0.0000 -5.9893 0.0000 0.0000
# 5 0.0000 0.0000 0.0000 0.0000 20.3284 0.0000
# 6 0.0000 0.0000 0.0000 0.0000 0.0000 29.2851
#
#
#
# Elastic Compliance Matrix: (Units=1/GPa)
#
#
# Indices 1 2 3 4 5 6 
#
# 1 0.014281 0.000019 -0.006760 0.000000 0.000000 0.000000
# 2 0.000019 0.007361 -0.002903 0.000000 0.000000 0.000000
# 3 -0.006760 -0.002903 0.032482 0.000000 0.000000 0.000000
# 4 0.000000 0.000000 0.000000 -0.166965 0.000000 0.000000
# 5 0.000000 0.000000 0.000000 0.000000 0.049192 0.000000
# 6 0.000000 0.000000 0.000000 0.000000 0.000000 0.034147
#
#
# Mechanical properties :
#
#
# Convention : Reuss Voigt Hill
#
# Bulk Modulus (GPa) = 28.70501 36.57895 32.64198
# Shear Modulus (GPa) = 3572.83797 23.23437 1798.03617
#
# Velocity S-wave (km/s) = 42.83049 3.45392 30.38404
# Velocity P-wave (km/s) = 49.60517 5.88959 35.32251
#
# Compressibility (1/GPa) = 0.03483713
#
# Stress axis : x y z
#
# Youngs Moduli (GPa) = 70.02291 135.84401 30.78601
#
# Poissons Ratio (x) = -0.00259 0.20812
# Poissons Ratio (y) = -0.00134 0.08936
# Poissons Ratio (z) = 0.47337 0.39430
#
# Static dielectric constant tensor:
#      x y z
#    x 1.682930 0.000000 0.000000 
#    y 0.000000 1.801570 0.000000 
#    z 0.000000 0.000000 1.658670 
# 
# From -- ./inp_files/67599.got.cif
#   From: 2010.05.17/outbox.cif.g08.bks.cpg/sg63_34_cif.got.tgz:67599.got - 2010.06.03 15:47:04.
