data_PCOD9470027
_publ_section_title
;
Structure prediction by ZEFSAII (Michael W. Deem and Ramdas Pophale) SiO2 
 PCOD9470027
Probable space group: C M C M
;
_chemical_formula_sum "Si O2"
_cell_formula_units_Z 128
_cell_length_a 22.750650
_cell_length_b 15.222034
_cell_length_c 19.368260
_cell_angle_alpha 90.000000
_cell_angle_beta 90.000000
_cell_angle_gamma 90.000000
_cell_volume 6707.444739
_symmetry_space_group_name_H-M "C M C M"
_symmetry_group_IT_number 63
_symmetry_cell_setting 'orthorhombic'
loop_
_space_group_symop_operation_xyz
x,y,z
-x,-y,1/2+z
x,-y,-z
-x,y,1/2-z
-x,-y,-z
x,y,1/2-z
-x,y,z
x,-y,1/2+z
1/2+x,1/2+y,z
1/2-x,1/2-y,1/2+z
1/2+x,1/2-y,-z
1/2-x,1/2+y,1/2-z
1/2-x,1/2-y,-z
1/2+x,1/2+y,1/2-z
1/2-x,1/2+y,z
1/2+x,1/2-y,1/2+z
loop_
_atom_site_type_symbol
_atom_site_label
_atom_site_fract_x
_atom_site_fract_y
_atom_site_fract_z
Si Si1 0.762030 0.257533 0.611846
Si Si2 0.382567 0.015570 0.829920
Si Si3 0.653129 0.245308 0.520234
Si Si4 0.761601 0.455252 0.667144
Si Si5 0.069773 0.161582 0.930392
Si Si6 0.334396 0.593425 0.831467
Si Si7 0.068418 0.321836 0.825996
Si Si8 0.565089 0.090982 0.541059
O O1 0.694058 0.248067 0.588092
O O2 0.801759 0.255129 0.543232
O O3 0.766644 0.354988 0.643326
O O4 0.791181 0.178438 0.656206
O O5 0.386019 0.042519 0.750000
O O6 0.398070 0.912375 0.834164
O O7 0.315961 0.015795 0.857476
O O8 0.425651 0.068380 0.878829
O O9 0.605793 0.321787 0.501337
O O10 0.615258 0.157408 0.520442
O O11 0.766360 0.454759 0.750000
O O12 0.702481 0.506585 0.648750
O O13 0.108543 0.099613 0.880522
O O14 0.075336 0.252778 0.886707
O O15 0.000000 0.141928 0.937534
O O16 0.348844 0.589860 0.750000
O O17 0.083840 0.283721 0.750000
O O18 0.000000 0.345573 0.824499
O O19 0.500000 0.127469 0.527187
O O20 0.570312 0.000000 0.500000
#
# Coordination Sequence:
#
# PCOD9470027 Si02
#       8
#    16  16  16  16  16  16  16  16
#     4  10  20  36  55  76 108 142 173 219 270 314
#     4  10  19  31  48  72 103 137 173 213 260 317
#     4  10  21  34  50  74 102 139 183 217 257 318
#     4  10  20  34  55  80 105 135 170 215 269 322
#     4  10  19  33  52  74 102 133 168 217 270 314
#     4  10  20  34  55  84 109 132 170 214 266 332
#     4   9  16  26  44  71 100 130 163 202 257 320
#     4  11  21  32  49  74 107 145 181 221 267 318
#
# _framework density 19.083273999999999
#
# number of rings (size 3 to 8) (size 9 to 14) (size 15 to 20)
#    0.000    2.000    0.000    5.250    0.000    4.500 
#    0.000    6.875    0.000    2.250    0.000    0.000 
#    0.000    0.000    0.000    0.000    0.000    0.000 
#
# Total GULP energy -356891.519126 kJ/mol
# GULP energy per Si atom -5576.429986 kJ/mol
# Density = 1.903984 g / cm^3
# Si number density = 19.083274 Si / 1000 Ang^3
#
#
#
# Elastic Constant Matrix: (Units=GPa)
#
#
# Indices 1 2 3 4 5 6 
#
# 1 59.1723 -17.3141 -5.5280 0.0000 0.0000 0.0000
# 2 -17.3141 16.5394 -16.2878 0.0000 0.0000 0.0000
# 3 -5.5280 -16.2878 20.8393 0.0000 0.0000 0.0000
# 4 0.0000 0.0000 0.0000 16.4594 0.0000 0.0000
# 5 0.0000 0.0000 0.0000 0.0000 17.7287 0.0000
# 6 0.0000 0.0000 0.0000 0.0000 0.0000 33.8487
#
#
#
# Elastic Compliance Matrix: (Units=1/GPa)
#
#
# Indices 1 2 3 4 5 6 
#
# 1 -0.015343 -0.087147 -0.072183 0.000000 0.000000 0.000000
# 2 -0.087147 -0.232444 -0.204793 0.000000 0.000000 0.000000
# 3 -0.072183 -0.204793 -0.131225 0.000000 0.000000 0.000000
# 4 0.000000 0.000000 0.000000 0.060756 0.000000 0.000000
# 5 0.000000 0.000000 0.000000 0.000000 0.056406 0.000000
# 6 0.000000 0.000000 0.000000 0.000000 0.000000 0.029543
#
#
# Mechanical properties :
#
#
# Convention : Reuss Voigt Hill
#
# Bulk Modulus (GPa) = -0.90313 2.03235 0.56461
# Shear Modulus (GPa) = 39.41634 22.65275 31.03455
#
# Velocity S-wave (km/s) = 4.54970 3.44909 4.03708
# Velocity P-wave (km/s) = 5.20820 4.11448 4.69331
#
# Compressibility (1/GPa) = -1.10725700
#
# Stress axis : x y z
#
# Youngs Moduli (GPa) = -65.17533 -4.30211 -7.62047
#
# Poissons Ratio (x) = -0.37491 -0.55007
# Poissons Ratio (y) = -5.67980 -1.56062
# Poissons Ratio (z) = -4.70454 -0.88104
#
# Static dielectric constant tensor:
#      x y z
#    x 1.723600 0.000000 0.000000 
#    y 0.000000 1.653590 0.000000 
#    z 0.000000 0.000000 1.705930 
# 
# From -- ./inp_files/56991.got.cif
#   From: 2010.05.17/outbox.cif.g08.bks.cpg/sg63_29_cif.got.tgz:56991.got - 2010.06.03 15:47:04.
