data_PCOD9470646
_publ_section_title
;
Structure prediction by ZEFSAII (Michael W. Deem and Ramdas Pophale) SiO2 
 PCOD9470646
Probable space group: C M C M
;
_chemical_formula_sum "Si O2"
_cell_formula_units_Z 88
_cell_length_a 13.745179
_cell_length_b 29.244713
_cell_length_c 13.715347
_cell_angle_alpha 90.000000
_cell_angle_beta 90.000000
_cell_angle_gamma 90.000000
_cell_volume 5513.210357
_symmetry_space_group_name_H-M "C M C M"
_symmetry_group_IT_number 63
_symmetry_cell_setting 'orthorhombic'
loop_
_space_group_symop_operation_xyz
x,y,z
-x,-y,1/2+z
x,-y,-z
-x,y,1/2-z
-x,-y,-z
x,y,1/2-z
-x,y,z
x,-y,1/2+z
1/2+x,1/2+y,z
1/2-x,1/2-y,1/2+z
1/2+x,1/2-y,-z
1/2-x,1/2+y,1/2-z
1/2-x,1/2-y,-z
1/2+x,1/2+y,1/2-z
1/2-x,1/2+y,z
1/2+x,1/2-y,1/2+z
loop_
_atom_site_type_symbol
_atom_site_label
_atom_site_fract_x
_atom_site_fract_y
_atom_site_fract_z
Si Si1 0.385405 0.750348 0.634695
Si Si2 0.614258 0.155979 0.475198
Si Si3 0.614391 0.563504 0.864815
Si Si4 0.751772 0.000000 0.500000
Si Si5 0.885501 0.438154 0.635207
Si Si6 0.225110 0.842748 0.135373
O O1 0.372150 0.759332 0.750000
O O2 0.500000 0.740614 0.619662
O O3 0.360630 0.795799 0.575134
O O4 0.323746 0.705649 0.609063
O O5 0.500000 0.157027 0.501352
O O6 0.627728 0.114093 0.400345
O O7 0.682077 0.148657 0.568157
O O8 0.628860 0.552206 0.750000
O O9 0.500000 0.558860 0.886674
O O10 0.680190 0.531947 0.933173
O O11 0.649191 0.615846 0.877897
O O12 0.683084 0.969842 0.569995
O O13 0.864146 0.442503 0.750000
O O14 0.000000 0.449574 0.620570
O O15 0.250678 0.841459 0.250000
#
# Coordination Sequence:
#
# PCOD9470646 Si02
#       6
#    16  16  16   8  16  16
#     4   9  17  30  52  78 101 129 166 207 250 302
#     4  10  19  33  51  75 104 134 170 209 252 305
#     4  10  21  36  54  77 104 134 171 215 259 304
#     4  12  20  36  56  78 104 132 176 216 260 306
#     4  10  21  36  54  77 106 138 171 211 255 304
#     4  10  19  33  51  75 104 134 169 209 255 304
#
# _framework density 15.961660999999999
#
# number of rings (size 3 to 8) (size 9 to 14) (size 15 to 20)
#    0.000    2.000    1.818    2.727    0.000    4.727 
#    0.000    0.000    0.000    0.000    0.000    0.000 
#    0.000    0.000    0.000    0.000    0.000    0.000 
#
# Total GULP energy -245453.093716 kJ/mol
# GULP energy per Si atom -5578.479403 kJ/mol
# Density = 1.592533 g / cm^3
# Si number density = 15.961661 Si / 1000 Ang^3
#
#
#
# Elastic Constant Matrix: (Units=GPa)
#
#
# Indices 1 2 3 4 5 6 
#
# 1 98.6062 68.8372 81.4544 0.0000 0.0000 0.0000
# 2 68.8372 108.6455 67.3617 0.0000 0.0000 0.0000
# 3 81.4544 67.3617 97.9755 0.0000 0.0000 0.0000
# 4 0.0000 0.0000 0.0000 29.3853 0.0000 0.0000
# 5 0.0000 0.0000 0.0000 0.0000 32.6364 0.0000
# 6 0.0000 0.0000 0.0000 0.0000 0.0000 28.7863
#
#
#
# Elastic Compliance Matrix: (Units=1/GPa)
#
#
# Indices 1 2 3 4 5 6 
#
# 1 0.035405 -0.007290 -0.024423 0.000000 0.000000 0.000000
# 2 -0.007290 0.017544 -0.006001 0.000000 0.000000 0.000000
# 3 -0.024423 -0.006001 0.034637 0.000000 0.000000 0.000000
# 4 0.000000 0.000000 0.000000 0.034031 0.000000 0.000000
# 5 0.000000 0.000000 0.000000 0.000000 0.030641 0.000000
# 6 0.000000 0.000000 0.000000 0.000000 0.000000 0.034739
#
#
# Mechanical properties :
#
#
# Convention : Reuss Voigt Hill
#
# Bulk Modulus (GPa) = 82.25005 82.28153 82.26579
# Shear Modulus (GPa) = 18.76326 23.99986 21.38156
#
# Velocity S-wave (km/s) = 3.43231 3.88183 3.66397
# Velocity P-wave (km/s) = 8.20666 8.47070 8.33973
#
# Compressibility (1/GPa) = 0.01215805
#
# Stress axis : x y z
#
# Youngs Moduli (GPa) = 28.24442 56.99884 28.87055
#
# Poissons Ratio (x) = 0.41553 0.70510
# Poissons Ratio (y) = 0.20590 0.17327
# Poissons Ratio (z) = 0.68981 0.34208
#
# Static dielectric constant tensor:
#      x y z
#    x 1.508800 0.000000 0.000000 
#    y 0.000000 1.522470 0.000000 
#    z 0.000000 0.000000 1.508380 
# 
# From -- ./inp_files/30287.got.cif
#   From: 2010.05.17/outbox.cif.g08.bks.cpg/sg63_16_cif.got.tgz:30287.got - 2010.06.03 15:47:04.
