data_PCOD9470159
_publ_section_title
;
Structure prediction by ZEFSAII (Michael W. Deem and Ramdas Pophale) SiO2 
 PCOD9470159
Probable space group: C M C M
;
_chemical_formula_sum "Si O2"
_cell_formula_units_Z 96
_cell_length_a 16.705479
_cell_length_b 20.992304
_cell_length_c 11.616764
_cell_angle_alpha 90.000000
_cell_angle_beta 90.000000
_cell_angle_gamma 90.000000
_cell_volume 4073.842235
_symmetry_space_group_name_H-M "C M C M"
_symmetry_group_IT_number 63
_symmetry_cell_setting 'orthorhombic'
loop_
_space_group_symop_operation_xyz
x,y,z
-x,-y,1/2+z
x,-y,-z
-x,y,1/2-z
-x,-y,-z
x,y,1/2-z
-x,y,z
x,-y,1/2+z
1/2+x,1/2+y,z
1/2-x,1/2-y,1/2+z
1/2+x,1/2-y,-z
1/2-x,1/2+y,1/2-z
1/2-x,1/2-y,-z
1/2+x,1/2+y,1/2-z
1/2-x,1/2+y,z
1/2+x,1/2-y,1/2+z
loop_
_atom_site_type_symbol
_atom_site_label
_atom_site_fract_x
_atom_site_fract_y
_atom_site_fract_z
Si Si1 0.828242 0.932965 0.384411
Si Si2 0.659528 0.917056 0.504154
Si Si3 0.091074 0.262071 0.750000
Si Si4 0.500000 0.241840 0.620141
Si Si5 0.342330 0.236270 0.012359
Si Si6 0.403619 0.424754 0.620956
Si Si7 0.000000 0.412667 0.381573
Si Si8 0.904256 0.417103 0.750000
O O1 0.830371 0.908589 0.250000
O O2 0.737274 0.936911 0.432136
O O3 0.870561 0.899417 0.496879
O O4 0.869717 0.002634 0.377204
O O5 0.655984 0.840324 0.504514
O O6 0.579226 0.937022 0.440407
O O7 0.646539 0.935719 0.637303
O O8 0.134595 0.240236 0.637659
O O9 0.091697 0.339448 0.750000
O O10 0.000000 0.240976 0.750000
O O11 0.500000 0.263004 0.750000
O O12 0.584973 0.261193 0.566353
O O13 0.500000 0.164673 0.611630
O O14 0.250000 0.250000 0.000000
O O15 0.380551 0.398088 0.750000
O O16 0.500000 0.424495 0.615699
O O17 0.000000 0.429119 0.250000
O O18 0.000000 0.434646 0.750000
#
# Coordination Sequence:
#
# PCOD9470159 Si02
#       8
#    16  16   8   8  16  16   8   8
#     4  10  19  31  52  83 111 132 166 216 263 310
#     4  10  19  31  50  77 104 133 173 220 268 313
#     4   9  16  32  52  69  95 130 177 226 261 306
#     4   9  18  31  49  71  96 127 170 218 261 312
#     4  10  20  33  52  75 101 138 179 220 269 322
#     4   9  19  37  61  83 104 139 180 216 258 313
#     4   9  16  29  47  70 100 131 163 206 259 312
#     4   9  16  30  50  72  94 131 178 220 259 299
#
# _framework density 23.564978
#
# number of rings (size 3 to 8) (size 9 to 14) (size 15 to 20)
#    0.000    2.500    1.667    1.500    2.333    1.667 
#    0.000    0.000    3.667    2.000    0.000    1.167 
#    0.000    0.000    0.000    0.000    0.000    0.000 
#
# Total GULP energy -267832.040478 kJ/mol
# GULP energy per Si atom -5579.834177 kJ/mol
# Density = 2.351134 g / cm^3
# Si number density = 23.564978 Si / 1000 Ang^3
#
#
#
# Elastic Constant Matrix: (Units=GPa)
#
#
# Indices 1 2 3 4 5 6 
#
# 1 221.5247 15.3436 132.3880 0.0000 0.0000 0.0000
# 2 15.3436 57.5583 28.3282 0.0000 0.0000 0.0000
# 3 132.3880 28.3282 263.7380 0.0000 0.0000 0.0000
# 4 0.0000 0.0000 0.0000 13.7830 0.0000 0.0000
# 5 0.0000 0.0000 0.0000 0.0000 40.6128 0.0000
# 6 0.0000 0.0000 0.0000 0.0000 0.0000 20.4663
#
#
#
# Elastic Compliance Matrix: (Units=1/GPa)
#
#
# Indices 1 2 3 4 5 6 
#
# 1 0.006450 -0.000133 -0.003223 0.000000 0.000000 0.000000
# 2 -0.000133 0.018346 -0.001904 0.000000 0.000000 0.000000
# 3 -0.003223 -0.001904 0.005614 0.000000 0.000000 0.000000
# 4 0.000000 0.000000 0.000000 0.072553 0.000000 0.000000
# 5 0.000000 0.000000 0.000000 0.000000 0.024623 0.000000
# 6 0.000000 0.000000 0.000000 0.000000 0.000000 0.048861
#
#
# Mechanical properties :
#
#
# Convention : Reuss Voigt Hill
#
# Bulk Modulus (GPa) = 50.27695 99.43786 74.85740
# Shear Modulus (GPa) = 25.82691 39.42317 32.62504
#
# Velocity S-wave (km/s) = 3.31416 4.09462 3.72489
# Velocity P-wave (km/s) = 6.00222 8.04011 7.09472
#
# Compressibility (1/GPa) = 0.01988983
#
# Stress axis : x y z
#
# Youngs Moduli (GPa) = 155.04703 54.50744 178.12315
#
# Poissons Ratio (x) = 0.00725 0.57413
# Poissons Ratio (y) = 0.02061 0.33912
# Poissons Ratio (z) = 0.49975 0.10377
#
# Static dielectric constant tensor:
#      x y z
#    x 1.801050 0.000000 0.000000 
#    y 0.000000 1.970350 0.000000 
#    z 0.000000 0.000000 1.551960 
# 
# From -- ./inp_files/20020.got.cif
#   From: 2010.05.17/outbox.cif.g08.bks.cpg/sg63_11_cif.got.tgz:20020.got - 2010.06.03 15:47:04.
