data_PCOD9470201
_publ_section_title
;
Structure prediction by ZEFSAII (Michael W. Deem and Ramdas Pophale) SiO2 
 PCOD9470201
Probable space group: C M C M
;
_chemical_formula_sum "Si O2"
_cell_formula_units_Z 80
_cell_length_a 12.653675
_cell_length_b 24.143828
_cell_length_c 13.566116
_cell_angle_alpha 90.000000
_cell_angle_beta 90.000000
_cell_angle_gamma 90.000000
_cell_volume 4144.559039
_symmetry_space_group_name_H-M "C M C M"
_symmetry_group_IT_number 63
_symmetry_cell_setting 'orthorhombic'
loop_
_space_group_symop_operation_xyz
x,y,z
-x,-y,1/2+z
x,-y,-z
-x,y,1/2-z
-x,-y,-z
x,y,1/2-z
-x,y,z
x,-y,1/2+z
1/2+x,1/2+y,z
1/2-x,1/2-y,1/2+z
1/2+x,1/2-y,-z
1/2-x,1/2+y,1/2-z
1/2-x,1/2-y,-z
1/2+x,1/2+y,1/2-z
1/2-x,1/2+y,z
1/2+x,1/2-y,1/2+z
loop_
_atom_site_type_symbol
_atom_site_label
_atom_site_fract_x
_atom_site_fract_y
_atom_site_fract_z
Si Si1 0.378249 0.802145 0.930803
Si Si2 0.218586 0.115550 0.137659
Si Si3 0.379907 0.499420 0.362819
Si Si4 0.278847 0.206505 0.860192
Si Si5 0.879754 0.120593 0.938459
O O1 0.500000 0.793931 0.905861
O O2 0.332382 0.860925 0.893300
O O3 0.300762 0.757566 0.880322
O O4 0.359661 0.796098 0.048437
O O5 0.192949 0.131885 0.250000
O O6 0.202145 0.049493 0.132274
O O7 0.142032 0.138255 0.051586
O O8 0.379057 0.478937 0.250000
O O9 0.500000 0.521299 0.380797
O O10 0.363538 0.445444 0.428497
O O11 0.322965 0.209799 0.750000
O O12 0.204398 0.152678 0.872890
O O13 0.000000 0.132780 0.910257
#
# Coordination Sequence:
#
# PCOD9470201 Si02
#       5
#    16  16  16  16  16
#     4  10  22  39  57  79 107 139 176 216 258 308
#     4  10  20  32  48  72 104 143 181 214 253 305
#     4   9  17  30  50  77 108 140 174 216 268 321
#     4  10  21  37  58  83 108 135 171 216 264 314
#     4  10  19  31  51  80 111 141 174 216 268 321
#
# _framework density 19.302415
#
# number of rings (size 3 to 8) (size 9 to 14) (size 15 to 20)
#    0.000    2.200    0.000    3.000    0.000    6.800 
#    0.000    1.000    0.000   19.200    0.000    8.400 
#    0.000    0.000    0.000    0.000    0.000    0.000 
#
# Total GULP energy -223100.805618 kJ/mol
# GULP energy per Si atom -5577.520140 kJ/mol
# Density = 1.925848 g / cm^3
# Si number density = 19.302415 Si / 1000 Ang^3
#
#
#
# Elastic Constant Matrix: (Units=GPa)
#
#
# Indices 1 2 3 4 5 6 
#
# 1 42.7091 25.9079 -8.8310 0.0000 0.0000 0.0000
# 2 25.9079 61.8454 10.1745 0.0000 0.0000 0.0000
# 3 -8.8310 10.1745 121.4405 0.0000 0.0000 0.0000
# 4 0.0000 0.0000 0.0000 26.5209 0.0000 0.0000
# 5 0.0000 0.0000 0.0000 0.0000 9.4877 0.0000
# 6 0.0000 0.0000 0.0000 0.0000 0.0000 19.9698
#
#
#
# Elastic Compliance Matrix: (Units=1/GPa)
#
#
# Indices 1 2 3 4 5 6 
#
# 1 0.032868 -0.014360 0.003593 0.000000 0.000000 0.000000
# 2 -0.014360 0.022669 -0.002944 0.000000 0.000000 0.000000
# 3 0.003593 -0.002944 0.008742 0.000000 0.000000 0.000000
# 4 0.000000 0.000000 0.000000 0.037706 0.000000 0.000000
# 5 0.000000 0.000000 0.000000 0.000000 0.105399 0.000000
# 6 0.000000 0.000000 0.000000 0.000000 0.000000 0.050076
#
#
# Mechanical properties :
#
#
# Convention : Reuss Voigt Hill
#
# Bulk Modulus (GPa) = 27.13030 31.16641 29.14835
# Shear Modulus (GPa) = 16.82550 24.44525 20.63537
#
# Velocity S-wave (km/s) = 2.95562 3.56256 3.27319
# Velocity P-wave (km/s) = 5.07282 5.75360 5.42390
#
# Compressibility (1/GPa) = 0.03685916
#
# Stress axis : x y z
#
# Youngs Moduli (GPa) = 30.42450 44.11264 114.38507
#
# Poissons Ratio (x) = 0.63346 -0.41102
# Poissons Ratio (y) = 0.43690 0.33670
# Poissons Ratio (z) = -0.10932 0.12985
#
# Static dielectric constant tensor:
#      x y z
#    x 1.621040 0.000000 0.000000 
#    y 0.000000 1.707660 0.000000 
#    z 0.000000 0.000000 1.752810 
# 
# From -- ./inp_files/30016.got.cif
#   From: 2010.05.17/outbox.cif.g08.bks.cpg/sg63_16_cif.got.tgz:30016.got - 2010.06.03 15:47:04.
