data_PCOD9470483
_publ_section_title
;
Structure prediction by ZEFSAII (Michael W. Deem and Ramdas Pophale) SiO2 
 PCOD9470483
Probable space group: C M C M
;
_chemical_formula_sum "Si O2"
_cell_formula_units_Z 96
_cell_length_a 7.557306
_cell_length_b 25.392447
_cell_length_c 22.594124
_cell_angle_alpha 90.000000
_cell_angle_beta 90.000000
_cell_angle_gamma 90.000000
_cell_volume 4335.778325
_symmetry_space_group_name_H-M "C M C M"
_symmetry_group_IT_number 63
_symmetry_cell_setting 'orthorhombic'
loop_
_space_group_symop_operation_xyz
x,y,z
-x,-y,1/2+z
x,-y,-z
-x,y,1/2-z
-x,-y,-z
x,y,1/2-z
-x,y,z
x,-y,1/2+z
1/2+x,1/2+y,z
1/2-x,1/2-y,1/2+z
1/2+x,1/2-y,-z
1/2-x,1/2+y,1/2-z
1/2-x,1/2-y,-z
1/2+x,1/2+y,1/2-z
1/2-x,1/2+y,z
1/2+x,1/2-y,1/2+z
loop_
_atom_site_type_symbol
_atom_site_label
_atom_site_fract_x
_atom_site_fract_y
_atom_site_fract_z
Si Si1 0.785700 0.557981 0.520250
Si Si2 0.712036 0.926157 0.152912
Si Si3 0.783609 0.310754 0.184508
Si Si4 0.713239 0.257625 0.570536
Si Si5 0.287762 0.455203 0.686282
Si Si6 0.292659 0.374003 0.590065
O O1 0.726888 0.500000 0.500000
O O2 0.722601 0.570214 0.585731
O O3 0.723532 0.601471 0.474675
O O4 0.000000 0.557920 0.520163
O O5 0.500000 0.921904 0.151701
O O6 0.774281 0.871949 0.181545
O O7 0.749844 0.982951 0.180314
O O8 0.730681 0.289348 0.250000
O O9 0.726755 0.282352 0.122996
O O10 0.000000 0.309162 0.183984
O O11 0.500000 0.256837 0.573633
O O12 0.750000 0.250000 0.500000
O O13 0.781977 0.315423 0.589133
O O14 0.223456 0.436439 0.750000
O O15 0.500000 0.451309 0.684820
O O16 0.216349 0.418106 0.634280
O O17 0.500000 0.368300 0.604785
#
# Coordination Sequence:
#
# PCOD9470483 Si02
#       6
#    16  16  16  16  16  16
#     4  10  19  32  52  79 109 140 173 213 264 318
#     4  10  19  33  54  79 106 137 176 220 265 317
#     4   9  18  33  55  81 106 138 184 233 274 316
#     4  10  21  38  59  82 108 141 182 229 278 325
#     4  10  21  35  50  73 107 142 173 211 261 315
#     4  10  21  35  53  78 106 138 175 214 264 322
#
# _framework density 22.141352999999999
#
# number of rings (size 3 to 8) (size 9 to 14) (size 15 to 20)
#    0.000    2.167    1.667    1.500    0.000    4.667 
#    0.000    4.167    0.000    1.500    0.000    2.333 
#    0.000    0.000    0.000    0.000    0.000    0.000 
#
# Total GULP energy -267817.300900 kJ/mol
# GULP energy per Si atom -5579.527102 kJ/mol
# Density = 2.209096 g / cm^3
# Si number density = 22.141353 Si / 1000 Ang^3
#
#
#
# Elastic Constant Matrix: (Units=GPa)
#
#
# Indices 1 2 3 4 5 6 
#
# 1 49.8448 6.1151 3.8483 0.0000 0.0000 0.0000
# 2 6.1151 132.3183 70.1669 0.0000 0.0000 0.0000
# 3 3.8483 70.1669 178.7806 0.0000 0.0000 0.0000
# 4 0.0000 0.0000 0.0000 17.2769 0.0000 0.0000
# 5 0.0000 0.0000 0.0000 0.0000 65.7969 0.0000
# 6 0.0000 0.0000 0.0000 0.0000 0.0000 7.7667
#
#
#
# Elastic Compliance Matrix: (Units=1/GPa)
#
#
# Indices 1 2 3 4 5 6 
#
# 1 0.020178 -0.000887 -0.000086 0.000000 0.000000 0.000000
# 2 -0.000887 0.009583 -0.003742 0.000000 0.000000 0.000000
# 3 -0.000086 -0.003742 0.007064 0.000000 0.000000 0.000000
# 4 0.000000 0.000000 0.000000 0.057881 0.000000 0.000000
# 5 0.000000 0.000000 0.000000 0.000000 0.015198 0.000000
# 6 0.000000 0.000000 0.000000 0.000000 0.000000 0.128755
#
#
# Mechanical properties :
#
#
# Convention : Reuss Voigt Hill
#
# Bulk Modulus (GPa) = 36.50365 57.91157 47.20761
# Shear Modulus (GPa) = 19.43863 36.88900 28.16381
#
# Velocity S-wave (km/s) = 2.96621 4.08618 3.57038
# Velocity P-wave (km/s) = 5.31541 6.96237 6.19388
#
# Compressibility (1/GPa) = 0.02739452
#
# Stress axis : x y z
#
# Youngs Moduli (GPa) = 49.55957 104.35347 141.56448
#
# Poissons Ratio (x) = 0.09254 0.01222
# Poissons Ratio (y) = 0.04395 0.52972
# Poissons Ratio (z) = 0.00428 0.39048
#
# Static dielectric constant tensor:
#      x y z
#    x 1.851730 0.000000 0.000000 
#    y 0.000000 1.803350 0.000000 
#    z 0.000000 0.000000 1.761500 
# 
# From -- ./inp_files/51277.got.cif
#   From: 2010.05.17/outbox.cif.g08.bks.cpg/sg63_26_cif.got.tgz:51277.got - 2010.06.03 15:47:04.
