data_PCOD9470145
_publ_section_title
;
Structure prediction by ZEFSAII (Michael W. Deem and Ramdas Pophale) SiO2 
 PCOD9470145
Probable space group: C M C M
;
_chemical_formula_sum "Si O2"
_cell_formula_units_Z 96
_cell_length_a 12.865552
_cell_length_b 17.171770
_cell_length_c 24.260857
_cell_angle_alpha 90.000000
_cell_angle_beta 90.000000
_cell_angle_gamma 90.000000
_cell_volume 5359.812847
_symmetry_space_group_name_H-M "C M C M"
_symmetry_group_IT_number 63
_symmetry_cell_setting 'orthorhombic'
loop_
_space_group_symop_operation_xyz
x,y,z
-x,-y,1/2+z
x,-y,-z
-x,y,1/2-z
-x,-y,-z
x,y,1/2-z
-x,y,z
x,-y,1/2+z
1/2+x,1/2+y,z
1/2-x,1/2-y,1/2+z
1/2+x,1/2-y,-z
1/2-x,1/2+y,1/2-z
1/2-x,1/2-y,-z
1/2+x,1/2+y,1/2-z
1/2-x,1/2+y,z
1/2+x,1/2-y,1/2+z
loop_
_atom_site_type_symbol
_atom_site_label
_atom_site_fract_x
_atom_site_fract_y
_atom_site_fract_z
Si Si1 0.834152 0.124634 0.686320
Si Si2 0.304611 0.669997 0.106379
Si Si3 0.378141 0.411560 0.497217
Si Si4 0.118573 0.050881 0.184358
Si Si5 0.118514 0.777579 0.415256
Si Si6 0.117080 0.696930 0.687012
O O1 0.864240 0.135414 0.750000
O O2 0.880551 0.189614 0.646806
O O3 0.709314 0.134426 0.682795
O O4 0.870182 0.039340 0.668651
O O5 0.364583 0.631499 0.055471
O O6 0.299230 0.602288 0.151812
O O7 0.197101 0.705519 0.084021
O O8 0.361582 0.739298 0.139881
O O9 0.334501 0.500000 0.500000
O O10 0.500000 0.420419 0.483644
O O11 0.338291 0.349699 0.451951
O O12 0.132289 0.056417 0.250000
O O13 0.000000 0.076759 0.171408
O O14 0.000000 0.759510 0.432261
O O15 0.125625 0.730485 0.750000
O O16 0.000000 0.666647 0.681568
#
# Coordination Sequence:
#
# PCOD9470145 Si02
#       6
#    16  16  16  16  16  16
#     4   9  18  32  51  74 100 132 166 201 245 292
#     4  11  20  32  51  73 100 131 163 201 247 294
#     4  10  20  34  54  77  98 123 158 202 250 294
#     4  10  19  31  50  76 102 127 162 209 251 287
#     4  10  21  35  50  72 102 132 164 203 244 292
#     4   9  17  30  49  74 102 130 162 201 243 290
#
# _framework density 17.911073999999999
#
# number of rings (size 3 to 8) (size 9 to 14) (size 15 to 20)
#    0.000    2.167    0.000    4.000    0.000    4.333 
#    0.000    0.833    0.000    1.500    0.000    0.000 
#    0.000    0.000    0.000    0.000    0.000    0.000 
#
# Total GULP energy -267492.367018 kJ/mol
# GULP energy per Si atom -5572.757646 kJ/mol
# Density = 1.787031 g / cm^3
# Si number density = 17.911074 Si / 1000 Ang^3
#
#
#
# Elastic Constant Matrix: (Units=GPa)
#
#
# Indices 1 2 3 4 5 6 
#
# 1 57.1708 9.0148 4.7421 0.0000 0.0000 0.0000
# 2 9.0148 56.7697 16.5611 0.0000 0.0000 0.0000
# 3 4.7421 16.5611 45.5773 0.0000 0.0000 0.0000
# 4 0.0000 0.0000 0.0000 25.4151 0.0000 0.0000
# 5 0.0000 0.0000 0.0000 0.0000 19.0899 0.0000
# 6 0.0000 0.0000 0.0000 0.0000 0.0000 21.4755
#
#
#
# Elastic Compliance Matrix: (Units=1/GPa)
#
#
# Indices 1 2 3 4 5 6 
#
# 1 0.017976 -0.002583 -0.000932 0.000000 0.000000 0.000000
# 2 -0.002583 0.020075 -0.007026 0.000000 0.000000 0.000000
# 3 -0.000932 -0.007026 0.024591 0.000000 0.000000 0.000000
# 4 0.000000 0.000000 0.000000 0.039347 0.000000 0.000000
# 5 0.000000 0.000000 0.000000 0.000000 0.052384 0.000000
# 6 0.000000 0.000000 0.000000 0.000000 0.000000 0.046565
#
#
# Mechanical properties :
#
#
# Convention : Reuss Voigt Hill
#
# Bulk Modulus (GPa) = 24.06112 24.46154 24.26133
# Shear Modulus (GPa) = 21.19806 21.80940 21.50373
#
# Velocity S-wave (km/s) = 3.44396 3.49327 3.46870
# Velocity P-wave (km/s) = 5.41085 5.47334 5.44218
#
# Compressibility (1/GPa) = 0.04156082
#
# Stress axis : x y z
#
# Youngs Moduli (GPa) = 55.62975 49.81385 40.66594
#
# Poissons Ratio (x) = 0.12865 0.03790
# Poissons Ratio (y) = 0.14367 0.28571
# Poissons Ratio (z) = 0.05184 0.34998
#
# Static dielectric constant tensor:
#      x y z
#    x 1.628280 0.000000 0.000000 
#    y 0.000000 1.614810 0.000000 
#    z 0.000000 0.000000 1.651840 
# 
# From -- ./inp_files/61445.got.cif
#   From: 2010.05.17/outbox.cif.g08.bks.cpg/sg63_31_cif.got.tgz:61445.got - 2010.06.03 15:47:04.
