data_PCOD9470141
_publ_section_title
;
Structure prediction by ZEFSAII (Michael W. Deem and Ramdas Pophale) SiO2 
 PCOD9470141
Probable space group: C M C M
;
_chemical_formula_sum "Si O2"
_cell_formula_units_Z 72
_cell_length_a 16.476448
_cell_length_b 27.611484
_cell_length_c 9.186897
_cell_angle_alpha 90.000000
_cell_angle_beta 90.000000
_cell_angle_gamma 90.000000
_cell_volume 4179.479391
_symmetry_space_group_name_H-M "C M C M"
_symmetry_group_IT_number 63
_symmetry_cell_setting 'orthorhombic'
loop_
_space_group_symop_operation_xyz
x,y,z
-x,-y,1/2+z
x,-y,-z
-x,y,1/2-z
-x,-y,-z
x,y,1/2-z
-x,y,z
x,-y,1/2+z
1/2+x,1/2+y,z
1/2-x,1/2-y,1/2+z
1/2+x,1/2-y,-z
1/2-x,1/2+y,1/2-z
1/2-x,1/2-y,-z
1/2+x,1/2+y,1/2-z
1/2-x,1/2+y,z
1/2+x,1/2-y,1/2+z
loop_
_atom_site_type_symbol
_atom_site_label
_atom_site_fract_x
_atom_site_fract_y
_atom_site_fract_z
Si Si1 0.000000 0.552835 0.574210
Si Si2 0.173663 0.948919 0.078254
Si Si3 0.249797 0.301827 0.923624
Si Si4 0.590366 0.363591 0.578179
Si Si5 0.337486 0.111737 0.576753
O O1 0.000000 0.500000 0.500000
O O2 0.920057 0.584093 0.535406
O O3 0.000000 0.546322 0.750000
O O4 0.162850 0.954483 0.250000
O O5 0.261914 0.924592 0.052073
O O6 0.109220 0.911436 0.013053
O O7 0.168811 0.000000 0.000000
O O8 0.238677 0.297584 0.750000
O O9 0.337917 0.325915 0.952150
O O10 0.250000 0.250000 0.000000
O O11 0.184208 0.339268 0.990610
O O12 0.595368 0.375435 0.750000
O O13 0.500000 0.344958 0.547823
O O14 0.340825 0.122423 0.750000
#
# Coordination Sequence:
#
# PCOD9470141 Si02
#       5
#     8  16  16  16  16
#     4  10  20  34  54  80 112 148 182 224 271 320
#     4  10  19  31  50  75 104 138 173 209 253 303
#     4  10  20  36  58  79 103 135 172 216 266 317
#     4   9  19  36  55  75  99 130 170 211 252 301
#     4   9  19  35  53  76 106 140 180 220 262 312
#
# _framework density 17.227025000000001
#
# number of rings (size 3 to 8) (size 9 to 14) (size 15 to 20)
#    0.000    2.444    0.000    2.000    0.000    3.556 
#    2.000    0.000    0.000    0.000    0.000    0.000 
#    0.000    0.000    0.000    0.000    0.000    0.000 
#
# Total GULP energy -200819.758255 kJ/mol
# GULP energy per Si atom -5578.326618 kJ/mol
# Density = 1.718782 g / cm^3
# Si number density = 17.227025 Si / 1000 Ang^3
#
#
#
# Elastic Constant Matrix: (Units=GPa)
#
#
# Indices 1 2 3 4 5 6 
#
# 1 109.7472 57.1426 45.3393 0.0000 0.0000 0.0000
# 2 57.1426 160.0805 82.5979 0.0000 0.0000 0.0000
# 3 45.3393 82.5979 55.3011 0.0000 0.0000 0.0000
# 4 0.0000 0.0000 0.0000 38.9226 0.0000 0.0000
# 5 0.0000 0.0000 0.0000 0.0000 22.6752 0.0000
# 6 0.0000 0.0000 0.0000 0.0000 0.0000 12.3555
#
#
#
# Elastic Compliance Matrix: (Units=1/GPa)
#
#
# Indices 1 2 3 4 5 6 
#
# 1 0.014383 0.004143 -0.017980 0.000000 0.000000 0.000000
# 2 0.004143 0.028433 -0.045864 0.000000 0.000000 0.000000
# 3 -0.017980 -0.045864 0.101327 0.000000 0.000000 0.000000
# 4 0.000000 0.000000 0.000000 0.025692 0.000000 0.000000
# 5 0.000000 0.000000 0.000000 0.000000 0.044101 0.000000
# 6 0.000000 0.000000 0.000000 0.000000 0.000000 0.080936
#
#
# Mechanical properties :
#
#
# Convention : Reuss Voigt Hill
#
# Bulk Modulus (GPa) = 40.42009 77.25426 58.83718
# Shear Modulus (GPa) = 11.83374 24.12725 17.98050
#
# Velocity S-wave (km/s) = 2.62378 3.74645 3.23420
# Velocity P-wave (km/s) = 5.71778 7.97851 6.94081
#
# Compressibility (1/GPa) = 0.02474017
#
# Stress axis : x y z
#
# Youngs Moduli (GPa) = 69.52833 35.17081 9.86901
#
# Poissons Ratio (x) = -0.14573 0.17745
# Poissons Ratio (y) = -0.28809 0.45263
# Poissons Ratio (z) = 1.25015 1.61308
#
# Static dielectric constant tensor:
#      x y z
#    x 1.589550 0.000000 0.000000 
#    y 0.000000 1.543360 0.000000 
#    z 0.000000 0.000000 1.573760 
# 
# From -- ./inp_files/4597.got.cif
#   From: 2010.05.17/outbox.cif.g08.bks.cpg/sg63_3_cif.got.tgz:4597.got - 2010.06.03 15:47:04.
