data_PCOD9470225
_publ_section_title
;
Structure prediction by ZEFSAII (Michael W. Deem and Ramdas Pophale) SiO2 
 PCOD9470225
Probable space group: C M C M
;
_chemical_formula_sum "Si O2"
_cell_formula_units_Z 96
_cell_length_a 20.136042
_cell_length_b 8.468709
_cell_length_c 31.575640
_cell_angle_alpha 90.000000
_cell_angle_beta 90.000000
_cell_angle_gamma 90.000000
_cell_volume 5384.476431
_symmetry_space_group_name_H-M "C M C M"
_symmetry_group_IT_number 63
_symmetry_cell_setting 'orthorhombic'
loop_
_space_group_symop_operation_xyz
x,y,z
-x,-y,1/2+z
x,-y,-z
-x,y,1/2-z
-x,-y,-z
x,y,1/2-z
-x,y,z
x,-y,1/2+z
1/2+x,1/2+y,z
1/2-x,1/2-y,1/2+z
1/2+x,1/2-y,-z
1/2-x,1/2+y,1/2-z
1/2-x,1/2-y,-z
1/2+x,1/2+y,1/2-z
1/2-x,1/2+y,z
1/2+x,1/2-y,1/2+z
loop_
_atom_site_type_symbol
_atom_site_label
_atom_site_fract_x
_atom_site_fract_y
_atom_site_fract_z
Si Si1 0.230180 0.197541 0.159572
Si Si2 0.157636 0.483447 0.200882
Si Si3 0.919483 0.568424 0.954780
Si Si4 0.077789 0.616311 0.128860
Si Si5 0.577031 0.441006 0.548098
Si Si6 0.666264 0.402603 0.383763
O O1 0.190430 0.317330 0.188830
O O2 0.287350 0.112628 0.186897
O O3 0.266764 0.296747 0.121819
O O4 0.183354 0.061671 0.141273
O O5 0.141433 0.495991 0.250000
O O6 0.096873 0.511608 0.169106
O O7 0.895490 0.467444 0.914258
O O8 0.905945 0.754703 0.950051
O O9 0.000000 0.555016 0.955190
O O10 0.895742 0.500000 0.000000
O O11 0.110870 0.786273 0.135032
O O12 0.000000 0.632766 0.124191
O O13 0.576002 0.500000 0.500000
O O14 0.500000 0.461242 0.564207
O O15 0.632504 0.541142 0.572763
#
# Coordination Sequence:
#
# PCOD9470225 Si02
#       6
#    16  16  16  16  16  16
#     4   9  20  35  54  78 101 134 180 221 261 308
#     4  10  19  34  56  78 104 136 173 217 260 311
#     4   9  17  30  49  75 106 136 170 210 252 307
#     4  10  20  33  53  80 108 140 173 212 267 321
#     4  10  19  31  52  81 109 139 176 218 267 323
#     4  10  19  35  54  75 106 138 175 225 269 314
#
# _framework density 17.829032000000002
#
# number of rings (size 3 to 8) (size 9 to 14) (size 15 to 20)
#    0.000    2.333    0.000    3.000    0.000    3.000 
#    0.000    2.500    0.000    7.000    0.000    0.000 
#    0.000    0.000    0.000    0.000    0.000    0.000 
#
# Total GULP energy -267383.609915 kJ/mol
# GULP energy per Si atom -5570.491873 kJ/mol
# Density = 1.778845 g / cm^3
# Si number density = 17.829032 Si / 1000 Ang^3
#
#
#
# Elastic Constant Matrix: (Units=GPa)
#
#
# Indices 1 2 3 4 5 6 
#
# 1 28.5669 25.7176 36.5475 0.0000 0.0000 0.0000
# 2 25.7176 104.6712 43.4751 0.0000 0.0000 0.0000
# 3 36.5475 43.4751 116.7324 0.0000 0.0000 0.0000
# 4 0.0000 0.0000 0.0000 15.6499 0.0000 0.0000
# 5 0.0000 0.0000 0.0000 0.0000 21.1098 0.0000
# 6 0.0000 0.0000 0.0000 0.0000 0.0000 21.7779
#
#
#
# Elastic Compliance Matrix: (Units=1/GPa)
#
#
# Indices 1 2 3 4 5 6 
#
# 1 0.064650 -0.008846 -0.016947 0.000000 0.000000 0.000000
# 2 -0.008846 0.012512 -0.001891 0.000000 0.000000 0.000000
# 3 -0.016947 -0.001891 0.014577 0.000000 0.000000 0.000000
# 4 0.000000 0.000000 0.000000 0.063898 0.000000 0.000000
# 5 0.000000 0.000000 0.000000 0.000000 0.047371 0.000000
# 6 0.000000 0.000000 0.000000 0.000000 0.000000 0.045918
#
#
# Mechanical properties :
#
#
# Convention : Reuss Voigt Hill
#
# Bulk Modulus (GPa) = 27.49292 51.27232 39.38262
# Shear Modulus (GPa) = 15.80197 21.32287 18.56242
#
# Velocity S-wave (km/s) = 2.98032 3.46202 3.23016
# Velocity P-wave (km/s) = 5.22464 6.69335 6.00408
#
# Compressibility (1/GPa) = 0.03637300
#
# Stress axis : x y z
#
# Youngs Moduli (GPa) = 15.46794 79.92113 68.60357
#
# Poissons Ratio (x) = 0.70695 1.16260
# Poissons Ratio (y) = 0.13682 0.12970
# Poissons Ratio (z) = 0.26213 0.15110
#
# Static dielectric constant tensor:
#      x y z
#    x 1.630540 0.000000 0.000000 
#    y 0.000000 1.619900 0.000000 
#    z 0.000000 0.000000 1.601560 
# 
# From -- ./inp_files/70248.got.cif
#   From: 2010.05.17/outbox.cif.g08.bks.cpg/sg63_36_cif.got.tgz:70248.got - 2010.06.03 15:47:04.
