data_PCOD9470623
_publ_section_title
;
Structure prediction by ZEFSAII (Michael W. Deem and Ramdas Pophale) SiO2 
 PCOD9470623
Probable space group: C M C M
;
_chemical_formula_sum "Si O2"
_cell_formula_units_Z 80
_cell_length_a 28.269382
_cell_length_b 7.311291
_cell_length_c 15.344444
_cell_angle_alpha 90.000000
_cell_angle_beta 90.000000
_cell_angle_gamma 90.000000
_cell_volume 3171.476815
_symmetry_space_group_name_H-M "C M C M"
_symmetry_group_IT_number 63
_symmetry_cell_setting 'orthorhombic'
loop_
_space_group_symop_operation_xyz
x,y,z
-x,-y,1/2+z
x,-y,-z
-x,y,1/2-z
-x,-y,-z
x,y,1/2-z
-x,y,z
x,-y,1/2+z
1/2+x,1/2+y,z
1/2-x,1/2-y,1/2+z
1/2+x,1/2-y,-z
1/2-x,1/2+y,1/2-z
1/2-x,1/2-y,-z
1/2+x,1/2+y,1/2-z
1/2-x,1/2+y,z
1/2+x,1/2-y,1/2+z
loop_
_atom_site_type_symbol
_atom_site_label
_atom_site_fract_x
_atom_site_fract_y
_atom_site_fract_z
Si Si1 0.397621 0.826786 0.854141
Si Si2 0.000000 0.326380 0.854908
Si Si3 0.202386 0.781750 0.652817
Si Si4 0.000000 0.232500 0.354959
Si Si5 0.898635 0.765185 0.855468
Si Si6 0.698385 0.103216 0.090487
O O1 0.396136 0.795703 0.750000
O O2 0.448817 0.758517 0.887199
O O3 0.347049 0.770190 0.892727
O O4 0.399206 0.046346 0.870862
O O5 0.000000 0.295988 0.750000
O O6 0.000000 0.546904 0.866844
O O7 0.207905 0.860370 0.750000
O O8 0.151760 0.841046 0.613613
O O9 0.249851 0.812806 0.599167
O O10 0.197594 0.562746 0.659080
O O11 0.050731 0.163904 0.387822
O O12 0.000000 0.201936 0.250000
O O13 0.897698 0.788825 0.750000
O O14 0.692525 0.000000 0.000000
#
# Coordination Sequence:
#
# PCOD9470623 Si02
#       6
#    16   8  16   8  16  16
#     4   8  13  24  41  62  87 118 152 187 225 272
#     4   7  10  18  37  61  84 111 148 187 222 262
#     4  10  19  33  50  68  90 122 160 194 228 278
#     4   7   8  14  30  57  85 103 125 175 232 260
#     4   7  11  19  36  60  84 106 137 181 224 260
#     4  11  21  32  46  69  98 126 155 195 242 284
#
# _framework density 25.224841000000001
#
# number of rings (size 3 to 8) (size 9 to 14) (size 15 to 20)
#    0.000    3.400    0.000    6.000    0.000    0.000 
#    0.000    0.500    0.000    0.000    0.000    2.100 
#    0.000    4.800    0.000    0.000    0.000    0.000 
#
# Total GULP energy -222988.868617 kJ/mol
# GULP energy per Si atom -5574.721715 kJ/mol
# Density = 2.516743 g / cm^3
# Si number density = 25.224841 Si / 1000 Ang^3
#
#
#
# Elastic Constant Matrix: (Units=GPa)
#
#
# Indices 1 2 3 4 5 6 
#
# 1 332.2729 11.6268 38.2311 0.0000 0.0000 0.0000
# 2 11.6268 70.1831 -2.5014 0.0000 0.0000 0.0000
# 3 38.2311 -2.5014 73.2019 0.0000 0.0000 0.0000
# 4 0.0000 0.0000 0.0000 -39.9559 0.0000 0.0000
# 5 0.0000 0.0000 0.0000 0.0000 -18.0538 0.0000
# 6 0.0000 0.0000 0.0000 0.0000 0.0000 -8.1978
#
#
#
# Elastic Compliance Matrix: (Units=1/GPa)
#
#
# Indices 1 2 3 4 5 6 
#
# 1 0.003227 -0.000595 -0.001706 0.000000 0.000000 0.000000
# 2 -0.000595 0.014376 0.000802 0.000000 0.000000 0.000000
# 3 -0.001706 0.000802 0.014579 0.000000 0.000000 0.000000
# 4 0.000000 0.000000 0.000000 -0.025028 0.000000 0.000000
# 5 0.000000 0.000000 0.000000 0.000000 -0.055390 0.000000
# 6 0.000000 0.000000 0.000000 0.000000 0.000000 -0.121984
#
#
# Mechanical properties :
#
#
# Convention : Reuss Voigt Hill
#
# Bulk Modulus (GPa) = 34.26546 63.37454 48.82000
# Shear Modulus (GPa) = -31.74694 15.31195 -8.21750
#
# Velocity S-wave (km/s) = -3.55147 2.46645 -1.80687
# Velocity P-wave (km/s) = 1.78989 5.76971 3.87852
#
# Compressibility (1/GPa) = 0.02918391
#
# Stress axis : x y z
#
# Youngs Moduli (GPa) = 309.91974 69.56208 68.59182
#
# Poissons Ratio (x) = 0.04141 0.11698
# Poissons Ratio (y) = 0.18450 -0.05502
# Poissons Ratio (z) = 0.52857 -0.05580
#
# Static dielectric constant tensor:
#      x y z
#    x 2.117360 0.000000 0.000000 
#    y 0.000000 2.104220 0.000000 
#    z 0.000000 0.000000 2.057720 
# 
# From -- ./inp_files/37723.got.cif
#   From: 2010.05.17/outbox.cif.g08.bks.cpg/sg63_19_cif.got.tgz:37723.got - 2010.06.03 15:47:04.
