data_PCOD9470817
_publ_section_title
;
Structure prediction by ZEFSAII (Michael W. Deem and Ramdas Pophale) SiO2 
 PCOD9470817
Probable space group: C M C M
;
_chemical_formula_sum "Si O2"
_cell_formula_units_Z 112
_cell_length_a 21.865535
_cell_length_b 13.053165
_cell_length_c 18.324576
_cell_angle_alpha 90.000000
_cell_angle_beta 90.000000
_cell_angle_gamma 90.000000
_cell_volume 5230.098527
_symmetry_space_group_name_H-M "C M C M"
_symmetry_group_IT_number 63
_symmetry_cell_setting 'orthorhombic'
loop_
_space_group_symop_operation_xyz
x,y,z
-x,-y,1/2+z
x,-y,-z
-x,y,1/2-z
-x,-y,-z
x,y,1/2-z
-x,y,z
x,-y,1/2+z
1/2+x,1/2+y,z
1/2-x,1/2-y,1/2+z
1/2+x,1/2-y,-z
1/2-x,1/2+y,1/2-z
1/2-x,1/2-y,-z
1/2+x,1/2+y,1/2-z
1/2-x,1/2+y,z
1/2+x,1/2-y,1/2+z
loop_
_atom_site_type_symbol
_atom_site_label
_atom_site_fract_x
_atom_site_fract_y
_atom_site_fract_z
Si Si1 0.307223 0.120430 0.009065
Si Si2 0.375586 0.217657 0.666595
Si Si3 0.384477 0.356959 0.165696
Si Si4 0.428919 0.006934 0.665975
Si Si5 0.068447 0.311920 0.940410
Si Si6 0.742022 0.265094 0.379333
Si Si7 0.430205 0.425952 0.838609
O O1 0.372830 0.178518 0.007515
O O2 0.278815 0.156772 0.086440
O O3 0.262152 0.163985 0.947556
O O4 0.314334 0.000000 0.000000
O O5 0.398557 0.210905 0.750000
O O6 0.389253 0.103067 0.639660
O O7 0.303801 0.241207 0.666036
O O8 0.408221 0.316270 0.632171
O O9 0.405716 0.347838 0.250000
O O10 0.423444 0.286890 0.110936
O O11 0.315466 0.315572 0.160045
O O12 0.389995 0.475325 0.142320
O O13 0.412891 0.978796 0.750000
O O14 0.500000 0.039632 0.665520
O O15 0.424316 0.910243 0.613058
O O16 0.000000 0.315354 0.972751
O O17 0.428008 0.419949 0.750000
O O18 0.500000 0.445413 0.860185
#
# Coordination Sequence:
#
# PCOD9470817 Si02
#       7
#    16  16  16  16  16  16  16
#     4  10  22  39  56  75 103 147 190 235 280 318
#     4  10  19  33  54  82 113 144 180 227 281 342
#     4  10  20  35  57  86 116 147 182 226 284 347
#     4   9  17  30  51  81 115 146 175 218 281 343
#     4  10  20  35  57  83 112 144 185 233 280 334
#     4  10  22  37  55  79 106 145 191 233 281 333
#     4   9  18  32  52  80 113 148 179 214 269 335
#
# _framework density 21.41451
#
# number of rings (size 3 to 8) (size 9 to 14) (size 15 to 20)
#    0.000    2.286    0.000    2.571    2.000    3.429 
#    0.000    1.429    0.000    0.000    0.000    4.000 
#    0.000    0.000    0.000    0.000    0.000    0.000 
#
# Total GULP energy -312623.667221 kJ/mol
# GULP energy per Si atom -5582.565486 kJ/mol
# Density = 2.136577 g / cm^3
# Si number density = 21.414510 Si / 1000 Ang^3
#
#
#
# Elastic Constant Matrix: (Units=GPa)
#
#
# Indices 1 2 3 4 5 6 
#
# 1 64.6986 5.6297 -11.5479 0.0000 0.0000 0.0000
# 2 5.6297 95.7352 -0.2147 0.0000 0.0000 0.0000
# 3 -11.5479 -0.2147 28.9530 0.0000 0.0000 0.0000
# 4 0.0000 0.0000 0.0000 18.7789 0.0000 0.0000
# 5 0.0000 0.0000 0.0000 0.0000 -8.3814 0.0000
# 6 0.0000 0.0000 0.0000 0.0000 0.0000 29.5466
#
#
#
# Elastic Compliance Matrix: (Units=1/GPa)
#
#
# Indices 1 2 3 4 5 6 
#
# 1 0.016730 -0.000969 0.006666 0.000000 0.000000 0.000000
# 2 -0.000969 0.010502 -0.000309 0.000000 0.000000 0.000000
# 3 0.006666 -0.000309 0.037195 0.000000 0.000000 0.000000
# 4 0.000000 0.000000 0.000000 0.053251 0.000000 0.000000
# 5 0.000000 0.000000 0.000000 0.000000 -0.119312 0.000000
# 6 0.000000 0.000000 0.000000 0.000000 0.000000 0.033845
#
#
# Mechanical properties :
#
#
# Convention : Reuss Voigt Hill
#
# Bulk Modulus (GPa) = 13.29720 19.68011 16.48865
# Shear Modulus (GPa) = 107.52144 21.02347 64.27246
#
# Velocity S-wave (km/s) = 7.09356 3.13667 5.48440
# Velocity P-wave (km/s) = 8.56238 4.72528 6.91530
#
# Compressibility (1/GPa) = 0.07520380
#
# Stress axis : x y z
#
# Youngs Moduli (GPa) = 59.77166 95.22217 26.88525
#
# Poissons Ratio (x) = 0.09226 -0.17921
# Poissons Ratio (y) = 0.05791 0.00830
# Poissons Ratio (z) = -0.39842 0.02938
#
# Static dielectric constant tensor:
#      x y z
#    x 1.764980 0.000000 0.000000 
#    y 0.000000 1.751120 0.000000 
#    z 0.000000 0.000000 1.821160 
# 
# From -- ./inp_files/57629.got.cif
#   From: 2010.05.17/outbox.cif.g08.bks.cpg/sg63_29_cif.got.tgz:57629.got - 2010.06.03 15:47:04.
