data_PCOD9470802
_publ_section_title
;
Structure prediction by ZEFSAII (Michael W. Deem and Ramdas Pophale) SiO2 
 PCOD9470802
Probable space group: C M C M
;
_chemical_formula_sum "Si O2"
_cell_formula_units_Z 96
_cell_length_a 22.276766
_cell_length_b 25.323705
_cell_length_c 9.223812
_cell_angle_alpha 90.000000
_cell_angle_beta 90.000000
_cell_angle_gamma 90.000000
_cell_volume 5203.431374
_symmetry_space_group_name_H-M "C M C M"
_symmetry_group_IT_number 63
_symmetry_cell_setting 'orthorhombic'
loop_
_space_group_symop_operation_xyz
x,y,z
-x,-y,1/2+z
x,-y,-z
-x,y,1/2-z
-x,-y,-z
x,y,1/2-z
-x,y,z
x,-y,1/2+z
1/2+x,1/2+y,z
1/2-x,1/2-y,1/2+z
1/2+x,1/2-y,-z
1/2-x,1/2+y,1/2-z
1/2-x,1/2-y,-z
1/2+x,1/2+y,1/2-z
1/2-x,1/2+y,z
1/2+x,1/2-y,1/2+z
loop_
_atom_site_type_symbol
_atom_site_label
_atom_site_fract_x
_atom_site_fract_y
_atom_site_fract_z
Si Si1 0.897115 0.657753 0.418625
Si Si2 0.759789 0.695989 0.417010
Si Si3 0.095984 0.053208 0.923879
Si Si4 0.500000 0.359813 0.426071
Si Si5 0.639317 0.945728 0.076765
Si Si6 0.500000 0.761450 0.926438
Si Si7 0.226392 0.092874 0.577214
O O1 0.911017 0.644738 0.250000
O O2 0.830015 0.680866 0.422813
O O3 0.896039 0.604613 0.513054
O O4 0.942583 0.703312 0.468397
O O5 0.741777 0.700713 0.250000
O O6 0.750000 0.750000 0.500000
O O7 0.725816 0.648231 0.494618
O O8 0.090297 0.047640 0.750000
O O9 0.166102 0.061626 0.959645
O O10 0.057633 0.104758 0.967331
O O11 0.074244 0.000000 0.000000
O O12 0.500000 0.357067 0.250000
O O13 0.500000 0.299223 0.478894
O O14 0.632959 0.948972 0.250000
O O15 0.710349 0.935410 0.043034
O O16 0.621215 0.000000 0.000000
O O17 0.500000 0.758663 0.750000
O O18 0.226026 0.102409 0.750000
#
# Coordination Sequence:
#
# PCOD9470802 Si02
#       7
#    16  16  16   8  16   8  16
#     4   9  19  35  56  80 104 137 177 221 266 312
#     4  10  20  32  51  78 108 140 174 217 264 317
#     4  10  20  34  54  78 107 141 180 223 267 316
#     4   9  19  33  54  79 101 138 183 225 268 313
#     4  10  19  33  54  80 111 142 174 214 262 319
#     4   9  18  35  59  81 102 134 182 227 264 313
#     4   9  19  33  51  77 107 141 176 216 265 316
#
# _framework density 18.449363999999999
#
# number of rings (size 3 to 8) (size 9 to 14) (size 15 to 20)
#    0.000    2.500    0.000    1.750    2.333    2.000 
#    0.000    0.833    0.000    1.000    0.000    0.000 
#    0.000    0.000    0.000    0.000    0.000    0.000 
#
# Total GULP energy -267740.105995 kJ/mol
# GULP energy per Si atom -5577.918875 kJ/mol
# Density = 1.840737 g / cm^3
# Si number density = 18.449364 Si / 1000 Ang^3
#
#
#
# Elastic Constant Matrix: (Units=GPa)
#
#
# Indices 1 2 3 4 5 6 
#
# 1 59.9082 47.6045 15.5403 0.0000 0.0000 0.0000
# 2 47.6045 189.0742 59.6886 0.0000 0.0000 0.0000
# 3 15.5403 59.6886 24.8252 0.0000 0.0000 0.0000
# 4 0.0000 0.0000 0.0000 37.1514 0.0000 0.0000
# 5 0.0000 0.0000 0.0000 0.0000 9.9990 0.0000
# 6 0.0000 0.0000 0.0000 0.0000 0.0000 18.4856
#
#
#
# Elastic Compliance Matrix: (Units=1/GPa)
#
#
# Indices 1 2 3 4 5 6 
#
# 1 0.020886 -0.004694 -0.001788 0.000000 0.000000 0.000000
# 2 -0.004694 0.023003 -0.052370 0.000000 0.000000 0.000000
# 3 -0.001788 -0.052370 0.167317 0.000000 0.000000 0.000000
# 4 0.000000 0.000000 0.000000 0.026917 0.000000 0.000000
# 5 0.000000 0.000000 0.000000 0.000000 0.100010 0.000000
# 6 0.000000 0.000000 0.000000 0.000000 0.000000 0.054096
#
#
# Mechanical properties :
#
#
# Convention : Reuss Voigt Hill
#
# Bulk Modulus (GPa) = 10.69488 57.71937 34.20712
# Shear Modulus (GPa) = 9.24041 23.19214 16.21628
#
# Velocity S-wave (km/s) = 2.24040 3.54936 2.96794
# Velocity P-wave (km/s) = 3.53582 6.93906 5.50693
#
# Compressibility (1/GPa) = 0.09350270
#
# Stress axis : x y z
#
# Youngs Moduli (GPa) = 47.87866 43.47169 5.97667
#
# Poissons Ratio (x) = 0.20407 0.01068
# Poissons Ratio (y) = 0.22476 0.31300
# Poissons Ratio (z) = 0.08559 2.27661
#
# Static dielectric constant tensor:
#      x y z
#    x 1.653490 0.000000 0.000000 
#    y 0.000000 1.608780 0.000000 
#    z 0.000000 0.000000 1.621220 
# 
# From -- ./inp_files/10552.got.cif
#   From: 2010.05.17/outbox.cif.g08.bks.cpg/sg63_6_cif.got.tgz:10552.got - 2010.06.03 15:47:04.
