data_PCOD9470984
_publ_section_title
;
Structure prediction by ZEFSAII (Michael W. Deem and Ramdas Pophale) SiO2 
 PCOD9470984
Probable space group: C M C M
;
_chemical_formula_sum "Si O2"
_cell_formula_units_Z 96
_cell_length_a 14.099820
_cell_length_b 25.927624
_cell_length_c 14.098316
_cell_angle_alpha 90.000000
_cell_angle_beta 90.000000
_cell_angle_gamma 90.000000
_cell_volume 5153.989495
_symmetry_space_group_name_H-M "C M C M"
_symmetry_group_IT_number 63
_symmetry_cell_setting 'orthorhombic'
loop_
_space_group_symop_operation_xyz
x,y,z
-x,-y,1/2+z
x,-y,-z
-x,y,1/2-z
-x,-y,-z
x,y,1/2-z
-x,y,z
x,-y,1/2+z
1/2+x,1/2+y,z
1/2-x,1/2-y,1/2+z
1/2+x,1/2-y,-z
1/2-x,1/2+y,1/2-z
1/2-x,1/2-y,-z
1/2+x,1/2+y,1/2-z
1/2-x,1/2+y,z
1/2+x,1/2-y,1/2+z
loop_
_atom_site_type_symbol
_atom_site_label
_atom_site_fract_x
_atom_site_fract_y
_atom_site_fract_z
Si Si1 0.108818 0.668380 0.865219
Si Si2 0.215306 0.434991 0.363897
Si Si3 0.722662 0.616551 0.363874
Si Si4 0.111140 0.216376 0.134626
Si Si5 0.602934 0.560620 0.987969
Si Si6 0.108952 0.458688 0.634492
O O1 0.111676 0.669042 0.750000
O O2 0.164491 0.617734 0.894406
O O3 0.138446 0.725700 0.896621
O O4 0.000000 0.662071 0.893836
O O5 0.219229 0.436499 0.250000
O O6 0.318929 0.431658 0.407914
O O7 0.159155 0.487081 0.393487
O O8 0.717657 0.614148 0.250000
O O9 0.689481 0.673985 0.393843
O O10 0.643017 0.582107 0.413634
O O11 0.822660 0.589519 0.390989
O O12 0.109354 0.216125 0.250000
O O13 0.000000 0.205980 0.106237
O O14 0.500000 0.583073 0.965587
O O15 0.595058 0.500000 0.000000
O O16 0.105274 0.459480 0.750000
O O17 0.000000 0.455139 0.600602
#
# Coordination Sequence:
#
# PCOD9470984 Si02
#       6
#    16  16  16  16  16  16
#     4   8  14  27  51  80 105 131 168 213 255 298
#     4  10  19  34  53  74 104 139 169 203 254 307
#     4  10  19  34  54  75 102 134 168 208 259 307
#     4   8  14  26  48  78 104 129 167 211 253 296
#     4  11  23  36  50  73 103 133 174 218 254 301
#     4   9  17  30  50  75 101 131 166 202 246 301
#
# _framework density 18.626348
#
# number of rings (size 3 to 8) (size 9 to 14) (size 15 to 20)
#    0.000    2.667    1.667    2.000    0.000    3.333 
#    0.000    5.000    0.000    1.000    0.000    4.667 
#    0.000    0.000    0.000    0.000    0.000    0.000 
#
# Total GULP energy -267359.745096 kJ/mol
# GULP energy per Si atom -5569.994689 kJ/mol
# Density = 1.858395 g / cm^3
# Si number density = 18.626348 Si / 1000 Ang^3
#
#
#
# Elastic Constant Matrix: (Units=GPa)
#
#
# Indices 1 2 3 4 5 6 
#
# 1 161.5313 94.2211 28.0906 0.0000 0.0000 0.0000
# 2 94.2211 123.6415 29.9596 0.0000 0.0000 0.0000
# 3 28.0906 29.9596 22.0439 0.0000 0.0000 0.0000
# 4 0.0000 0.0000 0.0000 6.3884 0.0000 0.0000
# 5 0.0000 0.0000 0.0000 0.0000 -153.3320 0.0000
# 6 0.0000 0.0000 0.0000 0.0000 0.0000 27.6143
#
#
#
# Elastic Compliance Matrix: (Units=1/GPa)
#
#
# Indices 1 2 3 4 5 6 
#
# 1 0.011382 -0.007692 -0.004049 0.000000 0.000000 0.000000
# 2 -0.007692 0.017258 -0.013653 0.000000 0.000000 0.000000
# 3 -0.004049 -0.013653 0.069079 0.000000 0.000000 0.000000
# 4 0.000000 0.000000 0.000000 0.156533 0.000000 0.000000
# 5 0.000000 0.000000 0.000000 0.000000 -0.006522 0.000000
# 6 0.000000 0.000000 0.000000 0.000000 0.000000 0.036213
#
#
# Mechanical properties :
#
#
# Convention : Reuss Voigt Hill
#
# Bulk Modulus (GPa) = 21.30823 67.97326 44.64074
# Shear Modulus (GPa) = 14.27038 -13.53616 0.36711
#
# Velocity S-wave (km/s) = 2.77092 -2.69870 0.44443
# Velocity P-wave (km/s) = 4.65854 5.18282 4.92766
#
# Compressibility (1/GPa) = 0.04693023
#
# Stress axis : x y z
#
# Youngs Moduli (GPa) = 87.85871 57.94381 14.47612
#
# Poissons Ratio (x) = 0.44573 0.05862
# Poissons Ratio (y) = 0.67584 0.19764
# Poissons Ratio (z) = 0.35577 0.79109
#
# Static dielectric constant tensor:
#      x y z
#    x 1.675110 0.000000 0.000000 
#    y 0.000000 1.677450 0.000000 
#    z 0.000000 0.000000 1.640720 
# 
# From -- ./inp_files/42682.got.cif
#   From: 2010.05.17/outbox.cif.g08.bks.cpg/sg63_22_cif.got.tgz:42682.got - 2010.06.03 15:47:04.
