data_PCOD9470865
_publ_section_title
;
Structure prediction by ZEFSAII (Michael W. Deem and Ramdas Pophale) SiO2 
 PCOD9470865
Probable space group: C M C M
;
_chemical_formula_sum "Si O2"
_cell_formula_units_Z 112
_cell_length_a 28.645515
_cell_length_b 11.412892
_cell_length_c 15.243586
_cell_angle_alpha 90.000000
_cell_angle_beta 90.000000
_cell_angle_gamma 90.000000
_cell_volume 4983.557660
_symmetry_space_group_name_H-M "C M C M"
_symmetry_group_IT_number 63
_symmetry_cell_setting 'orthorhombic'
loop_
_space_group_symop_operation_xyz
x,y,z
-x,-y,1/2+z
x,-y,-z
-x,y,1/2-z
-x,-y,-z
x,y,1/2-z
-x,y,z
x,-y,1/2+z
1/2+x,1/2+y,z
1/2-x,1/2-y,1/2+z
1/2+x,1/2-y,-z
1/2-x,1/2+y,1/2-z
1/2-x,1/2-y,-z
1/2+x,1/2+y,1/2-z
1/2-x,1/2+y,z
1/2+x,1/2-y,1/2+z
loop_
_atom_site_type_symbol
_atom_site_label
_atom_site_fract_x
_atom_site_fract_y
_atom_site_fract_z
Si Si1 0.550538 0.407474 0.352238
Si Si2 0.053058 0.263637 0.125200
Si Si3 0.114949 0.482092 0.151562
Si Si4 0.127500 0.063702 0.349679
Si Si5 0.551095 0.163640 0.426747
Si Si6 0.727608 0.650221 0.357694
Si Si7 0.718499 0.914075 0.143557
O O1 0.550179 0.442502 0.250000
O O2 0.500000 0.444979 0.390574
O O3 0.597749 0.459514 0.392996
O O4 0.552223 0.268144 0.357584
O O5 0.074667 0.385293 0.156179
O O6 0.088823 0.164788 0.153538
O O7 0.000000 0.243705 0.153050
O O8 0.053136 0.273782 0.020147
O O9 0.122433 0.530714 0.250000
O O10 0.094298 0.579626 0.088212
O O11 0.163380 0.423439 0.123334
O O12 0.140468 0.026567 0.250000
O O13 0.175174 0.115016 0.386988
O O14 0.500000 0.102969 0.420426
O O15 0.729183 0.654255 0.250000
O O16 0.737403 0.785608 0.386259
O O17 0.758708 0.537919 0.385693
O O18 0.722992 0.912873 0.250000
#
# Coordination Sequence:
#
# PCOD9470865 Si02
#       7
#    16  16  16  16  16  16  16
#     4   9  18  33  53  79 111 145 184 231 279 331
#     4  11  22  35  54  81 114 151 189 226 275 338
#     4  11  21  35  56  82 109 141 186 235 284 333
#     4  10  19  33  55  83 112 143 185 233 281 330
#     4  10  22  37  52  77 113 152 190 226 274 340
#     4   9  17  32  53  81 114 143 180 236 291 340
#     4   9  18  32  53  81 111 141 180 235 292 341
#
# _framework density 22.473904999999998
#
# number of rings (size 3 to 8) (size 9 to 14) (size 15 to 20)
#    0.000    2.143    1.429    2.143    0.000    6.000 
#    0.000    6.429    0.000    0.857    3.714    0.000 
#    0.000    0.000    0.000    0.000    0.000    0.000 
#
# Total GULP energy -312299.456245 kJ/mol
# GULP energy per Si atom -5576.776004 kJ/mol
# Density = 2.242275 g / cm^3
# Si number density = 22.473905 Si / 1000 Ang^3
#
#
#
# Elastic Constant Matrix: (Units=GPa)
#
#
# Indices 1 2 3 4 5 6 
#
# 1 77.6481 38.3753 2.0471 0.0000 0.0000 0.0000
# 2 38.3753 111.9687 3.7718 0.0000 0.0000 0.0000
# 3 2.0471 3.7718 38.0843 0.0000 0.0000 0.0000
# 4 0.0000 0.0000 0.0000 16.2435 0.0000 0.0000
# 5 0.0000 0.0000 0.0000 0.0000 5.1358 0.0000
# 6 0.0000 0.0000 0.0000 0.0000 0.0000 -26.3494
#
#
#
# Elastic Compliance Matrix: (Units=1/GPa)
#
#
# Indices 1 2 3 4 5 6 
#
# 1 0.015509 -0.005305 -0.000308 0.000000 0.000000 0.000000
# 2 -0.005305 0.010776 -0.000782 0.000000 0.000000 0.000000
# 3 -0.000308 -0.000782 0.026352 0.000000 0.000000 0.000000
# 4 0.000000 0.000000 0.000000 0.061563 0.000000 0.000000
# 5 0.000000 0.000000 0.000000 0.000000 0.194710 0.000000
# 6 0.000000 0.000000 0.000000 0.000000 0.000000 -0.037952
#
#
# Mechanical properties :
#
#
# Convention : Reuss Voigt Hill
#
# Bulk Modulus (GPa) = 25.09706 35.12106 30.10906
# Shear Modulus (GPa) = 16.83334 11.23978 14.03656
#
# Velocity S-wave (km/s) = 2.73979 2.23878 2.50185
# Velocity P-wave (km/s) = 4.60435 4.72697 4.66606
#
# Compressibility (1/GPa) = 0.03984531
#
# Stress axis : x y z
#
# Youngs Moduli (GPa) = 64.48059 92.80247 37.94846
#
# Poissons Ratio (x) = 0.49231 0.01170
# Poissons Ratio (y) = 0.34206 0.02968
# Poissons Ratio (z) = 0.01987 0.07258
#
# Static dielectric constant tensor:
#      x y z
#    x 1.829160 0.000000 0.000000 
#    y 0.000000 1.859930 0.000000 
#    z 0.000000 0.000000 2.058580 
# 
# From -- ./inp_files/38570.got.cif
#   From: 2010.05.17/outbox.cif.g08.bks.cpg/sg63_20_cif.got.tgz:38570.got - 2010.06.03 15:47:04.
