data_PCOD9470424
_publ_section_title
;
Structure prediction by ZEFSAII (Michael W. Deem and Ramdas Pophale) SiO2 
 PCOD9470424
Probable space group: C M C M
;
_chemical_formula_sum "Si O2"
_cell_formula_units_Z 92
_cell_length_a 23.013350
_cell_length_b 27.961746
_cell_length_c 7.600839
_cell_angle_alpha 90.000000
_cell_angle_beta 90.000000
_cell_angle_gamma 90.000000
_cell_volume 4891.090091
_symmetry_space_group_name_H-M "C M C M"
_symmetry_group_IT_number 63
_symmetry_cell_setting 'orthorhombic'
loop_
_space_group_symop_operation_xyz
x,y,z
-x,-y,1/2+z
x,-y,-z
-x,y,1/2-z
-x,-y,-z
x,y,1/2-z
-x,y,z
x,-y,1/2+z
1/2+x,1/2+y,z
1/2-x,1/2-y,1/2+z
1/2+x,1/2-y,-z
1/2-x,1/2+y,1/2-z
1/2-x,1/2-y,-z
1/2+x,1/2+y,1/2-z
1/2-x,1/2+y,z
1/2+x,1/2-y,1/2+z
loop_
_atom_site_type_symbol
_atom_site_label
_atom_site_fract_x
_atom_site_fract_y
_atom_site_fract_z
Si Si1 0.500000 0.213447 0.750000
Si Si2 0.623009 0.409489 0.542842
Si Si3 0.676668 0.309017 0.038419
Si Si4 0.000000 0.944020 0.961454
Si Si5 0.799066 0.653161 0.544644
Si Si6 0.244775 0.946327 0.959502
Si Si7 0.398526 0.783113 0.952624
O O1 0.550682 0.213872 0.594062
O O2 0.620607 0.421154 0.750000
O O3 0.638202 0.353875 0.522558
O O4 0.560140 0.422230 0.467773
O O5 0.678988 0.437757 0.469542
O O6 0.679855 0.311400 0.250000
O O7 0.742242 0.318480 0.972688
O O8 0.645322 0.259932 0.992745
O O9 0.000000 0.936252 0.750000
O O10 0.000000 0.000000 0.000000
O O11 0.805133 0.664716 0.750000
O O12 0.783741 0.597169 0.528366
O O13 0.857952 0.669931 0.455258
O O14 0.242995 0.940448 0.750000
O O15 0.264018 0.000000 0.000000
O O16 0.417772 0.774223 0.750000
#
# Coordination Sequence:
#
# PCOD9470424 Si02
#       7
#     4  16  16   8  16  16  16
#     4  12  26  42  60  86 120 164 198 232 296 348
#     4   9  19  32  48  71 105 146 196 242 294 349
#     4   9  20  35  56  84 116 151 193 248 297 347
#     4  10  20  33  46  66  93 140 198 245 287 341
#     4  10  19  36  60  88 119 154 195 241 304 357
#     4  10  19  32  51  80 114 148 186 244 304 354
#     4  11  23  41  61  89 122 156 203 243 289 355
#
# _framework density 18.809712999999999
#
# number of rings (size 3 to 8) (size 9 to 14) (size 15 to 20)
#    0.000    2.087    0.870    2.348    1.217    2.783 
#    1.565    0.870    0.000    0.000    0.000    0.609 
#    0.000    0.000    0.000    0.000    0.000    0.000 
#
# Total GULP energy -256204.126854 kJ/mol
# GULP energy per Si atom -5569.654932 kJ/mol
# Density = 1.876690 g / cm^3
# Si number density = 18.809713 Si / 1000 Ang^3
#
#
#
# Elastic Constant Matrix: (Units=GPa)
#
#
# Indices 1 2 3 4 5 6 
#
# 1 94.7581 47.3156 34.4008 0.0000 0.0000 0.0000
# 2 47.3156 74.4674 6.9918 0.0000 0.0000 0.0000
# 3 34.4008 6.9918 87.2086 0.0000 0.0000 0.0000
# 4 0.0000 0.0000 0.0000 20.3426 0.0000 0.0000
# 5 0.0000 0.0000 0.0000 0.0000 22.4590 0.0000
# 6 0.0000 0.0000 0.0000 0.0000 0.0000 6.5208
#
#
#
# Elastic Compliance Matrix: (Units=1/GPa)
#
#
# Indices 1 2 3 4 5 6 
#
# 1 0.018408 -0.011098 -0.006371 0.000000 0.000000 0.000000
# 2 -0.011098 0.020221 0.002756 0.000000 0.000000 0.000000
# 3 -0.006371 0.002756 0.013759 0.000000 0.000000 0.000000
# 4 0.000000 0.000000 0.000000 0.049158 0.000000 0.000000
# 5 0.000000 0.000000 0.000000 0.000000 0.044526 0.000000
# 6 0.000000 0.000000 0.000000 0.000000 0.000000 0.153355
#
#
# Mechanical properties :
#
#
# Convention : Reuss Voigt Hill
#
# Bulk Modulus (GPa) = 43.54920 48.20562 45.87741
# Shear Modulus (GPa) = 14.85854 21.04621 17.95238
#
# Velocity S-wave (km/s) = 2.81364 3.34863 3.09272
# Velocity P-wave (km/s) = 5.81018 6.37454 6.09889
#
# Compressibility (1/GPa) = 0.02296253
#
# Stress axis : x y z
#
# Youngs Moduli (GPa) = 54.32495 49.45287 72.67923
#
# Poissons Ratio (x) = 0.54882 0.46307
# Poissons Ratio (y) = 0.60289 -0.20034
# Poissons Ratio (z) = 0.34613 -0.13632
#
# Static dielectric constant tensor:
#      x y z
#    x 1.654620 0.000000 0.000000 
#    y 0.000000 1.644770 0.000000 
#    z 0.000000 0.000000 1.686990 
# 
# From -- ./inp_files/8677.got.cif
#   From: 2010.05.17/outbox.cif.g08.bks.cpg/sg63_5_cif.got.tgz:8677.got - 2010.06.03 15:47:04.
