data_PCOD9470947
_publ_section_title
;
Structure prediction by ZEFSAII (Michael W. Deem and Ramdas Pophale) SiO2 
 PCOD9470947
Probable space group: C M C M
;
_chemical_formula_sum "Si O2"
_cell_formula_units_Z 88
_cell_length_a 17.545464
_cell_length_b 11.880331
_cell_length_c 20.586652
_cell_angle_alpha 90.000000
_cell_angle_beta 90.000000
_cell_angle_gamma 90.000000
_cell_volume 4291.203613
_symmetry_space_group_name_H-M "C M C M"
_symmetry_group_IT_number 63
_symmetry_cell_setting 'orthorhombic'
loop_
_space_group_symop_operation_xyz
x,y,z
-x,-y,1/2+z
x,-y,-z
-x,y,1/2-z
-x,-y,-z
x,y,1/2-z
-x,y,z
x,-y,1/2+z
1/2+x,1/2+y,z
1/2-x,1/2-y,1/2+z
1/2+x,1/2-y,-z
1/2-x,1/2+y,1/2-z
1/2-x,1/2-y,-z
1/2+x,1/2+y,1/2-z
1/2-x,1/2+y,z
1/2+x,1/2-y,1/2+z
loop_
_atom_site_type_symbol
_atom_site_label
_atom_site_fract_x
_atom_site_fract_y
_atom_site_fract_z
Si Si1 0.307355 0.735927 0.893982
Si Si2 0.875469 0.765629 0.894637
Si Si3 0.890646 0.016554 0.750000
Si Si4 0.386074 0.251170 0.750000
Si Si5 0.416599 0.870806 0.980258
Si Si6 0.415070 0.468590 0.103923
Si Si7 0.208899 0.204377 0.750000
O O1 0.215683 0.739943 0.899500
O O2 0.349378 0.619738 0.917008
O O3 0.323295 0.751351 0.817125
O O4 0.348251 0.832371 0.934450
O O5 0.908246 0.721714 0.824599
O O6 0.912688 0.702857 0.954642
O O7 0.889954 0.900476 0.901209
O O8 0.922459 0.054034 0.818741
O O9 0.806343 0.070029 0.750000
O O10 0.896741 0.884366 0.750000
O O11 0.297319 0.225578 0.750000
O O12 0.500000 0.852883 0.948937
O O13 0.409404 0.000000 0.000000
O O14 0.500000 0.451986 0.074988
#
# Coordination Sequence:
#
# PCOD9470947 Si02
#       7
#    16  16   8   8  16  16   8
#     4  10  21  38  62  89 119 154 197 245 302 361
#     4  10  21  38  62  89 119 154 197 245 302 361
#     4   8  15  28  50  82 120 150 175 228 305 360
#     4   8  16  33  55  87 116 147 189 242 296 356
#     4  11  25  43  59  79 119 165 205 247 297 351
#     4  10  19  33  58  89 119 147 190 246 298 351
#     4   8  16  33  55  87 116 147 189 242 296 356
#
# _framework density 20.507066999999999
#
# number of rings (size 3 to 8) (size 9 to 14) (size 15 to 20)
#    0.000    2.364    0.000    1.909    2.545    0.727 
#    3.273    4.545    0.000    2.182    0.000    0.000 
#    0.000    0.000    0.000    0.000    0.000    0.000 
#
# Total GULP energy -244966.284286 kJ/mol
# GULP energy per Si atom -5567.415552 kJ/mol
# Density = 2.046039 g / cm^3
# Si number density = 20.507067 Si / 1000 Ang^3
#
#
#
# Elastic Constant Matrix: (Units=GPa)
#
#
# Indices 1 2 3 4 5 6 
#
# 1 121.9280 37.1892 14.8810 0.0000 0.0000 0.0000
# 2 37.1892 60.5105 8.0637 0.0000 0.0000 0.0000
# 3 14.8810 8.0637 58.0446 0.0000 0.0000 0.0000
# 4 0.0000 0.0000 0.0000 18.4686 0.0000 0.0000
# 5 0.0000 0.0000 0.0000 0.0000 -8.3618 0.0000
# 6 0.0000 0.0000 0.0000 0.0000 0.0000 -31.3160
#
#
#
# Elastic Compliance Matrix: (Units=1/GPa)
#
#
# Indices 1 2 3 4 5 6 
#
# 1 0.010273 -0.006075 -0.001790 0.000000 0.000000 0.000000
# 2 -0.006075 0.020430 -0.001281 0.000000 0.000000 0.000000
# 3 -0.001790 -0.001281 0.017865 0.000000 0.000000 0.000000
# 4 0.000000 0.000000 0.000000 0.054146 0.000000 0.000000
# 5 0.000000 0.000000 0.000000 0.000000 -0.119591 0.000000
# 6 0.000000 0.000000 0.000000 0.000000 0.000000 -0.031933
#
#
# Mechanical properties :
#
#
# Convention : Reuss Voigt Hill
#
# Bulk Modulus (GPa) = 33.02835 40.08346 36.55591
# Shear Modulus (GPa) = -244.78984 7.78144 -118.50420
#
# Velocity S-wave (km/s) = -10.93744 1.95007 -7.61002
# Velocity P-wave (km/s) = 11.97342 4.96578 7.70402
#
# Compressibility (1/GPa) = 0.03027702
#
# Stress axis : x y z
#
# Youngs Moduli (GPa) = 97.34270 48.94648 55.97574
#
# Poissons Ratio (x) = 0.29736 0.10018
# Poissons Ratio (y) = 0.59137 0.07169
# Poissons Ratio (z) = 0.17422 0.06269
#
# Static dielectric constant tensor:
#      x y z
#    x 1.751610 0.000000 0.000000 
#    y 0.000000 1.712000 0.000000 
#    z 0.000000 0.000000 1.782530 
# 
# From -- ./inp_files/55460.got.cif
#   From: 2010.05.17/outbox.cif.g08.bks.cpg/sg63_28_cif.got.tgz:55460.got - 2010.06.03 15:47:04.
