data_PCOD9470621
_publ_section_title
;
Structure prediction by ZEFSAII (Michael W. Deem and Ramdas Pophale) SiO2 
 PCOD9470621
Probable space group: C M C M
;
_chemical_formula_sum "Si O2"
_cell_formula_units_Z 96
_cell_length_a 28.748506
_cell_length_b 8.625170
_cell_length_c 20.967395
_cell_angle_alpha 90.000000
_cell_angle_beta 90.000000
_cell_angle_gamma 90.000000
_cell_volume 5199.091021
_symmetry_space_group_name_H-M "C M C M"
_symmetry_group_IT_number 63
_symmetry_cell_setting 'orthorhombic'
loop_
_space_group_symop_operation_xyz
x,y,z
-x,-y,1/2+z
x,-y,-z
-x,y,1/2-z
-x,-y,-z
x,y,1/2-z
-x,y,z
x,-y,1/2+z
1/2+x,1/2+y,z
1/2-x,1/2-y,1/2+z
1/2+x,1/2-y,-z
1/2-x,1/2+y,1/2-z
1/2-x,1/2-y,-z
1/2+x,1/2+y,1/2-z
1/2-x,1/2+y,z
1/2+x,1/2-y,1/2+z
loop_
_atom_site_type_symbol
_atom_site_label
_atom_site_fract_x
_atom_site_fract_y
_atom_site_fract_z
Si Si1 0.815932 0.156921 0.091320
Si Si2 0.446201 0.376744 0.058032
Si Si3 0.889771 0.026039 0.677640
Si Si4 0.237849 0.551094 0.859436
Si Si5 0.640509 0.178316 0.024806
Si Si6 0.316721 0.226917 0.338692
O O1 0.795735 0.323063 0.110462
O O2 0.851899 0.086127 0.142985
O O3 0.770725 0.045525 0.091488
O O4 0.842011 0.194179 0.026136
O O5 0.500000 0.329740 0.061062
O O6 0.430189 0.453278 0.125252
O O7 0.411036 0.234779 0.044504
O O8 0.441323 0.500000 0.000000
O O9 0.901697 0.976908 0.750000
O O10 0.864112 0.193623 0.682864
O O11 0.276726 0.649605 0.823283
O O12 0.205781 0.435151 0.819856
O O13 0.673852 0.199727 0.085819
O O14 0.641331 0.000000 0.000000
#
# Coordination Sequence:
#
# PCOD9470621 Si02
#       6
#    16  16  16  16  16  16
#     4  10  19  33  49  80 114 151 194 231 271 323
#     4  10  21  39  63  89 113 139 177 232 294 353
#     4  10  21  38  59  81 111 148 189 235 283 338
#     4   9  18  31  49  75 114 154 194 232 272 312
#     4  11  20  32  55  82 117 150 186 231 287 345
#     4   9  19  31  48  77 111 148 193 231 275 318
#
# _framework density 18.464766000000001
#
# number of rings (size 3 to 8) (size 9 to 14) (size 15 to 20)
#    0.000    2.167    3.333    0.000    0.000    4.667 
#    0.000   14.167    0.000    0.000    0.000    0.000 
#    0.000    0.000    0.000    0.000    0.000    0.000 
#
# Total GULP energy -267202.653135 kJ/mol
# GULP energy per Si atom -5566.721940 kJ/mol
# Density = 1.842274 g / cm^3
# Si number density = 18.464766 Si / 1000 Ang^3
#
#
#
# Elastic Constant Matrix: (Units=GPa)
#
#
# Indices 1 2 3 4 5 6 
#
# 1 95.7936 31.1312 44.6163 0.0000 0.0000 0.0000
# 2 31.1312 98.3207 32.5650 0.0000 0.0000 0.0000
# 3 44.6163 32.5650 144.2077 0.0000 0.0000 0.0000
# 4 0.0000 0.0000 0.0000 -4.0253 0.0000 0.0000
# 5 0.0000 0.0000 0.0000 0.0000 38.3062 0.0000
# 6 0.0000 0.0000 0.0000 0.0000 0.0000 24.9953
#
#
#
# Elastic Compliance Matrix: (Units=1/GPa)
#
#
# Indices 1 2 3 4 5 6 
#
# 1 0.012967 -0.003002 -0.003334 0.000000 0.000000 0.000000
# 2 -0.003002 0.011688 -0.001711 0.000000 0.000000 0.000000
# 3 -0.003334 -0.001711 0.008352 0.000000 0.000000 0.000000
# 4 0.000000 0.000000 0.000000 -0.248430 0.000000 0.000000
# 5 0.000000 0.000000 0.000000 0.000000 0.026105 0.000000
# 6 0.000000 0.000000 0.000000 0.000000 0.000000 0.040007
#
#
# Mechanical properties :
#
#
# Convention : Reuss Voigt Hill
#
# Bulk Modulus (GPa) = 59.12017 61.66079 60.39048
# Shear Modulus (GPa) = -39.19150 27.18921 -6.00114
#
# Velocity S-wave (km/s) = -4.61206 3.84147 -1.80475
# Velocity P-wave (km/s) = 1.93025 7.28986 5.33235
#
# Compressibility (1/GPa) = 0.01691470
#
# Stress axis : x y z
#
# Youngs Moduli (GPa) = 77.11602 85.55946 119.72736
#
# Poissons Ratio (x) = 0.25681 0.39919
# Poissons Ratio (y) = 0.23147 0.20482
# Poissons Ratio (z) = 0.25712 0.14636
#
# Static dielectric constant tensor:
#      x y z
#    x 1.635100 0.000000 0.000000 
#    y 0.000000 1.660400 0.000000 
#    z 0.000000 0.000000 1.528220 
# 
# From -- ./inp_files/65332.got.cif
#   From: 2010.05.17/outbox.cif.g08.bks.cpg/sg63_33_cif.got.tgz:65332.got - 2010.06.03 15:47:04.
