data_PCOD9470415
_publ_section_title
;
Structure prediction by ZEFSAII (Michael W. Deem and Ramdas Pophale) SiO2 
 PCOD9470415
Probable space group: C M C M
;
_chemical_formula_sum "Si O2"
_cell_formula_units_Z 104
_cell_length_a 26.217687
_cell_length_b 21.835854
_cell_length_c 8.648393
_cell_angle_alpha 90.000000
_cell_angle_beta 90.000000
_cell_angle_gamma 90.000000
_cell_volume 4951.080331
_symmetry_space_group_name_H-M "C M C M"
_symmetry_group_IT_number 63
_symmetry_cell_setting 'orthorhombic'
loop_
_space_group_symop_operation_xyz
x,y,z
-x,-y,1/2+z
x,-y,-z
-x,y,1/2-z
-x,-y,-z
x,y,1/2-z
-x,y,z
x,-y,1/2+z
1/2+x,1/2+y,z
1/2-x,1/2-y,1/2+z
1/2+x,1/2-y,-z
1/2-x,1/2+y,1/2-z
1/2-x,1/2-y,-z
1/2+x,1/2+y,1/2-z
1/2-x,1/2+y,z
1/2+x,1/2-y,1/2+z
loop_
_atom_site_type_symbol
_atom_site_label
_atom_site_fract_x
_atom_site_fract_y
_atom_site_fract_z
Si Si1 0.785342 0.653029 0.434033
Si Si2 0.440836 0.822344 0.069914
Si Si3 0.643668 0.260330 0.068549
Si Si4 0.872517 0.566734 0.930858
Si Si5 0.000000 0.930790 0.065324
Si Si6 0.294169 0.437095 0.067097
Si Si7 0.606452 0.386414 0.932491
O O1 0.777584 0.654584 0.250000
O O2 0.807523 0.719507 0.482577
O O3 0.829859 0.605064 0.478042
O O4 0.736339 0.623492 0.514321
O O5 0.430807 0.804000 0.250000
O O6 0.500000 0.813387 0.037735
O O7 0.423706 0.892865 0.058233
O O8 0.404615 0.784198 0.957951
O O9 0.649454 0.275697 0.250000
O O10 0.629168 0.319834 0.972351
O O11 0.857574 0.563805 0.750000
O O12 0.878249 0.500000 0.000000
O O13 0.000000 0.932745 0.250000
O O14 0.948823 0.897295 0.006771
O O15 0.000000 0.000000 0.000000
O O16 0.294133 0.440620 0.250000
O O17 0.270606 0.500000 0.000000
O O18 0.351304 0.431423 0.002946
O O19 0.602597 0.395211 0.750000
#
# Coordination Sequence:
#
# PCOD9470415 Si02
#       7
#    16  16  16  16   8  16  16
#     4  10  21  39  62  89 123 164 210 258 312 373
#     4   9  19  35  54  77 110 153 201 255 313 375
#     4  10  22  40  62  91 125 163 209 261 315 374
#     4  10  19  32  51  77 111 153 201 254 312 374
#     4  12  26  48  74 102 136 172 215 264 319 378
#     4  12  25  43  67  96 130 167 211 261 316 377
#     4  12  26  45  69  98 131 170 213 259 316 378
#
# _framework density 21.005517000000001
#
# number of rings (size 3 to 8) (size 9 to 14) (size 15 to 20)
#    0.000    1.385    0.000    5.769    1.077    3.692 
#    0.000    0.000    0.000    0.000    0.000    0.000 
#    0.000    0.000    0.000    0.000    0.000    0.000 
#
# Total GULP energy -290782.262936 kJ/mol
# GULP energy per Si atom -5591.966595 kJ/mol
# Density = 2.095771 g / cm^3
# Si number density = 21.005517 Si / 1000 Ang^3
#
#
#
# Elastic Constant Matrix: (Units=GPa)
#
#
# Indices 1 2 3 4 5 6 
#
# 1 116.3198 32.9099 48.2734 0.0000 0.0000 0.0000
# 2 32.9099 106.8043 38.2579 0.0000 0.0000 0.0000
# 3 48.2734 38.2579 131.7933 0.0000 0.0000 0.0000
# 4 0.0000 0.0000 0.0000 34.6235 0.0000 0.0000
# 5 0.0000 0.0000 0.0000 0.0000 32.5817 0.0000
# 6 0.0000 0.0000 0.0000 0.0000 0.0000 23.7514
#
#
#
# Elastic Compliance Matrix: (Units=1/GPa)
#
#
# Indices 1 2 3 4 5 6 
#
# 1 0.010537 -0.002081 -0.003255 0.000000 0.000000 0.000000
# 2 -0.002081 0.010860 -0.002391 0.000000 0.000000 0.000000
# 3 -0.003255 -0.002391 0.009474 0.000000 0.000000 0.000000
# 4 0.000000 0.000000 0.000000 0.028882 0.000000 0.000000
# 5 0.000000 0.000000 0.000000 0.000000 0.030692 0.000000
# 6 0.000000 0.000000 0.000000 0.000000 0.000000 0.042103
#
#
# Mechanical properties :
#
#
# Convention : Reuss Voigt Hill
#
# Bulk Modulus (GPa) = 64.85971 65.97777 65.41874
# Shear Modulus (GPa) = 32.64982 33.88974 33.26978
#
# Velocity S-wave (km/s) = 3.94680 4.02104 3.98409
# Velocity P-wave (km/s) = 7.19125 7.28260 7.23707
#
# Compressibility (1/GPa) = 0.01541789
#
# Stress axis : x y z
#
# Youngs Moduli (GPa) = 94.90678 92.07840 105.55232
#
# Poissons Ratio (x) = 0.19158 0.34362
# Poissons Ratio (y) = 0.19746 0.25233
# Poissons Ratio (z) = 0.30896 0.22012
#
# Static dielectric constant tensor:
#      x y z
#    x 1.752540 0.000000 0.000000 
#    y 0.000000 1.740640 0.000000 
#    z 0.000000 0.000000 1.711530 
# 
# From -- ./inp_files/12611.got.cif
#   From: 2010.05.17/outbox.cif.g08.bks.cpg/sg63_7_cif.got.tgz:12611.got - 2010.06.03 15:47:04.
