data_PCOD9470898
_publ_section_title
;
Structure prediction by ZEFSAII (Michael W. Deem and Ramdas Pophale) SiO2 
 PCOD9470898
Probable space group: C M C M
;
_chemical_formula_sum "Si O2"
_cell_formula_units_Z 96
_cell_length_a 8.083880
_cell_length_b 29.888970
_cell_length_c 21.170313
_cell_angle_alpha 90.000000
_cell_angle_beta 90.000000
_cell_angle_gamma 90.000000
_cell_volume 5115.146614
_symmetry_space_group_name_H-M "C M C M"
_symmetry_group_IT_number 63
_symmetry_cell_setting 'orthorhombic'
loop_
_space_group_symop_operation_xyz
x,y,z
-x,-y,1/2+z
x,-y,-z
-x,y,1/2-z
-x,-y,-z
x,y,1/2-z
-x,y,z
x,-y,1/2+z
1/2+x,1/2+y,z
1/2-x,1/2-y,1/2+z
1/2+x,1/2-y,-z
1/2-x,1/2+y,1/2-z
1/2-x,1/2-y,-z
1/2+x,1/2+y,1/2-z
1/2-x,1/2+y,z
1/2+x,1/2-y,1/2+z
loop_
_atom_site_type_symbol
_atom_site_label
_atom_site_fract_x
_atom_site_fract_y
_atom_site_fract_z
Si Si1 0.200123 0.222045 0.061789
Si Si2 0.697131 0.971697 0.939689
Si Si3 0.699400 0.374560 0.520113
Si Si4 0.199126 0.719929 0.820498
Si Si5 0.700288 0.624656 0.874161
Si Si6 0.300508 0.529272 0.820675
O O1 0.258007 0.170998 0.053282
O O2 0.261736 0.247155 0.124494
O O3 0.000000 0.221480 0.064084
O O4 0.250000 0.250000 0.000000
O O5 0.500000 0.973618 0.942279
O O6 0.749886 0.920429 0.946923
O O7 0.752107 0.994627 0.874880
O O8 0.763791 0.000000 0.000000
O O9 0.500000 0.373208 0.518678
O O10 0.756730 0.374928 0.447116
O O11 0.261605 0.729790 0.750000
O O12 0.241407 0.669236 0.839522
O O13 0.000000 0.723866 0.819464
O O14 0.500000 0.624842 0.873885
O O15 0.756817 0.578898 0.841145
O O16 0.241359 0.518348 0.750000
O O17 0.500000 0.530679 0.819126
#
# Coordination Sequence:
#
# PCOD9470898 Si02
#       6
#    16  16  16  16  16  16
#     4  10  20  35  55  79 108 143 184 226 270 321
#     4  11  23  37  56  82 112 146 183 226 277 329
#     4  10  20  35  57  83 109 141 184 231 274 319
#     4  10  21  35  52  78 113 148 179 219 273 329
#     4  10  19  33  56  84 113 142 179 227 273 323
#     4  10  21  37  57  81 110 146 184 225 277 333
#
# _framework density 18.767790999999999
#
# number of rings (size 3 to 8) (size 9 to 14) (size 15 to 20)
#    0.000    1.833    3.333    1.000    0.000    4.000 
#    0.000    0.833    0.000    3.000    0.000    0.000 
#    0.000    0.000    0.000    0.000    0.000    0.000 
#
# Total GULP energy -268055.237186 kJ/mol
# GULP energy per Si atom -5584.484108 kJ/mol
# Density = 1.872508 g / cm^3
# Si number density = 18.767791 Si / 1000 Ang^3
#
#
#
# Elastic Constant Matrix: (Units=GPa)
#
#
# Indices 1 2 3 4 5 6 
#
# 1 8.0705 10.5790 13.2621 0.0000 0.0000 0.0000
# 2 10.5790 175.0571 112.9042 0.0000 0.0000 0.0000
# 3 13.2621 112.9042 196.9499 0.0000 0.0000 0.0000
# 4 0.0000 0.0000 0.0000 17.4394 0.0000 0.0000
# 5 0.0000 0.0000 0.0000 0.0000 20.0346 0.0000
# 6 0.0000 0.0000 0.0000 0.0000 0.0000 23.5599
#
#
#
# Elastic Compliance Matrix: (Units=1/GPa)
#
#
# Indices 1 2 3 4 5 6 
#
# 1 0.140901 -0.003801 -0.007309 0.000000 0.000000 0.000000
# 2 -0.003801 0.009166 -0.004999 0.000000 0.000000 0.000000
# 3 -0.007309 -0.004999 0.008435 0.000000 0.000000 0.000000
# 4 0.000000 0.000000 0.000000 0.057341 0.000000 0.000000
# 5 0.000000 0.000000 0.000000 0.000000 0.049914 0.000000
# 6 0.000000 0.000000 0.000000 0.000000 0.000000 0.042445
#
#
# Mechanical properties :
#
#
# Convention : Reuss Voigt Hill
#
# Bulk Modulus (GPa) = 7.91859 72.61866 40.26862
# Shear Modulus (GPa) = 13.07142 28.42893 20.75018
#
# Velocity S-wave (km/s) = 2.64196 3.89623 3.32870
# Velocity P-wave (km/s) = 3.67899 7.68232 6.02300
#
# Compressibility (1/GPa) = 0.12628512
#
# Stress axis : x y z
#
# Youngs Moduli (GPa) = 7.09719 109.09903 118.55214
#
# Poissons Ratio (x) = 0.41467 0.86650
# Poissons Ratio (y) = 0.02698 0.59259
# Poissons Ratio (z) = 0.05187 0.54534
#
# Static dielectric constant tensor:
#      x y z
#    x 1.670310 0.000000 0.000000 
#    y 0.000000 1.623070 0.000000 
#    z 0.000000 0.000000 1.651160 
# 
# From -- ./inp_files/51285.got.cif
#   From: 2010.05.17/outbox.cif.g08.bks.cpg/sg63_26_cif.got.tgz:51285.got - 2010.06.03 15:47:04.
