data_PCOD9470603
_publ_section_title
;
Structure prediction by ZEFSAII (Michael W. Deem and Ramdas Pophale) SiO2 
 PCOD9470603
Probable space group: C M C M
;
_chemical_formula_sum "Si O2"
_cell_formula_units_Z 104
_cell_length_a 17.679694
_cell_length_b 15.647709
_cell_length_c 20.849861
_cell_angle_alpha 90.000000
_cell_angle_beta 90.000000
_cell_angle_gamma 90.000000
_cell_volume 5768.045385
_symmetry_space_group_name_H-M "C M C M"
_symmetry_group_IT_number 63
_symmetry_cell_setting 'orthorhombic'
loop_
_space_group_symop_operation_xyz
x,y,z
-x,-y,1/2+z
x,-y,-z
-x,y,1/2-z
-x,-y,-z
x,y,1/2-z
-x,y,z
x,-y,1/2+z
1/2+x,1/2+y,z
1/2-x,1/2-y,1/2+z
1/2+x,1/2-y,-z
1/2-x,1/2+y,1/2-z
1/2-x,1/2-y,-z
1/2+x,1/2+y,1/2-z
1/2-x,1/2+y,z
1/2+x,1/2-y,1/2+z
loop_
_atom_site_type_symbol
_atom_site_label
_atom_site_fract_x
_atom_site_fract_y
_atom_site_fract_z
Si Si1 0.333604 0.000000 0.000000
Si Si2 0.590323 0.271324 0.933486
Si Si3 0.191662 0.350340 0.821724
Si Si4 0.187555 0.302345 0.178447
Si Si5 0.739667 0.472921 0.128411
Si Si6 0.410066 0.832512 0.944842
Si Si7 0.587708 0.527945 0.425691
O O1 0.384986 0.078580 0.022588
O O2 0.280368 0.972950 0.058956
O O3 0.500000 0.260812 0.930561
O O4 0.628604 0.214942 0.878442
O O5 0.606877 0.371189 0.923010
O O6 0.614556 0.240347 0.004310
O O7 0.158832 0.352707 0.750000
O O8 0.255019 0.277116 0.823623
O O9 0.230412 0.441392 0.837102
O O10 0.131949 0.329207 0.877159
O O11 0.153275 0.305435 0.250000
O O12 0.233226 0.389109 0.165261
O O13 0.650028 0.479119 0.116057
O O14 0.500000 0.828390 0.936820
O O15 0.593155 0.500000 0.500000
O O16 0.500000 0.515619 0.405895
#
# Coordination Sequence:
#
# PCOD9470603 Si02
#       7
#     8  16  16  16  16  16  16
#     4  10  19  32  57  88 114 148 188 240 291 350
#     4  10  21  39  62  91 121 152 197 252 304 357
#     4  10  23  39  56  83 116 154 201 245 296 361
#     4  11  23  39  60  85 120 160 201 250 296 354
#     4  11  20  36  61  85 118 155 199 247 300 349
#     4  10  21  36  58  84 115 150 188 242 295 350
#     4  10  21  36  58  91 126 154 192 248 308 359
#
# _framework density 18.030370999999999
#
# number of rings (size 3 to 8) (size 9 to 14) (size 15 to 20)
#    0.000    1.692    3.846    0.692    2.154    1.231 
#    0.000    0.000    0.000    4.615    0.000    0.000 
#    0.000    0.000    0.000    0.000    0.000    0.000 
#
# Total GULP energy -290285.170964 kJ/mol
# GULP energy per Si atom -5582.407134 kJ/mol
# Density = 1.798933 g / cm^3
# Si number density = 18.030371 Si / 1000 Ang^3
#
#
#
# Elastic Constant Matrix: (Units=GPa)
#
#
# Indices 1 2 3 4 5 6 
#
# 1 47.7459 19.2878 34.1948 0.0000 0.0000 0.0000
# 2 19.2878 80.7936 30.0540 0.0000 0.0000 0.0000
# 3 34.1948 30.0540 124.0592 0.0000 0.0000 0.0000
# 4 0.0000 0.0000 0.0000 17.0855 0.0000 0.0000
# 5 0.0000 0.0000 0.0000 0.0000 3.5379 0.0000
# 6 0.0000 0.0000 0.0000 0.0000 0.0000 21.8366
#
#
#
# Elastic Compliance Matrix: (Units=1/GPa)
#
#
# Indices 1 2 3 4 5 6 
#
# 1 0.027268 -0.004082 -0.006527 0.000000 0.000000 0.000000
# 2 -0.004082 0.014214 -0.002318 0.000000 0.000000 0.000000
# 3 -0.006527 -0.002318 0.010421 0.000000 0.000000 0.000000
# 4 0.000000 0.000000 0.000000 0.058529 0.000000 0.000000
# 5 0.000000 0.000000 0.000000 0.000000 0.282655 0.000000
# 6 0.000000 0.000000 0.000000 0.000000 0.000000 0.045795
#
#
# Mechanical properties :
#
#
# Convention : Reuss Voigt Hill
#
# Bulk Modulus (GPa) = 38.38934 46.63020 42.50977
# Shear Modulus (GPa) = 10.56148 19.76280 15.16214
#
# Velocity S-wave (km/s) = 2.42287 3.31431 2.90301
# Velocity P-wave (km/s) = 5.40044 6.36902 5.90462
#
# Compressibility (1/GPa) = 0.02604890
#
# Stress axis : x y z
#
# Youngs Moduli (GPa) = 36.67353 70.35303 95.95657
#
# Poissons Ratio (x) = 0.28715 0.62631
# Poissons Ratio (y) = 0.14969 0.22247
# Poissons Ratio (z) = 0.23937 0.16311
#
# Static dielectric constant tensor:
#      x y z
#    x 1.594620 0.000000 0.000000 
#    y 0.000000 1.614240 0.000000 
#    z 0.000000 0.000000 1.616740 
# 
# From -- ./inp_files/55624.got.cif
#   From: 2010.05.17/outbox.cif.g08.bks.cpg/sg63_28_cif.got.tgz:55624.got - 2010.06.03 15:47:04.
