data_PCOD9470236
_publ_section_title
;
Structure prediction by ZEFSAII (Michael W. Deem and Ramdas Pophale) SiO2 
 PCOD9470236
Probable space group: C M C M
;
_chemical_formula_sum "Si O2"
_cell_formula_units_Z 116
_cell_length_a 7.625491
_cell_length_b 29.033971
_cell_length_c 24.353419
_cell_angle_alpha 90.000000
_cell_angle_beta 90.000000
_cell_angle_gamma 90.000000
_cell_volume 5391.805190
_symmetry_space_group_name_H-M "C M C M"
_symmetry_group_IT_number 63
_symmetry_cell_setting 'orthorhombic'
loop_
_space_group_symop_operation_xyz
x,y,z
-x,-y,1/2+z
x,-y,-z
-x,y,1/2-z
-x,-y,-z
x,y,1/2-z
-x,y,z
x,-y,1/2+z
1/2+x,1/2+y,z
1/2-x,1/2-y,1/2+z
1/2+x,1/2-y,-z
1/2-x,1/2+y,1/2-z
1/2-x,1/2-y,-z
1/2+x,1/2+y,1/2-z
1/2-x,1/2+y,z
1/2+x,1/2-y,1/2+z
loop_
_atom_site_type_symbol
_atom_site_label
_atom_site_fract_x
_atom_site_fract_y
_atom_site_fract_z
Si Si1 0.786798 0.835386 0.103033
Si Si2 0.200448 0.578660 0.110124
Si Si3 0.787883 0.270005 0.598273
Si Si4 0.294645 0.651201 0.020085
Si Si5 0.214380 0.343946 0.811881
Si Si6 0.695582 0.074490 0.660095
Si Si7 0.197717 0.013678 0.940596
Si Si8 0.500000 0.444062 0.250000
O O1 0.730222 0.782230 0.107008
O O2 0.719236 0.871021 0.147929
O O3 0.000000 0.836417 0.105272
O O4 0.732832 0.851239 0.042094
O O5 0.201776 0.615688 0.060633
O O6 0.270302 0.607771 0.161467
O O7 0.304171 0.534020 0.092703
O O8 0.000000 0.564338 0.120776
O O9 0.727067 0.297231 0.544091
O O10 0.730569 0.302588 0.648509
O O11 0.000000 0.269714 0.596416
O O12 0.500000 0.639710 0.021737
O O13 0.272865 0.338154 0.750000
O O14 0.000000 0.344440 0.812798
O O15 0.500000 0.065082 0.680523
O O16 0.845727 0.058161 0.701550
O O17 0.716191 0.049893 0.600509
O O18 0.000000 0.030645 0.951934
O O19 0.277771 0.000000 0.000000
#
# Coordination Sequence:
#
# PCOD9470236 Si02
#       8
#    16  16  16  16  16  16  16   4
#     4  10  20  37  56  88 124 163 210 267 325 384
#     4  10  20  34  55  85 118 153 200 249 306 385
#     4   9  18  32  53  82 118 160 207 259 323 386
#     4  10  19  31  53  82 127 169 200 254 326 388
#     4   8  15  31  51  77 109 146 195 250 301 365
#     4  12  26  46  74  99 129 178 225 277 342 397
#     4  11  23  42  67  98 135 168 206 269 338 402
#     4  12  26  56  70  90 136 172 226 298 324 386
#
# _framework density 21.514130999999999
#
# number of rings (size 3 to 8) (size 9 to 14) (size 15 to 20)
#    0.000    1.931    1.379    3.517    0.000    6.069 
#    2.483    0.000    0.000    9.931    0.000    0.000 
#    0.000    0.000    0.000    0.000    0.000    0.138 
#
# Total GULP energy -323517.455582 kJ/mol
# GULP energy per Si atom -5577.887165 kJ/mol
# Density = 2.146516 g / cm^3
# Si number density = 21.514131 Si / 1000 Ang^3
#
#
#
# Elastic Constant Matrix: (Units=GPa)
#
#
# Indices 1 2 3 4 5 6 
#
# 1 98.0483 6.8307 24.2439 0.0000 0.0000 0.0000
# 2 6.8307 84.8075 9.8651 0.0000 0.0000 0.0000
# 3 24.2439 9.8651 98.6803 0.0000 0.0000 0.0000
# 4 0.0000 0.0000 0.0000 7.2118 0.0000 0.0000
# 5 0.0000 0.0000 0.0000 0.0000 17.8805 0.0000
# 6 0.0000 0.0000 0.0000 0.0000 0.0000 23.2556
#
#
#
# Elastic Compliance Matrix: (Units=1/GPa)
#
#
# Indices 1 2 3 4 5 6 
#
# 1 0.010886 -0.000572 -0.002617 0.000000 0.000000 0.000000
# 2 -0.000572 0.011960 -0.001055 0.000000 0.000000 0.000000
# 3 -0.002617 -0.001055 0.010882 0.000000 0.000000 0.000000
# 4 0.000000 0.000000 0.000000 0.138661 0.000000 0.000000
# 5 0.000000 0.000000 0.000000 0.000000 0.055927 0.000000
# 6 0.000000 0.000000 0.000000 0.000000 0.000000 0.043000
#
#
# Mechanical properties :
#
#
# Convention : Reuss Voigt Hill
#
# Bulk Modulus (GPa) = 39.62095 40.37950 40.00023
# Shear Modulus (GPa) = 17.34791 25.70935 21.52863
#
# Velocity S-wave (km/s) = 2.84271 3.46062 3.16677
# Velocity P-wave (km/s) = 5.40656 5.89724 5.65722
#
# Compressibility (1/GPa) = 0.02523917
#
# Stress axis : x y z
#
# Youngs Moduli (GPa) = 91.86033 83.61040 91.89299
#
# Poissons Ratio (x) = 0.04785 0.24051
# Poissons Ratio (y) = 0.05258 0.09695
# Poissons Ratio (z) = 0.24043 0.08821
#
# Static dielectric constant tensor:
#      x y z
#    x 1.788180 0.000000 0.000000 
#    y 0.000000 1.778070 0.000000 
#    z 0.000000 0.000000 1.760630 
# 
# From -- ./inp_files/60625.got.cif
#   From: 2010.05.17/outbox.cif.g08.bks.cpg/sg63_31_cif.got.tgz:60625.got - 2010.06.03 15:47:04.
