data_PCOD9470204
_publ_section_title
;
Structure prediction by ZEFSAII (Michael W. Deem and Ramdas Pophale) SiO2 
 PCOD9470204
Probable space group: C M C M
;
_chemical_formula_sum "Si O2"
_cell_formula_units_Z 104
_cell_length_a 21.794202
_cell_length_b 28.970333
_cell_length_c 8.348119
_cell_angle_alpha 90.000000
_cell_angle_beta 90.000000
_cell_angle_gamma 90.000000
_cell_volume 5270.879531
_symmetry_space_group_name_H-M "C M C M"
_symmetry_group_IT_number 63
_symmetry_cell_setting 'orthorhombic'
loop_
_space_group_symop_operation_xyz
x,y,z
-x,-y,1/2+z
x,-y,-z
-x,y,1/2-z
-x,-y,-z
x,y,1/2-z
-x,y,z
x,-y,1/2+z
1/2+x,1/2+y,z
1/2-x,1/2-y,1/2+z
1/2+x,1/2-y,-z
1/2-x,1/2+y,1/2-z
1/2-x,1/2-y,-z
1/2+x,1/2+y,1/2-z
1/2-x,1/2+y,z
1/2+x,1/2-y,1/2+z
loop_
_atom_site_type_symbol
_atom_site_label
_atom_site_fract_x
_atom_site_fract_y
_atom_site_fract_z
Si Si1 0.000000 0.447438 0.060441
Si Si2 0.739410 0.133037 0.442965
Si Si3 0.328418 0.551269 0.058256
Si Si4 0.839062 0.801063 0.438925
Si Si5 0.400641 0.124442 0.443680
Si Si6 0.566863 0.227248 0.445456
Si Si7 0.570644 0.619518 0.443776
O O1 0.000000 0.448531 0.250000
O O2 0.000000 0.500000 0.000000
O O3 0.059213 0.418212 0.003434
O O4 0.738483 0.132269 0.250000
O O5 0.779768 0.089460 0.500654
O O6 0.775733 0.179596 0.489550
O O7 0.669913 0.126718 0.498720
O O8 0.324210 0.550993 0.250000
O O9 0.395170 0.571696 0.015619
O O10 0.317581 0.500000 0.000000
O O11 0.829689 0.795895 0.250000
O O12 0.873405 0.755277 0.502125
O O13 0.889705 0.840498 0.474857
O O14 0.401271 0.122490 0.250000
O O15 0.429195 0.173728 0.490705
O O16 0.567968 0.229479 0.250000
O O17 0.500000 0.246243 0.496981
O O18 0.574825 0.625593 0.250000
O O19 0.500000 0.620477 0.490773
#
# Coordination Sequence:
#
# PCOD9470204 Si02
#       7
#     8  16  16  16  16  16  16
#     4  12  26  44  66  94 124 152 190 240 293 354
#     4   9  20  37  56  79 110 148 189 231 280 341
#     4   9  18  32  48  70  99 131 173 223 274 328
#     4  10  19  31  51  81 114 150 189 229 276 333
#     4  10  20  40  66  86 111 152 192 231 287 345
#     4   9  17  31  55  84 114 149 189 234 285 339
#     4   9  18  33  50  69 100 140 181 229 279 329
#
# _framework density 19.731051000000001
#
# number of rings (size 3 to 8) (size 9 to 14) (size 15 to 20)
#    0.000    2.462    0.769    2.538    0.000    5.538 
#    0.000    3.077    0.000    0.000    0.000    0.000 
#    0.000    0.000    0.000    0.000    0.000    0.000 
#
# Total GULP energy -290015.757537 kJ/mol
# GULP energy per Si atom -5577.226106 kJ/mol
# Density = 1.968614 g / cm^3
# Si number density = 19.731051 Si / 1000 Ang^3
#
#
#
# Elastic Constant Matrix: (Units=GPa)
#
#
# Indices 1 2 3 4 5 6 
#
# 1 147.9012 50.4097 17.7844 0.0000 0.0000 0.0000
# 2 50.4097 118.6643 12.1380 0.0000 0.0000 0.0000
# 3 17.7844 12.1380 10.9496 0.0000 0.0000 0.0000
# 4 0.0000 0.0000 0.0000 19.7722 0.0000 0.0000
# 5 0.0000 0.0000 0.0000 0.0000 23.7729 0.0000
# 6 0.0000 0.0000 0.0000 0.0000 0.0000 13.6217
#
#
#
# Elastic Compliance Matrix: (Units=1/GPa)
#
#
# Indices 1 2 3 4 5 6 
#
# 1 0.009086 -0.002651 -0.011819 0.000000 0.000000 0.000000
# 2 -0.002651 0.010278 -0.007088 0.000000 0.000000 0.000000
# 3 -0.011819 -0.007088 0.118382 0.000000 0.000000 0.000000
# 4 0.000000 0.000000 0.000000 0.050576 0.000000 0.000000
# 5 0.000000 0.000000 0.000000 0.000000 0.042065 0.000000
# 6 0.000000 0.000000 0.000000 0.000000 0.000000 0.073412
#
#
# Mechanical properties :
#
#
# Convention : Reuss Voigt Hill
#
# Bulk Modulus (GPa) = 10.56747 48.68657 29.62702
# Shear Modulus (GPa) = 13.21149 24.57890 18.89520
#
# Velocity S-wave (km/s) = 2.59043 3.53327 3.09793
# Velocity P-wave (km/s) = 3.78345 6.43226 5.27676
#
# Compressibility (1/GPa) = 0.09463005
#
# Stress axis : x y z
#
# Youngs Moduli (GPa) = 110.06025 97.29239 8.44724
#
# Poissons Ratio (x) = 0.25791 0.09984
# Poissons Ratio (y) = 0.29175 0.05988
# Poissons Ratio (z) = 1.30079 0.68964
#
# Static dielectric constant tensor:
#      x y z
#    x 1.718960 0.000000 0.000000 
#    y 0.000000 1.692970 0.000000 
#    z 0.000000 0.000000 1.686270 
# 
# From -- ./inp_files/8816.got.cif
#   From: 2010.05.17/outbox.cif.g08.bks.cpg/sg63_5_cif.got.tgz:8816.got - 2010.06.03 15:47:04.
