data_PCOD9470940
_publ_section_title
;
Structure prediction by ZEFSAII (Michael W. Deem and Ramdas Pophale) SiO2 
 PCOD9470940
Probable space group: C M C M
;
_chemical_formula_sum "Si O2"
_cell_formula_units_Z 100
_cell_length_a 7.792946
_cell_length_b 19.332686
_cell_length_c 29.151179
_cell_angle_alpha 90.000000
_cell_angle_beta 90.000000
_cell_angle_gamma 90.000000
_cell_volume 4391.875176
_symmetry_space_group_name_H-M "C M C M"
_symmetry_group_IT_number 63
_symmetry_cell_setting 'orthorhombic'
loop_
_space_group_symop_operation_xyz
x,y,z
-x,-y,1/2+z
x,-y,-z
-x,y,1/2-z
-x,-y,-z
x,y,1/2-z
-x,y,z
x,-y,1/2+z
1/2+x,1/2+y,z
1/2-x,1/2-y,1/2+z
1/2+x,1/2-y,-z
1/2-x,1/2+y,1/2-z
1/2-x,1/2-y,-z
1/2+x,1/2+y,1/2-z
1/2-x,1/2+y,z
1/2+x,1/2-y,1/2+z
loop_
_atom_site_type_symbol
_atom_site_label
_atom_site_fract_x
_atom_site_fract_y
_atom_site_fract_z
Si Si1 0.500000 0.480158 0.250000
Si Si2 0.701753 0.800147 0.565993
Si Si3 0.302599 0.924347 0.110378
Si Si4 0.802439 0.155863 0.974036
Si Si5 0.208851 0.831184 0.301427
Si Si6 0.294765 0.026627 0.183475
Si Si7 0.791496 0.679476 0.167861
O O1 0.653004 0.484787 0.211118
O O2 0.500000 0.788415 0.573990
O O3 0.719403 0.852907 0.523821
O O4 0.772989 0.726003 0.548953
O O5 0.772195 0.820703 0.615344
O O6 0.500000 0.917109 0.097871
O O7 0.205353 0.902073 0.064869
O O8 0.268565 0.873348 0.153856
O O9 0.275726 0.000505 0.131178
O O10 0.000000 0.169508 0.984705
O O11 0.267590 0.851576 0.250000
O O12 0.260291 0.751065 0.308857
O O13 0.000000 0.835160 0.300648
O O14 0.500000 0.016258 0.194586
O O15 0.246953 0.106666 0.190509
O O16 0.000000 0.679528 0.168253
#
# Coordination Sequence:
#
# PCOD9470940 Si02
#       7
#     4  16  16  16  16  16  16
#     4  12  26  44  68  94 114 180 210 262 304 378
#     4   9  17  33  59  88 117 157 201 242 308 369
#     4  11  23  39  58  86 122 161 198 257 307 363
#     4  10  19  33  57  87 120 154 198 251 303 367
#     4  10  21  36  61  87 116 156 199 246 310 366
#     4  10  25  44  65  91 126 162 213 258 309 369
#     4   9  18  40  63  86 120 162 199 251 304 368
#
# _framework density 22.769316
#
# number of rings (size 3 to 8) (size 9 to 14) (size 15 to 20)
#    0.000    2.080    1.600    1.200    4.480    0.960 
#    2.880    0.800    0.000    4.800    0.000    0.000 
#    0.000    0.000    0.000    0.000    0.000    0.000 
#
# Total GULP energy -278498.960382 kJ/mol
# GULP energy per Si atom -5569.979208 kJ/mol
# Density = 2.271749 g / cm^3
# Si number density = 22.769316 Si / 1000 Ang^3
#
#
#
# Elastic Constant Matrix: (Units=GPa)
#
#
# Indices 1 2 3 4 5 6 
#
# 1 58.0531 0.1944 4.4446 0.0000 0.0000 0.0000
# 2 0.1944 69.5658 0.2028 0.0000 0.0000 0.0000
# 3 4.4446 0.2028 86.5792 0.0000 0.0000 0.0000
# 4 0.0000 0.0000 0.0000 3.1798 0.0000 0.0000
# 5 0.0000 0.0000 0.0000 0.0000 8.5387 0.0000
# 6 0.0000 0.0000 0.0000 0.0000 0.0000 10.2550
#
#
#
# Elastic Compliance Matrix: (Units=1/GPa)
#
#
# Indices 1 2 3 4 5 6 
#
# 1 0.017294 -0.000046 -0.000888 0.000000 0.000000 0.000000
# 2 -0.000046 0.014375 -0.000031 0.000000 0.000000 0.000000
# 3 -0.000888 -0.000031 0.011596 0.000000 0.000000 0.000000
# 4 0.000000 0.000000 0.000000 0.314481 0.000000 0.000000
# 5 0.000000 0.000000 0.000000 0.000000 0.117114 0.000000
# 6 0.000000 0.000000 0.000000 0.000000 0.000000 0.097513
#
#
# Mechanical properties :
#
#
# Convention : Reuss Voigt Hill
#
# Bulk Modulus (GPa) = 24.19250 24.87573 24.53412
# Shear Modulus (GPa) = 8.50224 18.35180 13.42702
#
# Velocity S-wave (km/s) = 1.93447 2.84207 2.43100
# Velocity P-wave (km/s) = 3.95445 4.66033 4.32183
#
# Compressibility (1/GPa) = 0.04133512
#
# Stress axis : x y z
#
# Youngs Moduli (GPa) = 57.82445 69.56474 86.23840
#
# Poissons Ratio (x) = 0.00318 0.07655
# Poissons Ratio (y) = 0.00264 0.00270
# Poissons Ratio (z) = 0.05133 0.00218
#
# Static dielectric constant tensor:
#      x y z
#    x 1.848030 0.000000 0.000000 
#    y 0.000000 1.916030 0.000000 
#    z 0.000000 0.000000 1.894940 
# 
# From -- ./inp_files/67109.got.cif
#   From: 2010.05.17/outbox.cif.g08.bks.cpg/sg63_34_cif.got.tgz:67109.got - 2010.06.03 15:47:04.
