data_PCOD9470311
_publ_section_title
;
Structure prediction by ZEFSAII (Michael W. Deem and Ramdas Pophale) SiO2 
 PCOD9470311
Probable space group: C M C M
;
_chemical_formula_sum "Si O2"
_cell_formula_units_Z 96
_cell_length_a 18.533755
_cell_length_b 18.703709
_cell_length_c 16.708053
_cell_angle_alpha 90.000000
_cell_angle_beta 90.000000
_cell_angle_gamma 90.000000
_cell_volume 5791.845907
_symmetry_space_group_name_H-M "C M C M"
_symmetry_group_IT_number 63
_symmetry_cell_setting 'orthorhombic'
loop_
_space_group_symop_operation_xyz
x,y,z
-x,-y,1/2+z
x,-y,-z
-x,y,1/2-z
-x,-y,-z
x,y,1/2-z
-x,y,z
x,-y,1/2+z
1/2+x,1/2+y,z
1/2-x,1/2-y,1/2+z
1/2+x,1/2-y,-z
1/2-x,1/2+y,1/2-z
1/2-x,1/2-y,-z
1/2+x,1/2+y,1/2-z
1/2-x,1/2+y,z
1/2+x,1/2-y,1/2+z
loop_
_atom_site_type_symbol
_atom_site_label
_atom_site_fract_x
_atom_site_fract_y
_atom_site_fract_z
Si Si1 0.816277 0.951819 0.577247
Si Si2 0.915056 0.164029 0.507589
Si Si3 0.587144 0.170046 0.480603
Si Si4 0.666161 0.917024 0.843092
Si Si5 0.417541 0.957232 0.415371
Si Si6 0.916284 0.932053 0.341479
O O1 0.865505 0.886696 0.546306
O O2 0.747210 0.923919 0.624319
O O3 0.793655 0.000000 0.500000
O O4 0.864705 0.004204 0.631037
O O5 0.895615 0.247273 0.505700
O O6 0.906851 0.133302 0.597409
O O7 0.000000 0.156571 0.485964
O O8 0.500000 0.162914 0.472501
O O9 0.623718 0.137562 0.401321
O O10 0.608643 0.120715 0.556586
O O11 0.662798 0.897546 0.750000
O O12 0.630179 0.995185 0.857103
O O13 0.500000 0.953090 0.386158
O O14 0.418469 0.000000 0.500000
O O15 0.902952 0.911832 0.250000
O O16 0.000000 0.955299 0.349112
#
# Coordination Sequence:
#
# PCOD9470311 Si02
#       6
#    16  16  16  16  16  16
#     4  10  19  32  50  69  94 128 167 200 228 276
#     4   9  18  32  52  75  96 124 161 197 236 285
#     4   9  18  33  52  73  97 125 159 199 241 285
#     4  11  21  31  47  72  99 127 159 197 244 289
#     4   8  15  30  50  69  91 122 159 195 233 280
#     4   9  17  30  49  73  99 124 153 196 246 287
#
# _framework density 16.575026000000001
#
# number of rings (size 3 to 8) (size 9 to 14) (size 15 to 20)
#    0.000    2.667    0.000    4.000    0.000    4.667 
#    0.000    1.667    0.000    6.000    0.000    4.667 
#    0.000    0.000    0.000    0.000    0.000    0.000 
#
# Total GULP energy -267515.863677 kJ/mol
# GULP energy per Si atom -5573.247160 kJ/mol
# Density = 1.653730 g / cm^3
# Si number density = 16.575026 Si / 1000 Ang^3
#
#
#
# Elastic Constant Matrix: (Units=GPa)
#
#
# Indices 1 2 3 4 5 6 
#
# 1 43.5148 32.8258 22.5940 0.0000 0.0000 0.0000
# 2 32.8258 107.6649 15.2044 0.0000 0.0000 0.0000
# 3 22.5940 15.2044 38.3211 0.0000 0.0000 0.0000
# 4 0.0000 0.0000 0.0000 10.6542 0.0000 0.0000
# 5 0.0000 0.0000 0.0000 0.0000 -10.3586 0.0000
# 6 0.0000 0.0000 0.0000 0.0000 0.0000 9.1054
#
#
#
# Elastic Compliance Matrix: (Units=1/GPa)
#
#
# Indices 1 2 3 4 5 6 
#
# 1 0.040665 -0.009547 -0.020188 0.000000 0.000000 0.000000
# 2 -0.009547 0.012081 0.000836 0.000000 0.000000 0.000000
# 3 -0.020188 0.000836 0.037666 0.000000 0.000000 0.000000
# 4 0.000000 0.000000 0.000000 0.093859 0.000000 0.000000
# 5 0.000000 0.000000 0.000000 0.000000 -0.096538 0.000000
# 6 0.000000 0.000000 0.000000 0.000000 0.000000 0.109825
#
#
# Mechanical properties :
#
#
# Convention : Reuss Voigt Hill
#
# Bulk Modulus (GPa) = 30.66224 36.74990 33.70607
# Shear Modulus (GPa) = 18.78085 9.80530 14.29308
#
# Velocity S-wave (km/s) = 3.36978 2.43486 2.93972
# Velocity P-wave (km/s) = 5.80343 5.48860 5.64821
#
# Compressibility (1/GPa) = 0.03261340
#
# Stress axis : x y z
#
# Youngs Moduli (GPa) = 24.59131 82.77521 26.54894
#
# Poissons Ratio (x) = 0.79028 0.53596
# Poissons Ratio (y) = 0.23478 -0.02219
# Poissons Ratio (z) = 0.49644 -0.06918
#
# Static dielectric constant tensor:
#      x y z
#    x 1.564850 0.000000 0.000000 
#    y 0.000000 1.556420 0.000000 
#    z 0.000000 0.000000 1.538840 
# 
# From -- ./inp_files/45743.got.cif
#   From: 2010.05.17/outbox.cif.g08.bks.cpg/sg63_23_cif.got.tgz:45743.got - 2010.06.03 15:47:04.
