data_PCOD9470839
_publ_section_title
;
Structure prediction by ZEFSAII (Michael W. Deem and Ramdas Pophale) SiO2 
 PCOD9470839
Probable space group: C M C M
;
_chemical_formula_sum "Si O2"
_cell_formula_units_Z 96
_cell_length_a 8.246306
_cell_length_b 24.426576
_cell_length_c 26.089049
_cell_angle_alpha 90.000000
_cell_angle_beta 90.000000
_cell_angle_gamma 90.000000
_cell_volume 5255.091579
_symmetry_space_group_name_H-M "C M C M"
_symmetry_group_IT_number 63
_symmetry_cell_setting 'orthorhombic'
loop_
_space_group_symop_operation_xyz
x,y,z
-x,-y,1/2+z
x,-y,-z
-x,y,1/2-z
-x,-y,-z
x,y,1/2-z
-x,y,z
x,-y,1/2+z
1/2+x,1/2+y,z
1/2-x,1/2-y,1/2+z
1/2+x,1/2-y,-z
1/2-x,1/2+y,1/2-z
1/2-x,1/2-y,-z
1/2+x,1/2+y,1/2-z
1/2-x,1/2+y,z
1/2+x,1/2-y,1/2+z
loop_
_atom_site_type_symbol
_atom_site_label
_atom_site_fract_x
_atom_site_fract_y
_atom_site_fract_z
Si Si1 0.195496 0.369111 0.846324
Si Si2 0.804493 0.061799 0.058678
Si Si3 0.193443 0.364050 0.151200
Si Si4 0.198277 0.567425 0.750000
Si Si5 0.304489 0.249246 0.190851
Si Si6 0.195714 0.937649 0.058588
Si Si7 0.801791 0.441800 0.750000
O O1 0.246265 0.394505 0.900235
O O2 0.252922 0.307631 0.834191
O O3 0.251050 0.409130 0.800520
O O4 0.000000 0.368167 0.844590
O O5 0.000000 0.061502 0.058806
O O6 0.750601 0.999715 0.072405
O O7 0.752068 0.072920 0.000118
O O8 0.252931 0.400501 0.199346
O O9 0.254914 0.302657 0.159462
O O10 0.244741 0.393507 0.099046
O O11 0.000000 0.362999 0.153500
O O12 0.252125 0.504562 0.750000
O O13 0.000000 0.567238 0.750000
O O14 0.246595 0.253530 0.250000
O O15 0.500000 0.247251 0.192638
O O16 0.000000 0.937537 0.059081
O O17 0.000000 0.441897 0.750000
#
# Coordination Sequence:
#
# PCOD9470839 Si02
#       7
#    16  16  16   8  16  16   8
#     4  10  19  33  55  80 106 139 182 220 261 320
#     4   9  19  36  57  80 109 142 176 219 272 319
#     4  11  21  34  53  80 109 140 180 224 269 314
#     4   9  18  29  45  75 111 135 158 209 274 315
#     4  10  20  36  55  76 105 146 185 217 261 319
#     4   9  19  37  57  78 108 145 179 216 267 326
#     4   9  16  29  49  75 107 137 164 207 264 319
#
# _framework density 18.267997000000001
#
# number of rings (size 3 to 8) (size 9 to 14) (size 15 to 20)
#    0.000    2.333    1.667    2.500    0.000    3.333 
#    0.000    2.917    0.000    3.000    0.000    0.000 
#    0.000    0.000    0.000    0.000    0.000    0.000 
#
# Total GULP energy -267877.372232 kJ/mol
# GULP energy per Si atom -5580.778588 kJ/mol
# Density = 1.822642 g / cm^3
# Si number density = 18.267997 Si / 1000 Ang^3
#
#
#
# Elastic Constant Matrix: (Units=GPa)
#
#
# Indices 1 2 3 4 5 6 
#
# 1 10.0079 16.4766 12.9156 0.0000 0.0000 0.0000
# 2 16.4766 178.8100 95.8851 0.0000 0.0000 0.0000
# 3 12.9156 95.8851 123.9697 0.0000 0.0000 0.0000
# 4 0.0000 0.0000 0.0000 22.3821 0.0000 0.0000
# 5 0.0000 0.0000 0.0000 0.0000 8.9474 0.0000
# 6 0.0000 0.0000 0.0000 0.0000 0.0000 21.6902
#
#
#
# Elastic Compliance Matrix: (Units=1/GPa)
#
#
# Indices 1 2 3 4 5 6 
#
# 1 0.121062 -0.007505 -0.006808 0.000000 0.000000 0.000000
# 2 -0.007505 0.010021 -0.006969 0.000000 0.000000 0.000000
# 3 -0.006808 -0.006969 0.014166 0.000000 0.000000 0.000000
# 4 0.000000 0.000000 0.000000 0.044679 0.000000 0.000000
# 5 0.000000 0.000000 0.000000 0.000000 0.111764 0.000000
# 6 0.000000 0.000000 0.000000 0.000000 0.000000 0.046104
#
#
# Mechanical properties :
#
#
# Convention : Reuss Voigt Hill
#
# Bulk Modulus (GPa) = 9.73845 62.59359 36.16602
# Shear Modulus (GPa) = 11.77611 23.10461 17.44036
#
# Velocity S-wave (km/s) = 2.54171 3.56020 3.09317
# Velocity P-wave (km/s) = 3.73580 7.15811 5.70941
#
# Compressibility (1/GPa) = 0.10268576
#
# Stress axis : x y z
#
# Youngs Moduli (GPa) = 8.26021 99.78904 70.59124
#
# Poissons Ratio (x) = 0.74887 0.48060
# Poissons Ratio (y) = 0.06199 0.49195
# Poissons Ratio (z) = 0.05624 0.69544
#
# Static dielectric constant tensor:
#      x y z
#    x 1.644620 0.000000 0.000000 
#    y 0.000000 1.612540 0.000000 
#    z 0.000000 0.000000 1.611020 
# 
# From -- ./inp_files/60051.got.cif
#   From: 2010.05.17/outbox.cif.g08.bks.cpg/sg63_31_cif.got.tgz:60051.got - 2010.06.03 15:47:04.
