data_PCOD9470453
_publ_section_title
;
Structure prediction by ZEFSAII (Michael W. Deem and Ramdas Pophale) SiO2 
 PCOD9470453
Probable space group: C M C M
;
_chemical_formula_sum "Si O2"
_cell_formula_units_Z 72
_cell_length_a 25.518856
_cell_length_b 11.750934
_cell_length_c 13.693020
_cell_angle_alpha 90.000000
_cell_angle_beta 90.000000
_cell_angle_gamma 90.000000
_cell_volume 4106.131283
_symmetry_space_group_name_H-M "C M C M"
_symmetry_group_IT_number 63
_symmetry_cell_setting 'orthorhombic'
loop_
_space_group_symop_operation_xyz
x,y,z
-x,-y,1/2+z
x,-y,-z
-x,y,1/2-z
-x,-y,-z
x,y,1/2-z
-x,y,z
x,-y,1/2+z
1/2+x,1/2+y,z
1/2-x,1/2-y,1/2+z
1/2+x,1/2-y,-z
1/2-x,1/2+y,1/2-z
1/2-x,1/2-y,-z
1/2+x,1/2+y,1/2-z
1/2-x,1/2+y,z
1/2+x,1/2-y,1/2+z
loop_
_atom_site_type_symbol
_atom_site_label
_atom_site_fract_x
_atom_site_fract_y
_atom_site_fract_z
Si Si1 0.711739 0.906634 0.862871
Si Si2 0.856130 0.176717 0.635459
Si Si3 0.392025 0.048313 0.863411
Si Si4 0.701776 0.500000 0.500000
Si Si5 0.061515 0.673141 0.041510
O O1 0.728729 0.915970 0.750000
O O2 0.682120 0.786754 0.874648
O O3 0.667544 0.004447 0.879105
O O4 0.759668 0.922259 0.935063
O O5 0.859417 0.149394 0.750000
O O6 0.911306 0.220831 0.593699
O O7 0.832778 0.075628 0.572086
O O8 0.398430 0.078065 0.750000
O O9 0.427088 0.937937 0.891067
O O10 0.409025 0.144179 0.939821
O O11 0.000000 0.685590 0.026042
#
# Coordination Sequence:
#
# PCOD9470453 Si02
#       5
#    16  16  16   8  16
#     4   9  18  32  52  78 107 136 164 202 257 313
#     4  10  22  37  52  75 102 130 171 217 261 313
#     4   9  17  30  51  83 114 135 165 210 259 314
#     4  12  20  34  55  74 101 138 176 214 250 300
#     4  10  19  32  52  76 104 141 177 211 259 311
#
# _framework density 17.534752999999998
#
# number of rings (size 3 to 8) (size 9 to 14) (size 15 to 20)
#    0.000    2.222    0.000    7.333    0.000    3.111 
#    0.000    5.000    0.000    0.000    0.000    0.000 
#    0.000    0.000    0.000    0.000    0.000    0.000 
#
# Total GULP energy -200930.036683 kJ/mol
# GULP energy per Si atom -5581.389908 kJ/mol
# Density = 1.749484 g / cm^3
# Si number density = 17.534753 Si / 1000 Ang^3
#
#
#
# Elastic Constant Matrix: (Units=GPa)
#
#
# Indices 1 2 3 4 5 6 
#
# 1 58.7244 31.3708 53.7656 0.0000 0.0000 0.0000
# 2 31.3708 40.6265 48.1162 0.0000 0.0000 0.0000
# 3 53.7656 48.1162 147.7337 0.0000 0.0000 0.0000
# 4 0.0000 0.0000 0.0000 28.8317 0.0000 0.0000
# 5 0.0000 0.0000 0.0000 0.0000 8.9504 0.0000
# 6 0.0000 0.0000 0.0000 0.0000 0.0000 7.8462
#
#
#
# Elastic Compliance Matrix: (Units=1/GPa)
#
#
# Indices 1 2 3 4 5 6 
#
# 1 0.031786 -0.017653 -0.005819 0.000000 0.000000 0.000000
# 2 -0.017653 0.049876 -0.009820 0.000000 0.000000 0.000000
# 3 -0.005819 -0.009820 0.012085 0.000000 0.000000 0.000000
# 4 0.000000 0.000000 0.000000 0.034684 0.000000 0.000000
# 5 0.000000 0.000000 0.000000 0.000000 0.111726 0.000000
# 6 0.000000 0.000000 0.000000 0.000000 0.000000 0.127451
#
#
# Mechanical properties :
#
#
# Convention : Reuss Voigt Hill
#
# Bulk Modulus (GPa) = 36.81366 57.06551 46.93959
# Shear Modulus (GPa) = 11.28040 16.71447 13.99744
#
# Velocity S-wave (km/s) = 2.53912 3.09077 2.82843
# Velocity P-wave (km/s) = 5.44394 6.73439 6.12326
#
# Compressibility (1/GPa) = 0.02716383
#
# Stress axis : x y z
#
# Youngs Moduli (GPa) = 31.45992 20.04969 82.74892
#
# Poissons Ratio (x) = 0.35395 0.48148
# Poissons Ratio (y) = 0.55538 0.81257
# Poissons Ratio (z) = 0.18305 0.19688
#
# Static dielectric constant tensor:
#      x y z
#    x 1.585410 0.000000 0.000000 
#    y 0.000000 1.581900 0.000000 
#    z 0.000000 0.000000 1.608640 
# 
# From -- ./inp_files/36381.got.cif
#   From: 2010.05.17/outbox.cif.g08.bks.cpg/sg63_19_cif.got.tgz:36381.got - 2010.06.03 15:47:04.
