data_PCOD9470064
_publ_section_title
;
Structure prediction by ZEFSAII (Michael W. Deem and Ramdas Pophale) SiO2 
 PCOD9470064
Probable space group: C M C M
;
_chemical_formula_sum "Si O2"
_cell_formula_units_Z 96
_cell_length_a 12.927571
_cell_length_b 19.162748
_cell_length_c 18.213128
_cell_angle_alpha 90.000000
_cell_angle_beta 90.000000
_cell_angle_gamma 90.000000
_cell_volume 4511.897863
_symmetry_space_group_name_H-M "C M C M"
_symmetry_group_IT_number 63
_symmetry_cell_setting 'orthorhombic'
loop_
_space_group_symop_operation_xyz
x,y,z
-x,-y,1/2+z
x,-y,-z
-x,y,1/2-z
-x,-y,-z
x,y,1/2-z
-x,y,z
x,-y,1/2+z
1/2+x,1/2+y,z
1/2-x,1/2-y,1/2+z
1/2+x,1/2-y,-z
1/2-x,1/2+y,1/2-z
1/2-x,1/2-y,-z
1/2+x,1/2+y,1/2-z
1/2-x,1/2+y,z
1/2+x,1/2-y,1/2+z
loop_
_atom_site_type_symbol
_atom_site_label
_atom_site_fract_x
_atom_site_fract_y
_atom_site_fract_z
Si Si1 0.815313 0.193712 0.420066
Si Si2 0.114629 0.550214 0.064528
Si Si3 0.811761 0.060121 0.337175
Si Si4 0.300224 0.405921 0.335481
Si Si5 0.169991 0.659164 0.954357
Si Si6 0.385339 0.746658 0.663388
O O1 0.860597 0.126103 0.379712
O O2 0.873877 0.266969 0.427769
O O3 0.778049 0.173394 0.501661
O O4 0.711412 0.216927 0.375656
O O5 0.107615 0.620801 0.017284
O O6 0.000000 0.527095 0.086671
O O7 0.157258 0.500000 0.000000
O O8 0.194451 0.557724 0.130570
O O9 0.815855 0.071692 0.250000
O O10 0.850023 0.981166 0.353518
O O11 0.269445 0.410470 0.250000
O O12 0.200964 0.389074 0.385993
O O13 0.370848 0.337211 0.342831
O O14 0.379268 0.763448 0.750000
O O15 0.500000 0.766476 0.637038
#
# Coordination Sequence:
#
# PCOD9470064 Si02
#       6
#    16  16  16  16  16  16
#     4   9  18  28  47  70  95 127 162 194 245 295
#     4  10  19  31  49  72  97 128 164 202 248 295
#     4  10  19  31  49  76 103 130 164 207 251 292
#     4   9  17  30  49  70  96 130 167 203 242 293
#     4   9  17  32  46  67  93 129 163 196 234 292
#     4   9  17  30  48  72 100 127 158 201 253 303
#
# _framework density 21.277076999999998
#
# number of rings (size 3 to 8) (size 9 to 14) (size 15 to 20)
#    0.000    2.667    1.667    0.500    0.000    3.667 
#    0.000    0.000    0.000    1.500    0.000   43.167 
#    0.000    0.000    0.000    0.000    0.000    0.000 
#
# Total GULP energy -267296.574320 kJ/mol
# GULP energy per Si atom -5568.678632 kJ/mol
# Density = 2.122865 g / cm^3
# Si number density = 21.277077 Si / 1000 Ang^3
#
#
#
# Elastic Constant Matrix: (Units=GPa)
#
#
# Indices 1 2 3 4 5 6 
#
# 1 27.0299 -15.8721 -0.8292 0.0000 0.0000 0.0000
# 2 -15.8721 136.5325 33.1232 0.0000 0.0000 0.0000
# 3 -0.8292 33.1232 71.2718 0.0000 0.0000 0.0000
# 4 0.0000 0.0000 0.0000 40.8977 0.0000 0.0000
# 5 0.0000 0.0000 0.0000 0.0000 8.3970 0.0000
# 6 0.0000 0.0000 0.0000 0.0000 0.0000 4.3810
#
#
#
# Elastic Compliance Matrix: (Units=1/GPa)
#
#
# Indices 1 2 3 4 5 6 
#
# 1 0.039936 0.005106 -0.001908 0.000000 0.000000 0.000000
# 2 0.005106 0.008908 -0.004080 0.000000 0.000000 0.000000
# 3 -0.001908 -0.004080 0.015905 0.000000 0.000000 0.000000
# 4 0.000000 0.000000 0.000000 0.024451 0.000000 0.000000
# 5 0.000000 0.000000 0.000000 0.000000 0.119090 0.000000
# 6 0.000000 0.000000 0.000000 0.000000 0.000000 0.228259
#
#
# Mechanical properties :
#
#
# Convention : Reuss Voigt Hill
#
# Bulk Modulus (GPa) = 15.87753 29.74201 22.80977
# Shear Modulus (GPa) = 10.88593 25.29595 18.09094
#
# Velocity S-wave (km/s) = 2.26437 3.45176 2.91908
# Velocity P-wave (km/s) = 3.78351 5.46763 4.70159
#
# Compressibility (1/GPa) = 0.06298210
#
# Stress axis : x y z
#
# Youngs Moduli (GPa) = 25.04033 112.26226 62.87353
#
# Poissons Ratio (x) = -0.57316 0.11997
# Poissons Ratio (y) = -0.12784 0.25655
# Poissons Ratio (z) = 0.04778 0.45808
#
# Static dielectric constant tensor:
#      x y z
#    x 1.763110 0.000000 0.000000 
#    y 0.000000 1.904430 0.000000 
#    z 0.000000 0.000000 1.748200 
# 
# From -- ./inp_files/45981.got.cif
#   From: 2010.05.17/outbox.cif.g08.bks.cpg/sg63_23_cif.got.tgz:45981.got - 2010.06.03 15:47:04.
