data_PCOD9470989
_publ_section_title
;
Structure prediction by ZEFSAII (Michael W. Deem and Ramdas Pophale) SiO2 
 PCOD9470989
Probable space group: C M C M
;
_chemical_formula_sum "Si O2"
_cell_formula_units_Z 80
_cell_length_a 27.432570
_cell_length_b 9.019500
_cell_length_c 15.287289
_cell_angle_alpha 90.000000
_cell_angle_beta 90.000000
_cell_angle_gamma 90.000000
_cell_volume 3782.504338
_symmetry_space_group_name_H-M "C M C M"
_symmetry_group_IT_number 63
_symmetry_cell_setting 'orthorhombic'
loop_
_space_group_symop_operation_xyz
x,y,z
-x,-y,1/2+z
x,-y,-z
-x,y,1/2-z
-x,-y,-z
x,y,1/2-z
-x,y,z
x,-y,1/2+z
1/2+x,1/2+y,z
1/2-x,1/2-y,1/2+z
1/2+x,1/2-y,-z
1/2-x,1/2+y,1/2-z
1/2-x,1/2-y,-z
1/2+x,1/2+y,1/2-z
1/2-x,1/2+y,z
1/2+x,1/2-y,1/2+z
loop_
_atom_site_type_symbol
_atom_site_label
_atom_site_fract_x
_atom_site_fract_y
_atom_site_fract_z
Si Si1 0.297171 0.598050 0.857164
Si Si2 0.103080 0.572654 0.594739
Si Si3 0.697666 0.745087 0.356263
Si Si4 0.500000 0.893072 0.354089
Si Si5 0.500000 0.244262 0.356789
Si Si6 0.604765 0.255606 0.150210
O O1 0.296524 0.606731 0.750000
O O2 0.299937 0.426565 0.881803
O O3 0.246857 0.672674 0.886041
O O4 0.345429 0.683256 0.889691
O O5 0.102787 0.500000 0.500000
O O6 0.149511 0.674157 0.610065
O O7 0.052252 0.658448 0.610819
O O8 0.105990 0.423547 0.653452
O O9 0.696036 0.751255 0.250000
O O10 0.500000 0.875763 0.250000
O O11 0.500000 0.068768 0.376676
O O12 0.500000 0.255867 0.250000
O O13 0.447680 0.301446 0.389334
O O14 0.603952 0.311217 0.250000
#
# Coordination Sequence:
#
# PCOD9470989 Si02
#       6
#    16  16  16   8   8  16
#     4   9  18  32  55  79 101 134 182 229 267 308
#     4  11  21  33  51  79 110 141 172 211 261 316
#     4  10  19  34  53  76 103 136 177 223 268 312
#     4   9  17  33  56  79 102 136 176 216 254 301
#     4   7  12  23  46  73  95 120 159 204 252 303
#     4   9  16  31  52  74  99 135 178 220 261 310
#
# _framework density 21.150009000000001
#
# number of rings (size 3 to 8) (size 9 to 14) (size 15 to 20)
#    0.000    2.600    0.000    4.500    0.000    3.200 
#    0.000    6.000    0.000    3.600    0.000    5.600 
#    0.000    0.000    0.000    0.000    0.000    0.000 
#
# Total GULP energy -223129.550944 kJ/mol
# GULP energy per Si atom -5578.238774 kJ/mol
# Density = 2.110187 g / cm^3
# Si number density = 21.150009 Si / 1000 Ang^3
#
#
#
# Elastic Constant Matrix: (Units=GPa)
#
#
# Indices 1 2 3 4 5 6 
#
# 1 270.1160 79.5352 17.1746 0.0000 0.0000 0.0000
# 2 79.5352 65.6980 1.6191 0.0000 0.0000 0.0000
# 3 17.1746 1.6191 37.0889 0.0000 0.0000 0.0000
# 4 0.0000 0.0000 0.0000 17.5945 0.0000 0.0000
# 5 0.0000 0.0000 0.0000 0.0000 2.7977 0.0000
# 6 0.0000 0.0000 0.0000 0.0000 0.0000 60.4731
#
#
#
# Elastic Compliance Matrix: (Units=1/GPa)
#
#
# Indices 1 2 3 4 5 6 
#
# 1 0.005967 -0.007164 -0.002451 0.000000 0.000000 0.000000
# 2 -0.007164 0.023838 0.002277 0.000000 0.000000 0.000000
# 3 -0.002451 0.002277 0.027998 0.000000 0.000000 0.000000
# 4 0.000000 0.000000 0.000000 0.056836 0.000000 0.000000
# 5 0.000000 0.000000 0.000000 0.000000 0.357437 0.000000
# 6 0.000000 0.000000 0.000000 0.000000 0.000000 0.016536
#
#
# Mechanical properties :
#
#
# Convention : Reuss Voigt Hill
#
# Bulk Modulus (GPa) = 23.18717 63.28453 43.23585
# Shear Modulus (GPa) = 9.65881 34.47800 22.06841
#
# Velocity S-wave (km/s) = 2.13933 4.04191 3.23371
# Velocity P-wave (km/s) = 4.13392 7.19510 5.86765
#
# Compressibility (1/GPa) = 0.04312730
#
# Stress axis : x y z
#
# Youngs Moduli (GPa) = 167.58129 41.95062 35.71737
#
# Poissons Ratio (x) = 0.30052 0.08753
# Poissons Ratio (y) = 1.20050 -0.08132
# Poissons Ratio (z) = 0.41066 -0.09551
#
# Static dielectric constant tensor:
#      x y z
#    x 1.801210 0.000000 0.000000 
#    y 0.000000 1.720620 0.000000 
#    z 0.000000 0.000000 1.877460 
# 
# From -- ./inp_files/48826.got.cif
#   From: 2010.05.17/outbox.cif.g08.bks.cpg/sg63_25_cif.got.tgz:48826.got - 2010.06.03 15:47:04.
