data_PCOD9470847
_publ_section_title
;
Structure prediction by ZEFSAII (Michael W. Deem and Ramdas Pophale) SiO2 
 PCOD9470847
Probable space group: C M C M
;
_chemical_formula_sum "Si O2"
_cell_formula_units_Z 96
_cell_length_a 17.113296
_cell_length_b 18.428827
_cell_length_c 15.406079
_cell_angle_alpha 90.000000
_cell_angle_beta 90.000000
_cell_angle_gamma 90.000000
_cell_volume 4858.737942
_symmetry_space_group_name_H-M "C M C M"
_symmetry_group_IT_number 63
_symmetry_cell_setting 'orthorhombic'
loop_
_space_group_symop_operation_xyz
x,y,z
-x,-y,1/2+z
x,-y,-z
-x,y,1/2-z
-x,-y,-z
x,y,1/2-z
-x,y,z
x,-y,1/2+z
1/2+x,1/2+y,z
1/2-x,1/2-y,1/2+z
1/2+x,1/2-y,-z
1/2-x,1/2+y,1/2-z
1/2-x,1/2-y,-z
1/2+x,1/2+y,1/2-z
1/2-x,1/2+y,z
1/2+x,1/2-y,1/2+z
loop_
_atom_site_type_symbol
_atom_site_label
_atom_site_fract_x
_atom_site_fract_y
_atom_site_fract_z
Si Si1 0.913048 0.470304 0.598221
Si Si2 0.656618 0.402853 0.849113
Si Si3 0.500000 0.401014 0.152451
Si Si4 0.162108 0.163785 0.855470
Si Si5 0.255637 0.967299 0.097714
Si Si6 0.500000 0.448102 0.916577
Si Si7 0.319202 0.831707 0.854947
O O1 0.918953 0.500000 0.500000
O O2 0.841130 0.516765 0.636609
O O3 0.879678 0.388360 0.602810
O O4 0.000000 0.474739 0.636709
O O5 0.637050 0.383894 0.750000
O O6 0.691401 0.484538 0.852678
O O7 0.578688 0.402680 0.905689
O O8 0.730488 0.354671 0.877945
O O9 0.500000 0.371538 0.250000
O O10 0.580119 0.370768 0.113822
O O11 0.500000 0.487894 0.155028
O O12 0.168589 0.156917 0.750000
O O13 0.230240 0.115400 0.896943
O O14 0.165660 0.248458 0.876816
O O15 0.254082 0.000000 0.000000
O O16 0.500000 0.500000 0.000000
O O17 0.326017 0.840514 0.750000
#
# Coordination Sequence:
#
# PCOD9470847 Si02
#       7
#    16  16   8  16  16   8  16
#     4   9  19  36  56  78 111 148 187 231 280 330
#     4  10  19  34  53  78 109 146 184 222 280 332
#     4  10  20  32  52  82 111 144 176 226 293 331
#     4  10  20  35  56  83 116 146 181 233 291 340
#     4  10  19  33  55  81 109 147 190 227 271 332
#     4  12  22  32  56  80 114 140 189 236 262 329
#     4   9  20  36  58  85 110 143 185 233 286 340
#
# _framework density 19.758217999999999
#
# number of rings (size 3 to 8) (size 9 to 14) (size 15 to 20)
#    0.000    2.167    1.667    1.750    1.167    1.667 
#    0.000    7.500    1.833    0.000    0.000    0.000 
#    0.000    0.000    0.000    0.000    0.000    0.000 
#
# Total GULP energy -267719.297214 kJ/mol
# GULP energy per Si atom -5577.485359 kJ/mol
# Density = 1.971325 g / cm^3
# Si number density = 19.758218 Si / 1000 Ang^3
#
#
#
# Elastic Constant Matrix: (Units=GPa)
#
#
# Indices 1 2 3 4 5 6 
#
# 1 154.5150 47.4199 19.6302 0.0000 0.0000 0.0000
# 2 47.4199 126.0851 14.7605 0.0000 0.0000 0.0000
# 3 19.6302 14.7605 59.9151 0.0000 0.0000 0.0000
# 4 0.0000 0.0000 0.0000 24.5393 0.0000 0.0000
# 5 0.0000 0.0000 0.0000 0.0000 12.3880 0.0000
# 6 0.0000 0.0000 0.0000 0.0000 0.0000 17.6640
#
#
#
# Elastic Compliance Matrix: (Units=1/GPa)
#
#
# Indices 1 2 3 4 5 6 
#
# 1 0.007503 -0.002609 -0.001815 0.000000 0.000000 0.000000
# 2 -0.002609 0.009074 -0.001381 0.000000 0.000000 0.000000
# 3 -0.001815 -0.001381 0.017625 0.000000 0.000000 0.000000
# 4 0.000000 0.000000 0.000000 0.040751 0.000000 0.000000
# 5 0.000000 0.000000 0.000000 0.000000 0.080723 0.000000
# 6 0.000000 0.000000 0.000000 0.000000 0.000000 0.056612
#
#
# Mechanical properties :
#
#
# Convention : Reuss Voigt Hill
#
# Bulk Modulus (GPa) = 44.26390 56.01516 50.13953
# Shear Modulus (GPa) = 21.60476 28.16525 24.88501
#
# Velocity S-wave (km/s) = 3.31033 3.77967 3.55276
# Velocity P-wave (km/s) = 6.08790 6.88910 6.50085
#
# Compressibility (1/GPa) = 0.02259177
#
# Stress axis : x y z
#
# Youngs Moduli (GPa) = 133.27414 110.20307 56.73691
#
# Poissons Ratio (x) = 0.28757 0.10301
# Poissons Ratio (y) = 0.34777 0.07833
# Poissons Ratio (z) = 0.24196 0.15214
#
# Static dielectric constant tensor:
#      x y z
#    x 1.731520 0.000000 0.000000 
#    y 0.000000 1.666390 0.000000 
#    z 0.000000 0.000000 1.837110 
# 
# From -- ./inp_files/45816.got.cif
#   From: 2010.05.17/outbox.cif.g08.bks.cpg/sg63_23_cif.got.tgz:45816.got - 2010.06.03 15:47:04.
