data_PCOD9470438
_publ_section_title
;
Structure prediction by ZEFSAII (Michael W. Deem and Ramdas Pophale) SiO2 
 PCOD9470438
Probable space group: C M C M
;
_chemical_formula_sum "Si O2"
_cell_formula_units_Z 80
_cell_length_a 7.441639
_cell_length_b 18.377892
_cell_length_c 26.811129
_cell_angle_alpha 90.000000
_cell_angle_beta 90.000000
_cell_angle_gamma 90.000000
_cell_volume 3666.733915
_symmetry_space_group_name_H-M "C M C M"
_symmetry_group_IT_number 63
_symmetry_cell_setting 'orthorhombic'
loop_
_space_group_symop_operation_xyz
x,y,z
-x,-y,1/2+z
x,-y,-z
-x,y,1/2-z
-x,-y,-z
x,y,1/2-z
-x,y,z
x,-y,1/2+z
1/2+x,1/2+y,z
1/2-x,1/2-y,1/2+z
1/2+x,1/2-y,-z
1/2-x,1/2+y,1/2-z
1/2-x,1/2-y,-z
1/2+x,1/2+y,1/2-z
1/2-x,1/2+y,z
1/2+x,1/2-y,1/2+z
loop_
_atom_site_type_symbol
_atom_site_label
_atom_site_fract_x
_atom_site_fract_y
_atom_site_fract_z
Si Si1 0.719708 0.711337 0.250000
Si Si2 0.215612 0.708320 0.649746
Si Si3 0.279937 0.457359 0.750000
Si Si4 0.220113 0.957928 0.549752
Si Si5 0.785010 0.208719 0.448462
Si Si6 0.214143 0.036879 0.849976
O O1 0.500000 0.712557 0.250000
O O2 0.780531 0.752438 0.299961
O O3 0.773275 0.627000 0.250000
O O4 0.284054 0.746972 0.599466
O O5 0.254351 0.622849 0.650133
O O6 0.000000 0.716004 0.649727
O O7 0.500000 0.458759 0.750000
O O8 0.217888 0.498639 0.700260
O O9 0.280319 0.874267 0.549851
O O10 0.000000 0.958076 0.549620
O O11 0.276840 0.000000 0.500000
O O12 0.281380 0.999362 0.599486
O O13 0.750000 0.250000 0.500000
O O14 0.000000 0.204446 0.443001
O O15 0.000000 0.025583 0.850000
#
# Coordination Sequence:
#
# PCOD9470438 Si02
#       6
#     8  16   8  16  16  16
#     4   9  17  32  53  75 102 135 168 204 248 297
#     4  10  20  33  51  75 103 134 165 200 247 303
#     4   9  17  30  51  77  98 123 166 210 242 281
#     4   9  17  30  49  71  94 124 162 200 238 283
#     4  10  20  34  52  75 101 130 167 207 249 298
#     4  10  19  32  52  75  99 128 164 207 247 286
#
# _framework density 21.817781
#
# number of rings (size 3 to 8) (size 9 to 14) (size 15 to 20)
#    0.000    2.400    0.000    3.000    0.000    7.200 
#    0.000    1.000    0.000    8.400    0.000    0.000 
#    0.000    0.000    0.000    0.000    0.000    0.000 
#
# Total GULP energy -223625.236966 kJ/mol
# GULP energy per Si atom -5590.630924 kJ/mol
# Density = 2.176812 g / cm^3
# Si number density = 21.817781 Si / 1000 Ang^3
#
#
#
# Elastic Constant Matrix: (Units=GPa)
#
#
# Indices 1 2 3 4 5 6 
#
# 1 66.4527 -3.3662 7.7147 0.0000 0.0000 0.0000
# 2 -3.3662 259.8352 176.4154 0.0000 0.0000 0.0000
# 3 7.7147 176.4154 286.5169 0.0000 0.0000 0.0000
# 4 0.0000 0.0000 0.0000 51.9087 0.0000 0.0000
# 5 0.0000 0.0000 0.0000 0.0000 -12.2393 0.0000
# 6 0.0000 0.0000 0.0000 0.0000 0.0000 20.9047
#
#
#
# Elastic Compliance Matrix: (Units=1/GPa)
#
#
# Indices 1 2 3 4 5 6 
#
# 1 0.015195 0.000816 -0.000911 0.000000 0.000000 0.000000
# 2 0.000816 0.006657 -0.004121 0.000000 0.000000 0.000000
# 3 -0.000911 -0.004121 0.006052 0.000000 0.000000 0.000000
# 4 0.000000 0.000000 0.000000 0.019265 0.000000 0.000000
# 5 0.000000 0.000000 0.000000 0.000000 -0.081704 0.000000
# 6 0.000000 0.000000 0.000000 0.000000 0.000000 0.047836
#
#
# Mechanical properties :
#
#
# Convention : Reuss Voigt Hill
#
# Bulk Modulus (GPa) = 51.35758 108.25918 79.80838
# Shear Modulus (GPa) = 177.14810 40.91755 109.03283
#
# Velocity S-wave (km/s) = 9.02057 4.33531 7.07692
# Velocity P-wave (km/s) = 11.49281 8.64797 10.17035
#
# Compressibility (1/GPa) = 0.01947132
#
# Stress axis : x y z
#
# Youngs Moduli (GPa) = 65.80931 150.21758 165.23361
#
# Poissons Ratio (x) = -0.12252 0.15059
# Poissons Ratio (y) = -0.05368 0.68090
# Poissons Ratio (z) = 0.05998 0.61902
#
# Static dielectric constant tensor:
#      x y z
#    x 1.852760 0.000000 0.000000 
#    y 0.000000 1.730750 0.000000 
#    z 0.000000 0.000000 1.758460 
# 
# From -- ./inp_files/61397.got.cif
#   From: 2010.05.17/outbox.cif.g08.bks.cpg/sg63_31_cif.got.tgz:61397.got - 2010.06.03 15:47:04.
