data_PCOD9470510
_publ_section_title
;
Structure prediction by ZEFSAII (Michael W. Deem and Ramdas Pophale) SiO2 
 PCOD9470510
Probable space group: C M C M
;
_chemical_formula_sum "Si O2"
_cell_formula_units_Z 128
_cell_length_a 21.374442
_cell_length_b 20.181628
_cell_length_c 15.590214
_cell_angle_alpha 90.000000
_cell_angle_beta 90.000000
_cell_angle_gamma 90.000000
_cell_volume 6725.166783
_symmetry_space_group_name_H-M "C M C M"
_symmetry_group_IT_number 63
_symmetry_cell_setting 'orthorhombic'
loop_
_space_group_symop_operation_xyz
x,y,z
-x,-y,1/2+z
x,-y,-z
-x,y,1/2-z
-x,-y,-z
x,y,1/2-z
-x,y,z
x,-y,1/2+z
1/2+x,1/2+y,z
1/2-x,1/2-y,1/2+z
1/2+x,1/2-y,-z
1/2-x,1/2+y,1/2-z
1/2-x,1/2-y,-z
1/2+x,1/2+y,1/2-z
1/2-x,1/2+y,z
1/2+x,1/2-y,1/2+z
loop_
_atom_site_type_symbol
_atom_site_label
_atom_site_fract_x
_atom_site_fract_y
_atom_site_fract_z
Si Si1 0.068581 0.719821 0.650469
Si Si2 0.809018 0.774882 0.353313
Si Si3 0.118484 0.007870 0.895342
Si Si4 0.247924 0.139570 0.149189
Si Si5 0.569331 0.351715 0.093342
Si Si6 0.236524 0.504208 0.897594
Si Si7 0.393810 0.636152 0.397670
Si Si8 0.689129 0.143497 0.852671
O O1 0.064866 0.699689 0.750000
O O2 0.083532 0.798062 0.649143
O O3 0.127213 0.679725 0.612170
O O4 0.000000 0.708519 0.610772
O O5 0.808725 0.777049 0.250000
O O6 0.791144 0.700255 0.378834
O O7 0.875458 0.802331 0.381733
O O8 0.752473 0.821652 0.385812
O O9 0.082791 0.074430 0.870939
O O10 0.191215 0.016678 0.870121
O O11 0.093662 0.937411 0.861217
O O12 0.117114 0.000000 0.000000
O O13 0.231703 0.149095 0.250000
O O14 0.279480 0.068206 0.137941
O O15 0.182090 0.139296 0.098600
O O16 0.500000 0.329653 0.117273
O O17 0.575567 0.359587 0.990953
O O18 0.194524 0.565628 0.869604
O O19 0.235879 0.500000 0.000000
O O20 0.689252 0.153945 0.750000
#
# Coordination Sequence:
#
# PCOD9470510 Si02
#       8
#    16  16  16  16  16  16  16  16
#     4  10  20  34  52  77 108 138 170 213 270 333
#     4  10  21  37  56  78 105 143 189 231 271 317
#     4   8  17  31  47  71 102 140 176 211 253 310
#     4  10  20  35  56  81 108 142 182 230 282 325
#     4  11  22  35  52  76 109 151 189 224 270 318
#     4  10  19  33  54  83 112 136 176 226 276 320
#     4  10  19  32  53  77 108 140 180 222 270 328
#     4  10  19  34  56  79 105 139 175 219 272 319
#
# _framework density 19.032985
#
# number of rings (size 3 to 8) (size 9 to 14) (size 15 to 20)
#    0.000    2.125    2.500    1.875    0.000    4.500 
#    0.000    0.625    0.000    1.125    0.000    1.750 
#    0.000    0.000    0.000    0.000    0.000    0.000 
#
# Total GULP energy -357085.025516 kJ/mol
# GULP energy per Si atom -5579.453524 kJ/mol
# Density = 1.898967 g / cm^3
# Si number density = 19.032985 Si / 1000 Ang^3
#
#
#
# Elastic Constant Matrix: (Units=GPa)
#
#
# Indices 1 2 3 4 5 6 
#
# 1 138.0607 82.0124 9.4896 0.0000 0.0000 0.0000
# 2 82.0124 127.9028 1.7177 0.0000 0.0000 0.0000
# 3 9.4896 1.7177 15.3035 0.0000 0.0000 0.0000
# 4 0.0000 0.0000 0.0000 15.5810 0.0000 0.0000
# 5 0.0000 0.0000 0.0000 0.0000 29.3467 0.0000
# 6 0.0000 0.0000 0.0000 0.0000 0.0000 18.9378
#
#
#
# Elastic Compliance Matrix: (Units=1/GPa)
#
#
# Indices 1 2 3 4 5 6 
#
# 1 0.012366 -0.007838 -0.006788 0.000000 0.000000 0.000000
# 2 -0.007838 0.012798 0.003424 0.000000 0.000000 0.000000
# 3 -0.006788 0.003424 0.069169 0.000000 0.000000 0.000000
# 4 0.000000 0.000000 0.000000 0.064181 0.000000 0.000000
# 5 0.000000 0.000000 0.000000 0.000000 0.034075 0.000000
# 6 0.000000 0.000000 0.000000 0.000000 0.000000 0.052805
#
#
# Mechanical properties :
#
#
# Convention : Reuss Voigt Hill
#
# Bulk Modulus (GPa) = 13.90268 51.96739 32.93503
# Shear Modulus (GPa) = 17.13653 25.30959 21.22306
#
# Velocity S-wave (km/s) = 3.00385 3.65056 3.34289
# Velocity P-wave (km/s) = 4.39900 6.71803 5.67817
#
# Compressibility (1/GPa) = 0.07192858
#
# Stress axis : x y z
#
# Youngs Moduli (GPa) = 80.86892 78.13633 14.45728
#
# Poissons Ratio (x) = 0.61242 0.09814
# Poissons Ratio (y) = 0.63384 -0.04950
# Poissons Ratio (z) = 0.54895 -0.26751
#
# Static dielectric constant tensor:
#      x y z
#    x 1.664820 0.000000 0.000000 
#    y 0.000000 1.674640 0.000000 
#    z 0.000000 0.000000 1.707460 
# 
# From -- ./inp_files/47552.got.cif
#   From: 2010.05.17/outbox.cif.g08.bks.cpg/sg63_24_cif.got.tgz:47552.got - 2010.06.03 15:47:04.
