data_PCOD9470783
_publ_section_title
;
Structure prediction by ZEFSAII (Michael W. Deem and Ramdas Pophale) SiO2 
 PCOD9470783
Probable space group: C M C M
;
_chemical_formula_sum "Si O2"
_cell_formula_units_Z 96
_cell_length_a 8.312519
_cell_length_b 25.958407
_cell_length_c 24.419359
_cell_angle_alpha 90.000000
_cell_angle_beta 90.000000
_cell_angle_gamma 90.000000
_cell_volume 5269.203214
_symmetry_space_group_name_H-M "C M C M"
_symmetry_group_IT_number 63
_symmetry_cell_setting 'orthorhombic'
loop_
_space_group_symop_operation_xyz
x,y,z
-x,-y,1/2+z
x,-y,-z
-x,y,1/2-z
-x,-y,-z
x,y,1/2-z
-x,y,z
x,-y,1/2+z
1/2+x,1/2+y,z
1/2-x,1/2-y,1/2+z
1/2+x,1/2-y,-z
1/2-x,1/2+y,1/2-z
1/2-x,1/2-y,-z
1/2+x,1/2+y,1/2-z
1/2-x,1/2+y,z
1/2+x,1/2-y,1/2+z
loop_
_atom_site_type_symbol
_atom_site_label
_atom_site_fract_x
_atom_site_fract_y
_atom_site_fract_z
Si Si1 0.194146 0.811506 0.058149
Si Si2 0.694399 0.398366 0.866298
Si Si3 0.196399 0.003965 0.062624
Si Si4 0.694722 0.595119 0.633391
Si Si5 0.190569 0.559651 0.750000
Si Si6 0.192284 0.693928 0.062856
Si Si7 0.194345 0.941407 0.750000
O O1 0.250299 0.853526 0.102009
O O2 0.250111 0.753050 0.069541
O O3 0.000000 0.811566 0.059269
O O4 0.245664 0.825002 0.996351
O O5 0.500000 0.398452 0.865927
O O6 0.747946 0.443740 0.907516
O O7 0.751250 0.344134 0.889792
O O8 0.750273 0.413493 0.805439
O O9 0.246471 0.954727 0.098242
O O10 0.000000 0.004081 0.062058
O O11 0.250778 0.000000 0.000000
O O12 0.500000 0.595332 0.633884
O O13 0.752397 0.588200 0.695153
O O14 0.258315 0.501344 0.750000
O O15 0.000000 0.556401 0.750000
O O16 0.000000 0.694648 0.061354
O O17 0.000000 0.940055 0.750000
#
# Coordination Sequence:
#
# PCOD9470783 Si02
#       7
#    16  16  16  16   8  16   8
#     4   9  19  36  59  82 105 143 188 223 261 318
#     4  10  19  33  54  78 105 140 187 226 261 317
#     4   9  16  27  50  81 104 127 170 225 266 303
#     4  10  19  36  59  78 103 142 190 228 258 313
#     4  12  24  36  53  80 115 145 174 220 284 333
#     4  10  20  34  54  83 116 144 173 218 279 329
#     4  10  20  38  59  76  99 145 198 228 256 313
#
# _framework density 18.219073999999999
#
# number of rings (size 3 to 8) (size 9 to 14) (size 15 to 20)
#    0.000    2.167    1.667    2.250    0.000    4.667 
#    0.000    0.833    0.000    5.000    0.000    0.000 
#    0.000    0.000    0.000    0.000    0.000    0.000 
#
# Total GULP energy -267935.398886 kJ/mol
# GULP energy per Si atom -5581.987477 kJ/mol
# Density = 1.817761 g / cm^3
# Si number density = 18.219074 Si / 1000 Ang^3
#
#
#
# Elastic Constant Matrix: (Units=GPa)
#
#
# Indices 1 2 3 4 5 6 
#
# 1 3.9240 13.2660 17.2272 0.0000 0.0000 0.0000
# 2 13.2660 93.7758 64.1738 0.0000 0.0000 0.0000
# 3 17.2272 64.1738 138.5854 0.0000 0.0000 0.0000
# 4 0.0000 0.0000 0.0000 28.2384 0.0000 0.0000
# 5 0.0000 0.0000 0.0000 0.0000 15.1608 0.0000
# 6 0.0000 0.0000 0.0000 0.0000 0.0000 19.9456
#
#
#
# Elastic Compliance Matrix: (Units=1/GPa)
#
#
# Indices 1 2 3 4 5 6 
#
# 1 0.743012 -0.061342 -0.063957 0.000000 0.000000 0.000000
# 2 -0.061342 0.020675 -0.001948 0.000000 0.000000 0.000000
# 3 -0.063957 -0.001948 0.016068 0.000000 0.000000 0.000000
# 4 0.000000 0.000000 0.000000 0.035413 0.000000 0.000000
# 5 0.000000 0.000000 0.000000 0.000000 0.065959 0.000000
# 6 0.000000 0.000000 0.000000 0.000000 0.000000 0.050136
#
#
# Mechanical properties :
#
#
# Convention : Reuss Voigt Hill
#
# Bulk Modulus (GPa) = 1.90382 47.29102 24.59742
# Shear Modulus (GPa) = 3.67419 22.11018 12.89218
#
# Velocity S-wave (km/s) = 1.42164 3.48742 2.66300
# Velocity P-wave (km/s) = 1.93441 6.49841 4.79433
#
# Compressibility (1/GPa) = 0.52525977
#
# Stress axis : x y z
#
# Youngs Moduli (GPa) = 1.34587 48.36777 62.23425
#
# Poissons Ratio (x) = 2.96700 3.98029
# Poissons Ratio (y) = 0.08256 0.12126
# Poissons Ratio (z) = 0.08608 0.09424
#
# Static dielectric constant tensor:
#      x y z
#    x 1.631830 0.000000 0.000000 
#    y 0.000000 1.621060 0.000000 
#    z 0.000000 0.000000 1.605220 
# 
# From -- ./inp_files/59985.got.cif
#   From: 2010.05.17/outbox.cif.g08.bks.cpg/sg63_30_cif.got.tgz:59985.got - 2010.06.03 15:47:04.
