data_PCOD9470682
_publ_section_title
;
Structure prediction by ZEFSAII (Michael W. Deem and Ramdas Pophale) SiO2 
 PCOD9470682
Probable space group: C M C M
;
_chemical_formula_sum "Si O2"
_cell_formula_units_Z 80
_cell_length_a 27.636901
_cell_length_b 18.265820
_cell_length_c 8.325967
_cell_angle_alpha 90.000000
_cell_angle_beta 90.000000
_cell_angle_gamma 90.000000
_cell_volume 4203.036888
_symmetry_space_group_name_H-M "C M C M"
_symmetry_group_IT_number 63
_symmetry_cell_setting 'orthorhombic'
loop_
_space_group_symop_operation_xyz
x,y,z
-x,-y,1/2+z
x,-y,-z
-x,y,1/2-z
-x,-y,-z
x,y,1/2-z
-x,y,z
x,-y,1/2+z
1/2+x,1/2+y,z
1/2-x,1/2-y,1/2+z
1/2+x,1/2-y,-z
1/2-x,1/2+y,1/2-z
1/2-x,1/2-y,-z
1/2+x,1/2+y,1/2-z
1/2-x,1/2+y,z
1/2+x,1/2-y,1/2+z
loop_
_atom_site_type_symbol
_atom_site_label
_atom_site_fract_x
_atom_site_fract_y
_atom_site_fract_z
Si Si1 0.078384 0.921445 0.937112
Si Si2 0.053337 0.235814 0.560045
Si Si3 0.289034 0.921324 0.056776
Si Si4 0.181423 0.881528 0.059837
Si Si5 0.656130 0.224312 0.940419
O O1 0.067418 0.913667 0.750000
O O2 0.057518 0.851400 0.029282
O O3 0.136299 0.915455 0.965338
O O4 0.061812 0.000000 0.000000
O O5 0.058290 0.248701 0.750000
O O6 0.098715 0.271905 0.471603
O O7 0.000000 0.260156 0.506982
O O8 0.288798 0.920465 0.250000
O O9 0.233347 0.910337 0.004213
O O10 0.320477 0.851689 0.003976
O O11 0.307079 0.000000 0.000000
O O12 0.175065 0.896174 0.250000
O O13 0.178590 0.794252 0.030552
O O14 0.665131 0.233346 0.750000
#
# Coordination Sequence:
#
# PCOD9470682 Si02
#       5
#    16  16  16  16  16
#     4  11  21  33  50  74 106 141 175 211 252 296
#     4  10  21  37  56  77  99 128 169 213 259 310
#     4  10  22  35  51  77 107 139 173 210 252 300
#     4  10  19  33  52  76 106 141 178 209 245 294
#     4  10  20  35  54  78 105 134 171 211 254 303
#
# _framework density 19.033856
#
# number of rings (size 3 to 8) (size 9 to 14) (size 15 to 20)
#    0.000    1.800    0.000    7.200    0.000    6.800 
#    0.000    0.000    0.000    0.600    0.000    0.000 
#    0.000    0.000    0.000    0.000    0.000    0.000 
#
# Total GULP energy -223527.612263 kJ/mol
# GULP energy per Si atom -5588.190307 kJ/mol
# Density = 1.899053 g / cm^3
# Si number density = 19.033856 Si / 1000 Ang^3
#
#
#
# Elastic Constant Matrix: (Units=GPa)
#
#
# Indices 1 2 3 4 5 6 
#
# 1 64.7647 20.8378 -8.0572 0.0000 0.0000 0.0000
# 2 20.8378 73.7866 -9.7688 0.0000 0.0000 0.0000
# 3 -8.0572 -9.7688 26.7250 0.0000 0.0000 0.0000
# 4 0.0000 0.0000 0.0000 27.6337 0.0000 0.0000
# 5 0.0000 0.0000 0.0000 0.0000 20.0316 0.0000
# 6 0.0000 0.0000 0.0000 0.0000 0.0000 -5.8466
#
#
#
# Elastic Compliance Matrix: (Units=1/GPa)
#
#
# Indices 1 2 3 4 5 6 
#
# 1 0.017308 -0.004411 0.003606 0.000000 0.000000 0.000000
# 2 -0.004411 0.015366 0.004287 0.000000 0.000000 0.000000
# 3 0.003606 0.004287 0.040072 0.000000 0.000000 0.000000
# 4 0.000000 0.000000 0.000000 0.036188 0.000000 0.000000
# 5 0.000000 0.000000 0.000000 0.000000 0.049921 0.000000
# 6 0.000000 0.000000 0.000000 0.000000 0.000000 -0.171040
#
#
# Mechanical properties :
#
#
# Convention : Reuss Voigt Hill
#
# Bulk Modulus (GPa) = 12.54532 19.03333 15.78932
# Shear Modulus (GPa) = 673.75621 19.18138 346.46879
#
# Velocity S-wave (km/s) = 18.83471 3.17795 13.50640
# Velocity P-wave (km/s) = 21.89978 4.84637 15.86013
#
# Compressibility (1/GPa) = 0.07971101
#
# Stress axis : x y z
#
# Youngs Moduli (GPa) = 57.77614 65.07988 24.95486
#
# Poissons Ratio (x) = 0.28704 -0.08999
# Poissons Ratio (y) = 0.25482 -0.10698
# Poissons Ratio (z) = -0.20834 -0.27899
#
# Static dielectric constant tensor:
#      x y z
#    x 1.687080 0.000000 0.000000 
#    y 0.000000 1.648960 0.000000 
#    z 0.000000 0.000000 1.645950 
# 
# From -- ./inp_files/12045.got.cif
#   From: 2010.05.17/outbox.cif.g08.bks.cpg/sg63_7_cif.got.tgz:12045.got - 2010.06.03 15:47:04.
