data_PCOD9470599
_publ_section_title
;
Structure prediction by ZEFSAII (Michael W. Deem and Ramdas Pophale) SiO2 
 PCOD9470599
Probable space group: C M C M
;
_chemical_formula_sum "Si O2"
_cell_formula_units_Z 88
_cell_length_a 28.024496
_cell_length_b 19.864813
_cell_length_c 8.917748
_cell_angle_alpha 90.000000
_cell_angle_beta 90.000000
_cell_angle_gamma 90.000000
_cell_volume 4964.522551
_symmetry_space_group_name_H-M "C M C M"
_symmetry_group_IT_number 63
_symmetry_cell_setting 'orthorhombic'
loop_
_space_group_symop_operation_xyz
x,y,z
-x,-y,1/2+z
x,-y,-z
-x,y,1/2-z
-x,-y,-z
x,y,1/2-z
-x,y,z
x,-y,1/2+z
1/2+x,1/2+y,z
1/2-x,1/2-y,1/2+z
1/2+x,1/2-y,-z
1/2-x,1/2+y,1/2-z
1/2-x,1/2-y,-z
1/2+x,1/2+y,1/2-z
1/2-x,1/2+y,z
1/2+x,1/2-y,1/2+z
loop_
_atom_site_type_symbol
_atom_site_label
_atom_site_fract_x
_atom_site_fract_y
_atom_site_fract_z
Si Si1 0.412919 0.329313 0.929786
Si Si2 0.000000 0.073754 0.430607
Si Si3 0.443177 0.812563 0.926374
Si Si4 0.121436 0.426908 0.428972
Si Si5 0.707658 0.832317 0.071077
Si Si6 0.815103 0.810934 0.071498
O O1 0.411982 0.324844 0.750000
O O2 0.453020 0.383573 0.974250
O O3 0.427738 0.257058 0.996510
O O4 0.360217 0.344234 0.991508
O O5 0.000000 0.068661 0.250000
O O6 0.000000 0.000000 0.500000
O O7 0.431089 0.809868 0.750000
O O8 0.500000 0.820093 0.941197
O O9 0.416232 0.874404 0.003164
O O10 0.116294 0.500000 0.500000
O O11 0.115706 0.430436 0.250000
O O12 0.173420 0.394683 0.461757
O O13 0.704411 0.817990 0.250000
O O14 0.763364 0.842559 0.035166
O O15 0.689252 0.766346 0.984443
O O16 0.821851 0.812235 0.250000
#
# Coordination Sequence:
#
# PCOD9470599 Si02
#       6
#    16   8  16  16  16  16
#     4  11  21  37  59  87 119 153 191 235 291 346
#     4  10  24  42  62  86 117 154 191 234 290 352
#     4  11  23  38  59  88 116 148 195 244 290 344
#     4  11  23  39  59  82 116 159 198 242 294 349
#     4   9  19  35  54  81 115 150 189 237 290 340
#     4  10  19  32  56  87 115 146 190 240 285 336
#
# _framework density 17.725771999999999
#
# number of rings (size 3 to 8) (size 9 to 14) (size 15 to 20)
#    0.000    1.636    2.727    2.182    0.000    4.364 
#    0.000    0.909    0.000    4.364    0.000    0.000 
#    0.000    0.000    0.000    0.000    0.000    0.000 
#
# Total GULP energy -245763.585333 kJ/mol
# GULP energy per Si atom -5585.536030 kJ/mol
# Density = 1.768543 g / cm^3
# Si number density = 17.725772 Si / 1000 Ang^3
#
#
#
# Elastic Constant Matrix: (Units=GPa)
#
#
# Indices 1 2 3 4 5 6 
#
# 1 133.4932 56.9944 58.4510 0.0000 0.0000 0.0000
# 2 56.9944 101.2425 43.8277 0.0000 0.0000 0.0000
# 3 58.4510 43.8277 67.6485 0.0000 0.0000 0.0000
# 4 0.0000 0.0000 0.0000 30.3656 0.0000 0.0000
# 5 0.0000 0.0000 0.0000 0.0000 31.6791 0.0000
# 6 0.0000 0.0000 0.0000 0.0000 0.0000 24.8664
#
#
#
# Elastic Compliance Matrix: (Units=1/GPa)
#
#
# Indices 1 2 3 4 5 6 
#
# 1 0.012826 -0.003367 -0.008900 0.000000 0.000000 0.000000
# 2 -0.003367 0.014611 -0.006557 0.000000 0.000000 0.000000
# 3 -0.008900 -0.006557 0.026721 0.000000 0.000000 0.000000
# 4 0.000000 0.000000 0.000000 0.032932 0.000000 0.000000
# 5 0.000000 0.000000 0.000000 0.000000 0.031567 0.000000
# 6 0.000000 0.000000 0.000000 0.000000 0.000000 0.040215
#
#
# Mechanical properties :
#
#
# Convention : Reuss Voigt Hill
#
# Bulk Modulus (GPa) = 60.57428 68.99229 64.78329
# Shear Modulus (GPa) = 24.74966 26.92297 25.83631
#
# Velocity S-wave (km/s) = 3.74070 3.90148 3.82194
# Velocity P-wave (km/s) = 7.27353 7.70078 7.49020
#
# Compressibility (1/GPa) = 0.01650866
#
# Stress axis : x y z
#
# Youngs Moduli (GPa) = 77.96801 68.43998 37.42431
#
# Poissons Ratio (x) = 0.23046 0.33309
# Poissons Ratio (y) = 0.26254 0.24539
# Poissons Ratio (z) = 0.69395 0.44875
#
# Static dielectric constant tensor:
#      x y z
#    x 1.627610 0.000000 0.000000 
#    y 0.000000 1.556000 0.000000 
#    z 0.000000 0.000000 1.593270 
# 
# From -- ./inp_files/14246.got.cif
#   From: 2010.05.17/outbox.cif.g08.bks.cpg/sg63_8_cif.got.tgz:14246.got - 2010.06.03 15:47:04.
