data_PCOD9470785
_publ_section_title
;
Structure prediction by ZEFSAII (Michael W. Deem and Ramdas Pophale) SiO2 
 PCOD9470785
Probable space group: C M C M
;
_chemical_formula_sum "Si O2"
_cell_formula_units_Z 96
_cell_length_a 19.054486
_cell_length_b 15.673633
_cell_length_c 13.716810
_cell_angle_alpha 90.000000
_cell_angle_beta 90.000000
_cell_angle_gamma 90.000000
_cell_volume 4096.566739
_symmetry_space_group_name_H-M "C M C M"
_symmetry_group_IT_number 63
_symmetry_cell_setting 'orthorhombic'
loop_
_space_group_symop_operation_xyz
x,y,z
-x,-y,1/2+z
x,-y,-z
-x,y,1/2-z
-x,-y,-z
x,y,1/2-z
-x,y,z
x,-y,1/2+z
1/2+x,1/2+y,z
1/2-x,1/2-y,1/2+z
1/2+x,1/2-y,-z
1/2-x,1/2+y,1/2-z
1/2-x,1/2-y,-z
1/2+x,1/2+y,1/2-z
1/2-x,1/2+y,z
1/2+x,1/2-y,1/2+z
loop_
_atom_site_type_symbol
_atom_site_label
_atom_site_fract_x
_atom_site_fract_y
_atom_site_fract_z
Si Si1 0.717685 0.149954 0.631557
Si Si2 0.369830 0.442824 0.905083
Si Si3 0.156395 0.276302 0.630221
Si Si4 0.500000 0.465998 0.387960
Si Si5 0.785627 0.456022 0.640326
Si Si6 0.080080 0.760813 0.867851
Si Si7 0.000000 0.765497 0.135308
O O1 0.724429 0.146280 0.750000
O O2 0.786413 0.204318 0.598280
O O3 0.712870 0.051632 0.597500
O O4 0.644917 0.198442 0.610425
O O5 0.428288 0.496174 0.848984
O O6 0.296062 0.432002 0.854384
O O7 0.403901 0.350600 0.919399
O O8 0.355390 0.500000 0.000000
O O9 0.158001 0.273522 0.750000
O O10 0.179526 0.370889 0.598207
O O11 0.075995 0.263995 0.597778
O O12 0.500000 0.500000 0.500000
O O13 0.500000 0.366602 0.375952
O O14 0.815440 0.464459 0.750000
O O15 0.082632 0.776254 0.750000
O O16 0.000000 0.732564 0.889420
O O17 0.000000 0.742784 0.250000
#
# Coordination Sequence:
#
# PCOD9470785 Si02
#       7
#    16  16  16   8  16  16   8
#     4   9  17  31  52  79 107 140 183 227 272 321
#     4  11  21  34  53  77 112 142 181 230 280 333
#     4   9  17  31  52  81 116 143 178 231 279 326
#     4  10  22  36  52  75 116 146 177 230 290 336
#     4  10  19  34  57  80 109 150 186 228 277 326
#     4  10  19  33  54  78 107 142 181 226 278 338
#     4  10  20  34  56  87 113 144 188 231 280 338
#
# _framework density 23.434258
#
# number of rings (size 3 to 8) (size 9 to 14) (size 15 to 20)
#    0.000    2.167    2.500    1.500    0.000    2.667 
#    1.500    0.833    3.667    0.000    0.000    0.583 
#    0.000    0.000    0.000    0.000    0.000    0.000 
#
# Total GULP energy -268287.241206 kJ/mol
# GULP energy per Si atom -5589.317525 kJ/mol
# Density = 2.338092 g / cm^3
# Si number density = 23.434258 Si / 1000 Ang^3
#
#
#
# Elastic Constant Matrix: (Units=GPa)
#
#
# Indices 1 2 3 4 5 6 
#
# 1 222.3532 124.8827 18.8333 0.0000 0.0000 0.0000
# 2 124.8827 199.3218 14.3951 0.0000 0.0000 0.0000
# 3 18.8333 14.3951 84.4055 0.0000 0.0000 0.0000
# 4 0.0000 0.0000 0.0000 -136.9734 0.0000 0.0000
# 5 0.0000 0.0000 0.0000 0.0000 34.6861 0.0000
# 6 0.0000 0.0000 0.0000 0.0000 0.0000 44.6303
#
#
#
# Elastic Compliance Matrix: (Units=1/GPa)
#
#
# Indices 1 2 3 4 5 6 
#
# 1 0.006995 -0.004323 -0.000824 0.000000 0.000000 0.000000
# 2 -0.004323 0.007752 -0.000357 0.000000 0.000000 0.000000
# 3 -0.000824 -0.000357 0.012092 0.000000 0.000000 0.000000
# 4 0.000000 0.000000 0.000000 -0.007301 0.000000 0.000000
# 5 0.000000 0.000000 0.000000 0.000000 0.028830 0.000000
# 6 0.000000 0.000000 0.000000 0.000000 0.000000 0.022406
#
#
# Mechanical properties :
#
#
# Convention : Reuss Voigt Hill
#
# Bulk Modulus (GPa) = 63.16834 91.36693 77.26764
# Shear Modulus (GPa) = 57.43169 11.66656 34.54912
#
# Velocity S-wave (km/s) = 4.95588 2.23366 3.84383
# Velocity P-wave (km/s) = 7.73057 6.76207 7.26248
#
# Compressibility (1/GPa) = 0.01583072
#
# Stress axis : x y z
#
# Youngs Moduli (GPa) = 142.95412 129.00659 82.69747
#
# Poissons Ratio (x) = 0.55774 0.06810
# Poissons Ratio (y) = 0.61804 0.02955
# Poissons Ratio (z) = 0.11772 0.04610
#
# Static dielectric constant tensor:
#      x y z
#    x 1.858050 0.000000 0.000000 
#    y 0.000000 1.831870 0.000000 
#    z 0.000000 0.000000 2.089500 
# 
# From -- ./inp_files/54244.got.cif
#   From: 2010.05.17/outbox.cif.g08.bks.cpg/sg63_28_cif.got.tgz:54244.got - 2010.06.03 15:47:04.
