data_PCOD9470722
_publ_section_title
;
Structure prediction by ZEFSAII (Michael W. Deem and Ramdas Pophale) SiO2 
 PCOD9470722
Probable space group: C M C M
;
_chemical_formula_sum "Si O2"
_cell_formula_units_Z 72
_cell_length_a 22.615973
_cell_length_b 20.273874
_cell_length_c 7.971391
_cell_angle_alpha 90.000000
_cell_angle_beta 90.000000
_cell_angle_gamma 90.000000
_cell_volume 3654.989486
_symmetry_space_group_name_H-M "C M C M"
_symmetry_group_IT_number 63
_symmetry_cell_setting 'orthorhombic'
loop_
_space_group_symop_operation_xyz
x,y,z
-x,-y,1/2+z
x,-y,-z
-x,y,1/2-z
-x,-y,-z
x,y,1/2-z
-x,y,z
x,-y,1/2+z
1/2+x,1/2+y,z
1/2-x,1/2-y,1/2+z
1/2+x,1/2-y,-z
1/2-x,1/2+y,1/2-z
1/2-x,1/2-y,-z
1/2+x,1/2+y,1/2-z
1/2-x,1/2+y,z
1/2+x,1/2-y,1/2+z
loop_
_atom_site_type_symbol
_atom_site_label
_atom_site_fract_x
_atom_site_fract_y
_atom_site_fract_z
Si Si1 0.645927 0.073438 0.952330
Si Si2 0.500000 0.423822 0.547463
Si Si3 0.931467 0.696592 0.955439
Si Si4 0.719321 0.573409 0.949678
Si Si5 0.111402 0.161383 0.451378
O O1 0.647473 0.076775 0.750000
O O2 0.603645 0.131855 0.012416
O O3 0.713568 0.081700 0.015115
O O4 0.625871 0.000000 0.000000
O O5 0.500000 0.500000 0.500000
O O6 0.500000 0.420130 0.750000
O O7 0.558460 0.385779 0.486145
O O8 0.931135 0.696238 0.750000
O O9 0.899914 0.764167 0.011110
O O10 0.000000 0.696767 0.006975
O O11 0.721868 0.575421 0.750000
O O12 0.698504 0.500000 0.000000
O O13 0.673825 0.628823 0.006866
O O14 0.106661 0.163326 0.250000
#
# Coordination Sequence:
#
# PCOD9470722 Si02
#       5
#    16   8  16  16  16
#     4   9  19  35  55  78 104 135 172 214 259 307
#     4  10  20  32  48  72  99 130 170 210 247 294
#     4   9  17  33  56  78 103 137 174 211 255 311
#     4  10  20  34  51  75 106 138 173 213 257 305
#     4  10  19  33  53  76 102 135 174 212 254 306
#
# _framework density 19.699099
#
# number of rings (size 3 to 8) (size 9 to 14) (size 15 to 20)
#    0.000    2.444    1.111    1.333    0.000    4.889 
#    0.000    1.111    0.000    1.333    0.000    0.000 
#    0.000    0.000    0.000    0.000    0.000    0.000 
#
# Total GULP energy -200936.562875 kJ/mol
# GULP energy per Si atom -5581.571191 kJ/mol
# Density = 1.965426 g / cm^3
# Si number density = 19.699099 Si / 1000 Ang^3
#
#
#
# Elastic Constant Matrix: (Units=GPa)
#
#
# Indices 1 2 3 4 5 6 
#
# 1 103.2703 113.9776 6.4997 0.0000 0.0000 0.0000
# 2 113.9776 220.3850 10.1643 0.0000 0.0000 0.0000
# 3 6.4997 10.1643 13.5766 0.0000 0.0000 0.0000
# 4 0.0000 0.0000 0.0000 19.7318 0.0000 0.0000
# 5 0.0000 0.0000 0.0000 0.0000 7.8111 0.0000
# 6 0.0000 0.0000 0.0000 0.0000 0.0000 44.6587
#
#
#
# Elastic Compliance Matrix: (Units=1/GPa)
#
#
# Indices 1 2 3 4 5 6 
#
# 1 0.022621 -0.011600 -0.002145 0.000000 0.000000 0.000000
# 2 -0.011600 0.010648 -0.002419 0.000000 0.000000 0.000000
# 3 -0.002145 -0.002419 0.076494 0.000000 0.000000 0.000000
# 4 0.000000 0.000000 0.000000 0.050680 0.000000 0.000000
# 5 0.000000 0.000000 0.000000 0.000000 0.128022 0.000000
# 6 0.000000 0.000000 0.000000 0.000000 0.000000 0.022392
#
#
# Mechanical properties :
#
#
# Convention : Reuss Voigt Hill
#
# Bulk Modulus (GPa) = 12.91391 66.50167 39.70779
# Shear Modulus (GPa) = 13.55023 28.21300 20.88161
#
# Velocity S-wave (km/s) = 2.62555 3.78854 3.25934
# Velocity P-wave (km/s) = 3.97004 7.27801 5.86219
#
# Compressibility (1/GPa) = 0.07743587
#
# Stress axis : x y z
#
# Youngs Moduli (GPa) = 44.20603 93.91058 13.07293
#
# Poissons Ratio (x) = 1.08939 0.02804
# Poissons Ratio (y) = 0.51280 0.03162
# Poissons Ratio (z) = 0.09483 0.22713
#
# Static dielectric constant tensor:
#      x y z
#    x 1.690420 0.000000 0.000000 
#    y 0.000000 1.640080 0.000000 
#    z 0.000000 0.000000 1.712890 
# 
# From -- ./inp_files/7794.got.cif
#   From: 2010.05.17/outbox.cif.g08.bks.cpg/sg63_4_cif.got.tgz:7794.got - 2010.06.03 15:47:04.
