data_PCOD9470585
_publ_section_title
;
Structure prediction by ZEFSAII (Michael W. Deem and Ramdas Pophale) SiO2 
 PCOD9470585
Probable space group: C M C M
;
_chemical_formula_sum "Si O2"
_cell_formula_units_Z 96
_cell_length_a 7.678953
_cell_length_b 25.352916
_cell_length_c 24.726055
_cell_angle_alpha 90.000000
_cell_angle_beta 90.000000
_cell_angle_gamma 90.000000
_cell_volume 4813.763592
_symmetry_space_group_name_H-M "C M C M"
_symmetry_group_IT_number 63
_symmetry_cell_setting 'orthorhombic'
loop_
_space_group_symop_operation_xyz
x,y,z
-x,-y,1/2+z
x,-y,-z
-x,y,1/2-z
-x,-y,-z
x,y,1/2-z
-x,y,z
x,-y,1/2+z
1/2+x,1/2+y,z
1/2-x,1/2-y,1/2+z
1/2+x,1/2-y,-z
1/2-x,1/2+y,1/2-z
1/2-x,1/2-y,-z
1/2+x,1/2+y,1/2-z
1/2-x,1/2+y,z
1/2+x,1/2-y,1/2+z
loop_
_atom_site_type_symbol
_atom_site_label
_atom_site_fract_x
_atom_site_fract_y
_atom_site_fract_z
Si Si1 0.291968 0.097286 0.250000
Si Si2 0.204796 0.971122 0.053888
Si Si3 0.210780 0.436369 0.867155
Si Si4 0.288214 0.833494 0.934983
Si Si5 0.704796 0.766801 0.137420
Si Si6 0.704616 0.149298 0.555770
Si Si7 0.711608 0.278467 0.750000
O O1 0.500000 0.089358 0.250000
O O2 0.225201 0.072634 0.306028
O O3 0.261015 0.160005 0.250000
O O4 0.281035 0.913291 0.062250
O O5 0.000000 0.963231 0.045106
O O6 0.232493 0.010132 0.103970
O O7 0.277088 0.000000 0.000000
O O8 0.266788 0.386722 0.903961
O O9 0.000000 0.435896 0.866459
O O10 0.500000 0.832657 0.934768
O O11 0.224357 0.782977 0.902380
O O12 0.224337 0.835044 0.996752
O O13 0.500000 0.776871 0.147032
O O14 0.779837 0.816921 0.105285
O O15 0.777480 0.749761 0.195582
O O16 0.500000 0.162753 0.553521
O O17 0.500000 0.277566 0.750000
#
# Coordination Sequence:
#
# PCOD9470585 Si02
#       7
#     8  16  16  16  16  16   8
#     4  10  20  36  57  82 109 141 182 224 270 325
#     4  11  23  37  56  82 110 142 182 228 276 325
#     4  10  20  35  57  83 110 141 181 224 270 325
#     4  10  19  32  55  83 110 141 177 223 275 324
#     4  10  21  35  53  79 111 145 182 222 269 324
#     4  10  21  37  55  78 110 149 185 221 271 329
#     4  10  20  34  53  78 109 145 180 220 268 317
#
# _framework density 19.942817000000002
#
# number of rings (size 3 to 8) (size 9 to 14) (size 15 to 20)
#    0.000    1.833    3.333    1.000    0.000    3.333 
#    0.000    0.833    0.000    3.000    0.000    0.000 
#    0.000    0.000    0.000    0.000    0.000    0.000 
#
# Total GULP energy -268091.175334 kJ/mol
# GULP energy per Si atom -5585.232819 kJ/mol
# Density = 1.989743 g / cm^3
# Si number density = 19.942817 Si / 1000 Ang^3
#
#
#
# Elastic Constant Matrix: (Units=GPa)
#
#
# Indices 1 2 3 4 5 6 
#
# 1 28.7396 -21.3662 -3.4928 0.0000 0.0000 0.0000
# 2 -21.3662 107.1191 82.1832 0.0000 0.0000 0.0000
# 3 -3.4928 82.1832 185.4099 0.0000 0.0000 0.0000
# 4 0.0000 0.0000 0.0000 37.4914 0.0000 0.0000
# 5 0.0000 0.0000 0.0000 0.0000 7.4299 0.0000
# 6 0.0000 0.0000 0.0000 0.0000 0.0000 19.9183
#
#
#
# Elastic Compliance Matrix: (Units=1/GPa)
#
#
# Indices 1 2 3 4 5 6 
#
# 1 0.043256 0.012127 -0.004560 0.000000 0.000000 0.000000
# 2 0.012127 0.017546 -0.007549 0.000000 0.000000 0.000000
# 3 -0.004560 -0.007549 0.008654 0.000000 0.000000 0.000000
# 4 0.000000 0.000000 0.000000 0.026673 0.000000 0.000000
# 5 0.000000 0.000000 0.000000 0.000000 0.134592 0.000000
# 6 0.000000 0.000000 0.000000 0.000000 0.000000 0.050205
#
#
# Mechanical properties :
#
#
# Convention : Reuss Voigt Hill
#
# Bulk Modulus (GPa) = 14.39032 48.43522 31.41277
# Shear Modulus (GPa) = 16.44448 30.56421 23.50435
#
# Velocity S-wave (km/s) = 2.87467 3.91908 3.43678
# Velocity P-wave (km/s) = 4.27197 6.69468 5.61553
#
# Compressibility (1/GPa) = 0.06949115
#
# Stress axis : x y z
#
# Youngs Moduli (GPa) = 23.11793 56.99401 115.55983
#
# Poissons Ratio (x) = -0.69115 0.52699
# Poissons Ratio (y) = -0.28035 0.87233
# Poissons Ratio (z) = 0.10543 0.43023
#
# Static dielectric constant tensor:
#      x y z
#    x 1.735590 0.000000 0.000000 
#    y 0.000000 1.656240 0.000000 
#    z 0.000000 0.000000 1.723260 
# 
# From -- ./inp_files/60089.got.cif
#   From: 2010.05.17/outbox.cif.g08.bks.cpg/sg63_31_cif.got.tgz:60089.got - 2010.06.03 15:47:04.
