data_PCOD9470131
_publ_section_title
;
Structure prediction by ZEFSAII (Michael W. Deem and Ramdas Pophale) SiO2 
 PCOD9470131
Probable space group: C M C M
;
_chemical_formula_sum "Si O2"
_cell_formula_units_Z 80
_cell_length_a 14.328107
_cell_length_b 35.061855
_cell_length_c 9.197104
_cell_angle_alpha 90.000000
_cell_angle_beta 90.000000
_cell_angle_gamma 90.000000
_cell_volume 4620.349229
_symmetry_space_group_name_H-M "C M C M"
_symmetry_group_IT_number 63
_symmetry_cell_setting 'orthorhombic'
loop_
_space_group_symop_operation_xyz
x,y,z
-x,-y,1/2+z
x,-y,-z
-x,y,1/2-z
-x,-y,-z
x,y,1/2-z
-x,y,z
x,-y,1/2+z
1/2+x,1/2+y,z
1/2-x,1/2-y,1/2+z
1/2+x,1/2-y,-z
1/2-x,1/2+y,1/2-z
1/2-x,1/2-y,-z
1/2+x,1/2+y,1/2-z
1/2-x,1/2+y,z
1/2+x,1/2-y,1/2+z
loop_
_atom_site_type_symbol
_atom_site_label
_atom_site_fract_x
_atom_site_fract_y
_atom_site_fract_z
Si Si1 0.388422 0.688855 0.421278
Si Si2 0.105907 0.650816 0.073048
Si Si3 0.610872 0.540060 0.922554
Si Si4 0.288722 0.389684 0.925770
Si Si5 0.385900 0.235183 0.083001
O O1 0.370149 0.692642 0.250000
O O2 0.500000 0.686136 0.443110
O O3 0.342845 0.649162 0.468341
O O4 0.354725 0.727477 0.497605
O O5 0.104147 0.653210 0.250000
O O6 0.181176 0.618970 0.035836
O O7 0.138216 0.693121 0.024310
O O8 0.000000 0.643710 0.024158
O O9 0.627780 0.537610 0.750000
O O10 0.500000 0.547153 0.944453
O O11 0.633073 0.500000 0.000000
O O12 0.668026 0.574230 0.994878
O O13 0.297013 0.394038 0.750000
O O14 0.355143 0.238030 0.250000
O O15 0.500000 0.235294 0.082674
#
# Coordination Sequence:
#
# PCOD9470131 Si02
#       5
#    16  16  16  16  16
#     4   9  17  27  39  61  95 129 160 199 247 293
#     4   8  15  29  48  69  94 128 171 213 249 284
#     4  10  21  37  57  80 105 130 154 184 228 286
#     4  10  19  31  50  74  99 129 164 202 244 290
#     4   8  14  26  43  61  86 125 169 207 242 283
#
# _framework density 17.314708
#
# number of rings (size 3 to 8) (size 9 to 14) (size 15 to 20)
#    0.000    3.000    0.000    2.400    0.000    3.600 
#    0.000    3.000    0.000    2.400    0.000    0.000 
#    0.000    0.000    0.000    0.000    0.000    0.000 
#
# Total GULP energy -223031.579533 kJ/mol
# GULP energy per Si atom -5575.789488 kJ/mol
# Density = 1.727530 g / cm^3
# Si number density = 17.314708 Si / 1000 Ang^3
#
#
#
# Elastic Constant Matrix: (Units=GPa)
#
#
# Indices 1 2 3 4 5 6 
#
# 1 71.7846 89.2897 48.2486 0.0000 0.0000 0.0000
# 2 89.2897 163.6266 61.0215 0.0000 0.0000 0.0000
# 3 48.2486 61.0215 38.4735 0.0000 0.0000 0.0000
# 4 0.0000 0.0000 0.0000 29.3840 0.0000 0.0000
# 5 0.0000 0.0000 0.0000 0.0000 13.3325 0.0000
# 6 0.0000 0.0000 0.0000 0.0000 0.0000 32.4107
#
#
#
# Elastic Compliance Matrix: (Units=1/GPa)
#
#
# Indices 1 2 3 4 5 6 
#
# 1 0.113125 -0.021602 -0.107604 0.000000 0.000000 0.000000
# 2 -0.021602 0.019086 -0.003180 0.000000 0.000000 0.000000
# 3 -0.107604 -0.003180 0.165980 0.000000 0.000000 0.000000
# 4 0.000000 0.000000 0.000000 0.034032 0.000000 0.000000
# 5 0.000000 0.000000 0.000000 0.000000 0.075005 0.000000
# 6 0.000000 0.000000 0.000000 0.000000 0.000000 0.030854
#
#
# Mechanical properties :
#
#
# Convention : Reuss Voigt Hill
#
# Bulk Modulus (GPa) = 29.92515 74.55603 52.24059
# Shear Modulus (GPa) = 7.00285 20.04710 13.52498
#
# Velocity S-wave (km/s) = 2.01326 3.40635 2.79790
# Velocity P-wave (km/s) = 4.76707 7.65662 6.37764
#
# Compressibility (1/GPa) = 0.03341671
#
# Stress axis : x y z
#
# Youngs Moduli (GPa) = 8.83981 52.39539 6.02481
#
# Poissons Ratio (x) = 1.13185 0.64830
# Poissons Ratio (y) = 0.19096 0.01916
# Poissons Ratio (z) = 0.95120 0.16664
#
# Static dielectric constant tensor:
#      x y z
#    x 1.631790 0.000000 0.000000 
#    y 0.000000 1.563140 0.000000 
#    z 0.000000 0.000000 1.579770 
# 
# From -- ./inp_files/6663.got.cif
#   From: 2010.05.17/outbox.cif.g08.bks.cpg/sg63_4_cif.got.tgz:6663.got - 2010.06.03 15:47:04.
