data_PCOD9470794
_publ_section_title
;
Structure prediction by ZEFSAII (Michael W. Deem and Ramdas Pophale) SiO2 
 PCOD9470794
Probable space group: C M C M
;
_chemical_formula_sum "Si O2"
_cell_formula_units_Z 120
_cell_length_a 23.445685
_cell_length_b 11.800658
_cell_length_c 23.496886
_cell_angle_alpha 90.000000
_cell_angle_beta 90.000000
_cell_angle_gamma 90.000000
_cell_volume 6500.989427
_symmetry_space_group_name_H-M "C M C M"
_symmetry_group_IT_number 63
_symmetry_cell_setting 'orthorhombic'
loop_
_space_group_symop_operation_xyz
x,y,z
-x,-y,1/2+z
x,-y,-z
-x,y,1/2-z
-x,-y,-z
x,y,1/2-z
-x,y,z
x,-y,1/2+z
1/2+x,1/2+y,z
1/2-x,1/2-y,1/2+z
1/2+x,1/2-y,-z
1/2-x,1/2+y,1/2-z
1/2-x,1/2-y,-z
1/2+x,1/2+y,1/2-z
1/2-x,1/2+y,z
1/2+x,1/2-y,1/2+z
loop_
_atom_site_type_symbol
_atom_site_label
_atom_site_fract_x
_atom_site_fract_y
_atom_site_fract_z
Si Si1 0.134497 0.104466 0.815883
Si Si2 0.650625 0.000000 0.000000
Si Si3 0.355089 0.874729 0.684241
Si Si4 0.237899 0.555866 0.683225
Si Si5 0.563387 0.894284 0.912535
Si Si6 0.823968 0.128478 0.995217
Si Si7 0.782201 0.312870 0.426539
Si Si8 0.936342 0.124853 0.575997
O O1 0.115509 0.088409 0.750000
O O2 0.148715 0.239089 0.822645
O O3 0.194432 0.041238 0.824735
O O4 0.089968 0.074796 0.865459
O O5 0.687415 0.913875 0.037935
O O6 0.608496 0.070504 0.040169
O O7 0.366859 0.895849 0.750000
O O8 0.406436 0.922743 0.646753
O O9 0.297331 0.941949 0.669774
O O10 0.229343 0.585281 0.750000
O O11 0.217504 0.652036 0.639173
O O12 0.500000 0.943213 0.920069
O O13 0.558341 0.759063 0.913468
O O14 0.783357 0.190494 0.948834
O O15 0.888426 0.118981 0.972827
O O16 0.813489 0.198777 0.052843
O O17 0.803355 0.000000 0.000000
O O18 0.000000 0.080868 0.563305
#
# Coordination Sequence:
#
# PCOD9470794 Si02
#       8
#    16   8  16  16  16  16  16  16
#     4   9  18  32  51  77 107 138 175 220 275 329
#     4  12  19  34  54  82 109 138 172 228 272 328
#     4   9  18  31  50  76 107 140 174 216 269 327
#     4  10  19  33  54  79 110 141 176 223 272 328
#     4  10  20  32  51  75 106 141 176 220 269 325
#     4  11  23  37  55  82 110 147 183 225 280 336
#     4  11  22  35  57  85 111 142 182 228 278 338
#     4  10  20  35  52  74 106 141 184 227 266 323
#
# _framework density 18.458728000000001
#
# number of rings (size 3 to 8) (size 9 to 14) (size 15 to 20)
#    0.000    1.867    4.667    0.200    0.000    1.867 
#    0.000    2.667    0.000    0.000    0.000    0.000 
#    0.000    0.000    0.000    0.000    0.000    0.000 
#
# Total GULP energy -334534.136814 kJ/mol
# GULP energy per Si atom -5575.568947 kJ/mol
# Density = 1.841672 g / cm^3
# Si number density = 18.458728 Si / 1000 Ang^3
#
#
#
# Elastic Constant Matrix: (Units=GPa)
#
#
# Indices 1 2 3 4 5 6 
#
# 1 128.6066 13.4454 40.0903 0.0000 0.0000 0.0000
# 2 13.4454 29.0400 10.4494 0.0000 0.0000 0.0000
# 3 40.0903 10.4494 41.6724 0.0000 0.0000 0.0000
# 4 0.0000 0.0000 0.0000 11.6793 0.0000 0.0000
# 5 0.0000 0.0000 0.0000 0.0000 6.6860 0.0000
# 6 0.0000 0.0000 0.0000 0.0000 0.0000 19.5757
#
#
#
# Elastic Compliance Matrix: (Units=1/GPa)
#
#
# Indices 1 2 3 4 5 6 
#
# 1 0.011160 -0.001433 -0.010377 0.000000 0.000000 0.000000
# 2 -0.001433 0.038034 -0.008158 0.000000 0.000000 0.000000
# 3 -0.010377 -0.008158 0.036026 0.000000 0.000000 0.000000
# 4 0.000000 0.000000 0.000000 0.085622 0.000000 0.000000
# 5 0.000000 0.000000 0.000000 0.000000 0.149565 0.000000
# 6 0.000000 0.000000 0.000000 0.000000 0.000000 0.051084
#
#
# Mechanical properties :
#
#
# Convention : Reuss Voigt Hill
#
# Bulk Modulus (GPa) = 22.08343 36.36546 29.22444
# Shear Modulus (GPa) = 11.72270 16.61048 14.16659
#
# Velocity S-wave (km/s) = 2.52281 3.00304 2.77334
# Velocity P-wave (km/s) = 4.52501 5.63632 5.11096
#
# Compressibility (1/GPa) = 0.04528283
#
# Stress axis : x y z
#
# Youngs Moduli (GPa) = 89.60267 26.29199 27.75790
#
# Poissons Ratio (x) = 0.03768 0.28805
# Poissons Ratio (y) = 0.12842 0.22646
# Poissons Ratio (z) = 0.92983 0.21450
#
# Static dielectric constant tensor:
#      x y z
#    x 1.663260 0.000000 0.000000 
#    y 0.000000 1.644890 0.000000 
#    z 0.000000 0.000000 1.669390 
# 
# From -- ./inp_files/64733.got.cif
#   From: 2010.05.17/outbox.cif.g08.bks.cpg/sg63_33_cif.got.tgz:64733.got - 2010.06.03 15:47:04.
