data_PCOD9470914
_publ_section_title
;
Structure prediction by ZEFSAII (Michael W. Deem and Ramdas Pophale) SiO2 
 PCOD9470914
Probable space group: C M C M
;
_chemical_formula_sum "Si O2"
_cell_formula_units_Z 96
_cell_length_a 22.562782
_cell_length_b 25.529882
_cell_length_c 8.505852
_cell_angle_alpha 90.000000
_cell_angle_beta 90.000000
_cell_angle_gamma 90.000000
_cell_volume 4899.584777
_symmetry_space_group_name_H-M "C M C M"
_symmetry_group_IT_number 63
_symmetry_cell_setting 'orthorhombic'
loop_
_space_group_symop_operation_xyz
x,y,z
-x,-y,1/2+z
x,-y,-z
-x,y,1/2-z
-x,-y,-z
x,y,1/2-z
-x,y,z
x,-y,1/2+z
1/2+x,1/2+y,z
1/2-x,1/2-y,1/2+z
1/2+x,1/2-y,-z
1/2-x,1/2+y,1/2-z
1/2-x,1/2-y,-z
1/2+x,1/2+y,1/2-z
1/2-x,1/2+y,z
1/2+x,1/2-y,1/2+z
loop_
_atom_site_type_symbol
_atom_site_label
_atom_site_fract_x
_atom_site_fract_y
_atom_site_fract_z
Si Si1 0.224350 0.303242 0.064623
Si Si2 0.139820 0.444228 0.562297
Si Si3 0.269342 0.584354 0.936016
Si Si4 0.000000 0.254298 0.941611
Si Si5 0.500000 0.635084 0.437570
Si Si6 0.598927 0.443539 0.439343
Si Si7 0.400457 0.834765 0.564239
O O1 0.210465 0.299671 0.250000
O O2 0.267738 0.352773 0.044846
O O3 0.250000 0.250000 0.000000
O O4 0.165591 0.315616 0.967920
O O5 0.119225 0.500000 0.500000
O O6 0.137490 0.443869 0.750000
O O7 0.208950 0.436418 0.513859
O O8 0.101594 0.394497 0.501284
O O9 0.264518 0.572559 0.750000
O O10 0.332566 0.563500 0.993391
O O11 0.055367 0.290176 0.995204
O O12 0.000000 0.250340 0.750000
O O13 0.000000 0.195313 0.005196
O O14 0.500000 0.634093 0.250000
O O15 0.557101 0.602927 0.499728
O O16 0.577579 0.500000 0.500000
O O17 0.598097 0.442702 0.250000
O O18 0.412573 0.838666 0.750000
#
# Coordination Sequence:
#
# PCOD9470914 Si02
#       7
#    16  16  16   8   8  16  16
#     4  10  20  34  54  83 117 152 189 234 284 341
#     4  10  19  33  56  86 119 152 188 230 283 342
#     4   9  20  36  56  83 115 151 190 229 280 339
#     4  10  22  43  66  83 111 152 198 244 289 344
#     4  12  27  43  60  85 112 146 192 240 291 346
#     4  11  23  41  62  85 114 151 191 237 286 339
#     4   9  20  38  59  83 111 151 194 237 288 340
#
# _framework density 19.593498
#
# number of rings (size 3 to 8) (size 9 to 14) (size 15 to 20)
#    0.000    2.000    0.000    3.000    2.333    4.667 
#    0.000    0.417    0.000    0.000    0.000    0.000 
#    0.000    0.000    0.000    0.000    0.000    0.000 
#
# Total GULP energy -267857.396231 kJ/mol
# GULP energy per Si atom -5580.362421 kJ/mol
# Density = 1.954890 g / cm^3
# Si number density = 19.593498 Si / 1000 Ang^3
#
#
#
# Elastic Constant Matrix: (Units=GPa)
#
#
# Indices 1 2 3 4 5 6 
#
# 1 66.7862 54.1360 11.9421 0.0000 0.0000 0.0000
# 2 54.1360 183.5977 28.6723 0.0000 0.0000 0.0000
# 3 11.9421 28.6723 36.6397 0.0000 0.0000 0.0000
# 4 0.0000 0.0000 0.0000 35.0270 0.0000 0.0000
# 5 0.0000 0.0000 0.0000 0.0000 14.8626 0.0000
# 6 0.0000 0.0000 0.0000 0.0000 0.0000 19.8186
#
#
#
# Elastic Compliance Matrix: (Units=1/GPa)
#
#
# Indices 1 2 3 4 5 6 
#
# 1 0.019823 -0.005509 -0.002150 0.000000 0.000000 0.000000
# 2 -0.005509 0.007736 -0.004258 0.000000 0.000000 0.000000
# 3 -0.002150 -0.004258 0.031326 0.000000 0.000000 0.000000
# 4 0.000000 0.000000 0.000000 0.028549 0.000000 0.000000
# 5 0.000000 0.000000 0.000000 0.000000 0.067283 0.000000
# 6 0.000000 0.000000 0.000000 0.000000 0.000000 0.050458
#
#
# Mechanical properties :
#
#
# Convention : Reuss Voigt Hill
#
# Bulk Modulus (GPa) = 28.53019 52.94715 40.73867
# Shear Modulus (GPa) = 20.77329 26.75986 23.76658
#
# Velocity S-wave (km/s) = 3.25962 3.69962 3.48657
# Velocity P-wave (km/s) = 5.36279 6.73283 6.08648
#
# Compressibility (1/GPa) = 0.03505059
#
# Stress axis : x y z
#
# Youngs Moduli (GPa) = 50.44536 129.26199 31.92264
#
# Poissons Ratio (x) = 0.71216 0.06862
# Poissons Ratio (y) = 0.27793 0.13593
# Poissons Ratio (z) = 0.10844 0.55043
#
# Static dielectric constant tensor:
#      x y z
#    x 1.682370 0.000000 0.000000 
#    y 0.000000 1.693150 0.000000 
#    z 0.000000 0.000000 1.678260 
# 
# From -- ./inp_files/10521.got.cif
#   From: 2010.05.17/outbox.cif.g08.bks.cpg/sg63_6_cif.got.tgz:10521.got - 2010.06.03 15:47:04.
