data_PCOD9470797
_publ_section_title
;
Structure prediction by ZEFSAII (Michael W. Deem and Ramdas Pophale) SiO2 
 PCOD9470797
Probable space group: C M C M
;
_chemical_formula_sum "Si O2"
_cell_formula_units_Z 88
_cell_length_a 28.952845
_cell_length_b 19.803523
_cell_length_c 7.496935
_cell_angle_alpha 90.000000
_cell_angle_beta 90.000000
_cell_angle_gamma 90.000000
_cell_volume 4298.505115
_symmetry_space_group_name_H-M "C M C M"
_symmetry_group_IT_number 63
_symmetry_cell_setting 'orthorhombic'
loop_
_space_group_symop_operation_xyz
x,y,z
-x,-y,1/2+z
x,-y,-z
-x,y,1/2-z
-x,-y,-z
x,y,1/2-z
-x,y,z
x,-y,1/2+z
1/2+x,1/2+y,z
1/2-x,1/2-y,1/2+z
1/2+x,1/2-y,-z
1/2-x,1/2+y,1/2-z
1/2-x,1/2-y,-z
1/2+x,1/2+y,1/2-z
1/2-x,1/2+y,z
1/2+x,1/2-y,1/2+z
loop_
_atom_site_type_symbol
_atom_site_label
_atom_site_fract_x
_atom_site_fract_y
_atom_site_fract_z
Si Si1 0.912691 0.661677 0.541806
Si Si2 0.374057 0.422281 0.463753
Si Si3 0.052767 0.188293 0.533603
Si Si4 0.687416 0.192326 0.966786
Si Si5 0.213211 0.153855 0.960443
Si Si6 0.500000 0.079226 0.964336
O O1 0.908317 0.643271 0.750000
O O2 0.929659 0.738888 0.528566
O O3 0.860637 0.660999 0.467303
O O4 0.953414 0.615083 0.465338
O O5 0.383867 0.500000 0.500000
O O6 0.372701 0.413904 0.250000
O O7 0.413291 0.370896 0.529022
O O8 0.324015 0.398603 0.534323
O O9 0.053461 0.189461 0.750000
O O10 0.000000 0.177779 0.476803
O O11 0.687165 0.190972 0.750000
O O12 0.734612 0.157263 0.032215
O O13 0.691800 0.271129 0.018096
O O14 0.217961 0.140539 0.750000
O O15 0.500000 0.090040 0.750000
O O16 0.500000 0.000000 0.000000
#
# Coordination Sequence:
#
# PCOD9470797 Si02
#       6
#    16  16  16  16  16   8
#     4  10  19  33  54  80 106 132 168 213 256 304
#     4  10  21  35  50  71 104 142 176 214 258 305
#     4  10  20  34  53  77 103 133 173 216 258 305
#     4   9  17  29  51  78 101 128 164 210 257 299
#     4   9  17  31  49  73 103 132 166 209 254 301
#     4  10  22  38  54  76 107 138 169 206 255 310
#
# _framework density 20.472235000000001
#
# number of rings (size 3 to 8) (size 9 to 14) (size 15 to 20)
#    0.000    2.364    2.727    0.000    0.000    2.545 
#    0.000    0.909    0.000    0.000    0.000    0.000 
#    0.000    0.000    0.000    0.000    0.000    0.000 
#
# Total GULP energy -245540.928952 kJ/mol
# GULP energy per Si atom -5580.475658 kJ/mol
# Density = 2.042564 g / cm^3
# Si number density = 20.472235 Si / 1000 Ang^3
#
#
#
# Elastic Constant Matrix: (Units=GPa)
#
#
# Indices 1 2 3 4 5 6 
#
# 1 191.0480 68.1760 -1.4441 0.0000 0.0000 0.0000
# 2 68.1760 100.1837 -14.3997 0.0000 0.0000 0.0000
# 3 -1.4441 -14.3997 50.8713 0.0000 0.0000 0.0000
# 4 0.0000 0.0000 0.0000 19.1598 0.0000 0.0000
# 5 0.0000 0.0000 0.0000 0.0000 5.4085 0.0000
# 6 0.0000 0.0000 0.0000 0.0000 0.0000 32.3189
#
#
#
# Elastic Compliance Matrix: (Units=1/GPa)
#
#
# Indices 1 2 3 4 5 6 
#
# 1 0.006982 -0.004923 -0.001195 0.000000 0.000000 0.000000
# 2 -0.004923 0.013876 0.003788 0.000000 0.000000 0.000000
# 3 -0.001195 0.003788 0.020696 0.000000 0.000000 0.000000
# 4 0.000000 0.000000 0.000000 0.052193 0.000000 0.000000
# 5 0.000000 0.000000 0.000000 0.000000 0.184894 0.000000
# 6 0.000000 0.000000 0.000000 0.000000 0.000000 0.030942
#
#
# Mechanical properties :
#
#
# Convention : Reuss Voigt Hill
#
# Bulk Modulus (GPa) = 27.10509 49.64084 38.37296
# Shear Modulus (GPa) = 15.31200 30.69548 23.00374
#
# Velocity S-wave (km/s) = 2.73782 3.87637 3.35573
# Velocity P-wave (km/s) = 4.82316 6.65849 5.81371
#
# Compressibility (1/GPa) = 0.03689344
#
# Stress axis : x y z
#
# Youngs Moduli (GPa) = 143.22310 72.06456 48.31901
#
# Poissons Ratio (x) = 0.35479 0.05776
# Poissons Ratio (y) = 0.70512 -0.18304
# Poissons Ratio (z) = 0.17121 -0.27299
#
# Static dielectric constant tensor:
#      x y z
#    x 1.774080 0.000000 0.000000 
#    y 0.000000 1.665870 0.000000 
#    z 0.000000 0.000000 1.762580 
# 
# From -- ./inp_files/14195.got.cif
#   From: 2010.05.17/outbox.cif.g08.bks.cpg/sg63_8_cif.got.tgz:14195.got - 2010.06.03 15:47:04.
