data_PCOD9470677
_publ_section_title
;
Structure prediction by ZEFSAII (Michael W. Deem and Ramdas Pophale) SiO2 
 PCOD9470677
Probable space group: C M C M
;
_chemical_formula_sum "Si O2"
_cell_formula_units_Z 96
_cell_length_a 10.030241
_cell_length_b 20.897888
_cell_length_c 25.582386
_cell_angle_alpha 90.000000
_cell_angle_beta 90.000000
_cell_angle_gamma 90.000000
_cell_volume 5362.345752
_symmetry_space_group_name_H-M "C M C M"
_symmetry_group_IT_number 63
_symmetry_cell_setting 'orthorhombic'
loop_
_space_group_symop_operation_xyz
x,y,z
-x,-y,1/2+z
x,-y,-z
-x,y,1/2-z
-x,-y,-z
x,y,1/2-z
-x,y,z
x,-y,1/2+z
1/2+x,1/2+y,z
1/2-x,1/2-y,1/2+z
1/2+x,1/2-y,-z
1/2-x,1/2+y,1/2-z
1/2-x,1/2-y,-z
1/2+x,1/2+y,1/2-z
1/2-x,1/2+y,z
1/2+x,1/2-y,1/2+z
loop_
_atom_site_type_symbol
_atom_site_label
_atom_site_fract_x
_atom_site_fract_y
_atom_site_fract_z
Si Si1 0.348978 0.150935 0.488268
Si Si2 0.851114 0.044632 0.450162
Si Si3 0.657989 0.980035 0.367217
Si Si4 0.655210 0.780326 0.616316
Si Si5 0.339792 0.894786 0.692533
Si Si6 0.153294 0.333937 0.113680
O O1 0.500000 0.123600 0.479798
O O2 0.231488 0.105166 0.469841
O O3 0.339767 0.208562 0.446505
O O4 0.337643 0.162293 0.550100
O O5 0.000000 0.059584 0.429600
O O6 0.866265 0.000000 0.500000
O O7 0.756509 0.006290 0.411071
O O8 0.500000 0.986703 0.381273
O O9 0.681254 0.904198 0.362329
O O10 0.684558 0.030671 0.320860
O O11 0.500000 0.769043 0.629370
O O12 0.700523 0.845070 0.646860
O O13 0.746081 0.720766 0.631328
O O14 0.286551 0.878129 0.750000
O O15 0.500000 0.889129 0.694099
O O16 0.000000 0.317426 0.125990
#
# Coordination Sequence:
#
# PCOD9470677 Si02
#       6
#    16  16  16  16  16  16
#     4  10  19  33  52  75 106 147 187 216 254 314
#     4  11  21  30  47  79 113 143 176 218 264 311
#     4  10  19  35  57  77 104 141 182 223 265 316
#     4  10  20  34  54  78 107 144 180 218 263 314
#     4   9  18  35  60  84 101 129 181 232 269 314
#     4  10  21  33  51  79 112 146 175 214 264 317
#
# _framework density 17.902612000000001
#
# number of rings (size 3 to 8) (size 9 to 14) (size 15 to 20)
#    0.000    2.000    3.333    1.000    0.000    2.667 
#    0.000    0.833    0.000    3.000    0.000    0.000 
#    0.000    0.000    0.000    0.000    0.000    0.000 
#
# Total GULP energy -267218.159233 kJ/mol
# GULP energy per Si atom -5567.044984 kJ/mol
# Density = 1.786186 g / cm^3
# Si number density = 17.902612 Si / 1000 Ang^3
#
#
#
# Elastic Constant Matrix: (Units=GPa)
#
#
# Indices 1 2 3 4 5 6 
#
# 1 73.9542 53.7495 3.5219 0.0000 0.0000 0.0000
# 2 53.7495 108.6865 19.8565 0.0000 0.0000 0.0000
# 3 3.5219 19.8565 47.4756 0.0000 0.0000 0.0000
# 4 0.0000 0.0000 0.0000 10.8235 0.0000 0.0000
# 5 0.0000 0.0000 0.0000 0.0000 10.0859 0.0000
# 6 0.0000 0.0000 0.0000 0.0000 0.0000 35.4804
#
#
#
# Elastic Compliance Matrix: (Units=1/GPa)
#
#
# Indices 1 2 3 4 5 6 
#
# 1 0.021520 -0.011207 0.003091 0.000000 0.000000 0.000000
# 2 -0.011207 0.015798 -0.005776 0.000000 0.000000 0.000000
# 3 0.003091 -0.005776 0.023250 0.000000 0.000000 0.000000
# 4 0.000000 0.000000 0.000000 0.092391 0.000000 0.000000
# 5 0.000000 0.000000 0.000000 0.000000 0.099149 0.000000
# 6 0.000000 0.000000 0.000000 0.000000 0.000000 0.028185
#
#
# Mechanical properties :
#
#
# Convention : Reuss Voigt Hill
#
# Bulk Modulus (GPa) = 30.50312 42.70799 36.60555
# Shear Modulus (GPa) = 15.67371 21.47719 18.57545
#
# Velocity S-wave (km/s) = 2.96209 3.46738 3.22465
# Velocity P-wave (km/s) = 5.36414 6.31964 5.86139
#
# Compressibility (1/GPa) = 0.03278353
#
# Stress axis : x y z
#
# Youngs Moduli (GPa) = 46.46855 63.29764 43.01064
#
# Poissons Ratio (x) = 0.70938 -0.13294
# Poissons Ratio (y) = 0.52078 0.24844
# Poissons Ratio (z) = -0.14363 0.36562
#
# Static dielectric constant tensor:
#      x y z
#    x 1.617270 0.000000 0.000000 
#    y 0.000000 1.629360 0.000000 
#    z 0.000000 0.000000 1.654180 
# 
# From -- ./inp_files/66894.got.cif
#   From: 2010.05.17/outbox.cif.g08.bks.cpg/sg63_34_cif.got.tgz:66894.got - 2010.06.03 15:47:04.
