data_PCOD9470059
_publ_section_title
;
Structure prediction by ZEFSAII (Michael W. Deem and Ramdas Pophale) SiO2 
 PCOD9470059
Probable space group: C M C M
;
_chemical_formula_sum "Si O2"
_cell_formula_units_Z 96
_cell_length_a 8.082890
_cell_length_b 33.294017
_cell_length_c 19.202360
_cell_angle_alpha 90.000000
_cell_angle_beta 90.000000
_cell_angle_gamma 90.000000
_cell_volume 5167.583144
_symmetry_space_group_name_H-M "C M C M"
_symmetry_group_IT_number 63
_symmetry_cell_setting 'orthorhombic'
loop_
_space_group_symop_operation_xyz
x,y,z
-x,-y,1/2+z
x,-y,-z
-x,y,1/2-z
-x,-y,-z
x,y,1/2-z
-x,y,z
x,-y,1/2+z
1/2+x,1/2+y,z
1/2-x,1/2-y,1/2+z
1/2+x,1/2-y,-z
1/2-x,1/2+y,1/2-z
1/2-x,1/2-y,-z
1/2+x,1/2+y,1/2-z
1/2-x,1/2+y,z
1/2+x,1/2-y,1/2+z
loop_
_atom_site_type_symbol
_atom_site_label
_atom_site_fract_x
_atom_site_fract_y
_atom_site_fract_z
Si Si1 0.798069 0.416221 0.171580
Si Si2 0.802272 0.759462 0.329903
Si Si3 0.799974 0.830775 0.670745
Si Si4 0.304301 0.836996 0.089445
Si Si5 0.193922 0.118516 0.042609
Si Si6 0.196162 0.459961 0.035408
O O1 0.739881 0.423789 0.250000
O O2 0.753778 0.371492 0.145002
O O3 0.738398 0.446682 0.111458
O O4 0.000000 0.417780 0.172520
O O5 0.743356 0.766041 0.250000
O O6 0.752651 0.714245 0.349470
O O7 0.732144 0.793510 0.379929
O O8 0.000000 0.762406 0.330349
O O9 0.742624 0.838007 0.750000
O O10 0.740858 0.863124 0.614602
O O11 0.000000 0.831816 0.670558
O O12 0.500000 0.841590 0.077658
O O13 0.216281 0.848004 0.017429
O O14 0.000000 0.109526 0.050234
O O15 0.279553 0.078446 0.014300
O O16 0.000000 0.466342 0.044787
O O17 0.266759 0.500000 0.000000
#
# Coordination Sequence:
#
# PCOD9470059 Si02
#       6
#    16  16  16  16  16  16
#     4   8  14  26  46  70  94 124 162 198 232 278
#     4  10  20  32  48  73 103 133 168 211 251 285
#     4   9  19  36  54  70  93 130 172 208 245 294
#     4  10  19  31  49  72 100 134 168 203 247 301
#     4  10  20  34  53  75  97 124 162 207 253 298
#     4   9  18  33  52  74 101 130 160 197 244 302
#
# _framework density 18.577349999999999
#
# number of rings (size 3 to 8) (size 9 to 14) (size 15 to 20)
#    0.000    2.667    0.000    3.000    0.000    4.000 
#    0.000    0.833    0.000    5.500    0.000    0.000 
#    0.000    0.000    0.000    0.000    0.000    0.000 
#
# Total GULP energy -267681.573753 kJ/mol
# GULP energy per Si atom -5576.699453 kJ/mol
# Density = 1.853507 g / cm^3
# Si number density = 18.577350 Si / 1000 Ang^3
#
#
#
# Elastic Constant Matrix: (Units=GPa)
#
#
# Indices 1 2 3 4 5 6 
#
# 1 10.8787 -8.7091 -1.4445 0.0000 0.0000 0.0000
# 2 -8.7091 76.7682 74.3745 0.0000 0.0000 0.0000
# 3 -1.4445 74.3745 124.6377 0.0000 0.0000 0.0000
# 4 0.0000 0.0000 0.0000 24.1621 0.0000 0.0000
# 5 0.0000 0.0000 0.0000 0.0000 15.2589 0.0000
# 6 0.0000 0.0000 0.0000 0.0000 0.0000 16.3776
#
#
#
# Elastic Compliance Matrix: (Units=1/GPa)
#
#
# Indices 1 2 3 4 5 6 
#
# 1 0.111600 0.027040 -0.014842 0.000000 0.000000 0.000000
# 2 0.027040 0.037428 -0.022021 0.000000 0.000000 0.000000
# 3 -0.014842 -0.022021 0.020992 0.000000 0.000000 0.000000
# 4 0.000000 0.000000 0.000000 0.041387 0.000000 0.000000
# 5 0.000000 0.000000 0.000000 0.000000 0.065535 0.000000
# 6 0.000000 0.000000 0.000000 0.000000 0.000000 0.061059
#
#
# Mechanical properties :
#
#
# Convention : Reuss Voigt Hill
#
# Bulk Modulus (GPa) = 6.65012 37.85848 22.25430
# Shear Modulus (GPa) = 12.26176 21.03063 16.64620
#
# Velocity S-wave (km/s) = 2.57191 3.36826 2.99665
# Velocity P-wave (km/s) = 3.52237 5.96238 4.89679
#
# Compressibility (1/GPa) = 0.15037331
#
# Stress axis : x y z
#
# Youngs Moduli (GPa) = 8.96060 26.71785 47.63786
#
# Poissons Ratio (x) = -0.72244 0.70704
# Poissons Ratio (y) = -0.24229 1.04903
# Poissons Ratio (z) = 0.13299 0.58835
#
# Static dielectric constant tensor:
#      x y z
#    x 1.652960 0.000000 0.000000 
#    y 0.000000 1.613870 0.000000 
#    z 0.000000 0.000000 1.657330 
# 
# From -- ./inp_files/51375.got.cif
#   From: 2010.05.17/outbox.cif.g08.bks.cpg/sg63_26_cif.got.tgz:51375.got - 2010.06.03 15:47:04.
