data_PCOD9470093
_publ_section_title
;
Structure prediction by ZEFSAII (Michael W. Deem and Ramdas Pophale) SiO2 
 PCOD9470093
Probable space group: C M C M
;
_chemical_formula_sum "Si O2"
_cell_formula_units_Z 96
_cell_length_a 31.827677
_cell_length_b 9.416522
_cell_length_c 14.389828
_cell_angle_alpha 90.000000
_cell_angle_beta 90.000000
_cell_angle_gamma 90.000000
_cell_volume 4312.718088
_symmetry_space_group_name_H-M "C M C M"
_symmetry_group_IT_number 63
_symmetry_cell_setting 'orthorhombic'
loop_
_space_group_symop_operation_xyz
x,y,z
-x,-y,1/2+z
x,-y,-z
-x,y,1/2-z
-x,-y,-z
x,y,1/2-z
-x,y,z
x,-y,1/2+z
1/2+x,1/2+y,z
1/2-x,1/2-y,1/2+z
1/2+x,1/2-y,-z
1/2-x,1/2+y,1/2-z
1/2-x,1/2-y,-z
1/2+x,1/2+y,1/2-z
1/2-x,1/2+y,z
1/2+x,1/2-y,1/2+z
loop_
_atom_site_type_symbol
_atom_site_label
_atom_site_fract_x
_atom_site_fract_y
_atom_site_fract_z
Si Si1 0.710579 0.310761 0.636685
Si Si2 0.206915 0.484068 0.636140
Si Si3 0.547124 0.986737 0.610361
Si Si4 0.546580 0.686020 0.357530
Si Si5 0.127367 0.980128 0.635611
Si Si6 0.871545 0.697528 0.141037
O O1 0.710860 0.309825 0.750000
O O2 0.752371 0.394110 0.607865
O O3 0.668824 0.394329 0.607867
O O4 0.709743 0.147374 0.606275
O O5 0.206380 0.487055 0.750000
O O6 0.164561 0.406028 0.603294
O O7 0.500000 0.948092 0.642491
O O8 0.556886 0.146355 0.643491
O O9 0.545993 0.000000 0.500000
O O10 0.583162 0.876164 0.634536
O O11 0.543069 0.641840 0.250000
O O12 0.500000 0.669879 0.401062
O O13 0.584997 0.597462 0.397519
O O14 0.126678 0.978011 0.750000
O O15 0.128902 0.142912 0.603692
O O16 0.861615 0.713030 0.250000
#
# Coordination Sequence:
#
# PCOD9470093 Si02
#       6
#    16  16  16  16  16  16
#     4   9  15  24  39  64 100 133 160 195 240 285
#     4   9  16  25  41  67  99 132 163 198 240 284
#     4  10  21  36  52  71  96 127 163 201 243 293
#     4   9  17  31  51  73  97 126 160 199 244 291
#     4   9  17  28  45  72 103 131 162 202 245 289
#     4  10  19  31  49  74 100 126 161 203 246 289
#
# _framework density 22.259744999999999
#
# number of rings (size 3 to 8) (size 9 to 14) (size 15 to 20)
#    0.000    2.667    0.000    2.500    0.000    8.333 
#    0.000    2.500    0.000    3.000    0.000   10.500 
#    0.000    0.000    0.000    0.000    0.000    0.000 
#
# Total GULP energy -268210.776144 kJ/mol
# GULP energy per Si atom -5587.724503 kJ/mol
# Density = 2.220908 g / cm^3
# Si number density = 22.259745 Si / 1000 Ang^3
#
#
#
# Elastic Constant Matrix: (Units=GPa)
#
#
# Indices 1 2 3 4 5 6 
#
# 1 199.4814 158.9496 1.8114 0.0000 0.0000 0.0000
# 2 158.9496 230.7467 -3.2471 0.0000 0.0000 0.0000
# 3 1.8114 -3.2471 59.3487 0.0000 0.0000 0.0000
# 4 0.0000 0.0000 0.0000 -18.7483 0.0000 0.0000
# 5 0.0000 0.0000 0.0000 0.0000 -6.8463 0.0000
# 6 0.0000 0.0000 0.0000 0.0000 0.0000 -306.0647
#
#
#
# Elastic Compliance Matrix: (Units=1/GPa)
#
#
# Indices 1 2 3 4 5 6 
#
# 1 0.011147 -0.007689 -0.000761 0.000000 0.000000 0.000000
# 2 -0.007689 0.009641 0.000762 0.000000 0.000000 0.000000
# 3 -0.000761 0.000762 0.016914 0.000000 0.000000 0.000000
# 4 0.000000 0.000000 0.000000 -0.053338 0.000000 0.000000
# 5 0.000000 0.000000 0.000000 0.000000 -0.146063 0.000000
# 6 0.000000 0.000000 0.000000 0.000000 0.000000 -0.003267
#
#
# Mechanical properties :
#
#
# Convention : Reuss Voigt Hill
#
# Bulk Modulus (GPa) = 44.78953 89.40049 67.09501
# Shear Modulus (GPa) = -35.17445 -44.19434 -39.68439
#
# Velocity S-wave (km/s) = -3.97946 -4.46061 -4.22689
# Velocity P-wave (km/s) = 0.97460 3.70408 2.52689
#
# Compressibility (1/GPa) = 0.02232665
#
# Stress axis : x y z
#
# Youngs Moduli (GPa) = 89.71284 103.72265 59.12089
#
# Poissons Ratio (x) = 0.79753 0.04498
# Poissons Ratio (y) = 0.68981 -0.04506
# Poissons Ratio (z) = 0.06826 -0.07905
#
# Static dielectric constant tensor:
#      x y z
#    x 1.795940 0.000000 0.000000 
#    y 0.000000 1.771240 0.000000 
#    z 0.000000 0.000000 1.855360 
# 
# From -- ./inp_files/58047.got.cif
#   From: 2010.05.17/outbox.cif.g08.bks.cpg/sg63_30_cif.got.tgz:58047.got - 2010.06.03 15:47:04.
