data_PCOD9470216
_publ_section_title
;
Structure prediction by ZEFSAII (Michael W. Deem and Ramdas Pophale) SiO2 
 PCOD9470216
Probable space group: C M C M
;
_chemical_formula_sum "Si O2"
_cell_formula_units_Z 80
_cell_length_a 7.333252
_cell_length_b 25.678583
_cell_length_c 18.997562
_cell_angle_alpha 90.000000
_cell_angle_beta 90.000000
_cell_angle_gamma 90.000000
_cell_volume 3577.383789
_symmetry_space_group_name_H-M "C M C M"
_symmetry_group_IT_number 63
_symmetry_cell_setting 'orthorhombic'
loop_
_space_group_symop_operation_xyz
x,y,z
-x,-y,1/2+z
x,-y,-z
-x,y,1/2-z
-x,-y,-z
x,y,1/2-z
-x,y,z
x,-y,1/2+z
1/2+x,1/2+y,z
1/2-x,1/2-y,1/2+z
1/2+x,1/2-y,-z
1/2-x,1/2+y,1/2-z
1/2-x,1/2-y,-z
1/2+x,1/2+y,1/2-z
1/2-x,1/2+y,z
1/2+x,1/2-y,1/2+z
loop_
_atom_site_type_symbol
_atom_site_label
_atom_site_fract_x
_atom_site_fract_y
_atom_site_fract_z
Si Si1 0.777637 0.327801 0.572170
Si Si2 0.722332 0.020941 0.923123
Si Si3 0.277930 0.075141 0.330210
Si Si4 0.280890 0.860549 0.418476
Si Si5 0.715000 0.263325 0.171565
O O1 0.724217 0.377448 0.619271
O O2 0.715346 0.335791 0.492235
O O3 0.713180 0.276082 0.612160
O O4 0.000000 0.326918 0.569649
O O5 0.500000 0.021327 0.922900
O O6 0.783476 0.080075 0.911631
O O7 0.779651 0.979378 0.864609
O O8 0.776800 0.000000 0.000000
O O9 0.217552 0.081835 0.250000
O O10 0.500000 0.075378 0.329546
O O11 0.500000 0.862977 0.422435
O O12 0.235203 0.822039 0.355258
O O13 0.790369 0.255540 0.250000
O O14 0.500000 0.252038 0.175979
#
# Coordination Sequence:
#
# PCOD9470216 Si02
#       5
#    16  16  16  16  16
#     4   9  16  29  48  70  94 124 163 204 244 285
#     4   9  15  26  43  68 101 129 152 190 245 294
#     4   9  15  23  40  67  96 125 158 198 243 287
#     4  10  19  31  52  76  99 127 160 201 246 293
#     4  10  21  35  49  68  98 133 167 203 241 285
#
# _framework density 22.362711999999998
#
# number of rings (size 3 to 8) (size 9 to 14) (size 15 to 20)
#    0.000    2.600    2.000    1.200    0.000    3.600 
#    0.000    2.000    0.000    0.600    0.000    0.000 
#    0.000    1.600    0.000    0.000    0.000    0.000 
#
# Total GULP energy -223546.022674 kJ/mol
# GULP energy per Si atom -5588.650567 kJ/mol
# Density = 2.231181 g / cm^3
# Si number density = 22.362712 Si / 1000 Ang^3
#
#
#
# Elastic Constant Matrix: (Units=GPa)
#
#
# Indices 1 2 3 4 5 6 
#
# 1 85.7272 -8.6494 -4.9635 0.0000 0.0000 0.0000
# 2 -8.6494 100.8824 -6.7308 0.0000 0.0000 0.0000
# 3 -4.9635 -6.7308 54.5218 0.0000 0.0000 0.0000
# 4 0.0000 0.0000 0.0000 20.7004 0.0000 0.0000
# 5 0.0000 0.0000 0.0000 0.0000 -2.1225 0.0000
# 6 0.0000 0.0000 0.0000 0.0000 0.0000 1.2616
#
#
#
# Elastic Compliance Matrix: (Units=1/GPa)
#
#
# Indices 1 2 3 4 5 6 
#
# 1 0.011846 0.001097 0.001214 0.000000 0.000000 0.000000
# 2 0.001097 0.010096 0.001346 0.000000 0.000000 0.000000
# 3 0.001214 0.001346 0.018618 0.000000 0.000000 0.000000
# 4 0.000000 0.000000 0.000000 0.048308 0.000000 0.000000
# 5 0.000000 0.000000 0.000000 0.000000 -0.471143 0.000000
# 6 0.000000 0.000000 0.000000 0.000000 0.000000 0.792655
#
#
# Mechanical properties :
#
#
# Convention : Reuss Voigt Hill
#
# Bulk Modulus (GPa) = 20.88837 22.27153 21.57995
# Shear Modulus (GPa) = 11.93247 21.39957 16.66602
#
# Velocity S-wave (km/s) = 2.31246 3.09679 2.73291
# Velocity P-wave (km/s) = 4.06090 4.77154 4.43049
#
# Compressibility (1/GPa) = 0.04787354
#
# Stress axis : x y z
#
# Youngs Moduli (GPa) = 84.41790 99.04545 53.71148
#
# Poissons Ratio (x) = -0.10862 -0.06519
# Poissons Ratio (y) = -0.09257 -0.07231
# Poissons Ratio (z) = -0.10247 -0.13334
#
# Static dielectric constant tensor:
#      x y z
#    x 1.915980 0.000000 0.000000 
#    y 0.000000 1.785510 0.000000 
#    z 0.000000 0.000000 1.772690 
# 
# From -- ./inp_files/29719.got.cif
#   From: 2010.05.17/outbox.cif.g08.bks.cpg/sg63_15_cif.got.tgz:29719.got - 2010.06.03 15:47:04.
