data_PCOD9470728
_publ_section_title
;
Structure prediction by ZEFSAII (Michael W. Deem and Ramdas Pophale) SiO2 
 PCOD9470728
Probable space group: C M C M
;
_chemical_formula_sum "Si O2"
_cell_formula_units_Z 96
_cell_length_a 12.487327
_cell_length_b 22.656056
_cell_length_c 20.658727
_cell_angle_alpha 90.000000
_cell_angle_beta 90.000000
_cell_angle_gamma 90.000000
_cell_volume 5844.634410
_symmetry_space_group_name_H-M "C M C M"
_symmetry_group_IT_number 63
_symmetry_cell_setting 'orthorhombic'
loop_
_space_group_symop_operation_xyz
x,y,z
-x,-y,1/2+z
x,-y,-z
-x,y,1/2-z
-x,-y,-z
x,y,1/2-z
-x,y,z
x,-y,1/2+z
1/2+x,1/2+y,z
1/2-x,1/2-y,1/2+z
1/2+x,1/2-y,-z
1/2-x,1/2+y,1/2-z
1/2-x,1/2-y,-z
1/2+x,1/2+y,1/2-z
1/2-x,1/2+y,z
1/2+x,1/2-y,1/2+z
loop_
_atom_site_type_symbol
_atom_site_label
_atom_site_fract_x
_atom_site_fract_y
_atom_site_fract_z
Si Si1 0.228051 0.737088 0.894889
Si Si2 0.123106 0.145966 0.674910
Si Si3 0.372939 0.654605 0.175459
Si Si4 0.283160 0.422316 0.941420
Si Si5 0.127422 0.324200 0.982054
Si Si6 0.122941 0.953594 0.429317
O O1 0.295895 0.695286 0.848694
O O2 0.155323 0.781117 0.853105
O O3 0.311085 0.778226 0.935006
O O4 0.162446 0.697666 0.946430
O O5 0.136825 0.132394 0.750000
O O6 0.138718 0.088461 0.631181
O O7 0.000000 0.165801 0.664586
O O8 0.334747 0.648232 0.250000
O O9 0.500000 0.646108 0.175404
O O10 0.323032 0.609316 0.123648
O O11 0.175716 0.388623 0.963943
O O12 0.293437 0.492404 0.929382
O O13 0.359868 0.416211 0.004731
O O14 0.000000 0.322088 0.974833
O O15 0.000000 0.976194 0.428097
#
# Coordination Sequence:
#
# PCOD9470728 Si02
#       6
#    16  16  16  16  16  16
#     4  10  19  34  51  74 107 139 167 209 262 306
#     4  10  20  33  52  78 106 136 169 208 256 310
#     4  10  20  32  50  77 105 135 168 205 254 309
#     4  10  19  34  53  74 102 133 170 213 259 297
#     4  10  20  33  53  79 103 133 177 218 256 304
#     4  10  19  33  53  77 103 135 171 210 260 306
#
# _framework density 16.425321
#
# number of rings (size 3 to 8) (size 9 to 14) (size 15 to 20)
#    0.000    2.000    1.667    3.500    0.000    0.667 
#    0.000    3.333    0.000    4.500    0.000    0.000 
#    0.000    0.000    0.000    0.000    0.000    0.000 
#
# Total GULP energy -267422.161376 kJ/mol
# GULP energy per Si atom -5571.295029 kJ/mol
# Density = 1.638794 g / cm^3
# Si number density = 16.425321 Si / 1000 Ang^3
#
#
#
# Elastic Constant Matrix: (Units=GPa)
#
#
# Indices 1 2 3 4 5 6 
#
# 1 61.0464 10.5889 18.9600 0.0000 0.0000 0.0000
# 2 10.5889 41.3055 25.7887 0.0000 0.0000 0.0000
# 3 18.9600 25.7887 110.8061 0.0000 0.0000 0.0000
# 4 0.0000 0.0000 0.0000 7.4072 0.0000 0.0000
# 5 0.0000 0.0000 0.0000 0.0000 23.0506 0.0000
# 6 0.0000 0.0000 0.0000 0.0000 0.0000 18.5143
#
#
#
# Elastic Compliance Matrix: (Units=1/GPa)
#
#
# Indices 1 2 3 4 5 6 
#
# 1 0.017630 -0.003084 -0.002299 0.000000 0.000000 0.000000
# 2 -0.003084 0.028865 -0.006190 0.000000 0.000000 0.000000
# 3 -0.002299 -0.006190 0.010859 0.000000 0.000000 0.000000
# 4 0.000000 0.000000 0.000000 0.135004 0.000000 0.000000
# 5 0.000000 0.000000 0.000000 0.000000 0.043383 0.000000
# 6 0.000000 0.000000 0.000000 0.000000 0.000000 0.054012
#
#
# Mechanical properties :
#
#
# Convention : Reuss Voigt Hill
#
# Bulk Modulus (GPa) = 29.23353 35.98151 32.60752
# Shear Modulus (GPa) = 15.41771 20.31578 17.86674
#
# Velocity S-wave (km/s) = 3.06707 3.52071 3.30169
# Velocity P-wave (km/s) = 5.51172 6.20330 5.86771
#
# Compressibility (1/GPa) = 0.03420729
#
# Stress axis : x y z
#
# Youngs Moduli (GPa) = 56.72168 34.64360 92.09086
#
# Poissons Ratio (x) = 0.10685 0.21170
# Poissons Ratio (y) = 0.17495 0.57007
# Poissons Ratio (z) = 0.13039 0.21445
#
# Static dielectric constant tensor:
#      x y z
#    x 1.532700 0.000000 0.000000 
#    y 0.000000 1.557760 0.000000 
#    z 0.000000 0.000000 1.556330 
# 
# From -- ./inp_files/52897.got.cif
#   From: 2010.05.17/outbox.cif.g08.bks.cpg/sg63_27_cif.got.tgz:52897.got - 2010.06.03 15:47:04.
