data_PCOD9470428
_publ_section_title
;
Structure prediction by ZEFSAII (Michael W. Deem and Ramdas Pophale) SiO2 
 PCOD9470428
Probable space group: C M C M
;
_chemical_formula_sum "Si O2"
_cell_formula_units_Z 116
_cell_length_a 27.912902
_cell_length_b 23.971842
_cell_length_c 7.671424
_cell_angle_alpha 90.000000
_cell_angle_beta 90.000000
_cell_angle_gamma 90.000000
_cell_volume 5133.131431
_symmetry_space_group_name_H-M "C M C M"
_symmetry_group_IT_number 63
_symmetry_cell_setting 'orthorhombic'
loop_
_space_group_symop_operation_xyz
x,y,z
-x,-y,1/2+z
x,-y,-z
-x,y,1/2-z
-x,-y,-z
x,y,1/2-z
-x,y,z
x,-y,1/2+z
1/2+x,1/2+y,z
1/2-x,1/2-y,1/2+z
1/2+x,1/2-y,-z
1/2-x,1/2+y,1/2-z
1/2-x,1/2-y,-z
1/2+x,1/2+y,1/2-z
1/2-x,1/2+y,z
1/2+x,1/2-y,1/2+z
loop_
_atom_site_type_symbol
_atom_site_label
_atom_site_fract_x
_atom_site_fract_y
_atom_site_fract_z
Si Si1 0.427039 0.938487 0.445794
Si Si2 0.656196 0.219759 0.451484
Si Si3 0.000000 0.949638 0.750000
Si Si4 0.447540 0.184040 0.962446
Si Si5 0.221017 0.938556 0.042691
Si Si6 0.347953 0.659334 0.962741
Si Si7 0.825646 0.597658 0.454393
Si Si8 0.051607 0.893653 0.452834
O O1 0.443525 0.933308 0.250000
O O2 0.444149 0.880362 0.528541
O O3 0.369279 0.934419 0.456352
O O4 0.441930 0.000000 0.500000
O O5 0.671755 0.220465 0.250000
O O6 0.598496 0.214786 0.462059
O O7 0.667862 0.279966 0.529372
O O8 0.675540 0.161343 0.526105
O O9 0.958797 0.941428 0.594557
O O10 0.442650 0.185018 0.750000
O O11 0.500000 0.206280 0.006632
O O12 0.223855 0.933262 0.250000
O O13 0.186685 0.889759 0.976126
O O14 0.274599 0.930687 0.972938
O O15 0.202598 0.000000 0.000000
O O16 0.346004 0.661487 0.750000
O O17 0.402754 0.642903 0.002557
O O18 0.838397 0.600312 0.250000
O O19 0.056751 0.912863 0.250000
O O20 0.000000 0.861865 0.461015
#
# Coordination Sequence:
#
# PCOD9470428 Si02
#       8
#    16  16   4  16  16  16  16  16
#     4  10  19  32  52  74 102 143 187 229 275 320
#     4   9  19  36  57  79 105 143 183 219 265 326
#     4   8  14  28  48  82 110 144 188 228 258 324
#     4   9  19  35  50  74 111 144 177 225 276 320
#     4  11  23  40  60  82 109 141 177 221 274 329
#     4   9  19  37  58  80 112 147 178 219 275 326
#     4  10  20  36  56  80 108 138 181 226 267 325
#     4   8  15  30  51  77 111 148 183 224 271 323
#
# _framework density 22.598289999999999
#
# number of rings (size 3 to 8) (size 9 to 14) (size 15 to 20)
#    0.414    2.207    0.000    1.655    0.000    2.759 
#    3.724    1.379    0.000    0.414    0.000    0.000 
#    0.000    0.000    0.000    0.000    0.000    0.000 
#
# Total GULP energy -322889.414153 kJ/mol
# GULP energy per Si atom -5567.058865 kJ/mol
# Density = 2.254686 g / cm^3
# Si number density = 22.598290 Si / 1000 Ang^3
#
#
#
# Elastic Constant Matrix: (Units=GPa)
#
#
# Indices 1 2 3 4 5 6 
#
# 1 47.7315 16.4826 -8.0484 0.0000 0.0000 0.0000
# 2 16.4826 124.6048 4.7706 0.0000 0.0000 0.0000
# 3 -8.0484 4.7706 67.6621 0.0000 0.0000 0.0000
# 4 0.0000 0.0000 0.0000 8.6577 0.0000 0.0000
# 5 0.0000 0.0000 0.0000 0.0000 5.9210 0.0000
# 6 0.0000 0.0000 0.0000 0.0000 0.0000 99.1780
#
#
#
# Elastic Compliance Matrix: (Units=1/GPa)
#
#
# Indices 1 2 3 4 5 6 
#
# 1 0.022505 -0.003088 0.002895 0.000000 0.000000 0.000000
# 2 -0.003088 0.008471 -0.000965 0.000000 0.000000 0.000000
# 3 0.002895 -0.000965 0.015192 0.000000 0.000000 0.000000
# 4 0.000000 0.000000 0.000000 0.115504 0.000000 0.000000
# 5 0.000000 0.000000 0.000000 0.000000 0.168889 0.000000
# 6 0.000000 0.000000 0.000000 0.000000 0.000000 0.010083
#
#
# Mechanical properties :
#
#
# Convention : Reuss Voigt Hill
#
# Bulk Modulus (GPa) = 22.80397 29.60089 26.20243
# Shear Modulus (GPa) = 13.98304 37.87091 25.92697
#
# Velocity S-wave (km/s) = 2.49020 4.09813 3.39085
# Velocity P-wave (km/s) = 4.28731 5.95987 5.19139
#
# Compressibility (1/GPa) = 0.04385202
#
# Stress axis : x y z
#
# Youngs Moduli (GPa) = 44.43482 118.05338 65.82565
#
# Poissons Ratio (x) = 0.36452 -0.19054
# Poissons Ratio (y) = 0.13720 0.06349
# Poissons Ratio (z) = -0.12862 0.11387
#
# Static dielectric constant tensor:
#      x y z
#    x 1.813500 0.000000 0.000000 
#    y 0.000000 1.891560 0.000000 
#    z 0.000000 0.000000 1.861770 
# 
# From -- ./inp_files/14761.got.cif
#   From: 2010.05.17/outbox.cif.g08.bks.cpg/sg63_8_cif.got.tgz:14761.got - 2010.06.03 15:47:04.
