data_PCOD9470553
_publ_section_title
;
Structure prediction by ZEFSAII (Michael W. Deem and Ramdas Pophale) SiO2 
 PCOD9470553
Probable space group: C M C M
;
_chemical_formula_sum "Si O2"
_cell_formula_units_Z 92
_cell_length_a 29.064713
_cell_length_b 24.203744
_cell_length_c 7.798509
_cell_angle_alpha 90.000000
_cell_angle_beta 90.000000
_cell_angle_gamma 90.000000
_cell_volume 5486.055127
_symmetry_space_group_name_H-M "C M C M"
_symmetry_group_IT_number 63
_symmetry_cell_setting 'orthorhombic'
loop_
_space_group_symop_operation_xyz
x,y,z
-x,-y,1/2+z
x,-y,-z
-x,y,1/2-z
-x,-y,-z
x,y,1/2-z
-x,y,z
x,-y,1/2+z
1/2+x,1/2+y,z
1/2-x,1/2-y,1/2+z
1/2+x,1/2-y,-z
1/2-x,1/2+y,1/2-z
1/2-x,1/2-y,-z
1/2+x,1/2+y,1/2-z
1/2-x,1/2+y,z
1/2+x,1/2-y,1/2+z
loop_
_atom_site_type_symbol
_atom_site_label
_atom_site_fract_x
_atom_site_fract_y
_atom_site_fract_z
Si Si1 0.076082 0.254933 0.449471
Si Si2 0.500000 0.435749 0.954554
Si Si3 0.676509 0.562841 0.946888
Si Si4 0.500000 0.226941 0.250000
Si Si5 0.590289 0.369545 0.452167
Si Si6 0.266660 0.661517 0.048167
Si Si7 0.819690 0.269995 0.456023
O O1 0.064849 0.270141 0.250000
O O2 0.039875 0.270700 0.595983
O O3 0.081926 0.188415 0.455625
O O4 0.126959 0.277529 0.495933
O O5 0.500000 0.428908 0.750000
O O6 0.500000 0.500000 0.000000
O O7 0.454956 0.406566 0.029283
O O8 0.663510 0.558930 0.750000
O O9 0.633346 0.596023 0.027064
O O10 0.683912 0.500000 0.000000
O O11 0.719825 0.603164 0.968395
O O12 0.597414 0.356669 0.250000
O O13 0.274765 0.656250 0.250000
O O14 0.299736 0.710910 0.979304
O O15 0.215162 0.683143 0.018929
O O16 0.815859 0.268182 0.250000
#
# Coordination Sequence:
#
# PCOD9470553 Si02
#       7
#    16   8  16   4  16  16  16
#     4  11  22  37  56  78 106 142 178 224 273 326
#     4  12  25  38  50  64  85 120 171 229 280 325
#     4  11  23  36  53  73 103 138 179 225 276 326
#     4  12  24  36  52  78 112 136 184 220 280 334
#     4  11  22  37  53  70  94 130 177 232 278 323
#     4  10  19  32  54  78 104 134 174 221 268 322
#     4   9  19  34  54  79 104 134 176 219 266 320
#
# _framework density 16.769791999999999
#
# number of rings (size 3 to 8) (size 9 to 14) (size 15 to 20)
#    0.000    1.391    2.609    3.652    1.217    4.174 
#    0.000    0.000    0.000    0.000    0.000    0.000 
#    0.000    0.000    0.000    0.783    5.565    2.261 
#
# Total GULP energy -256218.184894 kJ/mol
# GULP energy per Si atom -5569.960541 kJ/mol
# Density = 1.673162 g / cm^3
# Si number density = 16.769792 Si / 1000 Ang^3
#
#
#
# Elastic Constant Matrix: (Units=GPa)
#
#
# Indices 1 2 3 4 5 6 
#
# 1 96.7849 22.9417 25.8832 0.0000 0.0000 0.0000
# 2 22.9417 28.6862 -3.0598 0.0000 0.0000 0.0000
# 3 25.8832 -3.0598 73.1135 0.0000 0.0000 0.0000
# 4 0.0000 0.0000 0.0000 18.6186 0.0000 0.0000
# 5 0.0000 0.0000 0.0000 0.0000 26.4802 0.0000
# 6 0.0000 0.0000 0.0000 0.0000 0.0000 4.5963
#
#
#
# Elastic Compliance Matrix: (Units=1/GPa)
#
#
# Indices 1 2 3 4 5 6 
#
# 1 0.014834 -0.012480 -0.005774 0.000000 0.000000 0.000000
# 2 -0.012480 0.045515 0.006323 0.000000 0.000000 0.000000
# 3 -0.005774 0.006323 0.015986 0.000000 0.000000 0.000000
# 4 0.000000 0.000000 0.000000 0.053710 0.000000 0.000000
# 5 0.000000 0.000000 0.000000 0.000000 0.037764 0.000000
# 6 0.000000 0.000000 0.000000 0.000000 0.000000 0.217565
#
#
# Mechanical properties :
#
#
# Convention : Reuss Voigt Hill
#
# Bulk Modulus (GPa) = 19.05708 32.23498 25.64603
# Shear Modulus (GPa) = 11.71709 20.12699 15.92204
#
# Velocity S-wave (km/s) = 2.64617 3.46814 3.08465
# Velocity P-wave (km/s) = 4.55246 5.94147 5.29273
#
# Compressibility (1/GPa) = 0.05247394
#
# Stress axis : x y z
#
# Youngs Moduli (GPa) = 67.41054 21.97074 62.55474
#
# Poissons Ratio (x) = 0.27419 0.36118
# Poissons Ratio (y) = 0.84126 -0.39552
# Poissons Ratio (z) = 0.38922 -0.13892
#
# Static dielectric constant tensor:
#      x y z
#    x 1.584440 0.000000 0.000000 
#    y 0.000000 1.552010 0.000000 
#    z 0.000000 0.000000 1.620010 
# 
# From -- ./inp_files/12452.got.cif
#   From: 2010.05.17/outbox.cif.g08.bks.cpg/sg63_7_cif.got.tgz:12452.got - 2010.06.03 15:47:04.
