data_PCOD9470075
_publ_section_title
;
Structure prediction by ZEFSAII (Michael W. Deem and Ramdas Pophale) SiO2 
 PCOD9470075
Probable space group: C M C M
;
_chemical_formula_sum "Si O2"
_cell_formula_units_Z 96
_cell_length_a 24.976310
_cell_length_b 23.877788
_cell_length_c 8.750033
_cell_angle_alpha 90.000000
_cell_angle_beta 90.000000
_cell_angle_gamma 90.000000
_cell_volume 5218.336239
_symmetry_space_group_name_H-M "C M C M"
_symmetry_group_IT_number 63
_symmetry_cell_setting 'orthorhombic'
loop_
_space_group_symop_operation_xyz
x,y,z
-x,-y,1/2+z
x,-y,-z
-x,y,1/2-z
-x,-y,-z
x,y,1/2-z
-x,y,z
x,-y,1/2+z
1/2+x,1/2+y,z
1/2-x,1/2-y,1/2+z
1/2+x,1/2-y,-z
1/2-x,1/2+y,1/2-z
1/2-x,1/2-y,-z
1/2+x,1/2+y,1/2-z
1/2-x,1/2+y,z
1/2+x,1/2-y,1/2+z
loop_
_atom_site_type_symbol
_atom_site_label
_atom_site_fract_x
_atom_site_fract_y
_atom_site_fract_z
Si Si1 0.065067 0.057765 0.575604
Si Si2 0.333465 0.731943 0.065980
Si Si3 0.239088 0.336129 0.065749
Si Si4 0.560715 0.323045 0.565828
Si Si5 0.168439 0.437846 0.066975
Si Si6 0.441609 0.936802 0.933296
O O1 0.083614 0.061771 0.750000
O O2 0.077553 0.114604 0.485982
O O3 0.000000 0.054817 0.577172
O O4 0.084256 0.000000 0.500000
O O5 0.333650 0.731641 0.250000
O O6 0.305236 0.789714 0.017757
O O7 0.393875 0.720234 0.013153
O O8 0.294564 0.682846 0.007498
O O9 0.243935 0.333720 0.250000
O O10 0.216595 0.396741 0.023407
O O11 0.559163 0.322153 0.750000
O O12 0.500000 0.312326 0.510030
O O13 0.165179 0.441180 0.250000
O O14 0.174741 0.500000 0.000000
O O15 0.112250 0.412483 0.005548
O O16 0.436580 0.939297 0.750000
O O17 0.500000 0.911161 0.970441
O O18 0.443052 0.000000 0.000000
#
# Coordination Sequence:
#
# PCOD9470075 Si02
#       6
#    16  16  16  16  16  16
#     4   9  16  26  42  65  94 128 163 195 231 281
#     4   9  18  34  55  75  95 125 164 201 242 291
#     4   9  19  35  53  74  98 126 164 206 244 286
#     4   9  17  30  49  73 100 127 157 198 246 294
#     4  10  19  31  49  73 101 130 162 202 247 293
#     4   9  16  26  42  65  94 128 164 198 235 284
#
# _framework density 18.396668999999999
#
# number of rings (size 3 to 8) (size 9 to 14) (size 15 to 20)
#    0.000    2.833    0.000    2.500    0.000    5.000 
#    0.000    1.667    0.000    5.000    0.000    2.333 
#    0.000    0.000    0.000    0.000    0.000    0.000 
#
# Total GULP energy -267359.227770 kJ/mol
# GULP energy per Si atom -5569.983912 kJ/mol
# Density = 1.835480 g / cm^3
# Si number density = 18.396669 Si / 1000 Ang^3
#
#
#
# Elastic Constant Matrix: (Units=GPa)
#
#
# Indices 1 2 3 4 5 6 
#
# 1 86.4340 39.3814 15.5250 0.0000 0.0000 0.0000
# 2 39.3814 44.8106 10.1389 0.0000 0.0000 0.0000
# 3 15.5250 10.1389 27.9277 0.0000 0.0000 0.0000
# 4 0.0000 0.0000 0.0000 18.5516 0.0000 0.0000
# 5 0.0000 0.0000 0.0000 0.0000 22.8449 0.0000
# 6 0.0000 0.0000 0.0000 0.0000 0.0000 19.9561
#
#
#
# Elastic Compliance Matrix: (Units=1/GPa)
#
#
# Indices 1 2 3 4 5 6 
#
# 1 0.019953 -0.016371 -0.005149 0.000000 0.000000 0.000000
# 2 -0.016371 0.037745 -0.004602 0.000000 0.000000 0.000000
# 3 -0.005149 -0.004602 0.040340 0.000000 0.000000 0.000000
# 4 0.000000 0.000000 0.000000 0.053904 0.000000 0.000000
# 5 0.000000 0.000000 0.000000 0.000000 0.043773 0.000000
# 6 0.000000 0.000000 0.000000 0.000000 0.000000 0.050110
#
#
# Mechanical properties :
#
#
# Convention : Reuss Voigt Hill
#
# Bulk Modulus (GPa) = 21.83690 32.14031 26.98860
# Shear Modulus (GPa) = 15.95744 18.54564 17.25154
#
# Velocity S-wave (km/s) = 2.94838 3.17850 3.06560
# Velocity P-wave (km/s) = 4.84627 5.56589 5.21850
#
# Compressibility (1/GPa) = 0.04579405
#
# Stress axis : x y z
#
# Youngs Moduli (GPa) = 50.11717 26.49373 24.78943
#
# Poissons Ratio (x) = 0.43372 0.12764
# Poissons Ratio (y) = 0.82046 0.11409
# Poissons Ratio (z) = 0.25804 0.12193
#
# Static dielectric constant tensor:
#      x y z
#    x 1.675900 0.000000 0.000000 
#    y 0.000000 1.628290 0.000000 
#    z 0.000000 0.000000 1.630340 
# 
# From -- ./inp_files/12753.got.cif
#   From: 2010.05.17/outbox.cif.g08.bks.cpg/sg63_7_cif.got.tgz:12753.got - 2010.06.03 15:47:04.
