data_PCOD9470041
_publ_section_title
;
Structure prediction by ZEFSAII (Michael W. Deem and Ramdas Pophale) SiO2 
 PCOD9470041
Probable space group: C M C M
;
_chemical_formula_sum "Si O2"
_cell_formula_units_Z 64
_cell_length_a 7.679621
_cell_length_b 26.570816
_cell_length_c 18.243529
_cell_angle_alpha 90.000000
_cell_angle_beta 90.000000
_cell_angle_gamma 90.000000
_cell_volume 3722.661355
_symmetry_space_group_name_H-M "C M C M"
_symmetry_group_IT_number 63
_symmetry_cell_setting 'orthorhombic'
loop_
_space_group_symop_operation_xyz
x,y,z
-x,-y,1/2+z
x,-y,-z
-x,y,1/2-z
-x,-y,-z
x,y,1/2-z
-x,y,z
x,-y,1/2+z
1/2+x,1/2+y,z
1/2-x,1/2-y,1/2+z
1/2+x,1/2-y,-z
1/2-x,1/2+y,1/2-z
1/2-x,1/2-y,-z
1/2+x,1/2+y,1/2-z
1/2-x,1/2+y,z
1/2+x,1/2-y,1/2+z
loop_
_atom_site_type_symbol
_atom_site_label
_atom_site_fract_x
_atom_site_fract_y
_atom_site_fract_z
Si Si1 0.500000 0.941087 0.985520
Si Si2 0.205458 0.867061 0.462600
Si Si3 0.000000 0.390064 0.669316
Si Si4 0.802956 0.181550 0.118400
Si Si5 0.289343 0.293461 0.333675
O O1 0.669386 0.913577 0.019646
O O2 0.500000 0.928187 0.898764
O O3 0.500000 0.000000 0.000000
O O4 0.223547 0.829135 0.531890
O O5 0.260628 0.837429 0.389690
O O6 0.000000 0.880531 0.457556
O O7 0.165577 0.353415 0.659669
O O8 0.000000 0.413199 0.750000
O O9 0.775730 0.239536 0.138303
O O10 0.000000 0.166858 0.136752
O O11 0.232752 0.301766 0.250000
O O12 0.500000 0.291187 0.334671
#
# Coordination Sequence:
#
# PCOD9470041 Si02
#       5
#     8  16   8  16  16
#     4  10  22  40  60  78  96 132 184 225 266 313
#     4   9  20  36  53  75 103 137 174 217 260 310
#     4  10  20  36  54  78 110 136 167 221 266 301
#     4  10  19  31  51  76 107 144 177 203 247 311
#     4  10  19  31  48  75 112 147 173 203 249 306
#
# _framework density 17.192003
#
# number of rings (size 3 to 8) (size 9 to 14) (size 15 to 20)
#    0.000    2.250    1.250    1.500    1.750    2.500 
#    0.000    1.250    0.000    0.000    0.000    0.000 
#    0.000    0.000    0.000    0.000    0.000    0.000 
#
# Total GULP energy -178600.040794 kJ/mol
# GULP energy per Si atom -5581.251275 kJ/mol
# Density = 1.715287 g / cm^3
# Si number density = 17.192003 Si / 1000 Ang^3
#
#
#
# Elastic Constant Matrix: (Units=GPa)
#
#
# Indices 1 2 3 4 5 6 
#
# 1 80.1558 50.1406 60.8824 0.0000 0.0000 0.0000
# 2 50.1406 121.1442 88.3567 0.0000 0.0000 0.0000
# 3 60.8824 88.3567 126.2530 0.0000 0.0000 0.0000
# 4 0.0000 0.0000 0.0000 8.7233 0.0000 0.0000
# 5 0.0000 0.0000 0.0000 0.0000 -3.2875 0.0000
# 6 0.0000 0.0000 0.0000 0.0000 0.0000 11.7073
#
#
#
# Elastic Compliance Matrix: (Units=1/GPa)
#
#
# Indices 1 2 3 4 5 6 
#
# 1 0.020064 -0.002548 -0.007892 0.000000 0.000000 0.000000
# 2 -0.002548 0.017185 -0.010798 0.000000 0.000000 0.000000
# 3 -0.007892 -0.010798 0.019283 0.000000 0.000000 0.000000
# 4 0.000000 0.000000 0.000000 0.114636 0.000000 0.000000
# 5 0.000000 0.000000 0.000000 0.000000 -0.304185 0.000000
# 6 0.000000 0.000000 0.000000 0.000000 0.000000 0.085417
#
#
# Mechanical properties :
#
#
# Convention : Reuss Voigt Hill
#
# Bulk Modulus (GPa) = 71.14505 80.70140 75.92322
# Shear Modulus (GPa) = -11373.44700 11.97351 -5680.73674
#
# Velocity S-wave (km/s) = -81.42424 2.64191 -57.54532
# Velocity P-wave (km/s) = 93.79980 7.50662 66.11374
#
# Compressibility (1/GPa) = 0.01405579
#
# Stress axis : x y z
#
# Youngs Moduli (GPa) = 49.84003 58.19180 51.85952
#
# Poissons Ratio (x) = 0.14829 0.40928
# Poissons Ratio (y) = 0.12701 0.55995
# Poissons Ratio (z) = 0.39334 0.62833
#
# Static dielectric constant tensor:
#      x y z
#    x 1.606380 0.000000 0.000000 
#    y 0.000000 1.513990 0.000000 
#    z 0.000000 0.000000 1.607160 
# 
# From -- ./inp_files/39866.got.cif
#   From: 2010.05.17/outbox.cif.g08.bks.cpg/sg63_20_cif.got.tgz:39866.got - 2010.06.03 15:47:04.
