data_PCOD9470432
_publ_section_title
;
Structure prediction by ZEFSAII (Michael W. Deem and Ramdas Pophale) SiO2 
 PCOD9470432
Probable space group: C M C M
;
_chemical_formula_sum "Si O2"
_cell_formula_units_Z 120
_cell_length_a 19.723339
_cell_length_b 20.156363
_cell_length_c 15.261364
_cell_angle_alpha 90.000000
_cell_angle_beta 90.000000
_cell_angle_gamma 90.000000
_cell_volume 6067.167169
_symmetry_space_group_name_H-M "C M C M"
_symmetry_group_IT_number 63
_symmetry_cell_setting 'orthorhombic'
loop_
_space_group_symop_operation_xyz
x,y,z
-x,-y,1/2+z
x,-y,-z
-x,y,1/2-z
-x,-y,-z
x,y,1/2-z
-x,y,z
x,-y,1/2+z
1/2+x,1/2+y,z
1/2-x,1/2-y,1/2+z
1/2+x,1/2-y,-z
1/2-x,1/2+y,1/2-z
1/2-x,1/2-y,-z
1/2+x,1/2+y,1/2-z
1/2-x,1/2+y,z
1/2+x,1/2-y,1/2+z
loop_
_atom_site_type_symbol
_atom_site_label
_atom_site_fract_x
_atom_site_fract_y
_atom_site_fract_z
Si Si1 0.313022 0.500000 0.500000
Si Si2 0.222186 0.556165 0.155892
Si Si3 0.924935 0.540313 0.091811
Si Si4 0.259823 0.699897 0.390941
Si Si5 0.655671 0.598448 0.853168
Si Si6 0.362103 0.284000 0.466971
Si Si7 0.427344 0.839013 0.025345
Si Si8 0.306884 0.154271 0.845077
O O1 0.263018 0.535634 0.430616
O O2 0.355815 0.455536 0.430271
O O3 0.248123 0.529560 0.250000
O O4 0.144313 0.533127 0.145144
O O5 0.233489 0.635549 0.158238
O O6 0.925176 0.617280 0.061990
O O7 0.000000 0.525084 0.129676
O O8 0.919890 0.500000 0.000000
O O9 0.319910 0.678413 0.457236
O O10 0.193728 0.729202 0.438622
O O11 0.289120 0.766786 0.346488
O O12 0.640021 0.585156 0.750000
O O13 0.621637 0.666472 0.888457
O O14 0.736440 0.615921 0.859219
O O15 0.420992 0.238893 0.505101
O O16 0.500000 0.853264 0.068367
O O17 0.363514 0.859319 0.083657
O O18 0.333651 0.136573 0.750000
#
# Coordination Sequence:
#
# PCOD9470432 Si02
#       8
#     8  16  16  16  16  16  16  16
#     4  12  22  36  47  76 111 136 164 222 260 320
#     4  12  22  32  53  75  99 135 174 215 260 307
#     4  10  21  37  51  65  98 144 184 220 254 292
#     4   9  16  30  51  75  98 133 164 205 268 317
#     4  10  20  34  55  78 104 142 177 213 271 327
#     4   9  16  31  53  72 103 135 165 214 263 313
#     4  10  19  32  52  75 100 140 179 214 266 305
#     4   9  18  31  49  75 106 133 172 217 257 315
#
# _framework density 19.778589
#
# number of rings (size 3 to 8) (size 9 to 14) (size 15 to 20)
#    0.000    2.000    3.333    2.400    0.000    1.067 
#    0.000    0.000    0.000    2.800    0.000    0.467 
#    0.000    0.000    0.000    0.000    0.000    0.000 
#
# Total GULP energy -334046.359975 kJ/mol
# GULP energy per Si atom -5567.439333 kJ/mol
# Density = 1.973357 g / cm^3
# Si number density = 19.778589 Si / 1000 Ang^3
#
#
#
# Elastic Constant Matrix: (Units=GPa)
#
#
# Indices 1 2 3 4 5 6 
#
# 1 17.9462 0.9751 -5.3655 0.0000 0.0000 0.0000
# 2 0.9751 62.7689 22.3570 0.0000 0.0000 0.0000
# 3 -5.3655 22.3570 102.3912 0.0000 0.0000 0.0000
# 4 0.0000 0.0000 0.0000 13.1339 0.0000 0.0000
# 5 0.0000 0.0000 0.0000 0.0000 4.7422 0.0000
# 6 0.0000 0.0000 0.0000 0.0000 0.0000 14.4145
#
#
#
# Elastic Compliance Matrix: (Units=1/GPa)
#
#
# Indices 1 2 3 4 5 6 
#
# 1 0.056865 -0.002109 0.003440 0.000000 0.000000 0.000000
# 2 -0.002109 0.017353 -0.003900 0.000000 0.000000 0.000000
# 3 0.003440 -0.003900 0.010798 0.000000 0.000000 0.000000
# 4 0.000000 0.000000 0.000000 0.076139 0.000000 0.000000
# 5 0.000000 0.000000 0.000000 0.000000 0.210873 0.000000
# 6 0.000000 0.000000 0.000000 0.000000 0.000000 0.069375
#
#
# Mechanical properties :
#
#
# Convention : Reuss Voigt Hill
#
# Bulk Modulus (GPa) = 12.51870 24.33773 18.42822
# Shear Modulus (GPa) = 10.56711 17.46743 14.01727
#
# Velocity S-wave (km/s) = 2.31394 2.97501 2.66505
# Velocity P-wave (km/s) = 3.67182 4.91250 4.33676
#
# Compressibility (1/GPa) = 0.07988048
#
# Stress axis : x y z
#
# Youngs Moduli (GPa) = 17.58546 57.62641 92.60798
#
# Poissons Ratio (x) = 0.12152 -0.31860
# Poissons Ratio (y) = 0.03708 0.36113
# Poissons Ratio (z) = -0.06050 0.22472
#
# Static dielectric constant tensor:
#      x y z
#    x 1.677530 0.000000 0.000000 
#    y 0.000000 1.786220 0.000000 
#    z 0.000000 0.000000 1.742260 
# 
# From -- ./inp_files/35865.got.cif
#   From: 2010.05.17/outbox.cif.g08.bks.cpg/sg63_18_cif.got.tgz:35865.got - 2010.06.03 15:47:04.
