data_PCOD9470457
_publ_section_title
;
Structure prediction by ZEFSAII (Michael W. Deem and Ramdas Pophale) SiO2 
 PCOD9470457
Probable space group: C M C M
;
_chemical_formula_sum "Si O2"
_cell_formula_units_Z 80
_cell_length_a 7.404642
_cell_length_b 20.960824
_cell_length_c 23.777931
_cell_angle_alpha 90.000000
_cell_angle_beta 90.000000
_cell_angle_gamma 90.000000
_cell_volume 3690.510794
_symmetry_space_group_name_H-M "C M C M"
_symmetry_group_IT_number 63
_symmetry_cell_setting 'orthorhombic'
loop_
_space_group_symop_operation_xyz
x,y,z
-x,-y,1/2+z
x,-y,-z
-x,y,1/2-z
-x,-y,-z
x,y,1/2-z
-x,y,z
x,-y,1/2+z
1/2+x,1/2+y,z
1/2-x,1/2-y,1/2+z
1/2+x,1/2-y,-z
1/2-x,1/2+y,1/2-z
1/2-x,1/2-y,-z
1/2+x,1/2+y,1/2-z
1/2-x,1/2+y,z
1/2+x,1/2-y,1/2+z
loop_
_atom_site_type_symbol
_atom_site_label
_atom_site_fract_x
_atom_site_fract_y
_atom_site_fract_z
Si Si1 0.779912 0.181870 0.250000
Si Si2 0.720154 0.831421 0.250000
Si Si3 0.215034 0.738384 0.935034
Si Si4 0.211254 0.013789 0.062453
Si Si5 0.721247 0.363571 0.629793
Si Si6 0.281462 0.885714 0.129587
O O1 0.723538 0.256672 0.250000
O O2 0.723049 0.144516 0.194264
O O3 0.000000 0.184087 0.250000
O O4 0.500000 0.830351 0.250000
O O5 0.776483 0.867593 0.307039
O O6 0.281785 0.799146 0.900830
O O7 0.282902 0.671603 0.910840
O O8 0.000000 0.736771 0.926431
O O9 0.250000 0.750000 0.000000
O O10 0.224412 0.952375 0.102588
O O11 0.000000 0.028366 0.053293
O O12 0.285935 0.074931 0.095582
O O13 0.287848 0.000000 0.000000
O O14 0.500000 0.365059 0.629713
O O15 0.500000 0.886513 0.130063
#
# Coordination Sequence:
#
# PCOD9470457 Si02
#       6
#     8   8  16  16  16  16
#     4   9  14  27  52  77  99 126 173 226 256 294
#     4   9  16  31  53  79 107 132 167 222 272 308
#     4  10  19  32  52  77 101 130 172 216 257 303
#     4  10  21  36  52  75 111 146 174 214 266 313
#     4   9  17  30  50  74  99 132 173 214 254 298
#     4  10  20  34  55  80 105 137 176 217 265 318
#
# _framework density 21.677215
#
# number of rings (size 3 to 8) (size 9 to 14) (size 15 to 20)
#    0.000    2.400    2.000    1.200    0.000    3.600 
#    0.000    2.500    0.000    0.000    0.000    2.100 
#    0.000    0.000    0.000    0.000    0.000    0.000 
#
# Total GULP energy -223425.397735 kJ/mol
# GULP energy per Si atom -5585.634943 kJ/mol
# Density = 2.162788 g / cm^3
# Si number density = 21.677215 Si / 1000 Ang^3
#
#
#
# Elastic Constant Matrix: (Units=GPa)
#
#
# Indices 1 2 3 4 5 6 
#
# 1 67.9835 -5.2921 -4.3763 0.0000 0.0000 0.0000
# 2 -5.2921 69.4053 -15.0480 0.0000 0.0000 0.0000
# 3 -4.3763 -15.0480 94.3067 0.0000 0.0000 0.0000
# 4 0.0000 0.0000 0.0000 34.7203 0.0000 0.0000
# 5 0.0000 0.0000 0.0000 0.0000 4.4415 0.0000
# 6 0.0000 0.0000 0.0000 0.0000 0.0000 9.1500
#
#
#
# Elastic Compliance Matrix: (Units=1/GPa)
#
#
# Indices 1 2 3 4 5 6 
#
# 1 0.014871 0.001330 0.000902 0.000000 0.000000 0.000000
# 2 0.001330 0.015043 0.002462 0.000000 0.000000 0.000000
# 3 0.000902 0.002462 0.011038 0.000000 0.000000 0.000000
# 4 0.000000 0.000000 0.000000 0.028802 0.000000 0.000000
# 5 0.000000 0.000000 0.000000 0.000000 0.225150 0.000000
# 6 0.000000 0.000000 0.000000 0.000000 0.000000 0.109289
#
#
# Mechanical properties :
#
#
# Convention : Reuss Voigt Hill
#
# Bulk Modulus (GPa) = 19.86475 20.25141 20.05808
# Shear Modulus (GPa) = 12.14814 26.75650 19.45232
#
# Velocity S-wave (km/s) = 2.36987 3.51709 2.99885
# Velocity P-wave (km/s) = 4.08315 5.08486 4.61129
#
# Compressibility (1/GPa) = 0.05034041
#
# Stress axis : x y z
#
# Youngs Moduli (GPa) = 67.24486 66.47475 90.59266
#
# Poissons Ratio (x) = -0.08838 -0.08174
# Poissons Ratio (y) = -0.08940 -0.22305
# Poissons Ratio (z) = -0.06067 -0.16367
#
# Static dielectric constant tensor:
#      x y z
#    x 1.842540 0.000000 0.000000 
#    y 0.000000 1.726570 0.000000 
#    z 0.000000 0.000000 1.711930 
# 
# From -- ./inp_files/52456.got.cif
#   From: 2010.05.17/outbox.cif.g08.bks.cpg/sg63_27_cif.got.tgz:52456.got - 2010.06.03 15:47:04.
