data_PCOD9470011
_publ_section_title
;
Structure prediction by ZEFSAII (Michael W. Deem and Ramdas Pophale) SiO2 
 PCOD9470011
Probable space group: C M C M
;
_chemical_formula_sum "Si O2"
_cell_formula_units_Z 96
_cell_length_a 8.946261
_cell_length_b 23.817222
_cell_length_c 26.814450
_cell_angle_alpha 90.000000
_cell_angle_beta 90.000000
_cell_angle_gamma 90.000000
_cell_volume 5713.491194
_symmetry_space_group_name_H-M "C M C M"
_symmetry_group_IT_number 63
_symmetry_cell_setting 'orthorhombic'
loop_
_space_group_symop_operation_xyz
x,y,z
-x,-y,1/2+z
x,-y,-z
-x,y,1/2-z
-x,-y,-z
x,y,1/2-z
-x,y,z
x,-y,1/2+z
1/2+x,1/2+y,z
1/2-x,1/2-y,1/2+z
1/2+x,1/2-y,-z
1/2-x,1/2+y,1/2-z
1/2-x,1/2-y,-z
1/2+x,1/2+y,1/2-z
1/2-x,1/2+y,z
1/2+x,1/2-y,1/2+z
loop_
_atom_site_type_symbol
_atom_site_label
_atom_site_fract_x
_atom_site_fract_y
_atom_site_fract_z
Si Si1 0.821583 0.174153 0.892524
Si Si2 0.826239 0.506823 0.373612
Si Si3 0.679900 0.412874 0.192400
Si Si4 0.821591 0.771495 0.551965
Si Si5 0.825631 0.583436 0.961903
Si Si6 0.678061 0.596840 0.064564
O O1 0.778349 0.140369 0.842366
O O2 0.741793 0.232602 0.903870
O O3 0.769090 0.133399 0.937208
O O4 0.000000 0.180946 0.893594
O O5 0.753146 0.468618 0.330788
O O6 0.817153 0.467445 0.422945
O O7 0.741228 0.563730 0.387841
O O8 0.000000 0.517419 0.363068
O O9 0.720916 0.405023 0.250000
O O10 0.500000 0.418344 0.188867
O O11 0.750000 0.750000 0.500000
O O12 0.787746 0.836754 0.562508
O O13 0.000000 0.765347 0.548114
O O14 0.000000 0.599389 0.966840
O O15 0.756731 0.571605 0.015502
O O16 0.500000 0.589497 0.061551
#
# Coordination Sequence:
#
# PCOD9470011 Si02
#       6
#    16  16  16  16  16  16
#     4  10  19  32  52  78 105 136 176 217 261 310
#     4  10  21  34  50  76 105 134 171 215 263 312
#     4   9  19  37  60  82 104 132 168 215 269 320
#     4  11  22  34  50  73 105 144 183 218 256 306
#     4  10  19  31  48  71 103 139 173 212 256 305
#     4  11  22  33  48  71 102 142 181 213 254 310
#
# _framework density 16.802336
#
# number of rings (size 3 to 8) (size 9 to 14) (size 15 to 20)
#    0.000    1.833    1.667    3.000    0.000    7.000 
#    0.000    0.000    0.000    1.000    0.000    4.667 
#    0.000    0.000    0.000    0.000    0.000    0.000 
#
# Total GULP energy -267894.892399 kJ/mol
# GULP energy per Si atom -5581.143592 kJ/mol
# Density = 1.676409 g / cm^3
# Si number density = 16.802336 Si / 1000 Ang^3
#
#
#
# Elastic Constant Matrix: (Units=GPa)
#
#
# Indices 1 2 3 4 5 6 
#
# 1 57.3836 43.6022 32.3655 0.0000 0.0000 0.0000
# 2 43.6022 81.9171 42.0666 0.0000 0.0000 0.0000
# 3 32.3655 42.0666 99.5829 0.0000 0.0000 0.0000
# 4 0.0000 0.0000 0.0000 15.6582 0.0000 0.0000
# 5 0.0000 0.0000 0.0000 0.0000 19.9451 0.0000
# 6 0.0000 0.0000 0.0000 0.0000 0.0000 25.7803
#
#
#
# Elastic Compliance Matrix: (Units=1/GPa)
#
#
# Indices 1 2 3 4 5 6 
#
# 1 0.030396 -0.014182 -0.003888 0.000000 0.000000 0.000000
# 2 -0.014182 0.022206 -0.004771 0.000000 0.000000 0.000000
# 3 -0.003888 -0.004771 0.013321 0.000000 0.000000 0.000000
# 4 0.000000 0.000000 0.000000 0.063864 0.000000 0.000000
# 5 0.000000 0.000000 0.000000 0.000000 0.050138 0.000000
# 6 0.000000 0.000000 0.000000 0.000000 0.000000 0.038789
#
#
# Mechanical properties :
#
#
# Convention : Reuss Voigt Hill
#
# Bulk Modulus (GPa) = 49.40640 52.77247 51.08943
# Shear Modulus (GPa) = 18.44039 20.33333 19.38686
#
# Velocity S-wave (km/s) = 3.31643 3.48249 3.40048
# Velocity P-wave (km/s) = 6.64329 6.90263 6.77420
#
# Compressibility (1/GPa) = 0.02024029
#
# Stress axis : x y z
#
# Youngs Moduli (GPa) = 32.89943 45.03204 75.06935
#
# Poissons Ratio (x) = 0.63865 0.29187
# Poissons Ratio (y) = 0.46659 0.35817
# Poissons Ratio (z) = 0.12791 0.21486
#
# Static dielectric constant tensor:
#      x y z
#    x 1.561010 0.000000 0.000000 
#    y 0.000000 1.587720 0.000000 
#    z 0.000000 0.000000 1.556620 
# 
# From -- ./inp_files/59836.got.cif
#   From: 2010.05.17/outbox.cif.g08.bks.cpg/sg63_30_cif.got.tgz:59836.got - 2010.06.03 15:47:04.
