data_PCOD9470655
_publ_section_title
;
Structure prediction by ZEFSAII (Michael W. Deem and Ramdas Pophale) SiO2 
 PCOD9470655
Probable space group: C M C M
;
_chemical_formula_sum "Si O2"
_cell_formula_units_Z 80
_cell_length_a 21.450849
_cell_length_b 13.078176
_cell_length_c 15.107378
_cell_angle_alpha 90.000000
_cell_angle_beta 90.000000
_cell_angle_gamma 90.000000
_cell_volume 4238.193286
_symmetry_space_group_name_H-M "C M C M"
_symmetry_group_IT_number 63
_symmetry_cell_setting 'orthorhombic'
loop_
_space_group_symop_operation_xyz
x,y,z
-x,-y,1/2+z
x,-y,-z
-x,y,1/2-z
-x,-y,-z
x,y,1/2-z
-x,y,z
x,-y,1/2+z
1/2+x,1/2+y,z
1/2-x,1/2-y,1/2+z
1/2+x,1/2-y,-z
1/2-x,1/2+y,1/2-z
1/2-x,1/2-y,-z
1/2+x,1/2+y,1/2-z
1/2-x,1/2+y,z
1/2+x,1/2-y,1/2+z
loop_
_atom_site_type_symbol
_atom_site_label
_atom_site_fract_x
_atom_site_fract_y
_atom_site_fract_z
Si Si1 0.344157 0.303838 0.641479
Si Si2 0.678416 0.032493 0.400979
Si Si3 0.684912 0.476713 0.351033
Si Si4 0.930126 0.377873 0.143814
Si Si5 0.204119 0.755472 0.357756
O O1 0.344750 0.306904 0.750000
O O2 0.345753 0.421202 0.609659
O O3 0.397844 0.227050 0.611608
O O4 0.276881 0.256867 0.616661
O O5 0.670319 0.153655 0.390604
O O6 0.693788 0.000000 0.500000
O O7 0.740778 0.001183 0.348073
O O8 0.617412 0.969797 0.374769
O O9 0.662204 0.468910 0.250000
O O10 0.678791 0.364027 0.391340
O O11 0.933863 0.369526 0.250000
O O12 0.000000 0.392884 0.108877
O O13 0.202190 0.755746 0.250000
#
# Coordination Sequence:
#
# PCOD9470655 Si02
#       5
#    16  16  16  16  16
#     4   8  14  26  46  71  91 112 150 197 241 273
#     4  11  21  30  44  72 105 131 155 195 243 300
#     4   9  16  30  50  70  97 126 155 197 242 291
#     4  10  19  33  52  69  90 124 169 206 231 278
#     4   9  16  29  51  71  97 127 156 196 240 291
#
# _framework density 18.875966999999999
#
# number of rings (size 3 to 8) (size 9 to 14) (size 15 to 20)
#    0.000    2.600    2.000    3.000    0.000    1.200 
#    0.000    0.000    0.000    1.200    0.000    7.000 
#    0.000    0.000    0.000    0.000    0.000    0.000 
#
# Total GULP energy -222991.915707 kJ/mol
# GULP energy per Si atom -5574.797893 kJ/mol
# Density = 1.883300 g / cm^3
# Si number density = 18.875967 Si / 1000 Ang^3
#
#
#
# Elastic Constant Matrix: (Units=GPa)
#
#
# Indices 1 2 3 4 5 6 
#
# 1 77.0229 57.6674 -2.3999 0.0000 0.0000 0.0000
# 2 57.6674 147.8324 -0.6821 0.0000 0.0000 0.0000
# 3 -2.3999 -0.6821 32.3524 0.0000 0.0000 0.0000
# 4 0.0000 0.0000 0.0000 45.8324 0.0000 0.0000
# 5 0.0000 0.0000 0.0000 0.0000 -0.3053 0.0000
# 6 0.0000 0.0000 0.0000 0.0000 0.0000 0.4773
#
#
#
# Elastic Compliance Matrix: (Units=1/GPa)
#
#
# Indices 1 2 3 4 5 6 
#
# 1 0.018387 -0.007167 0.001213 0.000000 0.000000 0.000000
# 2 -0.007167 0.009559 -0.000330 0.000000 0.000000 0.000000
# 3 0.001213 -0.000330 0.030993 0.000000 0.000000 0.000000
# 4 0.000000 0.000000 0.000000 0.021819 0.000000 0.000000
# 5 0.000000 0.000000 0.000000 0.000000 -3.275575 0.000000
# 6 0.000000 0.000000 0.000000 0.000000 0.000000 2.095218
#
#
# Mechanical properties :
#
#
# Convention : Reuss Voigt Hill
#
# Bulk Modulus (GPa) = 21.56578 40.70873 31.13725
# Shear Modulus (GPa) = -4.66603 22.70902 9.02149
#
# Velocity S-wave (km/s) = -1.57395 3.47229 2.18855
# Velocity P-wave (km/s) = 2.85425 6.13913 4.78726
#
# Compressibility (1/GPa) = 0.04636975
#
# Stress axis : x y z
#
# Youngs Moduli (GPa) = 54.38691 104.61806 32.26571
#
# Poissons Ratio (x) = 0.74978 -0.03913
# Poissons Ratio (y) = 0.38978 0.01065
# Poissons Ratio (z) = -0.06596 0.03454
#
# Static dielectric constant tensor:
#      x y z
#    x 1.635070 0.000000 0.000000 
#    y 0.000000 1.702450 0.000000 
#    z 0.000000 0.000000 1.757820 
# 
# From -- ./inp_files/47020.got.cif
#   From: 2010.05.17/outbox.cif.g08.bks.cpg/sg63_24_cif.got.tgz:47020.got - 2010.06.03 15:47:04.
