data_PCOD9470442
_publ_section_title
;
Structure prediction by ZEFSAII (Michael W. Deem and Ramdas Pophale) SiO2 
 PCOD9470442
Probable space group: C M C M
;
_chemical_formula_sum "Si O2"
_cell_formula_units_Z 80
_cell_length_a 13.263835
_cell_length_b 19.067340
_cell_length_c 18.288239
_cell_angle_alpha 90.000000
_cell_angle_beta 90.000000
_cell_angle_gamma 90.000000
_cell_volume 4625.206317
_symmetry_space_group_name_H-M "C M C M"
_symmetry_group_IT_number 63
_symmetry_cell_setting 'orthorhombic'
loop_
_space_group_symop_operation_xyz
x,y,z
-x,-y,1/2+z
x,-y,-z
-x,y,1/2-z
-x,-y,-z
x,y,1/2-z
-x,y,z
x,-y,1/2+z
1/2+x,1/2+y,z
1/2-x,1/2-y,1/2+z
1/2+x,1/2-y,-z
1/2-x,1/2+y,1/2-z
1/2-x,1/2-y,-z
1/2+x,1/2+y,1/2-z
1/2-x,1/2+y,z
1/2+x,1/2-y,1/2+z
loop_
_atom_site_type_symbol
_atom_site_label
_atom_site_fract_x
_atom_site_fract_y
_atom_site_fract_z
Si Si1 0.799641 0.937198 0.591058
Si Si2 0.384515 0.298228 0.661946
Si Si3 0.117272 0.083691 0.931435
Si Si4 0.769435 0.341445 0.336877
Si Si5 0.118441 0.488262 0.163246
O O1 0.835293 0.870210 0.635833
O O2 0.818195 0.919417 0.506098
O O3 0.867400 0.006786 0.604620
O O4 0.688140 0.961247 0.614568
O O5 0.386135 0.296732 0.750000
O O6 0.500000 0.294407 0.635809
O O7 0.322189 0.229946 0.637781
O O8 0.167077 0.140791 0.879116
O O9 0.000000 0.094902 0.947589
O O10 0.751385 0.336768 0.250000
O O11 0.842529 0.408630 0.348696
O O12 0.134267 0.503483 0.250000
O O13 0.000000 0.493933 0.147735
#
# Coordination Sequence:
#
# PCOD9470442 Si02
#       5
#    16  16  16  16  16
#     4  10  19  33  51  76 104 132 169 209 251 300
#     4  10  19  32  52  76 101 129 164 210 257 300
#     4  10  20  35  53  73 103 139 171 210 256 300
#     4   9  19  34  51  73  99 130 172 214 254 305
#     4   9  17  32  53  74 100 134 168 206 253 303
#
# _framework density 17.296524999999999
#
# number of rings (size 3 to 8) (size 9 to 14) (size 15 to 20)
#    0.000    2.400    0.000    3.600    0.000    4.400 
#    0.000   10.000    0.000    1.200    0.000    0.000 
#    0.000    0.000    0.000    0.000    0.000    0.000 
#
# Total GULP energy -223023.685945 kJ/mol
# GULP energy per Si atom -5575.592149 kJ/mol
# Density = 1.725716 g / cm^3
# Si number density = 17.296525 Si / 1000 Ang^3
#
#
#
# Elastic Constant Matrix: (Units=GPa)
#
#
# Indices 1 2 3 4 5 6 
#
# 1 111.5759 41.8997 49.1942 0.0000 0.0000 0.0000
# 2 41.8997 99.3001 32.2368 0.0000 0.0000 0.0000
# 3 49.1942 32.2368 33.5004 0.0000 0.0000 0.0000
# 4 0.0000 0.0000 0.0000 19.7523 0.0000 0.0000
# 5 0.0000 0.0000 0.0000 0.0000 23.1442 0.0000
# 6 0.0000 0.0000 0.0000 0.0000 0.0000 16.7777
#
#
#
# Elastic Compliance Matrix: (Units=1/GPa)
#
#
# Indices 1 2 3 4 5 6 
#
# 1 0.025705 0.002048 -0.039718 0.000000 0.000000 0.000000
# 2 0.002048 0.014809 -0.017257 0.000000 0.000000 0.000000
# 3 -0.039718 -0.017257 0.104781 0.000000 0.000000 0.000000
# 4 0.000000 0.000000 0.000000 0.050627 0.000000 0.000000
# 5 0.000000 0.000000 0.000000 0.000000 0.043207 0.000000
# 6 0.000000 0.000000 0.000000 0.000000 0.000000 0.059603
#
#
# Mechanical properties :
#
#
# Convention : Reuss Voigt Hill
#
# Bulk Modulus (GPa) = 28.21645 54.55978 41.38811
# Shear Modulus (GPa) = 11.89344 20.00454 15.94899
#
# Velocity S-wave (km/s) = 2.62510 3.40452 3.03989
# Velocity P-wave (km/s) = 5.05341 6.86051 6.02510
#
# Compressibility (1/GPa) = 0.03544032
#
# Stress axis : x y z
#
# Youngs Moduli (GPa) = 38.90256 67.52716 9.54375
#
# Poissons Ratio (x) = -0.13827 0.37906
# Poissons Ratio (y) = -0.07966 0.16470
# Poissons Ratio (z) = 1.54512 1.16533
#
# Static dielectric constant tensor:
#      x y z
#    x 1.576410 0.000000 0.000000 
#    y 0.000000 1.572700 0.000000 
#    z 0.000000 0.000000 1.603890 
# 
# From -- ./inp_files/43975.got.cif
#   From: 2010.05.17/outbox.cif.g08.bks.cpg/sg63_22_cif.got.tgz:43975.got - 2010.06.03 15:47:04.
