data_PCOD9470994
_publ_section_title
;
Structure prediction by ZEFSAII (Michael W. Deem and Ramdas Pophale) SiO2 
 PCOD9470994
Probable space group: C M C M
;
_chemical_formula_sum "Si O2"
_cell_formula_units_Z 80
_cell_length_a 20.785031
_cell_length_b 14.451225
_cell_length_c 14.032724
_cell_angle_alpha 90.000000
_cell_angle_beta 90.000000
_cell_angle_gamma 90.000000
_cell_volume 4214.997515
_symmetry_space_group_name_H-M "C M C M"
_symmetry_group_IT_number 63
_symmetry_cell_setting 'orthorhombic'
loop_
_space_group_symop_operation_xyz
x,y,z
-x,-y,1/2+z
x,-y,-z
-x,y,1/2-z
-x,-y,-z
x,y,1/2-z
-x,y,z
x,-y,1/2+z
1/2+x,1/2+y,z
1/2-x,1/2-y,1/2+z
1/2+x,1/2-y,-z
1/2-x,1/2+y,1/2-z
1/2-x,1/2-y,-z
1/2+x,1/2+y,1/2-z
1/2-x,1/2+y,z
1/2+x,1/2-y,1/2+z
loop_
_atom_site_type_symbol
_atom_site_label
_atom_site_fract_x
_atom_site_fract_y
_atom_site_fract_z
Si Si1 0.671758 0.591978 0.962296
Si Si2 0.430944 0.106887 0.971015
Si Si3 0.701350 0.894450 0.144286
Si Si4 0.735047 0.678270 0.353295
Si Si5 0.120223 0.727569 0.361438
O O1 0.737452 0.560008 0.907964
O O2 0.634134 0.667519 0.898700
O O3 0.636493 0.500000 0.000000
O O4 0.696337 0.643531 0.056709
O O5 0.500000 0.130146 0.923686
O O6 0.366496 0.110652 0.908587
O O7 0.423270 0.173147 0.063075
O O8 0.433776 0.000000 0.000000
O O9 0.693440 0.933873 0.250000
O O10 0.723160 0.787971 0.150813
O O11 0.716439 0.638439 0.250000
O O12 0.811661 0.672097 0.366636
O O13 0.100445 0.728333 0.250000
#
# Coordination Sequence:
#
# PCOD9470994 Si02
#       5
#    16  16  16  16  16
#     4  11  19  32  55  84 117 145 179 225 281 340
#     4  11  23  38  56  79 107 145 190 232 272 323
#     4  10  19  34  53  78 111 146 179 222 275 330
#     4   9  17  30  53  78 105 140 179 220 274 334
#     4  10  20  37  56  80 113 148 185 230 281 338
#
# _framework density 18.979845999999998
#
# number of rings (size 3 to 8) (size 9 to 14) (size 15 to 20)
#    0.000    1.800    4.000    3.600    0.000    3.200 
#    0.000    2.000    0.000    0.600    0.000    0.000 
#    0.000    0.000    0.000    0.000    0.000    0.000 
#
# Total GULP energy -222922.075050 kJ/mol
# GULP energy per Si atom -5573.051876 kJ/mol
# Density = 1.893665 g / cm^3
# Si number density = 18.979846 Si / 1000 Ang^3
#
#
#
# Elastic Constant Matrix: (Units=GPa)
#
#
# Indices 1 2 3 4 5 6 
#
# 1 67.4474 7.7236 13.6202 0.0000 0.0000 0.0000
# 2 7.7236 60.9751 21.5142 0.0000 0.0000 0.0000
# 3 13.6202 21.5142 101.0725 0.0000 0.0000 0.0000
# 4 0.0000 0.0000 0.0000 9.1299 0.0000 0.0000
# 5 0.0000 0.0000 0.0000 0.0000 6.8559 0.0000
# 6 0.0000 0.0000 0.0000 0.0000 0.0000 74.6354
#
#
#
# Elastic Compliance Matrix: (Units=1/GPa)
#
#
# Indices 1 2 3 4 5 6 
#
# 1 0.015338 -0.001312 -0.001788 0.000000 0.000000 0.000000
# 2 -0.001312 0.017844 -0.003621 0.000000 0.000000 0.000000
# 3 -0.001788 -0.003621 0.010906 0.000000 0.000000 0.000000
# 4 0.000000 0.000000 0.000000 0.109530 0.000000 0.000000
# 5 0.000000 0.000000 0.000000 0.000000 0.145859 0.000000
# 6 0.000000 0.000000 0.000000 0.000000 0.000000 0.013398
#
#
# Mechanical properties :
#
#
# Convention : Reuss Voigt Hill
#
# Bulk Modulus (GPa) = 32.63157 35.02343 33.82750
# Shear Modulus (GPa) = 14.85741 30.56672 22.71206
#
# Velocity S-wave (km/s) = 2.80089 4.01744 3.46300
# Velocity P-wave (km/s) = 5.26213 6.32556 5.81820
#
# Compressibility (1/GPa) = 0.03064517
#
# Stress axis : x y z
#
# Youngs Moduli (GPa) = 65.19926 56.04089 91.69566
#
# Poissons Ratio (x) = 0.07353 0.16391
# Poissons Ratio (y) = 0.08555 0.33207
# Poissons Ratio (z) = 0.11655 0.20295
#
# Static dielectric constant tensor:
#      x y z
#    x 1.675920 0.000000 0.000000 
#    y 0.000000 1.699950 0.000000 
#    z 0.000000 0.000000 1.707920 
# 
# From -- ./inp_files/35098.got.cif
#   From: 2010.05.17/outbox.cif.g08.bks.cpg/sg63_18_cif.got.tgz:35098.got - 2010.06.03 15:47:04.
