data_PCOD9470535
_publ_section_title
;
Structure prediction by ZEFSAII (Michael W. Deem and Ramdas Pophale) SiO2 
 PCOD9470535
Probable space group: C M C M
;
_chemical_formula_sum "Si O2"
_cell_formula_units_Z 112
_cell_length_a 16.130954
_cell_length_b 12.299969
_cell_length_c 30.237773
_cell_angle_alpha 90.000000
_cell_angle_beta 90.000000
_cell_angle_gamma 90.000000
_cell_volume 5999.483621
_symmetry_space_group_name_H-M "C M C M"
_symmetry_group_IT_number 63
_symmetry_cell_setting 'orthorhombic'
loop_
_space_group_symop_operation_xyz
x,y,z
-x,-y,1/2+z
x,-y,-z
-x,y,1/2-z
-x,-y,-z
x,y,1/2-z
-x,y,z
x,-y,1/2+z
1/2+x,1/2+y,z
1/2-x,1/2-y,1/2+z
1/2+x,1/2-y,-z
1/2-x,1/2+y,1/2-z
1/2-x,1/2-y,-z
1/2+x,1/2+y,1/2-z
1/2-x,1/2+y,z
1/2+x,1/2-y,1/2+z
loop_
_atom_site_type_symbol
_atom_site_label
_atom_site_fract_x
_atom_site_fract_y
_atom_site_fract_z
Si Si1 0.660666 0.939205 0.546801
Si Si2 0.403748 0.552856 0.611294
Si Si3 0.903167 0.202965 0.964565
Si Si4 0.659389 0.648855 0.439655
Si Si5 0.399382 0.795858 0.298966
Si Si6 0.400564 0.133346 0.893622
Si Si7 0.101184 0.042045 0.200605
O O1 0.606137 0.831989 0.538839
O O2 0.747937 0.895105 0.564584
O O3 0.671943 0.000000 0.500000
O O4 0.622108 0.023468 0.581235
O O5 0.500000 0.582174 0.618062
O O6 0.367260 0.644469 0.579125
O O7 0.397742 0.440277 0.584244
O O8 0.367338 0.529515 0.659720
O O9 0.000000 0.174093 0.968666
O O10 0.858835 0.160160 0.008357
O O11 0.642569 0.765283 0.417956
O O12 0.370396 0.830460 0.250000
O O13 0.500000 0.797796 0.297785
O O14 0.374882 0.863389 0.342078
O O15 0.375939 0.668932 0.305629
O O16 0.500000 0.150384 0.896212
O O17 0.126387 0.007915 0.250000
O O18 0.000000 0.039875 0.199358
#
# Coordination Sequence:
#
# PCOD9470535 Si02
#       7
#    16  16  16  16  16  16  16
#     4  12  26  39  56  79 118 157 194 232 289 345
#     4  10  19  32  53  81 111 142 183 235 289 339
#     4  11  23  38  57  79 111 152 197 240 278 340
#     4  12  23  36  57  82 113 149 189 236 289 339
#     4   8  14  28  54  87 114 138 183 243 286 322
#     4  11  22  38  63  88 114 152 195 237 283 338
#     4   8  13  24  46  79 112 138 174 233 292 334
#
# _framework density 18.668272999999999
#
# number of rings (size 3 to 8) (size 9 to 14) (size 15 to 20)
#    0.000    1.714    2.857    4.286    2.000    1.714 
#    0.000    0.000    0.000    2.571    0.000    4.000 
#    0.000    0.000    0.000    0.000    0.000    0.000 
#
# Total GULP energy -312507.604081 kJ/mol
# GULP energy per Si atom -5580.492930 kJ/mol
# Density = 1.862578 g / cm^3
# Si number density = 18.668273 Si / 1000 Ang^3
#
#
#
# Elastic Constant Matrix: (Units=GPa)
#
#
# Indices 1 2 3 4 5 6 
#
# 1 22.8240 -1.9957 16.9417 0.0000 0.0000 0.0000
# 2 -1.9957 72.4943 50.4647 0.0000 0.0000 0.0000
# 3 16.9417 50.4647 163.0163 0.0000 0.0000 0.0000
# 4 0.0000 0.0000 0.0000 26.6300 0.0000 0.0000
# 5 0.0000 0.0000 0.0000 0.0000 -13.1023 0.0000
# 6 0.0000 0.0000 0.0000 0.0000 0.0000 21.7588
#
#
#
# Elastic Compliance Matrix: (Units=1/GPa)
#
#
# Indices 1 2 3 4 5 6 
#
# 1 0.049649 0.006321 -0.007117 0.000000 0.000000 0.000000
# 2 0.006321 0.018388 -0.006349 0.000000 0.000000 0.000000
# 3 -0.007117 -0.006349 0.008839 0.000000 0.000000 0.000000
# 4 0.000000 0.000000 0.000000 0.037552 0.000000 0.000000
# 5 0.000000 0.000000 0.000000 0.000000 -0.076323 0.000000
# 6 0.000000 0.000000 0.000000 0.000000 0.000000 0.045958
#
#
# Mechanical properties :
#
#
# Convention : Reuss Voigt Hill
#
# Bulk Modulus (GPa) = 15.97797 43.23956 29.60876
# Shear Modulus (GPa) = 41.94078 19.91891 30.92984
#
# Velocity S-wave (km/s) = 4.74501 3.27003 4.07481
# Velocity P-wave (km/s) = 6.21270 6.12126 6.16715
#
# Compressibility (1/GPa) = 0.06258617
#
# Stress axis : x y z
#
# Youngs Moduli (GPa) = 20.14151 54.38323 113.12891
#
# Poissons Ratio (x) = -0.34374 0.80508
# Poissons Ratio (y) = -0.12731 0.71828
# Poissons Ratio (z) = 0.14334 0.34529
#
# Static dielectric constant tensor:
#      x y z
#    x 1.663470 0.000000 0.000000 
#    y 0.000000 1.624620 0.000000 
#    z 0.000000 0.000000 1.676290 
# 
# From -- ./inp_files/73413.got.cif
#   From: 2010.05.17/outbox.cif.g08.bks.cpg/sg63_37_cif.got.tgz:73413.got - 2010.06.03 15:47:04.
