data_PCOD9470023
_publ_section_title
;
Structure prediction by ZEFSAII (Michael W. Deem and Ramdas Pophale) SiO2 
 PCOD9470023
Probable space group: C M C M
;
_chemical_formula_sum "Si O2"
_cell_formula_units_Z 96
_cell_length_a 25.627786
_cell_length_b 14.555908
_cell_length_c 15.781589
_cell_angle_alpha 90.000000
_cell_angle_beta 90.000000
_cell_angle_gamma 90.000000
_cell_volume 5887.096025
_symmetry_space_group_name_H-M "C M C M"
_symmetry_group_IT_number 63
_symmetry_cell_setting 'orthorhombic'
loop_
_space_group_symop_operation_xyz
x,y,z
-x,-y,1/2+z
x,-y,-z
-x,y,1/2-z
-x,-y,-z
x,y,1/2-z
-x,y,z
x,-y,1/2+z
1/2+x,1/2+y,z
1/2-x,1/2-y,1/2+z
1/2+x,1/2-y,-z
1/2-x,1/2+y,1/2-z
1/2-x,1/2-y,-z
1/2+x,1/2+y,1/2-z
1/2-x,1/2+y,z
1/2+x,1/2-y,1/2+z
loop_
_atom_site_type_symbol
_atom_site_label
_atom_site_fract_x
_atom_site_fract_y
_atom_site_fract_z
Si Si1 0.644774 0.755700 0.109535
Si Si2 0.775936 0.409324 0.849427
Si Si3 0.372642 0.030478 0.907992
Si Si4 0.188985 0.100321 0.004857
Si Si5 0.264362 0.703415 0.655492
Si Si6 0.558085 0.032007 0.750000
Si Si7 0.439081 0.254813 0.750000
O O1 0.632197 0.860009 0.086308
O O2 0.702909 0.768706 0.150135
O O3 0.598366 0.721361 0.170605
O O4 0.652371 0.683607 0.034252
O O5 0.762402 0.426227 0.750000
O O6 0.818893 0.481467 0.880663
O O7 0.730013 0.414029 0.918238
O O8 0.793331 0.302015 0.853777
O O9 0.411966 0.004021 0.834002
O O10 0.389452 0.000000 0.000000
O O11 0.218745 0.135928 0.920255
O O12 0.163140 0.000000 0.000000
O O13 0.273967 0.665793 0.750000
O O14 0.500000 0.997018 0.750000
O O15 0.558038 0.143469 0.750000
O O16 0.500000 0.286873 0.750000
#
# Coordination Sequence:
#
# PCOD9470023 Si02
#       7
#    16  16  16  16  16   8   8
#     4  10  19  33  50  72 104 129 164 211 248 286
#     4  10  19  31  48  72 100 136 170 193 232 291
#     4  11  19  31  52  72  97 135 168 197 239 299
#     4  11  22  32  46  73 107 137 168 200 239 295
#     4  10  19  32  48  71 106 141 167 200 236 290
#     4   9  20  34  47  72 101 123 160 211 250 286
#     4   9  18  34  55  74  93 125 166 215 264 294
#
# _framework density 16.306851000000002
#
# number of rings (size 3 to 8) (size 9 to 14) (size 15 to 20)
#    0.000    1.833    1.667    5.500    1.167    2.333 
#    0.000    0.000    0.000    0.500    0.000    0.000 
#    0.000    0.000    0.000    0.000    0.000    0.000 
#
# Total GULP energy -267313.022388 kJ/mol
# GULP energy per Si atom -5569.021300 kJ/mol
# Density = 1.626974 g / cm^3
# Si number density = 16.306851 Si / 1000 Ang^3
#
#
#
# Elastic Constant Matrix: (Units=GPa)
#
#
# Indices 1 2 3 4 5 6 
#
# 1 73.5004 25.8497 41.0206 0.0000 0.0000 0.0000
# 2 25.8497 81.8089 43.9809 0.0000 0.0000 0.0000
# 3 41.0206 43.9809 135.2117 0.0000 0.0000 0.0000
# 4 0.0000 0.0000 0.0000 -18.4383 0.0000 0.0000
# 5 0.0000 0.0000 0.0000 0.0000 -25.3575 0.0000
# 6 0.0000 0.0000 0.0000 0.0000 0.0000 9.1699
#
#
#
# Elastic Compliance Matrix: (Units=1/GPa)
#
#
# Indices 1 2 3 4 5 6 
#
# 1 0.017025 -0.003154 -0.004139 0.000000 0.000000 0.000000
# 2 -0.003154 0.015399 -0.004052 0.000000 0.000000 0.000000
# 3 -0.004139 -0.004052 0.009969 0.000000 0.000000 0.000000
# 4 0.000000 0.000000 0.000000 -0.054235 0.000000 0.000000
# 5 0.000000 0.000000 0.000000 0.000000 -0.039436 0.000000
# 6 0.000000 0.000000 0.000000 0.000000 0.000000 0.109052
#
#
# Mechanical properties :
#
#
# Convention : Reuss Voigt Hill
#
# Bulk Modulus (GPa) = 50.75473 56.91371 53.83422
# Shear Modulus (GPa) = 57.45081 5.05283 31.25182
#
# Velocity S-wave (km/s) = 5.94202 1.76219 4.38252
# Velocity P-wave (km/s) = 8.84698 6.25443 7.66117
#
# Compressibility (1/GPa) = 0.01970260
#
# Stress axis : x y z
#
# Youngs Moduli (GPa) = 58.73840 64.94111 100.30660
#
# Poissons Ratio (x) = 0.20484 0.41516
# Poissons Ratio (y) = 0.18528 0.40642
# Poissons Ratio (z) = 0.24311 0.26313
#
# Static dielectric constant tensor:
#      x y z
#    x 1.538180 0.000000 0.000000 
#    y 0.000000 1.586370 0.000000 
#    z 0.000000 0.000000 1.547380 
# 
# From -- ./inp_files/36815.got.cif
#   From: 2010.05.17/outbox.cif.g08.bks.cpg/sg63_19_cif.got.tgz:36815.got - 2010.06.03 15:47:04.
