data_PCOD9470853
_publ_section_title
;
Structure prediction by ZEFSAII (Michael W. Deem and Ramdas Pophale) SiO2 
 PCOD9470853
Probable space group: C M C M
;
_chemical_formula_sum "Si O2"
_cell_formula_units_Z 96
_cell_length_a 8.701990
_cell_length_b 26.088776
_cell_length_c 24.166213
_cell_angle_alpha 90.000000
_cell_angle_beta 90.000000
_cell_angle_gamma 90.000000
_cell_volume 5486.316813
_symmetry_space_group_name_H-M "C M C M"
_symmetry_group_IT_number 63
_symmetry_cell_setting 'orthorhombic'
loop_
_space_group_symop_operation_xyz
x,y,z
-x,-y,1/2+z
x,-y,-z
-x,y,1/2-z
-x,-y,-z
x,y,1/2-z
-x,y,z
x,-y,1/2+z
1/2+x,1/2+y,z
1/2-x,1/2-y,1/2+z
1/2+x,1/2-y,-z
1/2-x,1/2+y,1/2-z
1/2-x,1/2-y,-z
1/2+x,1/2+y,1/2-z
1/2-x,1/2+y,z
1/2+x,1/2-y,1/2+z
loop_
_atom_site_type_symbol
_atom_site_label
_atom_site_fract_x
_atom_site_fract_y
_atom_site_fract_z
Si Si1 0.183930 0.808974 0.686025
Si Si2 0.314516 0.502418 0.185287
Si Si3 0.312938 0.401611 0.382635
Si Si4 0.185816 0.939735 0.997540
Si Si5 0.317375 0.902262 0.882298
Si Si6 0.314826 0.696620 0.814211
O O1 0.229683 0.820515 0.750000
O O2 0.254077 0.850303 0.644730
O O3 0.240637 0.751522 0.673735
O O4 0.000000 0.811205 0.683185
O O5 0.277043 0.500538 0.250000
O O6 0.500000 0.507020 0.180058
O O7 0.267221 0.450221 0.154611
O O8 0.239870 0.550827 0.155703
O O9 0.500000 0.400790 0.382235
O O10 0.265393 0.412278 0.445590
O O11 0.262075 0.348679 0.354718
O O12 0.253543 0.913209 0.943487
O O13 0.000000 0.938167 0.994107
O O14 0.229308 0.000000 0.000000
O O15 0.500000 0.900864 0.883498
O O16 0.280357 0.683228 0.750000
O O17 0.500000 0.701315 0.818494
#
# Coordination Sequence:
#
# PCOD9470853 Si02
#       6
#    16  16  16  16  16  16
#     4  10  21  38  59  81 107 143 185 225 271 329
#     4  10  19  33  55  82 111 143 181 222 268 328
#     4   9  17  32  56  84 110 142 182 222 267 323
#     4  10  19  36  59  79 107 148 191 227 265 320
#     4  12  24  36  53  79 112 144 183 230 278 326
#     4   9  17  32  56  85 114 141 173 219 275 328
#
# _framework density 17.498079000000001
#
# number of rings (size 3 to 8) (size 9 to 14) (size 15 to 20)
#    0.000    2.000    1.667    3.000    0.000    5.667 
#    0.000    2.500    0.000    2.000    0.000    0.000 
#    0.000    0.000    0.000    0.000    0.000    0.000 
#
# Total GULP energy -268011.135937 kJ/mol
# GULP energy per Si atom -5583.565332 kJ/mol
# Density = 1.745825 g / cm^3
# Si number density = 17.498079 Si / 1000 Ang^3
#
#
#
# Elastic Constant Matrix: (Units=GPa)
#
#
# Indices 1 2 3 4 5 6 
#
# 1 31.2864 43.7357 56.3584 0.0000 0.0000 0.0000
# 2 43.7357 153.8039 121.7600 0.0000 0.0000 0.0000
# 3 56.3584 121.7600 178.6764 0.0000 0.0000 0.0000
# 4 0.0000 0.0000 0.0000 16.9327 0.0000 0.0000
# 5 0.0000 0.0000 0.0000 0.0000 13.1637 0.0000
# 6 0.0000 0.0000 0.0000 0.0000 0.0000 24.6954
#
#
#
# Elastic Compliance Matrix: (Units=1/GPa)
#
#
# Indices 1 2 3 4 5 6 
#
# 1 0.076286 -0.005741 -0.020150 0.000000 0.000000 0.000000
# 2 -0.005741 0.014550 -0.008105 0.000000 0.000000 0.000000
# 3 -0.020150 -0.008105 0.017475 0.000000 0.000000 0.000000
# 4 0.000000 0.000000 0.000000 0.059057 0.000000 0.000000
# 5 0.000000 0.000000 0.000000 0.000000 0.075966 0.000000
# 6 0.000000 0.000000 0.000000 0.000000 0.000000 0.040493
#
#
# Mechanical properties :
#
#
# Convention : Reuss Voigt Hill
#
# Bulk Modulus (GPa) = 24.80127 89.71944 57.26035
# Shear Modulus (GPa) = 13.68891 20.41921 17.05406
#
# Velocity S-wave (km/s) = 2.80001 3.41976 3.12528
# Velocity P-wave (km/s) = 4.96567 8.18402 6.76890
#
# Compressibility (1/GPa) = 0.04032052
#
# Stress axis : x y z
#
# Youngs Moduli (GPa) = 13.10864 68.72707 57.22298
#
# Poissons Ratio (x) = 0.39453 1.15305
# Poissons Ratio (y) = 0.07525 0.46377
# Poissons Ratio (z) = 0.26414 0.55701
#
# Static dielectric constant tensor:
#      x y z
#    x 1.590060 0.000000 0.000000 
#    y 0.000000 1.567600 0.000000 
#    z 0.000000 0.000000 1.583560 
# 
# From -- ./inp_files/59914.got.cif
#   From: 2010.05.17/outbox.cif.g08.bks.cpg/sg63_30_cif.got.tgz:59914.got - 2010.06.03 15:47:04.
