data_PCOD9470149
_publ_section_title
;
Structure prediction by ZEFSAII (Michael W. Deem and Ramdas Pophale) SiO2 
 PCOD9470149
Probable space group: C M C M
;
_chemical_formula_sum "Si O2"
_cell_formula_units_Z 80
_cell_length_a 9.169738
_cell_length_b 27.433721
_cell_length_c 18.833175
_cell_angle_alpha 90.000000
_cell_angle_beta 90.000000
_cell_angle_gamma 90.000000
_cell_volume 4737.674142
_symmetry_space_group_name_H-M "C M C M"
_symmetry_group_IT_number 63
_symmetry_cell_setting 'orthorhombic'
loop_
_space_group_symop_operation_xyz
x,y,z
-x,-y,1/2+z
x,-y,-z
-x,y,1/2-z
-x,-y,-z
x,y,1/2-z
-x,y,z
x,-y,1/2+z
1/2+x,1/2+y,z
1/2-x,1/2-y,1/2+z
1/2+x,1/2-y,-z
1/2-x,1/2+y,1/2-z
1/2-x,1/2-y,-z
1/2+x,1/2+y,1/2-z
1/2-x,1/2+y,z
1/2+x,1/2-y,1/2+z
loop_
_atom_site_type_symbol
_atom_site_label
_atom_site_fract_x
_atom_site_fract_y
_atom_site_fract_z
Si Si1 0.673676 0.778158 0.100074
Si Si2 0.825437 0.473856 0.111598
Si Si3 0.325752 0.568729 0.750000
Si Si4 0.326466 0.324370 0.965666
Si Si5 0.325865 0.173351 0.750000
Si Si6 0.826292 0.424106 0.961922
O O1 0.500000 0.784648 0.087615
O O2 0.707658 0.721395 0.085638
O O3 0.705946 0.796147 0.179034
O O4 0.759413 0.809399 0.041730
O O5 0.737409 0.457362 0.179969
O O6 0.793998 0.529237 0.087308
O O7 0.000000 0.469943 0.124547
O O8 0.791941 0.440333 0.042914
O O9 0.500000 0.568456 0.750000
O O10 0.263496 0.623566 0.750000
O O11 0.500000 0.328729 0.971014
O O12 0.257552 0.375272 0.942459
O O13 0.500000 0.162098 0.750000
O O14 0.000000 0.415751 0.958928
#
# Coordination Sequence:
#
# PCOD9470149 Si02
#       6
#    16  16   8  16   8  16
#     4   9  19  34  51  72  98 132 172 205 240 295
#     4   9  19  36  55  74  99 134 173 206 241 297
#     4  12  24  34  49  78 109 131 158 205 259 300
#     4  10  19  31  50  76 104 131 161 205 256 298
#     4  10  20  36  55  70  93 133 172 203 239 292
#     4   9  18  34  56  77  97 129 173 212 245 291
#
# _framework density 16.885922999999998
#
# number of rings (size 3 to 8) (size 9 to 14) (size 15 to 20)
#    0.000    2.400    0.000    3.900    0.000    8.000 
#    0.000    3.000    0.000    1.200    0.000    0.000 
#    0.000    0.000    0.000    0.000    0.000    0.000 
#
# Total GULP energy -223227.491266 kJ/mol
# GULP energy per Si atom -5580.687282 kJ/mol
# Density = 1.684749 g / cm^3
# Si number density = 16.885923 Si / 1000 Ang^3
#
#
#
# Elastic Constant Matrix: (Units=GPa)
#
#
# Indices 1 2 3 4 5 6 
#
# 1 55.9774 66.5354 65.4440 0.0000 0.0000 0.0000
# 2 66.5354 128.2433 68.0868 0.0000 0.0000 0.0000
# 3 65.4440 68.0868 128.3464 0.0000 0.0000 0.0000
# 4 0.0000 0.0000 0.0000 10.1131 0.0000 0.0000
# 5 0.0000 0.0000 0.0000 0.0000 17.1296 0.0000
# 6 0.0000 0.0000 0.0000 0.0000 0.0000 34.9269
#
#
#
# Elastic Compliance Matrix: (Units=1/GPa)
#
#
# Indices 1 2 3 4 5 6 
#
# 1 0.086072 -0.029728 -0.028118 0.000000 0.000000 0.000000
# 2 -0.029728 0.021122 0.003953 0.000000 0.000000 0.000000
# 3 -0.028118 0.003953 0.020032 0.000000 0.000000 0.000000
# 4 0.000000 0.000000 0.000000 0.098882 0.000000 0.000000
# 5 0.000000 0.000000 0.000000 0.000000 0.058379 0.000000
# 6 0.000000 0.000000 0.000000 0.000000 0.000000 0.028631
#
#
# Mechanical properties :
#
#
# Convention : Reuss Voigt Hill
#
# Bulk Modulus (GPa) = 51.43809 79.18885 65.31347
# Shear Modulus (GPa) = 11.69907 19.93396 15.81651
#
# Velocity S-wave (km/s) = 2.63502 3.43958 3.06382
# Velocity P-wave (km/s) = 6.30762 7.92291 7.16095
#
# Compressibility (1/GPa) = 0.01944085
#
# Stress axis : x y z
#
# Youngs Moduli (GPa) = 11.61812 47.34302 49.92063
#
# Poissons Ratio (x) = 1.40741 1.40367
# Poissons Ratio (y) = 0.34538 -0.19734
# Poissons Ratio (z) = 0.32668 -0.18715
#
# Static dielectric constant tensor:
#      x y z
#    x 1.557330 0.000000 0.000000 
#    y 0.000000 1.566420 0.000000 
#    z 0.000000 0.000000 1.545270 
# 
# From -- ./inp_files/40567.got.cif
#   From: 2010.05.17/outbox.cif.g08.bks.cpg/sg63_21_cif.got.tgz:40567.got - 2010.06.03 15:47:04.
