data_PCOD9470676
_publ_section_title
;
Structure prediction by ZEFSAII (Michael W. Deem and Ramdas Pophale) SiO2 
 PCOD9470676
Probable space group: C M C M
;
_chemical_formula_sum "Si O2"
_cell_formula_units_Z 96
_cell_length_a 11.547735
_cell_length_b 31.818302
_cell_length_c 14.424885
_cell_angle_alpha 90.000000
_cell_angle_beta 90.000000
_cell_angle_gamma 90.000000
_cell_volume 5300.125682
_symmetry_space_group_name_H-M "C M C M"
_symmetry_group_IT_number 63
_symmetry_cell_setting 'orthorhombic'
loop_
_space_group_symop_operation_xyz
x,y,z
-x,-y,1/2+z
x,-y,-z
-x,y,1/2-z
-x,-y,-z
x,y,1/2-z
-x,y,z
x,-y,1/2+z
1/2+x,1/2+y,z
1/2-x,1/2-y,1/2+z
1/2+x,1/2-y,-z
1/2-x,1/2+y,1/2-z
1/2-x,1/2-y,-z
1/2+x,1/2+y,1/2-z
1/2-x,1/2+y,z
1/2+x,1/2-y,1/2+z
loop_
_atom_site_type_symbol
_atom_site_label
_atom_site_fract_x
_atom_site_fract_y
_atom_site_fract_z
Si Si1 0.766606 0.689485 0.955984
Si Si2 0.363472 0.602300 0.539187
Si Si3 0.000000 0.663462 0.861648
Si Si4 0.258144 0.977424 0.098713
Si Si5 0.500000 0.934114 0.139853
Si Si6 0.859603 0.731722 0.361931
Si Si7 0.634455 0.442359 0.848206
O O1 0.704871 0.644795 0.944639
O O2 0.887585 0.686235 0.901876
O O3 0.686664 0.724294 0.905392
O O4 0.797111 0.699920 0.064274
O O5 0.500000 0.608982 0.547448
O O6 0.323091 0.563512 0.602945
O O7 0.335642 0.586391 0.435044
O O8 0.000000 0.664194 0.750000
O O9 0.000000 0.614280 0.894347
O O10 0.386229 0.959852 0.112519
O O11 0.211794 0.016145 0.157393
O O12 0.250388 0.000000 0.000000
O O13 0.500000 0.930962 0.250000
O O14 0.833288 0.727880 0.250000
O O15 0.000000 0.728491 0.370527
O O16 0.642599 0.419292 0.750000
O O17 0.500000 0.455584 0.861874
#
# Coordination Sequence:
#
# PCOD9470676 Si02
#       7
#    16  16   8  16   8  16  16
#     4  11  21  39  62  84 117 150 184 232 284 338
#     4  10  20  34  55  80 107 143 185 228 278 332
#     4  11  22  37  58  84 112 149 190 229 279 337
#     4  10  19  33  52  75 105 144 186 226 273 330
#     4  11  21  33  51  76 109 143 183 231 277 327
#     4  10  22  40  63  89 116 148 186 229 282 342
#     4   9  18  33  52  75 106 142 183 231 276 322
#
# _framework density 18.112777000000001
#
# number of rings (size 3 to 8) (size 9 to 14) (size 15 to 20)
#    0.000    1.833    2.500    2.250    0.000    2.667 
#    0.000    0.000    0.000    4.000    0.000    0.000 
#    0.000    0.000    0.000    0.000    0.000    0.000 
#
# Total GULP energy -267305.787155 kJ/mol
# GULP energy per Si atom -5568.870566 kJ/mol
# Density = 1.807155 g / cm^3
# Si number density = 18.112777 Si / 1000 Ang^3
#
#
#
# Elastic Constant Matrix: (Units=GPa)
#
#
# Indices 1 2 3 4 5 6 
#
# 1 56.6823 10.2995 9.9803 0.0000 0.0000 0.0000
# 2 10.2995 42.5401 -4.3391 0.0000 0.0000 0.0000
# 3 9.9803 -4.3391 73.8700 0.0000 0.0000 0.0000
# 4 0.0000 0.0000 0.0000 34.9593 0.0000 0.0000
# 5 0.0000 0.0000 0.0000 0.0000 -375.2438 0.0000
# 6 0.0000 0.0000 0.0000 0.0000 0.0000 34.1565
#
#
#
# Elastic Compliance Matrix: (Units=1/GPa)
#
#
# Indices 1 2 3 4 5 6 
#
# 1 0.019036 -0.004901 -0.002860 0.000000 0.000000 0.000000
# 2 -0.004901 0.024911 0.002125 0.000000 0.000000 0.000000
# 3 -0.002860 0.002125 0.014049 0.000000 0.000000 0.000000
# 4 0.000000 0.000000 0.000000 0.028605 0.000000 0.000000
# 5 0.000000 0.000000 0.000000 0.000000 -0.002665 0.000000
# 6 0.000000 0.000000 0.000000 0.000000 0.000000 0.029277
#
#
# Mechanical properties :
#
#
# Convention : Reuss Voigt Hill
#
# Bulk Modulus (GPa) = 21.40173 22.77485 22.08829
# Shear Modulus (GPa) = 35.69973 -50.74883 -7.52455
#
# Velocity S-wave (km/s) = 4.44438 -5.29897 -2.04042
# Velocity P-wave (km/s) = 6.17884 4.98373 2.58269
#
# Compressibility (1/GPa) = 0.04672520
#
# Stress axis : x y z
#
# Youngs Moduli (GPa) = 52.53156 40.14366 71.18190
#
# Poissons Ratio (x) = 0.19673 0.20356
# Poissons Ratio (y) = 0.25744 -0.15129
# Poissons Ratio (z) = 0.15023 -0.08532
#
# Static dielectric constant tensor:
#      x y z
#    x 1.598090 0.000000 0.000000 
#    y 0.000000 1.603920 0.000000 
#    z 0.000000 0.000000 1.672490 
# 
# From -- ./inp_files/30343.got.cif
#   From: 2010.05.17/outbox.cif.g08.bks.cpg/sg63_16_cif.got.tgz:30343.got - 2010.06.03 15:47:04.
