data_PCOD9470633
_publ_section_title
;
Structure prediction by ZEFSAII (Michael W. Deem and Ramdas Pophale) SiO2 
 PCOD9470633
Probable space group: C M C M
;
_chemical_formula_sum "Si O2"
_cell_formula_units_Z 112
_cell_length_a 29.540474
_cell_length_b 14.294821
_cell_length_c 15.953027
_cell_angle_alpha 90.000000
_cell_angle_beta 90.000000
_cell_angle_gamma 90.000000
_cell_volume 6736.577049
_symmetry_space_group_name_H-M "C M C M"
_symmetry_group_IT_number 63
_symmetry_cell_setting 'orthorhombic'
loop_
_space_group_symop_operation_xyz
x,y,z
-x,-y,1/2+z
x,-y,-z
-x,y,1/2-z
-x,-y,-z
x,y,1/2-z
-x,y,z
x,-y,1/2+z
1/2+x,1/2+y,z
1/2-x,1/2-y,1/2+z
1/2+x,1/2-y,-z
1/2-x,1/2+y,1/2-z
1/2-x,1/2-y,-z
1/2+x,1/2+y,1/2-z
1/2-x,1/2+y,z
1/2+x,1/2-y,1/2+z
loop_
_atom_site_type_symbol
_atom_site_label
_atom_site_fract_x
_atom_site_fract_y
_atom_site_fract_z
Si Si1 0.142729 0.750297 0.570649
Si Si2 0.949462 0.733337 0.849906
Si Si3 0.947940 0.509992 0.651670
Si Si4 0.225045 0.642710 0.654983
Si Si5 0.783724 0.888263 0.993750
Si Si6 0.782960 0.582646 0.342969
Si Si7 0.367731 0.914934 0.557030
O O1 0.095701 0.779452 0.613572
O O2 0.178495 0.696405 0.631740
O O3 0.170930 0.833794 0.529416
O O4 0.129304 0.674736 0.500755
O O5 0.949687 0.746752 0.750000
O O6 0.944090 0.621298 0.863935
O O7 0.000000 0.760106 0.881302
O O8 0.937276 0.495401 0.750000
O O9 0.914235 0.453530 0.593511
O O10 0.000000 0.483548 0.637418
O O11 0.239495 0.668264 0.750000
O O12 0.260453 0.652955 0.577991
O O13 0.217750 0.530524 0.655798
O O14 0.749160 0.878420 0.915671
O O15 0.791034 0.000000 0.000000
O O16 0.769775 0.613281 0.250000
O O17 0.833784 0.607628 0.367862
O O18 0.347755 0.000000 0.500000
#
# Coordination Sequence:
#
# PCOD9470633 Si02
#       7
#    16  16  16  16  16  16  16
#     4  12  21  32  52  76 103 137 177 216 260 310
#     4   9  18  32  50  76 108 136 166 207 257 316
#     4   9  18  32  48  70 105 144 172 199 247 312
#     4  10  19  33  53  76 105 137 169 212 261 314
#     4  10  22  40  52  72 105 138 181 224 261 305
#     4  10  19  33  51  71 103 142 174 209 255 307
#     4  12  19  29  46  72 108 135 170 212 251 306
#
# _framework density 16.625654000000001
#
# number of rings (size 3 to 8) (size 9 to 14) (size 15 to 20)
#    0.000    1.714    4.286    2.571    0.000    4.286 
#    0.000    0.714    0.000    0.429    0.000    0.000 
#    0.000    2.286    0.000    0.000    0.000    0.000 
#
# Total GULP energy -312400.869893 kJ/mol
# GULP energy per Si atom -5578.586962 kJ/mol
# Density = 1.658781 g / cm^3
# Si number density = 16.625654 Si / 1000 Ang^3
#
#
#
# Elastic Constant Matrix: (Units=GPa)
#
#
# Indices 1 2 3 4 5 6 
#
# 1 115.4971 24.4109 64.3361 0.0000 0.0000 0.0000
# 2 24.4109 28.1763 27.1486 0.0000 0.0000 0.0000
# 3 64.3361 27.1486 114.4507 0.0000 0.0000 0.0000
# 4 0.0000 0.0000 0.0000 3.6497 0.0000 0.0000
# 5 0.0000 0.0000 0.0000 0.0000 3.5785 0.0000
# 6 0.0000 0.0000 0.0000 0.0000 0.0000 27.9724
#
#
#
# Elastic Compliance Matrix: (Units=1/GPa)
#
#
# Indices 1 2 3 4 5 6 
#
# 1 0.013249 -0.005577 -0.006124 0.000000 0.000000 0.000000
# 2 -0.005577 0.048353 -0.008335 0.000000 0.000000 0.000000
# 3 -0.006124 -0.008335 0.014157 0.000000 0.000000 0.000000
# 4 0.000000 0.000000 0.000000 0.273993 0.000000 0.000000
# 5 0.000000 0.000000 0.000000 0.000000 0.279449 0.000000
# 6 0.000000 0.000000 0.000000 0.000000 0.000000 0.035750
#
#
# Mechanical properties :
#
#
# Convention : Reuss Voigt Hill
#
# Bulk Modulus (GPa) = 28.02175 54.43503 41.22839
# Shear Modulus (GPa) = 6.97429 16.52201 11.74815
#
# Velocity S-wave (km/s) = 2.05037 3.15583 2.66113
# Velocity P-wave (km/s) = 4.74304 6.78908 5.85611
#
# Compressibility (1/GPa) = 0.03568656
#
# Stress axis : x y z
#
# Youngs Moduli (GPa) = 75.48024 20.68110 70.63536
#
# Poissons Ratio (x) = 0.11534 0.43260
# Poissons Ratio (y) = 0.42095 0.58873
# Poissons Ratio (z) = 0.46228 0.17237
#
# Static dielectric constant tensor:
#      x y z
#    x 1.566940 0.000000 0.000000 
#    y 0.000000 1.554930 0.000000 
#    z 0.000000 0.000000 1.598470 
# 
# From -- ./inp_files/37951.got.cif
#   From: 2010.05.17/outbox.cif.g08.bks.cpg/sg63_19_cif.got.tgz:37951.got - 2010.06.03 15:47:04.
