data_PCOD9470298
_publ_section_title
;
Structure prediction by ZEFSAII (Michael W. Deem and Ramdas Pophale) SiO2 
 PCOD9470298
Probable space group: C M C M
;
_chemical_formula_sum "Si O2"
_cell_formula_units_Z 96
_cell_length_a 8.829782
_cell_length_b 24.420366
_cell_length_c 26.599540
_cell_angle_alpha 90.000000
_cell_angle_beta 90.000000
_cell_angle_gamma 90.000000
_cell_volume 5735.565928
_symmetry_space_group_name_H-M "C M C M"
_symmetry_group_IT_number 63
_symmetry_cell_setting 'orthorhombic'
loop_
_space_group_symop_operation_xyz
x,y,z
-x,-y,1/2+z
x,-y,-z
-x,y,1/2-z
-x,-y,-z
x,y,1/2-z
-x,y,z
x,-y,1/2+z
1/2+x,1/2+y,z
1/2-x,1/2-y,1/2+z
1/2+x,1/2-y,-z
1/2-x,1/2+y,1/2-z
1/2-x,1/2-y,-z
1/2+x,1/2+y,1/2-z
1/2-x,1/2+y,z
1/2+x,1/2-y,1/2+z
loop_
_atom_site_type_symbol
_atom_site_label
_atom_site_fract_x
_atom_site_fract_y
_atom_site_fract_z
Si Si1 0.323985 0.678568 0.034039
Si Si2 0.818555 0.358150 0.429811
Si Si3 0.682126 0.016806 0.943758
Si Si4 0.682659 0.328449 0.691028
Si Si5 0.180504 0.242441 0.615833
Si Si6 0.825103 0.919271 0.885556
O O1 0.500000 0.692457 0.023987
O O2 0.245781 0.725269 0.067253
O O3 0.320784 0.624488 0.068867
O O4 0.236024 0.665145 0.983446
O O5 0.770199 0.421719 0.429359
O O6 0.744299 0.318926 0.388293
O O7 0.000000 0.355184 0.426263
O O8 0.500000 0.016610 0.945732
O O9 0.735585 0.972096 0.903686
O O10 0.736924 0.000000 0.000000
O O11 0.715070 0.329913 0.750000
O O12 0.500000 0.324239 0.683784
O O13 0.758547 0.277223 0.663006
O O14 0.730915 0.384118 0.662216
O O15 0.000000 0.242629 0.614806
O O16 0.000000 0.934458 0.876736
#
# Coordination Sequence:
#
# PCOD9470298 Si02
#       6
#    16  16  16  16  16  16
#     4  10  19  32  49  72 103 139 176 211 256 307
#     4  11  21  33  49  70 103 143 180 214 256 305
#     4  10  20  33  49  72 104 143 181 215 253 299
#     4   9  19  38  61  82 104 131 166 212 268 321
#     4  11  22  34  50  75 105 134 172 216 259 309
#     4   9  18  31  51  78 104 134 172 213 256 305
#
# _framework density 16.737669
#
# number of rings (size 3 to 8) (size 9 to 14) (size 15 to 20)
#    0.000    2.000    1.667    4.000    0.000    4.667 
#    0.000    0.000    0.000    1.000    0.000    4.667 
#    0.000    0.000    0.000    0.000    0.000    0.000 
#
# Total GULP energy -267859.331164 kJ/mol
# GULP energy per Si atom -5580.402733 kJ/mol
# Density = 1.669957 g / cm^3
# Si number density = 16.737669 Si / 1000 Ang^3
#
#
#
# Elastic Constant Matrix: (Units=GPa)
#
#
# Indices 1 2 3 4 5 6 
#
# 1 50.6311 47.8926 26.6034 0.0000 0.0000 0.0000
# 2 47.8926 143.5140 65.1392 0.0000 0.0000 0.0000
# 3 26.6034 65.1392 86.1080 0.0000 0.0000 0.0000
# 4 0.0000 0.0000 0.0000 7.0747 0.0000 0.0000
# 5 0.0000 0.0000 0.0000 0.0000 19.5612 0.0000
# 6 0.0000 0.0000 0.0000 0.0000 0.0000 25.7969
#
#
#
# Elastic Compliance Matrix: (Units=1/GPa)
#
#
# Indices 1 2 3 4 5 6 
#
# 1 0.029214 -0.008608 -0.002514 0.000000 0.000000 0.000000
# 2 -0.008608 0.013148 -0.007287 0.000000 0.000000 0.000000
# 3 -0.002514 -0.007287 0.017902 0.000000 0.000000 0.000000
# 4 0.000000 0.000000 0.000000 0.141348 0.000000 0.000000
# 5 0.000000 0.000000 0.000000 0.000000 0.051122 0.000000
# 6 0.000000 0.000000 0.000000 0.000000 0.000000 0.038764
#
#
# Mechanical properties :
#
#
# Convention : Reuss Voigt Hill
#
# Bulk Modulus (GPa) = 42.64961 62.16928 52.40944
# Shear Modulus (GPa) = 14.87513 19.86110 17.36812
#
# Velocity S-wave (km/s) = 2.98438 3.44846 3.22478
# Velocity P-wave (km/s) = 6.11652 7.28559 6.72650
#
# Compressibility (1/GPa) = 0.02344687
#
# Stress axis : x y z
#
# Youngs Moduli (GPa) = 34.23003 76.05764 55.85891
#
# Poissons Ratio (x) = 0.65471 0.14043
# Poissons Ratio (y) = 0.29466 0.40703
# Poissons Ratio (z) = 0.08605 0.55421
#
# Static dielectric constant tensor:
#      x y z
#    x 1.563440 0.000000 0.000000 
#    y 0.000000 1.580500 0.000000 
#    z 0.000000 0.000000 1.551010 
# 
# From -- ./inp_files/67223.got.cif
#   From: 2010.05.17/outbox.cif.g08.bks.cpg/sg63_34_cif.got.tgz:67223.got - 2010.06.03 15:47:04.
