data_PCOD9471674
_publ_section_title
;
Structure prediction by ZEFSAII (Michael W. Deem and Ramdas Pophale) SiO2 
 PCOD9471674
Probable space group: C M C M
;
_chemical_formula_sum "Si O2"
_cell_formula_units_Z 104
_cell_length_a 32.831204
_cell_length_b 21.453170
_cell_length_c 8.261430
_cell_angle_alpha 90.000000
_cell_angle_beta 90.000000
_cell_angle_gamma 90.000000
_cell_volume 5818.801087
_symmetry_space_group_name_H-M "C M C M"
_symmetry_group_IT_number 63
_symmetry_cell_setting 'orthorhombic'
loop_
_space_group_symop_operation_xyz
x,y,z
-x,-y,1/2+z
x,-y,-z
-x,y,1/2-z
-x,-y,-z
x,y,1/2-z
-x,y,z
x,-y,1/2+z
1/2+x,1/2+y,z
1/2-x,1/2-y,1/2+z
1/2+x,1/2-y,-z
1/2-x,1/2+y,1/2-z
1/2-x,1/2-y,-z
1/2+x,1/2+y,1/2-z
1/2-x,1/2+y,z
1/2+x,1/2-y,1/2+z
loop_
_atom_site_type_symbol
_atom_site_label
_atom_site_fract_x
_atom_site_fract_y
_atom_site_fract_z
Si Si1 0.571291 0.657155 0.944194
Si Si2 0.135152 0.681922 0.945198
Si Si3 0.454902 0.798159 0.943341
Si Si4 0.658988 0.681003 0.440528
Si Si5 0.784432 0.930736 0.943657
Si Si6 0.000000 0.930285 0.444763
Si Si7 0.191281 0.568090 0.944246
O O1 0.578291 0.652417 0.750000
O O2 0.550482 0.724180 0.972761
O O3 0.540236 0.605043 0.000777
O O4 0.613931 0.654073 0.034056
O O5 0.136811 0.684504 0.750000
O O6 0.154022 0.748047 0.007102
O O7 0.162175 0.623825 0.001110
O O8 0.087563 0.674706 0.990558
O O9 0.454839 0.807646 0.750000
O O10 0.500000 0.817860 0.004366
O O11 0.668300 0.687534 0.250000
O O12 0.690254 0.629193 0.507370
O O13 0.787468 0.930810 0.750000
O O14 0.737288 0.923853 0.992882
O O15 0.798129 0.000000 0.000000
O O16 0.000000 0.925626 0.250000
O O17 0.000000 0.000000 0.500000
O O18 0.192573 0.568919 0.750000
O O19 0.176808 0.500000 0.000000
#
# Coordination Sequence:
#
# PCOD9471674 Si02
#       7
#    16  16  16  16  16   8  16
#     4   9  17  31  48  65  91 126 161 202 248 290
#     4   9  19  34  51  76 105 131 162 203 251 296
#     4   9  16  29  51  75  98 126 161 200 242 291
#     4   9  19  34  50  72 101 129 163 207 250 294
#     4  10  20  34  52  72  98 133 171 208 247 295
#     4  10  20  32  44  62  90 124 165 208 247 290
#     4  10  20  35  55  76 101 131 164 202 244 298
#
# _framework density 17.873097999999999
#
# number of rings (size 3 to 8) (size 9 to 14) (size 15 to 20)
#    0.000    2.615    0.769    1.846    0.000    4.615 
#    0.000    3.077    0.000    0.462    0.000    0.000 
#    0.000    0.000    0.000    0.000    0.000    0.000 
#
# Total GULP energy -289667.983045 kJ/mol
# GULP energy per Si atom -5570.538135 kJ/mol
# Density = 1.783242 g / cm^3
# Si number density = 17.873098 Si / 1000 Ang^3
#
#
#
# Elastic Constant Matrix: (Units=GPa)
#
#
# Indices 1 2 3 4 5 6 
#
# 1 103.2752 89.8088 9.9400 0.0000 0.0000 0.0000
# 2 89.8088 132.6191 12.9562 0.0000 0.0000 0.0000
# 3 9.9400 12.9562 13.3757 0.0000 0.0000 0.0000
# 4 0.0000 0.0000 0.0000 20.9615 0.0000 0.0000
# 5 0.0000 0.0000 0.0000 0.0000 25.0980 0.0000
# 6 0.0000 0.0000 0.0000 0.0000 0.0000 30.1962
#
#
#
# Elastic Compliance Matrix: (Units=1/GPa)
#
#
# Indices 1 2 3 4 5 6 
#
# 1 0.023616 -0.015770 -0.002274 0.000000 0.000000 0.000000
# 2 -0.015770 0.018860 -0.006549 0.000000 0.000000 0.000000
# 3 -0.002274 -0.006549 0.082796 0.000000 0.000000 0.000000
# 4 0.000000 0.000000 0.000000 0.047707 0.000000 0.000000
# 5 0.000000 0.000000 0.000000 0.000000 0.039844 0.000000
# 6 0.000000 0.000000 0.000000 0.000000 0.000000 0.033117
#
#
# Mechanical properties :
#
#
# Convention : Reuss Voigt Hill
#
# Bulk Modulus (GPa) = 13.14321 52.74223 32.94272
# Shear Modulus (GPa) = 15.60133 24.35547 19.97840
#
# Velocity S-wave (km/s) = 2.95768 3.69547 3.34697
# Velocity P-wave (km/s) = 4.36273 6.91245 5.77994
#
# Compressibility (1/GPa) = 0.07608491
#
# Stress axis : x y z
#
# Youngs Moduli (GPa) = 42.34494 53.02326 12.07794
#
# Poissons Ratio (x) = 0.83619 0.02746
# Poissons Ratio (y) = 0.66779 0.07910
# Poissons Ratio (z) = 0.09629 0.34724
#
# Static dielectric constant tensor:
#      x y z
#    x 1.606870 0.000000 0.000000 
#    y 0.000000 1.615670 0.000000 
#    z 0.000000 0.000000 1.638100 
# 
# From -- ./inp_files/12838.got.cif
#   From: 2010.05.17/outbox.cif.g08.bks.cpg/sg63_7_cif.got.tgz:12838.got - 2010.06.03 15:47:04.
