data_PCOD9471605
_publ_section_title
;
Structure prediction by ZEFSAII (Michael W. Deem and Ramdas Pophale) SiO2 
 PCOD9471605
Probable space group: C M C M
;
_chemical_formula_sum "Si O2"
_cell_formula_units_Z 88
_cell_length_a 31.337243
_cell_length_b 17.810162
_cell_length_c 9.222684
_cell_angle_alpha 90.000000
_cell_angle_beta 90.000000
_cell_angle_gamma 90.000000
_cell_volume 5147.377070
_symmetry_space_group_name_H-M "C M C M"
_symmetry_group_IT_number 63
_symmetry_cell_setting 'orthorhombic'
loop_
_space_group_symop_operation_xyz
x,y,z
-x,-y,1/2+z
x,-y,-z
-x,y,1/2-z
-x,-y,-z
x,y,1/2-z
-x,y,z
x,-y,1/2+z
1/2+x,1/2+y,z
1/2-x,1/2-y,1/2+z
1/2+x,1/2-y,-z
1/2-x,1/2+y,1/2-z
1/2-x,1/2-y,-z
1/2+x,1/2+y,1/2-z
1/2-x,1/2+y,z
1/2+x,1/2-y,1/2+z
loop_
_atom_site_type_symbol
_atom_site_label
_atom_site_fract_x
_atom_site_fract_y
_atom_site_fract_z
Si Si1 0.330408 0.072652 0.920521
Si Si2 0.908757 0.635199 0.081391
Si Si3 0.875616 0.195495 0.920038
Si Si4 0.500000 0.920648 0.576766
Si Si5 0.548785 0.418988 0.425029
Si Si6 0.204860 0.260044 0.077236
O O1 0.331102 0.059137 0.750000
O O2 0.307966 0.152682 0.948099
O O3 0.377616 0.086576 0.982928
O O4 0.311450 0.000000 0.000000
O O5 0.902783 0.612826 0.250000
O O6 0.896909 0.722344 0.070720
O O7 0.957311 0.623179 0.038534
O O8 0.865412 0.181031 0.750000
O O9 0.911901 0.135703 0.966942
O O10 0.831909 0.206028 0.010270
O O11 0.500000 0.931094 0.750000
O O12 0.500000 0.000000 0.500000
O O13 0.553721 0.500000 0.500000
O O14 0.550527 0.426519 0.250000
O O15 0.500000 0.391816 0.459536
O O16 0.207541 0.248143 0.250000
O O17 0.250000 0.250000 0.000000
#
# Coordination Sequence:
#
# PCOD9471605 Si02
#       6
#    16  16  16   8  16  16
#     4  10  20  34  53  76 101 130 166 206 249 301
#     4   9  18  31  48  70  97 132 170 209 248 291
#     4   9  18  33  54  77 102 135 175 215 259 311
#     4  10  20  30  42  64  95 130 166 202 241 282
#     4   9  18  32  52  78 108 143 181 223 268 318
#     4  10  21  37  57  80 106 134 169 215 265 317
#
# _framework density 17.096087000000001
#
# number of rings (size 3 to 8) (size 9 to 14) (size 15 to 20)
#    0.000    2.545    0.000    1.636    1.273    5.091 
#    0.000    0.909    0.000    0.000    0.000    0.000 
#    0.000    0.000    0.000    0.000    0.000    0.000 
#
# Total GULP energy -245186.410169 kJ/mol
# GULP energy per Si atom -5572.418413 kJ/mol
# Density = 1.705718 g / cm^3
# Si number density = 17.096087 Si / 1000 Ang^3
#
#
#
# Elastic Constant Matrix: (Units=GPa)
#
#
# Indices 1 2 3 4 5 6 
#
# 1 155.4635 55.8385 69.9049 0.0000 0.0000 0.0000
# 2 55.8385 69.7528 48.1827 0.0000 0.0000 0.0000
# 3 69.9049 48.1827 58.1735 0.0000 0.0000 0.0000
# 4 0.0000 0.0000 0.0000 29.0955 0.0000 0.0000
# 5 0.0000 0.0000 0.0000 0.0000 24.5185 0.0000
# 6 0.0000 0.0000 0.0000 0.0000 0.0000 13.1531
#
#
#
# Elastic Compliance Matrix: (Units=1/GPa)
#
#
# Indices 1 2 3 4 5 6 
#
# 1 0.014021 0.000968 -0.017651 0.000000 0.000000 0.000000
# 2 0.000968 0.033573 -0.028971 0.000000 0.000000 0.000000
# 3 -0.017651 -0.028971 0.062396 0.000000 0.000000 0.000000
# 4 0.000000 0.000000 0.000000 0.034370 0.000000 0.000000
# 5 0.000000 0.000000 0.000000 0.000000 0.040786 0.000000
# 6 0.000000 0.000000 0.000000 0.000000 0.000000 0.076027
#
#
# Mechanical properties :
#
#
# Convention : Reuss Voigt Hill
#
# Bulk Modulus (GPa) = 53.52360 70.13801 61.83081
# Shear Modulus (GPa) = 13.93891 20.65101 17.29496
#
# Velocity S-wave (km/s) = 2.85849 3.47931 3.18407
# Velocity P-wave (km/s) = 6.50155 7.56675 7.05428
#
# Compressibility (1/GPa) = 0.01868335
#
# Stress axis : x y z
#
# Youngs Moduli (GPa) = 71.31920 29.78555 16.02672
#
# Poissons Ratio (x) = -0.02884 0.28289
# Poissons Ratio (y) = -0.06905 0.46431
# Poissons Ratio (z) = 1.25885 0.86291
#
# Static dielectric constant tensor:
#      x y z
#    x 1.578930 0.000000 0.000000 
#    y 0.000000 1.569460 0.000000 
#    z 0.000000 0.000000 1.575810 
# 
# From -- ./inp_files/14146.got.cif
#   From: 2010.05.17/outbox.cif.g08.bks.cpg/sg63_8_cif.got.tgz:14146.got - 2010.06.03 15:47:04.
