data_PCOD9471229
_publ_section_title
;
Structure prediction by ZEFSAII (Michael W. Deem and Ramdas Pophale) SiO2 
 PCOD9471229
Probable space group: C M C M
;
_chemical_formula_sum "Si O2"
_cell_formula_units_Z 60
_cell_length_a 26.891415
_cell_length_b 18.415617
_cell_length_c 5.454575
_cell_angle_alpha 90.000000
_cell_angle_beta 90.000000
_cell_angle_gamma 90.000000
_cell_volume 2701.225536
_symmetry_space_group_name_H-M "C M C M"
_symmetry_group_IT_number 63
_symmetry_cell_setting 'orthorhombic'
loop_
_space_group_symop_operation_xyz
x,y,z
-x,-y,1/2+z
x,-y,-z
-x,y,1/2-z
-x,-y,-z
x,y,1/2-z
-x,y,z
x,-y,1/2+z
1/2+x,1/2+y,z
1/2-x,1/2-y,1/2+z
1/2+x,1/2-y,-z
1/2-x,1/2+y,1/2-z
1/2-x,1/2-y,-z
1/2+x,1/2+y,1/2-z
1/2-x,1/2+y,z
1/2+x,1/2-y,1/2+z
loop_
_atom_site_type_symbol
_atom_site_label
_atom_site_fract_x
_atom_site_fract_y
_atom_site_fract_z
Si Si1 0.840732 0.208661 0.750000
Si Si2 0.000000 0.548689 0.750000
Si Si3 0.105403 0.452928 0.250000
Si Si4 0.557773 0.451764 0.750000
Si Si5 0.214342 0.398968 0.250000
Si Si6 0.744957 0.177739 0.250000
Si Si7 0.813487 0.962147 0.250000
Si Si8 0.633859 0.315609 0.750000
O O1 0.753400 0.034900 0.750000
O O2 0.787107 0.247903 0.750000
O O3 0.871246 0.226057 0.505584
O O4 0.052785 0.588702 0.750000
O O5 0.000000 0.500000 0.500000
O O6 0.106409 0.500000 0.500000
O O7 0.156335 0.410796 0.250000
O O8 0.562933 0.500000 0.500000
O O9 0.500000 0.425072 0.750000
O O10 0.668367 0.621264 0.750000
O O11 0.227159 0.360142 0.503580
O O12 0.805139 0.173339 0.250000
O O13 0.902234 0.114322 0.250000
O O14 0.829857 0.000000 0.500000
#
# Coordination Sequence:
#
# PCOD9471229 Si02
#       8
#     8   4   8   8   8   8   8   8
#     4  12  25  41  63  88 126 167 208 255 299 379
#     4   8  16  30  54  78 106 146 200 246 288 354
#     4  10  19  35  54  83 117 156 196 245 307 353
#     4  10  23  43  66  96 134 171 213 273 341 395
#     4  12  23  38  57  85 125 168 197 253 290 369
#     4  12  24  42  59  90 123 171 219 240 301 372
#     4  12  24  37  53  83 120 157 192 244 302 357
#     4  12  22  41  62  93 118 163 219 257 304 371
#
# _framework density 22.212142
#
# number of rings (size 3 to 8) (size 9 to 14) (size 15 to 20)
#    0.000    0.800    2.667    5.600    0.000    3.200 
#    0.000    0.000    0.000    0.000   10.400    0.000 
#    0.000    0.000    0.000    0.000    0.000    0.000 
#
# Total GULP energy -167547.114933 kJ/mol
# GULP energy per Si atom -5584.903831 kJ/mol
# Density = 2.216159 g / cm^3
# Si number density = 22.212142 Si / 1000 Ang^3
#
#
#
# Elastic Constant Matrix: (Units=GPa)
#
#
# Indices 1 2 3 4 5 6 
#
# 1 161.2949 22.2916 38.0092 0.0000 0.0000 0.0000
# 2 22.2916 41.6460 34.1784 0.0000 0.0000 0.0000
# 3 38.0092 34.1784 228.2972 0.0000 0.0000 0.0000
# 4 0.0000 0.0000 0.0000 36.7776 0.0000 0.0000
# 5 0.0000 0.0000 0.0000 0.0000 -10.1312 0.0000
# 6 0.0000 0.0000 0.0000 0.0000 0.0000 30.9562
#
#
#
# Elastic Compliance Matrix: (Units=1/GPa)
#
#
# Indices 1 2 3 4 5 6 
#
# 1 0.006783 -0.003083 -0.000668 0.000000 0.000000 0.000000
# 2 -0.003083 0.028776 -0.003795 0.000000 0.000000 0.000000
# 3 -0.000668 -0.003795 0.005060 0.000000 0.000000 0.000000
# 4 0.000000 0.000000 0.000000 0.027191 0.000000 0.000000
# 5 0.000000 0.000000 0.000000 0.000000 -0.098705 0.000000
# 6 0.000000 0.000000 0.000000 0.000000 0.000000 0.032304
#
#
# Mechanical properties :
#
#
# Convention : Reuss Voigt Hill
#
# Bulk Modulus (GPa) = 39.17218 68.91072 54.04145
# Shear Modulus (GPa) = 199.93011 33.97111 116.95061
#
# Velocity S-wave (km/s) = 9.49762 3.91499 7.26402
# Velocity P-wave (km/s) = 11.74508 7.17826 9.73330
#
# Compressibility (1/GPa) = 0.02552832
#
# Stress axis : x y z
#
# Youngs Moduli (GPa) = 147.42205 34.75072 197.64522
#
# Poissons Ratio (x) = 0.10713 0.13199
# Poissons Ratio (y) = 0.45446 0.75004
# Poissons Ratio (z) = 0.09845 0.13187
#
# Static dielectric constant tensor:
#      x y z
#    x 1.836580 0.000000 0.000000 
#    y 0.000000 1.896690 0.000000 
#    z 0.000000 0.000000 1.911680 
# 
# From -- ./inp_files/1126.got.cif
#   From: 2010.05.17/outbox.cif.g08.bks.cpg/sg63_1_cif.got.tgz:1126.got - 2010.06.03 15:47:04.
