data_PCOD9471415
_publ_section_title
;
Structure prediction by ZEFSAII (Michael W. Deem and Ramdas Pophale) SiO2 
 PCOD9471415
Probable space group: C M C M
;
_chemical_formula_sum "Si O2"
_cell_formula_units_Z 80
_cell_length_a 23.524544
_cell_length_b 11.125490
_cell_length_c 15.336320
_cell_angle_alpha 90.000000
_cell_angle_beta 90.000000
_cell_angle_gamma 90.000000
_cell_volume 4013.853555
_symmetry_space_group_name_H-M "C M C M"
_symmetry_group_IT_number 63
_symmetry_cell_setting 'orthorhombic'
loop_
_space_group_symop_operation_xyz
x,y,z
-x,-y,1/2+z
x,-y,-z
-x,y,1/2-z
-x,-y,-z
x,y,1/2-z
-x,y,z
x,-y,1/2+z
1/2+x,1/2+y,z
1/2-x,1/2-y,1/2+z
1/2+x,1/2-y,-z
1/2-x,1/2+y,1/2-z
1/2-x,1/2-y,-z
1/2+x,1/2+y,1/2-z
1/2-x,1/2+y,z
1/2+x,1/2-y,1/2+z
loop_
_atom_site_type_symbol
_atom_site_label
_atom_site_fract_x
_atom_site_fract_y
_atom_site_fract_z
Si Si1 0.228478 0.983156 0.096214
Si Si2 0.150091 0.176093 0.154629
Si Si3 0.065379 0.968780 0.396965
Si Si4 0.847916 0.229390 0.848327
Si Si5 0.845628 0.619808 0.520067
O O1 0.198574 0.876596 0.147696
O O2 0.290871 0.934391 0.072263
O O3 0.211096 0.109408 0.139651
O O4 0.200602 0.000000 0.000000
O O5 0.149991 0.231977 0.250000
O O6 0.134863 0.272939 0.081587
O O7 0.104232 0.069331 0.148676
O O8 0.094175 0.840881 0.374798
O O9 0.000000 0.972276 0.368962
O O10 0.067137 0.000000 0.500000
O O11 0.851091 0.278707 0.750000
O O12 0.833167 0.320109 0.926445
O O13 0.881895 0.500000 0.500000
#
# Coordination Sequence:
#
# PCOD9471415 Si02
#       5
#    16  16  16  16  16
#     4  10  19  36  58  76 112 156 191 243 293 331
#     4  11  22  38  60  89 121 151 196 251 302 351
#     4  10  19  37  68  94 115 149 192 248 317 360
#     4  11  21  37  59  87 119 151 194 246 300 352
#     4  11  24  39  57  78 123 165 199 237 283 348
#
# _framework density 19.930972000000001
#
# number of rings (size 3 to 8) (size 9 to 14) (size 15 to 20)
#    0.000    1.400    4.000    4.200    2.800    4.000 
#    0.000    3.000    0.000    2.400    0.000    2.800 
#    0.000    0.000    0.000    0.000    0.000    0.000 
#
# Total GULP energy -222926.860489 kJ/mol
# GULP energy per Si atom -5573.171512 kJ/mol
# Density = 1.988561 g / cm^3
# Si number density = 19.930972 Si / 1000 Ang^3
#
#
#
# Elastic Constant Matrix: (Units=GPa)
#
#
# Indices 1 2 3 4 5 6 
#
# 1 80.4935 11.9341 1.1620 0.0000 0.0000 0.0000
# 2 11.9341 102.0932 31.1760 0.0000 0.0000 0.0000
# 3 1.1620 31.1760 141.6169 0.0000 0.0000 0.0000
# 4 0.0000 0.0000 0.0000 -1.8224 0.0000 0.0000
# 5 0.0000 0.0000 0.0000 0.0000 2.8442 0.0000
# 6 0.0000 0.0000 0.0000 0.0000 0.0000 12.7262
#
#
#
# Elastic Compliance Matrix: (Units=1/GPa)
#
#
# Indices 1 2 3 4 5 6 
#
# 1 0.012650 -0.001551 0.000238 0.000000 0.000000 0.000000
# 2 -0.001551 0.010691 -0.002341 0.000000 0.000000 0.000000
# 3 0.000238 -0.002341 0.007575 0.000000 0.000000 0.000000
# 4 0.000000 0.000000 0.000000 -0.548717 0.000000 0.000000
# 5 0.000000 0.000000 0.000000 0.000000 0.351598 0.000000
# 6 0.000000 0.000000 0.000000 0.000000 0.000000 0.078578
#
#
# Mechanical properties :
#
#
# Convention : Reuss Voigt Hill
#
# Bulk Modulus (GPa) = 42.36058 45.86089 44.11073
# Shear Modulus (GPa) = -69.01518 21.41168 -23.80175
#
# Velocity S-wave (km/s) = -5.89086 3.28120 -3.45948
# Velocity P-wave (km/s) = 4.99699 6.11676 2.49448
#
# Compressibility (1/GPa) = 0.02360686
#
# Stress axis : x y z
#
# Youngs Moduli (GPa) = 79.05187 93.53545 132.01882
#
# Poissons Ratio (x) = 0.14510 -0.03138
# Poissons Ratio (y) = 0.12263 0.30904
# Poissons Ratio (z) = -0.01879 0.21895
#
# Static dielectric constant tensor:
#      x y z
#    x 1.745620 0.000000 0.000000 
#    y 0.000000 1.755680 0.000000 
#    z 0.000000 0.000000 1.741540 
# 
# From -- ./inp_files/36488.got.cif
#   From: 2010.05.17/outbox.cif.g08.bks.cpg/sg63_19_cif.got.tgz:36488.got - 2010.06.03 15:47:04.
