data_PCOD9471637
_publ_section_title
;
Structure prediction by ZEFSAII (Michael W. Deem and Ramdas Pophale) SiO2 
 PCOD9471637
Probable space group: C M C M
;
_chemical_formula_sum "Si O2"
_cell_formula_units_Z 104
_cell_length_a 21.442125
_cell_length_b 23.580394
_cell_length_c 9.453854
_cell_angle_alpha 90.000000
_cell_angle_beta 90.000000
_cell_angle_gamma 90.000000
_cell_volume 4779.998627
_symmetry_space_group_name_H-M "C M C M"
_symmetry_group_IT_number 63
_symmetry_cell_setting 'orthorhombic'
loop_
_space_group_symop_operation_xyz
x,y,z
-x,-y,1/2+z
x,-y,-z
-x,y,1/2-z
-x,-y,-z
x,y,1/2-z
-x,y,z
x,-y,1/2+z
1/2+x,1/2+y,z
1/2-x,1/2-y,1/2+z
1/2+x,1/2-y,-z
1/2-x,1/2+y,1/2-z
1/2-x,1/2-y,-z
1/2+x,1/2+y,1/2-z
1/2-x,1/2+y,z
1/2+x,1/2-y,1/2+z
loop_
_atom_site_type_symbol
_atom_site_label
_atom_site_fract_x
_atom_site_fract_y
_atom_site_fract_z
Si Si1 0.722152 0.761051 0.750000
Si Si2 0.567923 0.394656 0.416022
Si Si3 0.261228 0.675720 0.488514
Si Si4 0.076214 0.443006 0.415396
Si Si5 0.798591 0.054957 0.917423
Si Si6 0.397121 0.285550 0.589132
Si Si7 0.924397 0.329156 0.581552
O O1 0.736879 0.713134 0.871925
O O2 0.709915 0.807794 0.623934
O O3 0.574105 0.378486 0.250000
O O4 0.500000 0.421903 0.435730
O O5 0.627834 0.432619 0.449013
O O6 0.570974 0.337552 0.507369
O O7 0.263976 0.610854 0.530061
O O8 0.324924 0.694506 0.407176
O O9 0.095410 0.500000 0.500000
O O10 0.096314 0.442979 0.250000
O O11 0.096691 0.386118 0.498699
O O12 0.000000 0.443159 0.414071
O O13 0.792090 0.048284 0.750000
O O14 0.777850 0.000000 0.000000
O O15 0.418896 0.278234 0.750000
O O16 0.405173 0.228373 0.500589
O O17 0.911822 0.327339 0.750000
O O18 0.000000 0.330038 0.571306
#
# Coordination Sequence:
#
# PCOD9471637 Si02
#       7
#     8  16  16  16  16  16  16
#     4  10  20  38  64  84 112 136 172 228 286 346
#     4   9  19  35  52  72 106 157 204 240 278 320
#     4  10  21  38  59  89 113 140 177 224 283 341
#     4   9  16  27  43  63  89 121 163 212 254 297
#     4  10  21  35  55  83 120 155 193 238 282 334
#     4  11  21  32  49  77 111 138 175 224 274 325
#     4  10  20  31  45  68  99 138 178 213 257 311
#
# _framework density 21.757328000000001
#
# number of rings (size 3 to 8) (size 9 to 14) (size 15 to 20)
#    0.000    2.154    1.538    1.846    3.231    5.846 
#    0.000    0.000    0.000    0.000    0.000    6.462 
#    0.000    0.000    0.000    0.000    0.000    0.000 
#
# Total GULP energy -289518.378310 kJ/mol
# GULP energy per Si atom -5567.661121 kJ/mol
# Density = 2.170781 g / cm^3
# Si number density = 21.757328 Si / 1000 Ang^3
#
#
#
# Elastic Constant Matrix: (Units=GPa)
#
#
# Indices 1 2 3 4 5 6 
#
# 1 34.4054 -0.7390 6.7460 0.0000 0.0000 0.0000
# 2 -0.7390 168.3535 77.9768 0.0000 0.0000 0.0000
# 3 6.7460 77.9768 162.5583 0.0000 0.0000 0.0000
# 4 0.0000 0.0000 0.0000 37.6880 0.0000 0.0000
# 5 0.0000 0.0000 0.0000 0.0000 24.2991 0.0000
# 6 0.0000 0.0000 0.0000 0.0000 0.0000 12.8600
#
#
#
# Elastic Compliance Matrix: (Units=1/GPa)
#
#
# Indices 1 2 3 4 5 6 
#
# 1 0.029408 0.000893 -0.001649 0.000000 0.000000 0.000000
# 2 0.000893 0.007664 -0.003713 0.000000 0.000000 0.000000
# 3 -0.001649 -0.003713 0.008001 0.000000 0.000000 0.000000
# 4 0.000000 0.000000 0.000000 0.026534 0.000000 0.000000
# 5 0.000000 0.000000 0.000000 0.000000 0.041154 0.000000
# 6 0.000000 0.000000 0.000000 0.000000 0.000000 0.077760
#
#
# Mechanical properties :
#
#
# Convention : Reuss Voigt Hill
#
# Bulk Modulus (GPa) = 27.67458 59.25390 43.46424
# Shear Modulus (GPa) = 23.64030 33.72498 28.68264
#
# Velocity S-wave (km/s) = 3.29985 3.94134 3.63478
# Velocity P-wave (km/s) = 5.22168 6.92859 6.13479
#
# Compressibility (1/GPa) = 0.03613425
#
# Stress axis : x y z
#
# Youngs Moduli (GPa) = 34.00481 130.48616 124.98102
#
# Poissons Ratio (x) = -0.11648 0.20604
# Poissons Ratio (y) = -0.03035 0.46408
# Poissons Ratio (z) = 0.05606 0.48452
#
# Static dielectric constant tensor:
#      x y z
#    x 1.974880 0.000000 0.000000 
#    y 0.000000 1.747140 0.000000 
#    z 0.000000 0.000000 1.743330 
# 
# From -- ./inp_files/12538.got.cif
#   From: 2010.05.17/outbox.cif.g08.bks.cpg/sg63_7_cif.got.tgz:12538.got - 2010.06.03 15:47:04.
