data_PCOD9471344
_publ_section_title
;
Structure prediction by ZEFSAII (Michael W. Deem and Ramdas Pophale) SiO2 
 PCOD9471344
Probable space group: C M C M
;
_chemical_formula_sum "Si O2"
_cell_formula_units_Z 112
_cell_length_a 14.729579
_cell_length_b 21.031605
_cell_length_c 17.177809
_cell_angle_alpha 90.000000
_cell_angle_beta 90.000000
_cell_angle_gamma 90.000000
_cell_volume 5321.456546
_symmetry_space_group_name_H-M "C M C M"
_symmetry_group_IT_number 63
_symmetry_cell_setting 'orthorhombic'
loop_
_space_group_symop_operation_xyz
x,y,z
-x,-y,1/2+z
x,-y,-z
-x,y,1/2-z
-x,-y,-z
x,y,1/2-z
-x,y,z
x,-y,1/2+z
1/2+x,1/2+y,z
1/2-x,1/2-y,1/2+z
1/2+x,1/2-y,-z
1/2-x,1/2+y,1/2-z
1/2-x,1/2-y,-z
1/2+x,1/2+y,1/2-z
1/2-x,1/2+y,z
1/2+x,1/2-y,1/2+z
loop_
_atom_site_type_symbol
_atom_site_label
_atom_site_fract_x
_atom_site_fract_y
_atom_site_fract_z
Si Si1 0.796690 0.704121 0.337014
Si Si2 0.394757 0.131077 0.601883
Si Si3 0.398824 0.438041 0.158487
Si Si4 0.607844 0.908033 0.575544
Si Si5 0.292553 0.984199 0.161145
Si Si6 0.397179 0.306844 0.067233
Si Si7 0.601970 0.283141 0.615201
O O1 0.822250 0.722941 0.250000
O O2 0.852154 0.643411 0.365319
O O3 0.823788 0.760557 0.395272
O O4 0.689442 0.690667 0.341209
O O5 0.500000 0.111872 0.615457
O O6 0.372477 0.116284 0.511683
O O7 0.328752 0.087935 0.652982
O O8 0.389892 0.206223 0.616655
O O9 0.392870 0.418943 0.250000
O O10 0.500000 0.464859 0.145934
O O11 0.314661 0.484299 0.144558
O O12 0.388903 0.376333 0.104325
O O13 0.500000 0.913521 0.582698
O O14 0.653755 0.974035 0.599004
O O15 0.308633 0.005965 0.250000
O O16 0.500000 0.282982 0.085858
O O17 0.389870 0.305385 0.974398
O O18 0.500000 0.299398 0.642891
#
# Coordination Sequence:
#
# PCOD9471344 Si02
#       7
#    16  16  16  16  16  16  16
#     4  12  24  36  58  91 123 157 195 240 298 355
#     4  10  21  39  62  87 116 156 200 243 296 351
#     4   9  19  35  57  87 118 148 190 245 300 349
#     4  11  24  42  61  85 119 158 199 245 295 353
#     4  11  23  38  59  87 118 157 201 247 298 348
#     4  10  19  35  60  88 117 150 191 243 299 351
#     4  10  22  40  61  86 119 159 199 240 291 355
#
# _framework density 21.046869999999998
#
# number of rings (size 3 to 8) (size 9 to 14) (size 15 to 20)
#    0.000    1.571    1.429    3.429    2.000    6.571 
#    0.000    2.143    0.000    3.429    0.000    0.000 
#    0.000    0.000    0.000    0.000    0.000    0.000 
#
# Total GULP energy -313067.741141 kJ/mol
# GULP energy per Si atom -5590.495378 kJ/mol
# Density = 2.099897 g / cm^3
# Si number density = 21.046870 Si / 1000 Ang^3
#
#
#
# Elastic Constant Matrix: (Units=GPa)
#
#
# Indices 1 2 3 4 5 6 
#
# 1 82.2493 8.1073 20.8927 0.0000 0.0000 0.0000
# 2 8.1073 17.8519 -0.1532 0.0000 0.0000 0.0000
# 3 20.8927 -0.1532 32.3638 0.0000 0.0000 0.0000
# 4 0.0000 0.0000 0.0000 6.2637 0.0000 0.0000
# 5 0.0000 0.0000 0.0000 0.0000 17.8684 0.0000
# 6 0.0000 0.0000 0.0000 0.0000 0.0000 25.4844
#
#
#
# Elastic Compliance Matrix: (Units=1/GPa)
#
#
# Indices 1 2 3 4 5 6 
#
# 1 0.015387 -0.007073 -0.009967 0.000000 0.000000 0.000000
# 2 -0.007073 0.059270 0.004847 0.000000 0.000000 0.000000
# 3 -0.009967 0.004847 0.037356 0.000000 0.000000 0.000000
# 4 0.000000 0.000000 0.000000 0.159651 0.000000 0.000000
# 5 0.000000 0.000000 0.000000 0.000000 0.055965 0.000000
# 6 0.000000 0.000000 0.000000 0.000000 0.000000 0.039240
#
#
# Mechanical properties :
#
#
# Convention : Reuss Voigt Hill
#
# Bulk Modulus (GPa) = 11.41206 21.12875 16.27040
# Shear Modulus (GPa) = 11.89162 16.83116 14.36139
#
# Velocity S-wave (km/s) = 2.37957 2.83096 2.61502
# Velocity P-wave (km/s) = 3.60330 4.55483 4.10672
#
# Compressibility (1/GPa) = 0.08762661
#
# Stress axis : x y z
#
# Youngs Moduli (GPa) = 64.98941 16.87182 26.76961
#
# Poissons Ratio (x) = 0.11934 0.26681
# Poissons Ratio (y) = 0.45970 -0.12975
# Poissons Ratio (z) = 0.64773 -0.08178
#
# Static dielectric constant tensor:
#      x y z
#    x 1.775990 0.000000 0.000000 
#    y 0.000000 1.754980 0.000000 
#    z 0.000000 0.000000 1.753220 
# 
# From -- ./inp_files/32353.got.cif
#   From: 2010.05.17/outbox.cif.g08.bks.cpg/sg63_17_cif.got.tgz:32353.got - 2010.06.03 15:47:04.
