data_PCOD9471911
_publ_section_title
;
Structure prediction by ZEFSAII (Michael W. Deem and Ramdas Pophale) SiO2 
 PCOD9471911
Probable space group: C M C M
;
_chemical_formula_sum "Si O2"
_cell_formula_units_Z 96
_cell_length_a 23.789967
_cell_length_b 21.954295
_cell_length_c 8.996366
_cell_angle_alpha 90.000000
_cell_angle_beta 90.000000
_cell_angle_gamma 90.000000
_cell_volume 4698.729573
_symmetry_space_group_name_H-M "C M C M"
_symmetry_group_IT_number 63
_symmetry_cell_setting 'orthorhombic'
loop_
_space_group_symop_operation_xyz
x,y,z
-x,-y,1/2+z
x,-y,-z
-x,y,1/2-z
-x,-y,-z
x,y,1/2-z
-x,y,z
x,-y,1/2+z
1/2+x,1/2+y,z
1/2-x,1/2-y,1/2+z
1/2+x,1/2-y,-z
1/2-x,1/2+y,1/2-z
1/2-x,1/2-y,-z
1/2+x,1/2+y,1/2-z
1/2-x,1/2+y,z
1/2+x,1/2-y,1/2+z
loop_
_atom_site_type_symbol
_atom_site_label
_atom_site_fract_x
_atom_site_fract_y
_atom_site_fract_z
Si Si1 0.778884 0.559470 0.427895
Si Si2 0.280050 0.192909 0.427478
Si Si3 0.902806 0.306442 0.072260
Si Si4 0.904216 0.560177 0.928341
Si Si5 0.933819 0.183282 0.915582
Si Si6 0.931136 0.062483 0.079726
O O1 0.750753 0.500000 0.500000
O O2 0.784279 0.551847 0.250000
O O3 0.753077 0.626175 0.456917
O O4 0.841167 0.562201 0.502148
O O5 0.283506 0.199755 0.250000
O O6 0.250000 0.250000 0.500000
O O7 0.341486 0.191773 0.499330
O O8 0.899288 0.301338 0.250000
O O9 0.929558 0.372934 0.039369
O O10 0.929432 0.245771 0.006000
O O11 0.901113 0.553287 0.750000
O O12 0.931156 0.500000 0.000000
O O13 0.909448 0.190524 0.750000
O O14 0.000000 0.171107 0.900538
O O15 0.910703 0.123737 0.998556
O O16 0.912579 0.062632 0.250000
O O17 0.000000 0.063111 0.080037
O O18 0.914179 0.000000 0.000000
#
# Coordination Sequence:
#
# PCOD9471911 Si02
#       6
#    16  16  16  16  16  16
#     4   9  16  26  43  67  93 121 155 195 236 278
#     4  10  20  33  50  73 100 130 163 199 241 289
#     4  10  20  33  50  73 100 130 163 200 244 292
#     4   9  16  26  43  67  93 121 155 196 239 282
#     4  10  20  33  50  73 100 130 164 202 245 292
#     4   9  16  27  45  69  96 125 159 200 242 284
#
# _framework density 20.431054
#
# number of rings (size 3 to 8) (size 9 to 14) (size 15 to 20)
#    0.000    2.500    0.000    4.000    0.000    7.000 
#    0.000    0.000    0.000    1.500    0.000    4.667 
#    0.000    0.000    0.000    0.000    0.000    0.000 
#
# Total GULP energy -267537.139995 kJ/mol
# GULP energy per Si atom -5573.690417 kJ/mol
# Density = 2.038455 g / cm^3
# Si number density = 20.431054 Si / 1000 Ang^3
#
#
#
# Elastic Constant Matrix: (Units=GPa)
#
#
# Indices 1 2 3 4 5 6 
#
# 1 13.6812 20.5819 8.4514 0.0000 0.0000 0.0000
# 2 20.5819 238.6569 113.8696 0.0000 0.0000 0.0000
# 3 8.4514 113.8696 148.0149 0.0000 0.0000 0.0000
# 4 0.0000 0.0000 0.0000 40.9019 0.0000 0.0000
# 5 0.0000 0.0000 0.0000 0.0000 13.4610 0.0000
# 6 0.0000 0.0000 0.0000 0.0000 0.0000 9.1768
#
#
#
# Elastic Compliance Matrix: (Units=1/GPa)
#
#
# Indices 1 2 3 4 5 6 
#
# 1 0.084131 -0.007842 0.001229 0.000000 0.000000 0.000000
# 2 -0.007842 0.007351 -0.005207 0.000000 0.000000 0.000000
# 3 0.001229 -0.005207 0.010692 0.000000 0.000000 0.000000
# 4 0.000000 0.000000 0.000000 0.024449 0.000000 0.000000
# 5 0.000000 0.000000 0.000000 0.000000 0.074289 0.000000
# 6 0.000000 0.000000 0.000000 0.000000 0.000000 0.108971
#
#
# Mechanical properties :
#
#
# Convention : Reuss Voigt Hill
#
# Bulk Modulus (GPa) = 12.73344 76.23986 44.48665
# Shear Modulus (GPa) = 13.90044 29.87127 21.88586
#
# Velocity S-wave (km/s) = 2.61120 3.82783 3.27648
# Velocity P-wave (km/s) = 3.91626 7.54540 6.01124
#
# Compressibility (1/GPa) = 0.07853340
#
# Stress axis : x y z
#
# Youngs Moduli (GPa) = 11.88626 136.03522 93.52728
#
# Poissons Ratio (x) = 1.06678 -0.11496
# Poissons Ratio (y) = 0.09321 0.48704
# Poissons Ratio (z) = -0.01461 0.70840
#
# Static dielectric constant tensor:
#      x y z
#    x 1.741320 0.000000 0.000000 
#    y 0.000000 1.790940 0.000000 
#    z 0.000000 0.000000 1.695440 
# 
# From -- ./inp_files/12339.got.cif
#   From: 2010.05.17/outbox.cif.g08.bks.cpg/sg63_7_cif.got.tgz:12339.got - 2010.06.03 15:47:04.
