data_PCOD9471388
_publ_section_title
;
Structure prediction by ZEFSAII (Michael W. Deem and Ramdas Pophale) SiO2 
 PCOD9471388
Probable space group: C M C M
;
_chemical_formula_sum "Si O2"
_cell_formula_units_Z 128
_cell_length_a 22.794320
_cell_length_b 18.881257
_cell_length_c 18.368328
_cell_angle_alpha 90.000000
_cell_angle_beta 90.000000
_cell_angle_gamma 90.000000
_cell_volume 7905.460452
_symmetry_space_group_name_H-M "C M C M"
_symmetry_group_IT_number 63
_symmetry_cell_setting 'orthorhombic'
loop_
_space_group_symop_operation_xyz
x,y,z
-x,-y,1/2+z
x,-y,-z
-x,y,1/2-z
-x,-y,-z
x,y,1/2-z
-x,y,z
x,-y,1/2+z
1/2+x,1/2+y,z
1/2-x,1/2-y,1/2+z
1/2+x,1/2-y,-z
1/2-x,1/2+y,1/2-z
1/2-x,1/2-y,-z
1/2+x,1/2+y,1/2-z
1/2-x,1/2+y,z
1/2+x,1/2-y,1/2+z
loop_
_atom_site_type_symbol
_atom_site_label
_atom_site_fract_x
_atom_site_fract_y
_atom_site_fract_z
Si Si1 0.779145 0.378431 0.835623
Si Si2 0.842783 0.203907 0.165202
Si Si3 0.289544 0.825635 0.421255
Si Si4 0.430882 0.608981 0.416378
Si Si5 0.372911 0.475785 0.163602
Si Si6 0.930833 0.852647 0.419401
Si Si7 0.751688 0.482511 0.415886
Si Si8 0.668997 0.240525 0.428410
O O1 0.786137 0.390422 0.750000
O O2 0.713245 0.347553 0.848307
O O3 0.784314 0.450416 0.880731
O O4 0.821228 0.316976 0.865346
O O5 0.857713 0.199994 0.250000
O O6 0.821440 0.281619 0.142049
O O7 0.895128 0.175147 0.115901
O O8 0.287513 0.909501 0.412979
O O9 0.320170 0.800430 0.495876
O O10 0.222207 0.797623 0.424305
O O11 0.500000 0.615615 0.403315
O O12 0.406286 0.540258 0.375674
O O13 0.421450 0.607222 0.503211
O O14 0.370026 0.487386 0.250000
O O15 0.406757 0.403925 0.143243
O O16 0.308041 0.472561 0.129569
O O17 0.891541 0.782320 0.423254
O O18 0.000000 0.839087 0.411697
O O19 0.737742 0.500000 0.500000
#
# Coordination Sequence:
#
# PCOD9471388 Si02
#       8
#    16  16  16  16  16  16  16  16
#     4  10  21  35  54  81 112 142 180 226 276 328
#     4  10  20  34  52  77 110 143 180 228 273 321
#     4  10  20  33  55  78 106 141 178 225 275 331
#     4  11  22  37  56  77 107 152 196 228 262 317
#     4  12  25  36  50  78 118 152 189 228 263 318
#     4  11  23  39  59  79 106 145 194 235 268 322
#     4  12  21  34  57  83 109 149 183 222 275 335
#     4  10  19  36  55  79 106 141 181 226 277 321
#
# _framework density 16.19134
#
# number of rings (size 3 to 8) (size 9 to 14) (size 15 to 20)
#    0.000    1.250    5.000    2.250    0.000    4.250 
#    0.000    0.000    0.000    0.000    0.000    2.625 
#    0.000    0.000    0.000    0.000    0.000    0.000 
#
# Total GULP energy -357465.554707 kJ/mol
# GULP energy per Si atom -5585.399292 kJ/mol
# Density = 1.615449 g / cm^3
# Si number density = 16.191340 Si / 1000 Ang^3
#
#
#
# Elastic Constant Matrix: (Units=GPa)
#
#
# Indices 1 2 3 4 5 6 
#
# 1 55.5403 36.3315 18.0516 0.0000 0.0000 0.0000
# 2 36.3315 106.3629 38.2113 0.0000 0.0000 0.0000
# 3 18.0516 38.2113 67.9753 0.0000 0.0000 0.0000
# 4 0.0000 0.0000 0.0000 19.5319 0.0000 0.0000
# 5 0.0000 0.0000 0.0000 0.0000 11.8104 0.0000
# 6 0.0000 0.0000 0.0000 0.0000 0.0000 13.4903
#
#
#
# Elastic Compliance Matrix: (Units=1/GPa)
#
#
# Indices 1 2 3 4 5 6 
#
# 1 0.023436 -0.007229 -0.002160 0.000000 0.000000 0.000000
# 2 -0.007229 0.014011 -0.005956 0.000000 0.000000 0.000000
# 3 -0.002160 -0.005956 0.018633 0.000000 0.000000 0.000000
# 4 0.000000 0.000000 0.000000 0.051198 0.000000 0.000000
# 5 0.000000 0.000000 0.000000 0.000000 0.084671 0.000000
# 6 0.000000 0.000000 0.000000 0.000000 0.000000 0.074127
#
#
# Mechanical properties :
#
#
# Convention : Reuss Voigt Hill
#
# Bulk Modulus (GPa) = 39.38687 46.11860 42.75274
# Shear Modulus (GPa) = 16.38105 18.11879 17.24992
#
# Velocity S-wave (km/s) = 3.18420 3.34884 3.26756
# Velocity P-wave (km/s) = 6.15610 6.59532 6.37949
#
# Compressibility (1/GPa) = 0.02538917
#
# Stress axis : x y z
#
# Youngs Moduli (GPa) = 42.66940 71.37257 53.66828
#
# Poissons Ratio (x) = 0.51598 0.11591
# Poissons Ratio (y) = 0.30847 0.31966
# Poissons Ratio (z) = 0.09216 0.42511
#
# Static dielectric constant tensor:
#      x y z
#    x 1.519070 0.000000 0.000000 
#    y 0.000000 1.541550 0.000000 
#    z 0.000000 0.000000 1.552700 
# 
# From -- ./inp_files/48432.got.cif
#   From: 2010.05.17/outbox.cif.g08.bks.cpg/sg63_25_cif.got.tgz:48432.got - 2010.06.03 15:47:04.
