data_PCOD9471733
_publ_section_title
;
Structure prediction by ZEFSAII (Michael W. Deem and Ramdas Pophale) SiO2 
 PCOD9471733
Probable space group: C M C M
;
_chemical_formula_sum "Si O2"
_cell_formula_units_Z 112
_cell_length_a 13.451791
_cell_length_b 32.390354
_cell_length_c 14.800287
_cell_angle_alpha 90.000000
_cell_angle_beta 90.000000
_cell_angle_gamma 90.000000
_cell_volume 6448.607480
_symmetry_space_group_name_H-M "C M C M"
_symmetry_group_IT_number 63
_symmetry_cell_setting 'orthorhombic'
loop_
_space_group_symop_operation_xyz
x,y,z
-x,-y,1/2+z
x,-y,-z
-x,y,1/2-z
-x,-y,-z
x,y,1/2-z
-x,y,z
x,-y,1/2+z
1/2+x,1/2+y,z
1/2-x,1/2-y,1/2+z
1/2+x,1/2-y,-z
1/2-x,1/2+y,1/2-z
1/2-x,1/2-y,-z
1/2+x,1/2+y,1/2-z
1/2-x,1/2+y,z
1/2+x,1/2-y,1/2+z
loop_
_atom_site_type_symbol
_atom_site_label
_atom_site_fract_x
_atom_site_fract_y
_atom_site_fract_z
Si Si1 0.606471 0.644009 0.000000
Si Si2 0.383788 0.500000 0.359523
Si Si3 0.614803 0.145967 0.642445
Si Si4 0.200668 0.911939 0.142102
Si Si5 0.790948 0.703677 0.500000
Si Si6 0.385197 0.854033 0.857555
Si Si7 0.700668 0.588061 0.142102
O O1 0.500000 0.663961 0.000000
O O2 0.691373 0.677182 0.000000
O O3 0.622845 0.615646 0.087472
O O4 0.622845 0.615646 0.912528
O O5 0.388169 0.500000 0.250000
O O6 0.500000 0.500000 0.390191
O O7 0.323179 0.458895 0.385236
O O8 0.323179 0.541105 0.385236
O O9 0.622874 0.153309 0.750000
O O10 0.500000 0.135822 0.621698
O O11 0.691512 0.108457 0.620394
O O12 0.647902 0.186408 0.586373
O O13 0.187868 0.908863 0.250000
O O14 0.750000 0.750000 0.500000
O O15 0.852098 0.686408 0.413627
O O16 0.377126 0.846691 0.750000
O O17 0.500000 0.864177 0.878302
O O18 0.308489 0.891543 0.879606
O O19 0.687868 0.591137 0.250000
#
# Coordination Sequence:
#
# PCOD9471733 Si02
#       7
#    16  16  16  16  16  16  16
#     4  10  20  32  48  70  94 126 163 195 240 298
#     4   9  16  27  46  70  98 134 169 203 246 288
#     4   9  18  34  55  75  98 132 168 201 244 295
#     4   9  18  32  48  70 100 130 164 204 242 286
#     4  10  21  35  53  75 100 125 156 204 250 294
#     4   9  18  34  55  75  98 132 168 201 244 295
#     4   9  18  32  48  70 100 130 164 204 242 286
#
# _framework density 17.368091
#
# number of rings (size 3 to 8) (size 9 to 14) (size 15 to 20)
#    0.000    2.714    0.000    1.286    0.000    4.000 
#    0.000    2.143    0.000    4.286    0.000    6.000 
#    0.000    0.000    0.000    0.000    0.000    0.000 
#
# Total GULP energy -311784.587113 kJ/mol
# GULP energy per Si atom -5567.581913 kJ/mol
# Density = 1.732856 g / cm^3
# Si number density = 17.368091 Si / 1000 Ang^3
#
#
#
# Elastic Constant Matrix: (Units=GPa)
#
#
# Indices 1 2 3 4 5 6 
#
# 1 120.9444 38.9423 33.3801 0.0000 0.0000 0.0000
# 2 38.9423 120.6967 31.0961 0.0000 0.0000 0.0000
# 3 33.3801 31.0961 62.2324 0.0000 0.0000 0.0000
# 4 0.0000 0.0000 0.0000 10.9033 0.0000 0.0000
# 5 0.0000 0.0000 0.0000 0.0000 -7.1608 0.0000
# 6 0.0000 0.0000 0.0000 0.0000 0.0000 13.1486
#
#
#
# Elastic Compliance Matrix: (Units=1/GPa)
#
#
# Indices 1 2 3 4 5 6 
#
# 1 0.010170 -0.002153 -0.004379 0.000000 0.000000 0.000000
# 2 -0.002153 0.009965 -0.003825 0.000000 0.000000 0.000000
# 3 -0.004379 -0.003825 0.020329 0.000000 0.000000 0.000000
# 4 0.000000 0.000000 0.000000 0.091715 0.000000 0.000000
# 5 0.000000 0.000000 0.000000 0.000000 -0.139648 0.000000
# 6 0.000000 0.000000 0.000000 0.000000 0.000000 0.076053
#
#
# Mechanical properties :
#
#
# Convention : Reuss Voigt Hill
#
# Bulk Modulus (GPa) = 50.63165 56.74561 53.68863
# Shear Modulus (GPa) = 52.14771 16.74190 34.44480
#
# Velocity S-wave (km/s) = 5.48545 3.10812 4.45817
# Velocity P-wave (km/s) = 8.32680 6.75454 7.58154
#
# Compressibility (1/GPa) = 0.01975049
#
# Stress axis : x y z
#
# Youngs Moduli (GPa) = 98.32679 100.34849 49.19146
#
# Poissons Ratio (x) = 0.21606 0.21542
# Poissons Ratio (y) = 0.21171 0.18813
# Poissons Ratio (z) = 0.43059 0.38379
#
# Static dielectric constant tensor:
#      x y z
#    x 1.584230 0.000000 0.000000 
#    y 0.000000 1.587660 0.000000 
#    z 0.000000 0.000000 1.625180 
# 
# From -- ./inp_files/30424.got.cif
#   From: 2010.05.17/outbox.cif.g08.bks.cpg/sg63_16_cif.got.tgz:30424.got - 2010.06.03 15:47:04.
