data_PCOD9471110
_publ_section_title
;
Structure prediction by ZEFSAII (Michael W. Deem and Ramdas Pophale) SiO2 
 PCOD9471110
Probable space group: C M C M
;
_chemical_formula_sum "Si O2"
_cell_formula_units_Z 104
_cell_length_a 17.145302
_cell_length_b 12.668073
_cell_length_c 27.041717
_cell_angle_alpha 90.000000
_cell_angle_beta 90.000000
_cell_angle_gamma 90.000000
_cell_volume 5873.405155
_symmetry_space_group_name_H-M "C M C M"
_symmetry_group_IT_number 63
_symmetry_cell_setting 'orthorhombic'
loop_
_space_group_symop_operation_xyz
x,y,z
-x,-y,1/2+z
x,-y,-z
-x,y,1/2-z
-x,-y,-z
x,y,1/2-z
-x,y,z
x,-y,1/2+z
1/2+x,1/2+y,z
1/2-x,1/2-y,1/2+z
1/2+x,1/2-y,-z
1/2-x,1/2+y,1/2-z
1/2-x,1/2-y,-z
1/2+x,1/2+y,1/2-z
1/2-x,1/2+y,z
1/2+x,1/2-y,1/2+z
loop_
_atom_site_type_symbol
_atom_site_label
_atom_site_fract_x
_atom_site_fract_y
_atom_site_fract_z
Si Si1 0.908568 0.767758 0.119000
Si Si2 0.169042 0.339996 0.361117
Si Si3 0.091142 0.540245 0.088772
Si Si4 0.821626 0.076273 0.809092
Si Si5 0.274200 0.311484 0.451027
Si Si6 0.300930 0.000000 0.500000
Si Si7 0.909036 0.859603 0.690457
O O1 0.895982 0.641744 0.123706
O O2 0.874228 0.835732 0.163783
O O3 0.860468 0.799313 0.069940
O O4 0.000000 0.787065 0.113703
O O5 0.116012 0.431202 0.385370
O O6 0.234236 0.399134 0.327885
O O7 0.217195 0.284215 0.405496
O O8 0.122547 0.249120 0.332648
O O9 0.000000 0.536913 0.075896
O O10 0.142156 0.556768 0.039209
O O11 0.825863 0.085345 0.750000
O O12 0.855556 0.960821 0.823368
O O13 0.250000 0.250000 0.500000
O O14 0.253839 0.430340 0.465596
O O15 0.905689 0.851019 0.750000
O O16 0.000000 0.877496 0.676702
#
# Coordination Sequence:
#
# PCOD9471110 Si02
#       7
#    16  16  16  16  16   8  16
#     4  10  21  37  58  84 117 151 189 236 289 345
#     4  10  22  35  59  85 113 147 193 237 284 337
#     4  10  20  35  56  84 116 149 188 237 289 341
#     4  10  22  38  60  84 112 152 194 236 287 350
#     4  10  20  35  55  78 112 146 188 232 279 330
#     4  10  19  34  57  80 108 152 196 234 275 342
#     4  10  21  39  61  84 114 150 191 238 288 342
#
# _framework density 17.706935000000001
#
# number of rings (size 3 to 8) (size 9 to 14) (size 15 to 20)
#    0.000    2.000    1.538    1.615    4.308    2.154 
#    0.000    1.923    0.000    1.846    0.000    0.000 
#    0.000    0.000    0.000    0.000    0.000    0.000 
#
# Total GULP energy -289835.526138 kJ/mol
# GULP energy per Si atom -5573.760118 kJ/mol
# Density = 1.766663 g / cm^3
# Si number density = 17.706935 Si / 1000 Ang^3
#
#
#
# Elastic Constant Matrix: (Units=GPa)
#
#
# Indices 1 2 3 4 5 6 
#
# 1 58.1006 22.3599 15.6759 0.0000 0.0000 0.0000
# 2 22.3599 67.2333 21.1536 0.0000 0.0000 0.0000
# 3 15.6759 21.1536 63.5547 0.0000 0.0000 0.0000
# 4 0.0000 0.0000 0.0000 36.7649 0.0000 0.0000
# 5 0.0000 0.0000 0.0000 0.0000 13.8855 0.0000
# 6 0.0000 0.0000 0.0000 0.0000 0.0000 27.4823
#
#
#
# Elastic Compliance Matrix: (Units=1/GPa)
#
#
# Indices 1 2 3 4 5 6 
#
# 1 0.020263 -0.005771 -0.003077 0.000000 0.000000 0.000000
# 2 -0.005771 0.018257 -0.004653 0.000000 0.000000 0.000000
# 3 -0.003077 -0.004653 0.018042 0.000000 0.000000 0.000000
# 4 0.000000 0.000000 0.000000 0.027200 0.000000 0.000000
# 5 0.000000 0.000000 0.000000 0.000000 0.072018 0.000000
# 6 0.000000 0.000000 0.000000 0.000000 0.000000 0.036387
#
#
# Mechanical properties :
#
#
# Convention : Reuss Voigt Hill
#
# Bulk Modulus (GPa) = 33.82993 34.14082 33.98537
# Shear Modulus (GPa) = 21.83203 24.27316 23.05259
#
# Velocity S-wave (km/s) = 3.51517 3.70649 3.61209
# Velocity P-wave (km/s) = 5.96843 6.13517 6.05237
#
# Compressibility (1/GPa) = 0.02955963
#
# Stress axis : x y z
#
# Youngs Moduli (GPa) = 49.35216 54.77419 55.42543
#
# Poissons Ratio (x) = 0.31608 0.17055
# Poissons Ratio (y) = 0.28479 0.25791
# Poissons Ratio (z) = 0.15186 0.25488
#
# Static dielectric constant tensor:
#      x y z
#    x 1.606710 0.000000 0.000000 
#    y 0.000000 1.638560 0.000000 
#    z 0.000000 0.000000 1.592360 
# 
# From -- ./inp_files/69947.got.cif
#   From: 2010.05.17/outbox.cif.g08.bks.cpg/sg63_35_cif.got.tgz:69947.got - 2010.06.03 15:47:04.
