data_PCOD9471164
_publ_section_title
;
Structure prediction by ZEFSAII (Michael W. Deem and Ramdas Pophale) SiO2 
 PCOD9471164
Probable space group: C M C M
;
_chemical_formula_sum "Si O2"
_cell_formula_units_Z 64
_cell_length_a 11.540953
_cell_length_b 18.934744
_cell_length_c 13.591424
_cell_angle_alpha 90.000000
_cell_angle_beta 90.000000
_cell_angle_gamma 90.000000
_cell_volume 2970.065801
_symmetry_space_group_name_H-M "C M C M"
_symmetry_group_IT_number 63
_symmetry_cell_setting 'orthorhombic'
loop_
_space_group_symop_operation_xyz
x,y,z
-x,-y,1/2+z
x,-y,-z
-x,y,1/2-z
-x,-y,-z
x,y,1/2-z
-x,y,z
x,-y,1/2+z
1/2+x,1/2+y,z
1/2-x,1/2-y,1/2+z
1/2+x,1/2-y,-z
1/2-x,1/2+y,1/2-z
1/2-x,1/2-y,-z
1/2+x,1/2+y,1/2-z
1/2-x,1/2+y,z
1/2+x,1/2-y,1/2+z
loop_
_atom_site_type_symbol
_atom_site_label
_atom_site_fract_x
_atom_site_fract_y
_atom_site_fract_z
Si Si1 0.370952 0.979682 0.885364
Si Si2 0.747836 0.180709 0.634542
Si Si3 0.129187 0.960009 0.394656
Si Si4 0.369749 0.819975 0.931636
O O1 0.500000 0.999762 0.849183
O O2 0.250769 0.013047 0.849434
O O3 0.358189 0.895399 0.879597
O O4 0.374582 0.000000 0.000000
O O5 0.716833 0.172264 0.750000
O O6 0.848632 0.124285 0.606725
O O7 0.654058 0.167897 0.548227
O O8 0.787924 0.260709 0.613978
O O9 0.000000 0.973614 0.354287
O O10 0.127612 0.000000 0.500000
O O11 0.500000 0.794634 0.918848
#
# Coordination Sequence:
#
# PCOD9471164 Si02
#       4
#    16  16  16  16
#     4   9  16  33  60  86 113 152 198 242 302 371
#     4  11  23  39  61  91 123 164 215 263 312 374
#     4  10  19  34  58  88 119 152 197 251 309 369
#     4  10  21  39  63  86 120 166 209 260 316 374
#
# _framework density 21.548342999999999
#
# number of rings (size 3 to 8) (size 9 to 14) (size 15 to 20)
#    0.000    2.000    5.000    0.750    0.000    2.500 
#    0.000    1.250    0.000    1.500    0.000    0.000 
#    0.000    0.000    0.000    0.000    0.000    0.000 
#
# Total GULP energy -178145.131497 kJ/mol
# GULP energy per Si atom -5567.035359 kJ/mol
# Density = 2.149930 g / cm^3
# Si number density = 21.548343 Si / 1000 Ang^3
#
#
#
# Elastic Constant Matrix: (Units=GPa)
#
#
# Indices 1 2 3 4 5 6 
#
# 1 165.6238 27.6850 -7.6140 0.0000 0.0000 0.0000
# 2 27.6850 88.0481 12.1703 0.0000 0.0000 0.0000
# 3 -7.6140 12.1703 111.5630 0.0000 0.0000 0.0000
# 4 0.0000 0.0000 0.0000 -40.2640 0.0000 0.0000
# 5 0.0000 0.0000 0.0000 0.0000 -65.5200 0.0000
# 6 0.0000 0.0000 0.0000 0.0000 0.0000 16.4800
#
#
#
# Elastic Compliance Matrix: (Units=1/GPa)
#
#
# Indices 1 2 3 4 5 6 
#
# 1 0.006421 -0.002112 0.000669 0.000000 0.000000 0.000000
# 2 -0.002112 0.012226 -0.001478 0.000000 0.000000 0.000000
# 3 0.000669 -0.001478 0.009170 0.000000 0.000000 0.000000
# 4 0.000000 0.000000 0.000000 -0.024836 0.000000 0.000000
# 5 0.000000 0.000000 0.000000 0.000000 -0.015263 0.000000
# 6 0.000000 0.000000 0.000000 0.000000 0.000000 0.060679
#
#
# Mechanical properties :
#
#
# Convention : Reuss Voigt Hill
#
# Bulk Modulus (GPa) = 45.50407 47.74638 46.62523
# Shear Modulus (GPa) = 81.21479 4.33879 42.77679
#
# Velocity S-wave (km/s) = 6.14584 1.42052 4.46034
# Velocity P-wave (km/s) = 8.45724 4.98963 6.94339
#
# Compressibility (1/GPa) = 0.02197606
#
# Stress axis : x y z
#
# Youngs Moduli (GPa) = 155.72760 81.79548 109.04670
#
# Poissons Ratio (x) = 0.17271 -0.07291
# Poissons Ratio (y) = 0.32882 0.16115
# Poissons Ratio (z) = -0.10412 0.12088
#
# Static dielectric constant tensor:
#      x y z
#    x 1.789210 0.000000 0.000000 
#    y 0.000000 1.788590 0.000000 
#    z 0.000000 0.000000 1.800280 
# 
# From -- ./inp_files/29120.got.cif
#   From: 2010.05.17/outbox.cif.g08.bks.cpg/sg63_15_cif.got.tgz:29120.got - 2010.06.03 15:47:04.
