data_PCOD9471316
_publ_section_title
;
Structure prediction by ZEFSAII (Michael W. Deem and Ramdas Pophale) SiO2 
 PCOD9471316
Probable space group: C M C M
;
_chemical_formula_sum "Si O2"
_cell_formula_units_Z 112
_cell_length_a 15.362038
_cell_length_b 11.369464
_cell_length_c 27.724895
_cell_angle_alpha 90.000000
_cell_angle_beta 90.000000
_cell_angle_gamma 90.000000
_cell_volume 4842.378537
_symmetry_space_group_name_H-M "C M C M"
_symmetry_group_IT_number 63
_symmetry_cell_setting 'orthorhombic'
loop_
_space_group_symop_operation_xyz
x,y,z
-x,-y,1/2+z
x,-y,-z
-x,y,1/2-z
-x,-y,-z
x,y,1/2-z
-x,y,z
x,-y,1/2+z
1/2+x,1/2+y,z
1/2-x,1/2-y,1/2+z
1/2+x,1/2-y,-z
1/2-x,1/2+y,1/2-z
1/2-x,1/2-y,-z
1/2+x,1/2+y,1/2-z
1/2-x,1/2+y,z
1/2+x,1/2-y,1/2+z
loop_
_atom_site_type_symbol
_atom_site_label
_atom_site_fract_x
_atom_site_fract_y
_atom_site_fract_z
Si Si1 0.105307 0.118892 0.029852
Si Si2 0.641025 0.698029 0.647208
Si Si3 0.601419 0.968804 0.405044
Si Si4 0.900445 0.694223 0.046130
Si Si5 0.164231 0.774467 0.618951
Si Si6 0.860632 0.947571 0.695097
Si Si7 0.149874 0.569188 0.197508
O O1 0.159839 0.122638 0.079210
O O2 0.000000 0.128932 0.040091
O O3 0.137963 0.222975 0.994610
O O4 0.116145 0.000000 0.000000
O O5 0.598094 0.733139 0.596483
O O6 0.743297 0.723262 0.636110
O O7 0.620598 0.569092 0.667039
O O8 0.620038 0.797246 0.687049
O O9 0.500000 0.983551 0.411805
O O10 0.622773 0.833525 0.409680
O O11 0.641196 0.068526 0.439926
O O12 0.621228 0.998980 0.349432
O O13 0.000000 0.675097 0.030203
O O14 0.115112 0.831658 0.664537
O O15 0.892793 0.949518 0.750000
O O16 0.754911 0.938811 0.697370
O O17 0.119254 0.528468 0.250000
#
# Coordination Sequence:
#
# PCOD9471316 Si02
#       7
#    16  16  16  16  16  16  16
#     4  10  21  39  61  85 118 161 201 237 292 361
#     4  10  19  35  59  83 113 145 192 248 290 339
#     4  10  20  36  56  82 118 151 189 245 297 351
#     4   9  20  38  60  84 111 152 198 238 293 360
#     4  11  22  35  57  88 117 151 196 243 292 350
#     4  10  20  35  56  82 115 152 191 236 289 352
#     4   9  18  32  52  79 109 148 190 228 284 350
#
# _framework density 23.129128999999999
#
# number of rings (size 3 to 8) (size 9 to 14) (size 15 to 20)
#    0.000    2.143    1.429    1.714    0.000    2.571 
#    0.000    2.857    0.000    4.286    0.000    0.000 
#    0.000    0.000    0.000    0.000    0.000    0.000 
#
# Total GULP energy -312507.735763 kJ/mol
# GULP energy per Si atom -5580.495281 kJ/mol
# Density = 2.307649 g / cm^3
# Si number density = 23.129129 Si / 1000 Ang^3
#
#
#
# Elastic Constant Matrix: (Units=GPa)
#
#
# Indices 1 2 3 4 5 6 
#
# 1 35.2692 -2.3628 -4.4934 0.0000 0.0000 0.0000
# 2 -2.3628 82.4774 45.6859 0.0000 0.0000 0.0000
# 3 -4.4934 45.6859 101.5284 0.0000 0.0000 0.0000
# 4 0.0000 0.0000 0.0000 25.2885 0.0000 0.0000
# 5 0.0000 0.0000 0.0000 0.0000 12.9882 0.0000
# 6 0.0000 0.0000 0.0000 0.0000 0.0000 9.4994
#
#
#
# Elastic Compliance Matrix: (Units=1/GPa)
#
#
# Indices 1 2 3 4 5 6 
#
# 1 0.028516 0.000157 0.001191 0.000000 0.000000 0.000000
# 2 0.000157 0.016151 -0.007261 0.000000 0.000000 0.000000
# 3 0.001191 -0.007261 0.013169 0.000000 0.000000 0.000000
# 4 0.000000 0.000000 0.000000 0.039544 0.000000 0.000000
# 5 0.000000 0.000000 0.000000 0.000000 0.076993 0.000000
# 6 0.000000 0.000000 0.000000 0.000000 0.000000 0.105270
#
#
# Mechanical properties :
#
#
# Convention : Reuss Voigt Hill
#
# Bulk Modulus (GPa) = 21.73378 32.99272 27.36325
# Shear Modulus (GPa) = 16.29704 21.58490 18.94097
#
# Velocity S-wave (km/s) = 2.65733 3.05820 2.86479
# Velocity P-wave (km/s) = 4.33962 5.17356 4.77483
#
# Compressibility (1/GPa) = 0.04601132
#
# Stress axis : x y z
#
# Youngs Moduli (GPa) = 35.06844 61.91623 75.93394
#
# Poissons Ratio (x) = -0.00972 -0.09047
# Poissons Ratio (y) = -0.00550 0.55133
# Poissons Ratio (z) = -0.04178 0.44955
#
# Static dielectric constant tensor:
#      x y z
#    x 1.898750 0.000000 0.000000 
#    y 0.000000 1.930310 0.000000 
#    z 0.000000 0.000000 1.860110 
# 
# From -- ./inp_files/64657.got.cif
#   From: 2010.05.17/outbox.cif.g08.bks.cpg/sg63_33_cif.got.tgz:64657.got - 2010.06.03 15:47:04.
