data_PCOD9471788
_publ_section_title
;
Structure prediction by ZEFSAII (Michael W. Deem and Ramdas Pophale) SiO2 
 PCOD9471788
Probable space group: C M C M
;
_chemical_formula_sum "Si O2"
_cell_formula_units_Z 64
_cell_length_a 13.598978
_cell_length_b 12.295280
_cell_length_c 21.005229
_cell_angle_alpha 90.000000
_cell_angle_beta 90.000000
_cell_angle_gamma 90.000000
_cell_volume 3512.142392
_symmetry_space_group_name_H-M "C M C M"
_symmetry_group_IT_number 63
_symmetry_cell_setting 'orthorhombic'
loop_
_space_group_symop_operation_xyz
x,y,z
-x,-y,1/2+z
x,-y,-z
-x,y,1/2-z
-x,-y,-z
x,y,1/2-z
-x,y,z
x,-y,1/2+z
1/2+x,1/2+y,z
1/2-x,1/2-y,1/2+z
1/2+x,1/2-y,-z
1/2-x,1/2+y,1/2-z
1/2-x,1/2-y,-z
1/2+x,1/2+y,1/2-z
1/2-x,1/2+y,z
1/2+x,1/2-y,1/2+z
loop_
_atom_site_type_symbol
_atom_site_label
_atom_site_fract_x
_atom_site_fract_y
_atom_site_fract_z
Si Si1 0.744783 0.267804 0.094969
Si Si2 0.886744 0.534528 0.927598
Si Si3 0.616021 0.629073 0.013277
Si Si4 0.888825 0.652320 0.178583
O O1 0.815189 0.371031 0.094331
O O2 0.812732 0.168656 0.069965
O O3 0.692934 0.239947 0.160789
O O4 0.657662 0.298066 0.045101
O O5 0.881135 0.437072 0.877071
O O6 0.000000 0.572502 0.929240
O O7 0.862135 0.500000 0.000000
O O8 0.500000 0.650280 0.023880
O O9 0.626537 0.500000 0.000000
O O10 0.875508 0.608348 0.250000
O O11 0.000000 0.697158 0.175195
#
# Coordination Sequence:
#
# PCOD9471788 Si02
#       4
#    16  16  16  16
#     4  11  19  32  54  78 102 139 180 214 259 319
#     4  10  20  35  57  85 112 139 179 231 278 322
#     4  10  20  32  49  78 111 136 165 212 265 314
#     4  10  22  38  54  76 108 143 180 225 277 332
#
# _framework density 18.222494999999999
#
# number of rings (size 3 to 8) (size 9 to 14) (size 15 to 20)
#    0.000    1.750    0.000    6.750    0.000    3.000 
#    0.000    0.000    0.000    3.000    0.000    0.000 
#    0.000    0.000    0.000    0.000    0.000    0.000 
#
# Total GULP energy -178580.148591 kJ/mol
# GULP energy per Si atom -5580.629643 kJ/mol
# Density = 1.818102 g / cm^3
# Si number density = 18.222495 Si / 1000 Ang^3
#
#
#
# Elastic Constant Matrix: (Units=GPa)
#
#
# Indices 1 2 3 4 5 6 
#
# 1 139.4893 54.1180 47.4048 0.0000 0.0000 0.0000
# 2 54.1180 76.1330 29.2272 0.0000 0.0000 0.0000
# 3 47.4048 29.2272 98.9398 0.0000 0.0000 0.0000
# 4 0.0000 0.0000 0.0000 19.4909 0.0000 0.0000
# 5 0.0000 0.0000 0.0000 0.0000 26.8806 0.0000
# 6 0.0000 0.0000 0.0000 0.0000 0.0000 25.5391
#
#
#
# Elastic Compliance Matrix: (Units=1/GPa)
#
#
# Indices 1 2 3 4 5 6 
#
# 1 0.010760 -0.006395 -0.003266 0.000000 0.000000 0.000000
# 2 -0.006395 0.018615 -0.002435 0.000000 0.000000 0.000000
# 3 -0.003266 -0.002435 0.012392 0.000000 0.000000 0.000000
# 4 0.000000 0.000000 0.000000 0.051306 0.000000 0.000000
# 5 0.000000 0.000000 0.000000 0.000000 0.037202 0.000000
# 6 0.000000 0.000000 0.000000 0.000000 0.000000 0.039156
#
#
# Mechanical properties :
#
#
# Convention : Reuss Voigt Hill
#
# Bulk Modulus (GPa) = 56.90095 64.00687 60.45391
# Shear Modulus (GPa) = 25.06507 26.63626 25.85067
#
# Velocity S-wave (km/s) = 3.71280 3.82740 3.77053
# Velocity P-wave (km/s) = 7.04793 7.39820 7.22519
#
# Compressibility (1/GPa) = 0.01757440
#
# Stress axis : x y z
#
# Youngs Moduli (GPa) = 92.93651 53.71924 80.70013
#
# Poissons Ratio (x) = 0.34352 0.26360
# Poissons Ratio (y) = 0.59430 0.19652
# Poissons Ratio (z) = 0.30357 0.13082
#
# Static dielectric constant tensor:
#      x y z
#    x 1.644690 0.000000 0.000000 
#    y 0.000000 1.652800 0.000000 
#    z 0.000000 0.000000 1.627940 
# 
# From -- ./inp_files/53774.got.cif
#   From: 2010.05.17/outbox.cif.g08.bks.cpg/sg63_27_cif.got.tgz:53774.got - 2010.06.03 15:47:04.
