data_PCOD9471448
_publ_section_title
;
Structure prediction by ZEFSAII (Michael W. Deem and Ramdas Pophale) SiO2 
 PCOD9471448
Probable space group: C M C M
;
_chemical_formula_sum "Si O2"
_cell_formula_units_Z 80
_cell_length_a 18.282561
_cell_length_b 13.037816
_cell_length_c 19.020999
_cell_angle_alpha 90.000000
_cell_angle_beta 90.000000
_cell_angle_gamma 90.000000
_cell_volume 4533.934080
_symmetry_space_group_name_H-M "C M C M"
_symmetry_group_IT_number 63
_symmetry_cell_setting 'orthorhombic'
loop_
_space_group_symop_operation_xyz
x,y,z
-x,-y,1/2+z
x,-y,-z
-x,y,1/2-z
-x,-y,-z
x,y,1/2-z
-x,y,z
x,-y,1/2+z
1/2+x,1/2+y,z
1/2-x,1/2-y,1/2+z
1/2+x,1/2-y,-z
1/2-x,1/2+y,1/2-z
1/2-x,1/2-y,-z
1/2+x,1/2+y,1/2-z
1/2-x,1/2+y,z
1/2+x,1/2-y,1/2+z
loop_
_atom_site_type_symbol
_atom_site_label
_atom_site_fract_x
_atom_site_fract_y
_atom_site_fract_z
Si Si1 0.198573 0.045370 0.332144
Si Si2 0.354217 0.847507 0.830623
Si Si3 0.500000 0.060274 0.108834
Si Si4 0.000000 0.662426 0.954693
Si Si5 0.849413 0.779850 0.571148
Si Si6 0.201101 0.159795 0.920447
O O1 0.182227 0.028044 0.250000
O O2 0.283452 0.079844 0.338216
O O3 0.153933 0.140753 0.364508
O O4 0.188057 0.944472 0.378724
O O5 0.356284 0.811571 0.750000
O O6 0.427550 0.906695 0.850088
O O7 0.341731 0.751995 0.882109
O O8 0.500000 0.939808 0.092589
O O9 0.500000 0.121063 0.034668
O O10 0.927385 0.728025 0.940299
O O11 0.824710 0.841348 0.501071
O O12 0.786485 0.693438 0.581205
#
# Coordination Sequence:
#
# PCOD9471448 Si02
#       6
#    16  16   8   8  16  16
#     4  10  21  37  58  83 113 151 191 235 283 335
#     4  10  20  35  56  85 117 145 185 235 284 339
#     4  11  21  36  57  85 115 147 182 229 289 347
#     4  11  22  38  58  82 115 149 185 233 283 337
#     4  10  21  37  58  85 113 147 192 236 279 335
#     4  10  19  36  59  85 110 148 191 236 283 330
#
# _framework density 17.64472
#
# number of rings (size 3 to 8) (size 9 to 14) (size 15 to 20)
#    0.000    1.800    2.000    2.700    0.000    0.800 
#    0.000    5.500    0.000    0.000    0.000    0.000 
#    0.000    0.000    0.000    0.000    0.000    0.000 
#
# Total GULP energy -223358.165527 kJ/mol
# GULP energy per Si atom -5583.954138 kJ/mol
# Density = 1.760456 g / cm^3
# Si number density = 17.644720 Si / 1000 Ang^3
#
#
#
# Elastic Constant Matrix: (Units=GPa)
#
#
# Indices 1 2 3 4 5 6 
#
# 1 87.0871 40.5252 17.8786 0.0000 0.0000 0.0000
# 2 40.5252 72.6872 24.4433 0.0000 0.0000 0.0000
# 3 17.8786 24.4433 66.1390 0.0000 0.0000 0.0000
# 4 0.0000 0.0000 0.0000 26.8300 0.0000 0.0000
# 5 0.0000 0.0000 0.0000 0.0000 21.0214 0.0000
# 6 0.0000 0.0000 0.0000 0.0000 0.0000 9.9973
#
#
#
# Elastic Compliance Matrix: (Units=1/GPa)
#
#
# Indices 1 2 3 4 5 6 
#
# 1 0.015581 -0.008302 -0.001143 0.000000 0.000000 0.000000
# 2 -0.008302 0.020134 -0.005197 0.000000 0.000000 0.000000
# 3 -0.001143 -0.005197 0.017349 0.000000 0.000000 0.000000
# 4 0.000000 0.000000 0.000000 0.037272 0.000000 0.000000
# 5 0.000000 0.000000 0.000000 0.000000 0.047570 0.000000
# 6 0.000000 0.000000 0.000000 0.000000 0.000000 0.100027
#
#
# Mechanical properties :
#
#
# Convention : Reuss Voigt Hill
#
# Bulk Modulus (GPa) = 42.05357 43.51192 42.78275
# Shear Modulus (GPa) = 18.17225 21.10750 19.63988
#
# Velocity S-wave (km/s) = 3.21268 3.46244 3.33990
# Velocity P-wave (km/s) = 6.13572 6.37951 6.25880
#
# Compressibility (1/GPa) = 0.02377919
#
# Stress axis : x y z
#
# Youngs Moduli (GPa) = 64.18116 49.66752 57.63907
#
# Poissons Ratio (x) = 0.41235 0.06591
# Poissons Ratio (y) = 0.53285 0.29953
# Poissons Ratio (z) = 0.07339 0.25811
#
# Static dielectric constant tensor:
#      x y z
#    x 1.572990 0.000000 0.000000 
#    y 0.000000 1.571340 0.000000 
#    z 0.000000 0.000000 1.600020 
# 
# From -- ./inp_files/55299.got.cif
#   From: 2010.05.17/outbox.cif.g08.bks.cpg/sg63_28_cif.got.tgz:55299.got - 2010.06.03 15:47:04.
