data_PCOD9471331
_publ_section_title
;
Structure prediction by ZEFSAII (Michael W. Deem and Ramdas Pophale) SiO2 
 PCOD9471331
Probable space group: C M C M
;
_chemical_formula_sum "Si O2"
_cell_formula_units_Z 104
_cell_length_a 18.668259
_cell_length_b 15.814588
_cell_length_c 15.525486
_cell_angle_alpha 90.000000
_cell_angle_beta 90.000000
_cell_angle_gamma 90.000000
_cell_volume 4583.602037
_symmetry_space_group_name_H-M "C M C M"
_symmetry_group_IT_number 63
_symmetry_cell_setting 'orthorhombic'
loop_
_space_group_symop_operation_xyz
x,y,z
-x,-y,1/2+z
x,-y,-z
-x,y,1/2-z
-x,-y,-z
x,y,1/2-z
-x,y,z
x,-y,1/2+z
1/2+x,1/2+y,z
1/2-x,1/2-y,1/2+z
1/2+x,1/2-y,-z
1/2-x,1/2+y,1/2-z
1/2-x,1/2-y,-z
1/2+x,1/2+y,1/2-z
1/2-x,1/2+y,z
1/2+x,1/2-y,1/2+z
loop_
_atom_site_type_symbol
_atom_site_label
_atom_site_fract_x
_atom_site_fract_y
_atom_site_fract_z
Si Si1 0.696191 0.155284 0.582583
Si Si2 0.772503 0.087718 0.750000
Si Si3 0.419487 0.665461 0.901229
Si Si4 0.582525 0.969525 0.401444
Si Si5 0.175017 0.555439 0.250000
Si Si6 0.132067 0.256784 0.750000
Si Si7 0.308433 0.345285 0.555613
Si Si8 0.419545 0.478274 0.602218
O O1 0.735733 0.107596 0.658604
O O2 0.615128 0.124816 0.592068
O O3 0.704763 0.254944 0.597724
O O4 0.734707 0.129078 0.492411
O O5 0.823781 0.170060 0.750000
O O6 0.754385 0.986224 0.750000
O O7 0.500000 0.661426 0.936844
O O8 0.414090 0.742729 0.835727
O O9 0.407642 0.571626 0.858320
O O10 0.361288 0.674992 0.975057
O O11 0.500000 0.971338 0.374637
O O12 0.588081 0.000000 0.500000
O O13 0.629718 0.023012 0.333381
O O14 0.174767 0.656653 0.250000
O O15 0.354214 0.412998 0.609915
O O16 0.420412 0.500000 0.500000
O O17 0.500000 0.448882 0.626744
#
# Coordination Sequence:
#
# PCOD9471331 Si02
#       8
#    16   8  16  16   8   8  16  16
#     4  10  22  38  60  86 122 162 217 268 315 382
#     4  10  22  48  58  87 128 163 207 264 315 380
#     4  10  21  36  58  91 128 162 204 262 319 378
#     4  10  23  41  62  91 126 167 219 273 329 392
#     4  10  25  44  69  91 131 176 211 274 334 387
#     4  12  23  42  65  96 127 171 216 256 325 391
#     4  10  19  35  59  91 119 164 210 262 318 385
#     4   8  16  33  54  82 120 159 196 246 314 379
#
# _framework density 22.689579999999999
#
# number of rings (size 3 to 8) (size 9 to 14) (size 15 to 20)
#    0.000    2.154    1.538    1.846    2.154    4.308 
#    2.769    0.000    0.000    0.000    0.000    0.000 
#    0.000    0.000    0.000    0.000    0.000    0.000 
#
# Total GULP energy -289707.623358 kJ/mol
# GULP energy per Si atom -5571.300449 kJ/mol
# Density = 2.263794 g / cm^3
# Si number density = 22.689580 Si / 1000 Ang^3
#
#
#
# Elastic Constant Matrix: (Units=GPa)
#
#
# Indices 1 2 3 4 5 6 
#
# 1 82.9484 53.5102 8.8855 0.0000 0.0000 0.0000
# 2 53.5102 115.2113 29.1657 0.0000 0.0000 0.0000
# 3 8.8855 29.1657 57.0791 0.0000 0.0000 0.0000
# 4 0.0000 0.0000 0.0000 26.4980 0.0000 0.0000
# 5 0.0000 0.0000 0.0000 0.0000 -216.5056 0.0000
# 6 0.0000 0.0000 0.0000 0.0000 0.0000 26.5675
#
#
#
# Elastic Compliance Matrix: (Units=1/GPa)
#
#
# Indices 1 2 3 4 5 6 
#
# 1 0.017344 -0.008467 0.001627 0.000000 0.000000 0.000000
# 2 -0.008467 0.014103 -0.005888 0.000000 0.000000 0.000000
# 3 0.001627 -0.005888 0.020275 0.000000 0.000000 0.000000
# 4 0.000000 0.000000 0.000000 0.037739 0.000000 0.000000
# 5 0.000000 0.000000 0.000000 0.000000 -0.004619 0.000000
# 6 0.000000 0.000000 0.000000 0.000000 0.000000 0.037640
#
#
# Mechanical properties :
#
#
# Convention : Reuss Voigt Hill
#
# Bulk Modulus (GPa) = 38.07458 48.70684 43.39071
# Shear Modulus (GPa) = 31.90956 -21.77618 5.06669
#
# Velocity S-wave (km/s) = 3.75421 -3.10133 1.49596
# Velocity P-wave (km/s) = 5.96734 2.94769 4.70627
#
# Compressibility (1/GPa) = 0.02626424
#
# Stress axis : x y z
#
# Youngs Moduli (GPa) = 57.65832 70.90801 49.32191
#
# Poissons Ratio (x) = 0.60038 -0.08022
# Poissons Ratio (y) = 0.48819 0.29041
# Poissons Ratio (z) = -0.09378 0.41751
#
# Static dielectric constant tensor:
#      x y z
#    x 1.909280 0.000000 0.000000 
#    y 0.000000 1.858510 0.000000 
#    z 0.000000 0.000000 1.884890 
# 
# From -- ./inp_files/47193.got.cif
#   From: 2010.05.17/outbox.cif.g08.bks.cpg/sg63_24_cif.got.tgz:47193.got - 2010.06.03 15:47:04.
