data_PCOD9471561
_publ_section_title
;
Structure prediction by ZEFSAII (Michael W. Deem and Ramdas Pophale) SiO2 
 PCOD9471561
Probable space group: C M C M
;
_chemical_formula_sum "Si O2"
_cell_formula_units_Z 76
_cell_length_a 11.217267
_cell_length_b 27.843247
_cell_length_c 14.346219
_cell_angle_alpha 90.000000
_cell_angle_beta 90.000000
_cell_angle_gamma 90.000000
_cell_volume 4480.684797
_symmetry_space_group_name_H-M "C M C M"
_symmetry_group_IT_number 63
_symmetry_cell_setting 'orthorhombic'
loop_
_space_group_symop_operation_xyz
x,y,z
-x,-y,1/2+z
x,-y,-z
-x,y,1/2-z
-x,-y,-z
x,y,1/2-z
-x,y,z
x,-y,1/2+z
1/2+x,1/2+y,z
1/2-x,1/2-y,1/2+z
1/2+x,1/2-y,-z
1/2-x,1/2+y,1/2-z
1/2-x,1/2-y,-z
1/2+x,1/2+y,1/2-z
1/2-x,1/2+y,z
1/2+x,1/2-y,1/2+z
loop_
_atom_site_type_symbol
_atom_site_label
_atom_site_fract_x
_atom_site_fract_y
_atom_site_fract_z
Si Si1 0.000000 0.511462 0.750000
Si Si2 0.500000 0.952315 0.561930
Si Si3 0.143743 0.869991 0.399092
Si Si4 0.143934 0.790840 0.250000
Si Si5 0.643391 0.818826 0.750000
Si Si6 0.729810 0.110251 0.409798
Si Si7 0.859366 0.949476 0.750000
Si Si8 0.241105 0.944078 0.250000
O O1 0.000000 0.474985 0.835744
O O2 0.881398 0.543769 0.750000
O O3 0.616498 0.919400 0.551629
O O4 0.500000 0.000000 0.500000
O O5 0.177170 0.821947 0.341108
O O6 0.193318 0.871440 0.503344
O O7 0.200515 0.913453 0.339566
O O8 0.000000 0.874429 0.397818
O O9 0.186789 0.736215 0.250000
O O10 0.000000 0.788879 0.250000
O O11 0.500000 0.819708 0.750000
O O12 0.686676 0.847195 0.658373
O O13 0.803246 0.075037 0.341631
O O14 0.000000 0.942694 0.750000
O O15 0.825332 0.005158 0.750000
#
# Coordination Sequence:
#
# PCOD9471561 Si02
#       8
#     4   8  16   8   8  16   8   8
#     4  12  20  38  56  76 116 152 198 222 282 332
#     4  12  22  36  52  80 118 152 190 226 278 329
#     4  10  21  38  56  85 113 146 191 230 286 346
#     4   8  18  37  62  80 108 146 182 234 295 343
#     4  10  19  38  59  83 111 143 190 242 287 338
#     4  11  22  35  57  83 113 149 189 235 274 336
#     4  11  22  35  52  80 112 153 186 219 275 323
#     4  11  21  37  58  80 114 155 185 239 269 334
#
# _framework density 16.961691999999999
#
# number of rings (size 3 to 8) (size 9 to 14) (size 15 to 20)
#    0.000    1.474    3.158    4.105    0.000    0.842 
#    0.000    2.105    0.000    0.000   38.316    0.000 
#    0.000    0.000    0.000    0.000    0.000    0.000 
#
# Total GULP energy -212121.851890 kJ/mol
# GULP energy per Si atom -5582.153997 kJ/mol
# Density = 1.692309 g / cm^3
# Si number density = 16.961692 Si / 1000 Ang^3
#
#
#
# Elastic Constant Matrix: (Units=GPa)
#
#
# Indices 1 2 3 4 5 6 
#
# 1 89.8497 23.8656 3.5608 0.0000 0.0000 0.0000
# 2 23.8656 128.5364 32.6702 0.0000 0.0000 0.0000
# 3 3.5608 32.6702 89.0119 0.0000 0.0000 0.0000
# 4 0.0000 0.0000 0.0000 -22.7455 0.0000 0.0000
# 5 0.0000 0.0000 0.0000 0.0000 28.5930 0.0000
# 6 0.0000 0.0000 0.0000 0.0000 0.0000 17.8306
#
#
#
# Elastic Compliance Matrix: (Units=1/GPa)
#
#
# Indices 1 2 3 4 5 6 
#
# 1 0.011718 -0.002268 0.000364 0.000000 0.000000 0.000000
# 2 -0.002268 0.009019 -0.003220 0.000000 0.000000 0.000000
# 3 0.000364 -0.003220 0.012402 0.000000 0.000000 0.000000
# 4 0.000000 0.000000 0.000000 -0.043965 0.000000 0.000000
# 5 0.000000 0.000000 0.000000 0.000000 0.034974 0.000000
# 6 0.000000 0.000000 0.000000 0.000000 0.000000 0.056083
#
#
# Mechanical properties :
#
#
# Convention : Reuss Voigt Hill
#
# Bulk Modulus (GPa) = 43.68601 47.51013 45.59807
# Shear Modulus (GPa) = 50.96359 21.22238 36.09298
#
# Velocity S-wave (km/s) = 5.48740 3.54106 4.61793
# Velocity P-wave (km/s) = 8.12159 6.69252 7.44144
#
# Compressibility (1/GPa) = 0.02289062
#
# Stress axis : x y z
#
# Youngs Moduli (GPa) = 85.34074 110.87255 80.63460
#
# Poissons Ratio (x) = 0.25147 -0.02933
# Poissons Ratio (y) = 0.19356 0.25962
# Poissons Ratio (z) = -0.03104 0.35697
#
# Static dielectric constant tensor:
#      x y z
#    x 1.563700 0.000000 0.000000 
#    y 0.000000 1.560680 0.000000 
#    z 0.000000 0.000000 1.551680 
# 
# From -- ./inp_files/29840.got.cif
#   From: 2010.05.17/outbox.cif.g08.bks.cpg/sg63_15_cif.got.tgz:29840.got - 2010.06.03 15:47:04.
