data_PCOD9471025
_publ_section_title
;
Structure prediction by ZEFSAII (Michael W. Deem and Ramdas Pophale) SiO2 
 PCOD9471025
Probable space group: C M C M
;
_chemical_formula_sum "Si O2"
_cell_formula_units_Z 96
_cell_length_a 20.094032
_cell_length_b 30.083993
_cell_length_c 7.667115
_cell_angle_alpha 90.000000
_cell_angle_beta 90.000000
_cell_angle_gamma 90.000000
_cell_volume 4634.837860
_symmetry_space_group_name_H-M "C M C M"
_symmetry_group_IT_number 63
_symmetry_cell_setting 'orthorhombic'
loop_
_space_group_symop_operation_xyz
x,y,z
-x,-y,1/2+z
x,-y,-z
-x,y,1/2-z
-x,-y,-z
x,y,1/2-z
-x,y,z
x,-y,1/2+z
1/2+x,1/2+y,z
1/2-x,1/2-y,1/2+z
1/2+x,1/2-y,-z
1/2-x,1/2+y,1/2-z
1/2-x,1/2-y,-z
1/2+x,1/2+y,1/2-z
1/2-x,1/2+y,z
1/2+x,1/2-y,1/2+z
loop_
_atom_site_type_symbol
_atom_site_label
_atom_site_fract_x
_atom_site_fract_y
_atom_site_fract_z
Si Si1 0.572643 0.051799 0.042375
Si Si2 0.320311 0.725325 0.458075
Si Si3 0.317916 0.377138 0.455333
Si Si4 0.923737 0.700635 0.963688
Si Si5 0.923941 0.949251 0.040008
Si Si6 0.171643 0.623050 0.549805
O O1 0.577063 0.057701 0.250000
O O2 0.500000 0.068998 0.983372
O O3 0.631999 0.077486 0.953824
O O4 0.574950 0.000000 0.000000
O O5 0.322214 0.721848 0.250000
O O6 0.250000 0.750000 0.500000
O O7 0.329383 0.675656 0.529355
O O8 0.381687 0.756131 0.515237
O O9 0.314187 0.388427 0.250000
O O10 0.373877 0.410849 0.526222
O O11 0.243845 0.382628 0.532982
O O12 0.925840 0.699287 0.750000
O O13 0.878867 0.659341 0.026505
O O14 0.000000 0.699501 0.023605
O O15 0.927033 0.945564 0.250000
O O16 0.000000 0.943896 0.973849
O O17 0.902304 0.000000 0.000000
O O18 0.183125 0.637837 0.750000
#
# Coordination Sequence:
#
# PCOD9471025 Si02
#       6
#    16  16  16  16  16  16
#     4  10  21  36  53  75 104 138 178 222 267 319
#     4  11  21  36  57  81 112 149 187 231 280 331
#     4  10  21  37  57  84 114 146 186 227 278 338
#     4   9  18  33  54  79 106 141 184 224 268 323
#     4   9  19  37  60  84 115 152 189 235 288 341
#     4  10  19  34  55  77 105 142 179 223 273 325
#
# _framework density 20.712700000000002
#
# number of rings (size 3 to 8) (size 9 to 14) (size 15 to 20)
#    0.000    2.167    1.667    1.500    0.000    4.333 
#    0.000    1.667    0.000    2.500    0.000    0.000 
#    0.000    0.000    0.000    0.000    0.000    0.000 
#
# Total GULP energy -267800.785744 kJ/mol
# GULP energy per Si atom -5579.183036 kJ/mol
# Density = 2.066556 g / cm^3
# Si number density = 20.712700 Si / 1000 Ang^3
#
#
#
# Elastic Constant Matrix: (Units=GPa)
#
#
# Indices 1 2 3 4 5 6 
#
# 1 184.5688 104.0553 8.2396 0.0000 0.0000 0.0000
# 2 104.0553 129.5922 -10.6809 0.0000 0.0000 0.0000
# 3 8.2396 -10.6809 40.4105 0.0000 0.0000 0.0000
# 4 0.0000 0.0000 0.0000 24.3185 0.0000 0.0000
# 5 0.0000 0.0000 0.0000 0.0000 35.1246 0.0000
# 6 0.0000 0.0000 0.0000 0.0000 0.0000 43.8426
#
#
#
# Elastic Compliance Matrix: (Units=1/GPa)
#
#
# Indices 1 2 3 4 5 6 
#
# 1 0.010654 -0.008928 -0.004532 0.000000 0.000000 0.000000
# 2 -0.008928 0.015370 0.005883 0.000000 0.000000 0.000000
# 3 -0.004532 0.005883 0.027225 0.000000 0.000000 0.000000
# 4 0.000000 0.000000 0.000000 0.041121 0.000000 0.000000
# 5 0.000000 0.000000 0.000000 0.000000 0.028470 0.000000
# 6 0.000000 0.000000 0.000000 0.000000 0.000000 0.022809
#
#
# Mechanical properties :
#
#
# Convention : Reuss Voigt Hill
#
# Bulk Modulus (GPa) = 26.25051 61.97775 44.11413
# Shear Modulus (GPa) = 28.81838 37.52097 33.16968
#
# Velocity S-wave (km/s) = 3.73411 4.26078 4.00611
# Velocity P-wave (km/s) = 5.59398 7.36161 6.53781
#
# Compressibility (1/GPa) = 0.03809450
#
# Stress axis : x y z
#
# Youngs Moduli (GPa) = 93.86493 65.06236 36.73101
#
# Poissons Ratio (x) = 0.58086 0.16646
# Poissons Ratio (y) = 0.83800 -0.21608
# Poissons Ratio (z) = 0.42539 -0.38275
#
# Static dielectric constant tensor:
#      x y z
#    x 1.755060 0.000000 0.000000 
#    y 0.000000 1.732340 0.000000 
#    z 0.000000 0.000000 1.765560 
# 
# From -- ./inp_files/8664.got.cif
#   From: 2010.05.17/outbox.cif.g08.bks.cpg/sg63_5_cif.got.tgz:8664.got - 2010.06.03 15:47:04.
