data_PCOD9471303
_publ_section_title
;
Structure prediction by ZEFSAII (Michael W. Deem and Ramdas Pophale) SiO2 
 PCOD9471303
Probable space group: C M C M
;
_chemical_formula_sum "Si O2"
_cell_formula_units_Z 96
_cell_length_a 11.062188
_cell_length_b 20.257186
_cell_length_c 25.292912
_cell_angle_alpha 90.000000
_cell_angle_beta 90.000000
_cell_angle_gamma 90.000000
_cell_volume 5667.858296
_symmetry_space_group_name_H-M "C M C M"
_symmetry_group_IT_number 63
_symmetry_cell_setting 'orthorhombic'
loop_
_space_group_symop_operation_xyz
x,y,z
-x,-y,1/2+z
x,-y,-z
-x,y,1/2-z
-x,-y,-z
x,y,1/2-z
-x,y,z
x,-y,1/2+z
1/2+x,1/2+y,z
1/2-x,1/2-y,1/2+z
1/2+x,1/2-y,-z
1/2-x,1/2+y,1/2-z
1/2-x,1/2-y,-z
1/2+x,1/2+y,1/2-z
1/2-x,1/2+y,z
1/2+x,1/2-y,1/2+z
loop_
_atom_site_type_symbol
_atom_site_label
_atom_site_fract_x
_atom_site_fract_y
_atom_site_fract_z
Si Si1 0.642777 0.810493 0.937024
Si Si2 0.248089 0.173513 0.551510
Si Si3 0.355431 0.075364 0.636386
Si Si4 0.000000 0.037197 0.088667
Si Si5 0.500000 0.400320 0.471508
Si Si6 0.742054 0.072170 0.364587
Si Si7 0.137745 0.582879 0.750000
Si Si8 0.859792 0.423170 0.750000
O O1 0.500000 0.800959 0.928345
O O2 0.719612 0.744927 0.923640
O O3 0.688611 0.873249 0.904095
O O4 0.670209 0.820243 0.999267
O O5 0.308343 0.123122 0.591604
O O6 0.119232 0.143168 0.535082
O O7 0.500000 0.077497 0.639243
O O8 0.305086 0.098908 0.693616
O O9 0.319233 0.999498 0.626977
O O10 0.881796 0.059080 0.121112
O O11 0.000000 0.959526 0.072023
O O12 0.000000 0.071093 0.030867
O O13 0.709789 0.093492 0.304379
O O14 0.132024 0.503050 0.750000
O O15 0.000000 0.608738 0.750000
O O16 0.000000 0.399143 0.750000
#
# Coordination Sequence:
#
# PCOD9471303 Si02
#       8
#    16  16  16   8   8  16   8   8
#     4  11  23  37  55  82 112 147 190 232 284 342
#     4  11  22  37  57  80 112 152 185 232 283 341
#     4  10  19  35  58  85 110 140 187 234 281 330
#     4  11  22  35  60  84 116 152 188 232 278 347
#     4  11  20  40  54  80 122 152 185 224 290 344
#     4  11  21  37  59  85 111 148 189 233 283 334
#     4   7  14  30  54  79 107 138 170 223 280 323
#     4   9  18  35  58  83 113 143 183 239 290 327
#
# _framework density 16.937614
#
# number of rings (size 3 to 8) (size 9 to 14) (size 15 to 20)
#    0.000    1.667    4.167    3.000    0.000    1.000 
#    1.500    2.500    0.000    0.500    0.000    0.000 
#    0.000    0.000    0.000    0.000    0.000    0.000 
#
# Total GULP energy -267580.702127 kJ/mol
# GULP energy per Si atom -5574.597961 kJ/mol
# Density = 1.689906 g / cm^3
# Si number density = 16.937614 Si / 1000 Ang^3
#
#
#
# Elastic Constant Matrix: (Units=GPa)
#
#
# Indices 1 2 3 4 5 6 
#
# 1 81.0450 15.4855 32.5208 0.0000 0.0000 0.0000
# 2 15.4855 84.3460 43.2311 0.0000 0.0000 0.0000
# 3 32.5208 43.2311 79.4746 0.0000 0.0000 0.0000
# 4 0.0000 0.0000 0.0000 10.1931 0.0000 0.0000
# 5 0.0000 0.0000 0.0000 0.0000 11.6222 0.0000
# 6 0.0000 0.0000 0.0000 0.0000 0.0000 20.3562
#
#
#
# Elastic Compliance Matrix: (Units=1/GPa)
#
#
# Indices 1 2 3 4 5 6 
#
# 1 0.014780 0.000536 -0.006339 0.000000 0.000000 0.000000
# 2 0.000536 0.016459 -0.009172 0.000000 0.000000 0.000000
# 3 -0.006339 -0.009172 0.020166 0.000000 0.000000 0.000000
# 4 0.000000 0.000000 0.000000 0.098106 0.000000 0.000000
# 5 0.000000 0.000000 0.000000 0.000000 0.086042 0.000000
# 6 0.000000 0.000000 0.000000 0.000000 0.000000 0.049125
#
#
# Mechanical properties :
#
#
# Convention : Reuss Voigt Hill
#
# Bulk Modulus (GPa) = 46.61301 47.48227 47.04764
# Shear Modulus (GPa) = 15.53853 18.67618 17.10735
#
# Velocity S-wave (km/s) = 3.03214 3.32421 3.18153
# Velocity P-wave (km/s) = 6.31179 6.54434 6.42911
#
# Compressibility (1/GPa) = 0.02145324
#
# Stress axis : x y z
#
# Youngs Moduli (GPa) = 67.65762 60.75828 49.58853
#
# Poissons Ratio (x) = -0.03255 0.31436
# Poissons Ratio (y) = -0.03624 0.45483
# Poissons Ratio (z) = 0.42891 0.55728
#
# Static dielectric constant tensor:
#      x y z
#    x 1.561970 0.000000 0.000000 
#    y 0.000000 1.561690 0.000000 
#    z 0.000000 0.000000 1.584470 
# 
# From -- ./inp_files/52975.got.cif
#   From: 2010.05.17/outbox.cif.g08.bks.cpg/sg63_27_cif.got.tgz:52975.got - 2010.06.03 15:47:04.
