data_PCOD9471230
_publ_section_title
;
Structure prediction by ZEFSAII (Michael W. Deem and Ramdas Pophale) SiO2 
 PCOD9471230
Probable space group: C M C M
;
_chemical_formula_sum "Si O2"
_cell_formula_units_Z 56
_cell_length_a 13.241607
_cell_length_b 19.472133
_cell_length_c 13.466136
_cell_angle_alpha 90.000000
_cell_angle_beta 90.000000
_cell_angle_gamma 90.000000
_cell_volume 3472.139918
_symmetry_space_group_name_H-M "C M C M"
_symmetry_group_IT_number 63
_symmetry_cell_setting 'orthorhombic'
loop_
_space_group_symop_operation_xyz
x,y,z
-x,-y,1/2+z
x,-y,-z
-x,y,1/2-z
-x,-y,-z
x,y,1/2-z
-x,y,z
x,-y,1/2+z
1/2+x,1/2+y,z
1/2-x,1/2-y,1/2+z
1/2+x,1/2-y,-z
1/2-x,1/2+y,1/2-z
1/2-x,1/2-y,-z
1/2+x,1/2+y,1/2-z
1/2-x,1/2+y,z
1/2+x,1/2-y,1/2+z
loop_
_atom_site_type_symbol
_atom_site_label
_atom_site_fract_x
_atom_site_fract_y
_atom_site_fract_z
Si Si1 0.778626 0.303082 0.914329
Si Si2 0.385122 0.283533 0.250000
Si Si3 0.813041 0.368517 0.250000
Si Si4 0.379739 0.077154 0.962068
Si Si5 0.117447 0.211048 0.250000
O O1 0.858949 0.264518 0.843970
O O2 0.680215 0.314719 0.845554
O O3 0.750000 0.250000 0.000000
O O4 0.823900 0.370197 0.964684
O O5 0.500000 0.306108 0.250000
O O6 0.304128 0.345233 0.250000
O O7 0.841622 0.408620 0.149978
O O8 0.870136 0.294373 0.250000
O O9 0.500000 0.090246 0.963922
O O10 0.362207 0.000000 0.000000
O O11 0.000000 0.193225 0.250000
#
# Coordination Sequence:
#
# PCOD9471230 Si02
#       5
#    16   8   8  16   8
#     4  10  19  35  54  85 111 142 187 234 269 320
#     4  10  20  33  57  84 113 143 184 237 275 316
#     4  10  20  36  53  83 115 144 187 230 274 339
#     4  11  22  36  58  84 115 150 181 227 286 337
#     4  10  20  33  58  83 112 149 187 231 275 327
#
# _framework density 16.128381000000001
#
# number of rings (size 3 to 8) (size 9 to 14) (size 15 to 20)
#    0.000    2.000    5.714    2.143    0.000    3.429 
#    0.000    2.857    0.000    5.143    0.000    0.000 
#    0.000    0.000    0.000    0.000    0.000    0.000 
#
# Total GULP energy -156167.731503 kJ/mol
# GULP energy per Si atom -5577.418982 kJ/mol
# Density = 1.609167 g / cm^3
# Si number density = 16.128381 Si / 1000 Ang^3
#
#
#
# Elastic Constant Matrix: (Units=GPa)
#
#
# Indices 1 2 3 4 5 6 
#
# 1 158.3282 69.7952 74.5911 0.0000 0.0000 0.0000
# 2 69.7952 111.4200 76.5254 0.0000 0.0000 0.0000
# 3 74.5911 76.5254 159.8198 0.0000 0.0000 0.0000
# 4 0.0000 0.0000 0.0000 20.8088 0.0000 0.0000
# 5 0.0000 0.0000 0.0000 0.0000 6.4648 0.0000
# 6 0.0000 0.0000 0.0000 0.0000 0.0000 22.7901
#
#
#
# Elastic Compliance Matrix: (Units=1/GPa)
#
#
# Indices 1 2 3 4 5 6 
#
# 1 0.009261 -0.004220 -0.002301 0.000000 0.000000 0.000000
# 2 -0.004220 0.015296 -0.005354 0.000000 0.000000 0.000000
# 3 -0.002301 -0.005354 0.009895 0.000000 0.000000 0.000000
# 4 0.000000 0.000000 0.000000 0.048057 0.000000 0.000000
# 5 0.000000 0.000000 0.000000 0.000000 0.154684 0.000000
# 6 0.000000 0.000000 0.000000 0.000000 0.000000 0.043879
#
#
# Mechanical properties :
#
#
# Convention : Reuss Voigt Hill
#
# Bulk Modulus (GPa) = 93.46200 96.82128 95.14164
# Shear Modulus (GPa) = 16.21324 23.92315 20.06820
#
# Velocity S-wave (km/s) = 3.17403 3.85554 3.53126
# Velocity P-wave (km/s) = 8.45619 8.94327 8.70314
#
# Compressibility (1/GPa) = 0.01069954
#
# Stress axis : x y z
#
# Youngs Moduli (GPa) = 107.98367 65.37506 101.06168
#
# Poissons Ratio (x) = 0.27591 0.23257
# Poissons Ratio (y) = 0.45574 0.54113
# Poissons Ratio (z) = 0.24850 0.35005
#
# Static dielectric constant tensor:
#      x y z
#    x 1.537680 0.000000 0.000000 
#    y 0.000000 1.511320 0.000000 
#    z 0.000000 0.000000 1.560180 
# 
# From -- ./inp_files/18875.got.cif
#   From: 2010.05.17/outbox.cif.g08.bks.cpg/sg63_10_cif.got.tgz:18875.got - 2010.06.03 15:47:04.
