data_PCOD9471681
_publ_section_title
;
Structure prediction by ZEFSAII (Michael W. Deem and Ramdas Pophale) SiO2 
 PCOD9471681
Probable space group: C M C M
;
_chemical_formula_sum "Si O2"
_cell_formula_units_Z 80
_cell_length_a 19.981747
_cell_length_b 34.216637
_cell_length_c 8.502852
_cell_angle_alpha 90.000000
_cell_angle_beta 90.000000
_cell_angle_gamma 90.000000
_cell_volume 5813.469497
_symmetry_space_group_name_H-M "C M C M"
_symmetry_group_IT_number 63
_symmetry_cell_setting 'orthorhombic'
loop_
_space_group_symop_operation_xyz
x,y,z
-x,-y,1/2+z
x,-y,-z
-x,y,1/2-z
-x,-y,-z
x,y,1/2-z
-x,y,z
x,-y,1/2+z
1/2+x,1/2+y,z
1/2-x,1/2-y,1/2+z
1/2+x,1/2-y,-z
1/2-x,1/2+y,1/2-z
1/2-x,1/2-y,-z
1/2+x,1/2+y,1/2-z
1/2-x,1/2+y,z
1/2+x,1/2-y,1/2+z
loop_
_atom_site_type_symbol
_atom_site_label
_atom_site_fract_x
_atom_site_fract_y
_atom_site_fract_z
Si Si1 0.077242 0.957212 0.937852
Si Si2 0.721690 0.690224 0.559791
Si Si3 0.646893 0.766778 0.440356
Si Si4 0.500000 0.756741 0.059492
Si Si5 0.868464 0.878978 0.062001
Si Si6 0.500000 0.664642 0.061288
O O1 0.076792 0.957691 0.750000
O O2 0.000000 0.949458 0.991442
O O3 0.124379 0.922437 0.995561
O O4 0.095865 0.000000 0.000000
O O5 0.719470 0.691638 0.750000
O O6 0.673399 0.724545 0.496778
O O7 0.796679 0.702083 0.509556
O O8 0.693658 0.648147 0.509737
O O9 0.646143 0.766027 0.250000
O O10 0.571050 0.773597 0.496473
O O11 0.500000 0.760120 0.250000
O O12 0.500000 0.710536 0.023133
O O13 0.867762 0.881225 0.250000
O O14 0.934524 0.855872 0.006951
O O15 0.500000 0.660249 0.250000
#
# Coordination Sequence:
#
# PCOD9471681 Si02
#       6
#    16  16  16   8  16   8
#     4  10  20  32  45  60  79 103 131 164 200 236
#     4   9  18  28  39  56  78 103 131 165 203 237
#     4   9  16  28  41  55  76 102 134 168 202 237
#     4   9  16  25  41  58  74 101 136 174 205 232
#     4  11  20  29  41  58  80 106 133 167 204 238
#     4  11  19  27  38  58  77 101 139 174 203 234
#
# _framework density 13.761145000000001
#
# number of rings (size 3 to 8) (size 9 to 14) (size 15 to 20)
#    0.000    2.200    3.000    1.500    0.000    1.600 
#    0.000    0.500    0.000    0.000    0.000    0.000 
#    0.000    0.000    0.000    0.900    0.000    6.400 
#
# Total GULP energy -222937.389188 kJ/mol
# GULP energy per Si atom -5573.434730 kJ/mol
# Density = 1.372982 g / cm^3
# Si number density = 13.761145 Si / 1000 Ang^3
#
#
#
# Elastic Constant Matrix: (Units=GPa)
#
#
# Indices 1 2 3 4 5 6 
#
# 1 109.9674 57.1447 12.2259 0.0000 0.0000 0.0000
# 2 57.1447 104.6260 23.4622 0.0000 0.0000 0.0000
# 3 12.2259 23.4622 17.0271 0.0000 0.0000 0.0000
# 4 0.0000 0.0000 0.0000 18.2736 0.0000 0.0000
# 5 0.0000 0.0000 0.0000 0.0000 9.9516 0.0000
# 6 0.0000 0.0000 0.0000 0.0000 0.0000 22.9829
#
#
#
# Elastic Compliance Matrix: (Units=1/GPa)
#
#
# Indices 1 2 3 4 5 6 
#
# 1 0.012702 -0.007080 0.000635 0.000000 0.000000 0.000000
# 2 -0.007080 0.017778 -0.019414 0.000000 0.000000 0.000000
# 3 0.000635 -0.019414 0.085024 0.000000 0.000000 0.000000
# 4 0.000000 0.000000 0.000000 0.054724 0.000000 0.000000
# 5 0.000000 0.000000 0.000000 0.000000 0.100486 0.000000
# 6 0.000000 0.000000 0.000000 0.000000 0.000000 0.043511
#
#
# Mechanical properties :
#
#
# Convention : Reuss Voigt Hill
#
# Bulk Modulus (GPa) = 15.67686 46.36513 31.02099
# Shear Modulus (GPa) = 12.91305 19.49414 16.20360
#
# Velocity S-wave (km/s) = 3.06661 3.76787 3.43518
# Velocity P-wave (km/s) = 4.89445 7.25913 6.19074
#
# Compressibility (1/GPa) = 0.06378828
#
# Stress axis : x y z
#
# Youngs Moduli (GPa) = 78.72672 56.24809 11.76132
#
# Poissons Ratio (x) = 0.39825 -0.00747
# Poissons Ratio (y) = 0.55740 0.22833
# Poissons Ratio (z) = -0.05003 1.09198
#
# Static dielectric constant tensor:
#      x y z
#    x 1.460430 0.000000 0.000000 
#    y 0.000000 1.443390 0.000000 
#    z 0.000000 0.000000 1.466040 
# 
# From -- ./inp_files/8899.got.cif
#   From: 2010.05.17/outbox.cif.g08.bks.cpg/sg63_5_cif.got.tgz:8899.got - 2010.06.03 15:47:04.
