data_PCOD9471357
_publ_section_title
;
Structure prediction by ZEFSAII (Michael W. Deem and Ramdas Pophale) SiO2 
 PCOD9471357
Probable space group: C M C M
;
_chemical_formula_sum "Si O2"
_cell_formula_units_Z 64
_cell_length_a 7.751466
_cell_length_b 26.918792
_cell_length_c 13.843253
_cell_angle_alpha 90.000000
_cell_angle_beta 90.000000
_cell_angle_gamma 90.000000
_cell_volume 2888.534568
_symmetry_space_group_name_H-M "C M C M"
_symmetry_group_IT_number 63
_symmetry_cell_setting 'orthorhombic'
loop_
_space_group_symop_operation_xyz
x,y,z
-x,-y,1/2+z
x,-y,-z
-x,y,1/2-z
-x,-y,-z
x,y,1/2-z
-x,y,z
x,-y,1/2+z
1/2+x,1/2+y,z
1/2-x,1/2-y,1/2+z
1/2+x,1/2-y,-z
1/2-x,1/2+y,1/2-z
1/2-x,1/2-y,-z
1/2+x,1/2+y,1/2-z
1/2-x,1/2+y,z
1/2+x,1/2-y,1/2+z
loop_
_atom_site_type_symbol
_atom_site_label
_atom_site_fract_x
_atom_site_fract_y
_atom_site_fract_z
Si Si1 0.306085 0.174786 0.250000
Si Si2 0.789118 0.625502 0.642090
Si Si3 0.299617 0.012405 0.888654
Si Si4 0.792295 0.305076 0.535125
Si Si5 0.814453 0.070181 0.250000
O O1 0.500000 0.196697 0.250000
O O2 0.226484 0.188134 0.354650
O O3 0.316362 0.115070 0.250000
O O4 0.738386 0.643762 0.750000
O O5 0.734991 0.567849 0.632570
O O6 0.729922 0.657029 0.548959
O O7 0.000000 0.626017 0.639683
O O8 0.500000 0.011118 0.857399
O O9 0.205115 0.967416 0.837724
O O10 0.294393 0.000000 0.000000
O O11 0.750000 0.250000 0.500000
O O12 0.000000 0.312006 0.539981
O O13 0.000000 0.094977 0.250000
#
# Coordination Sequence:
#
# PCOD9471357 Si02
#       5
#     8  16  16  16   8
#     4  10  22  42  61  82 117 159 206 243 279 356
#     4   9  17  32  56  85 112 144 193 242 283 339
#     4  10  19  35  61  86 113 156 204 242 280 344
#     4  10  22  39  62  88 114 149 193 245 298 347
#     4  12  24  36  55  88 127 159 188 239 303 352
#
# _framework density 22.156562999999998
#
# number of rings (size 3 to 8) (size 9 to 14) (size 15 to 20)
#    0.000    2.000    1.250    2.625    1.750    5.500 
#    0.000    1.250    0.000    0.000    0.000    0.000 
#    0.000    0.000    0.000    0.000    0.000    0.000 
#
# Total GULP energy -178580.744470 kJ/mol
# GULP energy per Si atom -5580.648265 kJ/mol
# Density = 2.210613 g / cm^3
# Si number density = 22.156563 Si / 1000 Ang^3
#
#
#
# Elastic Constant Matrix: (Units=GPa)
#
#
# Indices 1 2 3 4 5 6 
#
# 1 41.1788 -3.4344 9.7590 0.0000 0.0000 0.0000
# 2 -3.4344 113.0408 75.4659 0.0000 0.0000 0.0000
# 3 9.7590 75.4659 240.4616 0.0000 0.0000 0.0000
# 4 0.0000 0.0000 0.0000 37.5226 0.0000 0.0000
# 5 0.0000 0.0000 0.0000 0.0000 -3.7309 0.0000
# 6 0.0000 0.0000 0.0000 0.0000 0.0000 21.5278
#
#
#
# Elastic Compliance Matrix: (Units=1/GPa)
#
#
# Indices 1 2 3 4 5 6 
#
# 1 0.024808 0.001804 -0.001573 0.000000 0.000000 0.000000
# 2 0.001804 0.011322 -0.003627 0.000000 0.000000 0.000000
# 3 -0.001573 -0.003627 0.005361 0.000000 0.000000 0.000000
# 4 0.000000 0.000000 0.000000 0.026651 0.000000 0.000000
# 5 0.000000 0.000000 0.000000 0.000000 -0.268028 0.000000
# 6 0.000000 0.000000 0.000000 0.000000 0.000000 0.046451
#
#
# Mechanical properties :
#
#
# Convention : Reuss Voigt Hill
#
# Bulk Modulus (GPa) = 28.81921 62.02913 45.42417
# Shear Modulus (GPa) = -37.01563 31.92329 -2.54617
#
# Velocity S-wave (km/s) = -4.09178 3.79991 -1.07316
# Velocity P-wave (km/s) = 3.04766 6.87816 4.36009
#
# Compressibility (1/GPa) = 0.03469907
#
# Stress axis : x y z
#
# Youngs Moduli (GPa) = 40.31036 88.32171 186.54453
#
# Poissons Ratio (x) = -0.15931 0.29341
# Poissons Ratio (y) = -0.07271 0.67651
# Poissons Ratio (z) = 0.06340 0.32030
#
# Static dielectric constant tensor:
#      x y z
#    x 1.894710 0.000000 0.000000 
#    y 0.000000 1.737690 0.000000 
#    z 0.000000 0.000000 1.815980 
# 
# From -- ./inp_files/27543.got.cif
#   From: 2010.05.17/outbox.cif.g08.bks.cpg/sg63_14_cif.got.tgz:27543.got - 2010.06.03 15:47:04.
