data_PCOD9471191
_publ_section_title
;
Structure prediction by ZEFSAII (Michael W. Deem and Ramdas Pophale) SiO2 
 PCOD9471191
Probable space group: C M C M
;
_chemical_formula_sum "Si O2"
_cell_formula_units_Z 80
_cell_length_a 8.901231
_cell_length_b 15.325917
_cell_length_c 28.322977
_cell_angle_alpha 90.000000
_cell_angle_beta 90.000000
_cell_angle_gamma 90.000000
_cell_volume 3863.807140
_symmetry_space_group_name_H-M "C M C M"
_symmetry_group_IT_number 63
_symmetry_cell_setting 'orthorhombic'
loop_
_space_group_symop_operation_xyz
x,y,z
-x,-y,1/2+z
x,-y,-z
-x,y,1/2-z
-x,-y,-z
x,y,1/2-z
-x,y,z
x,-y,1/2+z
1/2+x,1/2+y,z
1/2-x,1/2-y,1/2+z
1/2+x,1/2-y,-z
1/2-x,1/2+y,1/2-z
1/2-x,1/2-y,-z
1/2+x,1/2+y,1/2-z
1/2-x,1/2+y,z
1/2+x,1/2-y,1/2+z
loop_
_atom_site_type_symbol
_atom_site_label
_atom_site_fract_x
_atom_site_fract_y
_atom_site_fract_z
Si Si1 0.823969 0.600925 0.840043
Si Si2 0.823733 0.321931 0.055993
Si Si3 0.677184 0.574976 0.138446
Si Si4 0.674938 0.771424 0.695284
Si Si5 0.676549 0.865526 0.546356
O O1 0.806370 0.628023 0.895124
O O2 0.759698 0.504323 0.835559
O O3 0.733197 0.673255 0.811352
O O4 0.000000 0.604226 0.828176
O O5 0.720892 0.236035 0.054768
O O6 0.000000 0.294196 0.052411
O O7 0.792522 0.378820 0.009227
O O8 0.500000 0.564356 0.141039
O O9 0.727908 0.665001 0.162698
O O10 0.730610 0.579911 0.084144
O O11 0.689369 0.796803 0.750000
O O12 0.500000 0.777583 0.681504
O O13 0.500000 0.879654 0.555011
#
# Coordination Sequence:
#
# PCOD9471191 Si02
#       5
#    16  16  16  16  16
#     4  11  23  41  66  95 128 165 208 255 310 372
#     4   9  19  35  58  90 125 166 209 254 307 369
#     4  12  25  41  63  93 129 168 213 257 307 367
#     4  11  25  46  70  95 123 157 202 259 322 380
#     4  10  19  34  59  89 126 167 210 257 307 362
#
# _framework density 20.704967
#
# number of rings (size 3 to 8) (size 9 to 14) (size 15 to 20)
#    0.000    1.400    2.000    3.600    0.000    4.800 
#    0.000    4.000    0.000    0.000    0.000    0.000 
#    0.000    0.000    0.000    0.000    0.000    0.000 
#
# Total GULP energy -223724.064192 kJ/mol
# GULP energy per Si atom -5593.101605 kJ/mol
# Density = 2.065784 g / cm^3
# Si number density = 20.704967 Si / 1000 Ang^3
#
#
#
# Elastic Constant Matrix: (Units=GPa)
#
#
# Indices 1 2 3 4 5 6 
#
# 1 58.2643 -13.0769 11.3703 0.0000 0.0000 0.0000
# 2 -13.0769 34.5253 -13.3954 0.0000 0.0000 0.0000
# 3 11.3703 -13.3954 42.9018 0.0000 0.0000 0.0000
# 4 0.0000 0.0000 0.0000 11.3746 0.0000 0.0000
# 5 0.0000 0.0000 0.0000 0.0000 25.2883 0.0000
# 6 0.0000 0.0000 0.0000 0.0000 0.0000 31.9951
#
#
#
# Elastic Compliance Matrix: (Units=1/GPa)
#
#
# Indices 1 2 3 4 5 6 
#
# 1 0.019135 0.006008 -0.003196 0.000000 0.000000 0.000000
# 2 0.006008 0.034843 0.009287 0.000000 0.000000 0.000000
# 3 -0.003196 0.009287 0.027056 0.000000 0.000000 0.000000
# 4 0.000000 0.000000 0.000000 0.087915 0.000000 0.000000
# 5 0.000000 0.000000 0.000000 0.000000 0.039544 0.000000
# 6 0.000000 0.000000 0.000000 0.000000 0.000000 0.031255
#
#
# Mechanical properties :
#
#
# Convention : Reuss Voigt Hill
#
# Bulk Modulus (GPa) = 9.50279 11.72083 10.61181
# Shear Modulus (GPa) = 19.94997 23.78450 21.86723
#
# Velocity S-wave (km/s) = 3.10745 3.39297 3.25335
# Velocity P-wave (km/s) = 4.18026 4.58507 4.38734
#
# Compressibility (1/GPa) = 0.10523220
#
# Stress axis : x y z
#
# Youngs Moduli (GPa) = 52.25979 28.70019 36.96084
#
# Poissons Ratio (x) = -0.17243 0.11811
# Poissons Ratio (y) = -0.31397 -0.34325
# Poissons Ratio (z) = 0.16700 -0.26654
#
# Static dielectric constant tensor:
#      x y z
#    x 1.688270 0.000000 0.000000 
#    y 0.000000 1.721130 0.000000 
#    z 0.000000 0.000000 1.765560 
# 
# From -- ./inp_files/71609.got.cif
#   From: 2010.05.17/outbox.cif.g08.bks.cpg/sg63_36_cif.got.tgz:71609.got - 2010.06.03 15:47:04.
