data_PCOD9471664
_publ_section_title
;
Structure prediction by ZEFSAII (Michael W. Deem and Ramdas Pophale) SiO2 
 PCOD9471664
Probable space group: C M C M
;
_chemical_formula_sum "Si O2"
_cell_formula_units_Z 84
_cell_length_a 19.760783
_cell_length_b 15.365552
_cell_length_c 13.767497
_cell_angle_alpha 90.000000
_cell_angle_beta 90.000000
_cell_angle_gamma 90.000000
_cell_volume 4180.298615
_symmetry_space_group_name_H-M "C M C M"
_symmetry_group_IT_number 63
_symmetry_cell_setting 'orthorhombic'
loop_
_space_group_symop_operation_xyz
x,y,z
-x,-y,1/2+z
x,-y,-z
-x,y,1/2-z
-x,-y,-z
x,y,1/2-z
-x,y,z
x,-y,1/2+z
1/2+x,1/2+y,z
1/2-x,1/2-y,1/2+z
1/2+x,1/2-y,-z
1/2-x,1/2+y,1/2-z
1/2-x,1/2-y,-z
1/2+x,1/2+y,1/2-z
1/2-x,1/2+y,z
1/2+x,1/2-y,1/2+z
loop_
_atom_site_type_symbol
_atom_site_label
_atom_site_fract_x
_atom_site_fract_y
_atom_site_fract_z
Si Si1 0.500000 0.094049 0.134031
Si Si2 0.500000 0.266600 0.750000
Si Si3 0.647574 0.095281 0.364138
Si Si4 0.622179 0.596231 0.250000
Si Si5 0.500000 0.242089 0.967345
Si Si6 0.921159 0.898050 0.250000
Si Si7 0.291084 0.583176 0.056213
Si Si8 0.631944 0.294382 0.433556
O O1 0.500000 0.124150 0.250000
O O2 0.426227 0.050863 0.120411
O O3 0.500000 0.167140 0.049853
O O4 0.434212 0.328899 0.750000
O O5 0.500000 0.216504 0.853676
O O6 0.661420 0.089993 0.250000
O O7 0.713310 0.063157 0.419587
O O8 0.640647 0.196660 0.394461
O O9 0.587345 0.501457 0.250000
O O10 0.669510 0.600376 0.344392
O O11 0.431741 0.294659 0.992320
O O12 0.887045 0.855437 0.156242
O O13 0.000000 0.873898 0.250000
O O14 0.320768 0.500000 0.000000
O O15 0.303494 0.665873 0.987446
#
# Coordination Sequence:
#
# PCOD9471664 Si02
#       8
#     8   4  16   8   8   8  16  16
#     4   8  18  36  62  90 113 138 189 254 303 346
#     4  12  22  36  52  78 124 176 200 220 278 352
#     4  10  20  37  61  87 113 142 193 248 300 347
#     4  12  24  37  51  79 122 164 196 229 272 344
#     4  10  20  31  55  83 115 154 192 234 288 335
#     4  12  22  33  58  89 117 149 197 244 280 336
#     4  12  24  38  56  79 118 159 194 235 293 351
#     4  11  21  35  57  86 114 149 196 246 288 340
#
# _framework density 20.094258
#
# number of rings (size 3 to 8) (size 9 to 14) (size 15 to 20)
#    0.000    1.143    7.143    0.571    1.333    0.000 
#    0.000    3.333    0.000    1.143    0.000    0.000 
#    0.000    0.000    0.000    0.000    0.000    0.000 
#
# Total GULP energy -234263.049928 kJ/mol
# GULP energy per Si atom -5577.691665 kJ/mol
# Density = 2.004852 g / cm^3
# Si number density = 20.094258 Si / 1000 Ang^3
#
#
#
# Elastic Constant Matrix: (Units=GPa)
#
#
# Indices 1 2 3 4 5 6 
#
# 1 111.2788 -12.3454 47.3733 0.0000 0.0000 0.0000
# 2 -12.3454 5.1460 3.2596 0.0000 0.0000 0.0000
# 3 47.3733 3.2596 134.2089 0.0000 0.0000 0.0000
# 4 0.0000 0.0000 0.0000 21.0892 0.0000 0.0000
# 5 0.0000 0.0000 0.0000 0.0000 -94.8649 0.0000
# 6 0.0000 0.0000 0.0000 0.0000 0.0000 17.6775
#
#
#
# Elastic Compliance Matrix: (Units=1/GPa)
#
#
# Indices 1 2 3 4 5 6 
#
# 1 0.017062 0.045446 -0.007126 0.000000 0.000000 0.000000
# 2 0.045446 0.318408 -0.023775 0.000000 0.000000 0.000000
# 3 -0.007126 -0.023775 0.010544 0.000000 0.000000 0.000000
# 4 0.000000 0.000000 0.000000 0.047418 0.000000 0.000000
# 5 0.000000 0.000000 0.000000 0.000000 -0.010541 0.000000
# 6 0.000000 0.000000 0.000000 0.000000 0.000000 0.056569
#
#
# Mechanical properties :
#
#
# Convention : Reuss Voigt Hill
#
# Bulk Modulus (GPa) = 2.66593 36.35652 19.51122
# Shear Modulus (GPa) = 9.33874 2.93679 6.13777
#
# Velocity S-wave (km/s) = 2.15814 1.21024 1.74961
# Velocity P-wave (km/s) = 2.74585 4.48165 3.71651
#
# Compressibility (1/GPa) = 0.37510340
#
# Stress axis : x y z
#
# Youngs Moduli (GPa) = 58.60957 3.14063 94.84105
#
# Poissons Ratio (x) = -0.14273 0.67587
# Poissons Ratio (y) = -2.66356 2.25482
# Poissons Ratio (z) = 0.41767 0.07467
#
# Static dielectric constant tensor:
#      x y z
#    x 1.749700 0.000000 0.000000 
#    y 0.000000 1.670310 0.000000 
#    z 0.000000 0.000000 1.689590 
# 
# From -- ./inp_files/21098.got.cif
#   From: 2010.05.17/outbox.cif.g08.bks.cpg/sg63_11_cif.got.tgz:21098.got - 2010.06.03 15:47:04.
