data_PCOD9471408
_publ_section_title
;
Structure prediction by ZEFSAII (Michael W. Deem and Ramdas Pophale) SiO2 
 PCOD9471408
Probable space group: C M C M
;
_chemical_formula_sum "Si O2"
_cell_formula_units_Z 96
_cell_length_a 8.582998
_cell_length_b 30.950545
_cell_length_c 19.726643
_cell_angle_alpha 90.000000
_cell_angle_beta 90.000000
_cell_angle_gamma 90.000000
_cell_volume 5240.352449
_symmetry_space_group_name_H-M "C M C M"
_symmetry_group_IT_number 63
_symmetry_cell_setting 'orthorhombic'
loop_
_space_group_symop_operation_xyz
x,y,z
-x,-y,1/2+z
x,-y,-z
-x,y,1/2-z
-x,-y,-z
x,y,1/2-z
-x,y,z
x,-y,1/2+z
1/2+x,1/2+y,z
1/2-x,1/2-y,1/2+z
1/2+x,1/2-y,-z
1/2-x,1/2+y,1/2-z
1/2-x,1/2-y,-z
1/2+x,1/2+y,1/2-z
1/2-x,1/2+y,z
1/2+x,1/2-y,1/2+z
loop_
_atom_site_type_symbol
_atom_site_label
_atom_site_fract_x
_atom_site_fract_y
_atom_site_fract_z
Si Si1 0.688155 0.811320 0.171982
Si Si2 0.813501 0.716392 0.328586
Si Si3 0.186665 0.617733 0.937263
Si Si4 0.310006 0.553425 0.327606
Si Si5 0.686851 0.362892 0.913988
Si Si6 0.688244 0.521632 0.571733
O O1 0.732946 0.820881 0.250000
O O2 0.500000 0.808445 0.169568
O O3 0.756697 0.764539 0.153912
O O4 0.739002 0.848464 0.120321
O O5 0.766323 0.708162 0.250000
O O6 0.741916 0.680476 0.377195
O O7 0.000000 0.714599 0.332269
O O8 0.245449 0.569483 0.922742
O O9 0.000000 0.617645 0.938254
O O10 0.247760 0.632195 0.010628
O O11 0.256451 0.554241 0.250000
O O12 0.500000 0.553660 0.326949
O O13 0.261084 0.595875 0.369098
O O14 0.262109 0.510666 0.368430
O O15 0.500000 0.363756 0.917178
O O16 0.733545 0.500000 0.500000
O O17 0.500000 0.524328 0.572086
#
# Coordination Sequence:
#
# PCOD9471408 Si02
#       6
#    16  16  16  16  16  16
#     4   9  20  40  61  80 108 149 193 233 278 341
#     4  10  21  37  58  86 118 148 184 235 288 334
#     4  11  23  37  57  85 114 146 187 236 290 339
#     4   9  18  33  55  82 109 142 188 234 271 323
#     4  11  21  36  58  83 114 153 193 231 278 341
#     4  10  19  36  57  79 109 146 186 227 277 339
#
# _framework density 18.319379000000001
#
# number of rings (size 3 to 8) (size 9 to 14) (size 15 to 20)
#    0.000    2.000    1.667    2.000    0.000    4.667 
#    0.000    0.000    0.000    2.000    0.000    0.000 
#    0.000    0.000    0.000    0.000    0.000    0.000 
#
# Total GULP energy -268074.375718 kJ/mol
# GULP energy per Si atom -5584.882827 kJ/mol
# Density = 1.827768 g / cm^3
# Si number density = 18.319379 Si / 1000 Ang^3
#
#
#
# Elastic Constant Matrix: (Units=GPa)
#
#
# Indices 1 2 3 4 5 6 
#
# 1 23.5310 37.7769 32.4275 0.0000 0.0000 0.0000
# 2 37.7769 193.4616 126.0351 0.0000 0.0000 0.0000
# 3 32.4275 126.0351 159.5305 0.0000 0.0000 0.0000
# 4 0.0000 0.0000 0.0000 40.7408 0.0000 0.0000
# 5 0.0000 0.0000 0.0000 0.0000 23.2646 0.0000
# 6 0.0000 0.0000 0.0000 0.0000 0.0000 29.8375
#
#
#
# Elastic Compliance Matrix: (Units=1/GPa)
#
#
# Indices 1 2 3 4 5 6 
#
# 1 0.065083 -0.008428 -0.006571 0.000000 0.000000 0.000000
# 2 -0.008428 0.011742 -0.007564 0.000000 0.000000 0.000000
# 3 -0.006571 -0.007564 0.013580 0.000000 0.000000 0.000000
# 4 0.000000 0.000000 0.000000 0.024545 0.000000 0.000000
# 5 0.000000 0.000000 0.000000 0.000000 0.042984 0.000000
# 6 0.000000 0.000000 0.000000 0.000000 0.000000 0.033515
#
#
# Mechanical properties :
#
#
# Convention : Reuss Voigt Hill
#
# Bulk Modulus (GPa) = 22.08501 85.44467 53.76484
# Shear Modulus (GPa) = 19.86757 30.78749 25.32753
#
# Velocity S-wave (km/s) = 3.29676 4.10396 3.72230
# Velocity P-wave (km/s) = 5.15493 8.31863 6.92000
#
# Compressibility (1/GPa) = 0.04527959
#
# Stress axis : x y z
#
# Youngs Moduli (GPa) = 15.36510 85.16299 73.63966
#
# Poissons Ratio (x) = 0.71773 0.48388
# Poissons Ratio (y) = 0.12949 0.55699
# Poissons Ratio (z) = 0.10096 0.64414
#
# Static dielectric constant tensor:
#      x y z
#    x 1.626990 0.000000 0.000000 
#    y 0.000000 1.595940 0.000000 
#    z 0.000000 0.000000 1.616710 
# 
# From -- ./inp_files/51353.got.cif
#   From: 2010.05.17/outbox.cif.g08.bks.cpg/sg63_26_cif.got.tgz:51353.got - 2010.06.03 15:47:04.
