data_PCOD9471266
_publ_section_title
;
Structure prediction by ZEFSAII (Michael W. Deem and Ramdas Pophale) SiO2 
 PCOD9471266
Probable space group: C M C M
;
_chemical_formula_sum "Si O2"
_cell_formula_units_Z 116
_cell_length_a 17.865463
_cell_length_b 22.454812
_cell_length_c 14.643178
_cell_angle_alpha 90.000000
_cell_angle_beta 90.000000
_cell_angle_gamma 90.000000
_cell_volume 5874.339478
_symmetry_space_group_name_H-M "C M C M"
_symmetry_group_IT_number 63
_symmetry_cell_setting 'orthorhombic'
loop_
_space_group_symop_operation_xyz
x,y,z
-x,-y,1/2+z
x,-y,-z
-x,y,1/2-z
-x,-y,-z
x,y,1/2-z
-x,y,z
x,-y,1/2+z
1/2+x,1/2+y,z
1/2-x,1/2-y,1/2+z
1/2+x,1/2-y,-z
1/2-x,1/2+y,1/2-z
1/2-x,1/2-y,-z
1/2+x,1/2+y,1/2-z
1/2-x,1/2+y,z
1/2+x,1/2-y,1/2+z
loop_
_atom_site_type_symbol
_atom_site_label
_atom_site_fract_x
_atom_site_fract_y
_atom_site_fract_z
Si Si1 0.837549 0.105205 0.854224
Si Si2 0.275817 0.520495 0.100861
Si Si3 0.881137 0.561659 0.114627
Si Si4 0.415263 0.724442 0.360264
Si Si5 0.915941 0.097240 0.041747
Si Si6 0.085164 0.425591 0.400198
Si Si7 0.197385 0.676490 0.854643
Si Si8 0.500000 0.890112 0.750000
O O1 0.861501 0.119118 0.750000
O O2 0.776759 0.153373 0.890889
O O3 0.795096 0.041368 0.850593
O O4 0.899193 0.100317 0.933258
O O5 0.207432 0.560308 0.136300
O O6 0.352184 0.556360 0.086311
O O7 0.249592 0.500000 0.000000
O O8 0.905952 0.493296 0.133778
O O9 0.933882 0.604261 0.171712
O O10 0.896709 0.573456 0.008092
O O11 0.408088 0.716432 0.250000
O O12 0.500000 0.748240 0.375668
O O13 0.410191 0.661868 0.411849
O O14 0.350994 0.769424 0.394331
O O15 0.000000 0.074381 0.057428
O O16 0.142637 0.380227 0.356251
O O17 0.000000 0.407016 0.384255
O O18 0.212950 0.692665 0.750000
#
# Coordination Sequence:
#
# PCOD9471266 Si02
#       8
#    16  16  16  16  16  16  16   4
#     4  10  21  35  54  86 119 151 189 237 289 359
#     4  10  19  35  57  78 114 151 192 244 294 345
#     4  11  20  33  46  75 113 155 192 226 273 335
#     4   9  19  38  59  86 116 141 188 251 300 348
#     4  10  22  40  62  85 112 155 200 248 307 352
#     4  11  18  30  48  74 110 150 184 222 280 337
#     4  10  20  33  57  87 115 144 184 237 293 349
#     4  12  24  30  48  76 116 164 196 224 258 356
#
# _framework density 19.746901000000001
#
# number of rings (size 3 to 8) (size 9 to 14) (size 15 to 20)
#    0.000    1.793    4.138    1.655    1.931    4.690 
#    0.000    0.000    0.000    0.000    1.793    0.000 
#    0.000    0.000    0.000    0.000    0.000    0.000 
#
# Total GULP energy -322968.932379 kJ/mol
# GULP energy per Si atom -5568.429869 kJ/mol
# Density = 1.970196 g / cm^3
# Si number density = 19.746901 Si / 1000 Ang^3
#
#
#
# Elastic Constant Matrix: (Units=GPa)
#
#
# Indices 1 2 3 4 5 6 
#
# 1 133.8913 19.9480 11.8422 0.0000 0.0000 0.0000
# 2 19.9480 38.7371 5.4205 0.0000 0.0000 0.0000
# 3 11.8422 5.4205 51.3235 0.0000 0.0000 0.0000
# 4 0.0000 0.0000 0.0000 16.2766 0.0000 0.0000
# 5 0.0000 0.0000 0.0000 0.0000 9.4299 0.0000
# 6 0.0000 0.0000 0.0000 0.0000 0.0000 26.7866
#
#
#
# Elastic Compliance Matrix: (Units=1/GPa)
#
#
# Indices 1 2 3 4 5 6 
#
# 1 0.008197 -0.004016 -0.001467 0.000000 0.000000 0.000000
# 2 -0.004016 0.028170 -0.002049 0.000000 0.000000 0.000000
# 3 -0.001467 -0.002049 0.020039 0.000000 0.000000 0.000000
# 4 0.000000 0.000000 0.000000 0.061438 0.000000 0.000000
# 5 0.000000 0.000000 0.000000 0.000000 0.106046 0.000000
# 6 0.000000 0.000000 0.000000 0.000000 0.000000 0.037332
#
#
# Mechanical properties :
#
#
# Convention : Reuss Voigt Hill
#
# Bulk Modulus (GPa) = 24.18809 33.15259 28.67034
# Shear Modulus (GPa) = 17.23750 22.94803 20.09276
#
# Velocity S-wave (km/s) = 2.95773 3.41267 3.19331
# Velocity P-wave (km/s) = 4.89284 5.68802 5.30535
#
# Compressibility (1/GPa) = 0.04134267
#
# Stress axis : x y z
#
# Youngs Moduli (GPa) = 121.99882 35.49920 49.90235
#
# Poissons Ratio (x) = 0.14255 0.07322
# Poissons Ratio (y) = 0.48991 0.10223
# Poissons Ratio (z) = 0.17899 0.07272
#
# Static dielectric constant tensor:
#      x y z
#    x 1.722670 0.000000 0.000000 
#    y 0.000000 1.690740 0.000000 
#    z 0.000000 0.000000 1.786370 
# 
# From -- ./inp_files/34415.got.cif
#   From: 2010.05.17/outbox.cif.g08.bks.cpg/sg63_18_cif.got.tgz:34415.got - 2010.06.03 15:47:04.
