data_PCOD9471313
_publ_section_title
;
Structure prediction by ZEFSAII (Michael W. Deem and Ramdas Pophale) SiO2 
 PCOD9471313
Probable space group: C M C M
;
_chemical_formula_sum "Si O2"
_cell_formula_units_Z 80
_cell_length_a 7.509224
_cell_length_b 18.490120
_cell_length_c 26.563060
_cell_angle_alpha 90.000000
_cell_angle_beta 90.000000
_cell_angle_gamma 90.000000
_cell_volume 3688.186658
_symmetry_space_group_name_H-M "C M C M"
_symmetry_group_IT_number 63
_symmetry_cell_setting 'orthorhombic'
loop_
_space_group_symop_operation_xyz
x,y,z
-x,-y,1/2+z
x,-y,-z
-x,y,1/2-z
-x,-y,-z
x,y,1/2-z
-x,y,z
x,-y,1/2+z
1/2+x,1/2+y,z
1/2-x,1/2-y,1/2+z
1/2+x,1/2-y,-z
1/2-x,1/2+y,1/2-z
1/2-x,1/2-y,-z
1/2+x,1/2+y,1/2-z
1/2-x,1/2+y,z
1/2+x,1/2-y,1/2+z
loop_
_atom_site_type_symbol
_atom_site_label
_atom_site_fract_x
_atom_site_fract_y
_atom_site_fract_z
Si Si1 0.286763 0.716332 0.250000
Si Si2 0.218310 0.702223 0.649551
Si Si3 0.786729 0.453925 0.750000
Si Si4 0.211326 0.953502 0.546636
Si Si5 0.713377 0.290233 0.552106
Si Si6 0.284949 0.035639 0.849890
O O1 0.500000 0.724507 0.250000
O O2 0.222087 0.755587 0.199476
O O3 0.249156 0.631267 0.250000
O O4 0.279167 0.744167 0.599663
O O5 0.275485 0.618804 0.649975
O O6 0.000000 0.701996 0.649443
O O7 0.719668 0.492510 0.800728
O O8 0.000000 0.462986 0.750000
O O9 0.284081 0.872129 0.550417
O O10 0.235162 0.995346 0.598849
O O11 0.000000 0.945826 0.537509
O O12 0.284932 0.000000 0.500000
O O13 0.500000 0.294476 0.558249
O O14 0.750000 0.250000 0.500000
O O15 0.500000 0.036739 0.847804
#
# Coordination Sequence:
#
# PCOD9471313 Si02
#       6
#     8  16   8  16  16  16
#     4  10  19  35  59  79 101 138 176 210 254 310
#     4   9  18  33  54  78 100 129 174 216 247 293
#     4  10  21  35  51  77 109 134 164 214 266 304
#     4  10  21  36  53  77 109 139 170 215 267 314
#     4  10  20  34  52  75 103 134 171 213 254 303
#     4  10  20  35  55  77 104 138 175 216 259 306
#
# _framework density 21.690875999999999
#
# number of rings (size 3 to 8) (size 9 to 14) (size 15 to 20)
#    0.000    2.200    0.000    3.000    0.000    6.000 
#    0.000    2.000    0.000    1.200    0.000    0.000 
#    0.000    0.000    0.000    0.000    0.000    0.000 
#
# Total GULP energy -223627.185243 kJ/mol
# GULP energy per Si atom -5590.679631 kJ/mol
# Density = 2.164151 g / cm^3
# Si number density = 21.690876 Si / 1000 Ang^3
#
#
#
# Elastic Constant Matrix: (Units=GPa)
#
#
# Indices 1 2 3 4 5 6 
#
# 1 50.9770 -6.8827 -14.8807 0.0000 0.0000 0.0000
# 2 -6.8827 255.3927 144.8181 0.0000 0.0000 0.0000
# 3 -14.8807 144.8181 232.2739 0.0000 0.0000 0.0000
# 4 0.0000 0.0000 0.0000 47.4358 0.0000 0.0000
# 5 0.0000 0.0000 0.0000 0.0000 26.5606 0.0000
# 6 0.0000 0.0000 0.0000 0.0000 0.0000 -1.7965
#
#
#
# Elastic Compliance Matrix: (Units=1/GPa)
#
#
# Indices 1 2 3 4 5 6 
#
# 1 0.020004 -0.000290 0.001463 0.000000 0.000000 0.000000
# 2 -0.000290 0.006061 -0.003798 0.000000 0.000000 0.000000
# 3 0.001463 -0.003798 0.006767 0.000000 0.000000 0.000000
# 4 0.000000 0.000000 0.000000 0.021081 0.000000 0.000000
# 5 0.000000 0.000000 0.000000 0.000000 0.037650 0.000000
# 6 0.000000 0.000000 0.000000 0.000000 0.000000 -0.556638
#
#
# Mechanical properties :
#
#
# Convention : Reuss Voigt Hill
#
# Bulk Modulus (GPa) = 36.25592 87.19477 61.72535
# Shear Modulus (GPa) = -11.09556 42.14589 15.52516
#
# Velocity S-wave (km/s) = -2.26416 4.41276 2.67825
# Velocity P-wave (km/s) = 3.14895 8.13937 6.17111
#
# Compressibility (1/GPa) = 0.02758170
#
# Stress axis : x y z
#
# Youngs Moduli (GPa) = 49.98893 164.98684 147.78338
#
# Poissons Ratio (x) = 0.04788 -0.21614
# Poissons Ratio (y) = 0.01451 0.56122
# Poissons Ratio (z) = -0.07311 0.62655
#
# Static dielectric constant tensor:
#      x y z
#    x 1.807020 0.000000 0.000000 
#    y 0.000000 1.749530 0.000000 
#    z 0.000000 0.000000 1.733460 
# 
# From -- ./inp_files/52480.got.cif
#   From: 2010.05.17/outbox.cif.g08.bks.cpg/sg63_27_cif.got.tgz:52480.got - 2010.06.03 15:47:04.
