data_PCOD9471999
_publ_section_title
;
Structure prediction by ZEFSAII (Michael W. Deem and Ramdas Pophale) SiO2 
 PCOD9471999
Probable space group: C M C M
;
_chemical_formula_sum "Si O2"
_cell_formula_units_Z 88
_cell_length_a 33.807764
_cell_length_b 5.716839
_cell_length_c 23.085551
_cell_angle_alpha 90.000000
_cell_angle_beta 90.000000
_cell_angle_gamma 90.000000
_cell_volume 4461.826251
_symmetry_space_group_name_H-M "C M C M"
_symmetry_group_IT_number 63
_symmetry_cell_setting 'orthorhombic'
loop_
_space_group_symop_operation_xyz
x,y,z
-x,-y,1/2+z
x,-y,-z
-x,y,1/2-z
-x,-y,-z
x,y,1/2-z
-x,y,z
x,-y,1/2+z
1/2+x,1/2+y,z
1/2-x,1/2-y,1/2+z
1/2+x,1/2-y,-z
1/2-x,1/2+y,1/2-z
1/2-x,1/2-y,-z
1/2+x,1/2+y,1/2-z
1/2-x,1/2+y,z
1/2+x,1/2-y,1/2+z
loop_
_atom_site_type_symbol
_atom_site_label
_atom_site_fract_x
_atom_site_fract_y
_atom_site_fract_z
Si Si1 0.455702 0.636583 0.076731
Si Si2 0.089713 0.500000 0.000000
Si Si3 0.110489 0.762068 0.108978
Si Si4 0.927124 0.385065 0.314248
Si Si5 0.232855 0.661198 0.819492
Si Si6 0.653167 0.587467 0.185063
O O1 0.500000 0.550522 0.066220
O O2 0.422834 0.440550 0.086636
O O3 0.455202 0.787922 0.135917
O O4 0.438901 0.802610 0.026535
O O5 0.115597 0.409593 0.945694
O O6 0.090756 0.626758 0.162675
O O7 0.148216 0.894796 0.135153
O O8 0.944058 0.402386 0.250000
O O9 0.889235 0.212996 0.312510
O O10 0.239828 0.651666 0.750000
O O11 0.245386 0.401798 0.840874
O O12 0.186760 0.722803 0.828172
O O13 0.661781 0.490601 0.250000
#
# Coordination Sequence:
#
# PCOD9471999 Si02
#       6
#    16   8  16  16  16  16
#     4  10  21  36  53  74 101 133 173 221 272 321
#     4  10  21  36  54  74  98 128 180 228 272 320
#     4  10  20  33  52  76 101 134 177 218 272 320
#     4   9  19  34  51  74 104 139 176 211 258 321
#     4   9  18  30  48  79 114 147 183 223 270 325
#     4   9  18  32  52  75 107 144 176 215 261 322
#
# _framework density 19.722866
#
# number of rings (size 3 to 8) (size 9 to 14) (size 15 to 20)
#    0.000    2.545    0.000    1.364    2.545    5.455 
#    0.000    0.000    0.000    0.000    0.000    1.273 
#    0.000    0.000    0.000    0.000    0.000    0.000 
#
# Total GULP energy -245216.851230 kJ/mol
# GULP energy per Si atom -5573.110255 kJ/mol
# Density = 1.967798 g / cm^3
# Si number density = 19.722866 Si / 1000 Ang^3
#
#
#
# Elastic Constant Matrix: (Units=GPa)
#
#
# Indices 1 2 3 4 5 6 
#
# 1 40.9900 -8.5507 2.0311 0.0000 0.0000 0.0000
# 2 -8.5507 46.0856 7.0694 0.0000 0.0000 0.0000
# 3 2.0311 7.0694 91.8915 0.0000 0.0000 0.0000
# 4 0.0000 0.0000 0.0000 32.1305 0.0000 0.0000
# 5 0.0000 0.0000 0.0000 0.0000 8.6807 0.0000
# 6 0.0000 0.0000 0.0000 0.0000 0.0000 13.7098
#
#
#
# Elastic Compliance Matrix: (Units=1/GPa)
#
#
# Indices 1 2 3 4 5 6 
#
# 1 0.025458 0.004867 -0.000937 0.000000 0.000000 0.000000
# 2 0.004867 0.022888 -0.001868 0.000000 0.000000 0.000000
# 3 -0.000937 -0.001868 0.011047 0.000000 0.000000 0.000000
# 4 0.000000 0.000000 0.000000 0.031123 0.000000 0.000000
# 5 0.000000 0.000000 0.000000 0.000000 0.115198 0.000000
# 6 0.000000 0.000000 0.000000 0.000000 0.000000 0.072940
#
#
# Mechanical properties :
#
#
# Convention : Reuss Voigt Hill
#
# Bulk Modulus (GPa) = 15.74392 20.00739 17.87566
# Shear Modulus (GPa) = 16.90882 22.79870 19.85376
#
# Velocity S-wave (km/s) = 2.93118 3.40362 3.17620
# Velocity P-wave (km/s) = 4.41086 5.06087 4.74700
#
# Compressibility (1/GPa) = 0.06351656
#
# Stress axis : x y z
#
# Youngs Moduli (GPa) = 39.28043 43.69018 90.52349
#
# Poissons Ratio (x) = -0.21265 0.08483
# Poissons Ratio (y) = -0.19119 0.16914
# Poissons Ratio (z) = 0.03681 0.08163
#
# Static dielectric constant tensor:
#      x y z
#    x 1.680230 0.000000 0.000000 
#    y 0.000000 1.763600 0.000000 
#    z 0.000000 0.000000 1.709140 
# 
# From -- ./inp_files/65703.got.cif
#   From: 2010.05.17/outbox.cif.g08.bks.cpg/sg63_33_cif.got.tgz:65703.got - 2010.06.03 15:47:04.
