data_PCOD9471682
_publ_section_title
;
Structure prediction by ZEFSAII (Michael W. Deem and Ramdas Pophale) SiO2 
 PCOD9471682
Probable space group: C M C M
;
_chemical_formula_sum "Si O2"
_cell_formula_units_Z 96
_cell_length_a 25.285147
_cell_length_b 25.303059
_cell_length_c 8.985701
_cell_angle_alpha 90.000000
_cell_angle_beta 90.000000
_cell_angle_gamma 90.000000
_cell_volume 5748.975718
_symmetry_space_group_name_H-M "C M C M"
_symmetry_group_IT_number 63
_symmetry_cell_setting 'orthorhombic'
loop_
_space_group_symop_operation_xyz
x,y,z
-x,-y,1/2+z
x,-y,-z
-x,y,1/2-z
-x,-y,-z
x,y,1/2-z
-x,y,z
x,-y,1/2+z
1/2+x,1/2+y,z
1/2-x,1/2-y,1/2+z
1/2+x,1/2-y,-z
1/2-x,1/2+y,1/2-z
1/2-x,1/2-y,-z
1/2+x,1/2+y,1/2-z
1/2-x,1/2+y,z
1/2+x,1/2-y,1/2+z
loop_
_atom_site_type_symbol
_atom_site_label
_atom_site_fract_x
_atom_site_fract_y
_atom_site_fract_z
Si Si1 0.602723 0.948682 0.417078
Si Si2 0.228757 0.447314 0.417828
Si Si3 0.559551 0.738352 0.427049
Si Si4 0.668914 0.732984 0.928121
Si Si5 0.264068 0.833308 0.928293
Si Si6 0.939131 0.349842 0.581686
O O1 0.581087 0.942319 0.250000
O O2 0.665665 0.955499 0.404873
O O3 0.593620 0.897543 0.516470
O O4 0.580438 0.000000 0.500000
O O5 0.249802 0.500000 0.500000
O O6 0.250336 0.442924 0.250000
O O7 0.234674 0.391894 0.503776
O O8 0.565038 0.732256 0.250000
O O9 0.500000 0.719409 0.469851
O O10 0.611304 0.717087 0.510727
O O11 0.561523 0.799755 0.474194
O O12 0.671100 0.727404 0.750000
O O13 0.686134 0.794126 0.963832
O O14 0.713452 0.697092 0.004945
O O15 0.260785 0.836474 0.750000
O O16 0.922689 0.334619 0.750000
O O17 0.000000 0.367766 0.588725
#
# Coordination Sequence:
#
# PCOD9471682 Si02
#       6
#    16  16  16  16  16  16
#     4  10  20  32  46  62  82 111 148 191 236 281
#     4  10  20  33  49  69  93 122 157 195 237 286
#     4  10  20  33  49  69  94 124 157 194 237 285
#     4  10  20  33  51  74 100 131 165 202 244 291
#     4  10  20  33  50  73 101 131 163 201 245 292
#     4  10  20  32  45  61  82 111 149 192 236 281
#
# _framework density 16.698626000000001
#
# number of rings (size 3 to 8) (size 9 to 14) (size 15 to 20)
#    0.000    2.000    0.000    4.000    0.000    9.000 
#    0.000    0.000    0.000    0.000    0.000    0.000 
#    0.000    0.667    0.000    2.500    0.000    3.833 
#
# Total GULP energy -267612.829171 kJ/mol
# GULP energy per Si atom -5575.267274 kJ/mol
# Density = 1.666062 g / cm^3
# Si number density = 16.698626 Si / 1000 Ang^3
#
#
#
# Elastic Constant Matrix: (Units=GPa)
#
#
# Indices 1 2 3 4 5 6 
#
# 1 71.5870 9.1172 29.8389 0.0000 0.0000 0.0000
# 2 9.1172 62.9280 35.3243 0.0000 0.0000 0.0000
# 3 29.8389 35.3243 91.8632 0.0000 0.0000 0.0000
# 4 0.0000 0.0000 0.0000 24.4377 0.0000 0.0000
# 5 0.0000 0.0000 0.0000 0.0000 25.6045 0.0000
# 6 0.0000 0.0000 0.0000 0.0000 0.0000 9.9535
#
#
#
# Elastic Compliance Matrix: (Units=1/GPa)
#
#
# Indices 1 2 3 4 5 6 
#
# 1 0.016186 0.000773 -0.005555 0.000000 0.000000 0.000000
# 2 0.000773 0.020303 -0.008058 0.000000 0.000000 0.000000
# 3 -0.005555 -0.008058 0.015789 0.000000 0.000000 0.000000
# 4 0.000000 0.000000 0.000000 0.040920 0.000000 0.000000
# 5 0.000000 0.000000 0.000000 0.000000 0.039056 0.000000
# 6 0.000000 0.000000 0.000000 0.000000 0.000000 0.100467
#
#
# Mechanical properties :
#
#
# Convention : Reuss Voigt Hill
#
# Bulk Modulus (GPa) = 37.59745 41.65987 39.62866
# Shear Modulus (GPa) = 18.70802 22.13902 20.42352
#
# Velocity S-wave (km/s) = 3.35077 3.64510 3.50103
# Velocity P-wave (km/s) = 6.12653 6.53590 6.33452
#
# Compressibility (1/GPa) = 0.02659755
#
# Stress axis : x y z
#
# Youngs Moduli (GPa) = 61.78222 49.25500 63.33676
#
# Poissons Ratio (x) = -0.03808 0.35182
# Poissons Ratio (y) = -0.04776 0.51037
# Poissons Ratio (z) = 0.34318 0.39690
#
# Static dielectric constant tensor:
#      x y z
#    x 1.594020 0.000000 0.000000 
#    y 0.000000 1.541180 0.000000 
#    z 0.000000 0.000000 1.586160 
# 
# From -- ./inp_files/10430.got.cif
#   From: 2010.05.17/outbox.cif.g08.bks.cpg/sg63_6_cif.got.tgz:10430.got - 2010.06.03 15:47:04.
