data_PCOD9471796
_publ_section_title
;
Structure prediction by ZEFSAII (Michael W. Deem and Ramdas Pophale) SiO2 
 PCOD9471796
Probable space group: C M C M
;
_chemical_formula_sum "Si O2"
_cell_formula_units_Z 88
_cell_length_a 23.161366
_cell_length_b 14.314043
_cell_length_c 14.883414
_cell_angle_alpha 90.000000
_cell_angle_beta 90.000000
_cell_angle_gamma 90.000000
_cell_volume 4934.339751
_symmetry_space_group_name_H-M "C M C M"
_symmetry_group_IT_number 63
_symmetry_cell_setting 'orthorhombic'
loop_
_space_group_symop_operation_xyz
x,y,z
-x,-y,1/2+z
x,-y,-z
-x,y,1/2-z
-x,-y,-z
x,y,1/2-z
-x,y,z
x,-y,1/2+z
1/2+x,1/2+y,z
1/2-x,1/2-y,1/2+z
1/2+x,1/2-y,-z
1/2-x,1/2+y,1/2-z
1/2-x,1/2-y,-z
1/2+x,1/2+y,1/2-z
1/2-x,1/2+y,z
1/2+x,1/2-y,1/2+z
loop_
_atom_site_type_symbol
_atom_site_label
_atom_site_fract_x
_atom_site_fract_y
_atom_site_fract_z
Si Si1 0.259265 0.844430 0.945984
Si Si2 0.679612 0.488037 0.750000
Si Si3 0.262572 0.705452 0.250000
Si Si4 0.805057 0.579729 0.750000
Si Si5 0.135047 0.578720 0.561060
Si Si6 0.865477 0.938124 0.921777
Si Si7 0.931399 0.753562 0.642350
O O1 0.270720 0.815403 0.842437
O O2 0.199244 0.902021 0.947651
O O3 0.250000 0.750000 0.000000
O O4 0.311206 0.894519 0.996647
O O5 0.688815 0.375364 0.750000
O O6 0.742611 0.531545 0.750000
O O7 0.644838 0.507957 0.661128
O O8 0.290499 0.808541 0.250000
O O9 0.838350 0.551559 0.841195
O O10 0.104129 0.500000 0.500000
O O11 0.096831 0.668466 0.586845
O O12 0.902639 0.849293 0.892203
O O13 0.891498 0.000000 0.000000
O O14 0.921067 0.741049 0.750000
O O15 0.000000 0.755927 0.629697
#
# Coordination Sequence:
#
# PCOD9471796 Si02
#       7
#    16   8   8   8  16  16  16
#     4  11  19  33  56  88 128 165 194 238 306 381
#     4  10  20  32  50  85 124 157 190 228 289 359
#     4  10  20  32  50  76 126 170 200 226 276 360
#     4  12  20  34  54  83 126 163 190 234 297 369
#     4  12  23  37  61  92 122 157 202 253 311 371
#     4  11  21  36  59  91 121 157 199 245 300 364
#     4  11  24  45  67  84 112 162 218 262 297 349
#
# _framework density 17.834199000000002
#
# number of rings (size 3 to 8) (size 9 to 14) (size 15 to 20)
#    0.000    0.909    5.455    4.909    0.000    0.727 
#    0.000    0.000    0.000    0.000    0.000    2.545 
#    0.000    0.000    0.000    0.000    0.000    0.000 
#
# Total GULP energy -245478.973639 kJ/mol
# GULP energy per Si atom -5579.067583 kJ/mol
# Density = 1.779361 g / cm^3
# Si number density = 17.834199 Si / 1000 Ang^3
#
#
#
# Elastic Constant Matrix: (Units=GPa)
#
#
# Indices 1 2 3 4 5 6 
#
# 1 94.8529 32.1196 38.1573 0.0000 0.0000 0.0000
# 2 32.1196 78.6455 43.3453 0.0000 0.0000 0.0000
# 3 38.1573 43.3453 159.7690 0.0000 0.0000 0.0000
# 4 0.0000 0.0000 0.0000 35.9285 0.0000 0.0000
# 5 0.0000 0.0000 0.0000 0.0000 20.2837 0.0000
# 6 0.0000 0.0000 0.0000 0.0000 0.0000 3.7559
#
#
#
# Elastic Compliance Matrix: (Units=1/GPa)
#
#
# Indices 1 2 3 4 5 6 
#
# 1 0.012714 -0.004138 -0.001914 0.000000 0.000000 0.000000
# 2 -0.004138 0.016297 -0.003433 0.000000 0.000000 0.000000
# 3 -0.001914 -0.003433 0.007648 0.000000 0.000000 0.000000
# 4 0.000000 0.000000 0.000000 0.027833 0.000000 0.000000
# 5 0.000000 0.000000 0.000000 0.000000 0.049301 0.000000
# 6 0.000000 0.000000 0.000000 0.000000 0.000000 0.266250
#
#
# Mechanical properties :
#
#
# Convention : Reuss Voigt Hill
#
# Bulk Modulus (GPa) = 56.53185 62.27905 59.40545
# Shear Modulus (GPa) = 12.34848 26.63664 19.49256
#
# Velocity S-wave (km/s) = 2.63421 3.86887 3.30962
# Velocity P-wave (km/s) = 6.40465 7.41313 6.92726
#
# Compressibility (1/GPa) = 0.01768914
#
# Stress axis : x y z
#
# Youngs Moduli (GPa) = 78.65579 61.35959 130.76042
#
# Poissons Ratio (x) = 0.25388 0.25026
# Poissons Ratio (y) = 0.32544 0.44894
# Poissons Ratio (z) = 0.15054 0.21067
#
# Static dielectric constant tensor:
#      x y z
#    x 1.598090 0.000000 0.000000 
#    y 0.000000 1.663210 0.000000 
#    z 0.000000 0.000000 1.685150 
# 
# From -- ./inp_files/35247.got.cif
#   From: 2010.05.17/outbox.cif.g08.bks.cpg/sg63_18_cif.got.tgz:35247.got - 2010.06.03 15:47:04.
