data_PCOD9471696
_publ_section_title
;
Structure prediction by ZEFSAII (Michael W. Deem and Ramdas Pophale) SiO2 
 PCOD9471696
Probable space group: C M C M
;
_chemical_formula_sum "Si O2"
_cell_formula_units_Z 96
_cell_length_a 8.464410
_cell_length_b 28.437489
_cell_length_c 24.684711
_cell_angle_alpha 90.000000
_cell_angle_beta 90.000000
_cell_angle_gamma 90.000000
_cell_volume 5941.772024
_symmetry_space_group_name_H-M "C M C M"
_symmetry_group_IT_number 63
_symmetry_cell_setting 'orthorhombic'
loop_
_space_group_symop_operation_xyz
x,y,z
-x,-y,1/2+z
x,-y,-z
-x,y,1/2-z
-x,-y,-z
x,y,1/2-z
-x,y,z
x,-y,1/2+z
1/2+x,1/2+y,z
1/2-x,1/2-y,1/2+z
1/2+x,1/2-y,-z
1/2-x,1/2+y,1/2-z
1/2-x,1/2-y,-z
1/2+x,1/2+y,1/2-z
1/2-x,1/2+y,z
1/2+x,1/2-y,1/2+z
loop_
_atom_site_type_symbol
_atom_site_label
_atom_site_fract_x
_atom_site_fract_y
_atom_site_fract_z
Si Si1 0.807265 0.927666 0.189020
Si Si2 0.807448 0.018121 0.584136
Si Si3 0.190566 0.180896 0.688556
Si Si4 0.811266 0.321425 0.976537
Si Si5 0.690724 0.426151 0.523576
Si Si6 0.311268 0.232894 0.584026
O O1 0.756883 0.940344 0.250000
O O2 0.751785 0.961792 0.141391
O O3 0.761092 0.873449 0.178401
O O4 0.000000 0.928383 0.188730
O O5 0.761905 0.053102 0.535204
O O6 0.000000 0.017811 0.584920
O O7 0.758084 0.965660 0.567051
O O8 0.240523 0.193270 0.750000
O O9 0.253177 0.214045 0.641472
O O10 0.000000 0.181955 0.687437
O O11 0.754873 0.374302 0.967700
O O12 0.748937 0.284418 0.932426
O O13 0.000000 0.320104 0.976229
O O14 0.755550 0.301771 0.035311
O O15 0.500000 0.424294 0.524330
O O16 0.500000 0.233161 0.583561
#
# Coordination Sequence:
#
# PCOD9471696 Si02
#       6
#    16  16  16  16  16  16
#     4   8  13  22  39  64  91 116 142 174 213 258
#     4   8  14  24  40  63  88 115 147 180 215 258
#     4   9  17  29  47  71  96 121 148 180 221 267
#     4  10  20  32  46  66  91 118 150 189 232 274
#     4   9  16  27  44  64  87 116 148 182 220 263
#     4  10  20  32  47  67  90 118 151 187 227 271
#
# _framework density 16.156797000000001
#
# number of rings (size 3 to 8) (size 9 to 14) (size 15 to 20)
#    0.000    3.000    0.000    4.000    0.000    3.667 
#    0.000    1.667    0.000    2.000    0.000    2.333 
#    0.000    0.000    0.000    0.000    0.000    0.000 
#
# Total GULP energy -267458.417721 kJ/mol
# GULP energy per Si atom -5572.050369 kJ/mol
# Density = 1.612002 g / cm^3
# Si number density = 16.156797 Si / 1000 Ang^3
#
#
#
# Elastic Constant Matrix: (Units=GPa)
#
#
# Indices 1 2 3 4 5 6 
#
# 1 14.3116 24.5666 24.0644 0.0000 0.0000 0.0000
# 2 24.5666 152.6965 104.2597 0.0000 0.0000 0.0000
# 3 24.0644 104.2597 146.1226 0.0000 0.0000 0.0000
# 4 0.0000 0.0000 0.0000 25.4315 0.0000 0.0000
# 5 0.0000 0.0000 0.0000 0.0000 15.2257 0.0000
# 6 0.0000 0.0000 0.0000 0.0000 0.0000 22.3395
#
#
#
# Elastic Compliance Matrix: (Units=1/GPa)
#
#
# Indices 1 2 3 4 5 6 
#
# 1 0.103628 -0.009788 -0.010082 0.000000 0.000000 0.000000
# 2 -0.009788 0.013695 -0.008159 0.000000 0.000000 0.000000
# 3 -0.010082 -0.008159 0.014326 0.000000 0.000000 0.000000
# 4 0.000000 0.000000 0.000000 0.039321 0.000000 0.000000
# 5 0.000000 0.000000 0.000000 0.000000 0.065678 0.000000
# 6 0.000000 0.000000 0.000000 0.000000 0.000000 0.044764
#
#
# Mechanical properties :
#
#
# Convention : Reuss Voigt Hill
#
# Bulk Modulus (GPa) = 13.22938 68.76802 40.99870
# Shear Modulus (GPa) = 13.78668 23.28200 18.53434
#
# Velocity S-wave (km/s) = 2.92431 3.80017 3.39064
# Velocity P-wave (km/s) = 4.42809 7.86832 6.38429
#
# Compressibility (1/GPa) = 0.07558936
#
# Stress axis : x y z
#
# Youngs Moduli (GPa) = 9.64986 73.01979 69.80406
#
# Poissons Ratio (x) = 0.71474 0.70378
# Poissons Ratio (y) = 0.09446 0.56956
# Poissons Ratio (z) = 0.09729 0.59580
#
# Static dielectric constant tensor:
#      x y z
#    x 1.554130 0.000000 0.000000 
#    y 0.000000 1.521480 0.000000 
#    z 0.000000 0.000000 1.543890 
# 
# From -- ./inp_files/59879.got.cif
#   From: 2010.05.17/outbox.cif.g08.bks.cpg/sg63_30_cif.got.tgz:59879.got - 2010.06.03 15:47:04.
