data_PCOD9471541
_publ_section_title
;
Structure prediction by ZEFSAII (Michael W. Deem and Ramdas Pophale) SiO2 
 PCOD9471541
Probable space group: C M C M
;
_chemical_formula_sum "Si O2"
_cell_formula_units_Z 80
_cell_length_a 24.788298
_cell_length_b 9.661510
_cell_length_c 18.534696
_cell_angle_alpha 90.000000
_cell_angle_beta 90.000000
_cell_angle_gamma 90.000000
_cell_volume 4438.918625
_symmetry_space_group_name_H-M "C M C M"
_symmetry_group_IT_number 63
_symmetry_cell_setting 'orthorhombic'
loop_
_space_group_symop_operation_xyz
x,y,z
-x,-y,1/2+z
x,-y,-z
-x,y,1/2-z
-x,-y,-z
x,y,1/2-z
-x,y,z
x,-y,1/2+z
1/2+x,1/2+y,z
1/2-x,1/2-y,1/2+z
1/2+x,1/2-y,-z
1/2-x,1/2+y,1/2-z
1/2-x,1/2-y,-z
1/2+x,1/2+y,1/2-z
1/2-x,1/2+y,z
1/2+x,1/2-y,1/2+z
loop_
_atom_site_type_symbol
_atom_site_label
_atom_site_fract_x
_atom_site_fract_y
_atom_site_fract_z
Si Si1 0.216700 0.438275 0.579176
Si Si2 0.410965 0.797270 0.166565
Si Si3 0.089440 0.571623 0.076427
Si Si4 0.284009 0.216410 0.834655
Si Si5 0.500000 0.613491 0.094523
Si Si6 0.500000 0.300825 0.073235
O O1 0.231053 0.500000 0.500000
O O2 0.153414 0.396251 0.575211
O O3 0.252055 0.313543 0.609896
O O4 0.223415 0.560096 0.637750
O O5 0.425100 0.799192 0.250000
O O6 0.348100 0.758740 0.158880
O O7 0.447724 0.686986 0.126888
O O8 0.419465 0.950183 0.134193
O O9 0.051977 0.704441 0.087948
O O10 0.075382 0.500000 0.000000
O O11 0.268603 0.233422 0.750000
O O12 0.500000 0.450135 0.111030
O O13 0.500000 0.653778 0.010408
#
# Coordination Sequence:
#
# PCOD9471541 Si02
#       6
#    16  16  16  16   8   8
#     4  10  21  36  58  87 116 148 192 240 279 331
#     4  10  21  38  59  82 113 154 191 228 282 344
#     4  10  19  37  62  85 112 146 193 236 279 334
#     4  10  21  38  58  84 116 153 189 230 288 346
#     4  11  22  37  55  86 115 148 184 234 288 344
#     4  11  22  36  58  85 114 144 187 237 289 330
#
# _framework density 18.022407000000001
#
# number of rings (size 3 to 8) (size 9 to 14) (size 15 to 20)
#    0.000    1.800    2.000    2.400    0.000    2.400 
#    3.600    2.000    0.000    0.000    0.000    0.000 
#    0.000    0.000    0.000    0.000    0.000    0.000 
#
# Total GULP energy -223232.877434 kJ/mol
# GULP energy per Si atom -5580.821936 kJ/mol
# Density = 1.798139 g / cm^3
# Si number density = 18.022407 Si / 1000 Ang^3
#
#
#
# Elastic Constant Matrix: (Units=GPa)
#
#
# Indices 1 2 3 4 5 6 
#
# 1 56.3600 58.4988 28.0376 0.0000 0.0000 0.0000
# 2 58.4988 103.4312 24.0428 0.0000 0.0000 0.0000
# 3 28.0376 24.0428 69.4217 0.0000 0.0000 0.0000
# 4 0.0000 0.0000 0.0000 24.2882 0.0000 0.0000
# 5 0.0000 0.0000 0.0000 0.0000 30.0093 0.0000
# 6 0.0000 0.0000 0.0000 0.0000 0.0000 19.4535
#
#
#
# Elastic Compliance Matrix: (Units=1/GPa)
#
#
# Indices 1 2 3 4 5 6 
#
# 1 0.049980 -0.025640 -0.011306 0.000000 0.000000 0.000000
# 2 -0.025640 0.023668 0.002158 0.000000 0.000000 0.000000
# 3 -0.011306 0.002158 0.018223 0.000000 0.000000 0.000000
# 4 0.000000 0.000000 0.000000 0.041172 0.000000 0.000000
# 5 0.000000 0.000000 0.000000 0.000000 0.033323 0.000000
# 6 0.000000 0.000000 0.000000 0.000000 0.000000 0.051405
#
#
# Mechanical properties :
#
#
# Convention : Reuss Voigt Hill
#
# Bulk Modulus (GPa) = 44.84941 50.04126 47.44533
# Shear Modulus (GPa) = 16.96187 22.65912 19.81049
#
# Velocity S-wave (km/s) = 3.07115 3.54965 3.31904
# Velocity P-wave (km/s) = 6.12498 6.68030 6.40866
#
# Compressibility (1/GPa) = 0.02229684
#
# Stress axis : x y z
#
# Youngs Moduli (GPa) = 20.00784 42.25108 54.87455
#
# Poissons Ratio (x) = 1.08331 0.62041
# Poissons Ratio (y) = 0.51300 -0.11844
# Poissons Ratio (z) = 0.22621 -0.09119
#
# Static dielectric constant tensor:
#      x y z
#    x 1.619300 0.000000 0.000000 
#    y 0.000000 1.613660 0.000000 
#    z 0.000000 0.000000 1.619560 
# 
# From -- ./inp_files/57252.got.cif
#   From: 2010.05.17/outbox.cif.g08.bks.cpg/sg63_29_cif.got.tgz:57252.got - 2010.06.03 15:47:04.
