data_PCOD9471977
_publ_section_title
;
Structure prediction by ZEFSAII (Michael W. Deem and Ramdas Pophale) SiO2 
 PCOD9471977
Probable space group: C M C M
;
_chemical_formula_sum "Si O2"
_cell_formula_units_Z 96
_cell_length_a 8.477052
_cell_length_b 20.659133
_cell_length_c 31.047178
_cell_angle_alpha 90.000000
_cell_angle_beta 90.000000
_cell_angle_gamma 90.000000
_cell_volume 5437.247101
_symmetry_space_group_name_H-M "C M C M"
_symmetry_group_IT_number 63
_symmetry_cell_setting 'orthorhombic'
loop_
_space_group_symop_operation_xyz
x,y,z
-x,-y,1/2+z
x,-y,-z
-x,y,1/2-z
-x,-y,-z
x,y,1/2-z
-x,y,z
x,-y,1/2+z
1/2+x,1/2+y,z
1/2-x,1/2-y,1/2+z
1/2+x,1/2-y,-z
1/2-x,1/2+y,1/2-z
1/2-x,1/2-y,-z
1/2+x,1/2+y,1/2-z
1/2-x,1/2+y,z
1/2+x,1/2-y,1/2+z
loop_
_atom_site_type_symbol
_atom_site_label
_atom_site_fract_x
_atom_site_fract_y
_atom_site_fract_z
Si Si1 0.307523 0.696796 0.700994
Si Si2 0.189096 0.053268 0.465432
Si Si3 0.811050 0.697403 0.466547
Si Si4 0.690485 0.451563 0.200629
Si Si5 0.311180 0.051569 0.369723
Si Si6 0.692107 0.800910 0.631665
O O1 0.259163 0.712440 0.750000
O O2 0.500000 0.697675 0.700558
O O3 0.260856 0.622741 0.691410
O O4 0.251109 0.748576 0.666131
O O5 0.251950 0.124907 0.476127
O O6 0.244741 0.036582 0.417155
O O7 0.000000 0.055095 0.466027
O O8 0.243211 0.000000 0.500000
O O9 0.750000 0.750000 0.500000
O O10 0.759453 0.713342 0.417489
O O11 0.000000 0.696884 0.467121
O O12 0.737907 0.466658 0.250000
O O13 0.500000 0.453559 0.199067
O O14 0.756628 0.501236 0.166088
O O15 0.500000 0.051450 0.372512
O O16 0.260195 0.125196 0.358514
O O17 0.500000 0.799412 0.632534
#
# Coordination Sequence:
#
# PCOD9471977 Si02
#       6
#    16  16  16  16  16  16
#     4   8  14  27  48  71  94 123 162 204 241 283
#     4  10  21  37  56  76 100 135 177 218 263 317
#     4  10  20  34  52  76 107 138 171 213 259 310
#     4   9  18  32  50  73 101 134 171 209 249 297
#     4  10  20  33  51  76 104 133 165 208 262 313
#     4   8  16  30  47  70  98 126 160 203 247 294
#
# _framework density 17.655994
#
# number of rings (size 3 to 8) (size 9 to 14) (size 15 to 20)
#    0.000    2.833    0.000    3.500    0.000    3.667 
#    0.000    5.000    0.000    5.000    0.000    0.000 
#    0.000    0.000    0.000    0.000    0.000    0.000 
#
# Total GULP energy -267631.288342 kJ/mol
# GULP energy per Si atom -5575.651840 kJ/mol
# Density = 1.761581 g / cm^3
# Si number density = 17.655994 Si / 1000 Ang^3
#
#
#
# Elastic Constant Matrix: (Units=GPa)
#
#
# Indices 1 2 3 4 5 6 
#
# 1 28.6388 30.9851 31.9216 0.0000 0.0000 0.0000
# 2 30.9851 157.6629 148.4037 0.0000 0.0000 0.0000
# 3 31.9216 148.4037 164.0011 0.0000 0.0000 0.0000
# 4 0.0000 0.0000 0.0000 44.8647 0.0000 0.0000
# 5 0.0000 0.0000 0.0000 0.0000 21.8808 0.0000
# 6 0.0000 0.0000 0.0000 0.0000 0.0000 24.5929
#
#
#
# Elastic Compliance Matrix: (Units=1/GPa)
#
#
# Indices 1 2 3 4 5 6 
#
# 1 0.044970 -0.004039 -0.005098 0.000000 0.000000 0.000000
# 2 -0.004039 0.043147 -0.038257 0.000000 0.000000 0.000000
# 3 -0.005098 -0.038257 0.041709 0.000000 0.000000 0.000000
# 4 0.000000 0.000000 0.000000 0.022289 0.000000 0.000000
# 5 0.000000 0.000000 0.000000 0.000000 0.045702 0.000000
# 6 0.000000 0.000000 0.000000 0.000000 0.000000 0.040662
#
#
# Mechanical properties :
#
#
# Convention : Reuss Voigt Hill
#
# Bulk Modulus (GPa) = 28.54148 85.88040 57.21094
# Shear Modulus (GPa) = 14.49496 27.53384 21.01440
#
# Velocity S-wave (km/s) = 2.86836 3.95329 3.45369
# Velocity P-wave (km/s) = 5.21252 8.34173 6.95539
#
# Compressibility (1/GPa) = 0.03503673
#
# Stress axis : x y z
#
# Youngs Moduli (GPa) = 22.23694 23.17656 23.97583
#
# Poissons Ratio (x) = 0.09362 0.12223
# Poissons Ratio (y) = 0.08982 0.91725
# Poissons Ratio (z) = 0.11336 0.88667
#
# Static dielectric constant tensor:
#      x y z
#    x 1.608550 0.000000 0.000000 
#    y 0.000000 1.587680 0.000000 
#    z 0.000000 0.000000 1.587340 
# 
# From -- ./inp_files/66962.got.cif
#   From: 2010.05.17/outbox.cif.g08.bks.cpg/sg63_34_cif.got.tgz:66962.got - 2010.06.03 15:47:04.
