data_PCOD9471099
_publ_section_title
;
Structure prediction by ZEFSAII (Michael W. Deem and Ramdas Pophale) SiO2 
 PCOD9471099
Probable space group: C M C M
;
_chemical_formula_sum "Si O2"
_cell_formula_units_Z 88
_cell_length_a 14.732295
_cell_length_b 14.997253
_cell_length_c 22.311859
_cell_angle_alpha 90.000000
_cell_angle_beta 90.000000
_cell_angle_gamma 90.000000
_cell_volume 4929.670379
_symmetry_space_group_name_H-M "C M C M"
_symmetry_group_IT_number 63
_symmetry_cell_setting 'orthorhombic'
loop_
_space_group_symop_operation_xyz
x,y,z
-x,-y,1/2+z
x,-y,-z
-x,y,1/2-z
-x,-y,-z
x,y,1/2-z
-x,y,z
x,-y,1/2+z
1/2+x,1/2+y,z
1/2-x,1/2-y,1/2+z
1/2+x,1/2-y,-z
1/2-x,1/2+y,1/2-z
1/2-x,1/2-y,-z
1/2+x,1/2+y,1/2-z
1/2-x,1/2+y,z
1/2+x,1/2-y,1/2+z
loop_
_atom_site_type_symbol
_atom_site_label
_atom_site_fract_x
_atom_site_fract_y
_atom_site_fract_z
Si Si1 0.897788 0.094533 0.029229
Si Si2 0.259816 0.883467 0.624014
Si Si3 0.742233 0.913676 0.348559
Si Si4 0.672856 0.650617 0.250000
Si Si5 0.395592 0.154931 0.750000
Si Si6 0.106468 0.047517 0.750000
Si Si7 0.314146 0.724447 0.555346
O O1 0.830747 0.119269 0.082971
O O2 0.000000 0.084553 0.051736
O O3 0.892807 0.168576 0.976952
O O4 0.869461 0.000000 0.000000
O O5 0.234942 0.851255 0.690629
O O6 0.329503 0.815045 0.592755
O O7 0.282830 0.987768 0.628137
O O8 0.660780 0.880263 0.306865
O O9 0.833788 0.921377 0.307503
O O10 0.762927 0.844230 0.400865
O O11 0.612790 0.738410 0.250000
O O12 0.615345 0.559766 0.250000
O O13 0.500000 0.126944 0.750000
O O14 0.000000 0.073435 0.750000
O O15 0.250000 0.750000 0.500000
#
# Coordination Sequence:
#
# PCOD9471099 Si02
#       7
#    16  16  16   8   8   8  16
#     4  10  20  34  55  85 116 146 180 228 285 343
#     4  10  20  36  59  80 112 149 186 231 282 342
#     4  10  20  37  55  80 113 147 187 228 282 337
#     4  10  19  34  56  86 109 140 189 240 286 338
#     4  11  22  37  56  80 111 150 194 239 277 325
#     4   9  20  33  54  84 113 142 176 225 289 349
#     4  10  20  35  55  79 108 146 186 221 272 332
#
# _framework density 17.851092000000001
#
# number of rings (size 3 to 8) (size 9 to 14) (size 15 to 20)
#    0.000    2.000    3.636    0.818    0.000    4.364 
#    0.000    0.909    0.000    1.091    0.000    5.091 
#    0.000    0.000    0.000    0.000    0.000    0.000 
#
# Total GULP energy -245223.454467 kJ/mol
# GULP energy per Si atom -5573.260329 kJ/mol
# Density = 1.781046 g / cm^3
# Si number density = 17.851092 Si / 1000 Ang^3
#
#
#
# Elastic Constant Matrix: (Units=GPa)
#
#
# Indices 1 2 3 4 5 6 
#
# 1 71.0692 26.4905 26.8699 0.0000 0.0000 0.0000
# 2 26.4905 106.5425 51.1250 0.0000 0.0000 0.0000
# 3 26.8699 51.1250 107.6605 0.0000 0.0000 0.0000
# 4 0.0000 0.0000 0.0000 39.7143 0.0000 0.0000
# 5 0.0000 0.0000 0.0000 0.0000 11.2716 0.0000
# 6 0.0000 0.0000 0.0000 0.0000 0.0000 10.8873
#
#
#
# Elastic Compliance Matrix: (Units=1/GPa)
#
#
# Indices 1 2 3 4 5 6 
#
# 1 0.016111 -0.002689 -0.002744 0.000000 0.000000 0.000000
# 2 -0.002689 0.012605 -0.005315 0.000000 0.000000 0.000000
# 3 -0.002744 -0.005315 0.012497 0.000000 0.000000 0.000000
# 4 0.000000 0.000000 0.000000 0.025180 0.000000 0.000000
# 5 0.000000 0.000000 0.000000 0.000000 0.088718 0.000000
# 6 0.000000 0.000000 0.000000 0.000000 0.000000 0.091850
#
#
# Mechanical properties :
#
#
# Convention : Reuss Voigt Hill
#
# Bulk Modulus (GPa) = 50.71673 54.91588 52.81631
# Shear Modulus (GPa) = 18.17999 24.42711 21.30355
#
# Velocity S-wave (km/s) = 3.19474 3.70318 3.45831
# Velocity P-wave (km/s) = 6.48700 7.00820 6.75263
#
# Compressibility (1/GPa) = 0.01971736
#
# Stress axis : x y z
#
# Youngs Moduli (GPa) = 62.07129 79.33544 80.01923
#
# Poissons Ratio (x) = 0.21333 0.21957
# Poissons Ratio (y) = 0.16691 0.42526
# Poissons Ratio (z) = 0.17032 0.42163
#
# Static dielectric constant tensor:
#      x y z
#    x 1.561850 0.000000 0.000000 
#    y 0.000000 1.648150 0.000000 
#    z 0.000000 0.000000 1.621970 
# 
# From -- ./inp_files/62867.got.cif
#   From: 2010.05.17/outbox.cif.g08.bks.cpg/sg63_32_cif.got.tgz:62867.got - 2010.06.03 15:47:04.
