data_PCOD9471609
_publ_section_title
;
Structure prediction by ZEFSAII (Michael W. Deem and Ramdas Pophale) SiO2 
 PCOD9471609
Probable space group: C M C M
;
_chemical_formula_sum "Si O2"
_cell_formula_units_Z 96
_cell_length_a 15.289777
_cell_length_b 11.883012
_cell_length_c 27.473353
_cell_angle_alpha 90.000000
_cell_angle_beta 90.000000
_cell_angle_gamma 90.000000
_cell_volume 4991.595142
_symmetry_space_group_name_H-M "C M C M"
_symmetry_group_IT_number 63
_symmetry_cell_setting 'orthorhombic'
loop_
_space_group_symop_operation_xyz
x,y,z
-x,-y,1/2+z
x,-y,-z
-x,y,1/2-z
-x,-y,-z
x,y,1/2-z
-x,y,z
x,-y,1/2+z
1/2+x,1/2+y,z
1/2-x,1/2-y,1/2+z
1/2+x,1/2-y,-z
1/2-x,1/2+y,1/2-z
1/2-x,1/2-y,-z
1/2+x,1/2+y,1/2-z
1/2-x,1/2+y,z
1/2+x,1/2-y,1/2+z
loop_
_atom_site_type_symbol
_atom_site_label
_atom_site_fract_x
_atom_site_fract_y
_atom_site_fract_z
Si Si1 0.142488 0.570439 0.302844
Si Si2 0.605250 0.862312 0.358711
Si Si3 0.402836 0.230147 0.115151
Si Si4 0.603146 0.393864 0.304738
Si Si5 0.393188 0.970755 0.554586
Si Si6 0.657687 0.648072 0.195203
O O1 0.105267 0.590749 0.250000
O O2 0.142977 0.439790 0.315578
O O3 0.089660 0.633324 0.344030
O O4 0.239856 0.619283 0.304926
O O5 0.500000 0.864162 0.356827
O O6 0.635264 0.736721 0.346554
O O7 0.631976 0.928860 0.407998
O O8 0.500000 0.268317 0.099243
O O9 0.359728 0.329186 0.147687
O O10 0.361521 0.153505 0.072447
O O11 0.639120 0.366385 0.250000
O O12 0.500000 0.364914 0.303626
O O13 0.612237 0.527118 0.311257
O O14 0.500000 0.964722 0.555526
O O15 0.365917 0.000000 0.500000
O O16 0.633878 0.689113 0.250000
#
# Coordination Sequence:
#
# PCOD9471609 Si02
#       6
#    16  16  16  16  16  16
#     4  10  20  30  45  70 101 131 163 203 244 288
#     4  10  20  34  53  75  98 131 174 213 251 298
#     4   9  17  29  48  72  94 124 164 202 244 294
#     4   9  17  29  45  66  96 132 166 198 234 287
#     4   8  15  30  53  78  98 120 161 216 264 300
#     4  10  21  32  46  70 103 139 169 197 240 296
#
# _framework density 19.232329
#
# number of rings (size 3 to 8) (size 9 to 14) (size 15 to 20)
#    0.000    2.667    0.000    3.000    2.333    3.667 
#    0.000    0.000    0.000    5.000    0.000    5.833 
#    0.000    0.000    0.000    0.000    0.000    0.000 
#
# Total GULP energy -267223.042971 kJ/mol
# GULP energy per Si atom -5567.146729 kJ/mol
# Density = 1.918856 g / cm^3
# Si number density = 19.232329 Si / 1000 Ang^3
#
#
#
# Elastic Constant Matrix: (Units=GPa)
#
#
# Indices 1 2 3 4 5 6 
#
# 1 22.2416 6.7712 15.9704 0.0000 0.0000 0.0000
# 2 6.7712 109.3982 45.8932 0.0000 0.0000 0.0000
# 3 15.9704 45.8932 89.1795 0.0000 0.0000 0.0000
# 4 0.0000 0.0000 0.0000 27.5220 0.0000 0.0000
# 5 0.0000 0.0000 0.0000 0.0000 9.3360 0.0000
# 6 0.0000 0.0000 0.0000 0.0000 0.0000 44.9104
#
#
#
# Elastic Compliance Matrix: (Units=1/GPa)
#
#
# Indices 1 2 3 4 5 6 
#
# 1 0.051660 0.000872 -0.009700 0.000000 0.000000 0.000000
# 2 0.000872 0.011672 -0.006163 0.000000 0.000000 0.000000
# 3 -0.009700 -0.006163 0.016122 0.000000 0.000000 0.000000
# 4 0.000000 0.000000 0.000000 0.036335 0.000000 0.000000
# 5 0.000000 0.000000 0.000000 0.000000 0.107112 0.000000
# 6 0.000000 0.000000 0.000000 0.000000 0.000000 0.022267
#
#
# Mechanical properties :
#
#
# Convention : Reuss Voigt Hill
#
# Bulk Modulus (GPa) = 20.21336 39.78767 30.00051
# Shear Modulus (GPa) = 17.14435 26.49931 21.82183
#
# Velocity S-wave (km/s) = 2.98893 3.71597 3.37210
# Velocity P-wave (km/s) = 4.73756 6.25652 5.54926
#
# Compressibility (1/GPa) = 0.04947224
#
# Stress axis : x y z
#
# Youngs Moduli (GPa) = 19.35721 85.67273 62.02716
#
# Poissons Ratio (x) = -0.07468 0.60167
# Poissons Ratio (y) = -0.01687 0.38227
# Poissons Ratio (z) = 0.18777 0.52799
#
# Static dielectric constant tensor:
#      x y z
#    x 1.829320 0.000000 0.000000 
#    y 0.000000 1.718770 0.000000 
#    z 0.000000 0.000000 1.715900 
# 
# From -- ./inp_files/69887.got.cif
#   From: 2010.05.17/outbox.cif.g08.bks.cpg/sg63_35_cif.got.tgz:69887.got - 2010.06.03 15:47:04.
