data_PCOD9471750
_publ_section_title
;
Structure prediction by ZEFSAII (Michael W. Deem and Ramdas Pophale) SiO2 
 PCOD9471750
Probable space group: C M C M
;
_chemical_formula_sum "Si O2"
_cell_formula_units_Z 96
_cell_length_a 18.561793
_cell_length_b 33.498603
_cell_length_c 8.968839
_cell_angle_alpha 90.000000
_cell_angle_beta 90.000000
_cell_angle_gamma 90.000000
_cell_volume 5576.771485
_symmetry_space_group_name_H-M "C M C M"
_symmetry_group_IT_number 63
_symmetry_cell_setting 'orthorhombic'
loop_
_space_group_symop_operation_xyz
x,y,z
-x,-y,1/2+z
x,-y,-z
-x,y,1/2-z
-x,-y,-z
x,y,1/2-z
-x,y,z
x,-y,1/2+z
1/2+x,1/2+y,z
1/2-x,1/2-y,1/2+z
1/2+x,1/2-y,-z
1/2-x,1/2+y,1/2-z
1/2-x,1/2-y,-z
1/2+x,1/2+y,1/2-z
1/2-x,1/2+y,z
1/2+x,1/2-y,1/2+z
loop_
_atom_site_type_symbol
_atom_site_label
_atom_site_fract_x
_atom_site_fract_y
_atom_site_fract_z
Si Si1 0.273128 0.957360 0.071315
Si Si2 0.147218 0.663346 0.073230
Si Si3 0.914859 0.173388 0.927246
Si Si4 0.080461 0.586231 0.571269
Si Si5 0.414323 0.241638 0.926713
Si Si6 0.702859 0.380978 0.927248
O O1 0.267122 0.958878 0.250000
O O2 0.355138 0.943912 0.032014
O O3 0.222815 0.922556 0.005858
O O4 0.257365 0.000000 0.000000
O O5 0.135920 0.667056 0.250000
O O6 0.228730 0.648325 0.046657
O O7 0.097330 0.628154 0.007724
O O8 0.128930 0.704686 0.993994
O O9 0.902864 0.173422 0.750000
O O10 0.000000 0.167208 0.954950
O O11 0.895676 0.216661 0.994709
O O12 0.866914 0.139848 0.004715
O O13 0.083809 0.592463 0.750000
O O14 0.000000 0.572274 0.533080
O O15 0.402260 0.244901 0.750000
O O16 0.500000 0.234532 0.951147
O O17 0.696042 0.386713 0.750000
#
# Coordination Sequence:
#
# PCOD9471750 Si02
#       6
#    16  16  16  16  16  16
#     4  10  20  35  55  78 105 136 171 212 257 306
#     4  10  20  32  48  73 104 139 179 220 258 296
#     4  10  21  37  57  80 104 131 166 209 257 308
#     4   9  18  32  49  71 102 141 181 218 257 300
#     4  10  20  33  50  73 103 141 181 217 255 300
#     4  10  21  37  56  78 104 135 171 209 254 309
#
# _framework density 17.214261
#
# number of rings (size 3 to 8) (size 9 to 14) (size 15 to 20)
#    0.000    2.167    0.000    3.000    0.000    8.000 
#    0.000    0.000    0.000    0.500    0.000    0.000 
#    0.000    0.000    0.000    0.000    0.000    0.000 
#
# Total GULP energy -268014.593796 kJ/mol
# GULP energy per Si atom -5583.637371 kJ/mol
# Density = 1.717508 g / cm^3
# Si number density = 17.214261 Si / 1000 Ang^3
#
#
#
# Elastic Constant Matrix: (Units=GPa)
#
#
# Indices 1 2 3 4 5 6 
#
# 1 46.4793 68.1378 48.1456 0.0000 0.0000 0.0000
# 2 68.1378 154.5986 76.6470 0.0000 0.0000 0.0000
# 3 48.1456 76.6470 74.5720 0.0000 0.0000 0.0000
# 4 0.0000 0.0000 0.0000 33.4380 0.0000 0.0000
# 5 0.0000 0.0000 0.0000 0.0000 25.8469 0.0000
# 6 0.0000 0.0000 0.0000 0.0000 0.0000 8.2720
#
#
#
# Elastic Compliance Matrix: (Units=1/GPa)
#
#
# Indices 1 2 3 4 5 6 
#
# 1 0.092537 -0.022765 -0.036345 0.000000 0.000000 0.000000
# 2 -0.022765 0.018790 -0.004615 0.000000 0.000000 0.000000
# 3 -0.036345 -0.004615 0.041619 0.000000 0.000000 0.000000
# 4 0.000000 0.000000 0.000000 0.029906 0.000000 0.000000
# 5 0.000000 0.000000 0.000000 0.000000 0.038689 0.000000
# 6 0.000000 0.000000 0.000000 0.000000 0.000000 0.120889
#
#
# Mechanical properties :
#
#
# Convention : Reuss Voigt Hill
#
# Bulk Modulus (GPa) = 39.22451 73.50118 56.36285
# Shear Modulus (GPa) = 10.45196 19.02602 14.73899
#
# Velocity S-wave (km/s) = 2.46675 3.32813 2.92928
# Velocity P-wave (km/s) = 5.56315 7.58678 6.65236
#
# Compressibility (1/GPa) = 0.02549426
#
# Stress axis : x y z
#
# Youngs Moduli (GPa) = 10.80651 53.22004 24.02770
#
# Poissons Ratio (x) = 1.21157 0.87329
# Poissons Ratio (y) = 0.24601 0.11088
# Poissons Ratio (z) = 0.39277 0.24560
#
# Static dielectric constant tensor:
#      x y z
#    x 1.583370 0.000000 0.000000 
#    y 0.000000 1.544710 0.000000 
#    z 0.000000 0.000000 1.568710 
# 
# From -- ./inp_files/8505.got.cif
#   From: 2010.05.17/outbox.cif.g08.bks.cpg/sg63_5_cif.got.tgz:8505.got - 2010.06.03 15:47:04.
