data_PCOD9471190
_publ_section_title
;
Structure prediction by ZEFSAII (Michael W. Deem and Ramdas Pophale) SiO2 
 PCOD9471190
Probable space group: C M C M
;
_chemical_formula_sum "Si O2"
_cell_formula_units_Z 128
_cell_length_a 23.502389
_cell_length_b 12.279406
_cell_length_c 21.826257
_cell_angle_alpha 90.000000
_cell_angle_beta 90.000000
_cell_angle_gamma 90.000000
_cell_volume 6298.956857
_symmetry_space_group_name_H-M "C M C M"
_symmetry_group_IT_number 63
_symmetry_cell_setting 'orthorhombic'
loop_
_space_group_symop_operation_xyz
x,y,z
-x,-y,1/2+z
x,-y,-z
-x,y,1/2-z
-x,-y,-z
x,y,1/2-z
-x,y,z
x,-y,1/2+z
1/2+x,1/2+y,z
1/2-x,1/2-y,1/2+z
1/2+x,1/2-y,-z
1/2-x,1/2+y,1/2-z
1/2-x,1/2-y,-z
1/2+x,1/2+y,1/2-z
1/2-x,1/2+y,z
1/2+x,1/2-y,1/2+z
loop_
_atom_site_type_symbol
_atom_site_label
_atom_site_fract_x
_atom_site_fract_y
_atom_site_fract_z
Si Si1 0.567056 0.784164 0.684435
Si Si2 0.433359 0.613180 0.914839
Si Si3 0.325957 0.656703 0.983341
Si Si4 0.934115 0.509213 0.110041
Si Si5 0.780759 0.028172 0.399873
Si Si6 0.931946 0.702806 0.819970
Si Si7 0.614844 0.442793 0.678947
Si Si8 0.673907 0.091324 0.048182
O O1 0.593393 0.758530 0.750000
O O2 0.500000 0.755888 0.687250
O O3 0.587922 0.713879 0.627683
O O4 0.569623 0.910897 0.668650
O O5 0.500000 0.622010 0.930147
O O6 0.391458 0.620280 0.972307
O O7 0.421835 0.511128 0.870245
O O8 0.291753 0.590523 0.930388
O O9 0.319618 0.786012 0.975623
O O10 0.305543 0.611564 0.048529
O O11 0.916697 0.389093 0.130877
O O12 0.890966 0.562461 0.062867
O O13 0.000000 0.509713 0.089822
O O14 0.819934 0.037075 0.340383
O O15 0.715338 0.064603 0.394554
O O16 0.921243 0.664959 0.750000
O O17 0.900438 0.816349 0.828515
O O18 0.000000 0.720705 0.824868
O O19 0.603170 0.472838 0.750000
O O20 0.693299 0.000000 0.000000
#
# Coordination Sequence:
#
# PCOD9471190 Si02
#       8
#    16  16  16  16  16  16  16  16
#     4   9  16  29  51  78 112 151 183 222 285 352
#     4  10  19  34  59  89 122 152 191 246 300 352
#     4  10  21  41  60  88 114 152 202 247 292 345
#     4  10  21  36  54  86 119 148 189 243 298 352
#     4  10  23  41  63  84 115 156 202 247 292 348
#     4   9  18  34  56  83 119 161 198 232 283 357
#     4  10  21  37  60  88 121 158 199 247 293 346
#     4  12  24  38  65  87 110 157 200 245 293 355
#
# _framework density 20.320824999999999
#
# number of rings (size 3 to 8) (size 9 to 14) (size 15 to 20)
#    0.000    2.000    2.500    1.500    1.750    3.000 
#    0.000    6.875    0.000    1.500    0.000    0.000 
#    0.000    0.000    0.000    0.000    0.000    0.000 
#
# Total GULP energy -356988.754014 kJ/mol
# GULP energy per Si atom -5577.949281 kJ/mol
# Density = 2.027457 g / cm^3
# Si number density = 20.320825 Si / 1000 Ang^3
#
#
#
# Elastic Constant Matrix: (Units=GPa)
#
#
# Indices 1 2 3 4 5 6 
#
# 1 66.5520 20.0493 7.9919 0.0000 0.0000 0.0000
# 2 20.0493 125.9404 15.5300 0.0000 0.0000 0.0000
# 3 7.9919 15.5300 27.5561 0.0000 0.0000 0.0000
# 4 0.0000 0.0000 0.0000 15.0855 0.0000 0.0000
# 5 0.0000 0.0000 0.0000 0.0000 16.8032 0.0000
# 6 0.0000 0.0000 0.0000 0.0000 0.0000 15.4828
#
#
#
# Elastic Compliance Matrix: (Units=1/GPa)
#
#
# Indices 1 2 3 4 5 6 
#
# 1 0.016084 -0.002134 -0.003462 0.000000 0.000000 0.000000
# 2 -0.002134 0.008816 -0.004350 0.000000 0.000000 0.000000
# 3 -0.003462 -0.004350 0.039745 0.000000 0.000000 0.000000
# 4 0.000000 0.000000 0.000000 0.066289 0.000000 0.000000
# 5 0.000000 0.000000 0.000000 0.000000 0.059513 0.000000
# 6 0.000000 0.000000 0.000000 0.000000 0.000000 0.064588
#
#
# Mechanical properties :
#
#
# Convention : Reuss Voigt Hill
#
# Bulk Modulus (GPa) = 22.34427 34.13234 28.23831
# Shear Modulus (GPa) = 17.25059 21.23944 19.24501
#
# Velocity S-wave (km/s) = 2.91677 3.23647 3.08077
# Velocity P-wave (km/s) = 4.72896 5.54973 5.15570
#
# Compressibility (1/GPa) = 0.04475420
#
# Stress axis : x y z
#
# Youngs Moduli (GPa) = 62.17208 113.42592 25.16021
#
# Poissons Ratio (x) = 0.24201 0.08711
# Poissons Ratio (y) = 0.13265 0.10944
# Poissons Ratio (z) = 0.21526 0.49339
#
# Static dielectric constant tensor:
#      x y z
#    x 1.747210 0.000000 0.000000 
#    y 0.000000 1.730700 0.000000 
#    z 0.000000 0.000000 1.772730 
# 
# From -- ./inp_files/65188.got.cif
#   From: 2010.05.17/outbox.cif.g08.bks.cpg/sg63_33_cif.got.tgz:65188.got - 2010.06.03 15:47:04.
