data_PCOD9471724
_publ_section_title
;
Structure prediction by ZEFSAII (Michael W. Deem and Ramdas Pophale) SiO2 
 PCOD9471724
Probable space group: C M C M
;
_chemical_formula_sum "Si O2"
_cell_formula_units_Z 96
_cell_length_a 19.778321
_cell_length_b 31.180773
_cell_length_c 7.449226
_cell_angle_alpha 90.000000
_cell_angle_beta 90.000000
_cell_angle_gamma 90.000000
_cell_volume 4593.962535
_symmetry_space_group_name_H-M "C M C M"
_symmetry_group_IT_number 63
_symmetry_cell_setting 'orthorhombic'
loop_
_space_group_symop_operation_xyz
x,y,z
-x,-y,1/2+z
x,-y,-z
-x,y,1/2-z
-x,-y,-z
x,y,1/2-z
-x,y,z
x,-y,1/2+z
1/2+x,1/2+y,z
1/2-x,1/2-y,1/2+z
1/2+x,1/2-y,-z
1/2-x,1/2+y,1/2-z
1/2-x,1/2-y,-z
1/2+x,1/2+y,1/2-z
1/2-x,1/2+y,z
1/2+x,1/2-y,1/2+z
loop_
_atom_site_type_symbol
_atom_site_label
_atom_site_fract_x
_atom_site_fract_y
_atom_site_fract_z
Si Si1 0.923140 0.048960 0.964583
Si Si2 0.576510 0.802455 0.966695
Si Si3 0.576793 0.295432 0.468591
Si Si4 0.076183 0.450516 0.465084
Si Si5 0.176687 0.620980 0.539686
Si Si6 0.670511 0.626900 0.970326
O O1 0.926681 0.053974 0.750000
O O2 0.871472 0.085037 0.028905
O O3 0.000000 0.054430 0.034387
O O4 0.901892 0.000000 0.000000
O O5 0.576061 0.802604 0.750000
O O6 0.500000 0.814215 0.025666
O O7 0.590303 0.753535 0.025072
O O8 0.632467 0.836033 0.025868
O O9 0.577352 0.295365 0.250000
O O10 0.500000 0.306797 0.522258
O O11 0.630468 0.330552 0.528256
O O12 0.093338 0.500000 0.500000
O O13 0.073171 0.444910 0.250000
O O14 0.131144 0.417407 0.537571
O O15 0.000000 0.442558 0.534605
O O16 0.185832 0.611142 0.750000
O O17 0.252171 0.625822 0.466659
O O18 0.670512 0.627502 0.750000
#
# Coordination Sequence:
#
# PCOD9471724 Si02
#       6
#    16  16  16  16  16  16
#     4   9  17  30  49  71  94 123 160 199 236 275
#     4   9  18  32  50  71  93 120 157 197 232 269
#     4   8  14  27  48  71  93 120 158 199 229 260
#     4   9  18  32  48  65  86 115 151 188 225 267
#     4  10  20  32  47  70  99 126 151 186 235 286
#     4   9  17  29  46  69  96 126 158 190 229 279
#
# _framework density 20.896992999999998
#
# number of rings (size 3 to 8) (size 9 to 14) (size 15 to 20)
#    0.000    3.000    0.000    2.000    0.000    5.000 
#    0.000    2.500    0.000    1.000    0.000    2.333 
#    0.000    0.000    0.000    0.000    0.000    0.000 
#
# Total GULP energy -267922.614078 kJ/mol
# GULP energy per Si atom -5581.721127 kJ/mol
# Density = 2.084943 g / cm^3
# Si number density = 20.896993 Si / 1000 Ang^3
#
#
#
# Elastic Constant Matrix: (Units=GPa)
#
#
# Indices 1 2 3 4 5 6 
#
# 1 194.1874 143.5244 1.5925 0.0000 0.0000 0.0000
# 2 143.5244 149.9445 -7.9372 0.0000 0.0000 0.0000
# 3 1.5925 -7.9372 60.8927 0.0000 0.0000 0.0000
# 4 0.0000 0.0000 0.0000 9.9151 0.0000 0.0000
# 5 0.0000 0.0000 0.0000 0.0000 1.8400 0.0000
# 6 0.0000 0.0000 0.0000 0.0000 0.0000 96.1609
#
#
#
# Elastic Compliance Matrix: (Units=1/GPa)
#
#
# Indices 1 2 3 4 5 6 
#
# 1 0.018047 -0.017419 -0.002743 0.000000 0.000000 0.000000
# 2 -0.017419 0.023529 0.003522 0.000000 0.000000 0.000000
# 3 -0.002743 0.003522 0.016953 0.000000 0.000000 0.000000
# 4 0.000000 0.000000 0.000000 0.100857 0.000000 0.000000
# 5 0.000000 0.000000 0.000000 0.000000 0.543486 0.000000
# 6 0.000000 0.000000 0.000000 0.000000 0.000000 0.010399
#
#
# Mechanical properties :
#
#
# Convention : Reuss Voigt Hill
#
# Bulk Modulus (GPa) = 39.60326 75.48712 57.54519
# Shear Modulus (GPa) = 6.62282 39.43951 23.03117
#
# Velocity S-wave (km/s) = 1.78217 4.34905 3.32343
# Velocity P-wave (km/s) = 4.81951 7.83715 6.50571
#
# Compressibility (1/GPa) = 0.02525045
#
# Stress axis : x y z
#
# Youngs Moduli (GPa) = 55.41168 42.50078 58.98591
#
# Poissons Ratio (x) = 0.74033 0.16177
# Poissons Ratio (y) = 0.96523 -0.20778
# Poissons Ratio (z) = 0.15197 -0.14971
#
# Static dielectric constant tensor:
#      x y z
#    x 1.728280 0.000000 0.000000 
#    y 0.000000 1.713340 0.000000 
#    z 0.000000 0.000000 1.790040 
# 
# From -- ./inp_files/8517.got.cif
#   From: 2010.05.17/outbox.cif.g08.bks.cpg/sg63_5_cif.got.tgz:8517.got - 2010.06.03 15:47:04.
