data_PCOD9471309
_publ_section_title
;
Structure prediction by ZEFSAII (Michael W. Deem and Ramdas Pophale) SiO2 
 PCOD9471309
Probable space group: C M C M
;
_chemical_formula_sum "Si O2"
_cell_formula_units_Z 112
_cell_length_a 23.537984
_cell_length_b 13.661473
_cell_length_c 19.542242
_cell_angle_alpha 90.000000
_cell_angle_beta 90.000000
_cell_angle_gamma 90.000000
_cell_volume 6284.072378
_symmetry_space_group_name_H-M "C M C M"
_symmetry_group_IT_number 63
_symmetry_cell_setting 'orthorhombic'
loop_
_space_group_symop_operation_xyz
x,y,z
-x,-y,1/2+z
x,-y,-z
-x,y,1/2-z
-x,-y,-z
x,y,1/2-z
-x,y,z
x,-y,1/2+z
1/2+x,1/2+y,z
1/2-x,1/2-y,1/2+z
1/2+x,1/2-y,-z
1/2-x,1/2+y,1/2-z
1/2-x,1/2-y,-z
1/2+x,1/2+y,1/2-z
1/2-x,1/2+y,z
1/2+x,1/2-y,1/2+z
loop_
_atom_site_type_symbol
_atom_site_label
_atom_site_fract_x
_atom_site_fract_y
_atom_site_fract_z
Si Si1 0.660447 0.591262 0.330874
Si Si2 0.255540 0.763868 0.890297
Si Si3 0.566260 0.414280 0.946232
Si Si4 0.562559 0.116014 0.506845
Si Si5 0.063351 0.211939 0.574372
Si Si6 0.809162 0.383879 0.487663
Si Si7 0.657773 0.367800 0.174263
O O1 0.649576 0.609725 0.250000
O O2 0.706649 0.666609 0.360365
O O3 0.605262 0.594735 0.380051
O O4 0.680197 0.477869 0.337298
O O5 0.294845 0.827739 0.941453
O O6 0.293634 0.712831 0.833125
O O7 0.230343 0.672878 0.933814
O O8 0.500000 0.430161 0.928718
O O9 0.583449 0.500000 0.000000
O O10 0.570896 0.320381 0.995303
O O11 0.500000 0.145073 0.536802
O O12 0.565594 0.171319 0.433251
O O13 0.625703 0.131987 0.536624
O O14 0.560009 0.000000 0.500000
O O15 0.110020 0.160979 0.619806
O O16 0.000000 0.181132 0.595490
O O17 0.798989 0.500000 0.500000
O O18 0.632444 0.366207 0.250000
#
# Coordination Sequence:
#
# PCOD9471309 Si02
#       7
#    16  16  16  16  16  16  16
#     4  11  24  38  57  82 117 159 194 235 289 352
#     4  11  22  37  54  78 116 153 191 237 286 340
#     4  10  20  35  59  86 114 146 186 236 286 340
#     4   9  17  31  52  81 112 137 172 225 283 335
#     4  10  19  35  58  86 113 144 184 234 292 339
#     4  10  20  33  57  88 108 143 191 243 286 336
#     4  11  23  38  55  79 112 151 193 236 287 346
#
# _framework density 17.822837
#
# number of rings (size 3 to 8) (size 9 to 14) (size 15 to 20)
#    0.000    1.714    2.857    2.143    2.000    1.143 
#    0.000    1.429    0.000    0.000    0.000    0.000 
#    0.000    5.714    0.000    0.000    0.000    0.000 
#
# Total GULP energy -311764.685579 kJ/mol
# GULP energy per Si atom -5567.226528 kJ/mol
# Density = 1.778227 g / cm^3
# Si number density = 17.822837 Si / 1000 Ang^3
#
#
#
# Elastic Constant Matrix: (Units=GPa)
#
#
# Indices 1 2 3 4 5 6 
#
# 1 86.7682 39.1639 36.4949 0.0000 0.0000 0.0000
# 2 39.1639 112.0476 32.9596 0.0000 0.0000 0.0000
# 3 36.4949 32.9596 79.6646 0.0000 0.0000 0.0000
# 4 0.0000 0.0000 0.0000 19.7107 0.0000 0.0000
# 5 0.0000 0.0000 0.0000 0.0000 6.4303 0.0000
# 6 0.0000 0.0000 0.0000 0.0000 0.0000 28.0875
#
#
#
# Elastic Compliance Matrix: (Units=1/GPa)
#
#
# Indices 1 2 3 4 5 6 
#
# 1 0.015585 -0.003811 -0.005563 0.000000 0.000000 0.000000
# 2 -0.003811 0.011093 -0.002844 0.000000 0.000000 0.000000
# 3 -0.005563 -0.002844 0.016278 0.000000 0.000000 0.000000
# 4 0.000000 0.000000 0.000000 0.050734 0.000000 0.000000
# 5 0.000000 0.000000 0.000000 0.000000 0.155515 0.000000
# 6 0.000000 0.000000 0.000000 0.000000 0.000000 0.035603
#
#
# Mechanical properties :
#
#
# Convention : Reuss Voigt Hill
#
# Bulk Modulus (GPa) = 53.99417 55.07971 54.53694
# Shear Modulus (GPa) = 15.85207 22.16983 19.01095
#
# Velocity S-wave (km/s) = 2.98556 3.53072 3.26952
# Velocity P-wave (km/s) = 6.49965 6.89873 6.70216
#
# Compressibility (1/GPa) = 0.01852052
#
# Stress axis : x y z
#
# Youngs Moduli (GPa) = 64.16489 90.14391 61.43434
#
# Poissons Ratio (x) = 0.34354 0.34175
# Poissons Ratio (y) = 0.24453 0.17471
# Poissons Ratio (z) = 0.35694 0.25635
#
# Static dielectric constant tensor:
#      x y z
#    x 1.646710 0.000000 0.000000 
#    y 0.000000 1.740300 0.000000 
#    z 0.000000 0.000000 1.576010 
# 
# From -- ./inp_files/57626.got.cif
#   From: 2010.05.17/outbox.cif.g08.bks.cpg/sg63_29_cif.got.tgz:57626.got - 2010.06.03 15:47:04.
