data_PCOD9471134
_publ_section_title
;
Structure prediction by ZEFSAII (Michael W. Deem and Ramdas Pophale) SiO2 
 PCOD9471134
Probable space group: C M C M
;
_chemical_formula_sum "Si O2"
_cell_formula_units_Z 88
_cell_length_a 18.389606
_cell_length_b 24.613803
_cell_length_c 9.293782
_cell_angle_alpha 90.000000
_cell_angle_beta 90.000000
_cell_angle_gamma 90.000000
_cell_volume 4206.720192
_symmetry_space_group_name_H-M "C M C M"
_symmetry_group_IT_number 63
_symmetry_cell_setting 'orthorhombic'
loop_
_space_group_symop_operation_xyz
x,y,z
-x,-y,1/2+z
x,-y,-z
-x,y,1/2-z
-x,-y,-z
x,y,1/2-z
-x,y,z
x,-y,1/2+z
1/2+x,1/2+y,z
1/2-x,1/2-y,1/2+z
1/2+x,1/2-y,-z
1/2-x,1/2+y,1/2-z
1/2-x,1/2-y,-z
1/2+x,1/2+y,1/2-z
1/2-x,1/2+y,z
1/2+x,1/2-y,1/2+z
loop_
_atom_site_type_symbol
_atom_site_label
_atom_site_fract_x
_atom_site_fract_y
_atom_site_fract_z
Si Si1 0.143034 0.242881 0.084039
Si Si2 0.416147 0.345826 0.407549
Si Si3 0.500000 0.942898 0.079750
Si Si4 0.664369 0.940469 0.424355
Si Si5 0.783105 0.337877 0.918621
Si Si6 0.910994 0.947420 0.912535
O O1 0.123270 0.250847 0.250000
O O2 0.210422 0.199686 0.078894
O O3 0.085576 0.210667 0.989538
O O4 0.162832 0.298640 0.006991
O O5 0.380940 0.342140 0.250000
O O6 0.500000 0.361176 0.389023
O O7 0.386290 0.393795 0.505878
O O8 0.500000 0.952082 0.250000
O O9 0.419497 0.919700 0.047805
O O10 0.500000 0.000000 0.000000
O O11 0.674970 0.944070 0.250000
O O12 0.715450 0.895489 0.499512
O O13 0.672087 0.000000 0.500000
O O14 0.801764 0.345384 0.750000
O O15 0.884167 0.948061 0.750000
O O16 0.000000 0.948201 0.906370
O O17 0.887846 0.000000 0.000000
#
# Coordination Sequence:
#
# PCOD9471134 Si02
#       6
#    16  16   8  16  16  16
#     4  10  21  38  59  80 105 142 186 229 275 328
#     4  10  20  34  53  78 108 139 174 221 275 327
#     4   8  16  30  50  78 112 148 182 216 263 324
#     4  10  19  34  57  85 117 151 187 228 278 331
#     4  10  21  38  59  82 108 142 185 228 273 328
#     4   9  16  27  45  69  98 133 171 209 255 312
#
# _framework density 20.918911000000001
#
# number of rings (size 3 to 8) (size 9 to 14) (size 15 to 20)
#    0.000    2.364    0.000    2.727    0.000    6.182 
#    1.636    0.909    0.000    4.364    0.000    0.000 
#    0.000    0.000    0.000    0.000    0.000    0.000 
#
# Total GULP energy -245240.310079 kJ/mol
# GULP energy per Si atom -5573.643411 kJ/mol
# Density = 2.087130 g / cm^3
# Si number density = 20.918911 Si / 1000 Ang^3
#
#
#
# Elastic Constant Matrix: (Units=GPa)
#
#
# Indices 1 2 3 4 5 6 
#
# 1 29.6556 14.5425 24.0229 0.0000 0.0000 0.0000
# 2 14.5425 128.4655 71.0790 0.0000 0.0000 0.0000
# 3 24.0229 71.0790 176.7862 0.0000 0.0000 0.0000
# 4 0.0000 0.0000 0.0000 36.0675 0.0000 0.0000
# 5 0.0000 0.0000 0.0000 0.0000 11.6891 0.0000
# 6 0.0000 0.0000 0.0000 0.0000 0.0000 46.7886
#
#
#
# Elastic Compliance Matrix: (Units=1/GPa)
#
#
# Indices 1 2 3 4 5 6 
#
# 1 0.038237 -0.001870 -0.004444 0.000000 0.000000 0.000000
# 2 -0.001870 0.010103 -0.003808 0.000000 0.000000 0.000000
# 3 -0.004444 -0.003808 0.007791 0.000000 0.000000 0.000000
# 4 0.000000 0.000000 0.000000 0.027726 0.000000 0.000000
# 5 0.000000 0.000000 0.000000 0.000000 0.085550 0.000000
# 6 0.000000 0.000000 0.000000 0.000000 0.000000 0.021373
#
#
# Mechanical properties :
#
#
# Convention : Reuss Voigt Hill
#
# Bulk Modulus (GPa) = 27.86434 61.57734 44.72084
# Shear Modulus (GPa) = 22.42292 33.92657 28.17475
#
# Velocity S-wave (km/s) = 3.27754 4.03154 3.67393
# Velocity P-wave (km/s) = 5.26043 7.15341 6.27867
#
# Compressibility (1/GPa) = 0.03588816
#
# Stress axis : x y z
#
# Youngs Moduli (GPa) = 26.15243 98.98352 128.34559
#
# Poissons Ratio (x) = 0.18505 0.57040
# Poissons Ratio (y) = 0.04889 0.48872
# Poissons Ratio (z) = 0.11623 0.37692
#
# Static dielectric constant tensor:
#      x y z
#    x 1.864640 0.000000 0.000000 
#    y 0.000000 1.723600 0.000000 
#    z 0.000000 0.000000 1.740740 
# 
# From -- ./inp_files/8177.got.cif
#   From: 2010.05.17/outbox.cif.g08.bks.cpg/sg63_5_cif.got.tgz:8177.got - 2010.06.03 15:47:04.
