data_PCOD9471353
_publ_section_title
;
Structure prediction by ZEFSAII (Michael W. Deem and Ramdas Pophale) SiO2 
 PCOD9471353
Probable space group: C M C M
;
_chemical_formula_sum "Si O2"
_cell_formula_units_Z 100
_cell_length_a 22.732849
_cell_length_b 29.539569
_cell_length_c 7.801794
_cell_angle_alpha 90.000000
_cell_angle_beta 90.000000
_cell_angle_gamma 90.000000
_cell_volume 5239.049485
_symmetry_space_group_name_H-M "C M C M"
_symmetry_group_IT_number 63
_symmetry_cell_setting 'orthorhombic'
loop_
_space_group_symop_operation_xyz
x,y,z
-x,-y,1/2+z
x,-y,-z
-x,y,1/2-z
-x,-y,-z
x,y,1/2-z
-x,y,z
x,-y,1/2+z
1/2+x,1/2+y,z
1/2-x,1/2-y,1/2+z
1/2+x,1/2-y,-z
1/2-x,1/2+y,1/2-z
1/2-x,1/2-y,-z
1/2+x,1/2+y,1/2-z
1/2-x,1/2+y,z
1/2+x,1/2-y,1/2+z
loop_
_atom_site_type_symbol
_atom_site_label
_atom_site_fract_x
_atom_site_fract_y
_atom_site_fract_z
Si Si1 0.675888 0.390902 0.948300
Si Si2 0.691113 0.705811 0.948400
Si Si3 0.435104 0.552778 0.954813
Si Si4 0.500000 0.112889 0.750000
Si Si5 0.325174 0.198997 0.550795
Si Si6 0.287626 0.052930 0.454794
Si Si7 0.899011 0.614550 0.450478
O O1 0.688393 0.380555 0.750000
O O2 0.732170 0.417974 0.023137
O O3 0.662975 0.343205 0.036453
O O4 0.618973 0.421922 0.961600
O O5 0.696419 0.718635 0.750000
O O6 0.757851 0.698461 0.016250
O O7 0.659124 0.747901 0.036820
O O8 0.430799 0.557743 0.750000
O O9 0.500000 0.569000 0.009775
O O10 0.431544 0.500000 0.000000
O O11 0.448843 0.113168 0.595776
O O12 0.324234 0.185505 0.750000
O O13 0.366895 0.163585 0.457760
O O14 0.282919 0.055007 0.250000
O O15 0.348694 0.077636 0.498469
O O16 0.285551 0.000000 0.500000
O O17 0.917313 0.606594 0.250000
#
# Coordination Sequence:
#
# PCOD9471353 Si02
#       7
#    16  16  16   4  16  16  16
#     4  11  21  35  56  89 123 159 203 253 306 369
#     4  10  20  32  56  91 126 161 197 246 304 365
#     4  10  21  37  56  79 112 156 203 247 293 356
#     4  12  26  44  70  94 118 172 216 254 322 390
#     4  10  19  35  60  91 123 160 197 247 310 368
#     4  10  23  38  61  90 124 159 200 259 326 379
#     4  11  23  43  67  93 126 163 212 267 317 381
#
# _framework density 19.087432
#
# number of rings (size 3 to 8) (size 9 to 14) (size 15 to 20)
#    0.000    1.600    2.400    2.640    1.120    4.800 
#    0.000    0.400    1.760    0.000    0.000    0.000 
#    0.000    0.000    0.000    0.000    0.000    0.000 
#
# Total GULP energy -278454.489067 kJ/mol
# GULP energy per Si atom -5569.089781 kJ/mol
# Density = 1.904399 g / cm^3
# Si number density = 19.087432 Si / 1000 Ang^3
#
#
#
# Elastic Constant Matrix: (Units=GPa)
#
#
# Indices 1 2 3 4 5 6 
#
# 1 71.7180 26.5973 23.2572 0.0000 0.0000 0.0000
# 2 26.5973 91.1659 3.8916 0.0000 0.0000 0.0000
# 3 23.2572 3.8916 78.5502 0.0000 0.0000 0.0000
# 4 0.0000 0.0000 0.0000 30.3680 0.0000 0.0000
# 5 0.0000 0.0000 0.0000 0.0000 21.3916 0.0000
# 6 0.0000 0.0000 0.0000 0.0000 0.0000 3.7220
#
#
#
# Elastic Compliance Matrix: (Units=1/GPa)
#
#
# Indices 1 2 3 4 5 6 
#
# 1 0.017326 -0.004846 -0.004890 0.000000 0.000000 0.000000
# 2 -0.004846 0.012348 0.000823 0.000000 0.000000 0.000000
# 3 -0.004890 0.000823 0.014138 0.000000 0.000000 0.000000
# 4 0.000000 0.000000 0.000000 0.032929 0.000000 0.000000
# 5 0.000000 0.000000 0.000000 0.000000 0.046747 0.000000
# 6 0.000000 0.000000 0.000000 0.000000 0.000000 0.268672
#
#
# Mechanical properties :
#
#
# Convention : Reuss Voigt Hill
#
# Bulk Modulus (GPa) = 38.48237 38.76961 38.62599
# Shear Modulus (GPa) = 11.94317 23.60885 17.77601
#
# Velocity S-wave (km/s) = 2.50413 3.52075 3.05502
# Velocity P-wave (km/s) = 5.34470 6.07316 5.72053
#
# Compressibility (1/GPa) = 0.02598593
#
# Stress axis : x y z
#
# Youngs Moduli (GPa) = 57.71506 80.98653 70.73261
#
# Poissons Ratio (x) = 0.39248 0.34588
# Poissons Ratio (y) = 0.27970 -0.05822
# Poissons Ratio (z) = 0.28222 -0.06666
#
# Static dielectric constant tensor:
#      x y z
#    x 1.661110 0.000000 0.000000 
#    y 0.000000 1.690000 0.000000 
#    z 0.000000 0.000000 1.705690 
# 
# From -- ./inp_files/8822.got.cif
#   From: 2010.05.17/outbox.cif.g08.bks.cpg/sg63_5_cif.got.tgz:8822.got - 2010.06.03 15:47:04.
