data_PCOD9471908
_publ_section_title
;
Structure prediction by ZEFSAII (Michael W. Deem and Ramdas Pophale) SiO2 
 PCOD9471908
Probable space group: C M C M
;
_chemical_formula_sum "Si O2"
_cell_formula_units_Z 96
_cell_length_a 17.500304
_cell_length_b 29.417070
_cell_length_c 9.314323
_cell_angle_alpha 90.000000
_cell_angle_beta 90.000000
_cell_angle_gamma 90.000000
_cell_volume 4795.084901
_symmetry_space_group_name_H-M "C M C M"
_symmetry_group_IT_number 63
_symmetry_cell_setting 'orthorhombic'
loop_
_space_group_symop_operation_xyz
x,y,z
-x,-y,1/2+z
x,-y,-z
-x,y,1/2-z
-x,-y,-z
x,y,1/2-z
-x,y,z
x,-y,1/2+z
1/2+x,1/2+y,z
1/2-x,1/2-y,1/2+z
1/2+x,1/2-y,-z
1/2-x,1/2+y,1/2-z
1/2-x,1/2-y,-z
1/2+x,1/2+y,1/2-z
1/2-x,1/2+y,z
1/2+x,1/2-y,1/2+z
loop_
_atom_site_type_symbol
_atom_site_label
_atom_site_fract_x
_atom_site_fract_y
_atom_site_fract_z
Si Si1 0.910663 0.041767 0.909287
Si Si2 0.592707 0.804210 0.912197
Si Si3 0.590680 0.300537 0.422027
Si Si4 0.908066 0.391610 0.413757
Si Si5 0.200939 0.547641 0.079208
Si Si6 0.660447 0.617708 0.079311
O O1 0.876118 0.045800 0.750000
O O2 0.000000 0.032566 0.891190
O O3 0.902685 0.086719 0.001933
O O4 0.878175 0.000000 0.000000
O O5 0.620398 0.814455 0.750000
O O6 0.500000 0.805550 0.907361
O O7 0.611238 0.752234 0.949219
O O8 0.617574 0.842959 0.021791
O O9 0.595844 0.308318 0.250000
O O10 0.500000 0.307195 0.460439
O O11 0.647459 0.333613 0.506750
O O12 0.881428 0.397507 0.250000
O O13 0.875995 0.430807 0.515199
O O14 0.000000 0.392015 0.414002
O O15 0.198139 0.540616 0.250000
O O16 0.264007 0.587296 0.050741
O O17 0.214855 0.500000 0.000000
O O18 0.650918 0.620780 0.250000
#
# Coordination Sequence:
#
# PCOD9471908 Si02
#       6
#    16  16  16  16  16  16
#     4  10  20  33  50  72  99 135 181 231 281 331
#     4   8  15  31  56  85 117 151 185 224 273 327
#     4   9  18  33  55  84 117 155 197 236 276 323
#     4  10  21  38  63  93 118 141 175 221 276 339
#     4  11  25  43  61  82 110 146 187 230 281 339
#     4  11  23  36  52  77 109 147 190 233 277 326
#
# _framework density 20.020499000000001
#
# number of rings (size 3 to 8) (size 9 to 14) (size 15 to 20)
#    0.000    2.167    0.000    4.000    0.000    9.333 
#    0.000    2.500    0.000    0.000    0.000    0.000 
#    0.000    0.000    0.000    0.000    0.000    0.000 
#
# Total GULP energy -267764.498127 kJ/mol
# GULP energy per Si atom -5578.427044 kJ/mol
# Density = 1.997493 g / cm^3
# Si number density = 20.020499 Si / 1000 Ang^3
#
#
#
# Elastic Constant Matrix: (Units=GPa)
#
#
# Indices 1 2 3 4 5 6 
#
# 1 27.9774 35.1316 40.5945 0.0000 0.0000 0.0000
# 2 35.1316 103.4918 64.6404 0.0000 0.0000 0.0000
# 3 40.5945 64.6404 93.8978 0.0000 0.0000 0.0000
# 4 0.0000 0.0000 0.0000 34.4400 0.0000 0.0000
# 5 0.0000 0.0000 0.0000 0.0000 10.0496 0.0000
# 6 0.0000 0.0000 0.0000 0.0000 0.0000 -6.2986
#
#
#
# Elastic Compliance Matrix: (Units=1/GPa)
#
#
# Indices 1 2 3 4 5 6 
#
# 1 0.104690 -0.012752 -0.036481 0.000000 0.000000 0.000000
# 2 -0.012752 0.018505 -0.007226 0.000000 0.000000 0.000000
# 3 -0.036481 -0.007226 0.031396 0.000000 0.000000 0.000000
# 4 0.000000 0.000000 0.000000 0.029036 0.000000 0.000000
# 5 0.000000 0.000000 0.000000 0.000000 0.099506 0.000000
# 6 0.000000 0.000000 0.000000 0.000000 0.000000 -0.158767
#
#
# Mechanical properties :
#
#
# Convention : Reuss Voigt Hill
#
# Bulk Modulus (GPa) = 23.99704 56.23334 40.11519
# Shear Modulus (GPa) = 19.90647 13.30493 16.60570
#
# Velocity S-wave (km/s) = 3.15668 2.58071 2.88312
# Velocity P-wave (km/s) = 5.02975 6.08514 5.58245
#
# Compressibility (1/GPa) = 0.04167181
#
# Stress axis : x y z
#
# Youngs Moduli (GPa) = 9.55205 54.04051 31.85123
#
# Poissons Ratio (x) = 0.68913 1.16197
# Poissons Ratio (y) = 0.12181 0.23015
# Poissons Ratio (z) = 0.34847 0.39048
#
# Static dielectric constant tensor:
#      x y z
#    x 1.746790 0.000000 0.000000 
#    y 0.000000 1.789550 0.000000 
#    z 0.000000 0.000000 1.720120 
# 
# From -- ./inp_files/8519.got.cif
#   From: 2010.05.17/outbox.cif.g08.bks.cpg/sg63_5_cif.got.tgz:8519.got - 2010.06.03 15:47:04.
