data_PCOD9471472
_publ_section_title
;
Structure prediction by ZEFSAII (Michael W. Deem and Ramdas Pophale) SiO2 
 PCOD9471472
Probable space group: C M C M
;
_chemical_formula_sum "Si O2"
_cell_formula_units_Z 128
_cell_length_a 23.972421
_cell_length_b 9.738355
_cell_length_c 24.863509
_cell_angle_alpha 90.000000
_cell_angle_beta 90.000000
_cell_angle_gamma 90.000000
_cell_volume 5804.434558
_symmetry_space_group_name_H-M "C M C M"
_symmetry_group_IT_number 63
_symmetry_cell_setting 'orthorhombic'
loop_
_space_group_symop_operation_xyz
x,y,z
-x,-y,1/2+z
x,-y,-z
-x,y,1/2-z
-x,-y,-z
x,y,1/2-z
-x,y,z
x,-y,1/2+z
1/2+x,1/2+y,z
1/2-x,1/2-y,1/2+z
1/2+x,1/2-y,-z
1/2-x,1/2+y,1/2-z
1/2-x,1/2-y,-z
1/2+x,1/2+y,1/2-z
1/2-x,1/2+y,z
1/2+x,1/2-y,1/2+z
loop_
_atom_site_type_symbol
_atom_site_label
_atom_site_fract_x
_atom_site_fract_y
_atom_site_fract_z
Si Si1 0.403406 0.723363 0.513161
Si Si2 0.178339 0.617988 0.959092
Si Si3 0.109832 0.034834 0.081647
Si Si4 0.288059 0.195730 0.188246
Si Si5 0.061385 0.490831 0.923105
Si Si6 0.917021 0.353823 0.810080
Si Si7 0.934912 0.026881 0.808444
Si Si8 0.772746 0.962959 0.119896
O O1 0.338599 0.758577 0.498960
O O2 0.409795 0.612355 0.559717
O O3 0.418287 0.644539 0.458117
O O4 0.431089 0.861357 0.535905
O O5 0.117738 0.578730 0.932885
O O6 0.225156 0.615379 0.914365
O O7 0.195188 0.500000 0.000000
O O8 0.093148 0.051846 0.142972
O O9 0.176958 0.020792 0.083245
O O10 0.268090 0.206816 0.250000
O O11 0.350298 0.135463 0.188944
O O12 0.293140 0.345702 0.161199
O O13 0.252080 0.091270 0.152629
O O14 0.062242 0.434275 0.862178
O O15 0.000000 0.553747 0.932228
O O16 0.936025 0.396705 0.750000
O O17 0.930646 0.191766 0.815464
O O18 0.910149 0.994762 0.750000
O O19 0.000000 0.992834 0.808429
#
# Coordination Sequence:
#
# PCOD9471472 Si02
#       8
#    16  16  16  16  16  16  16  16
#     4  10  23  40  56  88 122 157 202 248 305 363
#     4  10  24  40  59  86 116 157 207 250 300 362
#     4  11  23  38  60  89 122 161 201 247 306 366
#     4  11  23  39  63  93 125 162 202 249 306 369
#     4  11  21  40  64  88 121 159 202 253 308 364
#     4  10  19  36  60  88 119 151 199 252 301 359
#     4  10  20  36  60  88 118 154 198 250 302 354
#     4  12  23  40  63  88 125 163 204 253 307 360
#
# _framework density 22.052105000000001
#
# number of rings (size 3 to 8) (size 9 to 14) (size 15 to 20)
#    0.000    1.375    3.750    1.500    3.500    4.500 
#    0.000    1.250    0.000    0.750    0.000    0.000 
#    0.000    0.000    0.000    0.000    0.000    0.000 
#
# Total GULP energy -357191.688798 kJ/mol
# GULP energy per Si atom -5581.120137 kJ/mol
# Density = 2.200191 g / cm^3
# Si number density = 22.052105 Si / 1000 Ang^3
#
#
#
# Elastic Constant Matrix: (Units=GPa)
#
#
# Indices 1 2 3 4 5 6 
#
# 1 80.7420 -6.5827 21.7760 0.0000 0.0000 0.0000
# 2 -6.5827 39.5130 8.4798 0.0000 0.0000 0.0000
# 3 21.7760 8.4798 136.3196 0.0000 0.0000 0.0000
# 4 0.0000 0.0000 0.0000 26.0630 0.0000 0.0000
# 5 0.0000 0.0000 0.0000 0.0000 10.9267 0.0000
# 6 0.0000 0.0000 0.0000 0.0000 0.0000 0.5654
#
#
#
# Elastic Compliance Matrix: (Units=1/GPa)
#
#
# Indices 1 2 3 4 5 6 
#
# 1 0.013219 0.002691 -0.002279 0.000000 0.000000 0.000000
# 2 0.002691 0.026198 -0.002060 0.000000 0.000000 0.000000
# 3 -0.002279 -0.002060 0.007828 0.000000 0.000000 0.000000
# 4 0.000000 0.000000 0.000000 0.038369 0.000000 0.000000
# 5 0.000000 0.000000 0.000000 0.000000 0.091519 0.000000
# 6 0.000000 0.000000 0.000000 0.000000 0.000000 1.768663
#
#
# Mechanical properties :
#
#
# Convention : Reuss Voigt Hill
#
# Bulk Modulus (GPa) = 22.75263 33.76897 28.26080
# Shear Modulus (GPa) = 2.54616 23.03779 12.79198
#
# Velocity S-wave (km/s) = 1.07569 3.23569 2.41110
# Velocity P-wave (km/s) = 3.44716 5.41351 4.53811
#
# Compressibility (1/GPa) = 0.04395096
#
# Stress axis : x y z
#
# Youngs Moduli (GPa) = 75.64744 38.17015 127.74839
#
# Poissons Ratio (x) = -0.10273 0.29115
# Poissons Ratio (y) = -0.20360 0.26311
# Poissons Ratio (z) = 0.17241 0.07862
#
# Static dielectric constant tensor:
#      x y z
#    x 1.821930 0.000000 0.000000 
#    y 0.000000 1.827290 0.000000 
#    z 0.000000 0.000000 1.840580 
# 
# From -- ./inp_files/65184.got.cif
#   From: 2010.05.17/outbox.cif.g08.bks.cpg/sg63_33_cif.got.tgz:65184.got - 2010.06.03 15:47:04.
