data_PCOD9471262
_publ_section_title
;
Structure prediction by ZEFSAII (Michael W. Deem and Ramdas Pophale) SiO2 
 PCOD9471262
Probable space group: C M C M
;
_chemical_formula_sum "Si O2"
_cell_formula_units_Z 116
_cell_length_a 7.456799
_cell_length_b 29.373463
_cell_length_c 24.625366
_cell_angle_alpha 90.000000
_cell_angle_beta 90.000000
_cell_angle_gamma 90.000000
_cell_volume 5393.743400
_symmetry_space_group_name_H-M "C M C M"
_symmetry_group_IT_number 63
_symmetry_cell_setting 'orthorhombic'
loop_
_space_group_symop_operation_xyz
x,y,z
-x,-y,1/2+z
x,-y,-z
-x,y,1/2-z
-x,-y,-z
x,y,1/2-z
-x,y,z
x,-y,1/2+z
1/2+x,1/2+y,z
1/2-x,1/2-y,1/2+z
1/2+x,1/2-y,-z
1/2-x,1/2+y,1/2-z
1/2-x,1/2-y,-z
1/2+x,1/2+y,1/2-z
1/2-x,1/2+y,z
1/2+x,1/2-y,1/2+z
loop_
_atom_site_type_symbol
_atom_site_label
_atom_site_fract_x
_atom_site_fract_y
_atom_site_fract_z
Si Si1 0.781731 0.829456 0.104429
Si Si2 0.289622 0.578167 0.097484
Si Si3 0.786270 0.273224 0.610350
Si Si4 0.285192 0.657675 0.018178
Si Si5 0.216715 0.352847 0.811453
Si Si6 0.710338 0.077245 0.654162
Si Si7 0.298165 0.016250 0.942976
Si Si8 0.500000 0.439112 0.250000
O O1 0.719643 0.778036 0.116101
O O2 0.719979 0.868391 0.145279
O O3 0.000000 0.829673 0.105043
O O4 0.720634 0.840947 0.043203
O O5 0.500000 0.570974 0.087417
O O6 0.218800 0.614701 0.053294
O O7 0.268088 0.602449 0.155146
O O8 0.198851 0.529759 0.092147
O O9 0.754845 0.296504 0.551886
O O10 0.716401 0.309420 0.654292
O O11 0.000000 0.270955 0.617449
O O12 0.500000 0.653736 0.016667
O O13 0.280507 0.352888 0.750000
O O14 0.000000 0.350889 0.810978
O O15 0.500000 0.064269 0.662066
O O16 0.841864 0.062749 0.702170
O O17 0.775864 0.054795 0.596846
O O18 0.500000 0.031602 0.957086
O O19 0.212448 0.000000 0.000000
#
# Coordination Sequence:
#
# PCOD9471262 Si02
#       8
#    16  16  16  16  16  16  16   4
#     4  10  19  35  56  88 121 160 205 256 314 373
#     4  10  20  33  54  84 114 152 192 235 296 364
#     4   9  18  31  51  82 116 158 204 249 310 377
#     4   9  18  31  51  82 126 162 196 245 307 378
#     4   9  18  35  53  74 107 150 197 248 296 352
#     4  11  25  45  70  96 125 169 219 265 325 385
#     4  10  22  41  65  97 129 156 197 253 312 387
#     4  12  26  52  70  86 128 172 214 286 320 354
#
# _framework density 21.506398999999998
#
# number of rings (size 3 to 8) (size 9 to 14) (size 15 to 20)
#    0.000    2.207    0.690    1.862    0.966    2.207 
#    2.483    0.000    0.000    0.000    0.000    0.000 
#    0.000    0.000    0.000    0.000    0.000    0.000 
#
# Total GULP energy -323367.509680 kJ/mol
# GULP energy per Si atom -5575.301891 kJ/mol
# Density = 2.145745 g / cm^3
# Si number density = 21.506399 Si / 1000 Ang^3
#
#
#
# Elastic Constant Matrix: (Units=GPa)
#
#
# Indices 1 2 3 4 5 6 
#
# 1 96.0352 2.1580 18.9427 0.0000 0.0000 0.0000
# 2 2.1580 78.4220 6.1677 0.0000 0.0000 0.0000
# 3 18.9427 6.1677 106.9558 0.0000 0.0000 0.0000
# 4 0.0000 0.0000 0.0000 7.5047 0.0000 0.0000
# 5 0.0000 0.0000 0.0000 0.0000 21.0071 0.0000
# 6 0.0000 0.0000 0.0000 0.0000 0.0000 -110.7999
#
#
#
# Elastic Compliance Matrix: (Units=1/GPa)
#
#
# Indices 1 2 3 4 5 6 
#
# 1 0.010791 -0.000147 -0.001903 0.000000 0.000000 0.000000
# 2 -0.000147 0.012812 -0.000713 0.000000 0.000000 0.000000
# 3 -0.001903 -0.000713 0.009728 0.000000 0.000000 0.000000
# 4 0.000000 0.000000 0.000000 0.133250 0.000000 0.000000
# 5 0.000000 0.000000 0.000000 0.000000 0.047603 0.000000
# 6 0.000000 0.000000 0.000000 0.000000 0.000000 -0.009025
#
#
# Mechanical properties :
#
#
# Convention : Reuss Voigt Hill
#
# Bulk Modulus (GPa) = 35.96435 37.32775 36.64605
# Shear Modulus (GPa) = 22.73219 0.48537 11.60878
#
# Velocity S-wave (km/s) = 3.25468 0.47558 2.32584
# Velocity P-wave (km/s) = 5.55723 4.20664 4.92842
#
# Compressibility (1/GPa) = 0.02780531
#
# Stress axis : x y z
#
# Youngs Moduli (GPa) = 92.66578 78.05404 102.79874
#
# Poissons Ratio (x) = 0.01150 0.19560
# Poissons Ratio (y) = 0.01365 0.07326
# Poissons Ratio (z) = 0.17632 0.05563
#
# Static dielectric constant tensor:
#      x y z
#    x 1.820810 0.000000 0.000000 
#    y 0.000000 1.772060 0.000000 
#    z 0.000000 0.000000 1.763780 
# 
# From -- ./inp_files/60627.got.cif
#   From: 2010.05.17/outbox.cif.g08.bks.cpg/sg63_31_cif.got.tgz:60627.got - 2010.06.03 15:47:04.
