data_PCOD9471985
_publ_section_title
;
Structure prediction by ZEFSAII (Michael W. Deem and Ramdas Pophale) SiO2 
 PCOD9471985
Probable space group: C M C M
;
_chemical_formula_sum "Si O2"
_cell_formula_units_Z 112
_cell_length_a 14.668776
_cell_length_b 26.075534
_cell_length_c 13.890347
_cell_angle_alpha 90.000000
_cell_angle_beta 90.000000
_cell_angle_gamma 90.000000
_cell_volume 5313.004490
_symmetry_space_group_name_H-M "C M C M"
_symmetry_group_IT_number 63
_symmetry_cell_setting 'orthorhombic'
loop_
_space_group_symop_operation_xyz
x,y,z
-x,-y,1/2+z
x,-y,-z
-x,y,1/2-z
-x,-y,-z
x,y,1/2-z
-x,y,z
x,-y,1/2+z
1/2+x,1/2+y,z
1/2-x,1/2-y,1/2+z
1/2+x,1/2-y,-z
1/2-x,1/2+y,1/2-z
1/2-x,1/2-y,-z
1/2+x,1/2+y,1/2-z
1/2-x,1/2+y,z
1/2+x,1/2-y,1/2+z
loop_
_atom_site_type_symbol
_atom_site_label
_atom_site_fract_x
_atom_site_fract_y
_atom_site_fract_z
Si Si1 0.394836 0.488104 0.865564
Si Si2 0.715282 0.133187 0.637276
Si Si3 0.394271 0.212260 0.521656
Si Si4 0.799387 0.649754 0.139597
Si Si5 0.288828 0.053016 0.030411
Si Si6 0.898355 0.184789 0.361339
Si Si7 0.595925 0.611019 0.634679
O O1 0.383804 0.479856 0.750000
O O2 0.500000 0.472398 0.890535
O O3 0.310087 0.462771 0.922389
O O4 0.391452 0.549983 0.882964
O O5 0.709090 0.121714 0.750000
O O6 0.645059 0.175789 0.605364
O O7 0.707354 0.084154 0.569421
O O8 0.819897 0.147346 0.610970
O O9 0.500000 0.201361 0.503308
O O10 0.337858 0.194647 0.428236
O O11 0.387604 0.269326 0.562998
O O12 0.821700 0.659068 0.250000
O O13 0.832035 0.594040 0.103769
O O14 0.689205 0.648870 0.128402
O O15 0.334606 0.000000 0.000000
O O16 0.893536 0.204567 0.250000
O O17 0.000000 0.161808 0.370788
O O18 0.590031 0.613829 0.750000
O O19 0.500000 0.627287 0.591146
#
# Coordination Sequence:
#
# PCOD9471985 Si02
#       7
#    16  16  16  16  16  16  16
#     4   9  17  29  46  70 103 146 194 236 276 337
#     4  10  20  33  51  77 107 143 189 242 295 349
#     4  10  21  38  62  89 114 148 198 250 301 354
#     4  10  22  38  59  89 123 158 197 244 297 356
#     4  11  21  32  50  78 112 153 197 236 286 348
#     4   9  18  36  63  93 125 156 187 233 292 356
#     4   8  14  26  44  68 102 143 182 221 272 336
#
# _framework density 21.080351
#
# number of rings (size 3 to 8) (size 9 to 14) (size 15 to 20)
#    0.000    2.429    1.429    2.143    0.000    3.143 
#    0.000    3.571    0.000    7.714    0.000   10.000 
#    0.000    0.000    0.000    0.000    0.000    0.000 
#
# Total GULP energy -312056.830067 kJ/mol
# GULP energy per Si atom -5572.443394 kJ/mol
# Density = 2.103237 g / cm^3
# Si number density = 21.080351 Si / 1000 Ang^3
#
#
#
# Elastic Constant Matrix: (Units=GPa)
#
#
# Indices 1 2 3 4 5 6 
#
# 1 44.6890 17.0167 15.6473 0.0000 0.0000 0.0000
# 2 17.0167 39.3948 15.6446 0.0000 0.0000 0.0000
# 3 15.6473 15.6446 130.1466 0.0000 0.0000 0.0000
# 4 0.0000 0.0000 0.0000 14.7149 0.0000 0.0000
# 5 0.0000 0.0000 0.0000 0.0000 21.1292 0.0000
# 6 0.0000 0.0000 0.0000 0.0000 0.0000 15.6167
#
#
#
# Elastic Compliance Matrix: (Units=1/GPa)
#
#
# Indices 1 2 3 4 5 6 
#
# 1 0.027247 -0.010993 -0.001954 0.000000 0.000000 0.000000
# 2 -0.010993 0.031092 -0.002416 0.000000 0.000000 0.000000
# 3 -0.001954 -0.002416 0.008209 0.000000 0.000000 0.000000
# 4 0.000000 0.000000 0.000000 0.067958 0.000000 0.000000
# 5 0.000000 0.000000 0.000000 0.000000 0.047328 0.000000
# 6 0.000000 0.000000 0.000000 0.000000 0.000000 0.064034
#
#
# Mechanical properties :
#
#
# Convention : Reuss Voigt Hill
#
# Bulk Modulus (GPa) = 27.91647 34.53864 31.22756
# Shear Modulus (GPa) = 17.32885 21.35361 19.34123
#
# Velocity S-wave (km/s) = 2.87023 3.18616 3.03231
# Velocity P-wave (km/s) = 4.92503 5.47315 5.20631
#
# Compressibility (1/GPa) = 0.03582114
#
# Stress axis : x y z
#
# Youngs Moduli (GPa) = 36.70097 32.16254 121.81725
#
# Poissons Ratio (x) = 0.35358 0.23808
# Poissons Ratio (y) = 0.40347 0.29429
# Poissons Ratio (z) = 0.07173 0.07770
#
# Static dielectric constant tensor:
#      x y z
#    x 1.817070 0.000000 0.000000 
#    y 0.000000 1.776610 0.000000 
#    z 0.000000 0.000000 1.783690 
# 
# From -- ./inp_files/32510.got.cif
#   From: 2010.05.17/outbox.cif.g08.bks.cpg/sg63_17_cif.got.tgz:32510.got - 2010.06.03 15:47:04.
