data_PCOD9471355
_publ_section_title
;
Structure prediction by ZEFSAII (Michael W. Deem and Ramdas Pophale) SiO2 
 PCOD9471355
Probable space group: C M C M
;
_chemical_formula_sum "Si O2"
_cell_formula_units_Z 116
_cell_length_a 17.516977
_cell_length_b 18.371290
_cell_length_c 17.909372
_cell_angle_alpha 90.000000
_cell_angle_beta 90.000000
_cell_angle_gamma 90.000000
_cell_volume 5763.405411
_symmetry_space_group_name_H-M "C M C M"
_symmetry_group_IT_number 63
_symmetry_cell_setting 'orthorhombic'
loop_
_space_group_symop_operation_xyz
x,y,z
-x,-y,1/2+z
x,-y,-z
-x,y,1/2-z
-x,-y,-z
x,y,1/2-z
-x,y,z
x,-y,1/2+z
1/2+x,1/2+y,z
1/2-x,1/2-y,1/2+z
1/2+x,1/2-y,-z
1/2-x,1/2+y,1/2-z
1/2-x,1/2-y,-z
1/2+x,1/2+y,1/2-z
1/2-x,1/2+y,z
1/2+x,1/2-y,1/2+z
loop_
_atom_site_type_symbol
_atom_site_label
_atom_site_fract_x
_atom_site_fract_y
_atom_site_fract_z
Si Si1 0.153063 0.583410 0.981453
Si Si2 0.000000 0.383296 0.750000
Si Si3 0.820259 0.056701 0.556958
Si Si4 0.341697 0.676671 0.664455
Si Si5 0.085808 0.179994 0.340574
Si Si6 0.371555 0.155625 0.130596
Si Si7 0.657020 0.836285 0.335300
Si Si8 0.784508 0.928897 0.662437
O O1 0.246195 0.590200 0.984990
O O2 0.132674 0.606136 0.897593
O O3 0.134656 0.500000 0.000000
O O4 0.117286 0.635130 0.043979
O O5 0.933901 0.378197 0.815290
O O6 0.865810 0.118206 0.601600
O O7 0.859203 0.000000 0.500000
O O8 0.782668 0.005090 0.620242
O O9 0.365481 0.659463 0.750000
O O10 0.367842 0.757958 0.644808
O O11 0.248845 0.674107 0.663123
O O12 0.084235 0.175584 0.250000
O O13 0.119524 0.259355 0.356593
O O14 0.143579 0.117905 0.366035
O O15 0.000000 0.171476 0.368671
O O16 0.290548 0.119298 0.151700
O O17 0.635643 0.855229 0.250000
O O18 0.794234 0.943212 0.750000
#
# Coordination Sequence:
#
# PCOD9471355 Si02
#       8
#    16   4  16  16  16  16  16  16
#     4  10  21  38  59  93 127 163 212 271 318 383
#     4  12  28  44  66  96 126 168 224 270 314 396
#     4  10  20  34  58  96 128 159 214 261 319 380
#     4  10  19  35  60  93 124 165 216 268 312 383
#     4   9  18  33  58  90 124 155 201 259 314 375
#     4  12  22  41  66  88 126 169 220 267 321 380
#     4   9  18  33  58  90 123 164 207 259 317 384
#     4  11  19  35  64  92 120 165 210 260 315 386
#
# _framework density 20.126991
#
# number of rings (size 3 to 8) (size 9 to 14) (size 15 to 20)
#    0.000    1.793    5.517    0.414    0.000    3.862 
#    2.483    0.345    1.517    0.414    0.000    0.000 
#    0.000    0.000    0.000    0.000    0.000    0.000 
#
# Total GULP energy -323135.033357 kJ/mol
# GULP energy per Si atom -5571.293679 kJ/mol
# Density = 2.008118 g / cm^3
# Si number density = 20.126991 Si / 1000 Ang^3
#
#
#
# Elastic Constant Matrix: (Units=GPa)
#
#
# Indices 1 2 3 4 5 6 
#
# 1 46.5529 -0.8967 6.8285 0.0000 0.0000 0.0000
# 2 -0.8967 44.5933 32.4982 0.0000 0.0000 0.0000
# 3 6.8285 32.4982 119.3282 0.0000 0.0000 0.0000
# 4 0.0000 0.0000 0.0000 35.9770 0.0000 0.0000
# 5 0.0000 0.0000 0.0000 0.0000 6.4472 0.0000
# 6 0.0000 0.0000 0.0000 0.0000 0.0000 -3.3401
#
#
#
# Elastic Compliance Matrix: (Units=1/GPa)
#
#
# Indices 1 2 3 4 5 6 
#
# 1 0.021763 0.001678 -0.001702 0.000000 0.000000 0.000000
# 2 0.001678 0.028107 -0.007751 0.000000 0.000000 0.000000
# 3 -0.001702 -0.007751 0.010589 0.000000 0.000000 0.000000
# 4 0.000000 0.000000 0.000000 0.027796 0.000000 0.000000
# 5 0.000000 0.000000 0.000000 0.000000 0.155107 0.000000
# 6 0.000000 0.000000 0.000000 0.000000 0.000000 -0.299392
#
#
# Mechanical properties :
#
#
# Convention : Reuss Voigt Hill
#
# Bulk Modulus (GPa) = 22.26737 31.92606 27.09671
# Shear Modulus (GPa) = -195.99182 19.28643 -88.35269
#
# Velocity S-wave (km/s) = -9.87871 3.09890 -6.63272
# Velocity P-wave (km/s) = 10.91014 5.35733 6.72050
#
# Compressibility (1/GPa) = 0.04490877
#
# Stress axis : x y z
#
# Youngs Moduli (GPa) = 45.94962 35.57801 94.44149
#
# Poissons Ratio (x) = -0.05971 0.16078
# Poissons Ratio (y) = -0.07712 0.73200
# Poissons Ratio (z) = 0.07823 0.27576
#
# Static dielectric constant tensor:
#      x y z
#    x 1.692930 0.000000 0.000000 
#    y 0.000000 1.712540 0.000000 
#    z 0.000000 0.000000 1.755540 
# 
# From -- ./inp_files/45909.got.cif
#   From: 2010.05.17/outbox.cif.g08.bks.cpg/sg63_23_cif.got.tgz:45909.got - 2010.06.03 15:47:04.
