data_PCOD9471962
_publ_section_title
;
Structure prediction by ZEFSAII (Michael W. Deem and Ramdas Pophale) SiO2 
 PCOD9471962
Probable space group: C M C M
;
_chemical_formula_sum "Si O2"
_cell_formula_units_Z 96
_cell_length_a 22.170204
_cell_length_b 22.611187
_cell_length_c 8.903724
_cell_angle_alpha 90.000000
_cell_angle_beta 90.000000
_cell_angle_gamma 90.000000
_cell_volume 4463.389015
_symmetry_space_group_name_H-M "C M C M"
_symmetry_group_IT_number 63
_symmetry_cell_setting 'orthorhombic'
loop_
_space_group_symop_operation_xyz
x,y,z
-x,-y,1/2+z
x,-y,-z
-x,y,1/2-z
-x,-y,-z
x,y,1/2-z
-x,y,z
x,-y,1/2+z
1/2+x,1/2+y,z
1/2-x,1/2-y,1/2+z
1/2+x,1/2-y,-z
1/2-x,1/2+y,1/2-z
1/2-x,1/2-y,-z
1/2+x,1/2+y,1/2-z
1/2-x,1/2+y,z
1/2+x,1/2-y,1/2+z
loop_
_atom_site_type_symbol
_atom_site_label
_atom_site_fract_x
_atom_site_fract_y
_atom_site_fract_z
Si Si1 0.185755 0.934899 0.927527
Si Si2 0.565206 0.895360 0.431518
Si Si3 0.066234 0.933760 0.429948
Si Si4 0.687101 0.241005 0.582832
Si Si5 0.934194 0.263993 0.929465
Si Si6 0.193902 0.400050 0.081457
O O1 0.178743 0.937978 0.750000
O O2 0.126115 0.905460 0.999755
O O3 0.249441 0.907514 0.974126
O O4 0.188459 0.000000 0.000000
O O5 0.567663 0.885529 0.250000
O O6 0.500000 0.924334 0.463526
O O7 0.564076 0.832449 0.516662
O O8 0.629100 0.925538 0.470155
O O9 0.072894 0.937362 0.250000
O O10 0.000000 0.907079 0.461612
O O11 0.064236 0.000000 0.500000
O O12 0.689794 0.266631 0.750000
O O13 0.750000 0.250000 0.500000
O O14 0.626544 0.262054 0.500398
O O15 0.682381 0.169955 0.593423
O O16 0.929610 0.261109 0.750000
O O17 0.000000 0.238825 0.974119
O O18 0.208787 0.422558 0.250000
#
# Coordination Sequence:
#
# PCOD9471962 Si02
#       6
#    16  16  16  16  16  16
#     4  11  21  32  49  71  97 128 160 197 237 281
#     4   8  14  26  45  68  93 122 156 195 239 282
#     4   9  16  27  45  68  93 120 152 192 235 278
#     4  10  20  33  51  73  99 130 161 198 241 287
#     4   9  16  26  43  68  96 124 157 198 238 278
#     4   9  18  32  49  71  99 128 158 194 237 284
#
# _framework density 21.508320000000001
#
# number of rings (size 3 to 8) (size 9 to 14) (size 15 to 20)
#    0.000    2.667    0.000    5.000    0.000    5.333 
#    0.000    0.000    0.000    1.500    0.000    7.000 
#    0.000    0.000    0.000    0.000    0.000    0.000 
#
# Total GULP energy -267486.232021 kJ/mol
# GULP energy per Si atom -5572.629834 kJ/mol
# Density = 2.145937 g / cm^3
# Si number density = 21.508320 Si / 1000 Ang^3
#
#
#
# Elastic Constant Matrix: (Units=GPa)
#
#
# Indices 1 2 3 4 5 6 
#
# 1 264.1675 10.0621 99.6657 0.0000 0.0000 0.0000
# 2 10.0621 35.5337 4.3878 0.0000 0.0000 0.0000
# 3 99.6657 4.3878 118.7809 0.0000 0.0000 0.0000
# 4 0.0000 0.0000 0.0000 9.5326 0.0000 0.0000
# 5 0.0000 0.0000 0.0000 0.0000 29.5088 0.0000
# 6 0.0000 0.0000 0.0000 0.0000 0.0000 12.7009
#
#
#
# Elastic Compliance Matrix: (Units=1/GPa)
#
#
# Indices 1 2 3 4 5 6 
#
# 1 0.005574 -0.001006 -0.004640 0.000000 0.000000 0.000000
# 2 -0.001006 0.028453 -0.000207 0.000000 0.000000 0.000000
# 3 -0.004640 -0.000207 0.012320 0.000000 0.000000 0.000000
# 4 0.000000 0.000000 0.000000 0.104903 0.000000 0.000000
# 5 0.000000 0.000000 0.000000 0.000000 0.033888 0.000000
# 6 0.000000 0.000000 0.000000 0.000000 0.000000 0.078735
#
#
# Mechanical properties :
#
#
# Convention : Reuss Voigt Hill
#
# Bulk Modulus (GPa) = 28.86759 71.85704 50.36232
# Shear Modulus (GPa) = 17.41392 30.63955 24.02674
#
# Velocity S-wave (km/s) = 2.84850 3.77841 3.34592
# Velocity P-wave (km/s) = 4.92639 7.24684 6.19621
#
# Compressibility (1/GPa) = 0.03464092
#
# Stress axis : x y z
#
# Youngs Moduli (GPa) = 179.38985 35.14610 81.16886
#
# Poissons Ratio (x) = 0.03534 0.37664
# Poissons Ratio (y) = 0.18038 0.01683
# Poissons Ratio (z) = 0.83241 0.00729
#
# Static dielectric constant tensor:
#      x y z
#    x 1.888540 0.000000 0.000000 
#    y 0.000000 1.850300 0.000000 
#    z 0.000000 0.000000 1.739410 
# 
# From -- ./inp_files/8582.got.cif
#   From: 2010.05.17/outbox.cif.g08.bks.cpg/sg63_5_cif.got.tgz:8582.got - 2010.06.03 15:47:04.
