data_PCOD9471342
_publ_section_title
;
Structure prediction by ZEFSAII (Michael W. Deem and Ramdas Pophale) SiO2 
 PCOD9471342
Probable space group: C M C M
;
_chemical_formula_sum "Si O2"
_cell_formula_units_Z 96
_cell_length_a 11.957294
_cell_length_b 18.448550
_cell_length_c 22.886074
_cell_angle_alpha 90.000000
_cell_angle_beta 90.000000
_cell_angle_gamma 90.000000
_cell_volume 5048.547457
_symmetry_space_group_name_H-M "C M C M"
_symmetry_group_IT_number 63
_symmetry_cell_setting 'orthorhombic'
loop_
_space_group_symop_operation_xyz
x,y,z
-x,-y,1/2+z
x,-y,-z
-x,y,1/2-z
-x,-y,-z
x,y,1/2-z
-x,y,z
x,-y,1/2+z
1/2+x,1/2+y,z
1/2-x,1/2-y,1/2+z
1/2+x,1/2-y,-z
1/2-x,1/2+y,1/2-z
1/2-x,1/2-y,-z
1/2+x,1/2+y,1/2-z
1/2-x,1/2+y,z
1/2+x,1/2-y,1/2+z
loop_
_atom_site_type_symbol
_atom_site_label
_atom_site_fract_x
_atom_site_fract_y
_atom_site_fract_z
Si Si1 0.500000 0.020080 0.180939
Si Si2 0.131208 0.581334 0.487769
Si Si3 0.131947 0.682401 0.601940
Si Si4 0.374385 0.435903 0.679775
Si Si5 0.724581 0.820969 0.884025
Si Si6 0.500000 0.193222 0.319323
Si Si7 0.780591 0.437427 0.179552
O O1 0.500000 0.004157 0.250000
O O2 0.500000 0.105589 0.176046
O O3 0.388484 0.983352 0.157666
O O4 0.174615 0.500000 0.500000
O O5 0.139191 0.630879 0.545418
O O6 0.188409 0.625599 0.435988
O O7 0.000000 0.573697 0.472148
O O8 0.192645 0.758736 0.593271
O O9 0.199548 0.640751 0.652657
O O10 0.000000 0.690686 0.616725
O O11 0.376508 0.436544 0.750000
O O12 0.500000 0.424387 0.657737
O O13 0.291901 0.372009 0.660774
O O14 0.324950 0.514057 0.661344
O O15 0.614466 0.786841 0.852893
O O16 0.500000 0.212479 0.250000
O O17 0.780571 0.433628 0.250000
#
# Coordination Sequence:
#
# PCOD9471342 Si02
#       7
#     8  16  16  16  16   8  16
#     4   9  16  30  57  87 111 143 191 248 290 338
#     4  10  22  40  66  93 113 150 203 258 301 353
#     4  11  24  39  60  90 123 157 200 249 306 364
#     4  10  21  37  59  87 120 159 202 244 298 363
#     4  12  22  39  60  86 125 163 193 247 305 364
#     4  11  22  36  60  92 121 158 207 248 297 360
#     4  10  19  35  60  87 118 155 199 252 299 351
#
# _framework density 19.015370000000001
#
# number of rings (size 3 to 8) (size 9 to 14) (size 15 to 20)
#    0.000    1.500    3.333    2.500    0.000    1.333 
#    1.500    0.000    0.000    3.000    0.000    0.000 
#    0.000    0.000    0.000    0.000    0.000    0.000 
#
# Total GULP energy -267968.809743 kJ/mol
# GULP energy per Si atom -5582.683536 kJ/mol
# Density = 1.897209 g / cm^3
# Si number density = 19.015370 Si / 1000 Ang^3
#
#
#
# Elastic Constant Matrix: (Units=GPa)
#
#
# Indices 1 2 3 4 5 6 
#
# 1 107.7981 40.3878 30.6374 0.0000 0.0000 0.0000
# 2 40.3878 99.2532 23.2231 0.0000 0.0000 0.0000
# 3 30.6374 23.2231 49.1546 0.0000 0.0000 0.0000
# 4 0.0000 0.0000 0.0000 24.3154 0.0000 0.0000
# 5 0.0000 0.0000 0.0000 0.0000 14.4325 0.0000
# 6 0.0000 0.0000 0.0000 0.0000 0.0000 32.5067
#
#
#
# Elastic Compliance Matrix: (Units=1/GPa)
#
#
# Indices 1 2 3 4 5 6 
#
# 1 0.012331 -0.003620 -0.005976 0.000000 0.000000 0.000000
# 2 -0.003620 0.012390 -0.003598 0.000000 0.000000 0.000000
# 3 -0.005976 -0.003598 0.025768 0.000000 0.000000 0.000000
# 4 0.000000 0.000000 0.000000 0.041126 0.000000 0.000000
# 5 0.000000 0.000000 0.000000 0.000000 0.069288 0.000000
# 6 0.000000 0.000000 0.000000 0.000000 0.000000 0.030763
#
#
# Mechanical properties :
#
#
# Convention : Reuss Voigt Hill
#
# Bulk Modulus (GPa) = 41.48780 49.41138 45.44959
# Shear Modulus (GPa) = 22.11544 25.04811 23.58178
#
# Velocity S-wave (km/s) = 3.41402 3.63334 3.52539
# Velocity P-wave (km/s) = 6.11605 6.60628 6.36589
#
# Compressibility (1/GPa) = 0.02410347
#
# Stress axis : x y z
#
# Youngs Moduli (GPa) = 81.09597 80.71132 38.80742
#
# Poissons Ratio (x) = 0.29214 0.23190
# Poissons Ratio (y) = 0.29353 0.13961
# Poissons Ratio (z) = 0.48461 0.29037
#
# Static dielectric constant tensor:
#      x y z
#    x 1.672970 0.000000 0.000000 
#    y 0.000000 1.643130 0.000000 
#    z 0.000000 0.000000 1.675660 
# 
# From -- ./inp_files/61537.got.cif
#   From: 2010.05.17/outbox.cif.g08.bks.cpg/sg63_31_cif.got.tgz:61537.got - 2010.06.03 15:47:04.
