data_PCOD9471729
_publ_section_title
;
Structure prediction by ZEFSAII (Michael W. Deem and Ramdas Pophale) SiO2 
 PCOD9471729
Probable space group: C M C M
;
_chemical_formula_sum "Si O2"
_cell_formula_units_Z 96
_cell_length_a 20.533882
_cell_length_b 12.647144
_cell_length_c 20.754470
_cell_angle_alpha 90.000000
_cell_angle_beta 90.000000
_cell_angle_gamma 90.000000
_cell_volume 5389.831309
_symmetry_space_group_name_H-M "C M C M"
_symmetry_group_IT_number 63
_symmetry_cell_setting 'orthorhombic'
loop_
_space_group_symop_operation_xyz
x,y,z
-x,-y,1/2+z
x,-y,-z
-x,y,1/2-z
-x,-y,-z
x,y,1/2-z
-x,y,z
x,-y,1/2+z
1/2+x,1/2+y,z
1/2-x,1/2-y,1/2+z
1/2+x,1/2-y,-z
1/2-x,1/2+y,1/2-z
1/2-x,1/2-y,-z
1/2+x,1/2+y,1/2-z
1/2-x,1/2+y,z
1/2+x,1/2-y,1/2+z
loop_
_atom_site_type_symbol
_atom_site_label
_atom_site_fract_x
_atom_site_fract_y
_atom_site_fract_z
Si Si1 0.237684 0.881055 0.572211
Si Si2 0.678126 0.412952 0.378932
Si Si3 0.572317 0.437415 0.677032
Si Si4 0.798087 0.714909 0.825484
Si Si5 0.852219 0.259166 0.522452
Si Si6 0.426624 0.780226 0.399111
O O1 0.223697 0.825841 0.641463
O O2 0.194535 0.808435 0.525156
O O3 0.311267 0.858814 0.549181
O O4 0.212800 0.000088 0.575121
O O5 0.627003 0.477393 0.336883
O O6 0.737215 0.360690 0.340286
O O7 0.640247 0.322397 0.418759
O O8 0.578730 0.394966 0.750000
O O9 0.500000 0.484550 0.671610
O O10 0.575432 0.341562 0.626186
O O11 0.809009 0.725080 0.750000
O O12 0.863990 0.673865 0.860950
O O13 0.911536 0.286402 0.475364
O O14 0.500000 0.819142 0.384706
#
# Coordination Sequence:
#
# PCOD9471729 Si02
#       6
#    16  16  16  16  16  16
#     4   9  18  31  48  70 103 131 162 210 252 296
#     4  11  19  31  53  76 103 135 170 215 253 301
#     4  10  20  32  47  71 105 139 164 198 255 310
#     4  10  20  32  50  76 101 135 177 209 252 304
#     4   9  18  31  47  73  97 131 171 204 251 302
#     4  10  20  34  51  73 104 137 169 210 259 306
#
# _framework density 17.811319000000001
#
# number of rings (size 3 to 8) (size 9 to 14) (size 15 to 20)
#    0.000    2.167    3.333    2.500    0.000    2.333 
#    0.000    1.667    0.000    2.000    0.000    0.000 
#    0.000    0.000    0.000    0.000    0.000    0.000 
#
# Total GULP energy -267292.150129 kJ/mol
# GULP energy per Si atom -5568.586461 kJ/mol
# Density = 1.777078 g / cm^3
# Si number density = 17.811319 Si / 1000 Ang^3
#
#
#
# Elastic Constant Matrix: (Units=GPa)
#
#
# Indices 1 2 3 4 5 6 
#
# 1 115.1093 18.8976 37.3457 0.0000 0.0000 0.0000
# 2 18.8976 20.9015 1.9987 0.0000 0.0000 0.0000
# 3 37.3457 1.9987 69.8381 0.0000 0.0000 0.0000
# 4 0.0000 0.0000 0.0000 11.1822 0.0000 0.0000
# 5 0.0000 0.0000 0.0000 0.0000 22.2223 0.0000
# 6 0.0000 0.0000 0.0000 0.0000 0.0000 22.3160
#
#
#
# Elastic Compliance Matrix: (Units=1/GPa)
#
#
# Indices 1 2 3 4 5 6 
#
# 1 0.012517 -0.010706 -0.006387 0.000000 0.000000 0.000000
# 2 -0.010706 0.057132 0.004090 0.000000 0.000000 0.000000
# 3 -0.006387 0.004090 0.017617 0.000000 0.000000 0.000000
# 4 0.000000 0.000000 0.000000 0.089428 0.000000 0.000000
# 5 0.000000 0.000000 0.000000 0.000000 0.045000 0.000000
# 6 0.000000 0.000000 0.000000 0.000000 0.000000 0.044811
#
#
# Mechanical properties :
#
#
# Convention : Reuss Voigt Hill
#
# Bulk Modulus (GPa) = 16.32390 35.81479 26.06934
# Shear Modulus (GPa) = 15.97789 20.98455 18.48122
#
# Velocity S-wave (km/s) = 2.99835 3.43615 3.22469
# Velocity P-wave (km/s) = 4.60126 5.99119 5.34163
#
# Compressibility (1/GPa) = 0.06125988
#
# Stress axis : x y z
#
# Youngs Moduli (GPa) = 79.88930 17.50326 56.76240
#
# Poissons Ratio (x) = 0.18740 0.36255
# Poissons Ratio (y) = 0.85533 -0.23217
# Poissons Ratio (z) = 0.51027 -0.07159
#
# Static dielectric constant tensor:
#      x y z
#    x 1.643950 0.000000 0.000000 
#    y 0.000000 1.605720 0.000000 
#    z 0.000000 0.000000 1.648920 
# 
# From -- ./inp_files/57510.got.cif
#   From: 2010.05.17/outbox.cif.g08.bks.cpg/sg63_29_cif.got.tgz:57510.got - 2010.06.03 15:47:04.
