data_PCOD9471045
_publ_section_title
;
Structure prediction by ZEFSAII (Michael W. Deem and Ramdas Pophale) SiO2 
 PCOD9471045
Probable space group: C M C M
;
_chemical_formula_sum "Si O2"
_cell_formula_units_Z 80
_cell_length_a 15.661553
_cell_length_b 18.203897
_cell_length_c 13.555093
_cell_angle_alpha 90.000000
_cell_angle_beta 90.000000
_cell_angle_gamma 90.000000
_cell_volume 3864.574604
_symmetry_space_group_name_H-M "C M C M"
_symmetry_group_IT_number 63
_symmetry_cell_setting 'orthorhombic'
loop_
_space_group_symop_operation_xyz
x,y,z
-x,-y,1/2+z
x,-y,-z
-x,y,1/2-z
-x,-y,-z
x,y,1/2-z
-x,y,z
x,-y,1/2+z
1/2+x,1/2+y,z
1/2-x,1/2-y,1/2+z
1/2+x,1/2-y,-z
1/2-x,1/2+y,1/2-z
1/2-x,1/2-y,-z
1/2+x,1/2+y,1/2-z
1/2-x,1/2+y,z
1/2+x,1/2-y,1/2+z
loop_
_atom_site_type_symbol
_atom_site_label
_atom_site_fract_x
_atom_site_fract_y
_atom_site_fract_z
Si Si1 0.750315 0.439201 0.361028
Si Si2 0.167903 0.175101 0.015118
Si Si3 0.097095 0.456554 0.630997
Si Si4 0.907593 0.960407 0.895300
Si Si5 0.666549 0.793412 0.868199
O O1 0.761302 0.408216 0.250000
O O2 0.718086 0.379867 0.439800
O O3 0.836459 0.479416 0.396032
O O4 0.677384 0.502446 0.352590
O O5 0.124592 0.233480 0.941307
O O6 0.107044 0.124627 0.080869
O O7 0.235906 0.208780 0.092088
O O8 0.096017 0.459903 0.750000
O O9 0.131458 0.374806 0.609551
O O10 0.000000 0.465473 0.597026
O O11 0.000000 0.973049 0.848902
O O12 0.912254 0.000000 0.000000
O O13 0.658993 0.779741 0.750000
#
# Coordination Sequence:
#
# PCOD9471045 Si02
#       5
#    16  16  16  16  16
#     4  10  19  34  55  81 113 146 182 226 274 330
#     4  10  20  34  55  79 109 143 186 226 275 333
#     4   9  18  33  55  82 111 146 184 224 274 327
#     4   9  18  32  51  76 107 138 175 223 271 322
#     4  10  20  35  54  78 107 144 185 230 276 325
#
# _framework density 20.700856000000002
#
# number of rings (size 3 to 8) (size 9 to 14) (size 15 to 20)
#    0.000    2.400    2.000    0.600    0.000    1.200 
#    0.000    2.000    0.000    4.800    0.000    0.000 
#    0.000    0.000    0.000    0.000    0.000    0.000 
#
# Total GULP energy -222878.108881 kJ/mol
# GULP energy per Si atom -5571.952722 kJ/mol
# Density = 2.065374 g / cm^3
# Si number density = 20.700856 Si / 1000 Ang^3
#
#
#
# Elastic Constant Matrix: (Units=GPa)
#
#
# Indices 1 2 3 4 5 6 
#
# 1 79.4947 -0.3613 0.2127 0.0000 0.0000 0.0000
# 2 -0.3613 58.1952 2.2522 0.0000 0.0000 0.0000
# 3 0.2127 2.2522 90.6863 0.0000 0.0000 0.0000
# 4 0.0000 0.0000 0.0000 28.6988 0.0000 0.0000
# 5 0.0000 0.0000 0.0000 0.0000 26.1848 0.0000
# 6 0.0000 0.0000 0.0000 0.0000 0.0000 -6.8242
#
#
#
# Elastic Compliance Matrix: (Units=1/GPa)
#
#
# Indices 1 2 3 4 5 6 
#
# 1 0.012580 0.000079 -0.000031 0.000000 0.000000 0.000000
# 2 0.000079 0.017201 -0.000427 0.000000 0.000000 0.000000
# 3 -0.000031 -0.000427 0.011038 0.000000 0.000000 0.000000
# 4 0.000000 0.000000 0.000000 0.034845 0.000000 0.000000
# 5 0.000000 0.000000 0.000000 0.000000 0.038190 0.000000
# 6 0.000000 0.000000 0.000000 0.000000 0.000000 -0.146538
#
#
# Mechanical properties :
#
#
# Convention : Reuss Voigt Hill
#
# Bulk Modulus (GPa) = 24.96309 25.84260 25.40284
# Shear Modulus (GPa) = -269.21271 24.69672 -122.25799
#
# Velocity S-wave (km/s) = -11.41628 3.45777 -7.69335
# Velocity P-wave (km/s) = 12.71574 5.33409 8.16203
#
# Compressibility (1/GPa) = 0.04005915
#
# Stress axis : x y z
#
# Youngs Moduli (GPa) = 79.49189 58.13755 90.59845
#
# Poissons Ratio (x) = -0.00461 0.00285
# Poissons Ratio (y) = -0.00630 0.03872
# Poissons Ratio (z) = 0.00250 0.02485
#
# Static dielectric constant tensor:
#      x y z
#    x 1.764750 0.000000 0.000000 
#    y 0.000000 1.780070 0.000000 
#    z 0.000000 0.000000 1.800890 
# 
# From -- ./inp_files/31672.got.cif
#   From: 2010.05.17/outbox.cif.g08.bks.cpg/sg63_16_cif.got.tgz:31672.got - 2010.06.03 15:47:04.
