data_PCOD9471902
_publ_section_title
;
Structure prediction by ZEFSAII (Michael W. Deem and Ramdas Pophale) SiO2 
 PCOD9471902
Probable space group: C M C M
;
_chemical_formula_sum "Si O2"
_cell_formula_units_Z 80
_cell_length_a 9.488440
_cell_length_b 26.822602
_cell_length_c 14.823504
_cell_angle_alpha 90.000000
_cell_angle_beta 90.000000
_cell_angle_gamma 90.000000
_cell_volume 3772.650693
_symmetry_space_group_name_H-M "C M C M"
_symmetry_group_IT_number 63
_symmetry_cell_setting 'orthorhombic'
loop_
_space_group_symop_operation_xyz
x,y,z
-x,-y,1/2+z
x,-y,-z
-x,y,1/2-z
-x,-y,-z
x,y,1/2-z
-x,y,z
x,-y,1/2+z
1/2+x,1/2+y,z
1/2-x,1/2-y,1/2+z
1/2+x,1/2-y,-z
1/2-x,1/2+y,1/2-z
1/2-x,1/2-y,-z
1/2+x,1/2+y,1/2-z
1/2-x,1/2+y,z
1/2+x,1/2-y,1/2+z
loop_
_atom_site_type_symbol
_atom_site_label
_atom_site_fract_x
_atom_site_fract_y
_atom_site_fract_z
Si Si1 0.163377 0.236199 0.639436
Si Si2 0.340537 0.481818 0.101652
Si Si3 0.670660 0.627808 0.644596
Si Si4 0.343020 0.074524 0.355041
Si Si5 0.160721 0.167243 0.360672
O O1 0.163242 0.234627 0.750000
O O2 0.217054 0.181737 0.608538
O O3 0.259762 0.282346 0.612235
O O4 0.000000 0.243674 0.612611
O O5 0.500000 0.483460 0.141495
O O6 0.287316 0.425097 0.103771
O O7 0.235006 0.521621 0.143564
O O8 0.352226 0.500000 0.000000
O O9 0.709863 0.625010 0.750000
O O10 0.500000 0.629960 0.639731
O O11 0.358538 0.087989 0.250000
O O12 0.500000 0.072387 0.395404
O O13 0.244473 0.118373 0.393038
O O14 0.156678 0.166785 0.250000
O O15 0.000000 0.165735 0.392797
#
# Coordination Sequence:
#
# PCOD9471902 Si02
#       5
#    16  16  16  16  16
#     4   8  13  23  41  65  92 121 152 186 227 278
#     4  10  20  33  50  72  98 129 164 202 244 289
#     4   8  14  26  46  70  95 125 159 193 232 281
#     4  10  20  33  50  72  97 127 163 200 238 283
#     4   9  16  26  43  69  98 123 148 187 239 286
#
# _framework density 21.205251000000001
#
# number of rings (size 3 to 8) (size 9 to 14) (size 15 to 20)
#    0.000    3.000    0.000    3.000    0.000    4.800 
#    0.000    1.000    0.000    4.800    0.000    0.000 
#    0.000    0.000    0.000    0.000    0.000    0.000 
#
# Total GULP energy -223091.233924 kJ/mol
# GULP energy per Si atom -5577.280848 kJ/mol
# Density = 2.115699 g / cm^3
# Si number density = 21.205251 Si / 1000 Ang^3
#
#
#
# Elastic Constant Matrix: (Units=GPa)
#
#
# Indices 1 2 3 4 5 6 
#
# 1 132.0942 104.5193 4.6596 0.0000 0.0000 0.0000
# 2 104.5193 201.8081 19.2012 0.0000 0.0000 0.0000
# 3 4.6596 19.2012 32.0894 0.0000 0.0000 0.0000
# 4 0.0000 0.0000 0.0000 16.0831 0.0000 0.0000
# 5 0.0000 0.0000 0.0000 0.0000 7.8489 0.0000
# 6 0.0000 0.0000 0.0000 0.0000 0.0000 -0.7113
#
#
#
# Elastic Compliance Matrix: (Units=1/GPa)
#
#
# Indices 1 2 3 4 5 6 
#
# 1 0.012980 -0.006938 0.002267 0.000000 0.000000 0.000000
# 2 -0.006938 0.008963 -0.004356 0.000000 0.000000 0.000000
# 3 0.002267 -0.004356 0.033440 0.000000 0.000000 0.000000
# 4 0.000000 0.000000 0.000000 0.062177 0.000000 0.000000
# 5 0.000000 0.000000 0.000000 0.000000 0.127407 0.000000
# 6 0.000000 0.000000 0.000000 0.000000 0.000000 -1.405928
#
#
# Mechanical properties :
#
#
# Convention : Reuss Voigt Hill
#
# Bulk Modulus (GPa) = 26.78878 69.19466 47.99172
# Shear Modulus (GPa) = -4.42297 20.48491 8.03097
#
# Velocity S-wave (km/s) = -1.44579 3.11147 1.94820
# Velocity P-wave (km/s) = 3.14220 6.75353 5.26705
#
# Compressibility (1/GPa) = 0.03732906
#
# Stress axis : x y z
#
# Youngs Moduli (GPa) = 77.03926 111.56811 29.90424
#
# Poissons Ratio (x) = 0.77411 -0.06779
# Poissons Ratio (y) = 0.53453 0.13025
# Poissons Ratio (z) = -0.17464 0.48596
#
# Static dielectric constant tensor:
#      x y z
#    x 1.758710 0.000000 0.000000 
#    y 0.000000 1.759670 0.000000 
#    z 0.000000 0.000000 1.736020 
# 
# From -- ./inp_files/40495.got.cif
#   From: 2010.05.17/outbox.cif.g08.bks.cpg/sg63_21_cif.got.tgz:40495.got - 2010.06.03 15:47:04.
