data_PCOD9471210
_publ_section_title
;
Structure prediction by ZEFSAII (Michael W. Deem and Ramdas Pophale) SiO2 
 PCOD9471210
Probable space group: C M C M
;
_chemical_formula_sum "Si O2"
_cell_formula_units_Z 88
_cell_length_a 10.719089
_cell_length_b 14.284670
_cell_length_c 29.556649
_cell_angle_alpha 90.000000
_cell_angle_beta 90.000000
_cell_angle_gamma 90.000000
_cell_volume 4525.674166
_symmetry_space_group_name_H-M "C M C M"
_symmetry_group_IT_number 63
_symmetry_cell_setting 'orthorhombic'
loop_
_space_group_symop_operation_xyz
x,y,z
-x,-y,1/2+z
x,-y,-z
-x,y,1/2-z
-x,-y,-z
x,y,1/2-z
-x,y,z
x,-y,1/2+z
1/2+x,1/2+y,z
1/2-x,1/2-y,1/2+z
1/2+x,1/2-y,-z
1/2-x,1/2+y,1/2-z
1/2-x,1/2-y,-z
1/2+x,1/2+y,1/2-z
1/2-x,1/2+y,z
1/2+x,1/2-y,1/2+z
loop_
_atom_site_type_symbol
_atom_site_label
_atom_site_fract_x
_atom_site_fract_y
_atom_site_fract_z
Si Si1 0.000000 0.775145 0.801314
Si Si2 0.231801 0.689898 0.846123
Si Si3 0.637625 0.359147 0.019172
Si Si4 0.000000 0.039054 0.140207
Si Si5 0.756756 0.515751 0.591985
Si Si6 0.000000 0.853888 0.196074
Si Si7 0.280138 0.820579 0.569953
O O1 0.875496 0.715617 0.811008
O O2 0.000000 0.860869 0.836324
O O3 0.000000 0.809427 0.750000
O O4 0.201226 0.591325 0.870784
O O5 0.371334 0.686550 0.825137
O O6 0.233261 0.767957 0.885482
O O7 0.500000 0.399029 0.023326
O O8 0.732627 0.425695 0.046149
O O9 0.639973 0.258361 0.044154
O O10 0.675442 0.344351 0.967526
O O11 0.877099 0.020394 0.110549
O O12 0.000000 0.961489 0.179899
O O13 0.834772 0.421700 0.583361
O O14 0.000000 0.843687 0.250000
#
# Coordination Sequence:
#
# PCOD9471210 Si02
#       7
#     8  16  16   8  16   8  16
#     4  12  23  40  62  93 125 152 194 258 322 369
#     4  10  23  38  63  90 119 160 198 247 307 364
#     4  10  21  34  57  86 117 160 200 251 291 345
#     4  10  19  34  62  92 110 155 205 254 304 364
#     4  10  19  37  58  85 119 156 206 244 293 358
#     4  10  21  42  65  88 116 153 203 256 307 372
#     4  10  21  35  55  86 122 153 203 243 294 352
#
# _framework density 19.444617000000001
#
# number of rings (size 3 to 8) (size 9 to 14) (size 15 to 20)
#    0.000    1.818    2.727    1.364    6.364    0.727 
#    1.636    0.000    0.000    4.364    0.000    0.000 
#    0.000    0.000    0.000    0.000    0.000    0.000 
#
# Total GULP energy -245448.072383 kJ/mol
# GULP energy per Si atom -5578.365281 kJ/mol
# Density = 1.940036 g / cm^3
# Si number density = 19.444617 Si / 1000 Ang^3
#
#
#
# Elastic Constant Matrix: (Units=GPa)
#
#
# Indices 1 2 3 4 5 6 
#
# 1 57.6384 19.7660 19.4693 0.0000 0.0000 0.0000
# 2 19.7660 131.7596 33.8634 0.0000 0.0000 0.0000
# 3 19.4693 33.8634 108.7401 0.0000 0.0000 0.0000
# 4 0.0000 0.0000 0.0000 24.7368 0.0000 0.0000
# 5 0.0000 0.0000 0.0000 0.0000 1.9893 0.0000
# 6 0.0000 0.0000 0.0000 0.0000 0.0000 -28.3928
#
#
#
# Elastic Compliance Matrix: (Units=1/GPa)
#
#
# Indices 1 2 3 4 5 6 
#
# 1 0.019010 -0.002149 -0.002734 0.000000 0.000000 0.000000
# 2 -0.002149 0.008493 -0.002260 0.000000 0.000000 0.000000
# 3 -0.002734 -0.002260 0.010390 0.000000 0.000000 0.000000
# 4 0.000000 0.000000 0.000000 0.040426 0.000000 0.000000
# 5 0.000000 0.000000 0.000000 0.000000 0.502677 0.000000
# 6 0.000000 0.000000 0.000000 0.000000 0.000000 -0.035220
#
#
# Mechanical properties :
#
#
# Convention : Reuss Voigt Hill
#
# Bulk Modulus (GPa) = 42.36277 49.37061 45.86669
# Shear Modulus (GPa) = 8.80389 14.66930 11.73660
#
# Velocity S-wave (km/s) = 2.13014 2.74964 2.45947
# Velocity P-wave (km/s) = 5.28050 5.96039 5.63071
#
# Compressibility (1/GPa) = 0.02360563
#
# Stress axis : x y z
#
# Youngs Moduli (GPa) = 52.60340 117.74662 96.24987
#
# Poissons Ratio (x) = 0.25304 0.26319
# Poissons Ratio (y) = 0.11305 0.21753
# Poissons Ratio (z) = 0.14384 0.26611
#
# Static dielectric constant tensor:
#      x y z
#    x 1.678310 0.000000 0.000000 
#    y 0.000000 1.709190 0.000000 
#    z 0.000000 0.000000 1.657510 
# 
# From -- ./inp_files/68221.got.cif
#   From: 2010.05.17/outbox.cif.g08.bks.cpg/sg63_35_cif.got.tgz:68221.got - 2010.06.03 15:47:04.
