data_PCOD9471435
_publ_section_title
;
Structure prediction by ZEFSAII (Michael W. Deem and Ramdas Pophale) SiO2 
 PCOD9471435
Probable space group: C M C M
;
_chemical_formula_sum "Si O2"
_cell_formula_units_Z 112
_cell_length_a 12.955622
_cell_length_b 12.585131
_cell_length_c 28.383780
_cell_angle_alpha 90.000000
_cell_angle_beta 90.000000
_cell_angle_gamma 90.000000
_cell_volume 4627.924240
_symmetry_space_group_name_H-M "C M C M"
_symmetry_group_IT_number 63
_symmetry_cell_setting 'orthorhombic'
loop_
_space_group_symop_operation_xyz
x,y,z
-x,-y,1/2+z
x,-y,-z
-x,y,1/2-z
-x,-y,-z
x,y,1/2-z
-x,y,z
x,-y,1/2+z
1/2+x,1/2+y,z
1/2-x,1/2-y,1/2+z
1/2+x,1/2-y,-z
1/2-x,1/2+y,1/2-z
1/2-x,1/2-y,-z
1/2+x,1/2+y,1/2-z
1/2-x,1/2+y,z
1/2+x,1/2-y,1/2+z
loop_
_atom_site_type_symbol
_atom_site_label
_atom_site_fract_x
_atom_site_fract_y
_atom_site_fract_z
Si Si1 0.839461 0.376083 0.697077
Si Si2 0.832498 0.586867 0.649639
Si Si3 0.384520 0.764113 0.980368
Si Si4 0.385845 0.320386 0.669657
Si Si5 0.731441 0.105274 0.550141
Si Si6 0.615042 0.366534 0.306667
Si Si7 0.113808 0.088281 0.063904
O O1 0.871188 0.400637 0.750000
O O2 0.873176 0.473463 0.665248
O O3 0.714663 0.364789 0.695310
O O4 0.880743 0.260083 0.684522
O O5 0.878105 0.692502 0.672802
O O6 0.843782 0.600326 0.594176
O O7 0.710369 0.587347 0.663969
O O8 0.500000 0.781005 0.963411
O O9 0.333586 0.867762 0.003478
O O10 0.385793 0.678203 0.023460
O O11 0.308485 0.706923 0.943951
O O12 0.500000 0.352602 0.686209
O O13 0.374548 0.357537 0.615005
O O14 0.802739 0.001723 0.553458
O O15 0.631212 0.381815 0.250000
O O16 0.500000 0.405092 0.319080
O O17 0.000000 0.036936 0.062383
#
# Coordination Sequence:
#
# PCOD9471435 Si02
#       7
#    16  16  16  16  16  16  16
#     4  10  21  38  58  82 114 149 185 229 280 332
#     4  11  21  35  58  85 113 145 186 232 280 331
#     4  10  22  39  58  83 114 149 188 233 282 334
#     4  10  21  37  58  84 115 146 186 236 278 327
#     4  11  21  34  60  86 113 146 188 235 281 333
#     4   9  20  38  56  77 110 150 187 224 272 333
#     4  10  19  36  59  82 108 145 189 228 274 332
#
# _framework density 24.200914000000001
#
# number of rings (size 3 to 8) (size 9 to 14) (size 15 to 20)
#    0.000    1.857    2.857    1.286    0.000    4.286 
#    0.000    0.000    0.000    7.714    0.000    0.000 
#    0.000    0.000    0.000    0.000    0.000    0.000 
#
# Total GULP energy -313381.888763 kJ/mol
# GULP energy per Si atom -5596.105156 kJ/mol
# Density = 2.414583 g / cm^3
# Si number density = 24.200914 Si / 1000 Ang^3
#
#
#
# Elastic Constant Matrix: (Units=GPa)
#
#
# Indices 1 2 3 4 5 6 
#
# 1 103.6806 10.2807 -12.6591 0.0000 0.0000 0.0000
# 2 10.2807 94.8475 4.8832 0.0000 0.0000 0.0000
# 3 -12.6591 4.8832 39.1064 0.0000 0.0000 0.0000
# 4 0.0000 0.0000 0.0000 23.8209 0.0000 0.0000
# 5 0.0000 0.0000 0.0000 0.0000 9.8171 0.0000
# 6 0.0000 0.0000 0.0000 0.0000 0.0000 4.8153
#
#
#
# Elastic Compliance Matrix: (Units=1/GPa)
#
#
# Indices 1 2 3 4 5 6 
#
# 1 0.010195 -0.001283 0.003460 0.000000 0.000000 0.000000
# 2 -0.001283 0.010773 -0.001761 0.000000 0.000000 0.000000
# 3 0.003460 -0.001761 0.026911 0.000000 0.000000 0.000000
# 4 0.000000 0.000000 0.000000 0.041980 0.000000 0.000000
# 5 0.000000 0.000000 0.000000 0.000000 0.101864 0.000000
# 6 0.000000 0.000000 0.000000 0.000000 0.000000 0.207670
#
#
# Mechanical properties :
#
#
# Convention : Reuss Voigt Hill
#
# Bulk Modulus (GPa) = 20.52878 26.96046 23.74462
# Shear Modulus (GPa) = 12.05409 23.36596 17.71003
#
# Velocity S-wave (km/s) = 2.23420 3.11062 2.70810
# Velocity P-wave (km/s) = 3.89315 4.90568 4.42845
#
# Compressibility (1/GPa) = 0.04871210
#
# Stress axis : x y z
#
# Youngs Moduli (GPa) = 98.08975 92.82491 37.15921
#
# Poissons Ratio (x) = 0.11911 -0.12858
# Poissons Ratio (y) = 0.12587 0.06542
# Poissons Ratio (z) = -0.33943 0.16343
#
# Static dielectric constant tensor:
#      x y z
#    x 1.944370 0.000000 0.000000 
#    y 0.000000 1.928140 0.000000 
#    z 0.000000 0.000000 1.921700 
# 
# From -- ./inp_files/73447.got.cif
#   From: 2010.05.17/outbox.cif.g08.bks.cpg/sg63_37_cif.got.tgz:73447.got - 2010.06.03 15:47:04.
