data_PCOD9471749
_publ_section_title
;
Structure prediction by ZEFSAII (Michael W. Deem and Ramdas Pophale) SiO2 
 PCOD9471749
Probable space group: C M C M
;
_chemical_formula_sum "Si O2"
_cell_formula_units_Z 112
_cell_length_a 14.580205
_cell_length_b 23.628606
_cell_length_c 17.261385
_cell_angle_alpha 90.000000
_cell_angle_beta 90.000000
_cell_angle_gamma 90.000000
_cell_volume 5946.718354
_symmetry_space_group_name_H-M "C M C M"
_symmetry_group_IT_number 63
_symmetry_cell_setting 'orthorhombic'
loop_
_space_group_symop_operation_xyz
x,y,z
-x,-y,1/2+z
x,-y,-z
-x,y,1/2-z
-x,-y,-z
x,y,1/2-z
-x,y,z
x,-y,1/2+z
1/2+x,1/2+y,z
1/2-x,1/2-y,1/2+z
1/2+x,1/2-y,-z
1/2-x,1/2+y,1/2-z
1/2-x,1/2-y,-z
1/2+x,1/2+y,1/2-z
1/2-x,1/2+y,z
1/2+x,1/2-y,1/2+z
loop_
_atom_site_type_symbol
_atom_site_label
_atom_site_fract_x
_atom_site_fract_y
_atom_site_fract_z
Si Si1 0.394027 0.500000 0.344622
Si Si2 0.599612 0.148989 0.908118
Si Si3 0.204415 0.884908 0.343737
Si Si4 0.857402 0.766069 0.661798
Si Si5 0.599612 0.148989 0.091882
Si Si6 0.142598 0.233931 0.661798
Si Si7 0.795585 0.884908 0.843737
O O1 0.393866 0.500000 0.250000
O O2 0.500000 0.500000 0.369266
O O3 0.341152 0.443343 0.369286
O O4 0.341152 0.556657 0.369286
O O5 0.500000 0.126563 0.881221
O O6 0.690569 0.122378 0.870632
O O7 0.601095 0.215901 0.888202
O O8 0.605821 0.141620 0.000000
O O9 0.204469 0.882609 0.250000
O O10 0.144541 0.830139 0.369012
O O11 0.893504 0.764589 0.750000
O O12 0.750000 0.750000 0.666431
O O13 0.855459 0.830139 0.630988
O O14 0.500000 0.126562 0.118779
O O15 0.601095 0.215901 0.111799
O O16 0.690569 0.122378 0.129368
O O17 0.106496 0.235411 0.750000
O O18 0.795532 0.882609 0.750000
#
# Coordination Sequence:
#
# PCOD9471749 Si02
#       7
#    16  16  16  16  16  16  16
#     4   9  18  34  56  79 100 124 161 209 254 297
#     4  10  20  32  48  73 104 137 169 202 246 296
#     4   9  18  33  53  76 101 131 166 204 248 295
#     4   8  15  28  47  72  99 127 161 200 242 288
#     4  10  20  32  48  73 104 137 169 202 246 296
#     4   8  15  28  47  72  99 127 161 200 242 288
#     4   9  18  33  53  76 101 131 166 204 248 295
#
# _framework density 18.833917
#
# number of rings (size 3 to 8) (size 9 to 14) (size 15 to 20)
#    0.000    3.000    0.000    2.571    0.000    8.571 
#    0.000    4.286    0.000    6.000    0.000    0.000 
#    0.000    0.000    0.000    0.000    0.000    0.000 
#
# Total GULP energy -311928.260109 kJ/mol
# GULP energy per Si atom -5570.147502 kJ/mol
# Density = 1.879105 g / cm^3
# Si number density = 18.833917 Si / 1000 Ang^3
#
#
#
# Elastic Constant Matrix: (Units=GPa)
#
#
# Indices 1 2 3 4 5 6 
#
# 1 131.0055 61.6685 12.5750 0.0000 0.0000 0.0000
# 2 61.6685 143.3825 7.1400 0.0000 0.0000 0.0000
# 3 12.5750 7.1400 8.1859 0.0000 0.0000 0.0000
# 4 0.0000 0.0000 0.0000 3.0718 0.0000 0.0000
# 5 0.0000 0.0000 0.0000 0.0000 16.8798 0.0000
# 6 0.0000 0.0000 0.0000 0.0000 0.0000 14.4665
#
#
#
# Elastic Compliance Matrix: (Units=1/GPa)
#
#
# Indices 1 2 3 4 5 6 
#
# 1 0.010759 -0.003977 -0.013059 0.000000 0.000000 0.000000
# 2 -0.003977 0.008761 -0.001532 0.000000 0.000000 0.000000
# 3 -0.013059 -0.001532 0.143557 0.000000 0.000000 0.000000
# 4 0.000000 0.000000 0.000000 0.325537 0.000000 0.000000
# 5 0.000000 0.000000 0.000000 0.000000 0.059243 0.000000
# 6 0.000000 0.000000 0.000000 0.000000 0.000000 0.069125
#
#
# Mechanical properties :
#
#
# Convention : Reuss Voigt Hill
#
# Bulk Modulus (GPa) = 7.94019 49.48231 28.71125
# Shear Modulus (GPa) = 7.18289 20.29633 13.73961
#
# Velocity S-wave (km/s) = 1.95502 3.28632 2.70388
# Velocity P-wave (km/s) = 3.05306 6.38199 5.00255
#
# Compressibility (1/GPa) = 0.12594162
#
# Stress axis : x y z
#
# Youngs Moduli (GPa) = 92.94647 114.13975 6.96586
#
# Poissons Ratio (x) = 0.45394 0.09096
# Poissons Ratio (y) = 0.36966 0.01067
# Poissons Ratio (z) = 1.21375 0.17489
#
# Static dielectric constant tensor:
#      x y z
#    x 1.677880 0.000000 0.000000 
#    y 0.000000 1.670720 0.000000 
#    z 0.000000 0.000000 1.636540 
# 
# From -- ./inp_files/32272.got.cif
#   From: 2010.05.17/outbox.cif.g08.bks.cpg/sg63_17_cif.got.tgz:32272.got - 2010.06.03 15:47:04.
