data_PCOD9471267
_publ_section_title
;
Structure prediction by ZEFSAII (Michael W. Deem and Ramdas Pophale) SiO2 
 PCOD9471267
Probable space group: C M C M
;
_chemical_formula_sum "Si O2"
_cell_formula_units_Z 96
_cell_length_a 7.476098
_cell_length_b 19.948192
_cell_length_c 28.834452
_cell_angle_alpha 90.000000
_cell_angle_beta 90.000000
_cell_angle_gamma 90.000000
_cell_volume 4300.215570
_symmetry_space_group_name_H-M "C M C M"
_symmetry_group_IT_number 63
_symmetry_cell_setting 'orthorhombic'
loop_
_space_group_symop_operation_xyz
x,y,z
-x,-y,1/2+z
x,-y,-z
-x,y,1/2-z
-x,-y,-z
x,y,1/2-z
-x,y,z
x,-y,1/2+z
1/2+x,1/2+y,z
1/2-x,1/2-y,1/2+z
1/2+x,1/2-y,-z
1/2-x,1/2+y,1/2-z
1/2-x,1/2-y,-z
1/2+x,1/2+y,1/2-z
1/2-x,1/2+y,z
1/2+x,1/2-y,1/2+z
loop_
_atom_site_type_symbol
_atom_site_label
_atom_site_fract_x
_atom_site_fract_y
_atom_site_fract_z
Si Si1 0.717523 0.722276 0.599274
Si Si2 0.782070 0.038942 0.801578
Si Si3 0.703539 0.846713 0.955973
Si Si4 0.795534 0.037884 0.391319
Si Si5 0.292058 0.086851 0.548091
Si Si6 0.217781 0.804663 0.301000
O O1 0.500000 0.724101 0.598479
O O2 0.784026 0.777979 0.563161
O O3 0.775444 0.648940 0.583143
O O4 0.775045 0.733161 0.652489
O O5 0.729894 0.016083 0.750000
O O6 0.718929 0.993689 0.844093
O O7 0.729615 0.116990 0.806127
O O8 0.000000 0.038987 0.803726
O O9 0.500000 0.831082 0.970540
O O10 0.700996 0.898605 0.913564
O O11 0.785937 0.885007 0.999853
O O12 0.793593 0.977952 0.428912
O O13 0.000000 0.058017 0.382714
O O14 0.500000 0.068864 0.540698
O O15 0.277385 0.781238 0.250000
O O16 0.000000 0.803593 0.300566
#
# Coordination Sequence:
#
# PCOD9471267 Si02
#       6
#    16  16  16  16  16  16
#     4  10  19  35  57  79 104 136 178 217 253 310
#     4   8  14  27  50  79 104 127 165 216 263 305
#     4  10  23  38  51  74 112 147 171 213 271 314
#     4  11  21  35  57  81 103 136 182 221 254 308
#     4  11  22  36  54  76 106 142 177 217 268 312
#     4   8  13  25  50  80 103 126 164 214 261 305
#
# _framework density 22.324462
#
# number of rings (size 3 to 8) (size 9 to 14) (size 15 to 20)
#    0.000    2.333    1.667    3.000    0.000    4.000 
#    0.000    0.833    0.000    4.500    0.000    0.000 
#    0.000    0.000    0.000    0.000    0.000    0.000 
#
# Total GULP energy -268046.545070 kJ/mol
# GULP energy per Si atom -5584.303022 kJ/mol
# Density = 2.227365 g / cm^3
# Si number density = 22.324462 Si / 1000 Ang^3
#
#
#
# Elastic Constant Matrix: (Units=GPa)
#
#
# Indices 1 2 3 4 5 6 
#
# 1 68.0128 -7.7863 -0.0874 0.0000 0.0000 0.0000
# 2 -7.7863 41.7614 -11.6159 0.0000 0.0000 0.0000
# 3 -0.0874 -11.6159 102.6148 0.0000 0.0000 0.0000
# 4 0.0000 0.0000 0.0000 1.7203 0.0000 0.0000
# 5 0.0000 0.0000 0.0000 0.0000 1.2801 0.0000
# 6 0.0000 0.0000 0.0000 0.0000 0.0000 12.5436
#
#
#
# Elastic Compliance Matrix: (Units=1/GPa)
#
#
# Indices 1 2 3 4 5 6 
#
# 1 0.015035 0.002898 0.000341 0.000000 0.000000 0.000000
# 2 0.002898 0.025283 0.002864 0.000000 0.000000 0.000000
# 3 0.000341 0.002864 0.010070 0.000000 0.000000 0.000000
# 4 0.000000 0.000000 0.000000 0.581301 0.000000 0.000000
# 5 0.000000 0.000000 0.000000 0.000000 0.781198 0.000000
# 6 0.000000 0.000000 0.000000 0.000000 0.000000 0.079722
#
#
# Mechanical properties :
#
#
# Convention : Reuss Voigt Hill
#
# Bulk Modulus (GPa) = 15.97585 19.26777 17.62181
# Shear Modulus (GPa) = 3.33052 18.56738 10.94895
#
# Velocity S-wave (km/s) = 1.22275 2.88706 2.21700
# Velocity P-wave (km/s) = 3.02741 4.44556 3.80317
#
# Compressibility (1/GPa) = 0.06259449
#
# Stress axis : x y z
#
# Youngs Moduli (GPa) = 66.51000 39.55287 99.30758
#
# Poissons Ratio (x) = -0.11463 -0.03385
# Poissons Ratio (y) = -0.19275 -0.28446
# Poissons Ratio (z) = -0.02267 -0.11330
#
# Static dielectric constant tensor:
#      x y z
#    x 1.848880 0.000000 0.000000 
#    y 0.000000 1.762330 0.000000 
#    z 0.000000 0.000000 1.860810 
# 
# From -- ./inp_files/66915.got.cif
#   From: 2010.05.17/outbox.cif.g08.bks.cpg/sg63_34_cif.got.tgz:66915.got - 2010.06.03 15:47:04.
