data_PCOD9471017
_publ_section_title
;
Structure prediction by ZEFSAII (Michael W. Deem and Ramdas Pophale) SiO2 
 PCOD9471017
Probable space group: C M C M
;
_chemical_formula_sum "Si O2"
_cell_formula_units_Z 96
_cell_length_a 26.732692
_cell_length_b 7.710073
_cell_length_c 22.465999
_cell_angle_alpha 90.000000
_cell_angle_beta 90.000000
_cell_angle_gamma 90.000000
_cell_volume 4630.489673
_symmetry_space_group_name_H-M "C M C M"
_symmetry_group_IT_number 63
_symmetry_cell_setting 'orthorhombic'
loop_
_space_group_symop_operation_xyz
x,y,z
-x,-y,1/2+z
x,-y,-z
-x,y,1/2-z
-x,-y,-z
x,y,1/2-z
-x,y,z
x,-y,1/2+z
1/2+x,1/2+y,z
1/2-x,1/2-y,1/2+z
1/2+x,1/2-y,-z
1/2-x,1/2+y,1/2-z
1/2-x,1/2-y,-z
1/2+x,1/2+y,1/2-z
1/2-x,1/2+y,z
1/2+x,1/2-y,1/2+z
loop_
_atom_site_type_symbol
_atom_site_label
_atom_site_fract_x
_atom_site_fract_y
_atom_site_fract_z
Si Si1 0.892491 0.089415 0.320085
Si Si2 0.500000 0.513117 0.818649
Si Si3 0.110820 0.490706 0.349536
Si Si4 0.500000 0.927910 0.679742
Si Si5 0.231271 0.032008 0.250000
Si Si6 0.301234 0.920288 0.435252
Si Si7 0.297316 0.568216 0.121574
Si Si8 0.832486 0.325110 0.750000
O O1 0.889556 0.036711 0.250000
O O2 0.882638 0.295498 0.323903
O O3 0.851905 0.995489 0.362148
O O4 0.947956 0.054122 0.343739
O O5 0.500000 0.451239 0.750000
O O6 0.500000 0.719931 0.818909
O O7 0.148462 0.495920 0.405333
O O8 0.131886 0.637401 0.305444
O O9 0.051099 0.514428 0.352408
O O10 0.500000 0.987289 0.750000
O O11 0.217633 0.128603 0.311363
O O12 0.290872 0.022339 0.250000
O O13 0.201312 0.848895 0.250000
O O14 0.305187 0.713894 0.428194
O O15 0.295648 0.000000 0.500000
O O16 0.250064 0.958261 0.398936
#
# Coordination Sequence:
#
# PCOD9471017 Si02
#       8
#    16   8  16   8   8  16  16   8
#     4  10  19  34  54  84 121 157 193 239 311 384
#     4   9  21  33  53  85 128 160 188 236 302 388
#     4  11  23  37  61  86 124 166 201 253 312 378
#     4  11  21  35  56  91 121 152 198 252 324 381
#     4  12  24  36  58  95 131 156 198 252 326 384
#     4  11  25  43  60  87 122 169 221 259 305 372
#     4  11  23  37  63  87 122 160 202 260 316 379
#     4  12  24  35  58  91 133 159 194 250 322 386
#
# _framework density 20.732150000000001
#
# number of rings (size 3 to 8) (size 9 to 14) (size 15 to 20)
#    0.000    1.167    4.167    2.000    4.667    0.667 
#    0.000    0.417    0.000    0.000    0.000    5.250 
#    0.000    0.000    0.000    0.000    0.000    0.000 
#
# Total GULP energy -267761.937671 kJ/mol
# GULP energy per Si atom -5578.373701 kJ/mol
# Density = 2.068496 g / cm^3
# Si number density = 20.732150 Si / 1000 Ang^3
#
#
#
# Elastic Constant Matrix: (Units=GPa)
#
#
# Indices 1 2 3 4 5 6 
#
# 1 222.1872 28.4052 38.7560 0.0000 0.0000 0.0000
# 2 28.4052 57.4244 3.3743 0.0000 0.0000 0.0000
# 3 38.7560 3.3743 42.9247 0.0000 0.0000 0.0000
# 4 0.0000 0.0000 0.0000 12.7801 0.0000 0.0000
# 5 0.0000 0.0000 0.0000 0.0000 11.0042 0.0000
# 6 0.0000 0.0000 0.0000 0.0000 0.0000 36.1593
#
#
#
# Elastic Compliance Matrix: (Units=1/GPa)
#
#
# Indices 1 2 3 4 5 6 
#
# 1 0.005684 -0.002522 -0.004933 0.000000 0.000000 0.000000
# 2 -0.002522 0.018614 0.000813 0.000000 0.000000 0.000000
# 3 -0.004933 0.000813 0.027687 0.000000 0.000000 0.000000
# 4 0.000000 0.000000 0.000000 0.078247 0.000000 0.000000
# 5 0.000000 0.000000 0.000000 0.000000 0.090874 0.000000
# 6 0.000000 0.000000 0.000000 0.000000 0.000000 0.027655
#
#
# Mechanical properties :
#
#
# Convention : Reuss Voigt Hill
#
# Bulk Modulus (GPa) = 25.83895 51.51193 38.67544
# Shear Modulus (GPa) = 18.18550 28.78877 23.48714
#
# Velocity S-wave (km/s) = 2.96491 3.73044 3.36949
# Velocity P-wave (km/s) = 4.92049 6.59206 5.81663
#
# Compressibility (1/GPa) = 0.03870127
#
# Stress axis : x y z
#
# Youngs Moduli (GPa) = 175.94460 53.72392 36.11806
#
# Poissons Ratio (x) = 0.13547 0.17819
# Poissons Ratio (y) = 0.44365 -0.02938
# Poissons Ratio (z) = 0.86801 -0.04370
#
# Static dielectric constant tensor:
#      x y z
#    x 1.833580 0.000000 0.000000 
#    y 0.000000 1.799320 0.000000 
#    z 0.000000 0.000000 1.723640 
# 
# From -- ./inp_files/65412.got.cif
#   From: 2010.05.17/outbox.cif.g08.bks.cpg/sg63_33_cif.got.tgz:65412.got - 2010.06.03 15:47:04.
