data_PCOD9471396
_publ_section_title
;
Structure prediction by ZEFSAII (Michael W. Deem and Ramdas Pophale) SiO2 
 PCOD9471396
Probable space group: C M C M
;
_chemical_formula_sum "Si O2"
_cell_formula_units_Z 116
_cell_length_a 26.017451
_cell_length_b 15.569342
_cell_length_c 16.478272
_cell_angle_alpha 90.000000
_cell_angle_beta 90.000000
_cell_angle_gamma 90.000000
_cell_volume 6674.929317
_symmetry_space_group_name_H-M "C M C M"
_symmetry_group_IT_number 63
_symmetry_cell_setting 'orthorhombic'
loop_
_space_group_symop_operation_xyz
x,y,z
-x,-y,1/2+z
x,-y,-z
-x,y,1/2-z
-x,-y,-z
x,y,1/2-z
-x,y,z
x,-y,1/2+z
1/2+x,1/2+y,z
1/2-x,1/2-y,1/2+z
1/2+x,1/2-y,-z
1/2-x,1/2+y,1/2-z
1/2-x,1/2-y,-z
1/2+x,1/2+y,1/2-z
1/2-x,1/2+y,z
1/2+x,1/2-y,1/2+z
loop_
_atom_site_type_symbol
_atom_site_label
_atom_site_fract_x
_atom_site_fract_y
_atom_site_fract_z
Si Si1 0.059881 0.504304 0.597402
Si Si2 0.558315 0.702454 0.481235
Si Si3 0.802371 0.792949 0.656434
Si Si4 0.690905 0.292578 0.342125
Si Si5 0.500000 0.773540 0.750000
Si Si6 0.409522 0.183746 0.373594
Si Si7 0.160823 0.898425 0.998864
Si Si8 0.904237 0.687890 0.843630
O O1 0.060605 0.500000 0.500000
O O2 0.087065 0.418897 0.630788
O O3 0.085293 0.592531 0.624856
O O4 0.000000 0.502058 0.623853
O O5 0.500000 0.677585 0.499883
O O6 0.576719 0.782228 0.536892
O O7 0.600696 0.629218 0.494515
O O8 0.563067 0.741549 0.391847
O O9 0.808309 0.826556 0.750000
O O10 0.745751 0.753547 0.649411
O O11 0.813409 0.858020 0.582340
O O12 0.845218 0.718297 0.646712
O O13 0.688143 0.329887 0.250000
O O14 0.645142 0.222919 0.349715
O O15 0.682628 0.356983 0.417713
O O16 0.545257 0.777964 0.819195
O O17 0.166897 0.000000 0.000000
O O18 0.917727 0.689890 0.750000
#
# Coordination Sequence:
#
# PCOD9471396 Si02
#       8
#    16  16  16  16   4  16  16  16
#     4  11  21  33  50  77 118 152 182 224 280 333
#     4  10  19  36  56  76 109 146 183 225 276 334
#     4   9  20  42  62  80 111 148 188 236 277 326
#     4  10  21  39  62  83 111 148 191 228 279 337
#     4  12  20  32  54  80 116 140 190 220 278 332
#     4  11  21  34  53  82 111 149 181 226 280 334
#     4  10  22  38  59  86 112 143 184 231 286 330
#     4  10  21  34  54  79 107 149 191 227 271 328
#
# _framework density 17.378461000000001
#
# number of rings (size 3 to 8) (size 9 to 14) (size 15 to 20)
#    0.000    1.793    3.448    0.828    0.966    1.931 
#    2.483    0.000    0.000    0.000    0.000    3.862 
#    0.000    0.000    0.000    0.000    0.000    0.000 
#
# Total GULP energy -322896.293411 kJ/mol
# GULP energy per Si atom -5567.177473 kJ/mol
# Density = 1.733891 g / cm^3
# Si number density = 17.378461 Si / 1000 Ang^3
#
#
#
# Elastic Constant Matrix: (Units=GPa)
#
#
# Indices 1 2 3 4 5 6 
#
# 1 88.0278 33.4762 44.2726 0.0000 0.0000 0.0000
# 2 33.4762 106.1868 65.9426 0.0000 0.0000 0.0000
# 3 44.2726 65.9426 131.1118 0.0000 0.0000 0.0000
# 4 0.0000 0.0000 0.0000 9.1251 0.0000 0.0000
# 5 0.0000 0.0000 0.0000 0.0000 48.1453 0.0000
# 6 0.0000 0.0000 0.0000 0.0000 0.0000 4.0765
#
#
#
# Elastic Compliance Matrix: (Units=1/GPa)
#
#
# Indices 1 2 3 4 5 6 
#
# 1 0.014014 -0.002151 -0.003650 0.000000 0.000000 0.000000
# 2 -0.002151 0.014025 -0.006327 0.000000 0.000000 0.000000
# 3 -0.003650 -0.006327 0.012042 0.000000 0.000000 0.000000
# 4 0.000000 0.000000 0.000000 0.109588 0.000000 0.000000
# 5 0.000000 0.000000 0.000000 0.000000 0.020770 0.000000
# 6 0.000000 0.000000 0.000000 0.000000 0.000000 0.245307
#
#
# Mechanical properties :
#
#
# Convention : Reuss Voigt Hill
#
# Bulk Modulus (GPa) = 63.19806 68.07880 65.63843
# Shear Modulus (GPa) = 11.22892 24.37837 17.80364
#
# Velocity S-wave (km/s) = 2.54469 3.74945 3.20420
# Velocity P-wave (km/s) = 6.71406 7.61602 7.17922
#
# Compressibility (1/GPa) = 0.01582327
#
# Stress axis : x y z
#
# Youngs Moduli (GPa) = 71.35747 71.30166 83.04280
#
# Poissons Ratio (x) = 0.15339 0.30312
# Poissons Ratio (y) = 0.15351 0.52545
# Poissons Ratio (z) = 0.26046 0.45115
#
# Static dielectric constant tensor:
#      x y z
#    x 1.583760 0.000000 0.000000 
#    y 0.000000 1.554210 0.000000 
#    z 0.000000 0.000000 1.616680 
# 
# From -- ./inp_files/48279.got.cif
#   From: 2010.05.17/outbox.cif.g08.bks.cpg/sg63_25_cif.got.tgz:48279.got - 2010.06.03 15:47:04.
