data_PCOD9471188
_publ_section_title
;
Structure prediction by ZEFSAII (Michael W. Deem and Ramdas Pophale) SiO2 
 PCOD9471188
Probable space group: C M C M
;
_chemical_formula_sum "Si O2"
_cell_formula_units_Z 112
_cell_length_a 14.820723
_cell_length_b 23.949044
_cell_length_c 14.165676
_cell_angle_alpha 90.000000
_cell_angle_beta 90.000000
_cell_angle_gamma 90.000000
_cell_volume 5027.995457
_symmetry_space_group_name_H-M "C M C M"
_symmetry_group_IT_number 63
_symmetry_cell_setting 'orthorhombic'
loop_
_space_group_symop_operation_xyz
x,y,z
-x,-y,1/2+z
x,-y,-z
-x,y,1/2-z
-x,-y,-z
x,y,1/2-z
-x,y,z
x,-y,1/2+z
1/2+x,1/2+y,z
1/2-x,1/2-y,1/2+z
1/2+x,1/2-y,-z
1/2-x,1/2+y,1/2-z
1/2-x,1/2-y,-z
1/2+x,1/2+y,1/2-z
1/2-x,1/2+y,z
1/2+x,1/2-y,1/2+z
loop_
_atom_site_type_symbol
_atom_site_label
_atom_site_fract_x
_atom_site_fract_y
_atom_site_fract_z
Si Si1 0.336686 0.658292 0.850803
Si Si2 0.898189 0.375006 0.559725
Si Si3 0.642778 0.102769 0.855122
Si Si4 0.597666 0.472832 0.636553
Si Si5 0.599264 0.654605 0.434028
Si Si6 0.231540 0.276177 0.602383
Si Si7 0.702281 0.018374 0.361198
O O1 0.383577 0.644759 0.750000
O O2 0.247842 0.620060 0.856283
O O3 0.299655 0.721462 0.844071
O O4 0.385473 0.653714 0.952019
O O5 0.899363 0.368762 0.446206
O O6 0.847878 0.321427 0.601211
O O7 0.838354 0.429300 0.583744
O O8 0.000000 0.381638 0.594922
O O9 0.608492 0.116493 0.750000
O O10 0.640210 0.036123 0.869270
O O11 0.596207 0.474244 0.750000
O O12 0.500000 0.497375 0.605759
O O13 0.601464 0.408881 0.602059
O O14 0.695192 0.496862 0.608596
O O15 0.500000 0.678198 0.415475
O O16 0.676438 0.689709 0.380647
O O17 0.250000 0.250000 0.500000
O O18 0.705490 0.033332 0.250000
#
# Coordination Sequence:
#
# PCOD9471188 Si02
#       7
#    16  16  16  16  16  16  16
#     4  10  21  39  61  86 120 162 202 243 302 368
#     4  12  24  40  65  92 121 161 210 261 314 366
#     4  10  21  40  63  87 121 167 207 247 302 366
#     4   9  17  32  58  90 120 154 197 246 300 353
#     4  10  19  34  59  88 117 149 189 240 298 362
#     4  10  20  39  59  85 113 154 195 252 303 359
#     4  10  21  38  62  90 128 165 204 257 307 364
#
# _framework density 22.275279000000001
#
# number of rings (size 3 to 8) (size 9 to 14) (size 15 to 20)
#    0.000    1.857    4.286    0.429    0.000    5.429 
#    0.000    2.143    0.000    5.143    0.000    0.000 
#    0.000    0.000    0.000    0.000    0.000    0.000 
#
# Total GULP energy -312475.211606 kJ/mol
# GULP energy per Si atom -5579.914493 kJ/mol
# Density = 2.222458 g / cm^3
# Si number density = 22.275279 Si / 1000 Ang^3
#
#
#
# Elastic Constant Matrix: (Units=GPa)
#
#
# Indices 1 2 3 4 5 6 
#
# 1 113.9981 5.3491 -0.8289 0.0000 0.0000 0.0000
# 2 5.3491 64.4227 2.7723 0.0000 0.0000 0.0000
# 3 -0.8289 2.7723 83.8800 0.0000 0.0000 0.0000
# 4 0.0000 0.0000 0.0000 -262.1038 0.0000 0.0000
# 5 0.0000 0.0000 0.0000 0.0000 16.6227 0.0000
# 6 0.0000 0.0000 0.0000 0.0000 0.0000 -18.8661
#
#
#
# Elastic Compliance Matrix: (Units=1/GPa)
#
#
# Indices 1 2 3 4 5 6 
#
# 1 0.008807 -0.000736 0.000111 0.000000 0.000000 0.000000
# 2 -0.000736 0.015606 -0.000523 0.000000 0.000000 0.000000
# 3 0.000111 -0.000523 0.011940 0.000000 0.000000 0.000000
# 4 0.000000 0.000000 0.000000 -0.003815 0.000000 0.000000
# 5 0.000000 0.000000 0.000000 0.000000 0.060159 0.000000
# 6 0.000000 0.000000 0.000000 0.000000 0.000000 -0.053005
#
#
# Mechanical properties :
#
#
# Convention : Reuss Voigt Hill
#
# Bulk Modulus (GPa) = 29.36155 30.76508 30.06331
# Shear Modulus (GPa) = 93.73796 -35.86889 28.93454
#
# Velocity S-wave (km/s) = 6.49407 -4.01715 3.60801
# Velocity P-wave (km/s) = 8.33309 2.77045 5.55721
#
# Compressibility (1/GPa) = 0.03405815
#
# Stress axis : x y z
#
# Youngs Moduli (GPa) = 113.54053 64.07752 83.75083
#
# Poissons Ratio (x) = 0.04717 -0.00933
# Poissons Ratio (y) = 0.08358 0.04381
# Poissons Ratio (z) = -0.01264 0.03352
#
# Static dielectric constant tensor:
#      x y z
#    x 2.046140 0.000000 0.000000 
#    y 0.000000 1.777360 0.000000 
#    z 0.000000 0.000000 1.923610 
# 
# From -- ./inp_files/32362.got.cif
#   From: 2010.05.17/outbox.cif.g08.bks.cpg/sg63_17_cif.got.tgz:32362.got - 2010.06.03 15:47:04.
