data_PCOD9471762
_publ_section_title
;
Structure prediction by ZEFSAII (Michael W. Deem and Ramdas Pophale) SiO2 
 PCOD9471762
Probable space group: C M C M
;
_chemical_formula_sum "Si O2"
_cell_formula_units_Z 64
_cell_length_a 7.632251
_cell_length_b 50.920635
_cell_length_c 7.842393
_cell_angle_alpha 90.000000
_cell_angle_beta 90.000000
_cell_angle_gamma 90.000000
_cell_volume 3047.860302
_symmetry_space_group_name_H-M "C M C M"
_symmetry_group_IT_number 63
_symmetry_cell_setting 'orthorhombic'
loop_
_space_group_symop_operation_xyz
x,y,z
-x,-y,1/2+z
x,-y,-z
-x,y,1/2-z
-x,-y,-z
x,y,1/2-z
-x,y,z
x,-y,1/2+z
1/2+x,1/2+y,z
1/2-x,1/2-y,1/2+z
1/2+x,1/2-y,-z
1/2-x,1/2+y,1/2-z
1/2-x,1/2-y,-z
1/2+x,1/2+y,1/2-z
1/2-x,1/2+y,z
1/2+x,1/2-y,1/2+z
loop_
_atom_site_type_symbol
_atom_site_label
_atom_site_fract_x
_atom_site_fract_y
_atom_site_fract_z
Si Si1 0.210021 0.565567 0.250000
Si Si2 0.285863 0.970685 0.442921
Si Si3 0.305783 0.720723 0.544746
Si Si4 0.784270 0.163942 0.553308
Si Si5 0.789820 0.126869 0.250000
O O1 0.274758 0.550458 0.418495
O O2 0.247932 0.596269 0.250000
O O3 0.000000 0.562515 0.250000
O O4 0.228066 0.965425 0.250000
O O5 0.500000 0.970438 0.442159
O O6 0.234309 0.000000 0.500000
O O7 0.309782 0.719560 0.750000
O O8 0.500000 0.718948 0.472074
O O9 0.250000 0.750000 0.500000
O O10 0.218914 0.693023 0.496505
O O11 0.732269 0.159093 0.750000
O O12 0.727397 0.142041 0.419346
O O13 0.000000 0.164802 0.554194
O O14 0.000000 0.129298 0.250000
#
# Coordination Sequence:
#
# PCOD9471762 Si02
#       5
#     8  16  16  16   8
#     4  10  20  32  48  76 106 126 157 206 247 281
#     4   9  15  26  47  74 101 129 161 197 238 286
#     4   9  18  31  48  73 100 124 158 205 253 300
#     4   8  16  32  51  70  93 125 169 210 237 282
#     4  10  20  34  54  72  92 134 177 200 235 291
#
# _framework density 20.998338
#
# number of rings (size 3 to 8) (size 9 to 14) (size 15 to 20)
#    0.000    3.000    1.250    1.500    1.750    1.500 
#    0.000    1.250    0.000    2.250    0.000    0.000 
#    0.000    0.000    0.000    0.000    0.000    0.000 
#
# Total GULP energy -178357.427600 kJ/mol
# GULP energy per Si atom -5573.669613 kJ/mol
# Density = 2.095054 g / cm^3
# Si number density = 20.998338 Si / 1000 Ang^3
#
#
#
# Elastic Constant Matrix: (Units=GPa)
#
#
# Indices 1 2 3 4 5 6 
#
# 1 31.6324 5.2177 8.4408 0.0000 0.0000 0.0000
# 2 5.2177 232.5726 128.2272 0.0000 0.0000 0.0000
# 3 8.4408 128.2272 171.1978 0.0000 0.0000 0.0000
# 4 0.0000 0.0000 0.0000 41.8387 0.0000 0.0000
# 5 0.0000 0.0000 0.0000 0.0000 -0.1309 0.0000
# 6 0.0000 0.0000 0.0000 0.0000 0.0000 19.4236
#
#
#
# Elastic Compliance Matrix: (Units=1/GPa)
#
#
# Indices 1 2 3 4 5 6 
#
# 1 0.032044 0.000259 -0.001774 0.000000 0.000000 0.000000
# 2 0.000259 0.007326 -0.005500 0.000000 0.000000 0.000000
# 3 -0.001774 -0.005500 0.010048 0.000000 0.000000 0.000000
# 4 0.000000 0.000000 0.000000 0.023901 0.000000 0.000000
# 5 0.000000 0.000000 0.000000 0.000000 -7.638041 0.000000
# 6 0.000000 0.000000 0.000000 0.000000 0.000000 0.051484
#
#
# Mechanical properties :
#
#
# Convention : Reuss Voigt Hill
#
# Bulk Modulus (GPa) = 28.25789 79.90824 54.08306
# Shear Modulus (GPa) = -0.66779 31.79408 15.56315
#
# Velocity S-wave (km/s) = -0.56454 3.89540 2.72538
# Velocity P-wave (km/s) = 3.61407 7.63998 5.97624
#
# Compressibility (1/GPa) = 0.03538835
#
# Stress axis : x y z
#
# Youngs Moduli (GPa) = 31.20731 136.49136 99.51836
#
# Poissons Ratio (x) = -0.03538 0.17655
# Poissons Ratio (y) = -0.00809 0.54738
# Poissons Ratio (z) = 0.05536 0.75074
#
# Static dielectric constant tensor:
#      x y z
#    x 1.822970 0.000000 0.000000 
#    y 0.000000 1.752410 0.000000 
#    z 0.000000 0.000000 1.737920 
# 
# From -- ./inp_files/3178.got.cif
#   From: 2010.05.17/outbox.cif.g08.bks.cpg/sg63_2_cif.got.tgz:3178.got - 2010.06.03 15:47:04.
