data_PCOD9471529
_publ_section_title
;
Structure prediction by ZEFSAII (Michael W. Deem and Ramdas Pophale) SiO2 
 PCOD9471529
Probable space group: C M C M
;
_chemical_formula_sum "Si O2"
_cell_formula_units_Z 116
_cell_length_a 24.038630
_cell_length_b 28.591867
_cell_length_c 7.741124
_cell_angle_alpha 90.000000
_cell_angle_beta 90.000000
_cell_angle_gamma 90.000000
_cell_volume 5320.546609
_symmetry_space_group_name_H-M "C M C M"
_symmetry_group_IT_number 63
_symmetry_cell_setting 'orthorhombic'
loop_
_space_group_symop_operation_xyz
x,y,z
-x,-y,1/2+z
x,-y,-z
-x,y,1/2-z
-x,-y,-z
x,y,1/2-z
-x,y,z
x,-y,1/2+z
1/2+x,1/2+y,z
1/2-x,1/2-y,1/2+z
1/2+x,1/2-y,-z
1/2-x,1/2+y,1/2-z
1/2-x,1/2-y,-z
1/2+x,1/2+y,1/2-z
1/2-x,1/2+y,z
1/2+x,1/2-y,1/2+z
loop_
_atom_site_type_symbol
_atom_site_label
_atom_site_fract_x
_atom_site_fract_y
_atom_site_fract_z
Si Si1 0.000000 0.552124 0.750000
Si Si2 0.209258 0.548793 0.954238
Si Si3 0.754682 0.852302 0.040434
Si Si4 0.587173 0.073153 0.441915
Si Si5 0.877466 0.851736 0.457032
Si Si6 0.063443 0.052448 0.044974
Si Si7 0.938047 0.239496 0.540730
Si Si8 0.133304 0.328443 0.454266
O O1 0.048324 0.555818 0.596143
O O2 0.199982 0.551887 0.750000
O O3 0.244941 0.593465 0.004646
O O4 0.236743 0.500000 0.000000
O O5 0.148970 0.551972 0.041630
O O6 0.755825 0.847683 0.250000
O O7 0.815676 0.839650 0.975320
O O8 0.697413 0.827884 0.982332
O O9 0.565136 0.062570 0.250000
O O10 0.598536 0.129080 0.461523
O O11 0.875017 0.847471 0.250000
O O12 0.898323 0.904158 0.490978
O O13 0.919670 0.811903 0.519321
O O14 0.059847 0.054652 0.250000
O O15 0.000000 0.057701 0.973446
O O16 0.083127 0.000000 0.000000
O O17 0.938453 0.239644 0.750000
O O18 0.895819 0.279330 0.482974
O O19 0.000000 0.250812 0.479806
O O20 0.134447 0.339589 0.250000
#
# Coordination Sequence:
#
# PCOD9471529 Si02
#       8
#     4  16  16  16  16  16  16  16
#     4  12  22  40  58  90 122 160 200 256 308 372
#     4  10  19  37  60  84 116 153 198 248 305 368
#     4   8  18  36  59  84 114 154 194 248 308 356
#     4  11  22  38  61  87 119 160 203 253 311 367
#     4  10  20  38  60  85 120 156 197 246 299 357
#     4  10  21  37  58  84 116 156 197 239 293 353
#     4  10  22  36  54  84 118 157 200 247 302 362
#     4  10  20  38  58  84 117 152 202 255 304 362
#
# _framework density 21.802271000000001
#
# number of rings (size 3 to 8) (size 9 to 14) (size 15 to 20)
#    0.000    2.069    1.379    2.690    0.966    3.310 
#    0.000    5.862    0.000    0.000    0.000    0.000 
#    0.000    0.000    0.000    0.000    0.000    0.000 
#
# Total GULP energy -323472.281422 kJ/mol
# GULP energy per Si atom -5577.108300 kJ/mol
# Density = 2.175265 g / cm^3
# Si number density = 21.802271 Si / 1000 Ang^3
#
#
#
# Elastic Constant Matrix: (Units=GPa)
#
#
# Indices 1 2 3 4 5 6 
#
# 1 89.2589 35.2235 8.8493 0.0000 0.0000 0.0000
# 2 35.2235 106.0685 -6.0895 0.0000 0.0000 0.0000
# 3 8.8493 -6.0895 91.4256 0.0000 0.0000 0.0000
# 4 0.0000 0.0000 0.0000 19.7496 0.0000 0.0000
# 5 0.0000 0.0000 0.0000 0.0000 8.7081 0.0000
# 6 0.0000 0.0000 0.0000 0.0000 0.0000 13.9619
#
#
#
# Elastic Compliance Matrix: (Units=1/GPa)
#
#
# Indices 1 2 3 4 5 6 
#
# 1 0.013112 -0.004444 -0.001565 0.000000 0.000000 0.000000
# 2 -0.004444 0.010970 0.001161 0.000000 0.000000 0.000000
# 3 -0.001565 0.001161 0.011167 0.000000 0.000000 0.000000
# 4 0.000000 0.000000 0.000000 0.050634 0.000000 0.000000
# 5 0.000000 0.000000 0.000000 0.000000 0.114835 0.000000
# 6 0.000000 0.000000 0.000000 0.000000 0.000000 0.071623
#
#
# Mechanical properties :
#
#
# Convention : Reuss Voigt Hill
#
# Bulk Modulus (GPa) = 39.13548 40.30217 39.71883
# Shear Modulus (GPa) = 17.20837 25.06858 21.13848
#
# Velocity S-wave (km/s) = 2.81248 3.39457 3.11714
# Velocity P-wave (km/s) = 5.34190 5.82148 5.58684
#
# Compressibility (1/GPa) = 0.02555226
#
# Stress axis : x y z
#
# Youngs Moduli (GPa) = 76.26407 91.15461 89.55219
#
# Poissons Ratio (x) = 0.40511 0.14017
# Poissons Ratio (y) = 0.33894 -0.10396
# Poissons Ratio (z) = 0.11937 -0.10582
#
# Static dielectric constant tensor:
#      x y z
#    x 1.787030 0.000000 0.000000 
#    y 0.000000 1.795910 0.000000 
#    z 0.000000 0.000000 1.799220 
# 
# From -- ./inp_files/11161.got.cif
#   From: 2010.05.17/outbox.cif.g08.bks.cpg/sg63_6_cif.got.tgz:11161.got - 2010.06.03 15:47:04.
