data_PCOD9471430
_publ_section_title
;
Structure prediction by ZEFSAII (Michael W. Deem and Ramdas Pophale) SiO2 
 PCOD9471430
Probable space group: C M C M
;
_chemical_formula_sum "Si O2"
_cell_formula_units_Z 88
_cell_length_a 19.608935
_cell_length_b 9.462748
_cell_length_c 23.575274
_cell_angle_alpha 90.000000
_cell_angle_beta 90.000000
_cell_angle_gamma 90.000000
_cell_volume 4374.496068
_symmetry_space_group_name_H-M "C M C M"
_symmetry_group_IT_number 63
_symmetry_cell_setting 'orthorhombic'
loop_
_space_group_symop_operation_xyz
x,y,z
-x,-y,1/2+z
x,-y,-z
-x,y,1/2-z
-x,-y,-z
x,y,1/2-z
-x,y,z
x,-y,1/2+z
1/2+x,1/2+y,z
1/2-x,1/2-y,1/2+z
1/2+x,1/2-y,-z
1/2-x,1/2+y,1/2-z
1/2-x,1/2-y,-z
1/2+x,1/2+y,1/2-z
1/2-x,1/2+y,z
1/2+x,1/2-y,1/2+z
loop_
_atom_site_type_symbol
_atom_site_label
_atom_site_fract_x
_atom_site_fract_y
_atom_site_fract_z
Si Si1 0.803801 0.716247 0.684582
Si Si2 0.579683 0.705624 0.894043
Si Si3 0.579844 0.402450 0.858584
Si Si4 0.300356 0.080321 0.379672
Si Si5 0.316852 0.000000 0.500000
Si Si6 0.077820 0.747137 0.522547
O O1 0.785046 0.696426 0.750000
O O2 0.874871 0.800443 0.679280
O O3 0.750503 0.816066 0.652332
O O4 0.806547 0.566714 0.652966
O O5 0.500000 0.732648 0.881591
O O6 0.602304 0.566200 0.860082
O O7 0.627137 0.839495 0.882766
O O8 0.584267 0.676866 0.961714
O O9 0.500000 0.398356 0.843589
O O10 0.586343 0.344900 0.922983
O O11 0.277004 0.053563 0.444822
O O12 0.366443 0.876115 0.477642
O O13 0.000000 0.689266 0.524757
#
# Coordination Sequence:
#
# PCOD9471430 Si02
#       6
#    16  16  16  16   8  16
#     4  12  26  45  64  85 120 166 216 259 308 373
#     4   9  19  36  62  95 130 162 198 246 306 375
#     4  10  20  38  63  93 125 163 209 252 302 364
#     4  11  24  42  64  93 122 166 204 258 319 368
#     4  10  19  36  58  98 129 156 202 256 314 372
#     4   9  16  30  57  93 133 166 193 239 306 374
#
# _framework density 20.116602
#
# number of rings (size 3 to 8) (size 9 to 14) (size 15 to 20)
#    0.000    1.818    1.818    2.455    0.000    4.727 
#    3.273    0.909    0.000    3.818    0.000    0.000 
#    0.000    0.000    0.000    0.000    0.000    0.000 
#
# Total GULP energy -245869.661416 kJ/mol
# GULP energy per Si atom -5587.946850 kJ/mol
# Density = 2.007082 g / cm^3
# Si number density = 20.116602 Si / 1000 Ang^3
#
#
#
# Elastic Constant Matrix: (Units=GPa)
#
#
# Indices 1 2 3 4 5 6 
#
# 1 37.3190 28.5129 35.6437 0.0000 0.0000 0.0000
# 2 28.5129 109.6390 52.4249 0.0000 0.0000 0.0000
# 3 35.6437 52.4249 116.9855 0.0000 0.0000 0.0000
# 4 0.0000 0.0000 0.0000 15.7678 0.0000 0.0000
# 5 0.0000 0.0000 0.0000 0.0000 -0.1169 0.0000
# 6 0.0000 0.0000 0.0000 0.0000 0.0000 30.0521
#
#
#
# Elastic Compliance Matrix: (Units=1/GPa)
#
#
# Indices 1 2 3 4 5 6 
#
# 1 0.040595 -0.005909 -0.009721 0.000000 0.000000 0.000000
# 2 -0.005909 0.012468 -0.003787 0.000000 0.000000 0.000000
# 3 -0.009721 -0.003787 0.013207 0.000000 0.000000 0.000000
# 4 0.000000 0.000000 0.000000 0.063420 0.000000 0.000000
# 5 0.000000 0.000000 0.000000 0.000000 -8.555316 0.000000
# 6 0.000000 0.000000 0.000000 0.000000 0.000000 0.033276
#
#
# Mechanical properties :
#
#
# Convention : Reuss Voigt Hill
#
# Bulk Modulus (GPa) = 36.44760 55.23404 45.84082
# Shear Modulus (GPa) = -0.59921 18.96474 9.18277
#
# Velocity S-wave (km/s) = -0.54636 3.07374 2.13885
# Velocity P-wave (km/s) = 4.21420 6.33354 5.37928
#
# Compressibility (1/GPa) = 0.02743665
#
# Stress axis : x y z
#
# Youngs Moduli (GPa) = 24.63353 80.20266 75.71819
#
# Poissons Ratio (x) = 0.47394 0.73602
# Poissons Ratio (y) = 0.14557 0.28675
# Poissons Ratio (z) = 0.23945 0.30373
#
# Static dielectric constant tensor:
#      x y z
#    x 1.728530 0.000000 0.000000 
#    y 0.000000 1.695000 0.000000 
#    z 0.000000 0.000000 1.703600 
# 
# From -- ./inp_files/64414.got.cif
#   From: 2010.05.17/outbox.cif.g08.bks.cpg/sg63_33_cif.got.tgz:64414.got - 2010.06.03 15:47:04.
