data_PCOD9471539
_publ_section_title
;
Structure prediction by ZEFSAII (Michael W. Deem and Ramdas Pophale) SiO2 
 PCOD9471539
Probable space group: C M C M
;
_chemical_formula_sum "Si O2"
_cell_formula_units_Z 64
_cell_length_a 9.294035
_cell_length_b 24.060878
_cell_length_c 14.873999
_cell_angle_alpha 90.000000
_cell_angle_beta 90.000000
_cell_angle_gamma 90.000000
_cell_volume 3326.162957
_symmetry_space_group_name_H-M "C M C M"
_symmetry_group_IT_number 63
_symmetry_cell_setting 'orthorhombic'
loop_
_space_group_symop_operation_xyz
x,y,z
-x,-y,1/2+z
x,-y,-z
-x,y,1/2-z
-x,-y,-z
x,y,1/2-z
-x,y,z
x,-y,1/2+z
1/2+x,1/2+y,z
1/2-x,1/2-y,1/2+z
1/2+x,1/2-y,-z
1/2-x,1/2+y,1/2-z
1/2-x,1/2-y,-z
1/2+x,1/2+y,1/2-z
1/2-x,1/2+y,z
1/2+x,1/2-y,1/2+z
loop_
_atom_site_type_symbol
_atom_site_label
_atom_site_fract_x
_atom_site_fract_y
_atom_site_fract_z
Si Si1 0.243947 0.976574 0.750000
Si Si2 0.765068 0.245801 0.147664
Si Si3 0.500000 0.838068 0.112176
Si Si4 0.500000 0.064311 0.750000
Si Si5 0.500000 0.885649 0.750000
Si Si6 0.000000 0.031440 0.096915
Si Si7 0.500000 0.650859 0.146564
Si Si8 0.500000 0.195079 0.420830
O O1 0.353344 0.923151 0.750000
O O2 0.139953 0.979084 0.838301
O O3 0.357069 0.027076 0.750000
O O4 0.708879 0.246580 0.250000
O O5 0.865169 0.191590 0.137725
O O6 0.635383 0.236079 0.080779
O O7 0.862789 0.299814 0.136176
O O8 0.500000 0.894764 0.165121
O O9 0.500000 0.844098 0.006261
O O10 0.500000 0.845281 0.835649
O O11 0.000000 0.098183 0.082518
O O12 0.000000 0.000000 0.000000
O O13 0.500000 0.629141 0.250000
#
# Coordination Sequence:
#
# PCOD9471539 Si02
#       8
#     8  16   8   4   4   8   8   8
#     4  10  24  42  62  88 122 160 206 254 300 356
#     4  10  19  37  61  89 118 155 198 239 298 356
#     4  11  23  41  59  82 124 168 194 233 305 370
#     4  11  24  44  60  80 126 178 200 235 304 380
#     4  11  22  40  64  94 122 152 204 261 304 348
#     4  11  22  40  65  93 121 155 202 256 307 358
#     4   9  17  33  63  84 113 156 189 235 298 353
#     4  12  22  33  61  99 118 142 200 260 293 338
#
# _framework density 19.241389999999999
#
# number of rings (size 3 to 8) (size 9 to 14) (size 15 to 20)
#    0.000    1.500    3.750    3.000    0.000    4.000 
#    0.000    5.000    0.000    0.000    0.000    0.000 
#    0.000    0.000    0.000    0.000    0.000    0.000 
#
# Total GULP energy -178631.838018 kJ/mol
# GULP energy per Si atom -5582.244938 kJ/mol
# Density = 1.919760 g / cm^3
# Si number density = 19.241390 Si / 1000 Ang^3
#
#
#
# Elastic Constant Matrix: (Units=GPa)
#
#
# Indices 1 2 3 4 5 6 
#
# 1 124.1959 33.7869 28.7820 0.0000 0.0000 0.0000
# 2 33.7869 101.9935 25.2086 0.0000 0.0000 0.0000
# 3 28.7820 25.2086 101.5885 0.0000 0.0000 0.0000
# 4 0.0000 0.0000 0.0000 15.1679 0.0000 0.0000
# 5 0.0000 0.0000 0.0000 0.0000 19.5411 0.0000
# 6 0.0000 0.0000 0.0000 0.0000 0.0000 -4.5303
#
#
#
# Elastic Compliance Matrix: (Units=1/GPa)
#
#
# Indices 1 2 3 4 5 6 
#
# 1 0.009206 -0.002562 -0.001972 0.000000 0.000000 0.000000
# 2 -0.002562 0.011158 -0.002043 0.000000 0.000000 0.000000
# 3 -0.001972 -0.002043 0.010909 0.000000 0.000000 0.000000
# 4 0.000000 0.000000 0.000000 0.065929 0.000000 0.000000
# 5 0.000000 0.000000 0.000000 0.000000 0.051174 0.000000
# 6 0.000000 0.000000 0.000000 0.000000 0.000000 -0.220737
#
#
# Mechanical properties :
#
#
# Convention : Reuss Voigt Hill
#
# Bulk Modulus (GPa) = 55.19204 55.92587 55.55895
# Shear Modulus (GPa) = -94.04384 22.03578 -36.00403
#
# Velocity S-wave (km/s) = -6.99871 3.38779 -4.33040
# Velocity P-wave (km/s) = 6.04673 6.66568 1.98349
#
# Compressibility (1/GPa) = 0.01811856
#
# Stress axis : x y z
#
# Youngs Moduli (GPa) = 108.62586 89.62007 91.66390
#
# Poissons Ratio (x) = 0.22961 0.18080
# Poissons Ratio (y) = 0.27831 0.18727
# Poissons Ratio (z) = 0.21426 0.18309
#
# Static dielectric constant tensor:
#      x y z
#    x 1.727300 0.000000 0.000000 
#    y 0.000000 1.643330 0.000000 
#    z 0.000000 0.000000 1.698790 
# 
# From -- ./inp_files/27685.got.cif
#   From: 2010.05.17/outbox.cif.g08.bks.cpg/sg63_14_cif.got.tgz:27685.got - 2010.06.03 15:47:04.
