data_PCOD9471514
_publ_section_title
;
Structure prediction by ZEFSAII (Michael W. Deem and Ramdas Pophale) SiO2 
 PCOD9471514
Probable space group: C M C M
;
_chemical_formula_sum "Si O2"
_cell_formula_units_Z 96
_cell_length_a 14.690183
_cell_length_b 15.055667
_cell_length_c 23.661309
_cell_angle_alpha 90.000000
_cell_angle_beta 90.000000
_cell_angle_gamma 90.000000
_cell_volume 5233.183623
_symmetry_space_group_name_H-M "C M C M"
_symmetry_group_IT_number 63
_symmetry_cell_setting 'orthorhombic'
loop_
_space_group_symop_operation_xyz
x,y,z
-x,-y,1/2+z
x,-y,-z
-x,y,1/2-z
-x,-y,-z
x,y,1/2-z
-x,y,z
x,-y,1/2+z
1/2+x,1/2+y,z
1/2-x,1/2-y,1/2+z
1/2+x,1/2-y,-z
1/2-x,1/2+y,1/2-z
1/2-x,1/2-y,-z
1/2+x,1/2+y,1/2-z
1/2-x,1/2+y,z
1/2+x,1/2-y,1/2+z
loop_
_atom_site_type_symbol
_atom_site_label
_atom_site_fract_x
_atom_site_fract_y
_atom_site_fract_z
Si Si1 0.000000 0.719556 0.021527
Si Si2 0.500000 0.363378 0.921554
Si Si3 0.200660 0.756100 0.186543
Si Si4 0.201097 0.654187 0.492380
Si Si5 0.500000 0.426768 0.079896
Si Si6 0.803811 0.109205 0.122240
Si Si7 0.700594 0.589439 0.595789
Si Si8 0.000000 0.777657 0.346911
O O1 0.000000 0.801129 0.976614
O O2 0.906473 0.667361 0.011994
O O3 0.000000 0.747276 0.087482
O O4 0.500000 0.468926 0.933838
O O5 0.405143 0.351713 0.888150
O O6 0.224781 0.783484 0.250000
O O7 0.252723 0.666681 0.169128
O O8 0.219521 0.830691 0.139014
O O9 0.091560 0.745381 0.181947
O O10 0.250000 0.750000 0.500000
O O11 0.245642 0.619188 0.435111
O O12 0.226398 0.594428 0.546088
O O13 0.397074 0.398283 0.063857
O O14 0.500000 0.385736 0.144588
O O15 0.807933 0.002979 0.129305
#
# Coordination Sequence:
#
# PCOD9471514 Si02
#       8
#     8   8  16  16   8  16  16   8
#     4  12  20  32  58  81 121 155 187 233 285 344
#     4  10  20  31  55  89 116 149 183 226 298 363
#     4  11  22  39  61  82 111 151 195 242 288 336
#     4  12  20  36  57  85 120 154 185 233 289 346
#     4   8  18  32  52  84 118 146 178 232 289 352
#     4  11  22  38  58  87 119 153 191 234 294 350
#     4  10  21  37  58  86 119 149 192 236 290 350
#     4  10  19  37  55  81 110 147 191 242 288 341
#
# _framework density 18.344474000000002
#
# number of rings (size 3 to 8) (size 9 to 14) (size 15 to 20)
#    0.000    1.333    5.000    1.750    0.000    1.000 
#    0.000    2.917    0.000    3.000    0.000    0.000 
#    0.000    0.000    0.000    0.000    0.000    0.000 
#
# Total GULP energy -267600.154358 kJ/mol
# GULP energy per Si atom -5575.003216 kJ/mol
# Density = 1.830272 g / cm^3
# Si number density = 18.344474 Si / 1000 Ang^3
#
#
#
# Elastic Constant Matrix: (Units=GPa)
#
#
# Indices 1 2 3 4 5 6 
#
# 1 127.4162 26.2115 25.0091 0.0000 0.0000 0.0000
# 2 26.2115 51.4753 7.4069 0.0000 0.0000 0.0000
# 3 25.0091 7.4069 67.1973 0.0000 0.0000 0.0000
# 4 0.0000 0.0000 0.0000 10.2235 0.0000 0.0000
# 5 0.0000 0.0000 0.0000 0.0000 10.6917 0.0000
# 6 0.0000 0.0000 0.0000 0.0000 0.0000 29.9020
#
#
#
# Elastic Compliance Matrix: (Units=1/GPa)
#
#
# Indices 1 2 3 4 5 6 
#
# 1 0.009324 -0.004317 -0.002994 0.000000 0.000000 0.000000
# 2 -0.004317 0.021739 -0.000789 0.000000 0.000000 0.000000
# 3 -0.002994 -0.000789 0.016083 0.000000 0.000000 0.000000
# 4 0.000000 0.000000 0.000000 0.097814 0.000000 0.000000
# 5 0.000000 0.000000 0.000000 0.000000 0.093531 0.000000
# 6 0.000000 0.000000 0.000000 0.000000 0.000000 0.033443
#
#
# Mechanical properties :
#
#
# Convention : Reuss Voigt Hill
#
# Bulk Modulus (GPa) = 32.31641 40.37154 36.34397
# Shear Modulus (GPa) = 16.75326 22.66086 19.70706
#
# Velocity S-wave (km/s) = 3.02530 3.51849 3.28117
# Velocity P-wave (km/s) = 5.46424 6.20980 5.84891
#
# Compressibility (1/GPa) = 0.03094404
#
# Stress axis : x y z
#
# Youngs Moduli (GPa) = 107.24897 46.00103 62.17747
#
# Poissons Ratio (x) = 0.19859 0.18618
# Poissons Ratio (y) = 0.46300 0.04909
# Poissons Ratio (z) = 0.32114 0.03632
#
# Static dielectric constant tensor:
#      x y z
#    x 1.649650 0.000000 0.000000 
#    y 0.000000 1.710740 0.000000 
#    z 0.000000 0.000000 1.630690 
# 
# From -- ./inp_files/62945.got.cif
#   From: 2010.05.17/outbox.cif.g08.bks.cpg/sg63_32_cif.got.tgz:62945.got - 2010.06.03 15:47:04.
