data_PCOD9471198
_publ_section_title
;
Structure prediction by ZEFSAII (Michael W. Deem and Ramdas Pophale) SiO2 
 PCOD9471198
Probable space group: C M C M
;
_chemical_formula_sum "Si O2"
_cell_formula_units_Z 112
_cell_length_a 14.038105
_cell_length_b 13.119709
_cell_length_c 24.953474
_cell_angle_alpha 90.000000
_cell_angle_beta 90.000000
_cell_angle_gamma 90.000000
_cell_volume 4595.827347
_symmetry_space_group_name_H-M "C M C M"
_symmetry_group_IT_number 63
_symmetry_cell_setting 'orthorhombic'
loop_
_space_group_symop_operation_xyz
x,y,z
-x,-y,1/2+z
x,-y,-z
-x,y,1/2-z
-x,-y,-z
x,y,1/2-z
-x,y,z
x,-y,1/2+z
1/2+x,1/2+y,z
1/2-x,1/2-y,1/2+z
1/2+x,1/2-y,-z
1/2-x,1/2+y,1/2-z
1/2-x,1/2-y,-z
1/2+x,1/2+y,1/2-z
1/2-x,1/2+y,z
1/2+x,1/2-y,1/2+z
loop_
_atom_site_type_symbol
_atom_site_label
_atom_site_fract_x
_atom_site_fract_y
_atom_site_fract_z
Si Si1 0.614781 0.409686 0.536773
Si Si2 0.390590 0.776784 0.892181
Si Si3 0.779411 0.249841 0.311762
Si Si4 0.616247 0.181848 0.991292
Si Si5 0.386130 0.084180 0.617204
Si Si6 0.105870 0.946095 0.368140
Si Si7 0.758373 0.531678 0.309121
O O1 0.654616 0.500000 0.500000
O O2 0.500000 0.405452 0.528212
O O3 0.648617 0.295039 0.526978
O O4 0.627649 0.456165 0.595558
O O5 0.500000 0.805103 0.879900
O O6 0.321390 0.772708 0.841536
O O7 0.392008 0.654386 0.905504
O O8 0.357943 0.832744 0.946483
O O9 0.775146 0.284209 0.250000
O O10 0.847824 0.319285 0.348059
O O11 0.808306 0.130940 0.309096
O O12 0.500000 0.180783 0.991463
O O13 0.644700 0.104143 0.944301
O O14 0.500000 0.078594 0.619158
O O15 0.338286 0.987029 0.645677
O O16 0.184873 0.941025 0.322639
O O17 0.000000 0.951868 0.345977
O O18 0.801928 0.525647 0.250000
#
# Coordination Sequence:
#
# PCOD9471198 Si02
#       7
#    16  16  16  16  16  16  16
#     4   9  14  25  50  87 126 158 193 236 296 373
#     4  10  20  37  63  94 128 164 203 253 321 387
#     4  11  25  44  65  92 128 168 219 277 324 380
#     4   9  18  34  59  92 128 166 207 259 316 383
#     4  11  24  44  69  95 129 174 222 268 323 389
#     4  10  19  34  60  92 124 159 198 250 317 383
#     4  11  25  44  63  90 127 165 214 274 331 387
#
# _framework density 24.369933
#
# number of rings (size 3 to 8) (size 9 to 14) (size 15 to 20)
#    0.000    1.857    2.857    1.286    0.000    4.571 
#    0.000    5.000    0.000    2.571    0.000    0.000 
#    0.000    0.000    0.000    0.000    0.000    0.000 
#
# Total GULP energy -312645.296738 kJ/mol
# GULP energy per Si atom -5582.951727 kJ/mol
# Density = 2.431447 g / cm^3
# Si number density = 24.369933 Si / 1000 Ang^3
#
#
#
# Elastic Constant Matrix: (Units=GPa)
#
#
# Indices 1 2 3 4 5 6 
#
# 1 80.9910 -19.6462 16.0580 0.0000 0.0000 0.0000
# 2 -19.6462 58.1490 -2.2133 0.0000 0.0000 0.0000
# 3 16.0580 -2.2133 102.4204 0.0000 0.0000 0.0000
# 4 0.0000 0.0000 0.0000 33.2029 0.0000 0.0000
# 5 0.0000 0.0000 0.0000 0.0000 34.3542 0.0000
# 6 0.0000 0.0000 0.0000 0.0000 0.0000 25.0633
#
#
#
# Elastic Compliance Matrix: (Units=1/GPa)
#
#
# Indices 1 2 3 4 5 6 
#
# 1 0.013877 0.004609 -0.002076 0.000000 0.000000 0.000000
# 2 0.004609 0.018742 -0.000318 0.000000 0.000000 0.000000
# 3 -0.002076 -0.000318 0.010082 0.000000 0.000000 0.000000
# 4 0.000000 0.000000 0.000000 0.030118 0.000000 0.000000
# 5 0.000000 0.000000 0.000000 0.000000 0.029109 0.000000
# 6 0.000000 0.000000 0.000000 0.000000 0.000000 0.039899
#
#
# Mechanical properties :
#
#
# Convention : Reuss Voigt Hill
#
# Bulk Modulus (GPa) = 21.21663 25.55083 23.38373
# Shear Modulus (GPa) = 32.65701 35.01488 33.83594
#
# Velocity S-wave (km/s) = 3.66465 3.79464 3.73021
# Velocity P-wave (km/s) = 5.16054 5.45035 5.30742
#
# Compressibility (1/GPa) = 0.04713283
#
# Stress axis : x y z
#
# Youngs Moduli (GPa) = 72.06283 53.35487 99.18367
#
# Poissons Ratio (x) = -0.24593 0.20591
# Poissons Ratio (y) = -0.33216 0.03151
# Poissons Ratio (z) = 0.14961 0.01695
#
# Static dielectric constant tensor:
#      x y z
#    x 1.929140 0.000000 0.000000 
#    y 0.000000 2.056730 0.000000 
#    z 0.000000 0.000000 1.959890 
# 
# From -- ./inp_files/63020.got.cif
#   From: 2010.05.17/outbox.cif.g08.bks.cpg/sg63_32_cif.got.tgz:63020.got - 2010.06.03 15:47:04.
