data_PCOD9471803
_publ_section_title
;
Structure prediction by ZEFSAII (Michael W. Deem and Ramdas Pophale) SiO2 
 PCOD9471803
Probable space group: C M C M
;
_chemical_formula_sum "Si O2"
_cell_formula_units_Z 128
_cell_length_a 7.437401
_cell_length_b 27.192513
_cell_length_c 28.737177
_cell_angle_alpha 90.000000
_cell_angle_beta 90.000000
_cell_angle_gamma 90.000000
_cell_volume 5811.853328
_symmetry_space_group_name_H-M "C M C M"
_symmetry_group_IT_number 63
_symmetry_cell_setting 'orthorhombic'
loop_
_space_group_symop_operation_xyz
x,y,z
-x,-y,1/2+z
x,-y,-z
-x,y,1/2-z
-x,-y,-z
x,y,1/2-z
-x,y,z
x,-y,1/2+z
1/2+x,1/2+y,z
1/2-x,1/2-y,1/2+z
1/2+x,1/2-y,-z
1/2-x,1/2+y,1/2-z
1/2-x,1/2-y,-z
1/2+x,1/2+y,1/2-z
1/2-x,1/2+y,z
1/2+x,1/2-y,1/2+z
loop_
_atom_site_type_symbol
_atom_site_label
_atom_site_fract_x
_atom_site_fract_y
_atom_site_fract_z
Si Si1 0.784153 0.249742 0.945246
Si Si2 0.216579 0.444416 0.053721
Si Si3 0.783083 0.111373 0.302768
Si Si4 0.206940 0.995521 0.693277
Si Si5 0.709427 0.654778 0.891631
Si Si6 0.718751 0.052448 0.055454
Si Si7 0.778980 0.897072 0.303354
Si Si8 0.787758 0.651628 0.102638
O O1 0.713565 0.200317 0.920492
O O2 0.714045 0.299551 0.921395
O O3 0.000000 0.249752 0.939910
O O4 0.750000 0.250000 0.000000
O O5 0.281457 0.396184 0.079947
O O6 0.277639 0.498113 0.071963
O O7 0.000000 0.443526 0.055948
O O8 0.265917 0.442426 0.999081
O O9 0.722208 0.121343 0.250000
O O10 0.734786 0.150274 0.341931
O O11 0.000000 0.107694 0.301121
O O12 0.712152 0.057390 0.318730
O O13 0.204908 0.995609 0.750000
O O14 0.284914 0.048479 0.680749
O O15 0.000000 0.995323 0.677593
O O16 0.500000 0.666092 0.884280
O O17 0.784060 0.642584 0.840618
O O18 0.500000 0.051807 0.057825
O O19 0.786464 0.100243 0.082495
O O20 0.725890 0.888529 0.250000
O O21 0.000000 0.898882 0.303686
O O22 0.000000 0.650714 0.092272
#
# Coordination Sequence:
#
# PCOD9471803 Si02
#       8
#    16  16  16  16  16  16  16  16
#     4  10  22  39  57  78 104 133 173 221 263 309
#     4   9  17  32  52  72  98 134 169 202 252 317
#     4   9  18  32  50  75 106 137 174 215 252 302
#     4   7  11  22  41  65  94 129 164 195 233 289
#     4  10  20  32  50  79 106 126 163 217 258 293
#     4   8  16  31  50  71  97 132 173 209 246 306
#     4   8  14  26  45  69 100 136 166 195 245 306
#     4  10  20  34  52  74 102 137 177 217 258 304
#
# _framework density 22.023955000000001
#
# number of rings (size 3 to 8) (size 9 to 14) (size 15 to 20)
#    0.000    3.125    0.000    3.000    1.750    2.250 
#    0.000    2.500    0.000    2.625    0.000    0.000 
#    0.000    0.000    0.000    0.000    0.000    0.000 
#
# Total GULP energy -357176.198936 kJ/mol
# GULP energy per Si atom -5580.878108 kJ/mol
# Density = 2.197383 g / cm^3
# Si number density = 22.023955 Si / 1000 Ang^3
#
#
#
# Elastic Constant Matrix: (Units=GPa)
#
#
# Indices 1 2 3 4 5 6 
#
# 1 69.0184 5.1286 -3.6637 0.0000 0.0000 0.0000
# 2 5.1286 173.2800 108.6366 0.0000 0.0000 0.0000
# 3 -3.6637 108.6366 137.5027 0.0000 0.0000 0.0000
# 4 0.0000 0.0000 0.0000 42.8220 0.0000 0.0000
# 5 0.0000 0.0000 0.0000 0.0000 6.0773 0.0000
# 6 0.0000 0.0000 0.0000 0.0000 0.0000 2.9740
#
#
#
# Elastic Compliance Matrix: (Units=1/GPa)
#
#
# Indices 1 2 3 4 5 6 
#
# 1 0.014666 -0.001346 0.001454 0.000000 0.000000 0.000000
# 2 -0.001346 0.011559 -0.009168 0.000000 0.000000 0.000000
# 3 0.001454 -0.009168 0.014555 0.000000 0.000000 0.000000
# 4 0.000000 0.000000 0.000000 0.023353 0.000000 0.000000
# 5 0.000000 0.000000 0.000000 0.000000 0.164546 0.000000
# 6 0.000000 0.000000 0.000000 0.000000 0.000000 0.336247
#
#
# Mechanical properties :
#
#
# Convention : Reuss Voigt Hill
#
# Bulk Modulus (GPa) = 44.13065 66.66713 55.39889
# Shear Modulus (GPa) = 8.46600 28.35462 18.41031
#
# Velocity S-wave (km/s) = 1.96274 3.59199 2.89437
# Velocity P-wave (km/s) = 5.02171 6.89487 6.03145
#
# Compressibility (1/GPa) = 0.02265999
#
# Stress axis : x y z
#
# Youngs Moduli (GPa) = 68.18468 86.51560 68.70663
#
# Poissons Ratio (x) = 0.11641 -0.09989
# Poissons Ratio (y) = 0.09175 0.62990
# Poissons Ratio (z) = -0.09913 0.79317
#
# Static dielectric constant tensor:
#      x y z
#    x 1.888430 0.000000 0.000000 
#    y 0.000000 1.814970 0.000000 
#    z 0.000000 0.000000 1.809810 
# 
# From -- ./inp_files/62020.got.cif
#   From: 2010.05.17/outbox.cif.g08.bks.cpg/sg63_32_cif.got.tgz:62020.got - 2010.06.03 15:47:04.
