data_PCOD9471380
_publ_section_title
;
Structure prediction by ZEFSAII (Michael W. Deem and Ramdas Pophale) SiO2 
 PCOD9471380
Probable space group: C M C M
;
_chemical_formula_sum "Si O2"
_cell_formula_units_Z 84
_cell_length_a 14.771457
_cell_length_b 11.022069
_cell_length_c 23.145214
_cell_angle_alpha 90.000000
_cell_angle_beta 90.000000
_cell_angle_gamma 90.000000
_cell_volume 3768.319005
_symmetry_space_group_name_H-M "C M C M"
_symmetry_group_IT_number 63
_symmetry_cell_setting 'orthorhombic'
loop_
_space_group_symop_operation_xyz
x,y,z
-x,-y,1/2+z
x,-y,-z
-x,y,1/2-z
-x,-y,-z
x,y,1/2-z
-x,y,z
x,-y,1/2+z
1/2+x,1/2+y,z
1/2-x,1/2-y,1/2+z
1/2+x,1/2-y,-z
1/2-x,1/2+y,1/2-z
1/2-x,1/2-y,-z
1/2+x,1/2+y,1/2-z
1/2-x,1/2+y,z
1/2+x,1/2-y,1/2+z
loop_
_atom_site_type_symbol
_atom_site_label
_atom_site_fract_x
_atom_site_fract_y
_atom_site_fract_z
Si Si1 0.605134 0.518229 0.064787
Si Si2 0.324341 0.113250 0.831326
Si Si3 0.743047 0.367604 0.849881
Si Si4 0.500000 0.099387 0.750000
Si Si5 0.396079 0.241263 0.427525
Si Si6 0.106870 0.618181 0.959902
O O1 0.500000 0.557600 0.060396
O O2 0.661602 0.603582 0.106045
O O3 0.607066 0.381585 0.089679
O O4 0.641470 0.500000 0.000000
O O5 0.281763 0.244342 0.816712
O O6 0.419909 0.100857 0.799934
O O7 0.336982 0.115268 0.901301
O O8 0.265095 0.993646 0.818047
O O9 0.831549 0.335362 0.887237
O O10 0.500000 0.198320 0.422795
O O11 0.371123 0.225680 0.495058
O O12 0.000000 0.624590 0.945558
O O13 0.121289 0.500000 0.000000
#
# Coordination Sequence:
#
# PCOD9471380 Si02
#       6
#    16  16  16   4  16  16
#     4  10  22  38  58  97 155 202 228 270 346 435
#     4  12  27  48  74 106 141 190 244 308 357 431
#     4  12  25  42  73 109 144 188 239 292 362 433
#     4  12  32  56  82  98 136 188 266 316 366 404
#     4  10  21  37  60 103 157 189 224 281 359 447
#     4  10  19  35  66 106 147 189 236 285 359 434
#
# _framework density 22.291105999999999
#
# number of rings (size 3 to 8) (size 9 to 14) (size 15 to 20)
#    0.000    1.143    4.762    1.143    5.333    3.810 
#    0.000    0.000    0.000    1.143    0.000    0.000 
#    0.000    0.000    0.000    0.000    0.000    0.000 
#
# Total GULP energy -234464.114503 kJ/mol
# GULP energy per Si atom -5582.478917 kJ/mol
# Density = 2.224037 g / cm^3
# Si number density = 22.291106 Si / 1000 Ang^3
#
#
#
# Elastic Constant Matrix: (Units=GPa)
#
#
# Indices 1 2 3 4 5 6 
#
# 1 89.2361 35.6435 28.4491 0.0000 0.0000 0.0000
# 2 35.6435 160.3566 24.5983 0.0000 0.0000 0.0000
# 3 28.4491 24.5983 93.7900 0.0000 0.0000 0.0000
# 4 0.0000 0.0000 0.0000 -25.9785 0.0000 0.0000
# 5 0.0000 0.0000 0.0000 0.0000 127.7734 0.0000
# 6 0.0000 0.0000 0.0000 0.0000 0.0000 21.9709
#
#
#
# Elastic Compliance Matrix: (Units=1/GPa)
#
#
# Indices 1 2 3 4 5 6 
#
# 1 0.013254 -0.002427 -0.003384 0.000000 0.000000 0.000000
# 2 -0.002427 0.006942 -0.001084 0.000000 0.000000 0.000000
# 3 -0.003384 -0.001084 0.011973 0.000000 0.000000 0.000000
# 4 0.000000 0.000000 0.000000 -0.038493 0.000000 0.000000
# 5 0.000000 0.000000 0.000000 0.000000 0.007826 0.000000
# 6 0.000000 0.000000 0.000000 0.000000 0.000000 0.045515
#
#
# Mechanical properties :
#
#
# Convention : Reuss Voigt Hill
#
# Bulk Modulus (GPa) = 54.41140 57.86274 56.13707
# Shear Modulus (GPa) = 74.70020 41.73261 58.21640
#
# Velocity S-wave (km/s) = 5.79517 4.33155 5.11597
# Velocity P-wave (km/s) = 8.32112 7.14356 7.75473
#
# Compressibility (1/GPa) = 0.01837850
#
# Stress axis : x y z
#
# Youngs Moduli (GPa) = 75.44619 144.05203 83.52149
#
# Poissons Ratio (x) = 0.34963 0.28263
# Poissons Ratio (y) = 0.18311 0.09058
# Poissons Ratio (z) = 0.25530 0.15622
#
# Static dielectric constant tensor:
#      x y z
#    x 1.796780 0.000000 0.000000 
#    y 0.000000 1.934180 0.000000 
#    z 0.000000 0.000000 1.781650 
# 
# From -- ./inp_files/62685.got.cif
#   From: 2010.05.17/outbox.cif.g08.bks.cpg/sg63_32_cif.got.tgz:62685.got - 2010.06.03 15:47:04.
