data_PCOD9471556
_publ_section_title
;
Structure prediction by ZEFSAII (Michael W. Deem and Ramdas Pophale) SiO2 
 PCOD9471556
Probable space group: C M C M
;
_chemical_formula_sum "Si O2"
_cell_formula_units_Z 112
_cell_length_a 14.066002
_cell_length_b 14.883117
_cell_length_c 28.519962
_cell_angle_alpha 90.000000
_cell_angle_beta 90.000000
_cell_angle_gamma 90.000000
_cell_volume 5970.538638
_symmetry_space_group_name_H-M "C M C M"
_symmetry_group_IT_number 63
_symmetry_cell_setting 'orthorhombic'
loop_
_space_group_symop_operation_xyz
x,y,z
-x,-y,1/2+z
x,-y,-z
-x,y,1/2-z
-x,-y,-z
x,y,1/2-z
-x,y,z
x,-y,1/2+z
1/2+x,1/2+y,z
1/2-x,1/2-y,1/2+z
1/2+x,1/2-y,-z
1/2-x,1/2+y,1/2-z
1/2-x,1/2-y,-z
1/2+x,1/2+y,1/2-z
1/2-x,1/2+y,z
1/2+x,1/2-y,1/2+z
loop_
_atom_site_type_symbol
_atom_site_label
_atom_site_fract_x
_atom_site_fract_y
_atom_site_fract_z
Si Si1 0.109902 0.216292 0.196927
Si Si2 0.748806 0.960718 0.384858
Si Si3 0.606762 0.933459 0.304080
Si Si4 0.859240 0.231550 0.010413
Si Si5 0.605099 0.074780 0.536135
Si Si6 0.780622 0.167177 0.103623
Si Si7 0.390667 0.310629 0.090859
O O1 0.139583 0.190575 0.250000
O O2 0.110081 0.324875 0.194827
O O3 0.174705 0.182446 0.154812
O O4 0.000000 0.187516 0.190522
O O5 0.692542 0.966045 0.336083
O O6 0.676115 0.913652 0.421038
O O7 0.841985 0.898031 0.385471
O O8 0.762395 0.061763 0.402359
O O9 0.616529 0.961481 0.250000
O O10 0.500000 0.960124 0.320321
O O11 0.903108 0.330217 0.010709
O O12 0.856672 0.193415 0.062968
O O13 0.750000 0.250000 0.000000
O O14 0.893502 0.175538 0.965814
O O15 0.500000 0.046126 0.552294
O O16 0.640822 0.000000 0.500000
O O17 0.684227 0.227936 0.099209
O O18 0.500000 0.294159 0.106060
#
# Coordination Sequence:
#
# PCOD9471556 Si02
#       7
#    16  16  16  16  16  16  16
#     4   9  18  36  63  91 116 144 189 250 305 351
#     4  12  23  36  61  87 120 158 200 249 293 364
#     4   9  18  36  63  91 116 145 189 248 309 357
#     4  10  19  38  56  79 115 158 199 239 289 349
#     4  11  21  34  59  89 115 148 194 246 301 357
#     4  11  23  38  62  86 117 163 204 243 296 367
#     4  11  24  42  58  83 125 167 201 249 302 353
#
# _framework density 18.758776999999998
#
# number of rings (size 3 to 8) (size 9 to 14) (size 15 to 20)
#    0.000    1.571    4.286    3.429    0.000    5.714 
#    0.000    0.714    0.000    1.714    0.000    0.000 
#    0.000    0.000    0.000    0.000    0.000    0.000 
#
# Total GULP energy -312135.033263 kJ/mol
# GULP energy per Si atom -5573.839880 kJ/mol
# Density = 1.871608 g / cm^3
# Si number density = 18.758777 Si / 1000 Ang^3
#
#
#
# Elastic Constant Matrix: (Units=GPa)
#
#
# Indices 1 2 3 4 5 6 
#
# 1 92.8482 20.8835 39.8504 0.0000 0.0000 0.0000
# 2 20.8835 81.5044 14.6666 0.0000 0.0000 0.0000
# 3 39.8504 14.6666 98.2865 0.0000 0.0000 0.0000
# 4 0.0000 0.0000 0.0000 23.1511 0.0000 0.0000
# 5 0.0000 0.0000 0.0000 0.0000 14.3720 0.0000
# 6 0.0000 0.0000 0.0000 0.0000 0.0000 -81.9756
#
#
#
# Elastic Compliance Matrix: (Units=1/GPa)
#
#
# Indices 1 2 3 4 5 6 
#
# 1 0.013536 -0.002549 -0.005108 0.000000 0.000000 0.000000
# 2 -0.002549 0.013088 -0.000919 0.000000 0.000000 0.000000
# 3 -0.005108 -0.000919 0.012382 0.000000 0.000000 0.000000
# 4 0.000000 0.000000 0.000000 0.043194 0.000000 0.000000
# 5 0.000000 0.000000 0.000000 0.000000 0.069580 0.000000
# 6 0.000000 0.000000 0.000000 0.000000 0.000000 -0.012199
#
#
# Mechanical properties :
#
#
# Convention : Reuss Voigt Hill
#
# Bulk Modulus (GPa) = 45.75909 47.04889 46.40399
# Shear Modulus (GPa) = 30.48431 4.25876 17.37153
#
# Velocity S-wave (km/s) = 4.03559 1.50838 3.04641
# Velocity P-wave (km/s) = 6.79419 5.30745 6.09631
#
# Compressibility (1/GPa) = 0.02185358
#
# Stress axis : x y z
#
# Youngs Moduli (GPa) = 73.87786 76.40658 80.75924
#
# Poissons Ratio (x) = 0.19477 0.41250
# Poissons Ratio (y) = 0.18832 0.07426
# Poissons Ratio (z) = 0.37735 0.07025
#
# Static dielectric constant tensor:
#      x y z
#    x 1.654870 0.000000 0.000000 
#    y 0.000000 1.656450 0.000000 
#    z 0.000000 0.000000 1.684490 
# 
# From -- ./inp_files/69379.got.cif
#   From: 2010.05.17/outbox.cif.g08.bks.cpg/sg63_35_cif.got.tgz:69379.got - 2010.06.03 15:47:04.
