data_PCOD9471173
_publ_section_title
;
Structure prediction by ZEFSAII (Michael W. Deem and Ramdas Pophale) SiO2 
 PCOD9471173
Probable space group: C M C M
;
_chemical_formula_sum "Si O2"
_cell_formula_units_Z 116
_cell_length_a 28.944495
_cell_length_b 10.415743
_cell_length_c 17.047351
_cell_angle_alpha 90.000000
_cell_angle_beta 90.000000
_cell_angle_gamma 90.000000
_cell_volume 5139.408465
_symmetry_space_group_name_H-M "C M C M"
_symmetry_group_IT_number 63
_symmetry_cell_setting 'orthorhombic'
loop_
_space_group_symop_operation_xyz
x,y,z
-x,-y,1/2+z
x,-y,-z
-x,y,1/2-z
-x,-y,-z
x,y,1/2-z
-x,y,z
x,-y,1/2+z
1/2+x,1/2+y,z
1/2-x,1/2-y,1/2+z
1/2+x,1/2-y,-z
1/2-x,1/2+y,1/2-z
1/2-x,1/2-y,-z
1/2+x,1/2+y,1/2-z
1/2-x,1/2+y,z
1/2+x,1/2-y,1/2+z
loop_
_atom_site_type_symbol
_atom_site_label
_atom_site_fract_x
_atom_site_fract_y
_atom_site_fract_z
Si Si1 0.070037 0.233646 0.616605
Si Si2 0.652734 0.884027 0.061241
Si Si3 0.500000 0.814487 0.750000
Si Si4 0.328407 0.294738 0.422954
Si Si5 0.934634 0.934586 0.840263
Si Si6 0.050079 0.314603 0.438529
Si Si7 0.830287 0.038665 0.164606
Si Si8 0.767852 0.716869 0.660912
O O1 0.125573 0.251433 0.623653
O O2 0.056384 0.282283 0.530381
O O3 0.040294 0.303450 0.681712
O O4 0.060398 0.079482 0.626561
O O5 0.598552 0.882470 0.086373
O O6 0.693588 0.879817 0.124973
O O7 0.662960 0.756167 0.009733
O O8 0.658866 0.000000 0.000000
O O9 0.328115 0.446056 0.408861
O O10 0.278394 0.261606 0.389072
O O11 0.950957 0.935887 0.750000
O O12 0.953128 0.820717 0.893168
O O13 0.880603 0.901301 0.837213
O O14 0.000000 0.381512 0.425994
O O15 0.828641 0.969351 0.250000
O O16 0.792262 0.145802 0.163596
O O17 0.757394 0.677396 0.750000
#
# Coordination Sequence:
#
# PCOD9471173 Si02
#       8
#    16  16   4  16  16  16  16  16
#     4  10  22  36  58  92 131 169 209 267 326 392
#     4  11  26  47  66  93 128 176 229 272 324 394
#     4  12  20  36  62  88 136 174 210 264 332 382
#     4  10  23  41  66  97 132 168 216 265 326 393
#     4  10  19  34  58  92 133 167 205 258 327 399
#     4  11  23  39  61  91 123 168 222 273 328 386
#     4   9  19  37  62  96 133 167 205 262 329 382
#     4  11  23  42  69  96 131 173 215 269 331 389
#
# _framework density 22.570689999999999
#
# number of rings (size 3 to 8) (size 9 to 14) (size 15 to 20)
#    0.000    1.655    2.759    1.241    4.828    1.655 
#    0.000    0.690    1.517    0.000    0.000    0.000 
#    0.000    0.000    0.000    0.000    0.000    0.000 
#
# Total GULP energy -323222.851400 kJ/mol
# GULP energy per Si atom -5572.807783 kJ/mol
# Density = 2.251932 g / cm^3
# Si number density = 22.570690 Si / 1000 Ang^3
#
#
#
# Elastic Constant Matrix: (Units=GPa)
#
#
# Indices 1 2 3 4 5 6 
#
# 1 205.1016 4.0837 23.2581 0.0000 0.0000 0.0000
# 2 4.0837 15.8389 5.1516 0.0000 0.0000 0.0000
# 3 23.2581 5.1516 49.7038 0.0000 0.0000 0.0000
# 4 0.0000 0.0000 0.0000 8.8428 0.0000 0.0000
# 5 0.0000 0.0000 0.0000 0.0000 -6.0042 0.0000
# 6 0.0000 0.0000 0.0000 0.0000 0.0000 1.9944
#
#
#
# Elastic Compliance Matrix: (Units=1/GPa)
#
#
# Indices 1 2 3 4 5 6 
#
# 1 0.005154 -0.000563 -0.002353 0.000000 0.000000 0.000000
# 2 -0.000563 0.065400 -0.006515 0.000000 0.000000 0.000000
# 3 -0.002353 -0.006515 0.021896 0.000000 0.000000 0.000000
# 4 0.000000 0.000000 0.000000 0.113086 0.000000 0.000000
# 5 0.000000 0.000000 0.000000 0.000000 -0.166551 0.000000
# 6 0.000000 0.000000 0.000000 0.000000 0.000000 0.501406
#
#
# Mechanical properties :
#
#
# Convention : Reuss Voigt Hill
#
# Bulk Modulus (GPa) = 13.58946 37.29234 25.44090
# Shear Modulus (GPa) = 8.56484 16.84333 12.70409
#
# Velocity S-wave (km/s) = 1.95011 2.73472 2.37504
# Velocity P-wave (km/s) = 3.33234 5.15072 4.33788
#
# Compressibility (1/GPa) = 0.07358643
#
# Stress axis : x y z
#
# Youngs Moduli (GPa) = 194.03544 15.29053 45.67133
#
# Poissons Ratio (x) = 0.00861 0.10747
# Poissons Ratio (y) = 0.10932 0.29754
# Poissons Ratio (z) = 0.45660 0.09962
#
# Static dielectric constant tensor:
#      x y z
#    x 1.906510 0.000000 0.000000 
#    y 0.000000 1.870740 0.000000 
#    z 0.000000 0.000000 1.986870 
# 
# From -- ./inp_files/49111.got.cif
#   From: 2010.05.17/outbox.cif.g08.bks.cpg/sg63_25_cif.got.tgz:49111.got - 2010.06.03 15:47:04.
