data_PCOD9471702
_publ_section_title
;
Structure prediction by ZEFSAII (Michael W. Deem and Ramdas Pophale) SiO2 
 PCOD9471702
Probable space group: C M C M
;
_chemical_formula_sum "Si O2"
_cell_formula_units_Z 112
_cell_length_a 16.510637
_cell_length_b 19.929555
_cell_length_c 18.573421
_cell_angle_alpha 90.000000
_cell_angle_beta 90.000000
_cell_angle_gamma 90.000000
_cell_volume 6111.577645
_symmetry_space_group_name_H-M "C M C M"
_symmetry_group_IT_number 63
_symmetry_cell_setting 'orthorhombic'
loop_
_space_group_symop_operation_xyz
x,y,z
-x,-y,1/2+z
x,-y,-z
-x,y,1/2-z
-x,-y,-z
x,y,1/2-z
-x,y,z
x,-y,1/2+z
1/2+x,1/2+y,z
1/2-x,1/2-y,1/2+z
1/2+x,1/2-y,-z
1/2-x,1/2+y,1/2-z
1/2-x,1/2-y,-z
1/2+x,1/2+y,1/2-z
1/2-x,1/2+y,z
1/2+x,1/2-y,1/2+z
loop_
_atom_site_type_symbol
_atom_site_label
_atom_site_fract_x
_atom_site_fract_y
_atom_site_fract_z
Si Si1 0.401968 0.909374 0.333775
Si Si2 0.402166 0.426267 0.523832
Si Si3 0.402137 0.350010 0.667930
Si Si4 0.903984 0.301299 0.830018
Si Si5 0.650404 0.705604 0.946324
Si Si6 0.160772 0.721551 0.589395
Si Si7 0.593795 0.055926 0.162049
O O1 0.378290 0.898670 0.250000
O O2 0.500000 0.911193 0.334872
O O3 0.372728 0.848473 0.382253
O O4 0.371052 0.983278 0.357616
O O5 0.374818 0.500000 0.500000
O O6 0.500000 0.424806 0.519945
O O7 0.380416 0.403393 0.605378
O O8 0.369079 0.369501 0.470135
O O9 0.382150 0.369647 0.750000
O O10 0.500000 0.339846 0.664384
O O11 0.359293 0.280209 0.646486
O O12 0.870200 0.291323 0.750000
O O13 0.892793 0.236448 0.877730
O O14 0.869792 0.372220 0.860928
O O15 0.000000 0.312948 0.824045
O O16 0.744647 0.714180 0.927706
O O17 0.624412 0.751518 0.014344
O O18 0.593373 0.057632 0.250000
O O19 0.500000 0.054017 0.137748
#
# Coordination Sequence:
#
# PCOD9471702 Si02
#       7
#    16  16  16  16  16  16  16
#     4   9  16  28  49  75 100 126 158 198 243 291
#     4   9  18  35  58  78  99 132 172 216 268 316
#     4   9  17  31  54  81 103 128 168 214 257 305
#     4   9  17  31  51  71  92 124 164 199 231 276
#     4  10  21  35  48  67  97 131 164 201 248 303
#     4  10  20  32  46  69 100 131 162 197 246 301
#     4   7  12  25  45  69  96 123 150 182 225 278
#
# _framework density 18.325873000000001
#
# number of rings (size 3 to 8) (size 9 to 14) (size 15 to 20)
#    0.000    3.000    0.000    3.000    0.000    4.000 
#    0.000    5.714    0.000    6.857    0.000    0.000 
#    0.000    0.000    0.000    0.000    0.000    0.000 
#
# Total GULP energy -311745.410552 kJ/mol
# GULP energy per Si atom -5566.882331 kJ/mol
# Density = 1.828416 g / cm^3
# Si number density = 18.325873 Si / 1000 Ang^3
#
#
#
# Elastic Constant Matrix: (Units=GPa)
#
#
# Indices 1 2 3 4 5 6 
#
# 1 8.6236 20.9987 17.0527 0.0000 0.0000 0.0000
# 2 20.9987 161.9289 88.0212 0.0000 0.0000 0.0000
# 3 17.0527 88.0212 87.4291 0.0000 0.0000 0.0000
# 4 0.0000 0.0000 0.0000 23.0799 0.0000 0.0000
# 5 0.0000 0.0000 0.0000 0.0000 18.9325 0.0000
# 6 0.0000 0.0000 0.0000 0.0000 0.0000 -649.0732
#
#
#
# Elastic Compliance Matrix: (Units=1/GPa)
#
#
# Indices 1 2 3 4 5 6 
#
# 1 0.196178 -0.010250 -0.027944 0.000000 0.000000 0.000000
# 2 -0.010250 0.014176 -0.012273 0.000000 0.000000 0.000000
# 3 -0.027944 -0.012273 0.029244 0.000000 0.000000 0.000000
# 4 0.000000 0.000000 0.000000 0.043328 0.000000 0.000000
# 5 0.000000 0.000000 0.000000 0.000000 0.052819 0.000000
# 6 0.000000 0.000000 0.000000 0.000000 0.000000 -0.001541
#
#
# Mechanical properties :
#
#
# Convention : Reuss Voigt Hill
#
# Bulk Modulus (GPa) = 7.21167 56.68075 31.94621
# Shear Modulus (GPa) = 10.38724 -112.61821 -51.11548
#
# Velocity S-wave (km/s) = 2.38336 -7.84771 -5.28707
# Velocity P-wave (km/s) = 3.39376 7.14975 4.44979
#
# Compressibility (1/GPa) = 0.13866412
#
# Stress axis : x y z
#
# Youngs Moduli (GPa) = 5.09741 70.54174 34.19502
#
# Poissons Ratio (x) = 0.72308 0.95554
# Poissons Ratio (y) = 0.05225 0.41967
# Poissons Ratio (z) = 0.14244 0.86574
#
# Static dielectric constant tensor:
#      x y z
#    x 1.629530 0.000000 0.000000 
#    y 0.000000 1.655320 0.000000 
#    z 0.000000 0.000000 1.641570 
# 
# From -- ./inp_files/47326.got.cif
#   From: 2010.05.17/outbox.cif.g08.bks.cpg/sg63_24_cif.got.tgz:47326.got - 2010.06.03 15:47:04.
