data_PCOD9471725
_publ_section_title
;
Structure prediction by ZEFSAII (Michael W. Deem and Ramdas Pophale) SiO2 
 PCOD9471725
Probable space group: C M C M
;
_chemical_formula_sum "Si O2"
_cell_formula_units_Z 96
_cell_length_a 19.384864
_cell_length_b 33.792196
_cell_length_c 8.218152
_cell_angle_alpha 90.000000
_cell_angle_beta 90.000000
_cell_angle_gamma 90.000000
_cell_volume 5383.359011
_symmetry_space_group_name_H-M "C M C M"
_symmetry_group_IT_number 63
_symmetry_cell_setting 'orthorhombic'
loop_
_space_group_symop_operation_xyz
x,y,z
-x,-y,1/2+z
x,-y,-z
-x,y,1/2-z
-x,-y,-z
x,y,1/2-z
-x,y,z
x,-y,1/2+z
1/2+x,1/2+y,z
1/2-x,1/2-y,1/2+z
1/2+x,1/2-y,-z
1/2-x,1/2+y,1/2-z
1/2-x,1/2-y,-z
1/2+x,1/2+y,1/2-z
1/2-x,1/2+y,z
1/2+x,1/2-y,1/2+z
loop_
_atom_site_type_symbol
_atom_site_label
_atom_site_fract_x
_atom_site_fract_y
_atom_site_fract_z
Si Si1 0.652382 0.665596 0.053375
Si Si2 0.921952 0.667267 0.445701
Si Si3 0.920041 0.244645 0.053531
Si Si4 0.789681 0.621772 0.448974
Si Si5 0.213029 0.043978 0.056283
Si Si6 0.577341 0.413007 0.444666
O O1 0.651582 0.666034 0.250000
O O2 0.627094 0.708389 0.995806
O O3 0.728804 0.652094 0.001964
O O4 0.600990 0.630781 0.998698
O O5 0.924417 0.664059 0.250000
O O6 0.901207 0.712208 0.487820
O O7 0.863705 0.637108 0.505937
O O8 0.000000 0.660823 0.508403
O O9 0.917028 0.246067 0.250000
O O10 0.000000 0.236969 0.007648
O O11 0.790817 0.621385 0.250000
O O12 0.764764 0.578432 0.504264
O O13 0.215395 0.044924 0.250000
O O14 0.136177 0.057162 0.005008
O O15 0.229418 0.000000 0.000000
O O16 0.576984 0.414313 0.250000
O O17 0.500000 0.421620 0.504739
#
# Coordination Sequence:
#
# PCOD9471725 Si02
#       6
#    16  16  16  16  16  16
#     4   9  17  30  47  65  91 129 167 199 231 269
#     4   9  17  30  48  68  91 121 155 190 232 282
#     4   9  17  28  42  63  92 125 160 196 234 273
#     4   8  16  31  49  69  91 117 152 192 232 276
#     4  10  20  35  54  72  93 120 151 189 231 278
#     4  10  20  32  47  70  99 128 160 196 229 264
#
# _framework density 17.832732
#
# number of rings (size 3 to 8) (size 9 to 14) (size 15 to 20)
#    0.000    2.833    0.000    2.500    0.000    3.667 
#    0.000    5.833    0.000    0.500    0.000    0.000 
#    0.000    0.000    0.000    0.000    0.000    0.667 
#
# Total GULP energy -267595.239164 kJ/mol
# GULP energy per Si atom -5574.900816 kJ/mol
# Density = 1.779214 g / cm^3
# Si number density = 17.832732 Si / 1000 Ang^3
#
#
#
# Elastic Constant Matrix: (Units=GPa)
#
#
# Indices 1 2 3 4 5 6 
#
# 1 108.6172 104.6538 16.2397 0.0000 0.0000 0.0000
# 2 104.6538 136.1691 10.5070 0.0000 0.0000 0.0000
# 3 16.2397 10.5070 10.8577 0.0000 0.0000 0.0000
# 4 0.0000 0.0000 0.0000 25.5702 0.0000 0.0000
# 5 0.0000 0.0000 0.0000 0.0000 9.6378 0.0000
# 6 0.0000 0.0000 0.0000 0.0000 0.0000 9.8606
#
#
#
# Elastic Compliance Matrix: (Units=1/GPa)
#
#
# Indices 1 2 3 4 5 6 
#
# 1 0.046404 -0.032754 -0.037709 0.000000 0.000000 0.000000
# 2 -0.032754 0.031056 0.018937 0.000000 0.000000 0.000000
# 3 -0.037709 0.018937 0.130176 0.000000 0.000000 0.000000
# 4 0.000000 0.000000 0.000000 0.039108 0.000000 0.000000
# 5 0.000000 0.000000 0.000000 0.000000 0.103758 0.000000
# 6 0.000000 0.000000 0.000000 0.000000 0.000000 0.101414
#
#
# Mechanical properties :
#
#
# Convention : Reuss Voigt Hill
#
# Bulk Modulus (GPa) = 9.56173 57.60501 33.58337
# Shear Modulus (GPa) = 8.47701 17.29661 12.88681
#
# Velocity S-wave (km/s) = 2.18265 3.11776 2.69113
# Velocity P-wave (km/s) = 3.42425 6.73303 5.34131
#
# Compressibility (1/GPa) = 0.10458362
#
# Stress axis : x y z
#
# Youngs Moduli (GPa) = 21.55002 32.19979 7.68188
#
# Poissons Ratio (x) = 1.05468 0.28968
# Poissons Ratio (y) = 0.70585 -0.14547
# Poissons Ratio (z) = 0.81263 -0.60977
#
# Static dielectric constant tensor:
#      x y z
#    x 1.623240 0.000000 0.000000 
#    y 0.000000 1.641130 0.000000 
#    z 0.000000 0.000000 1.618390 
# 
# From -- ./inp_files/8571.got.cif
#   From: 2010.05.17/outbox.cif.g08.bks.cpg/sg63_5_cif.got.tgz:8571.got - 2010.06.03 15:47:04.
