data_PCOD9471726
_publ_section_title
;
Structure prediction by ZEFSAII (Michael W. Deem and Ramdas Pophale) SiO2 
 PCOD9471726
Probable space group: C M C M
;
_chemical_formula_sum "Si O2"
_cell_formula_units_Z 112
_cell_length_a 14.164033
_cell_length_b 27.425557
_cell_length_c 14.508353
_cell_angle_alpha 90.000000
_cell_angle_beta 90.000000
_cell_angle_gamma 90.000000
_cell_volume 5635.863946
_symmetry_space_group_name_H-M "C M C M"
_symmetry_group_IT_number 63
_symmetry_cell_setting 'orthorhombic'
loop_
_space_group_symop_operation_xyz
x,y,z
-x,-y,1/2+z
x,-y,-z
-x,y,1/2-z
-x,-y,-z
x,y,1/2-z
-x,y,z
x,-y,1/2+z
1/2+x,1/2+y,z
1/2-x,1/2-y,1/2+z
1/2+x,1/2-y,-z
1/2-x,1/2+y,1/2-z
1/2-x,1/2-y,-z
1/2+x,1/2+y,1/2-z
1/2-x,1/2+y,z
1/2+x,1/2-y,1/2+z
loop_
_atom_site_type_symbol
_atom_site_label
_atom_site_fract_x
_atom_site_fract_y
_atom_site_fract_z
Si Si1 0.890067 0.615801 0.463690
Si Si2 0.387181 0.074636 0.646911
Si Si3 0.297219 0.741733 0.140730
Si Si4 0.607747 0.771759 0.544135
Si Si5 0.809311 0.527551 0.146844
Si Si6 0.891810 0.138906 0.356324
Si Si7 0.895329 0.967487 0.908093
O O1 0.857464 0.612914 0.569947
O O2 0.887582 0.671035 0.431207
O O3 0.831648 0.576479 0.407452
O O4 0.000000 0.600056 0.459677
O O5 0.347827 0.081308 0.750000
O O6 0.500000 0.076791 0.654015
O O7 0.358514 0.021257 0.610522
O O8 0.310652 0.753074 0.250000
O O9 0.364910 0.766187 0.064060
O O10 0.322246 0.683967 0.129046
O O11 0.190715 0.752045 0.105320
O O12 0.500000 0.754615 0.558705
O O13 0.845565 0.534313 0.250000
O O14 0.697711 0.517963 0.146506
O O15 0.878335 0.121668 0.250000
O O16 0.884582 0.091228 0.419961
O O17 0.000000 0.157361 0.363261
O O18 0.000000 0.973913 0.866140
O O19 0.893285 0.000000 0.000000
#
# Coordination Sequence:
#
# PCOD9471726 Si02
#       7
#    16  16  16  16  16  16  16
#     4  10  20  34  53  78 110 142 171 212 265 317
#     4   9  18  32  50  74 104 140 180 215 252 307
#     4  10  21  38  59  82 110 144 180 221 271 326
#     4  10  22  37  55  84 114 140 178 225 272 325
#     4  11  21  32  49  72 102 142 183 221 262 312
#     4   9  17  31  53  78 102 132 173 219 266 319
#     4  10  20  32  47  70  99 130 168 215 264 309
#
# _framework density 19.872730000000001
#
# number of rings (size 3 to 8) (size 9 to 14) (size 15 to 20)
#    0.000    2.143    0.000    3.429    0.000    6.286 
#    0.000    2.857    0.000    0.000    0.000    1.000 
#    0.000   11.429    0.000    0.000    0.000    0.000 
#
# Total GULP energy -312053.821407 kJ/mol
# GULP energy per Si atom -5572.389668 kJ/mol
# Density = 1.982750 g / cm^3
# Si number density = 19.872730 Si / 1000 Ang^3
#
#
#
# Elastic Constant Matrix: (Units=GPa)
#
#
# Indices 1 2 3 4 5 6 
#
# 1 68.9503 -2.7179 15.4973 0.0000 0.0000 0.0000
# 2 -2.7179 32.2659 7.3755 0.0000 0.0000 0.0000
# 3 15.4973 7.3755 43.7019 0.0000 0.0000 0.0000
# 4 0.0000 0.0000 0.0000 4.3973 0.0000 0.0000
# 5 0.0000 0.0000 0.0000 0.0000 18.9221 0.0000
# 6 0.0000 0.0000 0.0000 0.0000 0.0000 17.0510
#
#
#
# Elastic Compliance Matrix: (Units=1/GPa)
#
#
# Indices 1 2 3 4 5 6 
#
# 1 0.015990 0.002749 -0.006134 0.000000 0.000000 0.000000
# 2 0.002749 0.032709 -0.006495 0.000000 0.000000 0.000000
# 3 -0.006134 -0.006495 0.026154 0.000000 0.000000 0.000000
# 4 0.000000 0.000000 0.000000 0.227411 0.000000 0.000000
# 5 0.000000 0.000000 0.000000 0.000000 0.052848 0.000000
# 6 0.000000 0.000000 0.000000 0.000000 0.000000 0.058647
#
#
# Mechanical properties :
#
#
# Convention : Reuss Voigt Hill
#
# Bulk Modulus (GPa) = 18.15137 20.58088 19.36613
# Shear Modulus (GPa) = 11.06479 16.39164 13.72822
#
# Velocity S-wave (km/s) = 2.36218 2.87510 2.63117
# Velocity P-wave (km/s) = 4.07351 4.62606 4.35855
#
# Compressibility (1/GPa) = 0.05509226
#
# Stress axis : x y z
#
# Youngs Moduli (GPa) = 62.53781 30.57283 38.23532
#
# Poissons Ratio (x) = -0.08405 0.23455
# Poissons Ratio (y) = -0.17193 0.24834
# Poissons Ratio (z) = 0.38363 0.19857
#
# Static dielectric constant tensor:
#      x y z
#    x 1.739680 0.000000 0.000000 
#    y 0.000000 1.708430 0.000000 
#    z 0.000000 0.000000 1.735010 
# 
# From -- ./inp_files/32523.got.cif
#   From: 2010.05.17/outbox.cif.g08.bks.cpg/sg63_17_cif.got.tgz:32523.got - 2010.06.03 15:47:04.
