data_PCOD9471456
_publ_section_title
;
Structure prediction by ZEFSAII (Michael W. Deem and Ramdas Pophale) SiO2 
 PCOD9471456
Probable space group: C M C M
;
_chemical_formula_sum "Si O2"
_cell_formula_units_Z 92
_cell_length_a 16.520817
_cell_length_b 15.062882
_cell_length_c 19.181321
_cell_angle_alpha 90.000000
_cell_angle_beta 90.000000
_cell_angle_gamma 90.000000
_cell_volume 4773.293157
_symmetry_space_group_name_H-M "C M C M"
_symmetry_group_IT_number 63
_symmetry_cell_setting 'orthorhombic'
loop_
_space_group_symop_operation_xyz
x,y,z
-x,-y,1/2+z
x,-y,-z
-x,y,1/2-z
-x,-y,-z
x,y,1/2-z
-x,y,z
x,-y,1/2+z
1/2+x,1/2+y,z
1/2-x,1/2-y,1/2+z
1/2+x,1/2-y,-z
1/2-x,1/2+y,1/2-z
1/2-x,1/2-y,-z
1/2+x,1/2+y,1/2-z
1/2-x,1/2+y,z
1/2+x,1/2-y,1/2+z
loop_
_atom_site_type_symbol
_atom_site_label
_atom_site_fract_x
_atom_site_fract_y
_atom_site_fract_z
Si Si1 0.265114 0.070901 0.829310
Si Si2 0.860290 0.748876 0.868711
Si Si3 0.410081 0.781744 0.527582
Si Si4 0.239443 0.607612 0.083476
Si Si5 0.856932 0.000000 0.000000
Si Si6 0.000000 0.769584 0.750000
Si Si7 0.912256 0.106206 0.623297
O O1 0.286930 0.050378 0.750000
O O2 0.317599 0.154361 0.854295
O O3 0.169852 0.096420 0.833592
O O4 0.277541 0.983922 0.876379
O O5 0.790911 0.824564 0.869313
O O6 0.928730 0.767072 0.811519
O O7 0.895014 0.745083 0.947416
O O8 0.500000 0.821555 0.532951
O O9 0.340072 0.846601 0.553779
O O10 0.408381 0.695870 0.577733
O O11 0.297842 0.580764 0.019474
O O12 0.907530 0.026257 0.932852
O O13 0.000000 0.103238 0.659337
#
# Coordination Sequence:
#
# PCOD9471456 Si02
#       7
#    16  16  16  16   8   4  16
#     4  11  25  43  64  90 130 183 213 265 341 398
#     4  12  23  46  67  92 137 170 223 272 330 403
#     4  11  21  39  67  98 127 165 215 282 332 379
#     4  11  23  41  66  97 131 171 223 270 333 403
#     4  10  19  36  59  96 128 164 204 265 340 375
#     4  12  28  44  68 104 126 190 222 268 332 404
#     4  10  20  36  61  95 126 158 213 264 323 386
#
# _framework density 19.273904999999999
#
# number of rings (size 3 to 8) (size 9 to 14) (size 15 to 20)
#    0.000    1.043    5.217    2.870    1.217    0.348 
#    7.826    1.304    0.000    0.000    0.000    0.000 
#    0.000    0.000    0.000    0.000    0.000    0.000 
#
# Total GULP energy -256348.725772 kJ/mol
# GULP energy per Si atom -5572.798386 kJ/mol
# Density = 1.923004 g / cm^3
# Si number density = 19.273905 Si / 1000 Ang^3
#
#
#
# Elastic Constant Matrix: (Units=GPa)
#
#
# Indices 1 2 3 4 5 6 
#
# 1 133.2392 44.8880 29.3691 0.0000 0.0000 0.0000
# 2 44.8880 68.1018 24.8526 0.0000 0.0000 0.0000
# 3 29.3691 24.8526 75.8955 0.0000 0.0000 0.0000
# 4 0.0000 0.0000 0.0000 11.0960 0.0000 0.0000
# 5 0.0000 0.0000 0.0000 0.0000 16.8204 0.0000
# 6 0.0000 0.0000 0.0000 0.0000 0.0000 10.6174
#
#
#
# Elastic Compliance Matrix: (Units=1/GPa)
#
#
# Indices 1 2 3 4 5 6 
#
# 1 0.009888 -0.005816 -0.001922 0.000000 0.000000 0.000000
# 2 -0.005816 0.020098 -0.004330 0.000000 0.000000 0.000000
# 3 -0.001922 -0.004330 0.015338 0.000000 0.000000 0.000000
# 4 0.000000 0.000000 0.000000 0.090123 0.000000 0.000000
# 5 0.000000 0.000000 0.000000 0.000000 0.059452 0.000000
# 6 0.000000 0.000000 0.000000 0.000000 0.000000 0.094185
#
#
# Mechanical properties :
#
#
# Convention : Reuss Voigt Hill
#
# Bulk Modulus (GPa) = 47.19952 52.82843 50.01398
# Shear Modulus (GPa) = 15.61118 19.58189 17.59653
#
# Velocity S-wave (km/s) = 2.84908 3.19090 3.02482
# Velocity P-wave (km/s) = 5.94684 6.40661 6.18100
#
# Compressibility (1/GPa) = 0.02118666
#
# Stress axis : x y z
#
# Youngs Moduli (GPa) = 101.12793 49.75612 65.19855
#
# Poissons Ratio (x) = 0.28940 0.12530
# Poissons Ratio (y) = 0.58820 0.28234
# Poissons Ratio (z) = 0.19436 0.21547
#
# Static dielectric constant tensor:
#      x y z
#    x 1.682220 0.000000 0.000000 
#    y 0.000000 1.670100 0.000000 
#    z 0.000000 0.000000 1.668370 
# 
# From -- ./inp_files/54231.got.cif
#   From: 2010.05.17/outbox.cif.g08.bks.cpg/sg63_28_cif.got.tgz:54231.got - 2010.06.03 15:47:04.
