data_PCOD9471127
_publ_section_title
;
Structure prediction by ZEFSAII (Michael W. Deem and Ramdas Pophale) SiO2 
 PCOD9471127
Probable space group: C M C M
;
_chemical_formula_sum "Si O2"
_cell_formula_units_Z 96
_cell_length_a 7.938531
_cell_length_b 31.048375
_cell_length_c 19.677179
_cell_angle_alpha 90.000000
_cell_angle_beta 90.000000
_cell_angle_gamma 90.000000
_cell_volume 4850.001317
_symmetry_space_group_name_H-M "C M C M"
_symmetry_group_IT_number 63
_symmetry_cell_setting 'orthorhombic'
loop_
_space_group_symop_operation_xyz
x,y,z
-x,-y,1/2+z
x,-y,-z
-x,y,1/2-z
-x,-y,-z
x,y,1/2-z
-x,y,z
x,-y,1/2+z
1/2+x,1/2+y,z
1/2-x,1/2-y,1/2+z
1/2+x,1/2-y,-z
1/2-x,1/2+y,1/2-z
1/2-x,1/2-y,-z
1/2+x,1/2+y,1/2-z
1/2-x,1/2+y,z
1/2+x,1/2-y,1/2+z
loop_
_atom_site_type_symbol
_atom_site_label
_atom_site_fract_x
_atom_site_fract_y
_atom_site_fract_z
Si Si1 0.203109 0.263573 0.076254
Si Si2 0.299337 0.935727 0.173472
Si Si3 0.796449 0.186694 0.172425
Si Si4 0.198490 0.011006 0.075370
Si Si5 0.701234 0.891513 0.923758
Si Si6 0.293590 0.138976 0.926424
O O1 0.265723 0.227828 0.129261
O O2 0.261838 0.312369 0.088748
O O3 0.000000 0.264012 0.080490
O O4 0.250000 0.250000 0.000000
O O5 0.230337 0.937297 0.250000
O O6 0.500000 0.929344 0.178443
O O7 0.272187 0.979523 0.131920
O O8 0.233846 0.896064 0.128065
O O9 0.735643 0.186823 0.250000
O O10 0.748733 0.143537 0.132373
O O11 0.000000 0.188894 0.173926
O O12 0.000000 0.002346 0.073817
O O13 0.228545 0.061079 0.089806
O O14 0.268402 0.000000 0.000000
O O15 0.500000 0.894960 0.926526
O O16 0.760380 0.875019 0.997896
O O17 0.500000 0.138791 0.926550
#
# Coordination Sequence:
#
# PCOD9471127 Si02
#       6
#    16  16  16  16  16  16
#     4  10  19  34  57  84 113 148 190 231 277 330
#     4  10  21  38  60  86 116 149 186 233 287 339
#     4  10  22  38  56  83 120 155 188 234 288 340
#     4  11  23  38  59  86 115 150 190 233 285 342
#     4  11  21  36  61  86 112 148 192 239 284 332
#     4   9  18  33  56  86 114 143 185 236 280 327
#
# _framework density 19.793807999999999
#
# number of rings (size 3 to 8) (size 9 to 14) (size 15 to 20)
#    0.000    1.833    3.333    1.000    0.000    2.667 
#    0.000    4.167    0.000    0.000    0.000    2.333 
#    0.000    0.000    0.000    0.000    0.000    0.000 
#
# Total GULP energy -268128.293117 kJ/mol
# GULP energy per Si atom -5586.006107 kJ/mol
# Density = 1.974876 g / cm^3
# Si number density = 19.793808 Si / 1000 Ang^3
#
#
#
# Elastic Constant Matrix: (Units=GPa)
#
#
# Indices 1 2 3 4 5 6 
#
# 1 14.3863 -15.4268 -0.7707 0.0000 0.0000 0.0000
# 2 -15.4268 166.5735 87.8973 0.0000 0.0000 0.0000
# 3 -0.7707 87.8973 183.6362 0.0000 0.0000 0.0000
# 4 0.0000 0.0000 0.0000 31.4137 0.0000 0.0000
# 5 0.0000 0.0000 0.0000 0.0000 18.3902 0.0000
# 6 0.0000 0.0000 0.0000 0.0000 0.0000 1.5689
#
#
#
# Elastic Compliance Matrix: (Units=1/GPa)
#
#
# Indices 1 2 3 4 5 6 
#
# 1 0.079606 0.009628 -0.004274 0.000000 0.000000 0.000000
# 2 0.009628 0.009196 -0.004361 0.000000 0.000000 0.000000
# 3 -0.004274 -0.004361 0.007515 0.000000 0.000000 0.000000
# 4 0.000000 0.000000 0.000000 0.031833 0.000000 0.000000
# 5 0.000000 0.000000 0.000000 0.000000 0.054377 0.000000
# 6 0.000000 0.000000 0.000000 0.000000 0.000000 0.637383
#
#
# Mechanical properties :
#
#
# Convention : Reuss Voigt Hill
#
# Bulk Modulus (GPa) = 10.17271 56.44395 33.30833
# Shear Modulus (GPa) = 5.87756 29.80097 17.83926
#
# Velocity S-wave (km/s) = 1.72506 3.88438 3.00535
# Velocity P-wave (km/s) = 3.01965 6.97823 5.37652
#
# Compressibility (1/GPa) = 0.09830227
#
# Stress axis : x y z
#
# Youngs Moduli (GPa) = 12.56184 108.73712 133.06310
#
# Poissons Ratio (x) = -1.04692 0.56876
# Poissons Ratio (y) = -0.12095 0.58035
# Poissons Ratio (z) = 0.05369 0.47426
#
# Static dielectric constant tensor:
#      x y z
#    x 1.716800 0.000000 0.000000 
#    y 0.000000 1.666020 0.000000 
#    z 0.000000 0.000000 1.681790 
# 
# From -- ./inp_files/51255.got.cif
#   From: 2010.05.17/outbox.cif.g08.bks.cpg/sg63_26_cif.got.tgz:51255.got - 2010.06.03 15:47:04.
