data_PCOD9471161
_publ_section_title
;
Structure prediction by ZEFSAII (Michael W. Deem and Ramdas Pophale) SiO2 
 PCOD9471161
Probable space group: C M C M
;
_chemical_formula_sum "Si O2"
_cell_formula_units_Z 96
_cell_length_a 7.514798
_cell_length_b 30.337621
_cell_length_c 18.808924
_cell_angle_alpha 90.000000
_cell_angle_beta 90.000000
_cell_angle_gamma 90.000000
_cell_volume 4288.079063
_symmetry_space_group_name_H-M "C M C M"
_symmetry_group_IT_number 63
_symmetry_cell_setting 'orthorhombic'
loop_
_space_group_symop_operation_xyz
x,y,z
-x,-y,1/2+z
x,-y,-z
-x,y,1/2-z
-x,-y,-z
x,y,1/2-z
-x,y,z
x,-y,1/2+z
1/2+x,1/2+y,z
1/2-x,1/2-y,1/2+z
1/2+x,1/2-y,-z
1/2-x,1/2+y,1/2-z
1/2-x,1/2-y,-z
1/2+x,1/2+y,1/2-z
1/2-x,1/2+y,z
1/2+x,1/2-y,1/2+z
loop_
_atom_site_type_symbol
_atom_site_label
_atom_site_fract_x
_atom_site_fract_y
_atom_site_fract_z
Si Si1 0.215205 0.343622 0.909829
Si Si2 0.297125 0.806637 0.442047
Si Si3 0.285110 0.036701 0.597707
Si Si4 0.706801 0.623657 0.828556
Si Si5 0.783207 0.441222 0.935785
Si Si6 0.288977 0.739876 0.171996
O O1 0.277260 0.394138 0.906770
O O2 0.265037 0.311283 0.846341
O O3 0.000000 0.345248 0.913913
O O4 0.283298 0.321135 0.983037
O O5 0.500000 0.792957 0.457958
O O6 0.299319 0.849193 0.390868
O O7 0.213494 0.768515 0.393337
O O8 0.500000 0.037301 0.599941
O O9 0.219949 0.071958 0.654280
O O10 0.232028 0.053173 0.518655
O O11 0.226323 0.985935 0.603775
O O12 0.778634 0.633357 0.750000
O O13 0.500000 0.636339 0.830294
O O14 0.000000 0.441345 0.934798
O O15 0.215986 0.750790 0.250000
O O16 0.500000 0.749520 0.174002
#
# Coordination Sequence:
#
# PCOD9471161 Si02
#       6
#    16  16  16  16  16  16
#     4  10  19  34  58  86 109 134 177 229 275 318
#     4  10  20  37  60  81 103 139 185 229 271 322
#     4   9  16  32  56  77 103 139 176 217 265 317
#     4  11  23  35  49  77 116 148 178 223 275 326
#     4   8  15  30  55  83 105 129 172 226 265 305
#     4  10  22  38  54  77 110 146 183 220 265 326
#
# _framework density 22.387647000000001
#
# number of rings (size 3 to 8) (size 9 to 14) (size 15 to 20)
#    0.000    2.333    1.667    2.500    0.000    3.667 
#    0.000    3.333    0.000    5.000    0.000    0.000 
#    0.000    0.000    0.000    0.000    0.000    0.000 
#
# Total GULP energy -268077.678608 kJ/mol
# GULP energy per Si atom -5584.951638 kJ/mol
# Density = 2.233669 g / cm^3
# Si number density = 22.387647 Si / 1000 Ang^3
#
#
#
# Elastic Constant Matrix: (Units=GPa)
#
#
# Indices 1 2 3 4 5 6 
#
# 1 62.2874 -5.7165 -2.7430 0.0000 0.0000 0.0000
# 2 -5.7165 128.1338 15.3338 0.0000 0.0000 0.0000
# 3 -2.7430 15.3338 48.0586 0.0000 0.0000 0.0000
# 4 0.0000 0.0000 0.0000 1.1800 0.0000 0.0000
# 5 0.0000 0.0000 0.0000 0.0000 7.5235 0.0000
# 6 0.0000 0.0000 0.0000 0.0000 0.0000 24.5284
#
#
#
# Elastic Compliance Matrix: (Units=1/GPa)
#
#
# Indices 1 2 3 4 5 6 
#
# 1 0.016144 0.000634 0.000719 0.000000 0.000000 0.000000
# 2 0.000634 0.008139 -0.002561 0.000000 0.000000 0.000000
# 3 0.000719 -0.002561 0.021666 0.000000 0.000000 0.000000
# 4 0.000000 0.000000 0.000000 0.847449 0.000000 0.000000
# 5 0.000000 0.000000 0.000000 0.000000 0.132917 0.000000
# 6 0.000000 0.000000 0.000000 0.000000 0.000000 0.040769
#
#
# Mechanical properties :
#
#
# Convention : Reuss Voigt Hill
#
# Bulk Modulus (GPa) = 22.97015 28.02539 25.49777
# Shear Modulus (GPa) = 4.61250 22.08675 13.34962
#
# Velocity S-wave (km/s) = 1.43693 3.14436 2.44456
# Velocity P-wave (km/s) = 3.61047 5.07229 4.40247
#
# Compressibility (1/GPa) = 0.04353477
#
# Stress axis : x y z
#
# Youngs Moduli (GPa) = 61.94067 122.86404 46.15531
#
# Poissons Ratio (x) = -0.07792 -0.03319
# Poissons Ratio (y) = -0.03928 0.11819
# Poissons Ratio (z) = -0.04454 0.31462
#
# Static dielectric constant tensor:
#      x y z
#    x 1.873070 0.000000 0.000000 
#    y 0.000000 1.848560 0.000000 
#    z 0.000000 0.000000 1.791840 
# 
# From -- ./inp_files/51361.got.cif
#   From: 2010.05.17/outbox.cif.g08.bks.cpg/sg63_26_cif.got.tgz:51361.got - 2010.06.03 15:47:04.
