data_PCOD9471757
_publ_section_title
;
Structure prediction by ZEFSAII (Michael W. Deem and Ramdas Pophale) SiO2 
 PCOD9471757
Probable space group: C M C M
;
_chemical_formula_sum "Si O2"
_cell_formula_units_Z 96
_cell_length_a 9.504900
_cell_length_b 31.546867
_cell_length_c 15.009310
_cell_angle_alpha 90.000000
_cell_angle_beta 90.000000
_cell_angle_gamma 90.000000
_cell_volume 4500.538844
_symmetry_space_group_name_H-M "C M C M"
_symmetry_group_IT_number 63
_symmetry_cell_setting 'orthorhombic'
loop_
_space_group_symop_operation_xyz
x,y,z
-x,-y,1/2+z
x,-y,-z
-x,y,1/2-z
-x,-y,-z
x,y,1/2-z
-x,y,z
x,-y,1/2+z
1/2+x,1/2+y,z
1/2-x,1/2-y,1/2+z
1/2+x,1/2-y,-z
1/2-x,1/2+y,1/2-z
1/2-x,1/2-y,-z
1/2+x,1/2+y,1/2-z
1/2-x,1/2+y,z
1/2+x,1/2-y,1/2+z
loop_
_atom_site_type_symbol
_atom_site_label
_atom_site_fract_x
_atom_site_fract_y
_atom_site_fract_z
Si Si1 0.661998 0.213415 0.641095
Si Si2 0.159710 0.550968 0.897126
Si Si3 0.338476 0.795999 0.640928
Si Si4 0.340256 0.044515 0.111335
Si Si5 0.157330 0.125295 0.145519
Si Si6 0.840395 0.132774 0.643377
O O1 0.660153 0.213129 0.750000
O O2 0.500000 0.214626 0.611965
O O3 0.749008 0.254958 0.614263
O O4 0.742769 0.171204 0.610660
O O5 0.194930 0.503798 0.862477
O O6 0.267060 0.587830 0.873944
O O7 0.000000 0.561536 0.867506
O O8 0.156675 0.546796 0.004041
O O9 0.341914 0.796347 0.750000
O O10 0.500000 0.794156 0.611306
O O11 0.260115 0.838460 0.608937
O O12 0.500000 0.053904 0.142265
O O13 0.230390 0.079745 0.139862
O O14 0.143999 0.135318 0.250000
O O15 0.000000 0.125487 0.107001
O O16 0.848094 0.137825 0.750000
O O17 0.000000 0.134679 0.608891
#
# Coordination Sequence:
#
# PCOD9471757 Si02
#       6
#    16  16  16  16  16  16
#     4   9  16  27  45  69  98 131 165 201 242 288
#     4   9  19  36  55  73  95 127 167 207 248 297
#     4   9  16  27  45  69  98 131 165 201 242 288
#     4   9  19  36  55  73  95 127 167 207 248 297
#     4  10  20  32  48  74 105 133 164 203 245 290
#     4  10  20  32  48  74 105 133 164 203 245 290
#
# _framework density 21.330777999999999
#
# number of rings (size 3 to 8) (size 9 to 14) (size 15 to 20)
#    0.000    2.667    0.000    3.000    0.000    8.000 
#    0.000    5.000    0.000    1.000    0.000    0.000 
#    0.000    0.000    0.000    0.000    0.000    0.000 
#
# Total GULP energy -268077.426330 kJ/mol
# GULP energy per Si atom -5584.946382 kJ/mol
# Density = 2.128223 g / cm^3
# Si number density = 21.330778 Si / 1000 Ang^3
#
#
#
# Elastic Constant Matrix: (Units=GPa)
#
#
# Indices 1 2 3 4 5 6 
#
# 1 223.3767 128.0648 -4.7477 0.0000 0.0000 0.0000
# 2 128.0648 148.7354 -16.3530 0.0000 0.0000 0.0000
# 3 -4.7477 -16.3530 42.6409 0.0000 0.0000 0.0000
# 4 0.0000 0.0000 0.0000 46.1139 0.0000 0.0000
# 5 0.0000 0.0000 0.0000 0.0000 0.2650 0.0000
# 6 0.0000 0.0000 0.0000 0.0000 0.0000 38.9117
#
#
#
# Elastic Compliance Matrix: (Units=1/GPa)
#
#
# Indices 1 2 3 4 5 6 
#
# 1 0.009011 -0.007985 -0.002059 0.000000 0.000000 0.000000
# 2 -0.007985 0.014095 0.004517 0.000000 0.000000 0.000000
# 3 -0.002059 0.004517 0.024955 0.000000 0.000000 0.000000
# 4 0.000000 0.000000 0.000000 0.021685 0.000000 0.000000
# 5 0.000000 0.000000 0.000000 0.000000 3.773901 0.000000
# 6 0.000000 0.000000 0.000000 0.000000 0.000000 0.025699
#
#
# Mechanical properties :
#
#
# Convention : Reuss Voigt Hill
#
# Bulk Modulus (GPa) = 27.02287 69.85348 48.43818
# Shear Modulus (GPa) = 1.28444 37.57739 19.43092
#
# Velocity S-wave (km/s) = 0.77683 4.20176 3.02144
# Velocity P-wave (km/s) = 3.67432 7.50723 5.91012
#
# Compressibility (1/GPa) = 0.03700569
#
# Stress axis : x y z
#
# Youngs Moduli (GPa) = 110.97721 70.94630 40.07291
#
# Poissons Ratio (x) = 0.56650 0.08251
# Poissons Ratio (y) = 0.88615 -0.18099
# Poissons Ratio (z) = 0.22850 -0.32043
#
# Static dielectric constant tensor:
#      x y z
#    x 1.740060 0.000000 0.000000 
#    y 0.000000 1.729470 0.000000 
#    z 0.000000 0.000000 1.823140 
# 
# From -- ./inp_files/51262.got.cif
#   From: 2010.05.17/outbox.cif.g08.bks.cpg/sg63_26_cif.got.tgz:51262.got - 2010.06.03 15:47:04.
