data_PCOD9471323
_publ_section_title
;
Structure prediction by ZEFSAII (Michael W. Deem and Ramdas Pophale) SiO2 
 PCOD9471323
Probable space group: C M C M
;
_chemical_formula_sum "Si O2"
_cell_formula_units_Z 112
_cell_length_a 19.176852
_cell_length_b 17.183202
_cell_length_c 15.391701
_cell_angle_alpha 90.000000
_cell_angle_beta 90.000000
_cell_angle_gamma 90.000000
_cell_volume 5071.869029
_symmetry_space_group_name_H-M "C M C M"
_symmetry_group_IT_number 63
_symmetry_cell_setting 'orthorhombic'
loop_
_space_group_symop_operation_xyz
x,y,z
-x,-y,1/2+z
x,-y,-z
-x,y,1/2-z
-x,-y,-z
x,y,1/2-z
-x,y,z
x,-y,1/2+z
1/2+x,1/2+y,z
1/2-x,1/2-y,1/2+z
1/2+x,1/2-y,-z
1/2-x,1/2+y,1/2-z
1/2-x,1/2-y,-z
1/2+x,1/2+y,1/2-z
1/2-x,1/2+y,z
1/2+x,1/2-y,1/2+z
loop_
_atom_site_type_symbol
_atom_site_label
_atom_site_fract_x
_atom_site_fract_y
_atom_site_fract_z
Si Si1 0.668117 0.865129 0.109361
Si Si2 0.295595 0.889878 0.584373
Si Si3 0.920635 0.509216 0.393891
Si Si4 0.696781 0.721058 0.847817
Si Si5 0.348943 0.447028 0.854838
Si Si6 0.579983 0.607003 0.856710
Si Si7 0.082380 0.784019 0.645171
O O1 0.617450 0.932560 0.143509
O O2 0.738257 0.837973 0.156262
O O3 0.621750 0.787464 0.100759
O O4 0.695683 0.896455 0.017983
O O5 0.282409 0.799447 0.603862
O O6 0.230924 0.940359 0.616738
O O7 0.368353 0.919693 0.624354
O O8 0.924007 0.500000 0.500000
O O9 0.000000 0.518379 0.363908
O O10 0.679404 0.745323 0.750000
O O11 0.630739 0.675979 0.886499
O O12 0.350753 0.448257 0.750000
O O13 0.387720 0.524652 0.885296
O O14 0.387661 0.367704 0.882144
O O15 0.581623 0.607446 0.750000
O O16 0.500000 0.615545 0.883650
O O17 0.094592 0.776139 0.750000
O O18 0.000000 0.780636 0.630260
#
# Coordination Sequence:
#
# PCOD9471323 Si02
#       7
#    16  16  16  16  16  16  16
#     4  11  21  37  60  85 115 152 192 238 287 347
#     4  11  22  36  60  86 114 152 193 237 287 348
#     4   9  20  38  58  83 114 151 191 236 290 343
#     4  11  22  37  58  83 115 151 192 238 285 343
#     4  10  19  35  59  85 115 148 191 241 287 340
#     4   9  19  36  58  82 110 150 193 234 286 344
#     4  10  20  34  57  87 117 148 184 235 292 342
#
# _framework density 22.082588999999999
#
# number of rings (size 3 to 8) (size 9 to 14) (size 15 to 20)
#    0.000    1.857    1.429    3.000    0.000    2.857 
#    0.000    2.143    0.000    5.571    0.000    0.000 
#    0.000    0.000    0.000    0.000    0.000    0.000 
#
# Total GULP energy -313045.216622 kJ/mol
# GULP energy per Si atom -5590.093154 kJ/mol
# Density = 2.203233 g / cm^3
# Si number density = 22.082589 Si / 1000 Ang^3
#
#
#
# Elastic Constant Matrix: (Units=GPa)
#
#
# Indices 1 2 3 4 5 6 
#
# 1 157.3065 36.7073 0.6543 0.0000 0.0000 0.0000
# 2 36.7073 62.9548 0.8137 0.0000 0.0000 0.0000
# 3 0.6543 0.8137 12.8587 0.0000 0.0000 0.0000
# 4 0.0000 0.0000 0.0000 4.2909 0.0000 0.0000
# 5 0.0000 0.0000 0.0000 0.0000 10.7542 0.0000
# 6 0.0000 0.0000 0.0000 0.0000 0.0000 35.8715
#
#
#
# Elastic Compliance Matrix: (Units=1/GPa)
#
#
# Indices 1 2 3 4 5 6 
#
# 1 0.007358 -0.004289 -0.000103 0.000000 0.000000 0.000000
# 2 -0.004289 0.018398 -0.000946 0.000000 0.000000 0.000000
# 3 -0.000103 -0.000946 0.077833 0.000000 0.000000 0.000000
# 4 0.000000 0.000000 0.000000 0.233050 0.000000 0.000000
# 5 0.000000 0.000000 0.000000 0.000000 0.092987 0.000000
# 6 0.000000 0.000000 0.000000 0.000000 0.000000 0.027877
#
#
# Mechanical properties :
#
#
# Convention : Reuss Voigt Hill
#
# Bulk Modulus (GPa) = 10.76275 34.38563 22.57419
# Shear Modulus (GPa) = 10.01702 23.17963 16.59833
#
# Velocity S-wave (km/s) = 2.13214 3.24339 2.74459
# Velocity P-wave (km/s) = 3.30844 5.44346 4.50428
#
# Compressibility (1/GPa) = 0.09291309
#
# Stress axis : x y z
#
# Youngs Moduli (GPa) = 135.90091 54.35520 12.84795
#
# Poissons Ratio (x) = 0.23313 0.00132
# Poissons Ratio (y) = 0.58289 0.01215
# Poissons Ratio (z) = 0.01400 0.05142
#
# Static dielectric constant tensor:
#      x y z
#    x 1.779670 0.000000 0.000000 
#    y 0.000000 1.784620 0.000000 
#    z 0.000000 0.000000 1.800700 
# 
# From -- ./inp_files/55808.got.cif
#   From: 2010.05.17/outbox.cif.g08.bks.cpg/sg63_28_cif.got.tgz:55808.got - 2010.06.03 15:47:04.
