data_PCOD9471707
_publ_section_title
;
Structure prediction by ZEFSAII (Michael W. Deem and Ramdas Pophale) SiO2 
 PCOD9471707
Probable space group: C M C M
;
_chemical_formula_sum "Si O2"
_cell_formula_units_Z 116
_cell_length_a 27.271857
_cell_length_b 28.647931
_cell_length_c 7.883169
_cell_angle_alpha 90.000000
_cell_angle_beta 90.000000
_cell_angle_gamma 90.000000
_cell_volume 6158.980231
_symmetry_space_group_name_H-M "C M C M"
_symmetry_group_IT_number 63
_symmetry_cell_setting 'orthorhombic'
loop_
_space_group_symop_operation_xyz
x,y,z
-x,-y,1/2+z
x,-y,-z
-x,y,1/2-z
-x,-y,-z
x,y,1/2-z
-x,y,z
x,-y,1/2+z
1/2+x,1/2+y,z
1/2-x,1/2-y,1/2+z
1/2+x,1/2-y,-z
1/2-x,1/2+y,1/2-z
1/2-x,1/2-y,-z
1/2+x,1/2+y,1/2-z
1/2-x,1/2+y,z
1/2+x,1/2-y,1/2+z
loop_
_atom_site_type_symbol
_atom_site_label
_atom_site_fract_x
_atom_site_fract_y
_atom_site_fract_z
Si Si1 0.362914 0.274839 0.443073
Si Si2 0.000000 0.339415 0.250000
Si Si3 0.053664 0.445372 0.455669
Si Si4 0.347330 0.900354 0.046498
Si Si5 0.754505 0.947332 0.951378
Si Si6 0.202622 0.147443 0.449629
Si Si7 0.053894 0.296385 0.948047
Si Si8 0.801875 0.694417 0.947529
O O1 0.375658 0.284443 0.250000
O O2 0.347057 0.323783 0.523031
O O3 0.406222 0.241307 0.509038
O O4 0.315640 0.240950 0.455244
O O5 0.042878 0.334204 0.402903
O O6 0.057097 0.500000 0.500000
O O7 0.052498 0.440439 0.250000
O O8 0.102286 0.420932 0.523100
O O9 0.000000 0.429029 0.517306
O O10 0.350699 0.897948 0.250000
O O11 0.335337 0.848276 0.985362
O O12 0.300159 0.932571 0.009447
O O13 0.753843 0.946035 0.750000
O O14 0.791302 0.906060 0.010504
O O15 0.766683 0.000000 0.000000
O O16 0.213020 0.148215 0.250000
O O17 0.247174 0.175340 0.535530
O O18 0.064060 0.311175 0.750000
O O19 0.000000 0.272638 0.941787
O O20 0.812284 0.703194 0.750000
#
# Coordination Sequence:
#
# PCOD9471707 Si02
#       8
#    16   4  16  16  16  16  16  16
#     4  11  21  33  50  70  98 130 160 198 243 283
#     4   8  14  28  52  66  96 124 160 200 252 270
#     4   9  17  29  45  64  87 111 145 193 245 293
#     4   9  18  32  47  65  87 118 156 196 238 288
#     4  10  20  33  50  71  93 121 151 190 233 281
#     4  10  21  34  49  70  96 124 162 197 235 286
#     4   8  17  30  46  71  96 123 163 204 240 285
#     4  10  20  32  47  66  93 126 164 201 241 289
#
# _framework density 18.834288000000001
#
# number of rings (size 3 to 8) (size 9 to 14) (size 15 to 20)
#    0.414    2.069    0.000    2.483    1.931    3.862 
#    0.000    0.690    0.000    0.828    0.000    0.000 
#    0.000    0.552    0.000    2.759    0.000    5.103 
#
# Total GULP energy -322879.670162 kJ/mol
# GULP energy per Si atom -5566.890865 kJ/mol
# Density = 1.879142 g / cm^3
# Si number density = 18.834288 Si / 1000 Ang^3
#
#
#
# Elastic Constant Matrix: (Units=GPa)
#
#
# Indices 1 2 3 4 5 6 
#
# 1 41.4871 41.3240 10.0096 0.0000 0.0000 0.0000
# 2 41.3240 112.0199 8.9920 0.0000 0.0000 0.0000
# 3 10.0096 8.9920 52.0602 0.0000 0.0000 0.0000
# 4 0.0000 0.0000 0.0000 19.0904 0.0000 0.0000
# 5 0.0000 0.0000 0.0000 0.0000 16.4219 0.0000
# 6 0.0000 0.0000 0.0000 0.0000 0.0000 18.5269
#
#
#
# Elastic Compliance Matrix: (Units=1/GPa)
#
#
# Indices 1 2 3 4 5 6 
#
# 1 0.039416 -0.014128 -0.005138 0.000000 0.000000 0.000000
# 2 -0.014128 0.014116 0.000278 0.000000 0.000000 0.000000
# 3 -0.005138 0.000278 0.020148 0.000000 0.000000 0.000000
# 4 0.000000 0.000000 0.000000 0.052382 0.000000 0.000000
# 5 0.000000 0.000000 0.000000 0.000000 0.060894 0.000000
# 6 0.000000 0.000000 0.000000 0.000000 0.000000 0.053976
#
#
# Mechanical properties :
#
#
# Convention : Reuss Voigt Hill
#
# Bulk Modulus (GPa) = 28.00758 36.24646 32.12702
# Shear Modulus (GPa) = 17.19327 20.49061 18.84194
#
# Velocity S-wave (km/s) = 3.02465 3.30197 3.16635
# Velocity P-wave (km/s) = 5.20585 5.81585 5.51928
#
# Compressibility (1/GPa) = 0.03570462
#
# Stress axis : x y z
#
# Youngs Moduli (GPa) = 25.37031 70.83912 49.63163
#
# Poissons Ratio (x) = 1.00082 0.25502
# Poissons Ratio (y) = 0.35843 -0.01381
# Poissons Ratio (z) = 0.13036 -0.01971
#
# Static dielectric constant tensor:
#      x y z
#    x 1.706240 0.000000 0.000000 
#    y 0.000000 1.648400 0.000000 
#    z 0.000000 0.000000 1.639180 
# 
# From -- ./inp_files/14911.got.cif
#   From: 2010.05.17/outbox.cif.g08.bks.cpg/sg63_8_cif.got.tgz:14911.got - 2010.06.03 15:47:04.
