data_PCOD9471928
_publ_section_title
;
Structure prediction by ZEFSAII (Michael W. Deem and Ramdas Pophale) SiO2 
 PCOD9471928
Probable space group: C M C M
;
_chemical_formula_sum "Si O2"
_cell_formula_units_Z 96
_cell_length_a 8.533484
_cell_length_b 20.214549
_cell_length_c 31.535971
_cell_angle_alpha 90.000000
_cell_angle_beta 90.000000
_cell_angle_gamma 90.000000
_cell_volume 5439.971726
_symmetry_space_group_name_H-M "C M C M"
_symmetry_group_IT_number 63
_symmetry_cell_setting 'orthorhombic'
loop_
_space_group_symop_operation_xyz
x,y,z
-x,-y,1/2+z
x,-y,-z
-x,y,1/2-z
-x,-y,-z
x,y,1/2-z
-x,y,z
x,-y,1/2+z
1/2+x,1/2+y,z
1/2-x,1/2-y,1/2+z
1/2+x,1/2-y,-z
1/2-x,1/2+y,1/2-z
1/2-x,1/2-y,-z
1/2+x,1/2+y,1/2-z
1/2-x,1/2+y,z
1/2+x,1/2-y,1/2+z
loop_
_atom_site_type_symbol
_atom_site_label
_atom_site_fract_x
_atom_site_fract_y
_atom_site_fract_z
Si Si1 0.689175 0.202662 0.701607
Si Si2 0.310715 0.450478 0.536804
Si Si3 0.810671 0.450772 0.629385
Si Si4 0.187459 0.701613 0.370955
Si Si5 0.191026 0.550315 0.702091
Si Si6 0.687537 0.702081 0.036335
O O1 0.736317 0.219665 0.750000
O O2 0.500000 0.204946 0.699980
O O3 0.756030 0.251347 0.666545
O O4 0.736865 0.126342 0.693662
O O5 0.257216 0.500000 0.500000
O O6 0.500000 0.451408 0.537630
O O7 0.249518 0.470648 0.583027
O O8 0.260891 0.374308 0.529184
O O9 0.761758 0.374587 0.636756
O O10 0.754619 0.499586 0.666324
O O11 0.000000 0.452251 0.628948
O O12 0.253659 0.721800 0.416886
O O13 0.000000 0.702777 0.373055
O O14 0.240594 0.532678 0.750000
O O15 0.000000 0.549136 0.701953
O O16 0.500000 0.703407 0.036014
O O17 0.750000 0.750000 0.000000
#
# Coordination Sequence:
#
# PCOD9471928 Si02
#       6
#    16  16  16  16  16  16
#     4   9  18  33  52  73  99 132 168 205 246 293
#     4   9  19  35  52  71  98 130 160 195 244 294
#     4   9  18  32  51  74  97 125 163 203 240 282
#     4  10  20  33  50  74 103 132 164 203 246 293
#     4   8  15  30  51  73  97 126 162 202 242 286
#     4  10  20  35  54  74 100 132 165 203 245 292
#
# _framework density 17.647151000000001
#
# number of rings (size 3 to 8) (size 9 to 14) (size 15 to 20)
#    0.000    2.833    0.000    2.000    0.000    4.000 
#    0.000    5.833    0.000    1.500    0.000    0.000 
#    0.000    0.000    0.000    0.000    0.000    0.000 
#
# Total GULP energy -267651.679440 kJ/mol
# GULP energy per Si atom -5576.076655 kJ/mol
# Density = 1.760699 g / cm^3
# Si number density = 17.647151 Si / 1000 Ang^3
#
#
#
# Elastic Constant Matrix: (Units=GPa)
#
#
# Indices 1 2 3 4 5 6 
#
# 1 15.8152 23.4291 31.9403 0.0000 0.0000 0.0000
# 2 23.4291 104.4074 129.9325 0.0000 0.0000 0.0000
# 3 31.9403 129.9325 201.1170 0.0000 0.0000 0.0000
# 4 0.0000 0.0000 0.0000 43.9871 0.0000 0.0000
# 5 0.0000 0.0000 0.0000 0.0000 28.1982 0.0000
# 6 0.0000 0.0000 0.0000 0.0000 0.0000 18.0726
#
#
#
# Elastic Compliance Matrix: (Units=1/GPa)
#
#
# Indices 1 2 3 4 5 6 
#
# 1 0.096514 -0.013177 -0.006815 0.000000 0.000000 0.000000
# 2 -0.013177 0.050665 -0.030640 0.000000 0.000000 0.000000
# 3 -0.006815 -0.030640 0.025850 0.000000 0.000000 0.000000
# 4 0.000000 0.000000 0.000000 0.022734 0.000000 0.000000
# 5 0.000000 0.000000 0.000000 0.000000 0.035463 0.000000
# 6 0.000000 0.000000 0.000000 0.000000 0.000000 0.055333
#
#
# Mechanical properties :
#
#
# Convention : Reuss Voigt Hill
#
# Bulk Modulus (GPa) = 13.93422 76.88258 45.40840
# Shear Modulus (GPa) = 12.14347 27.12076 19.63211
#
# Velocity S-wave (km/s) = 2.62606 3.92450 3.33901
# Velocity P-wave (km/s) = 4.13619 8.01229 6.37593
#
# Compressibility (1/GPa) = 0.07176578
#
# Stress axis : x y z
#
# Youngs Moduli (GPa) = 10.36117 19.73736 38.68543
#
# Poissons Ratio (x) = 0.26008 0.26363
# Poissons Ratio (y) = 0.13653 1.18532
# Poissons Ratio (z) = 0.07061 0.60475
#
# Static dielectric constant tensor:
#      x y z
#    x 1.601880 0.000000 0.000000 
#    y 0.000000 1.599500 0.000000 
#    z 0.000000 0.000000 1.572400 
# 
# From -- ./inp_files/66994.got.cif
#   From: 2010.05.17/outbox.cif.g08.bks.cpg/sg63_34_cif.got.tgz:66994.got - 2010.06.03 15:47:04.
