data_PCOD9471721
_publ_section_title
;
Structure prediction by ZEFSAII (Michael W. Deem and Ramdas Pophale) SiO2 
 PCOD9471721
Probable space group: C M C M
;
_chemical_formula_sum "Si O2"
_cell_formula_units_Z 80
_cell_length_a 27.658454
_cell_length_b 19.069973
_cell_length_c 8.929988
_cell_angle_alpha 90.000000
_cell_angle_beta 90.000000
_cell_angle_gamma 90.000000
_cell_volume 4710.086192
_symmetry_space_group_name_H-M "C M C M"
_symmetry_group_IT_number 63
_symmetry_cell_setting 'orthorhombic'
loop_
_space_group_symop_operation_xyz
x,y,z
-x,-y,1/2+z
x,-y,-z
-x,y,1/2-z
-x,-y,-z
x,y,1/2-z
-x,y,z
x,-y,1/2+z
1/2+x,1/2+y,z
1/2-x,1/2-y,1/2+z
1/2+x,1/2-y,-z
1/2-x,1/2+y,1/2-z
1/2-x,1/2-y,-z
1/2+x,1/2+y,1/2-z
1/2-x,1/2+y,z
1/2+x,1/2-y,1/2+z
loop_
_atom_site_type_symbol
_atom_site_label
_atom_site_fract_x
_atom_site_fract_y
_atom_site_fract_z
Si Si1 0.201897 0.281219 0.570192
Si Si2 0.556968 0.573296 0.428384
Si Si3 0.346198 0.074088 0.068998
Si Si4 0.553620 0.142410 0.432004
Si Si5 0.100333 0.788823 0.070004
O O1 0.206294 0.281127 0.750000
O O2 0.250000 0.250000 0.500000
O O3 0.188208 0.360878 0.524986
O O4 0.154828 0.234647 0.532539
O O5 0.573492 0.500000 0.500000
O O6 0.561562 0.569721 0.250000
O O7 0.500000 0.581552 0.466044
O O8 0.584678 0.640035 0.492371
O O9 0.345943 0.070225 0.250000
O O10 0.400968 0.095049 0.020432
O O11 0.332299 0.000000 0.000000
O O12 0.553434 0.140245 0.250000
O O13 0.500000 0.122474 0.484971
O O14 0.566394 0.222760 0.472749
O O15 0.096986 0.796565 0.250000
#
# Coordination Sequence:
#
# PCOD9471721 Si02
#       5
#    16  16  16  16  16
#     4   9  19  35  54  75  97 124 162 205 247 292
#     4  10  20  32  47  70 100 132 164 199 242 293
#     4   9  18  32  49  72 100 127 158 193 230 278
#     4   8  14  26  46  70  96 128 161 191 227 274
#     4   9  17  31  51  72  94 124 164 205 244 290
#
# _framework density 16.984826000000002
#
# number of rings (size 3 to 8) (size 9 to 14) (size 15 to 20)
#    0.000    3.000    0.000    3.600    0.000    4.000 
#    0.000    4.000    0.000    3.600    0.000    0.000 
#    0.000    0.000    0.000    0.000    0.000    0.000 
#
# Total GULP energy -222930.088314 kJ/mol
# GULP energy per Si atom -5573.252208 kJ/mol
# Density = 1.694617 g / cm^3
# Si number density = 16.984826 Si / 1000 Ang^3
#
#
#
# Elastic Constant Matrix: (Units=GPa)
#
#
# Indices 1 2 3 4 5 6 
#
# 1 100.7002 60.2054 27.3542 0.0000 0.0000 0.0000
# 2 60.2054 149.5307 38.6780 0.0000 0.0000 0.0000
# 3 27.3542 38.6780 14.5778 0.0000 0.0000 0.0000
# 4 0.0000 0.0000 0.0000 31.2380 0.0000 0.0000
# 5 0.0000 0.0000 0.0000 0.0000 24.8853 0.0000
# 6 0.0000 0.0000 0.0000 0.0000 0.0000 10.3556
#
#
#
# Elastic Compliance Matrix: (Units=1/GPa)
#
#
# Indices 1 2 3 4 5 6 
#
# 1 0.021688 0.005720 -0.055871 0.000000 0.000000 0.000000
# 2 0.005720 0.022826 -0.071295 0.000000 0.000000 0.000000
# 3 -0.055871 -0.071295 0.362598 0.000000 0.000000 0.000000
# 4 0.000000 0.000000 0.000000 0.032012 0.000000 0.000000
# 5 0.000000 0.000000 0.000000 0.000000 0.040184 0.000000
# 6 0.000000 0.000000 0.000000 0.000000 0.000000 0.096566
#
#
# Mechanical properties :
#
#
# Convention : Reuss Voigt Hill
#
# Bulk Modulus (GPa) = 6.08945 57.47599 31.78272
# Shear Modulus (GPa) = 5.72405 22.53386 14.12895
#
# Velocity S-wave (km/s) = 1.83777 3.64635 2.88732
# Velocity P-wave (km/s) = 2.84539 7.18616 5.46521
#
# Compressibility (1/GPa) = 0.16421840
#
# Stress axis : x y z
#
# Youngs Moduli (GPa) = 46.10904 43.80958 2.75788
#
# Poissons Ratio (x) = -0.25058 0.15409
# Poissons Ratio (y) = -0.26373 0.19662
# Poissons Ratio (z) = 2.57617 3.12341
#
# Static dielectric constant tensor:
#      x y z
#    x 1.575620 0.000000 0.000000 
#    y 0.000000 1.557000 0.000000 
#    z 0.000000 0.000000 1.565410 
# 
# From -- ./inp_files/11994.got.cif
#   From: 2010.05.17/outbox.cif.g08.bks.cpg/sg63_6_cif.got.tgz:11994.got - 2010.06.03 15:47:04.
