data_PCOD9471741
_publ_section_title
;
Structure prediction by ZEFSAII (Michael W. Deem and Ramdas Pophale) SiO2 
 PCOD9471741
Probable space group: C M C M
;
_chemical_formula_sum "Si O2"
_cell_formula_units_Z 88
_cell_length_a 23.220151
_cell_length_b 25.213788
_cell_length_c 8.692777
_cell_angle_alpha 90.000000
_cell_angle_beta 90.000000
_cell_angle_gamma 90.000000
_cell_volume 5089.342457
_symmetry_space_group_name_H-M "C M C M"
_symmetry_group_IT_number 63
_symmetry_cell_setting 'orthorhombic'
loop_
_space_group_symop_operation_xyz
x,y,z
-x,-y,1/2+z
x,-y,-z
-x,y,1/2-z
-x,-y,-z
x,y,1/2-z
-x,y,z
x,-y,1/2+z
1/2+x,1/2+y,z
1/2-x,1/2-y,1/2+z
1/2+x,1/2-y,-z
1/2-x,1/2+y,1/2-z
1/2-x,1/2-y,-z
1/2+x,1/2+y,1/2-z
1/2-x,1/2+y,z
1/2+x,1/2-y,1/2+z
loop_
_atom_site_type_symbol
_atom_site_label
_atom_site_fract_x
_atom_site_fract_y
_atom_site_fract_z
Si Si1 0.654309 0.941879 0.435093
Si Si2 0.433523 0.150183 0.564530
Si Si3 0.067036 0.764093 0.433809
Si Si4 0.000000 0.059312 0.435794
Si Si5 0.280407 0.441891 0.935065
Si Si6 0.889052 0.128390 0.435397
O O1 0.656355 0.944550 0.250000
O O2 0.608085 0.897625 0.482232
O O3 0.717734 0.928270 0.498280
O O4 0.639501 0.000000 0.500000
O O5 0.432509 0.153300 0.750000
O O6 0.500000 0.140986 0.516674
O O7 0.414858 0.206919 0.498042
O O8 0.069049 0.763242 0.250000
O O9 0.102960 0.813322 0.496739
O O10 0.000000 0.772019 0.482191
O O11 0.943178 0.091842 0.484287
O O12 0.000000 0.056601 0.250000
O O13 0.000000 0.000000 0.500000
O O14 0.277235 0.444794 0.750000
O O15 0.329791 0.400355 0.979150
O O16 0.295677 0.500000 0.000000
O O17 0.890874 0.131920 0.250000
#
# Coordination Sequence:
#
# PCOD9471741 Si02
#       6
#    16  16  16   8  16  16
#     4  10  20  35  56  80 106 138 171 207 257 310
#     4   9  19  36  57  79 105 137 171 208 255 313
#     4  10  20  33  52  79 106 135 172 216 264 308
#     4  10  20  32  48  72 102 134 171 218 263 302
#     4  10  20  34  53  76 103 139 178 215 259 308
#     4  10  20  34  52  73 101 140 179 214 259 311
#
# _framework density 17.291035999999998
#
# number of rings (size 3 to 8) (size 9 to 14) (size 15 to 20)
#    0.000    2.182    0.909    3.273    0.000    4.727 
#    0.000    0.909    0.000    0.000    0.000    0.000 
#    0.000    0.000    0.000    0.000    0.000    0.000 
#
# Total GULP energy -245589.399948 kJ/mol
# GULP energy per Si atom -5581.577272 kJ/mol
# Density = 1.725168 g / cm^3
# Si number density = 17.291036 Si / 1000 Ang^3
#
#
#
# Elastic Constant Matrix: (Units=GPa)
#
#
# Indices 1 2 3 4 5 6 
#
# 1 110.3826 120.6638 37.3908 0.0000 0.0000 0.0000
# 2 120.6638 180.4274 44.5988 0.0000 0.0000 0.0000
# 3 37.3908 44.5988 31.4284 0.0000 0.0000 0.0000
# 4 0.0000 0.0000 0.0000 29.8637 0.0000 0.0000
# 5 0.0000 0.0000 0.0000 0.0000 22.6947 0.0000
# 6 0.0000 0.0000 0.0000 0.0000 0.0000 27.0239
#
#
#
# Elastic Compliance Matrix: (Units=1/GPa)
#
#
# Indices 1 2 3 4 5 6 
#
# 1 0.037199 -0.021469 -0.013791 0.000000 0.000000 0.000000
# 2 -0.021469 0.020927 -0.004155 0.000000 0.000000 0.000000
# 3 -0.013791 -0.004155 0.054122 0.000000 0.000000 0.000000
# 4 0.000000 0.000000 0.000000 0.033485 0.000000 0.000000
# 5 0.000000 0.000000 0.000000 0.000000 0.044063 0.000000
# 6 0.000000 0.000000 0.000000 0.000000 0.000000 0.037004
#
#
# Mechanical properties :
#
#
# Convention : Reuss Voigt Hill
#
# Bulk Modulus (GPa) = 29.92343 80.83838 55.38090
# Shear Modulus (GPa) = 15.78427 23.88879 19.83653
#
# Velocity S-wave (km/s) = 3.02463 3.72098 3.39073
# Velocity P-wave (km/s) = 5.43518 8.08171 6.88677
#
# Compressibility (1/GPa) = 0.03341862
#
# Stress axis : x y z
#
# Youngs Moduli (GPa) = 26.88219 47.78509 18.47670
#
# Poissons Ratio (x) = 1.02588 0.25482
# Poissons Ratio (y) = 0.57713 0.07677
# Poissons Ratio (z) = 0.37074 0.19855
#
# Static dielectric constant tensor:
#      x y z
#    x 1.581210 0.000000 0.000000 
#    y 0.000000 1.557310 0.000000 
#    z 0.000000 0.000000 1.584080 
# 
# From -- ./inp_files/8186.got.cif
#   From: 2010.05.17/outbox.cif.g08.bks.cpg/sg63_5_cif.got.tgz:8186.got - 2010.06.03 15:47:04.
