data_PCOD9471700
_publ_section_title
;
Structure prediction by ZEFSAII (Michael W. Deem and Ramdas Pophale) SiO2 
 PCOD9471700
Probable space group: C M C M
;
_chemical_formula_sum "Si O2"
_cell_formula_units_Z 112
_cell_length_a 20.426626
_cell_length_b 18.738906
_cell_length_c 18.206246
_cell_angle_alpha 90.000000
_cell_angle_beta 90.000000
_cell_angle_gamma 90.000000
_cell_volume 6968.852564
_symmetry_space_group_name_H-M "C M C M"
_symmetry_group_IT_number 63
_symmetry_cell_setting 'orthorhombic'
loop_
_space_group_symop_operation_xyz
x,y,z
-x,-y,1/2+z
x,-y,-z
-x,y,1/2-z
-x,-y,-z
x,y,1/2-z
-x,y,z
x,-y,1/2+z
1/2+x,1/2+y,z
1/2-x,1/2-y,1/2+z
1/2+x,1/2-y,-z
1/2-x,1/2+y,1/2-z
1/2-x,1/2-y,-z
1/2+x,1/2+y,1/2-z
1/2-x,1/2+y,z
1/2+x,1/2-y,1/2+z
loop_
_atom_site_type_symbol
_atom_site_label
_atom_site_fract_x
_atom_site_fract_y
_atom_site_fract_z
Si Si1 0.313607 0.441636 0.562598
Si Si2 0.683942 0.291071 0.018794
Si Si3 0.380283 0.769350 0.111586
Si Si4 0.710520 0.984427 0.163892
Si Si5 0.925026 0.884402 0.836160
Si Si6 0.072926 0.578816 0.838419
Si Si7 0.260811 0.678408 0.834110
O O1 0.324491 0.500000 0.500000
O O2 0.307956 0.367248 0.520033
O O3 0.250367 0.463353 0.610780
O O4 0.374367 0.430995 0.617366
O O5 0.684631 0.300657 0.106219
O O6 0.750000 0.250000 0.000000
O O7 0.627778 0.249279 0.974708
O O8 0.411155 0.699467 0.148468
O O9 0.417275 0.842924 0.126823
O O10 0.307419 0.781909 0.145416
O O11 0.713027 0.006253 0.250000
O O12 0.634798 0.970772 0.141618
O O13 0.744158 0.905917 0.158966
O O14 0.916006 0.897707 0.750000
O O15 0.000000 0.899714 0.856327
O O16 0.077838 0.588472 0.750000
O O17 0.000000 0.551588 0.855396
O O18 0.277991 0.693671 0.750000
#
# Coordination Sequence:
#
# PCOD9471700 Si02
#       7
#    16  16  16  16  16  16  16
#     4  11  20  32  49  69  95 131 163 200 249 286
#     4   9  18  30  44  70  96 129 160 201 242 289
#     4   9  16  26  45  69 100 126 156 197 248 299
#     4   9  17  29  47  71  96 126 163 202 243 296
#     4  10  20  32  46  67  96 128 161 199 246 299
#     4   9  16  27  47  75 104 133 163 199 250 307
#     4   9  15  26  44  67  94 125 161 200 241 288
#
# _framework density 16.071511999999998
#
# number of rings (size 3 to 8) (size 9 to 14) (size 15 to 20)
#    0.000    2.571    1.429    3.000    0.000    1.429 
#    0.000    0.714    0.000    0.429    0.000    0.000 
#    0.000   10.286    0.000    4.143    0.000    0.000 
#
# Total GULP energy -311869.515392 kJ/mol
# GULP energy per Si atom -5569.098489 kJ/mol
# Density = 1.603493 g / cm^3
# Si number density = 16.071512 Si / 1000 Ang^3
#
#
#
# Elastic Constant Matrix: (Units=GPa)
#
#
# Indices 1 2 3 4 5 6 
#
# 1 90.4358 27.2693 48.2421 0.0000 0.0000 0.0000
# 2 27.2693 26.1448 12.7799 0.0000 0.0000 0.0000
# 3 48.2421 12.7799 95.8591 0.0000 0.0000 0.0000
# 4 0.0000 0.0000 0.0000 10.4997 0.0000 0.0000
# 5 0.0000 0.0000 0.0000 0.0000 13.3236 0.0000
# 6 0.0000 0.0000 0.0000 0.0000 0.0000 14.5242
#
#
#
# Elastic Compliance Matrix: (Units=1/GPa)
#
#
# Indices 1 2 3 4 5 6 
#
# 1 0.020665 -0.017618 -0.008051 0.000000 0.000000 0.000000
# 2 -0.017618 0.055935 0.001409 0.000000 0.000000 0.000000
# 3 -0.008051 0.001409 0.014296 0.000000 0.000000 0.000000
# 4 0.000000 0.000000 0.000000 0.095241 0.000000 0.000000
# 5 0.000000 0.000000 0.000000 0.000000 0.075055 0.000000
# 6 0.000000 0.000000 0.000000 0.000000 0.000000 0.068850
#
#
# Mechanical properties :
#
#
# Convention : Reuss Voigt Hill
#
# Bulk Modulus (GPa) = 23.59805 43.22472 33.41138
# Shear Modulus (GPa) = 12.73277 15.94605 14.33941
#
# Velocity S-wave (km/s) = 2.81776 3.15333 2.99025
# Velocity P-wave (km/s) = 5.03005 6.34126 5.72333
#
# Compressibility (1/GPa) = 0.04237638
#
# Stress axis : x y z
#
# Youngs Moduli (GPa) = 48.39187 17.87775 69.95063
#
# Poissons Ratio (x) = 0.31497 0.56316
# Poissons Ratio (y) = 0.85257 -0.09857
# Poissons Ratio (z) = 0.38960 -0.02519
#
# Static dielectric constant tensor:
#      x y z
#    x 1.544200 0.000000 0.000000 
#    y 0.000000 1.523240 0.000000 
#    z 0.000000 0.000000 1.560870 
# 
# From -- ./inp_files/47368.got.cif
#   From: 2010.05.17/outbox.cif.g08.bks.cpg/sg63_24_cif.got.tgz:47368.got - 2010.06.03 15:47:04.
