data_PCOD9471959
_publ_section_title
;
Structure prediction by ZEFSAII (Michael W. Deem and Ramdas Pophale) SiO2 
 PCOD9471959
Probable space group: C M C M
;
_chemical_formula_sum "Si O2"
_cell_formula_units_Z 96
_cell_length_a 16.934989
_cell_length_b 22.048138
_cell_length_c 14.091346
_cell_angle_alpha 90.000000
_cell_angle_beta 90.000000
_cell_angle_gamma 90.000000
_cell_volume 5261.496867
_symmetry_space_group_name_H-M "C M C M"
_symmetry_group_IT_number 63
_symmetry_cell_setting 'orthorhombic'
loop_
_space_group_symop_operation_xyz
x,y,z
-x,-y,1/2+z
x,-y,-z
-x,y,1/2-z
-x,-y,-z
x,y,1/2-z
-x,y,z
x,-y,1/2+z
1/2+x,1/2+y,z
1/2-x,1/2-y,1/2+z
1/2+x,1/2-y,-z
1/2-x,1/2+y,1/2-z
1/2-x,1/2-y,-z
1/2+x,1/2+y,1/2-z
1/2-x,1/2+y,z
1/2+x,1/2-y,1/2+z
loop_
_atom_site_type_symbol
_atom_site_label
_atom_site_fract_x
_atom_site_fract_y
_atom_site_fract_z
Si Si1 0.684290 0.933210 0.514820
Si Si2 0.310077 0.594056 0.637394
Si Si3 0.592671 0.666251 0.144451
Si Si4 0.095820 0.207079 0.555632
Si Si5 0.594953 0.162458 0.358706
Si Si6 0.838308 0.038838 0.362500
O O1 0.727172 0.909384 0.419384
O O2 0.629050 0.885542 0.566894
O O3 0.757958 0.944656 0.584929
O O4 0.647322 0.000000 0.500000
O O5 0.297303 0.595541 0.750000
O O6 0.361417 0.651114 0.605905
O O7 0.355901 0.530951 0.611712
O O8 0.627642 0.676901 0.250000
O O9 0.500000 0.678735 0.151087
O O10 0.603566 0.594929 0.119490
O O11 0.622537 0.704384 0.054867
O O12 0.116221 0.270038 0.606208
O O13 0.000000 0.200059 0.559098
O O14 0.622398 0.152078 0.250000
O O15 0.500000 0.158733 0.358594
O O16 0.825892 0.038466 0.250000
#
# Coordination Sequence:
#
# PCOD9471959 Si02
#       6
#    16  16  16  16  16  16
#     4  10  20  36  58  80 105 136 174 219 278 324
#     4  10  20  33  50  78 115 146 181 225 265 315
#     4   9  17  30  49  75 109 148 190 228 260 305
#     4  10  20  35  54  77 111 150 185 222 265 311
#     4  10  22  40  61  83 106 136 177 222 270 329
#     4   9  17  31  51  76 107 144 183 222 268 316
#
# _framework density 18.245759
#
# number of rings (size 3 to 8) (size 9 to 14) (size 15 to 20)
#    0.000    2.333    1.667    1.000    0.000    3.333 
#    0.000    4.167    0.000    1.500    0.000    0.000 
#    0.000    0.000    0.000    0.000    0.000    0.000 
#
# Total GULP energy -267430.406725 kJ/mol
# GULP energy per Si atom -5571.466807 kJ/mol
# Density = 1.820423 g / cm^3
# Si number density = 18.245759 Si / 1000 Ang^3
#
#
#
# Elastic Constant Matrix: (Units=GPa)
#
#
# Indices 1 2 3 4 5 6 
#
# 1 11.6153 24.2979 23.2506 0.0000 0.0000 0.0000
# 2 24.2979 83.9082 60.6280 0.0000 0.0000 0.0000
# 3 23.2506 60.6280 88.6634 0.0000 0.0000 0.0000
# 4 0.0000 0.0000 0.0000 30.0367 0.0000 0.0000
# 5 0.0000 0.0000 0.0000 0.0000 25.4353 0.0000
# 6 0.0000 0.0000 0.0000 0.0000 0.0000 68.2379
#
#
#
# Elastic Compliance Matrix: (Units=1/GPa)
#
#
# Indices 1 2 3 4 5 6 
#
# 1 0.259311 -0.051306 -0.032917 0.000000 0.000000 0.000000
# 2 -0.051306 0.033708 -0.009595 0.000000 0.000000 0.000000
# 3 -0.032917 -0.009595 0.026472 0.000000 0.000000 0.000000
# 4 0.000000 0.000000 0.000000 0.033293 0.000000 0.000000
# 5 0.000000 0.000000 0.000000 0.000000 0.039315 0.000000
# 6 0.000000 0.000000 0.000000 0.000000 0.000000 0.014655
#
#
# Mechanical properties :
#
#
# Convention : Reuss Voigt Hill
#
# Bulk Modulus (GPa) = 7.58417 44.50446 26.04431
# Shear Modulus (GPa) = 7.83279 29.80933 18.82106
#
# Velocity S-wave (km/s) = 2.07419 4.04637 3.21523
# Velocity P-wave (km/s) = 3.14675 6.80261 5.29988
#
# Compressibility (1/GPa) = 0.13185359
#
# Stress axis : x y z
#
# Youngs Moduli (GPa) = 3.85637 29.66651 37.77601
#
# Poissons Ratio (x) = 1.52208 1.24347
# Poissons Ratio (y) = 0.19786 0.36247
# Poissons Ratio (z) = 0.12694 0.28466
#
# Static dielectric constant tensor:
#      x y z
#    x 1.599900 0.000000 0.000000 
#    y 0.000000 1.643060 0.000000 
#    z 0.000000 0.000000 1.674090 
# 
# From -- ./inp_files/31904.got.cif
#   From: 2010.05.17/outbox.cif.g08.bks.cpg/sg63_16_cif.got.tgz:31904.got - 2010.06.03 15:47:04.
