data_PCOD9471284
_publ_section_title
;
Structure prediction by ZEFSAII (Michael W. Deem and Ramdas Pophale) SiO2 
 PCOD9471284
Probable space group: C M C M
;
_chemical_formula_sum "Si O2"
_cell_formula_units_Z 112
_cell_length_a 21.352437
_cell_length_b 15.257000
_cell_length_c 14.997124
_cell_angle_alpha 90.000000
_cell_angle_beta 90.000000
_cell_angle_gamma 90.000000
_cell_volume 4885.675043
_symmetry_space_group_name_H-M "C M C M"
_symmetry_group_IT_number 63
_symmetry_cell_setting 'orthorhombic'
loop_
_space_group_symop_operation_xyz
x,y,z
-x,-y,1/2+z
x,-y,-z
-x,y,1/2-z
-x,-y,-z
x,y,1/2-z
-x,y,z
x,-y,1/2+z
1/2+x,1/2+y,z
1/2-x,1/2-y,1/2+z
1/2+x,1/2-y,-z
1/2-x,1/2+y,1/2-z
1/2-x,1/2-y,-z
1/2+x,1/2+y,1/2-z
1/2-x,1/2+y,z
1/2+x,1/2-y,1/2+z
loop_
_atom_site_type_symbol
_atom_site_label
_atom_site_fract_x
_atom_site_fract_y
_atom_site_fract_z
Si Si1 0.247667 0.507347 0.149176
Si Si2 0.278151 0.828318 0.943438
Si Si3 0.170238 0.834145 0.352673
Si Si4 0.905757 0.627048 0.979890
Si Si5 0.073729 0.215875 0.152696
Si Si6 0.904840 0.530200 0.147153
Si Si7 0.074490 0.896776 0.998449
O O1 0.267558 0.527304 0.250000
O O2 0.264079 0.590841 0.087864
O O3 0.277378 0.411411 0.130116
O O4 0.171061 0.514794 0.148922
O O5 0.306591 0.767102 0.864259
O O6 0.331555 0.871787 0.004019
O O7 0.250000 0.750000 0.000000
O O8 0.150094 0.845272 0.250000
O O9 0.116228 0.851477 0.425353
O O10 0.925645 0.610032 0.082375
O O11 0.919350 0.713108 0.925011
O O12 0.927068 0.551678 0.912218
O O13 0.102401 0.235673 0.250000
O O14 0.095330 0.130354 0.101313
O O15 0.000000 0.207466 0.165739
O O16 0.925005 0.533893 0.250000
O O17 0.000000 0.876155 0.010299
O O18 0.081640 0.000000 0.000000
#
# Coordination Sequence:
#
# PCOD9471284 Si02
#       7
#    16  16  16  16  16  16  16
#     4   9  20  37  55  82 121 166 208 249 303 375
#     4  11  22  35  57  88 123 163 205 262 310 367
#     4  11  23  39  63  93 127 170 213 260 320 381
#     4  10  19  35  57  90 116 159 208 253 310 366
#     4  10  21  40  65  91 120 157 207 265 323 384
#     4   9  18  34  57  84 125 169 207 247 302 372
#     4  10  23  43  65  91 124 163 211 267 324 382
#
# _framework density 22.924160000000001
#
# number of rings (size 3 to 8) (size 9 to 14) (size 15 to 20)
#    0.000    2.000    1.429    1.714    2.000    2.571 
#    0.000    6.429    0.000    1.286    0.000    0.000 
#    0.000    0.000    0.000    0.000    0.000    0.000 
#
# Total GULP energy -312004.428193 kJ/mol
# GULP energy per Si atom -5571.507646 kJ/mol
# Density = 2.287198 g / cm^3
# Si number density = 22.924160 Si / 1000 Ang^3
#
#
#
# Elastic Constant Matrix: (Units=GPa)
#
#
# Indices 1 2 3 4 5 6 
#
# 1 69.3162 -0.8030 29.4979 0.0000 0.0000 0.0000
# 2 -0.8030 104.7800 59.1298 0.0000 0.0000 0.0000
# 3 29.4979 59.1298 208.0314 0.0000 0.0000 0.0000
# 4 0.0000 0.0000 0.0000 50.5756 0.0000 0.0000
# 5 0.0000 0.0000 0.0000 0.0000 6.0925 0.0000
# 6 0.0000 0.0000 0.0000 0.0000 0.0000 21.2561
#
#
#
# Elastic Compliance Matrix: (Units=1/GPa)
#
#
# Indices 1 2 3 4 5 6 
#
# 1 0.015583 0.001627 -0.002672 0.000000 0.000000 0.000000
# 2 0.001627 0.011537 -0.003510 0.000000 0.000000 0.000000
# 3 -0.002672 -0.003510 0.006184 0.000000 0.000000 0.000000
# 4 0.000000 0.000000 0.000000 0.019772 0.000000 0.000000
# 5 0.000000 0.000000 0.000000 0.000000 0.164135 0.000000
# 6 0.000000 0.000000 0.000000 0.000000 0.000000 0.047045
#
#
# Mechanical properties :
#
#
# Convention : Reuss Voigt Hill
#
# Bulk Modulus (GPa) = 41.33303 61.97520 51.65411
# Shear Modulus (GPa) = 17.76639 35.20503 26.48571
#
# Velocity S-wave (km/s) = 2.78691 3.92307 3.40275
# Velocity P-wave (km/s) = 5.33154 6.90031 6.16602
#
# Compressibility (1/GPa) = 0.02419373
#
# Stress axis : x y z
#
# Youngs Moduli (GPa) = 64.17406 86.67734 161.72037
#
# Poissons Ratio (x) = -0.14105 0.43213
# Poissons Ratio (y) = -0.10443 0.56763
# Poissons Ratio (z) = 0.17148 0.30424
#
# Static dielectric constant tensor:
#      x y z
#    x 1.937410 0.000000 0.000000 
#    y 0.000000 1.938950 0.000000 
#    z 0.000000 0.000000 1.928210 
# 
# From -- ./inp_files/36912.got.cif
#   From: 2010.05.17/outbox.cif.g08.bks.cpg/sg63_19_cif.got.tgz:36912.got - 2010.06.03 15:47:04.
