data_PCOD9471184
_publ_section_title
;
Structure prediction by ZEFSAII (Michael W. Deem and Ramdas Pophale) SiO2 
 PCOD9471184
Probable space group: C M C M
;
_chemical_formula_sum "Si O2"
_cell_formula_units_Z 112
_cell_length_a 14.495557
_cell_length_b 14.255838
_cell_length_c 23.706692
_cell_angle_alpha 90.000000
_cell_angle_beta 90.000000
_cell_angle_gamma 90.000000
_cell_volume 4898.900479
_symmetry_space_group_name_H-M "C M C M"
_symmetry_group_IT_number 63
_symmetry_cell_setting 'orthorhombic'
loop_
_space_group_symop_operation_xyz
x,y,z
-x,-y,1/2+z
x,-y,-z
-x,y,1/2-z
-x,-y,-z
x,y,1/2-z
-x,y,z
x,-y,1/2+z
1/2+x,1/2+y,z
1/2-x,1/2-y,1/2+z
1/2+x,1/2-y,-z
1/2-x,1/2+y,1/2-z
1/2-x,1/2-y,-z
1/2+x,1/2+y,1/2-z
1/2-x,1/2+y,z
1/2+x,1/2-y,1/2+z
loop_
_atom_site_type_symbol
_atom_site_label
_atom_site_fract_x
_atom_site_fract_y
_atom_site_fract_z
Si Si1 0.390850 0.360870 0.367352
Si Si2 0.787813 0.033956 0.186561
Si Si3 0.898024 0.886537 0.499321
Si Si4 0.602701 0.841209 0.412149
Si Si5 0.801161 0.608564 0.477161
Si Si6 0.398905 0.051179 0.129951
Si Si7 0.226892 0.747013 0.684045
O O1 0.500000 0.361078 0.353213
O O2 0.342274 0.461330 0.352767
O O3 0.383119 0.352472 0.435024
O O4 0.331040 0.282485 0.334342
O O5 0.811818 0.006565 0.250000
O O6 0.677787 0.031761 0.176686
O O7 0.803511 0.144574 0.179056
O O8 0.804909 0.863705 0.532828
O O9 0.000000 0.856012 0.517849
O O10 0.901771 0.000000 0.500000
O O11 0.500000 0.801728 0.409657
O O12 0.649907 0.834071 0.473208
O O13 0.664452 0.805809 0.361085
O O14 0.593072 0.951980 0.401376
O O15 0.798770 0.500000 0.500000
O O16 0.857038 0.615762 0.419330
O O17 0.500000 0.081797 0.149244
O O18 0.215088 0.720411 0.750000
#
# Coordination Sequence:
#
# PCOD9471184 Si02
#       7
#    16  16  16  16  16  16  16
#     4  11  22  41  67  92 123 168 214 257 312 382
#     4  11  24  41  61  88 124 161 207 265 317 366
#     4   9  16  28  56  92 123 159 203 248 304 369
#     4  10  19  34  59  87 116 155 197 243 302 366
#     4   9  15  30  55  85 122 153 195 244 296 361
#     4  10  20  35  60  90 120 159 202 245 302 371
#     4  11  24  41  60  88 123 159 206 266 315 365
#
# _framework density 22.862272999999998
#
# number of rings (size 3 to 8) (size 9 to 14) (size 15 to 20)
#    0.000    1.857    2.857    2.571    0.000    4.571 
#    0.000    5.000    0.000    0.000    0.000    0.000 
#    0.000    0.000    0.000    0.000    0.000    0.000 
#
# Total GULP energy -312870.561523 kJ/mol
# GULP energy per Si atom -5586.974313 kJ/mol
# Density = 2.281024 g / cm^3
# Si number density = 22.862273 Si / 1000 Ang^3
#
#
#
# Elastic Constant Matrix: (Units=GPa)
#
#
# Indices 1 2 3 4 5 6 
#
# 1 156.5371 10.4578 21.2108 0.0000 0.0000 0.0000
# 2 10.4578 75.1029 28.1466 0.0000 0.0000 0.0000
# 3 21.2108 28.1466 71.0877 0.0000 0.0000 0.0000
# 4 0.0000 0.0000 0.0000 24.9893 0.0000 0.0000
# 5 0.0000 0.0000 0.0000 0.0000 9.5753 0.0000
# 6 0.0000 0.0000 0.0000 0.0000 0.0000 -23.0144
#
#
#
# Elastic Compliance Matrix: (Units=1/GPa)
#
#
# Indices 1 2 3 4 5 6 
#
# 1 0.006660 -0.000214 -0.001902 0.000000 0.000000 0.000000
# 2 -0.000214 0.015642 -0.006129 0.000000 0.000000 0.000000
# 3 -0.001902 -0.006129 0.017062 0.000000 0.000000 0.000000
# 4 0.000000 0.000000 0.000000 0.040017 0.000000 0.000000
# 5 0.000000 0.000000 0.000000 0.000000 0.104435 0.000000
# 6 0.000000 0.000000 0.000000 0.000000 0.000000 -0.043451
#
#
# Mechanical properties :
#
#
# Convention : Reuss Voigt Hill
#
# Bulk Modulus (GPa) = 43.72224 46.92867 45.32546
# Shear Modulus (GPa) = 30.39858 18.50422 24.45140
#
# Velocity S-wave (km/s) = 3.65038 2.84804 3.27388
# Velocity P-wave (km/s) = 6.07723 5.60236 5.84462
#
# Compressibility (1/GPa) = 0.02287165
#
# Stress axis : x y z
#
# Youngs Moduli (GPa) = 150.14207 63.93018 58.61104
#
# Poissons Ratio (x) = 0.01371 0.11150
# Poissons Ratio (y) = 0.03220 0.35925
# Poissons Ratio (z) = 0.28563 0.39185
#
# Static dielectric constant tensor:
#      x y z
#    x 1.867100 0.000000 0.000000 
#    y 0.000000 1.915140 0.000000 
#    z 0.000000 0.000000 1.795110 
# 
# From -- ./inp_files/62969.got.cif
#   From: 2010.05.17/outbox.cif.g08.bks.cpg/sg63_32_cif.got.tgz:62969.got - 2010.06.03 15:47:04.
