data_PCOD9471431
_publ_section_title
;
Structure prediction by ZEFSAII (Michael W. Deem and Ramdas Pophale) SiO2 
 PCOD9471431
Probable space group: C M C M
;
_chemical_formula_sum "Si O2"
_cell_formula_units_Z 112
_cell_length_a 12.587815
_cell_length_b 17.405621
_cell_length_c 29.552949
_cell_angle_alpha 90.000000
_cell_angle_beta 90.000000
_cell_angle_gamma 90.000000
_cell_volume 6475.013804
_symmetry_space_group_name_H-M "C M C M"
_symmetry_group_IT_number 63
_symmetry_cell_setting 'orthorhombic'
loop_
_space_group_symop_operation_xyz
x,y,z
-x,-y,1/2+z
x,-y,-z
-x,y,1/2-z
-x,-y,-z
x,y,1/2-z
-x,y,z
x,-y,1/2+z
1/2+x,1/2+y,z
1/2-x,1/2-y,1/2+z
1/2+x,1/2-y,-z
1/2-x,1/2+y,1/2-z
1/2-x,1/2-y,-z
1/2+x,1/2+y,1/2-z
1/2-x,1/2+y,z
1/2+x,1/2-y,1/2+z
loop_
_atom_site_type_symbol
_atom_site_label
_atom_site_fract_x
_atom_site_fract_y
_atom_site_fract_z
Si Si1 0.628226 0.328476 0.464346
Si Si2 0.206946 0.667314 0.303656
Si Si3 0.236179 0.665467 0.051715
Si Si4 0.626494 0.946675 0.618965
Si Si5 0.259727 0.109415 0.620501
Si Si6 0.376564 0.664534 0.800945
Si Si7 0.624796 0.731535 0.366886
O O1 0.500000 0.337209 0.466256
O O2 0.692532 0.356684 0.508605
O O3 0.660941 0.238278 0.460104
O O4 0.682338 0.369963 0.421373
O O5 0.204720 0.650321 0.250000
O O6 0.164532 0.600166 0.336218
O O7 0.138244 0.745018 0.312361
O O8 0.321702 0.694083 0.322433
O O9 0.165206 0.600721 0.075062
O O10 0.318413 0.691865 0.090464
O O11 0.500000 0.952724 0.619933
O O12 0.681010 0.029451 0.616391
O O13 0.186923 0.112559 0.664765
O O14 0.342230 0.179394 0.627865
O O15 0.336026 0.655266 0.750000
O O16 0.500000 0.646356 0.802548
O O17 0.500000 0.721758 0.367461
#
# Coordination Sequence:
#
# PCOD9471431 Si02
#       7
#    16  16  16  16  16  16  16
#     4  10  19  36  59  79 104 137 176 220 262 303
#     4   9  19  34  55  81 102 129 178 225 258 306
#     4   9  20  35  56  83 102 129 178 223 258 306
#     4  11  22  37  54  75 108 139 168 213 266 312
#     4  10  21  33  50  79 109 139 176 209 250 315
#     4   9  17  33  56  78 102 134 173 217 260 302
#     4   9  17  33  54  75 105 139 170 210 260 309
#
# _framework density 17.297260000000001
#
# number of rings (size 3 to 8) (size 9 to 14) (size 15 to 20)
#    0.000    2.429    0.000    3.000    0.000    2.286 
#    0.000   10.714    0.000    2.571    0.000    0.000 
#    0.000    0.000    0.000    0.000    0.000    0.000 
#
# Total GULP energy -312227.138051 kJ/mol
# GULP energy per Si atom -5575.484608 kJ/mol
# Density = 1.725789 g / cm^3
# Si number density = 17.297260 Si / 1000 Ang^3
#
#
#
# Elastic Constant Matrix: (Units=GPa)
#
#
# Indices 1 2 3 4 5 6 
#
# 1 99.9574 40.8216 51.1110 0.0000 0.0000 0.0000
# 2 40.8216 82.3513 43.5187 0.0000 0.0000 0.0000
# 3 51.1110 43.5187 81.0701 0.0000 0.0000 0.0000
# 4 0.0000 0.0000 0.0000 12.1213 0.0000 0.0000
# 5 0.0000 0.0000 0.0000 0.0000 18.6561 0.0000
# 6 0.0000 0.0000 0.0000 0.0000 0.0000 11.1069
#
#
#
# Elastic Compliance Matrix: (Units=1/GPa)
#
#
# Indices 1 2 3 4 5 6 
#
# 1 0.015457 -0.003507 -0.007862 0.000000 0.000000 0.000000
# 2 -0.003507 0.017748 -0.007316 0.000000 0.000000 0.000000
# 3 -0.007862 -0.007316 0.021219 0.000000 0.000000 0.000000
# 4 0.000000 0.000000 0.000000 0.082499 0.000000 0.000000
# 5 0.000000 0.000000 0.000000 0.000000 0.053602 0.000000
# 6 0.000000 0.000000 0.000000 0.000000 0.000000 0.090034
#
#
# Mechanical properties :
#
#
# Convention : Reuss Voigt Hill
#
# Bulk Modulus (GPa) = 58.64083 59.36460 59.00271
# Shear Modulus (GPa) = 15.45056 16.90536 16.17796
#
# Velocity S-wave (km/s) = 2.99195 3.12964 3.06157
# Velocity P-wave (km/s) = 6.77577 6.88871 6.83247
#
# Compressibility (1/GPa) = 0.01705296
#
# Stress axis : x y z
#
# Youngs Moduli (GPa) = 64.69710 56.34524 47.12776
#
# Poissons Ratio (x) = 0.19761 0.37052
# Poissons Ratio (y) = 0.22690 0.34478
# Poissons Ratio (z) = 0.50865 0.41222
#
# Static dielectric constant tensor:
#      x y z
#    x 1.559720 0.000000 0.000000 
#    y 0.000000 1.579040 0.000000 
#    z 0.000000 0.000000 1.601210 
# 
# From -- ./inp_files/72863.got.cif
#   From: 2010.05.17/outbox.cif.g08.bks.cpg/sg63_37_cif.got.tgz:72863.got - 2010.06.03 15:47:04.
