data_PCOD9471493
_publ_section_title
;
Structure prediction by ZEFSAII (Michael W. Deem and Ramdas Pophale) SiO2 
 PCOD9471493
Probable space group: C M C M
;
_chemical_formula_sum "Si O2"
_cell_formula_units_Z 80
_cell_length_a 11.940352
_cell_length_b 13.909572
_cell_length_c 24.015693
_cell_angle_alpha 90.000000
_cell_angle_beta 90.000000
_cell_angle_gamma 90.000000
_cell_volume 3988.650835
_symmetry_space_group_name_H-M "C M C M"
_symmetry_group_IT_number 63
_symmetry_cell_setting 'orthorhombic'
loop_
_space_group_symop_operation_xyz
x,y,z
-x,-y,1/2+z
x,-y,-z
-x,y,1/2-z
-x,-y,-z
x,y,1/2-z
-x,y,z
x,-y,1/2+z
1/2+x,1/2+y,z
1/2-x,1/2-y,1/2+z
1/2+x,1/2-y,-z
1/2-x,1/2+y,1/2-z
1/2-x,1/2-y,-z
1/2+x,1/2+y,1/2-z
1/2-x,1/2+y,z
1/2+x,1/2-y,1/2+z
loop_
_atom_site_type_symbol
_atom_site_label
_atom_site_fract_x
_atom_site_fract_y
_atom_site_fract_z
Si Si1 0.626472 0.883944 0.009560
Si Si2 0.000000 0.135075 0.037256
Si Si3 0.732853 0.345439 0.593003
Si Si4 0.867458 0.285372 0.315624
Si Si5 0.000000 0.916238 0.087034
Si Si6 0.757122 0.071945 0.617914
O O1 0.500000 0.854810 0.023298
O O2 0.670896 0.833908 0.953480
O O3 0.709880 0.877775 0.061690
O O4 0.624514 0.000000 0.000000
O O5 0.117216 0.172378 0.059880
O O6 0.000000 0.025497 0.062331
O O7 0.000000 0.140145 0.970925
O O8 0.713636 0.283813 0.648454
O O9 0.744649 0.457319 0.610458
O O10 0.856771 0.269208 0.250000
O O11 0.822670 0.390229 0.333475
O O12 0.000000 0.273186 0.329879
O O13 0.112532 0.900673 0.121651
#
# Coordination Sequence:
#
# PCOD9471493 Si02
#       6
#    16   8  16  16   8  16
#     4   9  17  31  55  90 125 154 184 228 293 362
#     4   9  14  30  57  89 118 149 183 230 292 358
#     4  10  19  36  62  87 119 154 191 239 292 352
#     4  11  25  43  61  83 113 155 209 254 287 338
#     4   9  16  30  57  89 122 149 179 228 300 356
#     4  10  20  36  61  89 121 154 189 238 294 353
#
# _framework density 20.056906999999999
#
# number of rings (size 3 to 8) (size 9 to 14) (size 15 to 20)
#    0.000    2.200    3.000    0.600    0.000    2.400 
#    1.800    0.500    0.000    0.000    0.000    0.000 
#    0.000    0.000    0.000    0.000    0.000    0.000 
#
# Total GULP energy -223209.550485 kJ/mol
# GULP energy per Si atom -5580.238762 kJ/mol
# Density = 2.001126 g / cm^3
# Si number density = 20.056907 Si / 1000 Ang^3
#
#
#
# Elastic Constant Matrix: (Units=GPa)
#
#
# Indices 1 2 3 4 5 6 
#
# 1 115.7730 27.0339 34.8672 0.0000 0.0000 0.0000
# 2 27.0339 76.8193 19.9980 0.0000 0.0000 0.0000
# 3 34.8672 19.9980 79.3834 0.0000 0.0000 0.0000
# 4 0.0000 0.0000 0.0000 23.7434 0.0000 0.0000
# 5 0.0000 0.0000 0.0000 0.0000 31.4215 0.0000
# 6 0.0000 0.0000 0.0000 0.0000 0.0000 29.9180
#
#
#
# Elastic Compliance Matrix: (Units=1/GPa)
#
#
# Indices 1 2 3 4 5 6 
#
# 1 0.010436 -0.002653 -0.003915 0.000000 0.000000 0.000000
# 2 -0.002653 0.014606 -0.002514 0.000000 0.000000 0.000000
# 3 -0.003915 -0.002514 0.014950 0.000000 0.000000 0.000000
# 4 0.000000 0.000000 0.000000 0.042117 0.000000 0.000000
# 5 0.000000 0.000000 0.000000 0.000000 0.031825 0.000000
# 6 0.000000 0.000000 0.000000 0.000000 0.000000 0.033425
#
#
# Mechanical properties :
#
#
# Convention : Reuss Voigt Hill
#
# Bulk Modulus (GPa) = 45.81571 48.41932 47.11752
# Shear Modulus (GPa) = 28.93508 29.68838 29.31173
#
# Velocity S-wave (km/s) = 3.80234 3.85152 3.82701
# Velocity P-wave (km/s) = 6.49381 6.63116 6.56284
#
# Compressibility (1/GPa) = 0.02182658
#
# Stress axis : x y z
#
# Youngs Moduli (GPa) = 95.81839 68.46601 66.88879
#
# Poissons Ratio (x) = 0.18167 0.26190
# Poissons Ratio (y) = 0.25425 0.16816
# Poissons Ratio (z) = 0.37518 0.17212
#
# Static dielectric constant tensor:
#      x y z
#    x 1.687470 0.000000 0.000000 
#    y 0.000000 1.840990 0.000000 
#    z 0.000000 0.000000 1.670870 
# 
# From -- ./inp_files/61169.got.cif
#   From: 2010.05.17/outbox.cif.g08.bks.cpg/sg63_31_cif.got.tgz:61169.got - 2010.06.03 15:47:04.
