data_PCOD9471512
_publ_section_title
;
Structure prediction by ZEFSAII (Michael W. Deem and Ramdas Pophale) SiO2 
 PCOD9471512
Probable space group: C M C M
;
_chemical_formula_sum "Si O2"
_cell_formula_units_Z 68
_cell_length_a 13.611545
_cell_length_b 12.011744
_cell_length_c 19.390779
_cell_angle_alpha 90.000000
_cell_angle_beta 90.000000
_cell_angle_gamma 90.000000
_cell_volume 3170.361225
_symmetry_space_group_name_H-M "C M C M"
_symmetry_group_IT_number 63
_symmetry_cell_setting 'orthorhombic'
loop_
_space_group_symop_operation_xyz
x,y,z
-x,-y,1/2+z
x,-y,-z
-x,y,1/2-z
-x,-y,-z
x,y,1/2-z
-x,y,z
x,-y,1/2+z
1/2+x,1/2+y,z
1/2-x,1/2-y,1/2+z
1/2+x,1/2-y,-z
1/2-x,1/2+y,1/2-z
1/2-x,1/2-y,-z
1/2+x,1/2+y,1/2-z
1/2-x,1/2+y,z
1/2+x,1/2-y,1/2+z
loop_
_atom_site_type_symbol
_atom_site_label
_atom_site_fract_x
_atom_site_fract_y
_atom_site_fract_z
Si Si1 0.000000 0.729888 0.750000
Si Si2 0.614597 0.129309 0.987634
Si Si3 0.112054 0.983414 0.577484
Si Si4 0.890839 0.766884 0.369546
Si Si5 0.680522 0.263467 0.857318
O O1 0.088429 0.734134 0.809300
O O2 0.500000 0.133843 0.966885
O O3 0.674114 0.186669 0.926042
O O4 0.621422 0.198742 0.058602
O O5 0.638155 0.000000 0.000000
O O6 0.107991 0.102159 0.613556
O O7 0.000000 0.939683 0.570870
O O8 0.148460 0.000000 0.500000
O O9 0.169320 0.891202 0.619211
O O10 0.790689 0.747490 0.328377
O O11 0.000000 0.737412 0.341670
#
# Coordination Sequence:
#
# PCOD9471512 Si02
#       5
#     4  16  16  16  16
#     4  12  28  48  66  96 130 192 226 270 308 426
#     4  10  20  36  64 105 144 165 214 283 348 390
#     4  10  19  36  66 102 135 167 219 282 339 384
#     4  10  23  38  64 103 136 171 213 286 347 383
#     4  12  23  42  67  98 139 179 226 264 332 408
#
# _framework density 21.448658999999999
#
# number of rings (size 3 to 8) (size 9 to 14) (size 15 to 20)
#    0.000    1.412    4.706    0.706    3.294    0.000 
#    0.000    1.765    0.000    0.000    0.000    0.000 
#    0.000    0.000    0.000    0.000    0.000    0.000 
#
# Total GULP energy -189401.855974 kJ/mol
# GULP energy per Si atom -5570.642823 kJ/mol
# Density = 2.139984 g / cm^3
# Si number density = 21.448659 Si / 1000 Ang^3
#
#
#
# Elastic Constant Matrix: (Units=GPa)
#
#
# Indices 1 2 3 4 5 6 
#
# 1 235.7700 17.5591 43.4597 0.0000 0.0000 0.0000
# 2 17.5591 119.8705 24.6226 0.0000 0.0000 0.0000
# 3 43.4597 24.6226 75.9853 0.0000 0.0000 0.0000
# 4 0.0000 0.0000 0.0000 -11.8983 0.0000 0.0000
# 5 0.0000 0.0000 0.0000 0.0000 13.8022 0.0000
# 6 0.0000 0.0000 0.0000 0.0000 0.0000 30.3590
#
#
#
# Elastic Compliance Matrix: (Units=1/GPa)
#
#
# Indices 1 2 3 4 5 6 
#
# 1 0.004744 -0.000147 -0.002665 0.000000 0.000000 0.000000
# 2 -0.000147 0.008942 -0.002813 0.000000 0.000000 0.000000
# 3 -0.002665 -0.002813 0.015597 0.000000 0.000000 0.000000
# 4 0.000000 0.000000 0.000000 -0.084045 0.000000 0.000000
# 5 0.000000 0.000000 0.000000 0.000000 0.072452 0.000000
# 6 0.000000 0.000000 0.000000 0.000000 0.000000 0.032939
#
#
# Mechanical properties :
#
#
# Convention : Reuss Voigt Hill
#
# Bulk Modulus (GPa) = 55.46315 66.98984 61.22649
# Shear Modulus (GPa) = 73.64878 29.51822 51.58350
#
# Velocity S-wave (km/s) = 5.86616 3.71378 4.90938
# Velocity P-wave (km/s) = 8.47332 7.04911 7.79381
#
# Compressibility (1/GPa) = 0.01802999
#
# Stress axis : x y z
#
# Youngs Moduli (GPa) = 210.80527 111.83440 64.11682
#
# Poissons Ratio (x) = 0.01648 0.17090
# Poissons Ratio (y) = 0.03107 0.18038
# Poissons Ratio (z) = 0.56188 0.31462
#
# Static dielectric constant tensor:
#      x y z
#    x 1.858640 0.000000 0.000000 
#    y 0.000000 1.729790 0.000000 
#    z 0.000000 0.000000 1.726240 
# 
# From -- ./inp_files/53825.got.cif
#   From: 2010.05.17/outbox.cif.g08.bks.cpg/sg63_27_cif.got.tgz:53825.got - 2010.06.03 15:47:04.
