data_PCOD9471855
_publ_section_title
;
Structure prediction by ZEFSAII (Michael W. Deem and Ramdas Pophale) SiO2 
 PCOD9471855
Probable space group: C M C M
;
_chemical_formula_sum "Si O2"
_cell_formula_units_Z 128
_cell_length_a 14.535483
_cell_length_b 22.516674
_cell_length_c 18.274540
_cell_angle_alpha 90.000000
_cell_angle_beta 90.000000
_cell_angle_gamma 90.000000
_cell_volume 5981.087576
_symmetry_space_group_name_H-M "C M C M"
_symmetry_group_IT_number 63
_symmetry_cell_setting 'orthorhombic'
loop_
_space_group_symop_operation_xyz
x,y,z
-x,-y,1/2+z
x,-y,-z
-x,y,1/2-z
-x,-y,-z
x,y,1/2-z
-x,y,z
x,-y,1/2+z
1/2+x,1/2+y,z
1/2-x,1/2-y,1/2+z
1/2+x,1/2-y,-z
1/2-x,1/2+y,1/2-z
1/2-x,1/2-y,-z
1/2+x,1/2+y,1/2-z
1/2-x,1/2+y,z
1/2+x,1/2-y,1/2+z
loop_
_atom_site_type_symbol
_atom_site_label
_atom_site_fract_x
_atom_site_fract_y
_atom_site_fract_z
Si Si1 0.652548 0.780656 0.911827
Si Si2 0.350487 0.863252 0.333337
Si Si3 0.368428 0.752323 0.425680
Si Si4 0.366937 0.666907 0.830752
Si Si5 0.300127 0.099745 0.334509
Si Si6 0.898938 0.066029 0.555654
Si Si7 0.900964 0.882888 0.608180
Si Si8 0.694740 0.980403 0.417966
O O1 0.758344 0.758886 0.921022
O O2 0.613322 0.734412 0.853215
O O3 0.656155 0.847610 0.883002
O O4 0.609669 0.771845 0.991654
O O5 0.382122 0.874544 0.250000
O O6 0.393974 0.805427 0.371126
O O7 0.242490 0.845718 0.328660
O O8 0.352062 0.920966 0.385770
O O9 0.404933 0.687747 0.405598
O O10 0.401076 0.652595 0.750000
O O11 0.401130 0.624269 0.894273
O O12 0.324059 0.107476 0.250000
O O13 0.189323 0.104758 0.344713
O O14 0.325266 0.035291 0.364945
O O15 0.888529 0.086987 0.471711
O O16 0.805894 0.031918 0.578510
O O17 0.000000 0.036926 0.564972
O O18 0.000000 0.901928 0.638998
O O19 0.667864 0.000000 0.500000
#
# Coordination Sequence:
#
# PCOD9471855 Si02
#       8
#    16  16  16  16  16  16  16  16
#     4   9  16  28  47  70  91 118 156 200 246 300
#     4   9  18  30  46  68  94 119 152 201 251 291
#     4   9  16  28  51  70  90 120 158 197 244 297
#     4   9  16  28  46  67  90 116 151 202 255 292
#     4  11  22  33  47  69  99 132 166 205 246 288
#     4  10  20  33  48  66  91 129 172 207 236 275
#     4  10  20  34  50  70  98 132 166 200 240 288
#     4  11  20  33  49  68  92 131 171 206 238 285
#
# _framework density 21.400791000000002
#
# number of rings (size 3 to 8) (size 9 to 14) (size 15 to 20)
#    0.000    2.250    2.500    1.500    3.500    4.750 
#    0.000    0.000    0.000    0.000    0.000    0.000 
#    0.000    5.500    0.000    2.500    0.000    0.000 
#
# Total GULP energy -357255.753973 kJ/mol
# GULP energy per Si atom -5582.121156 kJ/mol
# Density = 2.135208 g / cm^3
# Si number density = 21.400791 Si / 1000 Ang^3
#
#
#
# Elastic Constant Matrix: (Units=GPa)
#
#
# Indices 1 2 3 4 5 6 
#
# 1 32.7616 -7.1249 -5.9293 0.0000 0.0000 0.0000
# 2 -7.1249 126.0418 23.0375 0.0000 0.0000 0.0000
# 3 -5.9293 23.0375 76.2022 0.0000 0.0000 0.0000
# 4 0.0000 0.0000 0.0000 31.9285 0.0000 0.0000
# 5 0.0000 0.0000 0.0000 0.0000 -18.1826 0.0000
# 6 0.0000 0.0000 0.0000 0.0000 0.0000 -8.3607
#
#
#
# Elastic Compliance Matrix: (Units=1/GPa)
#
#
# Indices 1 2 3 4 5 6 
#
# 1 0.031190 0.001397 0.002005 0.000000 0.000000 0.000000
# 2 0.001397 0.008460 -0.002449 0.000000 0.000000 0.000000
# 3 0.002005 -0.002449 0.014019 0.000000 0.000000 0.000000
# 4 0.000000 0.000000 0.000000 0.031320 0.000000 0.000000
# 5 0.000000 0.000000 0.000000 0.000000 -0.054998 0.000000
# 6 0.000000 0.000000 0.000000 0.000000 0.000000 -0.119607
#
#
# Mechanical properties :
#
#
# Convention : Reuss Voigt Hill
#
# Bulk Modulus (GPa) = 17.99389 28.33026 23.16208
# Shear Modulus (GPa) = -68.49849 16.07851 -26.20999
#
# Velocity S-wave (km/s) = -5.66365 2.74397 -3.50340
# Velocity P-wave (km/s) = 5.86029 4.82761 2.34916
#
# Compressibility (1/GPa) = 0.05557442
#
# Stress axis : x y z
#
# Youngs Moduli (GPa) = 32.06147 118.19682 71.32984
#
# Poissons Ratio (x) = -0.16509 -0.14299
# Poissons Ratio (y) = -0.04478 0.17469
# Poissons Ratio (z) = -0.06427 0.28948
#
# Static dielectric constant tensor:
#      x y z
#    x 1.881810 0.000000 0.000000 
#    y 0.000000 1.750360 0.000000 
#    z 0.000000 0.000000 1.739860 
# 
# From -- ./inp_files/46301.got.cif
#   From: 2010.05.17/outbox.cif.g08.bks.cpg/sg63_24_cif.got.tgz:46301.got - 2010.06.03 15:47:04.
