data_PCOD9471356
_publ_section_title
;
Structure prediction by ZEFSAII (Michael W. Deem and Ramdas Pophale) SiO2 
 PCOD9471356
Probable space group: C M C M
;
_chemical_formula_sum "Si O2"
_cell_formula_units_Z 96
_cell_length_a 25.387769
_cell_length_b 10.229415
_cell_length_c 22.367139
_cell_angle_alpha 90.000000
_cell_angle_beta 90.000000
_cell_angle_gamma 90.000000
_cell_volume 5808.791292
_symmetry_space_group_name_H-M "C M C M"
_symmetry_group_IT_number 63
_symmetry_cell_setting 'orthorhombic'
loop_
_space_group_symop_operation_xyz
x,y,z
-x,-y,1/2+z
x,-y,-z
-x,y,1/2-z
-x,-y,-z
x,y,1/2-z
-x,y,z
x,-y,1/2+z
1/2+x,1/2+y,z
1/2-x,1/2-y,1/2+z
1/2+x,1/2-y,-z
1/2-x,1/2+y,1/2-z
1/2-x,1/2-y,-z
1/2+x,1/2+y,1/2-z
1/2-x,1/2+y,z
1/2+x,1/2-y,1/2+z
loop_
_atom_site_type_symbol
_atom_site_label
_atom_site_fract_x
_atom_site_fract_y
_atom_site_fract_z
Si Si1 0.745514 0.623308 0.041595
Si Si2 0.349883 0.281521 0.879592
Si Si3 0.061323 0.612524 0.450257
Si Si4 0.692361 0.291319 0.750000
Si Si5 0.342374 0.029940 0.378692
Si Si6 0.708056 0.015669 0.250000
Si Si7 0.437763 0.364110 0.531798
O O1 0.698990 0.649086 0.088066
O O2 0.798884 0.592983 0.077675
O O3 0.733577 0.500000 0.000000
O O4 0.750000 0.750000 0.000000
O O5 0.342809 0.303952 0.809254
O O6 0.402521 0.334257 0.910572
O O7 0.345212 0.125765 0.890274
O O8 0.070328 0.500000 0.500000
O O9 0.101492 0.589619 0.396513
O O10 0.071170 0.748442 0.484073
O O11 0.000000 0.606014 0.432248
O O12 0.738622 0.399117 0.750000
O O13 0.716179 0.142626 0.750000
O O14 0.324098 0.047835 0.310388
O O15 0.423780 0.500000 0.500000
O O16 0.500000 0.365639 0.546364
#
# Coordination Sequence:
#
# PCOD9471356 Si02
#       7
#    16  16  16   8  16   8  16
#     4  12  22  32  52  79 110 143 176 231 283 327
#     4  11  21  37  57  81 112 147 188 230 275 333
#     4  10  19  35  61  83 110 149 180 222 286 335
#     4  10  22  40  57  77 110 154 193 226 278 326
#     4  11  21  37  56  81 114 142 191 232 273 330
#     4  10  22  40  57  75 110 158 185 234 276 322
#     4  10  21  38  59  86 117 146 180 231 286 334
#
# _framework density 16.526674
#
# number of rings (size 3 to 8) (size 9 to 14) (size 15 to 20)
#    0.000    1.333    5.000    2.000    0.000    0.000 
#    3.000    0.833    0.000    3.000    0.000    3.500 
#    0.000    0.000    0.000    0.000    0.000    0.000 
#
# Total GULP energy -268008.477509 kJ/mol
# GULP energy per Si atom -5583.509948 kJ/mol
# Density = 1.648906 g / cm^3
# Si number density = 16.526674 Si / 1000 Ang^3
#
#
#
# Elastic Constant Matrix: (Units=GPa)
#
#
# Indices 1 2 3 4 5 6 
#
# 1 96.1995 48.4187 71.2185 0.0000 0.0000 0.0000
# 2 48.4187 118.7573 64.1426 0.0000 0.0000 0.0000
# 3 71.2185 64.1426 130.1921 0.0000 0.0000 0.0000
# 4 0.0000 0.0000 0.0000 21.0571 0.0000 0.0000
# 5 0.0000 0.0000 0.0000 0.0000 12.3194 0.0000
# 6 0.0000 0.0000 0.0000 0.0000 0.0000 20.6072
#
#
#
# Elastic Compliance Matrix: (Units=1/GPa)
#
#
# Indices 1 2 3 4 5 6 
#
# 1 0.018115 -0.002771 -0.008544 0.000000 0.000000 0.000000
# 2 -0.002771 0.011898 -0.004346 0.000000 0.000000 0.000000
# 3 -0.008544 -0.004346 0.014496 0.000000 0.000000 0.000000
# 4 0.000000 0.000000 0.000000 0.047490 0.000000 0.000000
# 5 0.000000 0.000000 0.000000 0.000000 0.081173 0.000000
# 6 0.000000 0.000000 0.000000 0.000000 0.000000 0.048527
#
#
# Mechanical properties :
#
#
# Convention : Reuss Voigt Hill
#
# Bulk Modulus (GPa) = 75.83460 79.18984 77.51222
# Shear Modulus (GPa) = 19.42382 21.55468 20.48925
#
# Velocity S-wave (km/s) = 3.43199 3.61534 3.52485
# Velocity P-wave (km/s) = 7.85433 8.08999 7.97303
#
# Compressibility (1/GPa) = 0.01318659
#
# Stress axis : x y z
#
# Youngs Moduli (GPa) = 55.20203 84.05102 68.98413
#
# Poissons Ratio (x) = 0.23289 0.58943
# Poissons Ratio (y) = 0.15296 0.29980
# Poissons Ratio (z) = 0.47167 0.36528
#
# Static dielectric constant tensor:
#      x y z
#    x 1.546160 0.000000 0.000000 
#    y 0.000000 1.555530 0.000000 
#    z 0.000000 0.000000 1.534660 
# 
# From -- ./inp_files/64998.got.cif
#   From: 2010.05.17/outbox.cif.g08.bks.cpg/sg63_33_cif.got.tgz:64998.got - 2010.06.03 15:47:04.
