data_PCOD9471576
_publ_section_title
;
Structure prediction by ZEFSAII (Michael W. Deem and Ramdas Pophale) SiO2 
 PCOD9471576
Probable space group: C M C M
;
_chemical_formula_sum "Si O2"
_cell_formula_units_Z 112
_cell_length_a 11.406145
_cell_length_b 33.847240
_cell_length_c 15.098816
_cell_angle_alpha 90.000000
_cell_angle_beta 90.000000
_cell_angle_gamma 90.000000
_cell_volume 5829.147459
_symmetry_space_group_name_H-M "C M C M"
_symmetry_group_IT_number 63
_symmetry_cell_setting 'orthorhombic'
loop_
_space_group_symop_operation_xyz
x,y,z
-x,-y,1/2+z
x,-y,-z
-x,y,1/2-z
-x,-y,-z
x,y,1/2-z
-x,y,z
x,-y,1/2+z
1/2+x,1/2+y,z
1/2-x,1/2-y,1/2+z
1/2+x,1/2-y,-z
1/2-x,1/2+y,1/2-z
1/2-x,1/2-y,-z
1/2+x,1/2+y,1/2-z
1/2-x,1/2+y,z
1/2+x,1/2-y,1/2+z
loop_
_atom_site_type_symbol
_atom_site_label
_atom_site_fract_x
_atom_site_fract_y
_atom_site_fract_z
Si Si1 0.637131 0.756654 0.064711
Si Si2 0.137085 0.173842 0.152731
Si Si3 0.872572 0.471731 0.146555
Si Si4 0.625192 0.539746 0.940278
Si Si5 0.133842 0.433545 0.846479
Si Si6 0.862272 0.344117 0.353559
Si Si7 0.226894 0.113548 0.009607
O O1 0.500000 0.755227 0.027818
O O2 0.644471 0.720373 0.133037
O O3 0.648431 0.798793 0.113117
O O4 0.750000 0.750000 0.000000
O O5 0.188177 0.164883 0.250000
O O6 0.191178 0.150230 0.071081
O O7 0.000000 0.163343 0.154742
O O8 0.876477 0.461216 0.250000
O O9 0.749073 0.457911 0.109342
O O10 0.866310 0.519334 0.139890
O O11 0.000000 0.459534 0.106896
O O12 0.500000 0.536688 0.890702
O O13 0.631340 0.500000 0.000000
O O14 0.626179 0.581445 0.991357
O O15 0.191561 0.426119 0.750000
O O16 0.186888 0.411588 0.928857
O O17 0.000000 0.420980 0.840202
O O18 0.829327 0.347681 0.250000
O O19 0.785281 0.370290 0.420023
O O20 0.000000 0.355032 0.361164
#
# Coordination Sequence:
#
# PCOD9471576 Si02
#       7
#    16  16  16  16  16  16  16
#     4  10  19  38  66  93 123 162 201 243 298 361
#     4  10  21  37  61  91 120 154 199 247 297 360
#     4   9  19  38  62  84 107 143 198 257 306 360
#     4  11  24  40  56  81 118 159 201 248 303 363
#     4   9  18  33  54  83 115 147 191 250 312 363
#     4  10  22  39  61  91 126 164 206 249 298 363
#     4  12  21  36  60  84 118 161 202 254 305 356
#
# _framework density 19.213788000000001
#
# number of rings (size 3 to 8) (size 9 to 14) (size 15 to 20)
#    0.000    1.857    2.857    2.571    0.000    4.000 
#    0.000    1.429    0.000    5.571    0.000    0.000 
#    0.000    0.000    0.000    0.000    0.000    0.000 
#
# Total GULP energy -311938.358857 kJ/mol
# GULP energy per Si atom -5570.327837 kJ/mol
# Density = 1.917006 g / cm^3
# Si number density = 19.213788 Si / 1000 Ang^3
#
#
#
# Elastic Constant Matrix: (Units=GPa)
#
#
# Indices 1 2 3 4 5 6 
#
# 1 134.0118 38.1001 65.9631 0.0000 0.0000 0.0000
# 2 38.1001 86.8778 44.0079 0.0000 0.0000 0.0000
# 3 65.9631 44.0079 113.6992 0.0000 0.0000 0.0000
# 4 0.0000 0.0000 0.0000 19.2776 0.0000 0.0000
# 5 0.0000 0.0000 0.0000 0.0000 34.0324 0.0000
# 6 0.0000 0.0000 0.0000 0.0000 0.0000 59.3770
#
#
#
# Elastic Compliance Matrix: (Units=1/GPa)
#
#
# Indices 1 2 3 4 5 6 
#
# 1 0.010697 -0.001925 -0.005461 0.000000 0.000000 0.000000
# 2 -0.001925 0.014664 -0.004559 0.000000 0.000000 0.000000
# 3 -0.005461 -0.004559 0.013728 0.000000 0.000000 0.000000
# 4 0.000000 0.000000 0.000000 0.051874 0.000000 0.000000
# 5 0.000000 0.000000 0.000000 0.000000 0.029384 0.000000
# 6 0.000000 0.000000 0.000000 0.000000 0.000000 0.016842
#
#
# Mechanical properties :
#
#
# Convention : Reuss Voigt Hill
#
# Bulk Modulus (GPa) = 65.79271 70.08122 67.93696
# Shear Modulus (GPa) = 30.09428 34.97192 32.53310
#
# Velocity S-wave (km/s) = 3.96193 4.27095 4.11934
# Velocity P-wave (km/s) = 7.43276 7.80224 7.61974
#
# Compressibility (1/GPa) = 0.01519925
#
# Stress axis : x y z
#
# Youngs Moduli (GPa) = 93.48127 68.19437 72.84419
#
# Poissons Ratio (x) = 0.13128 0.39780
# Poissons Ratio (y) = 0.17995 0.33209
# Poissons Ratio (z) = 0.51050 0.31090
#
# Static dielectric constant tensor:
#      x y z
#    x 1.700040 0.000000 0.000000 
#    y 0.000000 1.681820 0.000000 
#    z 0.000000 0.000000 1.722300 
# 
# From -- ./inp_files/30398.got.cif
#   From: 2010.05.17/outbox.cif.g08.bks.cpg/sg63_16_cif.got.tgz:30398.got - 2010.06.03 15:47:04.
