data_PCOD9471540
_publ_section_title
;
Structure prediction by ZEFSAII (Michael W. Deem and Ramdas Pophale) SiO2 
 PCOD9471540
Probable space group: C M C M
;
_chemical_formula_sum "Si O2"
_cell_formula_units_Z 64
_cell_length_a 12.951850
_cell_length_b 14.437780
_cell_length_c 14.748052
_cell_angle_alpha 90.000000
_cell_angle_beta 90.000000
_cell_angle_gamma 90.000000
_cell_volume 2757.826155
_symmetry_space_group_name_H-M "C M C M"
_symmetry_group_IT_number 63
_symmetry_cell_setting 'orthorhombic'
loop_
_space_group_symop_operation_xyz
x,y,z
-x,-y,1/2+z
x,-y,-z
-x,y,1/2-z
-x,-y,-z
x,y,1/2-z
-x,y,z
x,-y,1/2+z
1/2+x,1/2+y,z
1/2-x,1/2-y,1/2+z
1/2+x,1/2-y,-z
1/2-x,1/2+y,1/2-z
1/2-x,1/2-y,-z
1/2+x,1/2+y,1/2-z
1/2-x,1/2+y,z
1/2+x,1/2-y,1/2+z
loop_
_atom_site_type_symbol
_atom_site_label
_atom_site_fract_x
_atom_site_fract_y
_atom_site_fract_z
Si Si1 0.616798 0.891104 0.889366
Si Si2 0.331986 0.301047 0.846377
Si Si3 0.890770 0.105111 0.533732
Si Si4 0.167741 0.600298 0.896984
O O1 0.500000 0.865325 0.864715
O O2 0.709247 0.825914 0.854483
O O3 0.627628 0.892131 0.999144
O O4 0.637321 0.001220 0.137754
O O5 0.366840 0.342764 0.750000
O O6 0.362243 0.193320 0.846546
O O7 0.291531 0.390320 0.096203
O O8 0.875519 0.161191 0.440773
O O9 0.000000 0.130922 0.576383
O O10 0.893343 0.000000 0.500000
#
# Coordination Sequence:
#
# PCOD9471540 Si02
#       4
#    16  16  16  16
#     4  10  20  39  65  89 116 158 206 249 295 356
#     4  11  24  38  56  88 128 159 190 246 313 362
#     4  10  19  37  62  83 109 153 204 243 287 351
#     4  10  19  37  62  91 114 154 201 250 296 357
#
# _framework density 23.206683999999999
#
# number of rings (size 3 to 8) (size 9 to 14) (size 15 to 20)
#    0.000    1.750    5.000    4.500    0.000    7.000 
#    0.000    0.000    0.000    0.000    0.000    0.000 
#    0.000    0.000    0.000    0.000    0.000    0.000 
#
# Total GULP energy -178665.629251 kJ/mol
# GULP energy per Si atom -5583.300914 kJ/mol
# Density = 2.315386 g / cm^3
# Si number density = 23.206684 Si / 1000 Ang^3
#
#
#
# Elastic Constant Matrix: (Units=GPa)
#
#
# Indices 1 2 3 4 5 6 
#
# 1 123.4686 0.1849 -11.2236 0.0000 0.0000 0.0000
# 2 0.1849 137.2356 11.9044 0.0000 0.0000 0.0000
# 3 -11.2236 11.9044 34.3009 0.0000 0.0000 0.0000
# 4 0.0000 0.0000 0.0000 239.2245 0.0000 0.0000
# 5 0.0000 0.0000 0.0000 0.0000 -10.2071 0.0000
# 6 0.0000 0.0000 0.0000 0.0000 0.0000 85.4386
#
#
#
# Elastic Compliance Matrix: (Units=1/GPa)
#
#
# Indices 1 2 3 4 5 6 
#
# 1 0.008356 -0.000256 0.002823 0.000000 0.000000 0.000000
# 2 -0.000256 0.007521 -0.002694 0.000000 0.000000 0.000000
# 3 0.002823 -0.002694 0.031012 0.000000 0.000000 0.000000
# 4 0.000000 0.000000 0.000000 0.004180 0.000000 0.000000
# 5 0.000000 0.000000 0.000000 0.000000 -0.097971 0.000000
# 6 0.000000 0.000000 0.000000 0.000000 0.000000 0.011704
#
#
# Mechanical properties :
#
#
# Convention : Reuss Voigt Hill
#
# Bulk Modulus (GPa) = 21.44288 32.97072 27.20680
# Shear Modulus (GPa) = -257.76248 82.50049 -87.63099
#
# Velocity S-wave (km/s) = -10.55053 5.96888 -6.15167
# Velocity P-wave (km/s) = 11.79653 7.85758 6.22160
#
# Compressibility (1/GPa) = 0.04663552
#
# Stress axis : x y z
#
# Youngs Moduli (GPa) = 119.67105 132.96511 32.24513
#
# Poissons Ratio (x) = 0.03406 -0.09103
# Poissons Ratio (y) = 0.03065 0.08687
# Poissons Ratio (z) = -0.33785 0.35820
#
# Static dielectric constant tensor:
#      x y z
#    x 1.938110 0.000000 0.000000 
#    y 0.000000 1.871390 0.000000 
#    z 0.000000 0.000000 1.945580 
# 
# From -- ./inp_files/33369.got.cif
#   From: 2010.05.17/outbox.cif.g08.bks.cpg/sg63_17_cif.got.tgz:33369.got - 2010.06.03 15:47:04.
