data_PCOD9471566
_publ_section_title
;
Structure prediction by ZEFSAII (Michael W. Deem and Ramdas Pophale) SiO2 
 PCOD9471566
Probable space group: C M C M
;
_chemical_formula_sum "Si O2"
_cell_formula_units_Z 116
_cell_length_a 7.639062
_cell_length_b 25.486940
_cell_length_c 29.785183
_cell_angle_alpha 90.000000
_cell_angle_beta 90.000000
_cell_angle_gamma 90.000000
_cell_volume 5799.065367
_symmetry_space_group_name_H-M "C M C M"
_symmetry_group_IT_number 63
_symmetry_cell_setting 'orthorhombic'
loop_
_space_group_symop_operation_xyz
x,y,z
-x,-y,1/2+z
x,-y,-z
-x,y,1/2-z
-x,-y,-z
x,y,1/2-z
-x,y,z
x,-y,1/2+z
1/2+x,1/2+y,z
1/2-x,1/2-y,1/2+z
1/2+x,1/2-y,-z
1/2-x,1/2+y,1/2-z
1/2-x,1/2-y,-z
1/2+x,1/2+y,1/2-z
1/2-x,1/2+y,z
1/2+x,1/2-y,1/2+z
loop_
_atom_site_type_symbol
_atom_site_label
_atom_site_fract_x
_atom_site_fract_y
_atom_site_fract_z
Si Si1 0.211135 0.560998 0.098990
Si Si2 0.297657 0.083126 0.500937
Si Si3 0.292264 0.325186 0.624320
Si Si4 0.696722 0.624654 0.679695
Si Si5 0.709047 0.304305 0.523853
Si Si6 0.000000 0.596820 0.750000
Si Si7 0.287177 0.054623 0.598400
Si Si8 0.286730 0.243904 0.801797
O O1 0.263975 0.612350 0.126662
O O2 0.263162 0.503462 0.115468
O O3 0.000000 0.562127 0.097235
O O4 0.278381 0.567901 0.047627
O O5 0.500000 0.065970 0.499612
O O6 0.288235 0.146113 0.502031
O O7 0.223962 0.060769 0.547061
O O8 0.500000 0.316285 0.623517
O O9 0.224547 0.307056 0.575372
O O10 0.225176 0.290255 0.665384
O O11 0.500000 0.613676 0.695472
O O12 0.846267 0.600614 0.711120
O O13 0.718671 0.599868 0.630520
O O14 0.725212 0.687349 0.680855
O O15 0.500000 0.311694 0.524629
O O16 0.750000 0.250000 0.500000
O O17 0.500000 0.057867 0.597903
O O18 0.231391 0.250510 0.750000
O O19 0.500000 0.242433 0.801451
#
# Coordination Sequence:
#
# PCOD9471566 Si02
#       8
#    16  16  16  16  16   4  16  16
#     4   9  18  35  58  83 115 159 205 248 296 352
#     4   9  18  33  55  81 112 156 205 242 293 356
#     4   9  20  35  56  79 110 154 194 239 303 355
#     4  12  24  39  65  95 120 158 200 243 307 370
#     4  10  20  33  47  73 112 152 190 237 290 351
#     4  12  22  48  64  86 130 156 190 256 306 368
#     4  10  20  36  58  86 123 159 198 253 304 359
#     4  10  19  38  62  84 114 151 193 248 305 360
#
# _framework density 20.003222999999998
#
# number of rings (size 3 to 8) (size 9 to 14) (size 15 to 20)
#    0.000    2.069    2.069    1.034    1.931    3.862 
#    0.000    0.000    1.517    4.138    0.000    0.000 
#    0.000    0.000    0.000    0.000    0.000    0.000 
#
# Total GULP energy -323179.325957 kJ/mol
# GULP energy per Si atom -5572.057344 kJ/mol
# Density = 1.995770 g / cm^3
# Si number density = 20.003223 Si / 1000 Ang^3
#
#
#
# Elastic Constant Matrix: (Units=GPa)
#
#
# Indices 1 2 3 4 5 6 
#
# 1 77.3764 -2.1923 8.7427 0.0000 0.0000 0.0000
# 2 -2.1923 112.1953 57.2670 0.0000 0.0000 0.0000
# 3 8.7427 57.2670 70.1465 0.0000 0.0000 0.0000
# 4 0.0000 0.0000 0.0000 6.2848 0.0000 0.0000
# 5 0.0000 0.0000 0.0000 0.0000 -1.6757 0.0000
# 6 0.0000 0.0000 0.0000 0.0000 0.0000 16.1995
#
#
#
# Elastic Compliance Matrix: (Units=1/GPa)
#
#
# Indices 1 2 3 4 5 6 
#
# 1 0.013341 0.001902 -0.003215 0.000000 0.000000 0.000000
# 2 0.001902 0.015552 -0.012933 0.000000 0.000000 0.000000
# 3 -0.003215 -0.012933 0.025215 0.000000 0.000000 0.000000
# 4 0.000000 0.000000 0.000000 0.159115 0.000000 0.000000
# 5 0.000000 0.000000 0.000000 0.000000 -0.596766 0.000000
# 6 0.000000 0.000000 0.000000 0.000000 0.000000 0.061730
#
#
# Mechanical properties :
#
#
# Convention : Reuss Voigt Hill
#
# Bulk Modulus (GPa) = 39.04070 43.03922 41.03996
# Shear Modulus (GPa) = -17.55737 17.22176 -0.16780
#
# Velocity S-wave (km/s) = -2.96586 2.93738 -0.28995
# Velocity P-wave (km/s) = 2.79842 5.75040 4.52207
#
# Compressibility (1/GPa) = 0.02561430
#
# Stress axis : x y z
#
# Youngs Moduli (GPa) = 74.95674 64.30199 39.65853
#
# Poissons Ratio (x) = -0.12230 0.12752
# Poissons Ratio (y) = -0.14256 0.51291
# Poissons Ratio (z) = 0.24102 0.83163
#
# Static dielectric constant tensor:
#      x y z
#    x 1.746270 0.000000 0.000000 
#    y 0.000000 1.692180 0.000000 
#    z 0.000000 0.000000 1.880450 
# 
# From -- ./inp_files/72117.got.cif
#   From: 2010.05.17/outbox.cif.g08.bks.cpg/sg63_37_cif.got.tgz:72117.got - 2010.06.03 15:47:04.
