data_PCOD9471332
_publ_section_title
;
Structure prediction by ZEFSAII (Michael W. Deem and Ramdas Pophale) SiO2 
 PCOD9471332
Probable space group: C M C M
;
_chemical_formula_sum "Si O2"
_cell_formula_units_Z 100
_cell_length_a 22.020979
_cell_length_b 28.510414
_cell_length_c 7.882518
_cell_angle_alpha 90.000000
_cell_angle_beta 90.000000
_cell_angle_gamma 90.000000
_cell_volume 4948.859425
_symmetry_space_group_name_H-M "C M C M"
_symmetry_group_IT_number 63
_symmetry_cell_setting 'orthorhombic'
loop_
_space_group_symop_operation_xyz
x,y,z
-x,-y,1/2+z
x,-y,-z
-x,y,1/2-z
-x,-y,-z
x,y,1/2-z
-x,y,z
x,-y,1/2+z
1/2+x,1/2+y,z
1/2-x,1/2-y,1/2+z
1/2+x,1/2-y,-z
1/2-x,1/2+y,1/2-z
1/2-x,1/2-y,-z
1/2+x,1/2+y,1/2-z
1/2-x,1/2+y,z
1/2+x,1/2-y,1/2+z
loop_
_atom_site_type_symbol
_atom_site_label
_atom_site_fract_x
_atom_site_fract_y
_atom_site_fract_z
Si Si1 0.711785 0.579314 0.044077
Si Si2 0.154198 0.447802 0.549501
Si Si3 0.290441 0.312400 0.954104
Si Si4 0.417556 0.447593 0.447934
Si Si5 0.431698 0.138714 0.950304
Si Si6 0.000000 0.086973 0.250000
Si Si7 0.158048 0.280417 0.549760
O O1 0.710212 0.575022 0.250000
O O2 0.777867 0.562609 0.981166
O O3 0.701593 0.633861 0.999530
O O4 0.654961 0.553438 0.965098
O O5 0.133602 0.500000 0.500000
O O6 0.160230 0.447315 0.750000
O O7 0.108720 0.405582 0.506450
O O8 0.289337 0.309448 0.750000
O O9 0.223480 0.297661 0.020301
O O10 0.340360 0.275100 0.014931
O O11 0.436915 0.500000 0.500000
O O12 0.432931 0.437949 0.250000
O O13 0.447482 0.415902 0.596042
O O14 0.436933 0.134339 0.750000
O O15 0.500000 0.138650 0.024306
O O16 0.395848 0.187107 0.984331
O O17 0.159137 0.288050 0.750000
#
# Coordination Sequence:
#
# PCOD9471332 Si02
#       7
#    16  16  16  16  16   4  16
#     4  10  20  39  60  91 129 161 204 259 316 372
#     4  11  23  40  63  90 127 165 205 263 326 376
#     4   9  18  34  60  89 124 156 190 244 310 363
#     4  12  24  38  63  90 117 163 211 257 314 374
#     4  11  24  41  62  88 120 165 217 262 319 386
#     4  12  24  44  62  86 124 158 208 268 298 382
#     4  10  19  35  59  92 119 152 199 250 301 363
#
# _framework density 20.206676000000002
#
# number of rings (size 3 to 8) (size 9 to 14) (size 15 to 20)
#    0.000    1.440    3.200    2.400    0.000    5.440 
#    0.000    0.000    1.760    0.000    0.000    0.000 
#    0.000    0.000    0.000    0.000    0.000    0.000 
#
# Total GULP energy -278512.865731 kJ/mol
# GULP energy per Si atom -5570.257315 kJ/mol
# Density = 2.016068 g / cm^3
# Si number density = 20.206676 Si / 1000 Ang^3
#
#
#
# Elastic Constant Matrix: (Units=GPa)
#
#
# Indices 1 2 3 4 5 6 
#
# 1 138.1451 40.3766 20.5220 0.0000 0.0000 0.0000
# 2 40.3766 76.2292 10.9667 0.0000 0.0000 0.0000
# 3 20.5220 10.9667 90.8199 0.0000 0.0000 0.0000
# 4 0.0000 0.0000 0.0000 19.8666 0.0000 0.0000
# 5 0.0000 0.0000 0.0000 0.0000 26.5799 0.0000
# 6 0.0000 0.0000 0.0000 0.0000 0.0000 41.9288
#
#
#
# Elastic Compliance Matrix: (Units=1/GPa)
#
#
# Indices 1 2 3 4 5 6 
#
# 1 0.008746 -0.004425 -0.001442 0.000000 0.000000 0.000000
# 2 -0.004425 0.015589 -0.000882 0.000000 0.000000 0.000000
# 3 -0.001442 -0.000882 0.011443 0.000000 0.000000 0.000000
# 4 0.000000 0.000000 0.000000 0.050336 0.000000 0.000000
# 5 0.000000 0.000000 0.000000 0.000000 0.037622 0.000000
# 6 0.000000 0.000000 0.000000 0.000000 0.000000 0.023850
#
#
# Mechanical properties :
#
#
# Convention : Reuss Voigt Hill
#
# Bulk Modulus (GPa) = 44.88469 49.88052 47.38261
# Shear Modulus (GPa) = 29.67135 33.23035 31.45085
#
# Velocity S-wave (km/s) = 3.83612 4.05967 3.94948
# Velocity P-wave (km/s) = 6.47164 6.83472 6.65565
#
# Compressibility (1/GPa) = 0.02227931
#
# Stress axis : x y z
#
# Youngs Moduli (GPa) = 114.33298 64.14686 87.38811
#
# Poissons Ratio (x) = 0.28387 0.12601
# Poissons Ratio (y) = 0.50595 0.07712
# Poissons Ratio (z) = 0.16487 0.05661
#
# Static dielectric constant tensor:
#      x y z
#    x 1.762500 0.000000 0.000000 
#    y 0.000000 1.540440 0.000000 
#    z 0.000000 0.000000 1.707550 
# 
# From -- ./inp_files/8764.got.cif
#   From: 2010.05.17/outbox.cif.g08.bks.cpg/sg63_5_cif.got.tgz:8764.got - 2010.06.03 15:47:04.
