data_PCOD9471573
_publ_section_title
;
Structure prediction by ZEFSAII (Michael W. Deem and Ramdas Pophale) SiO2 
 PCOD9471573
Probable space group: C M C M
;
_chemical_formula_sum "Si O2"
_cell_formula_units_Z 52
_cell_length_a 17.089758
_cell_length_b 17.813510
_cell_length_c 7.375340
_cell_angle_alpha 90.000000
_cell_angle_beta 90.000000
_cell_angle_gamma 90.000000
_cell_volume 2245.264247
_symmetry_space_group_name_H-M "C M C M"
_symmetry_group_IT_number 63
_symmetry_cell_setting 'orthorhombic'
loop_
_space_group_symop_operation_xyz
x,y,z
-x,-y,1/2+z
x,-y,-z
-x,y,1/2-z
-x,-y,-z
x,y,1/2-z
-x,y,z
x,-y,1/2+z
1/2+x,1/2+y,z
1/2-x,1/2-y,1/2+z
1/2+x,1/2-y,-z
1/2-x,1/2+y,1/2-z
1/2-x,1/2-y,-z
1/2+x,1/2+y,1/2-z
1/2-x,1/2+y,z
1/2+x,1/2-y,1/2+z
loop_
_atom_site_type_symbol
_atom_site_label
_atom_site_fract_x
_atom_site_fract_y
_atom_site_fract_z
Si Si1 0.590929 0.275197 0.029482
Si Si2 0.000000 0.430592 0.750000
Si Si3 0.634286 0.107364 0.540536
Si Si4 0.689775 0.582750 0.965454
O O1 0.592150 0.272285 0.250000
O O2 0.500000 0.277658 0.975635
O O3 0.637655 0.348478 0.966661
O O4 0.628219 0.197926 0.963056
O O5 0.932078 0.422504 0.591355
O O6 0.622386 0.082966 0.750000
O O7 0.720541 0.085987 0.471591
O O8 0.694567 0.592942 0.750000
O O9 0.656599 0.500000 0.000000
#
# Coordination Sequence:
#
# PCOD9471573 Si02
#       4
#    16   4  16  16
#     4  10  19  38  65  95 127 164 210 264 312 368
#     4  12  22  40  70  90 130 160 208 268 322 358
#     4  11  22  40  66  96 125 163 213 260 314 377
#     4  10  24  40  61  90 129 172 214 256 312 380
#
# _framework density 23.159858
#
# number of rings (size 3 to 8) (size 9 to 14) (size 15 to 20)
#    0.000    1.538    3.077    1.385    2.154    1.846 
#    0.000    0.769    0.000    0.000    0.000    0.000 
#    0.000    0.000    0.000    0.000    0.000    0.000 
#
# Total GULP energy -145079.863227 kJ/mol
# GULP energy per Si atom -5579.994740 kJ/mol
# Density = 2.310714 g / cm^3
# Si number density = 23.159858 Si / 1000 Ang^3
#
#
#
# Elastic Constant Matrix: (Units=GPa)
#
#
# Indices 1 2 3 4 5 6 
#
# 1 39.6985 49.2856 -2.3604 0.0000 0.0000 0.0000
# 2 49.2856 179.9915 5.7480 0.0000 0.0000 0.0000
# 3 -2.3604 5.7480 108.5420 0.0000 0.0000 0.0000
# 4 0.0000 0.0000 0.0000 26.7213 0.0000 0.0000
# 5 0.0000 0.0000 0.0000 0.0000 -16.7372 0.0000
# 6 0.0000 0.0000 0.0000 0.0000 0.0000 1383.5710
#
#
#
# Elastic Compliance Matrix: (Units=1/GPa)
#
#
# Indices 1 2 3 4 5 6 
#
# 1 0.038373 -0.010552 0.001393 0.000000 0.000000 0.000000
# 2 -0.010552 0.008467 -0.000678 0.000000 0.000000 0.000000
# 3 0.001393 -0.000678 0.009279 0.000000 0.000000 0.000000
# 4 0.000000 0.000000 0.000000 0.037423 0.000000 0.000000
# 5 0.000000 0.000000 0.000000 0.000000 -0.059747 0.000000
# 6 0.000000 0.000000 0.000000 0.000000 0.000000 0.000723
#
#
# Mechanical properties :
#
#
# Convention : Reuss Voigt Hill
#
# Bulk Modulus (GPa) = 27.43790 48.17538 37.80664
# Shear Modulus (GPa) = 75.37081 297.08163 186.22622
#
# Velocity S-wave (km/s) = 5.71090 11.33811 8.97684
# Velocity P-wave (km/s) = 7.44034 13.86543 11.12675
#
# Compressibility (1/GPa) = 0.03644594
#
# Stress axis : x y z
#
# Youngs Moduli (GPa) = 26.06023 118.10890 107.76768
#
# Poissons Ratio (x) = 1.24626 -0.15015
# Poissons Ratio (y) = 0.27498 0.07305
# Poissons Ratio (z) = -0.03631 0.08006
#
# Static dielectric constant tensor:
#      x y z
#    x 1.811640 0.000000 0.000000 
#    y 0.000000 1.902870 0.000000 
#    z 0.000000 0.000000 1.874140 
# 
# From -- ./inp_files/3905.got.cif
#   From: 2010.05.17/outbox.cif.g08.bks.cpg/sg63_2_cif.got.tgz:3905.got - 2010.06.03 15:47:04.
