data_PCOD9471393
_publ_section_title
;
Structure prediction by ZEFSAII (Michael W. Deem and Ramdas Pophale) SiO2 
 PCOD9471393
Probable space group: C M C M
;
_chemical_formula_sum "Si O2"
_cell_formula_units_Z 112
_cell_length_a 14.964303
_cell_length_b 27.673135
_cell_length_c 13.644701
_cell_angle_alpha 90.000000
_cell_angle_beta 90.000000
_cell_angle_gamma 90.000000
_cell_volume 5650.395903
_symmetry_space_group_name_H-M "C M C M"
_symmetry_group_IT_number 63
_symmetry_cell_setting 'orthorhombic'
loop_
_space_group_symop_operation_xyz
x,y,z
-x,-y,1/2+z
x,-y,-z
-x,y,1/2-z
-x,-y,-z
x,y,1/2-z
-x,y,z
x,-y,1/2+z
1/2+x,1/2+y,z
1/2-x,1/2-y,1/2+z
1/2+x,1/2-y,-z
1/2-x,1/2+y,1/2-z
1/2-x,1/2-y,-z
1/2+x,1/2+y,1/2-z
1/2-x,1/2+y,z
1/2+x,1/2-y,1/2+z
loop_
_atom_site_type_symbol
_atom_site_label
_atom_site_fract_x
_atom_site_fract_y
_atom_site_fract_z
Si Si1 0.647662 0.209717 0.142561
Si Si2 0.356660 0.736961 0.361106
Si Si3 0.396424 0.412022 0.864128
Si Si4 0.602632 0.842126 0.443952
Si Si5 0.779707 0.892879 0.044532
Si Si6 0.905540 0.809536 0.434162
Si Si7 0.901171 0.027914 0.634442
O O1 0.632005 0.189351 0.250000
O O2 0.752434 0.222731 0.131061
O O3 0.614224 0.176132 0.055732
O O4 0.601242 0.261342 0.128943
O O5 0.386731 0.725372 0.250000
O O6 0.372019 0.794070 0.381234
O O7 0.399980 0.709109 0.452941
O O8 0.381223 0.400291 0.750000
O O9 0.500000 0.397970 0.886968
O O10 0.319289 0.391028 0.933501
O O11 0.392032 0.470260 0.875845
O O12 0.500000 0.855015 0.423654
O O13 0.675604 0.884569 0.436415
O O14 0.827367 0.846107 0.091085
O O15 0.822913 0.941345 0.086723
O O16 0.000000 0.834350 0.417492
O O17 0.900986 0.038018 0.750000
O O18 0.000000 0.041249 0.594972
#
# Coordination Sequence:
#
# PCOD9471393 Si02
#       7
#    16  16  16  16  16  16  16
#     4  10  19  36  56  71  98 142 182 221 267 309
#     4  10  19  36  56  71  98 142 182 221 267 309
#     4   9  19  36  58  84 111 139 169 201 253 329
#     4  11  23  38  54  74 104 143 189 228 257 304
#     4  12  21  34  53  80 110 139 170 218 268 306
#     4  11  21  32  49  78 108 134 169 215 265 318
#     4   9  19  36  58  84 111 139 169 201 253 329
#
# _framework density 19.821619999999999
#
# number of rings (size 3 to 8) (size 9 to 14) (size 15 to 20)
#    0.000    1.714    2.857    5.143    0.000    5.714 
#    0.000    0.000    0.000    1.714    0.000    2.000 
#    0.000    0.000    0.000    0.000    0.000    0.000 
#
# Total GULP energy -312752.749730 kJ/mol
# GULP energy per Si atom -5584.870531 kJ/mol
# Density = 1.977650 g / cm^3
# Si number density = 19.821620 Si / 1000 Ang^3
#
#
#
# Elastic Constant Matrix: (Units=GPa)
#
#
# Indices 1 2 3 4 5 6 
#
# 1 128.9184 24.3060 5.7884 0.0000 0.0000 0.0000
# 2 24.3060 43.7180 2.5965 0.0000 0.0000 0.0000
# 3 5.7884 2.5965 45.3956 0.0000 0.0000 0.0000
# 4 0.0000 0.0000 0.0000 3.6530 0.0000 0.0000
# 5 0.0000 0.0000 0.0000 0.0000 27.0040 0.0000
# 6 0.0000 0.0000 0.0000 0.0000 0.0000 22.9725
#
#
#
# Elastic Compliance Matrix: (Units=1/GPa)
#
#
# Indices 1 2 3 4 5 6 
#
# 1 0.008697 -0.004785 -0.000835 0.000000 0.000000 0.000000
# 2 -0.004785 0.025585 -0.000853 0.000000 0.000000 0.000000
# 3 -0.000835 -0.000853 0.022184 0.000000 0.000000 0.000000
# 4 0.000000 0.000000 0.000000 0.273748 0.000000 0.000000
# 5 0.000000 0.000000 0.000000 0.000000 0.037032 0.000000
# 6 0.000000 0.000000 0.000000 0.000000 0.000000 0.043530
#
#
# Mechanical properties :
#
#
# Convention : Reuss Voigt Hill
#
# Bulk Modulus (GPa) = 22.97907 31.49044 27.23476
# Shear Modulus (GPa) = 11.40955 23.08198 17.24576
#
# Velocity S-wave (km/s) = 2.40179 3.41616 2.95286
# Velocity P-wave (km/s) = 4.39427 5.61084 5.03940
#
# Compressibility (1/GPa) = 0.04351786
#
# Stress axis : x y z
#
# Youngs Moduli (GPa) = 114.98770 39.08524 45.07781
#
# Poissons Ratio (x) = 0.18704 0.03765
# Poissons Ratio (y) = 0.55027 0.03846
# Poissons Ratio (z) = 0.09604 0.03335
#
# Static dielectric constant tensor:
#      x y z
#    x 1.725860 0.000000 0.000000 
#    y 0.000000 1.688360 0.000000 
#    z 0.000000 0.000000 1.753520 
# 
# From -- ./inp_files/32755.got.cif
#   From: 2010.05.17/outbox.cif.g08.bks.cpg/sg63_17_cif.got.tgz:32755.got - 2010.06.03 15:47:04.
