data_PCOD9471064
_publ_section_title
;
Structure prediction by ZEFSAII (Michael W. Deem and Ramdas Pophale) SiO2 
 PCOD9471064
Probable space group: C M C M
;
_chemical_formula_sum "Si O2"
_cell_formula_units_Z 80
_cell_length_a 14.114182
_cell_length_b 14.323806
_cell_length_c 19.805474
_cell_angle_alpha 90.000000
_cell_angle_beta 90.000000
_cell_angle_gamma 90.000000
_cell_volume 4004.049007
_symmetry_space_group_name_H-M "C M C M"
_symmetry_group_IT_number 63
_symmetry_cell_setting 'orthorhombic'
loop_
_space_group_symop_operation_xyz
x,y,z
-x,-y,1/2+z
x,-y,-z
-x,y,1/2-z
-x,-y,-z
x,y,1/2-z
-x,y,z
x,-y,1/2+z
1/2+x,1/2+y,z
1/2-x,1/2-y,1/2+z
1/2+x,1/2-y,-z
1/2-x,1/2+y,1/2-z
1/2-x,1/2-y,-z
1/2+x,1/2+y,1/2-z
1/2-x,1/2+y,z
1/2+x,1/2-y,1/2+z
loop_
_atom_site_type_symbol
_atom_site_label
_atom_site_fract_x
_atom_site_fract_y
_atom_site_fract_z
Si Si1 0.718596 0.677823 0.905587
Si Si2 0.268109 0.128127 0.170395
Si Si3 0.394632 0.767891 0.018930
Si Si4 0.889243 0.989937 0.168748
Si Si5 0.105408 0.452438 0.935384
O O1 0.709980 0.769715 0.858543
O O2 0.665550 0.690272 0.978331
O O3 0.670782 0.590683 0.868589
O O4 0.830124 0.683547 0.924073
O O5 0.282512 0.126958 0.250000
O O6 0.336558 0.054953 0.132524
O O7 0.162724 0.088929 0.155032
O O8 0.500000 0.738926 0.040192
O O9 0.405302 0.847358 0.962073
O O10 0.884119 0.974932 0.250000
O O11 0.000000 0.988240 0.149283
O O12 0.000000 0.494115 0.926782
O O13 0.154410 0.500000 0.000000
#
# Coordination Sequence:
#
# PCOD9471064 Si02
#       5
#    16  16  16  16  16
#     4  10  19  34  56  78 109 147 186 229 279 337
#     4  10  21  35  53  81 113 145 187 236 284 335
#     4   9  18  31  50  78 107 139 182 229 277 333
#     4  10  21  37  56  78 107 145 187 229 276 334
#     4   9  17  31  52  76 105 142 181 224 278 336
#
# _framework density 19.979776000000001
#
# number of rings (size 3 to 8) (size 9 to 14) (size 15 to 20)
#    0.000    2.400    0.000    2.400    0.000    2.000 
#    0.000    0.000    0.000   15.600    0.000    0.000 
#    0.000    0.000    0.000    0.000    0.000    0.000 
#
# Total GULP energy -222695.409383 kJ/mol
# GULP energy per Si atom -5567.385235 kJ/mol
# Density = 1.993430 g / cm^3
# Si number density = 19.979776 Si / 1000 Ang^3
#
#
#
# Elastic Constant Matrix: (Units=GPa)
#
#
# Indices 1 2 3 4 5 6 
#
# 1 87.6077 -8.2821 29.2894 0.0000 0.0000 0.0000
# 2 -8.2821 37.7993 2.4658 0.0000 0.0000 0.0000
# 3 29.2894 2.4658 66.1996 0.0000 0.0000 0.0000
# 4 0.0000 0.0000 0.0000 7.1666 0.0000 0.0000
# 5 0.0000 0.0000 0.0000 0.0000 23.2304 0.0000
# 6 0.0000 0.0000 0.0000 0.0000 0.0000 21.8207
#
#
#
# Elastic Compliance Matrix: (Units=1/GPa)
#
#
# Indices 1 2 3 4 5 6 
#
# 1 0.013828 0.003437 -0.006246 0.000000 0.000000 0.000000
# 2 0.003437 0.027374 -0.002540 0.000000 0.000000 0.000000
# 3 -0.006246 -0.002540 0.017964 0.000000 0.000000 0.000000
# 4 0.000000 0.000000 0.000000 0.139537 0.000000 0.000000
# 5 0.000000 0.000000 0.000000 0.000000 0.043047 0.000000
# 6 0.000000 0.000000 0.000000 0.000000 0.000000 0.045828
#
#
# Mechanical properties :
#
#
# Convention : Reuss Voigt Hill
#
# Bulk Modulus (GPa) = 20.63233 26.50585 23.56909
# Shear Modulus (GPa) = 15.90171 21.65246 18.77708
#
# Velocity S-wave (km/s) = 2.82421 3.29556 3.06895
# Velocity P-wave (km/s) = 4.58082 5.27030 4.93761
#
# Compressibility (1/GPa) = 0.04846762
#
# Stress axis : x y z
#
# Youngs Moduli (GPa) = 72.31894 36.53059 55.66718
#
# Poissons Ratio (x) = -0.12556 0.34769
# Poissons Ratio (y) = -0.24857 0.14142
# Poissons Ratio (z) = 0.45170 0.09280
#
# Static dielectric constant tensor:
#      x y z
#    x 1.779520 0.000000 0.000000 
#    y 0.000000 1.766430 0.000000 
#    z 0.000000 0.000000 1.687620 
# 
# From -- ./inp_files/53973.got.cif
#   From: 2010.05.17/outbox.cif.g08.bks.cpg/sg63_27_cif.got.tgz:53973.got - 2010.06.03 15:47:04.
