data_PCOD9471849
_publ_section_title
;
Structure prediction by ZEFSAII (Michael W. Deem and Ramdas Pophale) SiO2 
 PCOD9471849
Probable space group: C M C M
;
_chemical_formula_sum "Si O2"
_cell_formula_units_Z 96
_cell_length_a 19.631510
_cell_length_b 33.408889
_cell_length_c 7.640075
_cell_angle_alpha 90.000000
_cell_angle_beta 90.000000
_cell_angle_gamma 90.000000
_cell_volume 5010.872600
_symmetry_space_group_name_H-M "C M C M"
_symmetry_group_IT_number 63
_symmetry_cell_setting 'orthorhombic'
loop_
_space_group_symop_operation_xyz
x,y,z
-x,-y,1/2+z
x,-y,-z
-x,y,1/2-z
-x,-y,-z
x,y,1/2-z
-x,y,z
x,-y,1/2+z
1/2+x,1/2+y,z
1/2-x,1/2-y,1/2+z
1/2+x,1/2-y,-z
1/2-x,1/2+y,1/2-z
1/2-x,1/2-y,-z
1/2+x,1/2+y,1/2-z
1/2-x,1/2+y,z
1/2+x,1/2-y,1/2+z
loop_
_atom_site_type_symbol
_atom_site_label
_atom_site_fract_x
_atom_site_fract_y
_atom_site_fract_z
Si Si1 0.160122 0.167356 0.537786
Si Si2 0.791560 0.954762 0.957163
Si Si3 0.792044 0.379601 0.957227
Si Si4 0.077857 0.243393 0.536734
Si Si5 0.075987 0.909745 0.458672
Si Si6 0.422732 0.165217 0.464207
O O1 0.159854 0.167235 0.750000
O O2 0.235421 0.154977 0.479928
O O3 0.130675 0.209760 0.477308
O O4 0.110212 0.131505 0.476134
O O5 0.789931 0.950459 0.750000
O O6 0.741953 0.920139 0.031693
O O7 0.868764 0.944272 0.010712
O O8 0.772662 0.000000 0.000000
O O9 0.801831 0.385900 0.750000
O O10 0.864094 0.364459 0.028076
O O11 0.078802 0.243123 0.750000
O O12 0.092133 0.288912 0.481870
O O13 0.000000 0.233272 0.485405
O O14 0.070527 0.905308 0.250000
O O15 0.000000 0.916607 0.528522
O O16 0.421899 0.165095 0.250000
O O17 0.500000 0.155316 0.517411
#
# Coordination Sequence:
#
# PCOD9471849 Si02
#       6
#    16  16  16  16  16  16
#     4   9  16  26  42  65  92 122 153 181 210 245
#     4  10  20  33  48  65  86 112 142 178 220 266
#     4   9  18  31  46  66  89 112 142 180 220 261
#     4   8  13  22  39  64  91 119 153 187 211 237
#     4   9  17  29  45  65  90 120 152 183 212 244
#     4   8  14  26  45  67  89 114 145 180 216 254
#
# _framework density 19.158341
#
# number of rings (size 3 to 8) (size 9 to 14) (size 15 to 20)
#    0.000    3.167    0.000    2.000    0.000    4.000 
#    0.000    0.000    0.000    2.500    0.000    2.333 
#    0.000    0.000    0.000    0.000    0.000    0.500 
#
# Total GULP energy -267559.901205 kJ/mol
# GULP energy per Si atom -5574.164608 kJ/mol
# Density = 1.911474 g / cm^3
# Si number density = 19.158341 Si / 1000 Ang^3
#
#
#
# Elastic Constant Matrix: (Units=GPa)
#
#
# Indices 1 2 3 4 5 6 
#
# 1 146.2768 96.0759 -0.5004 0.0000 0.0000 0.0000
# 2 96.0759 92.8459 -1.3826 0.0000 0.0000 0.0000
# 3 -0.5004 -1.3826 33.0508 0.0000 0.0000 0.0000
# 4 0.0000 0.0000 0.0000 -3.6602 0.0000 0.0000
# 5 0.0000 0.0000 0.0000 0.0000 9.2091 0.0000
# 6 0.0000 0.0000 0.0000 0.0000 0.0000 11.3465
#
#
#
# Elastic Compliance Matrix: (Units=1/GPa)
#
#
# Indices 1 2 3 4 5 6 
#
# 1 0.021353 -0.022105 -0.000601 0.000000 0.000000 0.000000
# 2 -0.022105 0.033660 0.001073 0.000000 0.000000 0.000000
# 3 -0.000601 0.001073 0.030292 0.000000 0.000000 0.000000
# 4 0.000000 0.000000 0.000000 -0.273208 0.000000 0.000000
# 5 0.000000 0.000000 0.000000 0.000000 0.108588 0.000000
# 6 0.000000 0.000000 0.000000 0.000000 0.000000 0.088133
#
#
# Mechanical properties :
#
#
# Convention : Reuss Voigt Hill
#
# Bulk Modulus (GPa) = 23.78685 51.17324 37.48005
# Shear Modulus (GPa) = 75.64697 15.24445 45.44571
#
# Velocity S-wave (km/s) = 6.29054 2.82389 4.87572
# Velocity P-wave (km/s) = 8.07490 6.11565 7.16258
#
# Compressibility (1/GPa) = 0.04204003
#
# Stress axis : x y z
#
# Youngs Moduli (GPa) = 46.83226 29.70873 33.01171
#
# Poissons Ratio (x) = 0.65670 0.01985
# Poissons Ratio (y) = 1.03521 -0.03543
# Poissons Ratio (z) = 0.02816 -0.03189
#
# Static dielectric constant tensor:
#      x y z
#    x 1.668950 0.000000 0.000000 
#    y 0.000000 1.625620 0.000000 
#    z 0.000000 0.000000 1.717980 
# 
# From -- ./inp_files/8662.got.cif
#   From: 2010.05.17/outbox.cif.g08.bks.cpg/sg63_5_cif.got.tgz:8662.got - 2010.06.03 15:47:04.
