data_PCOD9471829
_publ_section_title
;
Structure prediction by ZEFSAII (Michael W. Deem and Ramdas Pophale) SiO2 
 PCOD9471829
Probable space group: C M C M
;
_chemical_formula_sum "Si O2"
_cell_formula_units_Z 104
_cell_length_a 12.026515
_cell_length_b 26.822481
_cell_length_c 18.539377
_cell_angle_alpha 90.000000
_cell_angle_beta 90.000000
_cell_angle_gamma 90.000000
_cell_volume 5980.450217
_symmetry_space_group_name_H-M "C M C M"
_symmetry_group_IT_number 63
_symmetry_cell_setting 'orthorhombic'
loop_
_space_group_symop_operation_xyz
x,y,z
-x,-y,1/2+z
x,-y,-z
-x,y,1/2-z
-x,-y,-z
x,y,1/2-z
-x,y,z
x,-y,1/2+z
1/2+x,1/2+y,z
1/2-x,1/2-y,1/2+z
1/2+x,1/2-y,-z
1/2-x,1/2+y,1/2-z
1/2-x,1/2-y,-z
1/2+x,1/2+y,1/2-z
1/2-x,1/2+y,z
1/2+x,1/2-y,1/2+z
loop_
_atom_site_type_symbol
_atom_site_label
_atom_site_fract_x
_atom_site_fract_y
_atom_site_fract_z
Si Si1 0.253589 0.945319 0.535863
Si Si2 0.000000 0.647522 0.574057
Si Si3 0.132720 0.903174 0.831877
Si Si4 0.367128 0.284761 0.334864
Si Si5 0.748742 0.342271 0.462117
Si Si6 0.500000 0.942472 0.516860
Si Si7 0.791807 0.796852 0.886155
Si Si8 0.500000 0.765812 0.166303
O O1 0.179995 0.939619 0.607034
O O2 0.222617 0.900042 0.481446
O O3 0.382833 0.932972 0.555338
O O4 0.246405 0.000000 0.500000
O O5 0.117427 0.663847 0.540098
O O6 0.000000 0.588686 0.558053
O O7 0.000000 0.675178 0.650341
O O8 0.155356 0.919318 0.750000
O O9 0.187438 0.849193 0.846342
O O10 0.000000 0.897412 0.840321
O O11 0.339905 0.292355 0.250000
O O12 0.500000 0.287228 0.343202
O O13 0.307154 0.323989 0.388293
O O14 0.318401 0.231374 0.359921
O O15 0.707856 0.309328 0.529217
O O16 0.500000 0.000000 0.500000
O O17 0.892389 0.760019 0.867428
O O18 0.500000 0.755266 0.250000
#
# Coordination Sequence:
#
# PCOD9471829 Si02
#       8
#    16   8  16  16  16   8  16   8
#     4   9  19  37  60  83 106 139 179 228 274 328
#     4  10  20  32  54  85 106 137 184 228 267 315
#     4  10  20  35  55  81 112 141 178 225 276 321
#     4  11  24  38  53  77 115 151 181 220 271 325
#     4  10  22  35  57  81 107 142 185 227 268 325
#     4   8  16  36  59  79 108 140 174 222 278 322
#     4  11  22  35  57  78 110 151 184 224 265 323
#     4  12  22  32  54  82 112 145 185 226 268 317
#
# _framework density 17.389994999999999
#
# number of rings (size 3 to 8) (size 9 to 14) (size 15 to 20)
#    0.000    1.846    2.308    1.846    2.154    0.923 
#    1.385    1.154    0.000    7.385    0.000    0.000 
#    0.000    0.000    0.000    0.000    0.000    0.000 
#
# Total GULP energy -289730.603817 kJ/mol
# GULP energy per Si atom -5571.742381 kJ/mol
# Density = 1.735041 g / cm^3
# Si number density = 17.389995 Si / 1000 Ang^3
#
#
#
# Elastic Constant Matrix: (Units=GPa)
#
#
# Indices 1 2 3 4 5 6 
#
# 1 78.2488 38.5960 54.1414 0.0000 0.0000 0.0000
# 2 38.5960 101.2491 64.0755 0.0000 0.0000 0.0000
# 3 54.1414 64.0755 126.4723 0.0000 0.0000 0.0000
# 4 0.0000 0.0000 0.0000 15.2944 0.0000 0.0000
# 5 0.0000 0.0000 0.0000 0.0000 20.4706 0.0000
# 6 0.0000 0.0000 0.0000 0.0000 0.0000 28.0013
#
#
#
# Elastic Compliance Matrix: (Units=1/GPa)
#
#
# Indices 1 2 3 4 5 6 
#
# 1 0.018776 -0.003048 -0.006494 0.000000 0.000000 0.000000
# 2 -0.003048 0.015033 -0.006311 0.000000 0.000000 0.000000
# 3 -0.006494 -0.006311 0.013884 0.000000 0.000000 0.000000
# 4 0.000000 0.000000 0.000000 0.065383 0.000000 0.000000
# 5 0.000000 0.000000 0.000000 0.000000 0.048851 0.000000
# 6 0.000000 0.000000 0.000000 0.000000 0.000000 0.035713
#
#
# Mechanical properties :
#
#
# Convention : Reuss Voigt Hill
#
# Bulk Modulus (GPa) = 62.54978 68.84401 65.69690
# Shear Modulus (GPa) = 21.30612 22.69708 22.00160
#
# Velocity S-wave (km/s) = 3.50407 3.61665 3.56081
# Velocity P-wave (km/s) = 7.24005 7.55741 7.40043
#
# Compressibility (1/GPa) = 0.01598727
#
# Stress axis : x y z
#
# Youngs Moduli (GPa) = 53.25896 66.52214 72.02399
#
# Poissons Ratio (x) = 0.20275 0.46770
# Poissons Ratio (y) = 0.16233 0.45456
# Poissons Ratio (z) = 0.34585 0.41984
#
# Static dielectric constant tensor:
#      x y z
#    x 1.621570 0.000000 0.000000 
#    y 0.000000 1.597880 0.000000 
#    z 0.000000 0.000000 1.578660 
# 
# From -- ./inp_files/42831.got.cif
#   From: 2010.05.17/outbox.cif.g08.bks.cpg/sg63_22_cif.got.tgz:42831.got - 2010.06.03 15:47:04.
