data_PCOD9471496
_publ_section_title
;
Structure prediction by ZEFSAII (Michael W. Deem and Ramdas Pophale) SiO2 
 PCOD9471496
Probable space group: C M C M
;
_chemical_formula_sum "Si O2"
_cell_formula_units_Z 96
_cell_length_a 30.529634
_cell_length_b 8.977444
_cell_length_c 18.307352
_cell_angle_alpha 90.000000
_cell_angle_beta 90.000000
_cell_angle_gamma 90.000000
_cell_volume 5017.643878
_symmetry_space_group_name_H-M "C M C M"
_symmetry_group_IT_number 63
_symmetry_cell_setting 'orthorhombic'
loop_
_space_group_symop_operation_xyz
x,y,z
-x,-y,1/2+z
x,-y,-z
-x,y,1/2-z
-x,-y,-z
x,y,1/2-z
-x,y,z
x,-y,1/2+z
1/2+x,1/2+y,z
1/2-x,1/2-y,1/2+z
1/2+x,1/2-y,-z
1/2-x,1/2+y,1/2-z
1/2-x,1/2-y,-z
1/2+x,1/2+y,1/2-z
1/2-x,1/2+y,z
1/2+x,1/2-y,1/2+z
loop_
_atom_site_type_symbol
_atom_site_label
_atom_site_fract_x
_atom_site_fract_y
_atom_site_fract_z
Si Si1 0.449721 0.422867 0.420503
Si Si2 0.785833 0.761897 0.665933
Si Si3 0.868977 0.389145 0.393517
Si Si4 0.950097 0.220820 0.337003
Si Si5 0.866811 0.278959 0.939650
Si Si6 0.715937 0.566191 0.919418
O O1 0.448732 0.500000 0.500000
O O2 0.500000 0.373987 0.406336
O O3 0.437775 0.555721 0.364932
O O4 0.413576 0.294697 0.421518
O O5 0.770905 0.757157 0.750000
O O6 0.833239 0.686888 0.657870
O O7 0.753791 0.671784 0.611945
O O8 0.788666 0.928934 0.635865
O O9 0.917049 0.341997 0.368048
O O10 0.863776 0.321425 0.474825
O O11 0.861735 0.565614 0.397355
O O12 0.949188 0.224167 0.250000
O O13 0.000000 0.246326 0.362654
O O14 0.828547 0.161424 0.923780
O O15 0.725941 0.500000 0.000000
#
# Coordination Sequence:
#
# PCOD9471496 Si02
#       6
#    16  16  16  16  16  16
#     4  10  19  36  62  92 122 157 204 257 303 357
#     4  12  26  43  65  93 126 161 207 261 311 368
#     4  11  23  39  61  91 128 161 204 256 309 365
#     4  10  21  39  62  88 123 167 208 249 309 374
#     4  11  23  38  62  94 123 160 207 256 304 371
#     4  12  24  43  68  93 123 165 209 251 312 375
#
# _framework density 19.132486
#
# number of rings (size 3 to 8) (size 9 to 14) (size 15 to 20)
#    0.000    1.000    3.333    4.000    2.333    0.667 
#    0.000    6.667    0.000    2.000    0.000    0.000 
#    0.000    0.000    0.000    0.000    0.000    0.000 
#
# Total GULP energy -268370.442570 kJ/mol
# GULP energy per Si atom -5591.050887 kJ/mol
# Density = 1.908894 g / cm^3
# Si number density = 19.132486 Si / 1000 Ang^3
#
#
#
# Elastic Constant Matrix: (Units=GPa)
#
#
# Indices 1 2 3 4 5 6 
#
# 1 81.1258 58.0403 28.6686 0.0000 0.0000 0.0000
# 2 58.0403 128.7887 41.9689 0.0000 0.0000 0.0000
# 3 28.6686 41.9689 64.0378 0.0000 0.0000 0.0000
# 4 0.0000 0.0000 0.0000 10.0595 0.0000 0.0000
# 5 0.0000 0.0000 0.0000 0.0000 -1.4809 0.0000
# 6 0.0000 0.0000 0.0000 0.0000 0.0000 32.5666
#
#
#
# Elastic Compliance Matrix: (Units=1/GPa)
#
#
# Indices 1 2 3 4 5 6 
#
# 1 0.018840 -0.007301 -0.003649 0.000000 0.000000 0.000000
# 2 -0.007301 0.012703 -0.005057 0.000000 0.000000 0.000000
# 3 -0.003649 -0.005057 0.020563 0.000000 0.000000 0.000000
# 4 0.000000 0.000000 0.000000 0.099409 0.000000 0.000000
# 5 0.000000 0.000000 0.000000 0.000000 -0.675274 0.000000
# 6 0.000000 0.000000 0.000000 0.000000 0.000000 0.030706
#
#
# Mechanical properties :
#
#
# Convention : Reuss Voigt Hill
#
# Bulk Modulus (GPa) = 49.77078 59.03420 54.40249
# Shear Modulus (GPa) = -11.00493 17.91400 3.45453
#
# Velocity S-wave (km/s) = -2.40093 3.06324 1.34518
# Velocity P-wave (km/s) = 4.28769 6.59043 5.55959
#
# Compressibility (1/GPa) = 0.02009211
#
# Stress axis : x y z
#
# Youngs Moduli (GPa) = 53.07972 78.72281 48.63021
#
# Poissons Ratio (x) = 0.57477 0.17746
# Poissons Ratio (y) = 0.38754 0.24590
# Poissons Ratio (z) = 0.19370 0.39806
#
# Static dielectric constant tensor:
#      x y z
#    x 1.669290 0.000000 0.000000 
#    y 0.000000 1.642000 0.000000 
#    z 0.000000 0.000000 1.651520 
# 
# From -- ./inp_files/58112.got.cif
#   From: 2010.05.17/outbox.cif.g08.bks.cpg/sg63_30_cif.got.tgz:58112.got - 2010.06.03 15:47:04.
