data_PCOD9471929
_publ_section_title
;
Structure prediction by ZEFSAII (Michael W. Deem and Ramdas Pophale) SiO2 
 PCOD9471929
Probable space group: C M C M
;
_chemical_formula_sum "Si O2"
_cell_formula_units_Z 96
_cell_length_a 8.973870
_cell_length_b 25.733055
_cell_length_c 25.364206
_cell_angle_alpha 90.000000
_cell_angle_beta 90.000000
_cell_angle_gamma 90.000000
_cell_volume 5857.231560
_symmetry_space_group_name_H-M "C M C M"
_symmetry_group_IT_number 63
_symmetry_cell_setting 'orthorhombic'
loop_
_space_group_symop_operation_xyz
x,y,z
-x,-y,1/2+z
x,-y,-z
-x,y,1/2-z
-x,-y,-z
x,y,1/2-z
-x,y,z
x,-y,1/2+z
1/2+x,1/2+y,z
1/2-x,1/2-y,1/2+z
1/2+x,1/2-y,-z
1/2-x,1/2+y,1/2-z
1/2-x,1/2-y,-z
1/2+x,1/2+y,1/2-z
1/2-x,1/2+y,z
1/2+x,1/2-y,1/2+z
loop_
_atom_site_type_symbol
_atom_site_label
_atom_site_fract_x
_atom_site_fract_y
_atom_site_fract_z
Si Si1 0.676591 0.861898 0.686928
Si Si2 0.171595 0.246259 0.185996
Si Si3 0.679391 0.939342 0.387929
Si Si4 0.670150 0.937175 0.505446
Si Si5 0.822875 0.946523 0.612609
Si Si6 0.177278 0.145347 0.812874
O O1 0.698849 0.867246 0.750000
O O2 0.500000 0.863144 0.676781
O O3 0.744693 0.806377 0.670136
O O4 0.757663 0.907854 0.656123
O O5 0.170833 0.246072 0.250000
O O6 0.256058 0.298862 0.170523
O O7 0.000000 0.246506 0.168208
O O8 0.500000 0.943650 0.385166
O O9 0.716433 0.919198 0.447185
O O10 0.742481 0.900058 0.344925
O O11 0.750261 0.996392 0.381278
O O12 0.500000 0.920499 0.516561
O O13 0.774066 0.925646 0.554869
O O14 0.667525 0.000000 0.500000
O O15 0.000000 0.950406 0.616213
O O16 0.203338 0.139307 0.750000
O O17 0.000000 0.144081 0.821593
#
# Coordination Sequence:
#
# PCOD9471929 Si02
#       6
#    16  16  16  16  16  16
#     4  10  20  34  52  73  99 132 167 203 244 290
#     4   9  17  31  51  73  97 127 165 205 242 286
#     4  10  20  34  52  73  99 132 167 204 246 291
#     4   8  16  32  51  70  94 126 165 204 241 287
#     4  11  21  32  50  75 102 131 163 202 247 295
#     4  10  20  33  50  74 103 133 165 202 244 291
#
# _framework density 16.389994999999999
#
# number of rings (size 3 to 8) (size 9 to 14) (size 15 to 20)
#    0.000    2.333    0.000    4.500    0.000    8.333 
#    0.000    0.000    0.000    1.000    0.000    0.000 
#    0.000    0.000    0.000    0.000    0.000    0.000 
#
# Total GULP energy -267662.613573 kJ/mol
# GULP energy per Si atom -5576.304449 kJ/mol
# Density = 1.635269 g / cm^3
# Si number density = 16.389995 Si / 1000 Ang^3
#
#
#
# Elastic Constant Matrix: (Units=GPa)
#
#
# Indices 1 2 3 4 5 6 
#
# 1 131.3405 73.3144 67.6988 0.0000 0.0000 0.0000
# 2 73.3144 110.9468 57.1017 0.0000 0.0000 0.0000
# 3 67.6988 57.1017 65.4901 0.0000 0.0000 0.0000
# 4 0.0000 0.0000 0.0000 -5.8847 0.0000 0.0000
# 5 0.0000 0.0000 0.0000 0.0000 22.4798 0.0000
# 6 0.0000 0.0000 0.0000 0.0000 0.0000 31.7896
#
#
#
# Elastic Compliance Matrix: (Units=1/GPa)
#
#
# Indices 1 2 3 4 5 6 
#
# 1 0.017235 -0.004026 -0.014306 0.000000 0.000000 0.000000
# 2 -0.004026 0.017291 -0.010915 0.000000 0.000000 0.000000
# 3 -0.014306 -0.010915 0.039574 0.000000 0.000000 0.000000
# 4 0.000000 0.000000 0.000000 -0.169931 0.000000 0.000000
# 5 0.000000 0.000000 0.000000 0.000000 0.044484 0.000000
# 6 0.000000 0.000000 0.000000 0.000000 0.000000 0.031457
#
#
# Mechanical properties :
#
#
# Convention : Reuss Voigt Hill
#
# Bulk Modulus (GPa) = 64.07157 78.22303 71.14730
# Shear Modulus (GPa) = 114.13853 16.98777 65.56315
#
# Velocity S-wave (km/s) = 8.35406 3.22292 6.33157
# Velocity P-wave (km/s) = 11.49915 7.85362 9.84657
#
# Compressibility (1/GPa) = 0.01560755
#
# Stress axis : x y z
#
# Youngs Moduli (GPa) = 58.02109 57.83244 25.26884
#
# Poissons Ratio (x) = 0.23284 0.36149
# Poissons Ratio (y) = 0.23360 0.27580
# Poissons Ratio (z) = 0.83004 0.63122
#
# Static dielectric constant tensor:
#      x y z
#    x 1.545680 0.000000 0.000000 
#    y 0.000000 1.524770 0.000000 
#    z 0.000000 0.000000 1.556160 
# 
# From -- ./inp_files/59897.got.cif
#   From: 2010.05.17/outbox.cif.g08.bks.cpg/sg63_30_cif.got.tgz:59897.got - 2010.06.03 15:47:04.
