data_PCOD9471389
_publ_section_title
;
Structure prediction by ZEFSAII (Michael W. Deem and Ramdas Pophale) SiO2 
 PCOD9471389
Probable space group: C M C M
;
_chemical_formula_sum "Si O2"
_cell_formula_units_Z 116
_cell_length_a 7.767062
_cell_length_b 25.649315
_cell_length_c 31.031464
_cell_angle_alpha 90.000000
_cell_angle_beta 90.000000
_cell_angle_gamma 90.000000
_cell_volume 6182.082668
_symmetry_space_group_name_H-M "C M C M"
_symmetry_group_IT_number 63
_symmetry_cell_setting 'orthorhombic'
loop_
_space_group_symop_operation_xyz
x,y,z
-x,-y,1/2+z
x,-y,-z
-x,y,1/2-z
-x,-y,-z
x,y,1/2-z
-x,y,z
x,-y,1/2+z
1/2+x,1/2+y,z
1/2-x,1/2-y,1/2+z
1/2+x,1/2-y,-z
1/2-x,1/2+y,1/2-z
1/2-x,1/2-y,-z
1/2+x,1/2+y,1/2-z
1/2-x,1/2+y,z
1/2+x,1/2-y,1/2+z
loop_
_atom_site_type_symbol
_atom_site_label
_atom_site_fract_x
_atom_site_fract_y
_atom_site_fract_z
Si Si1 0.300165 0.327798 0.544792
Si Si2 0.789178 0.130906 0.547511
Si Si3 0.000000 0.767436 0.250000
Si Si4 0.699250 0.731624 0.596359
Si Si5 0.193330 0.765819 0.688448
Si Si6 0.703534 0.082125 0.109432
Si Si7 0.290840 0.113617 0.297652
Si Si8 0.291631 0.513627 0.548820
O O1 0.500000 0.314925 0.538276
O O2 0.234141 0.353690 0.500815
O O3 0.209715 0.274855 0.558953
O O4 0.285692 0.370683 0.582485
O O5 0.732270 0.176531 0.579374
O O6 0.734371 0.072475 0.558720
O O7 0.000000 0.130763 0.547342
O O8 0.846704 0.763307 0.287012
O O9 0.500000 0.724755 0.607946
O O10 0.792971 0.754202 0.637830
O O11 0.226407 0.827195 0.696874
O O12 0.000000 0.752505 0.702308
O O13 0.500000 0.092779 0.109811
O O14 0.762646 0.082658 0.159323
O O15 0.734654 0.029060 0.083398
O O16 0.236523 0.094496 0.250000
O O17 0.500000 0.115656 0.297208
O O18 0.235100 0.500000 0.500000
O O19 0.500000 0.512408 0.548406
#
# Coordination Sequence:
#
# PCOD9471389 Si02
#       8
#    16  16   4  16  16  16  16  16
#     4  11  20  34  54  80 113 155 198 235 284 352
#     4   9  20  36  56  78 109 157 200 241 293 347
#     4  12  22  40  56  86 120 156 186 244 296 342
#     4  11  21  36  53  81 120 155 194 240 295 352
#     4  12  22  35  58  86 117 154 195 234 290 359
#     4  11  22  33  53  84 114 147 187 240 298 343
#     4  10  19  36  55  79 115 153 186 232 297 355
#     4  10  19  37  59  78 106 149 197 240 286 345
#
# _framework density 18.763904
#
# number of rings (size 3 to 8) (size 9 to 14) (size 15 to 20)
#    0.000    1.379    4.828    1.862    0.000    0.828 
#    0.000    3.448    0.000    0.000    1.793    0.000 
#    0.000    0.000    0.000    0.000    0.000    0.138 
#
# Total GULP energy -323343.337591 kJ/mol
# GULP energy per Si atom -5574.885131 kJ/mol
# Density = 1.872120 g / cm^3
# Si number density = 18.763904 Si / 1000 Ang^3
#
#
#
# Elastic Constant Matrix: (Units=GPa)
#
#
# Indices 1 2 3 4 5 6 
#
# 1 63.6224 -4.0460 9.2280 0.0000 0.0000 0.0000
# 2 -4.0460 89.8011 33.4807 0.0000 0.0000 0.0000
# 3 9.2280 33.4807 114.0927 0.0000 0.0000 0.0000
# 4 0.0000 0.0000 0.0000 -15.4824 0.0000 0.0000
# 5 0.0000 0.0000 0.0000 0.0000 9.3808 0.0000
# 6 0.0000 0.0000 0.0000 0.0000 0.0000 -3.3101
#
#
#
# Elastic Compliance Matrix: (Units=1/GPa)
#
#
# Indices 1 2 3 4 5 6 
#
# 1 0.016050 0.001355 -0.001696 0.000000 0.000000 0.000000
# 2 0.001355 0.012618 -0.003812 0.000000 0.000000 0.000000
# 3 -0.001696 -0.003812 0.010021 0.000000 0.000000 0.000000
# 4 0.000000 0.000000 0.000000 -0.064589 0.000000 0.000000
# 5 0.000000 0.000000 0.000000 0.000000 0.106601 0.000000
# 6 0.000000 0.000000 0.000000 0.000000 0.000000 -0.302103
#
#
# Mechanical properties :
#
#
# Convention : Reuss Voigt Hill
#
# Bulk Modulus (GPa) = 32.91317 38.31575 35.61446
# Shear Modulus (GPa) = -24.63433 13.37454 -5.62990
#
# Velocity S-wave (km/s) = -3.62727 2.67269 -1.73404
# Velocity P-wave (km/s) = 0.18973 5.47619 3.87457
#
# Compressibility (1/GPa) = 0.03038297
#
# Stress axis : x y z
#
# Youngs Moduli (GPa) = 62.30560 79.25060 99.79301
#
# Poissons Ratio (x) = -0.10742 0.16924
# Poissons Ratio (y) = -0.08445 0.38046
# Poissons Ratio (z) = 0.10566 0.30214
#
# Static dielectric constant tensor:
#      x y z
#    x 1.692820 0.000000 0.000000 
#    y 0.000000 1.620910 0.000000 
#    z 0.000000 0.000000 1.696300 
# 
# From -- ./inp_files/72216.got.cif
#   From: 2010.05.17/outbox.cif.g08.bks.cpg/sg63_37_cif.got.tgz:72216.got - 2010.06.03 15:47:04.
