data_PCOD9471778
_publ_section_title
;
Structure prediction by ZEFSAII (Michael W. Deem and Ramdas Pophale) SiO2 
 PCOD9471778
Probable space group: C M C M
;
_chemical_formula_sum "Si O2"
_cell_formula_units_Z 80
_cell_length_a 18.600998
_cell_length_b 27.856305
_cell_length_c 8.836757
_cell_angle_alpha 90.000000
_cell_angle_beta 90.000000
_cell_angle_gamma 90.000000
_cell_volume 4578.810474
_symmetry_space_group_name_H-M "C M C M"
_symmetry_group_IT_number 63
_symmetry_cell_setting 'orthorhombic'
loop_
_space_group_symop_operation_xyz
x,y,z
-x,-y,1/2+z
x,-y,-z
-x,y,1/2-z
-x,-y,-z
x,y,1/2-z
-x,y,z
x,-y,1/2+z
1/2+x,1/2+y,z
1/2-x,1/2-y,1/2+z
1/2+x,1/2-y,-z
1/2-x,1/2+y,1/2-z
1/2-x,1/2-y,-z
1/2+x,1/2+y,1/2-z
1/2-x,1/2+y,z
1/2+x,1/2-y,1/2+z
loop_
_atom_site_type_symbol
_atom_site_label
_atom_site_fract_x
_atom_site_fract_y
_atom_site_fract_z
Si Si1 0.419297 0.289872 0.432343
Si Si2 0.714940 0.352975 0.432787
Si Si3 0.867120 0.308966 0.070016
Si Si4 0.727359 0.950036 0.570241
Si Si5 0.419258 0.084337 0.931363
O O1 0.418745 0.290477 0.250000
O O2 0.500000 0.301602 0.484453
O O3 0.357976 0.327090 0.482562
O O4 0.398285 0.236721 0.485851
O O5 0.715117 0.358510 0.250000
O O6 0.784053 0.319815 0.470366
O O7 0.729268 0.404482 0.506260
O O8 0.871249 0.300383 0.250000
O O9 0.908911 0.358681 0.038960
O O10 0.730859 0.951410 0.750000
O O11 0.644833 0.941950 0.517065
O O12 0.753072 0.000000 0.500000
O O13 0.409633 0.077744 0.750000
O O14 0.500000 0.069517 0.972713
#
# Coordination Sequence:
#
# PCOD9471778 Si02
#       5
#    16  16  16  16  16
#     4  10  20  32  49  75 105 135 166 205 252 297
#     4   9  19  36  53  71 100 134 169 208 249 296
#     4   9  17  30  49  72 101 139 174 202 237 284
#     4  11  22  36  55  76  97 125 165 210 256 303
#     4   9  18  33  51  73 105 141 173 206 245 288
#
# _framework density 17.471786999999999
#
# number of rings (size 3 to 8) (size 9 to 14) (size 15 to 20)
#    0.000    2.400    0.000    4.200    0.000    6.000 
#    0.000    0.000    0.000    0.600    0.000    0.000 
#    0.000    0.000    0.000    0.000    0.000    0.000 
#
# Total GULP energy -223272.872923 kJ/mol
# GULP energy per Si atom -5581.821823 kJ/mol
# Density = 1.743202 g / cm^3
# Si number density = 17.471787 Si / 1000 Ang^3
#
#
#
# Elastic Constant Matrix: (Units=GPa)
#
#
# Indices 1 2 3 4 5 6 
#
# 1 81.0909 26.6116 16.9747 0.0000 0.0000 0.0000
# 2 26.6116 59.5711 17.3405 0.0000 0.0000 0.0000
# 3 16.9747 17.3405 26.2752 0.0000 0.0000 0.0000
# 4 0.0000 0.0000 0.0000 30.8964 0.0000 0.0000
# 5 0.0000 0.0000 0.0000 0.0000 16.9899 0.0000
# 6 0.0000 0.0000 0.0000 0.0000 0.0000 2.5345
#
#
#
# Elastic Compliance Matrix: (Units=1/GPa)
#
#
# Indices 1 2 3 4 5 6 
#
# 1 0.015340 -0.004911 -0.006669 0.000000 0.000000 0.000000
# 2 -0.004911 0.022351 -0.011578 0.000000 0.000000 0.000000
# 3 -0.006669 -0.011578 0.050008 0.000000 0.000000 0.000000
# 4 0.000000 0.000000 0.000000 0.032366 0.000000 0.000000
# 5 0.000000 0.000000 0.000000 0.000000 0.058858 0.000000
# 6 0.000000 0.000000 0.000000 0.000000 0.000000 0.394557
#
#
# Mechanical properties :
#
#
# Convention : Reuss Voigt Hill
#
# Bulk Modulus (GPa) = 24.16466 32.08787 28.12626
# Shear Modulus (GPa) = 7.89154 17.15152 12.52153
#
# Velocity S-wave (km/s) = 2.12757 3.13656 2.67998
# Velocity P-wave (km/s) = 4.46050 5.61451 5.07045
#
# Compressibility (1/GPa) = 0.04138275
#
# Stress axis : x y z
#
# Youngs Moduli (GPa) = 65.19108 44.74113 19.99689
#
# Poissons Ratio (x) = 0.21974 0.13335
# Poissons Ratio (y) = 0.32017 0.23152
# Poissons Ratio (z) = 0.43474 0.51800
#
# Static dielectric constant tensor:
#      x y z
#    x 1.605840 0.000000 0.000000 
#    y 0.000000 1.574350 0.000000 
#    z 0.000000 0.000000 1.583390 
# 
# From -- ./inp_files/6389.got.cif
#   From: 2010.05.17/outbox.cif.g08.bks.cpg/sg63_4_cif.got.tgz:6389.got - 2010.06.03 15:47:04.
