data_PCOD9471223
_publ_section_title
;
Structure prediction by ZEFSAII (Michael W. Deem and Ramdas Pophale) SiO2 
 PCOD9471223
Probable space group: C M C M
;
_chemical_formula_sum "Si O2"
_cell_formula_units_Z 96
_cell_length_a 23.569029
_cell_length_b 13.102076
_cell_length_c 17.715873
_cell_angle_alpha 90.000000
_cell_angle_beta 90.000000
_cell_angle_gamma 90.000000
_cell_volume 5470.718436
_symmetry_space_group_name_H-M "C M C M"
_symmetry_group_IT_number 63
_symmetry_cell_setting 'orthorhombic'
loop_
_space_group_symop_operation_xyz
x,y,z
-x,-y,1/2+z
x,-y,-z
-x,y,1/2-z
-x,-y,-z
x,y,1/2-z
-x,y,z
x,-y,1/2+z
1/2+x,1/2+y,z
1/2-x,1/2-y,1/2+z
1/2+x,1/2-y,-z
1/2-x,1/2+y,1/2-z
1/2-x,1/2-y,-z
1/2+x,1/2+y,1/2-z
1/2-x,1/2+y,z
1/2+x,1/2-y,1/2+z
loop_
_atom_site_type_symbol
_atom_site_label
_atom_site_fract_x
_atom_site_fract_y
_atom_site_fract_z
Si Si1 0.282040 0.479574 0.164790
Si Si2 0.175112 0.169769 0.426740
Si Si3 0.435744 0.978217 0.335941
Si Si4 0.673310 0.042818 0.083674
Si Si5 0.565242 0.267620 0.662893
Si Si6 0.209776 0.776900 0.405977
O O1 0.289853 0.514861 0.250000
O O2 0.310800 0.559810 0.108286
O O3 0.216037 0.486732 0.140986
O O4 0.302934 0.363771 0.154752
O O5 0.112926 0.197930 0.396469
O O6 0.188600 0.172627 0.515677
O O7 0.222923 0.251454 0.399741
O O8 0.421272 0.009747 0.250000
O O9 0.500000 0.011213 0.351938
O O10 0.390621 0.019148 0.394355
O O11 0.434623 0.855375 0.337631
O O12 0.683455 0.163806 0.093065
O O13 0.686046 0.000000 0.000000
O O14 0.578764 0.299232 0.750000
O O15 0.500000 0.300211 0.646534
#
# Coordination Sequence:
#
# PCOD9471223 Si02
#       6
#    16  16  16  16  16  16
#     4  11  22  34  52  77 103 135 173 212 259 313
#     4  10  19  35  54  74 103 139 171 210 262 311
#     4   9  18  32  50  74 105 138 171 211 257 305
#     4  11  21  34  52  77 105 137 174 212 257 310
#     4   9  17  30  52  81 107 135 177 224 263 301
#     4  10  21  34  52  77 107 136 168 213 261 313
#
# _framework density 17.547969999999999
#
# number of rings (size 3 to 8) (size 9 to 14) (size 15 to 20)
#    0.000    2.000    0.000    7.500    0.000    5.667 
#    0.000    0.833    0.000    3.000    0.000    2.333 
#    0.000    0.000    0.000    0.000    0.000    0.000 
#
# Total GULP energy -267472.235553 kJ/mol
# GULP energy per Si atom -5572.338241 kJ/mol
# Density = 1.750803 g / cm^3
# Si number density = 17.547970 Si / 1000 Ang^3
#
#
#
# Elastic Constant Matrix: (Units=GPa)
#
#
# Indices 1 2 3 4 5 6 
#
# 1 91.8659 17.6589 28.5147 0.0000 0.0000 0.0000
# 2 17.6589 76.8598 29.7468 0.0000 0.0000 0.0000
# 3 28.5147 29.7468 34.2274 0.0000 0.0000 0.0000
# 4 0.0000 0.0000 0.0000 15.4739 0.0000 0.0000
# 5 0.0000 0.0000 0.0000 0.0000 23.1019 0.0000
# 6 0.0000 0.0000 0.0000 0.0000 0.0000 10.6619
#
#
#
# Elastic Compliance Matrix: (Units=1/GPa)
#
#
# Indices 1 2 3 4 5 6 
#
# 1 0.014900 0.002081 -0.014221 0.000000 0.000000 0.000000
# 2 0.002081 0.019896 -0.019025 0.000000 0.000000 0.000000
# 3 -0.014221 -0.019025 0.057598 0.000000 0.000000 0.000000
# 4 0.000000 0.000000 0.000000 0.064625 0.000000 0.000000
# 5 0.000000 0.000000 0.000000 0.000000 0.043286 0.000000
# 6 0.000000 0.000000 0.000000 0.000000 0.000000 0.093792
#
#
# Mechanical properties :
#
#
# Convention : Reuss Voigt Hill
#
# Bulk Modulus (GPa) = 33.26314 39.42154 36.34234
# Shear Modulus (GPa) = 13.64447 18.31638 15.98043
#
# Velocity S-wave (km/s) = 2.79149 3.23428 3.02101
# Velocity P-wave (km/s) = 5.42094 6.03831 5.73793
#
# Compressibility (1/GPa) = 0.03006331
#
# Stress axis : x y z
#
# Youngs Moduli (GPa) = 67.11561 50.26208 17.36161
#
# Poissons Ratio (x) = -0.10458 0.24690
# Poissons Ratio (y) = -0.13965 0.33030
# Poissons Ratio (z) = 0.95447 0.95622
#
# Static dielectric constant tensor:
#      x y z
#    x 1.606570 0.000000 0.000000 
#    y 0.000000 1.605550 0.000000 
#    z 0.000000 0.000000 1.634070 
# 
# From -- ./inp_files/48054.got.cif
#   From: 2010.05.17/outbox.cif.g08.bks.cpg/sg63_25_cif.got.tgz:48054.got - 2010.06.03 15:47:04.
