data_PCOD9471103
_publ_section_title
;
Structure prediction by ZEFSAII (Michael W. Deem and Ramdas Pophale) SiO2 
 PCOD9471103
Probable space group: C M C M
;
_chemical_formula_sum "Si O2"
_cell_formula_units_Z 116
_cell_length_a 7.583587
_cell_length_b 24.251623
_cell_length_c 27.994407
_cell_angle_alpha 90.000000
_cell_angle_beta 90.000000
_cell_angle_gamma 90.000000
_cell_volume 5148.571569
_symmetry_space_group_name_H-M "C M C M"
_symmetry_group_IT_number 63
_symmetry_cell_setting 'orthorhombic'
loop_
_space_group_symop_operation_xyz
x,y,z
-x,-y,1/2+z
x,-y,-z
-x,y,1/2-z
-x,-y,-z
x,y,1/2-z
-x,y,z
x,-y,1/2+z
1/2+x,1/2+y,z
1/2-x,1/2-y,1/2+z
1/2+x,1/2-y,-z
1/2-x,1/2+y,1/2-z
1/2-x,1/2-y,-z
1/2+x,1/2+y,1/2-z
1/2-x,1/2+y,z
1/2+x,1/2-y,1/2+z
loop_
_atom_site_type_symbol
_atom_site_label
_atom_site_fract_x
_atom_site_fract_y
_atom_site_fract_z
Si Si1 0.698770 0.989523 0.600496
Si Si2 0.285153 0.572589 0.197258
Si Si3 0.297801 0.195624 0.530001
Si Si4 0.796513 0.119281 0.448274
Si Si5 0.500000 0.448947 0.250000
Si Si6 0.283869 0.921558 0.331457
Si Si7 0.285451 0.319391 0.647284
Si Si8 0.215303 0.302773 0.363362
O O1 0.500000 0.994748 0.583308
O O2 0.707371 0.959547 0.652413
O O3 0.785464 0.945332 0.565022
O O4 0.759824 0.049881 0.617030
O O5 0.227506 0.556391 0.250000
O O6 0.500000 0.566744 0.195438
O O7 0.241015 0.636468 0.187662
O O8 0.500000 0.203861 0.540896
O O9 0.250000 0.250000 0.500000
O O10 0.281141 0.141619 0.497251
O O11 0.214984 0.191924 0.582305
O O12 0.722702 0.154229 0.403169
O O13 0.000000 0.134378 0.451530
O O14 0.656503 0.446772 0.291659
O O15 0.500000 0.927811 0.324392
O O16 0.238272 0.856941 0.333974
O O17 0.500000 0.319010 0.644777
O O18 0.226157 0.257179 0.654605
O O19 0.000000 0.302605 0.362358
#
# Coordination Sequence:
#
# PCOD9471103 Si02
#       8
#    16  16  16  16   4  16  16  16
#     4  10  21  36  57  83 116 152 197 252 309 364
#     4   9  18  30  51  81 110 145 191 238 301 371
#     4  11  20  33  58  91 124 163 207 252 301 368
#     4  10  19  34  56  86 119 154 197 249 306 363
#     4  12  26  44  72  90 122 160 222 260 308 362
#     4  10  24  44  66  94 122 162 209 259 312 370
#     4   8  14  29  52  78 109 150 190 234 296 362
#     4   9  18  37  60  82 121 163 200 245 306 365
#
# _framework density 22.530521
#
# number of rings (size 3 to 8) (size 9 to 14) (size 15 to 20)
#    0.000    2.345    1.379    2.276    2.897    0.276 
#    3.724    0.690    1.517    4.138    0.000    0.000 
#    0.000    0.000    0.000    0.000    0.000    0.000 
#
# Total GULP energy -322943.987579 kJ/mol
# GULP energy per Si atom -5567.999786 kJ/mol
# Density = 2.247924 g / cm^3
# Si number density = 22.530521 Si / 1000 Ang^3
#
#
#
# Elastic Constant Matrix: (Units=GPa)
#
#
# Indices 1 2 3 4 5 6 
#
# 1 60.7547 6.9567 5.3468 0.0000 0.0000 0.0000
# 2 6.9567 94.7208 -7.3407 0.0000 0.0000 0.0000
# 3 5.3468 -7.3407 28.3455 0.0000 0.0000 0.0000
# 4 0.0000 0.0000 0.0000 10.8373 0.0000 0.0000
# 5 0.0000 0.0000 0.0000 0.0000 12.6058 0.0000
# 6 0.0000 0.0000 0.0000 0.0000 0.0000 12.9978
#
#
#
# Elastic Compliance Matrix: (Units=1/GPa)
#
#
# Indices 1 2 3 4 5 6 
#
# 1 0.016950 -0.001523 -0.003592 0.000000 0.000000 0.000000
# 2 -0.001523 0.010910 0.003113 0.000000 0.000000 0.000000
# 3 -0.003592 0.003113 0.036763 0.000000 0.000000 0.000000
# 4 0.000000 0.000000 0.000000 0.092274 0.000000 0.000000
# 5 0.000000 0.000000 0.000000 0.000000 0.079328 0.000000
# 6 0.000000 0.000000 0.000000 0.000000 0.000000 0.076936
#
#
# Mechanical properties :
#
#
# Convention : Reuss Voigt Hill
#
# Bulk Modulus (GPa) = 16.49650 21.52740 19.01195
# Shear Modulus (GPa) = 14.82042 19.21206 17.01624
#
# Velocity S-wave (km/s) = 2.56753 2.92329 2.75117
# Velocity P-wave (km/s) = 4.01589 4.57927 4.30680
#
# Compressibility (1/GPa) = 0.06061891
#
# Stress axis : x y z
#
# Youngs Moduli (GPa) = 58.99653 91.65519 27.20151
#
# Poissons Ratio (x) = 0.13961 0.09770
# Poissons Ratio (y) = 0.08987 -0.08467
# Poissons Ratio (z) = 0.21190 -0.28531
#
# Static dielectric constant tensor:
#      x y z
#    x 1.861820 0.000000 0.000000 
#    y 0.000000 1.741250 0.000000 
#    z 0.000000 0.000000 1.357200 
# 
# From -- ./inp_files/72110.got.cif
#   From: 2010.05.17/outbox.cif.g08.bks.cpg/sg63_37_cif.got.tgz:72110.got - 2010.06.03 15:47:04.
