data_PCOD9471537
_publ_section_title
;
Structure prediction by ZEFSAII (Michael W. Deem and Ramdas Pophale) SiO2 
 PCOD9471537
Probable space group: C M C M
;
_chemical_formula_sum "Si O2"
_cell_formula_units_Z 80
_cell_length_a 8.388003
_cell_length_b 25.203935
_cell_length_c 18.704114
_cell_angle_alpha 90.000000
_cell_angle_beta 90.000000
_cell_angle_gamma 90.000000
_cell_volume 3954.249504
_symmetry_space_group_name_H-M "C M C M"
_symmetry_group_IT_number 63
_symmetry_cell_setting 'orthorhombic'
loop_
_space_group_symop_operation_xyz
x,y,z
-x,-y,1/2+z
x,-y,-z
-x,y,1/2-z
-x,-y,-z
x,y,1/2-z
-x,y,z
x,-y,1/2+z
1/2+x,1/2+y,z
1/2-x,1/2-y,1/2+z
1/2+x,1/2-y,-z
1/2-x,1/2+y,1/2-z
1/2-x,1/2-y,-z
1/2+x,1/2+y,1/2-z
1/2-x,1/2+y,z
1/2+x,1/2-y,1/2+z
loop_
_atom_site_type_symbol
_atom_site_label
_atom_site_fract_x
_atom_site_fract_y
_atom_site_fract_z
Si Si1 0.805774 0.072834 0.669119
Si Si2 0.685734 0.145325 0.087177
Si Si3 0.311122 0.669332 0.932834
Si Si4 0.187831 0.240413 0.168414
Si Si5 0.192517 0.973931 0.923745
O O1 0.749483 0.081165 0.750000
O O2 0.756496 0.119387 0.615308
O O3 0.000000 0.074182 0.670117
O O4 0.759808 0.015980 0.636998
O O5 0.500000 0.150761 0.102683
O O6 0.781886 0.180284 0.144004
O O7 0.734862 0.083864 0.086047
O O8 0.723873 0.168279 0.008443
O O9 0.500000 0.663767 0.946714
O O10 0.278126 0.721423 0.886541
O O11 0.241165 0.249190 0.250000
O O12 0.000000 0.252106 0.163997
O O13 0.000000 0.968714 0.923394
O O14 0.236339 0.000000 0.000000
#
# Coordination Sequence:
#
# PCOD9471537 Si02
#       5
#    16  16  16  16  16
#     4   9  18  33  58  90 120 155 200 249 304 366
#     4  12  25  40  62  91 124 162 209 256 305 365
#     4  11  21  39  65  92 123 159 205 255 308 368
#     4  11  25  44  64  89 123 162 204 253 311 369
#     4  10  19  37  61  87 120 159 203 250 303 365
#
# _framework density 20.231397999999999
#
# number of rings (size 3 to 8) (size 9 to 14) (size 15 to 20)
#    0.000    1.400    2.000    4.200    0.000    3.600 
#    0.000    2.000    0.000    2.400    0.000    0.000 
#    0.000    0.000    0.000    0.000    0.000    0.000 
#
# Total GULP energy -223692.768713 kJ/mol
# GULP energy per Si atom -5592.319218 kJ/mol
# Density = 2.018535 g / cm^3
# Si number density = 20.231398 Si / 1000 Ang^3
#
#
#
# Elastic Constant Matrix: (Units=GPa)
#
#
# Indices 1 2 3 4 5 6 
#
# 1 19.8970 -6.4966 -2.1282 0.0000 0.0000 0.0000
# 2 -6.4966 82.3108 -1.5168 0.0000 0.0000 0.0000
# 3 -2.1282 -1.5168 45.1599 0.0000 0.0000 0.0000
# 4 0.0000 0.0000 0.0000 17.8863 0.0000 0.0000
# 5 0.0000 0.0000 0.0000 0.0000 17.5080 0.0000
# 6 0.0000 0.0000 0.0000 0.0000 0.0000 30.3552
#
#
#
# Elastic Compliance Matrix: (Units=1/GPa)
#
#
# Indices 1 2 3 4 5 6 
#
# 1 0.051888 0.004143 0.002584 0.000000 0.000000 0.000000
# 2 0.004143 0.012487 0.000615 0.000000 0.000000 0.000000
# 3 0.002584 0.000615 0.022286 0.000000 0.000000 0.000000
# 4 0.000000 0.000000 0.000000 0.055909 0.000000 0.000000
# 5 0.000000 0.000000 0.000000 0.000000 0.057117 0.000000
# 6 0.000000 0.000000 0.000000 0.000000 0.000000 0.032943
#
#
# Mechanical properties :
#
#
# Convention : Reuss Voigt Hill
#
# Bulk Modulus (GPa) = 9.86723 14.12050 11.99387
# Shear Modulus (GPa) = 19.86273 23.65052 21.75663
#
# Velocity S-wave (km/s) = 3.13673 3.42277 3.28287
# Velocity P-wave (km/s) = 4.24341 4.75554 4.50676
#
# Compressibility (1/GPa) = 0.10134555
#
# Stress axis : x y z
#
# Youngs Moduli (GPa) = 19.27231 80.08070 44.87126
#
# Poissons Ratio (x) = -0.33178 -0.11597
# Poissons Ratio (y) = -0.07985 -0.02758
# Poissons Ratio (z) = -0.04981 -0.04922
#
# Static dielectric constant tensor:
#      x y z
#    x 1.693750 0.000000 0.000000 
#    y 0.000000 1.705350 0.000000 
#    z 0.000000 0.000000 1.694850 
# 
# From -- ./inp_files/40530.got.cif
#   From: 2010.05.17/outbox.cif.g08.bks.cpg/sg63_21_cif.got.tgz:40530.got - 2010.06.03 15:47:04.
