data_PCOD9471676
_publ_section_title
;
Structure prediction by ZEFSAII (Michael W. Deem and Ramdas Pophale) SiO2 
 PCOD9471676
Probable space group: C M C M
;
_chemical_formula_sum "Si O2"
_cell_formula_units_Z 104
_cell_length_a 32.322569
_cell_length_b 21.270761
_cell_length_c 8.775909
_cell_angle_alpha 90.000000
_cell_angle_beta 90.000000
_cell_angle_gamma 90.000000
_cell_volume 6033.662453
_symmetry_space_group_name_H-M "C M C M"
_symmetry_group_IT_number 63
_symmetry_cell_setting 'orthorhombic'
loop_
_space_group_symop_operation_xyz
x,y,z
-x,-y,1/2+z
x,-y,-z
-x,y,1/2-z
-x,-y,-z
x,y,1/2-z
-x,y,z
x,-y,1/2+z
1/2+x,1/2+y,z
1/2-x,1/2-y,1/2+z
1/2+x,1/2-y,-z
1/2-x,1/2+y,1/2-z
1/2-x,1/2-y,-z
1/2+x,1/2+y,1/2-z
1/2-x,1/2+y,z
1/2+x,1/2-y,1/2+z
loop_
_atom_site_type_symbol
_atom_site_label
_atom_site_fract_x
_atom_site_fract_y
_atom_site_fract_z
Si Si1 0.690863 0.567201 0.068083
Si Si2 0.500000 0.932461 0.431790
Si Si3 0.454603 0.301804 0.432036
Si Si4 0.839799 0.683642 0.571313
Si Si5 0.788912 0.567998 0.068232
Si Si6 0.360963 0.318338 0.433427
Si Si7 0.436156 0.830533 0.428935
O O1 0.685452 0.567371 0.250000
O O2 0.739863 0.574496 0.035465
O O3 0.677868 0.500000 0.000000
O O4 0.665476 0.623679 0.994128
O O5 0.500000 0.937189 0.250000
O O6 0.460250 0.892165 0.477595
O O7 0.500000 0.000000 0.500000
O O8 0.454916 0.309903 0.250000
O O9 0.500000 0.325095 0.489082
O O10 0.409291 0.325821 0.486011
O O11 0.451483 0.228474 0.474689
O O12 0.829407 0.690663 0.750000
O O13 0.811785 0.629257 0.498344
O O14 0.841422 0.752807 0.494691
O O15 0.887336 0.661637 0.557690
O O16 0.794685 0.566080 0.250000
O O17 0.802242 0.500000 0.000000
O O18 0.360760 0.316201 0.250000
O O19 0.445523 0.817705 0.250000
#
# Coordination Sequence:
#
# PCOD9471676 Si02
#       7
#    16   8  16  16  16  16  16
#     4  10  21  38  59  81 106 138 175 215 262 320
#     4  10  20  32  44  62  90 126 169 212 255 302
#     4   9  17  30  51  77 103 132 167 206 252 305
#     4  10  20  34  53  78 107 138 177 224 268 312
#     4  10  21  37  56  77 103 139 180 220 267 320
#     4  10  20  34  54  82 112 141 175 217 265 314
#     4   9  18  32  48  67  94 129 168 212 259 303
#
# _framework density 17.236629000000001
#
# number of rings (size 3 to 8) (size 9 to 14) (size 15 to 20)
#    0.000    2.308    0.769    1.846    0.000    4.923 
#    0.000    1.538    0.000    0.462    0.000    0.000 
#    0.000    0.000    0.000    0.000    0.000    0.000 
#
# Total GULP energy -289793.351084 kJ/mol
# GULP energy per Si atom -5572.949059 kJ/mol
# Density = 1.719740 g / cm^3
# Si number density = 17.236629 Si / 1000 Ang^3
#
#
#
# Elastic Constant Matrix: (Units=GPa)
#
#
# Indices 1 2 3 4 5 6 
#
# 1 86.3176 75.3842 45.9111 0.0000 0.0000 0.0000
# 2 75.3842 136.2447 49.5261 0.0000 0.0000 0.0000
# 3 45.9111 49.5261 44.7939 0.0000 0.0000 0.0000
# 4 0.0000 0.0000 0.0000 33.5185 0.0000 0.0000
# 5 0.0000 0.0000 0.0000 0.0000 16.0214 0.0000
# 6 0.0000 0.0000 0.0000 0.0000 0.0000 110.3225
#
#
#
# Elastic Compliance Matrix: (Units=1/GPa)
#
#
# Indices 1 2 3 4 5 6 
#
# 1 0.031426 -0.009496 -0.021710 0.000000 0.000000 0.000000
# 2 -0.009496 0.015141 -0.007008 0.000000 0.000000 0.000000
# 3 -0.021710 -0.007008 0.052325 0.000000 0.000000 0.000000
# 4 0.000000 0.000000 0.000000 0.029834 0.000000 0.000000
# 5 0.000000 0.000000 0.000000 0.000000 0.062417 0.000000
# 6 0.000000 0.000000 0.000000 0.000000 0.000000 0.009064
#
#
# Mechanical properties :
#
#
# Convention : Reuss Voigt Hill
#
# Bulk Modulus (GPa) = 44.51771 67.66655 56.09213
# Shear Modulus (GPa) = 17.59797 38.40812 28.00304
#
# Velocity S-wave (km/s) = 3.19872 4.72559 4.03504
# Velocity P-wave (km/s) = 6.28696 8.31370 7.37033
#
# Compressibility (1/GPa) = 0.02246297
#
# Stress axis : x y z
#
# Youngs Moduli (GPa) = 31.82112 66.04413 19.11140
#
# Poissons Ratio (x) = 0.62715 0.41491
# Poissons Ratio (y) = 0.30217 0.13394
# Poissons Ratio (z) = 0.69085 0.46285
#
# Static dielectric constant tensor:
#      x y z
#    x 1.620650 0.000000 0.000000 
#    y 0.000000 1.542020 0.000000 
#    z 0.000000 0.000000 1.586820 
# 
# From -- ./inp_files/14500.got.cif
#   From: 2010.05.17/outbox.cif.g08.bks.cpg/sg63_8_cif.got.tgz:14500.got - 2010.06.03 15:47:04.
