data_PCOD9471954
_publ_section_title
;
Structure prediction by ZEFSAII (Michael W. Deem and Ramdas Pophale) SiO2 
 PCOD9471954
Probable space group: C M C M
;
_chemical_formula_sum "Si O2"
_cell_formula_units_Z 80
_cell_length_a 28.166523
_cell_length_b 9.549909
_cell_length_c 16.647649
_cell_angle_alpha 90.000000
_cell_angle_beta 90.000000
_cell_angle_gamma 90.000000
_cell_volume 4478.013339
_symmetry_space_group_name_H-M "C M C M"
_symmetry_group_IT_number 63
_symmetry_cell_setting 'orthorhombic'
loop_
_space_group_symop_operation_xyz
x,y,z
-x,-y,1/2+z
x,-y,-z
-x,y,1/2-z
-x,-y,-z
x,y,1/2-z
-x,y,z
x,-y,1/2+z
1/2+x,1/2+y,z
1/2-x,1/2-y,1/2+z
1/2+x,1/2-y,-z
1/2-x,1/2+y,1/2-z
1/2-x,1/2-y,-z
1/2+x,1/2+y,1/2-z
1/2-x,1/2+y,z
1/2+x,1/2-y,1/2+z
loop_
_atom_site_type_symbol
_atom_site_label
_atom_site_fract_x
_atom_site_fract_y
_atom_site_fract_z
Si Si1 0.444830 0.764734 0.914468
Si Si2 0.702907 0.335749 0.019350
Si Si3 0.610102 0.298967 0.575371
Si Si4 0.554385 0.937087 0.157126
Si Si5 0.365053 0.407040 0.341893
O O1 0.500000 0.730291 0.902531
O O2 0.409751 0.695599 0.850439
O O3 0.439680 0.931564 0.902301
O O4 0.426569 0.710350 0.000775
O O5 0.678862 0.341530 0.107818
O O6 0.710487 0.500000 0.000000
O O7 0.750000 0.250000 0.000000
O O8 0.661385 0.271730 0.963628
O O9 0.591392 0.184167 0.637140
O O10 0.616912 0.450697 0.615050
O O11 0.558904 0.982871 0.250000
O O12 0.500000 0.884994 0.146834
O O13 0.352445 0.433158 0.250000
#
# Coordination Sequence:
#
# PCOD9471954 Si02
#       5
#    16  16  16  16  16
#     4  10  20  34  52  77 111 150 189 226 268 324
#     4   9  20  38  58  79 104 136 173 217 270 326
#     4  10  20  35  56  78 105 143 184 224 269 329
#     4  10  20  33  50  77 112 145 182 231 279 320
#     4  10  21  37  55  79 111 142 179 228 276 323
#
# _framework density 17.865065000000001
#
# number of rings (size 3 to 8) (size 9 to 14) (size 15 to 20)
#    0.000    2.200    0.000    4.200    0.000    8.400 
#    0.000    5.000    0.000    0.000    0.000    0.000 
#    0.000    0.000    0.000    0.000    0.000    0.000 
#
# Total GULP energy -222957.966060 kJ/mol
# GULP energy per Si atom -5573.949152 kJ/mol
# Density = 1.782440 g / cm^3
# Si number density = 17.865065 Si / 1000 Ang^3
#
#
#
# Elastic Constant Matrix: (Units=GPa)
#
#
# Indices 1 2 3 4 5 6 
#
# 1 125.8390 60.4614 44.8635 0.0000 0.0000 0.0000
# 2 60.4614 61.8113 37.7694 0.0000 0.0000 0.0000
# 3 44.8635 37.7694 93.9085 0.0000 0.0000 0.0000
# 4 0.0000 0.0000 0.0000 28.1611 0.0000 0.0000
# 5 0.0000 0.0000 0.0000 0.0000 8.2481 0.0000
# 6 0.0000 0.0000 0.0000 0.0000 0.0000 35.7876
#
#
#
# Elastic Compliance Matrix: (Units=1/GPa)
#
#
# Indices 1 2 3 4 5 6 
#
# 1 0.015195 -0.013825 -0.001699 0.000000 0.000000 0.000000
# 2 -0.013825 0.034028 -0.007081 0.000000 0.000000 0.000000
# 3 -0.001699 -0.007081 0.014308 0.000000 0.000000 0.000000
# 4 0.000000 0.000000 0.000000 0.035510 0.000000 0.000000
# 5 0.000000 0.000000 0.000000 0.000000 0.121240 0.000000
# 6 0.000000 0.000000 0.000000 0.000000 0.000000 0.027943
#
#
# Mechanical properties :
#
#
# Convention : Reuss Voigt Hill
#
# Bulk Modulus (GPa) = 54.58124 63.08305 58.83215
# Shear Modulus (GPa) = 16.69223 23.67033 20.18128
#
# Velocity S-wave (km/s) = 3.06003 3.64394 3.36467
# Velocity P-wave (km/s) = 6.56531 7.28642 6.93524
#
# Compressibility (1/GPa) = 0.01832131
#
# Stress axis : x y z
#
# Youngs Moduli (GPa) = 65.81280 29.38755 69.88958
#
# Poissons Ratio (x) = 0.40627 0.11873
# Poissons Ratio (y) = 0.90984 0.49491
# Poissons Ratio (z) = 0.11180 0.20810
#
# Static dielectric constant tensor:
#      x y z
#    x 1.586200 0.000000 0.000000 
#    y 0.000000 1.613760 0.000000 
#    z 0.000000 0.000000 1.647230 
# 
# From -- ./inp_files/48801.got.cif
#   From: 2010.05.17/outbox.cif.g08.bks.cpg/sg63_25_cif.got.tgz:48801.got - 2010.06.03 15:47:04.
