data_PCOD9471523
_publ_section_title
;
Structure prediction by ZEFSAII (Michael W. Deem and Ramdas Pophale) SiO2 
 PCOD9471523
Probable space group: C M C M
;
_chemical_formula_sum "Si O2"
_cell_formula_units_Z 80
_cell_length_a 21.096900
_cell_length_b 9.772131
_cell_length_c 17.640783
_cell_angle_alpha 90.000000
_cell_angle_beta 90.000000
_cell_angle_gamma 90.000000
_cell_volume 3636.853292
_symmetry_space_group_name_H-M "C M C M"
_symmetry_group_IT_number 63
_symmetry_cell_setting 'orthorhombic'
loop_
_space_group_symop_operation_xyz
x,y,z
-x,-y,1/2+z
x,-y,-z
-x,y,1/2-z
-x,-y,-z
x,y,1/2-z
-x,y,z
x,-y,1/2+z
1/2+x,1/2+y,z
1/2-x,1/2-y,1/2+z
1/2+x,1/2-y,-z
1/2-x,1/2+y,1/2-z
1/2-x,1/2-y,-z
1/2+x,1/2+y,1/2-z
1/2-x,1/2+y,z
1/2+x,1/2-y,1/2+z
loop_
_atom_site_type_symbol
_atom_site_label
_atom_site_fract_x
_atom_site_fract_y
_atom_site_fract_z
Si Si1 0.677040 0.879395 0.443660
Si Si2 0.322627 0.326250 0.066456
Si Si3 0.427763 0.484675 0.339983
Si Si4 0.862087 0.585345 0.161046
Si Si5 0.500000 0.053538 0.157694
Si Si6 0.000000 0.244302 0.159067
O O1 0.661273 0.736805 0.484038
O O2 0.753129 0.889414 0.438089
O O3 0.653666 0.000000 0.500000
O O4 0.650119 0.929314 0.363785
O O5 0.375711 0.419195 0.105583
O O6 0.316664 0.191449 0.119580
O O7 0.411289 0.468965 0.250000
O O8 0.500000 0.426059 0.348448
O O9 0.440573 0.645021 0.357950
O O10 0.856608 0.600319 0.250000
O O11 0.933900 0.621043 0.136255
O O12 0.500000 0.049530 0.250000
O O13 0.500000 0.896741 0.127693
O O14 0.000000 0.257747 0.250000
#
# Coordination Sequence:
#
# PCOD9471523 Si02
#       6
#    16  16  16  16   8   8
#     4   9  21  41  57  78 117 159 190 237 288 348
#     4  10  19  37  58  81 114 152 195 236 291 339
#     4   8  16  30  53  85 116 145 188 245 297 341
#     4  10  21  36  59  88 112 150 196 237 292 341
#     4   9  18  35  55  81 124 154 177 234 298 351
#     4   7  14  31  48  77 118 150 178 228 298 347
#
# _framework density 21.997038
#
# number of rings (size 3 to 8) (size 9 to 14) (size 15 to 20)
#    0.600    2.400    0.000    0.600    1.400    1.600 
#   12.600    1.500    0.000    1.800    0.000    0.000 
#    0.000    0.000    0.000    0.000    0.000    0.000 
#
# Total GULP energy -222885.247913 kJ/mol
# GULP energy per Si atom -5572.131198 kJ/mol
# Density = 2.194697 g / cm^3
# Si number density = 21.997038 Si / 1000 Ang^3
#
#
#
# Elastic Constant Matrix: (Units=GPa)
#
#
# Indices 1 2 3 4 5 6 
#
# 1 50.0177 9.1599 31.2767 0.0000 0.0000 0.0000
# 2 9.1599 44.8483 15.1850 0.0000 0.0000 0.0000
# 3 31.2767 15.1850 53.9866 0.0000 0.0000 0.0000
# 4 0.0000 0.0000 0.0000 27.5359 0.0000 0.0000
# 5 0.0000 0.0000 0.0000 0.0000 32.9089 0.0000
# 6 0.0000 0.0000 0.0000 0.0000 0.0000 31.3978
#
#
#
# Elastic Compliance Matrix: (Units=1/GPa)
#
#
# Indices 1 2 3 4 5 6 
#
# 1 0.031353 -0.000280 -0.018085 0.000000 0.000000 0.000000
# 2 -0.000280 0.024647 -0.006770 0.000000 0.000000 0.000000
# 3 -0.018085 -0.006770 0.030905 0.000000 0.000000 0.000000
# 4 0.000000 0.000000 0.000000 0.036316 0.000000 0.000000
# 5 0.000000 0.000000 0.000000 0.000000 0.030387 0.000000
# 6 0.000000 0.000000 0.000000 0.000000 0.000000 0.031849
#
#
# Mechanical properties :
#
#
# Convention : Reuss Voigt Hill
#
# Bulk Modulus (GPa) = 27.29736 28.89953 28.09844
# Shear Modulus (GPa) = 20.16612 24.58393 22.37503
#
# Velocity S-wave (km/s) = 3.03110 3.34668 3.19279
# Velocity P-wave (km/s) = 4.96856 5.30096 5.13745
#
# Compressibility (1/GPa) = 0.03663358
#
# Stress axis : x y z
#
# Youngs Moduli (GPa) = 31.89455 40.57308 32.35717
#
# Poissons Ratio (x) = 0.01137 0.58520
# Poissons Ratio (y) = 0.00894 0.21906
# Poissons Ratio (z) = 0.57683 0.27469
#
# Static dielectric constant tensor:
#      x y z
#    x 1.811910 0.000000 0.000000 
#    y 0.000000 1.869090 0.000000 
#    z 0.000000 0.000000 1.811070 
# 
# From -- ./inp_files/55326.got.cif
#   From: 2010.05.17/outbox.cif.g08.bks.cpg/sg63_28_cif.got.tgz:55326.got - 2010.06.03 15:47:04.
