data_PCOD9471752
_publ_section_title
;
Structure prediction by ZEFSAII (Michael W. Deem and Ramdas Pophale) SiO2 
 PCOD9471752
Probable space group: C M C M
;
_chemical_formula_sum "Si O2"
_cell_formula_units_Z 104
_cell_length_a 30.442832
_cell_length_b 12.541983
_cell_length_c 14.354398
_cell_angle_alpha 90.000000
_cell_angle_beta 90.000000
_cell_angle_gamma 90.000000
_cell_volume 5480.702674
_symmetry_space_group_name_H-M "C M C M"
_symmetry_group_IT_number 63
_symmetry_cell_setting 'orthorhombic'
loop_
_space_group_symop_operation_xyz
x,y,z
-x,-y,1/2+z
x,-y,-z
-x,y,1/2-z
-x,-y,-z
x,y,1/2-z
-x,y,z
x,-y,1/2+z
1/2+x,1/2+y,z
1/2-x,1/2-y,1/2+z
1/2+x,1/2-y,-z
1/2-x,1/2+y,1/2-z
1/2-x,1/2-y,-z
1/2+x,1/2+y,1/2-z
1/2-x,1/2+y,z
1/2+x,1/2-y,1/2+z
loop_
_atom_site_type_symbol
_atom_site_label
_atom_site_fract_x
_atom_site_fract_y
_atom_site_fract_z
Si Si1 0.803366 0.011667 0.357737
Si Si2 0.550648 0.641072 0.861269
Si Si3 0.706051 0.264601 0.558226
Si Si4 0.112494 0.740077 0.500525
Si Si5 0.138402 0.500000 0.500000
Si Si6 0.898849 0.068414 0.361869
Si Si7 0.209376 0.544228 0.641971
O O1 0.805279 0.980127 0.250000
O O2 0.791592 0.134431 0.375336
O O3 0.853408 0.008398 0.391644
O O4 0.759447 0.957870 0.396889
O O5 0.555977 0.653510 0.750000
O O6 0.500000 0.660372 0.885871
O O7 0.582781 0.720616 0.915543
O O8 0.563804 0.518242 0.882735
O O9 0.750000 0.250000 0.500000
O O10 0.664082 0.270049 0.490055
O O11 0.695971 0.165526 0.625088
O O12 0.111932 0.610991 0.513940
O O13 0.098093 0.818374 0.585977
O O14 0.173001 0.479758 0.584605
O O15 0.896624 0.085455 0.250000
O O16 0.209874 0.513785 0.750000
#
# Coordination Sequence:
#
# PCOD9471752 Si02
#       7
#    16  16  16  16   8  16  16
#     4   9  17  30  47  70 101 138 187 231 274 331
#     4  10  22  41  63  88 116 144 184 241 304 364
#     4  10  20  32  48  73 109 149 190 238 279 335
#     4  10  21  36  57  83 113 154 192 235 291 344
#     4  10  22  38  53  82 116 154 207 242 278 332
#     4   9  19  35  56  84 113 144 183 234 294 355
#     4  10  20  34  51  72 108 157 198 236 282 334
#
# _framework density 18.975669
#
# number of rings (size 3 to 8) (size 9 to 14) (size 15 to 20)
#    0.000    2.308    0.000    2.769    2.154    5.538 
#    0.000    1.154    0.000    0.000    0.000    2.154 
#    0.000    0.000    0.000    0.000    0.000    0.000 
#
# Total GULP energy -289610.205332 kJ/mol
# GULP energy per Si atom -5569.427026 kJ/mol
# Density = 1.893248 g / cm^3
# Si number density = 18.975669 Si / 1000 Ang^3
#
#
#
# Elastic Constant Matrix: (Units=GPa)
#
#
# Indices 1 2 3 4 5 6 
#
# 1 95.1282 36.0011 35.7777 0.0000 0.0000 0.0000
# 2 36.0011 93.7428 20.1961 0.0000 0.0000 0.0000
# 3 35.7777 20.1961 75.3717 0.0000 0.0000 0.0000
# 4 0.0000 0.0000 0.0000 23.8281 0.0000 0.0000
# 5 0.0000 0.0000 0.0000 0.0000 25.2915 0.0000
# 6 0.0000 0.0000 0.0000 0.0000 0.0000 23.4406
#
#
#
# Elastic Compliance Matrix: (Units=1/GPa)
#
#
# Indices 1 2 3 4 5 6 
#
# 1 0.014236 -0.004257 -0.005617 0.000000 0.000000 0.000000
# 2 -0.004257 0.012594 -0.001354 0.000000 0.000000 0.000000
# 3 -0.005617 -0.001354 0.016297 0.000000 0.000000 0.000000
# 4 0.000000 0.000000 0.000000 0.041967 0.000000 0.000000
# 5 0.000000 0.000000 0.000000 0.000000 0.039539 0.000000
# 6 0.000000 0.000000 0.000000 0.000000 0.000000 0.042661
#
#
# Mechanical properties :
#
#
# Convention : Reuss Voigt Hill
#
# Bulk Modulus (GPa) = 48.37704 49.79914 49.08809
# Shear Modulus (GPa) = 25.42730 25.99656 25.71193
#
# Velocity S-wave (km/s) = 3.66457 3.70536 3.68502
# Velocity P-wave (km/s) = 6.59204 6.67884 6.63558
#
# Compressibility (1/GPa) = 0.02067096
#
# Stress axis : x y z
#
# Youngs Moduli (GPa) = 70.24624 79.40274 61.36271
#
# Poissons Ratio (x) = 0.33802 0.34466
# Poissons Ratio (y) = 0.29904 0.08308
# Poissons Ratio (z) = 0.39456 0.10750
#
# Static dielectric constant tensor:
#      x y z
#    x 1.752950 0.000000 0.000000 
#    y 0.000000 1.672740 0.000000 
#    z 0.000000 0.000000 1.720120 
# 
# From -- ./inp_files/38548.got.cif
#   From: 2010.05.17/outbox.cif.g08.bks.cpg/sg63_20_cif.got.tgz:38548.got - 2010.06.03 15:47:04.
