data_PCOD9471327
_publ_section_title
;
Structure prediction by ZEFSAII (Michael W. Deem and Ramdas Pophale) SiO2 
 PCOD9471327
Probable space group: C M C M
;
_chemical_formula_sum "Si O2"
_cell_formula_units_Z 96
_cell_length_a 12.553262
_cell_length_b 22.345195
_cell_length_c 17.718080
_cell_angle_alpha 90.000000
_cell_angle_beta 90.000000
_cell_angle_gamma 90.000000
_cell_volume 4970.011577
_symmetry_space_group_name_H-M "C M C M"
_symmetry_group_IT_number 63
_symmetry_cell_setting 'orthorhombic'
loop_
_space_group_symop_operation_xyz
x,y,z
-x,-y,1/2+z
x,-y,-z
-x,y,1/2-z
-x,-y,-z
x,y,1/2-z
-x,y,z
x,-y,1/2+z
1/2+x,1/2+y,z
1/2-x,1/2-y,1/2+z
1/2+x,1/2-y,-z
1/2-x,1/2+y,1/2-z
1/2-x,1/2-y,-z
1/2+x,1/2+y,1/2-z
1/2-x,1/2+y,z
1/2+x,1/2-y,1/2+z
loop_
_atom_site_type_symbol
_atom_site_label
_atom_site_fract_x
_atom_site_fract_y
_atom_site_fract_z
Si Si1 0.885426 0.453115 0.158663
Si Si2 0.000000 0.850216 0.660855
Si Si3 0.500000 0.487099 0.658335
Si Si4 0.781694 0.186658 0.091501
Si Si5 0.877214 0.405679 0.659914
Si Si6 0.377518 0.291765 0.073319
Si Si7 0.162927 0.089059 0.658848
O O1 0.887275 0.448130 0.250000
O O2 0.871987 0.523561 0.143730
O O3 0.784228 0.417047 0.132039
O O4 0.000000 0.432974 0.129070
O O5 0.000000 0.919032 0.629318
O O6 0.891905 0.817158 0.637150
O O7 0.000000 0.855494 0.750000
O O8 0.500000 0.483664 0.750000
O O9 0.600306 0.528568 0.636747
O O10 0.710024 0.129505 0.112557
O O11 0.701974 0.242021 0.107392
O O12 0.822600 0.190412 0.005737
O O13 0.856546 0.397693 0.750000
O O14 0.000000 0.386497 0.645876
O O15 0.500000 0.270309 0.062038
O O16 0.382235 0.350714 0.124373
O O17 0.158239 0.092002 0.750000
#
# Coordination Sequence:
#
# PCOD9471327 Si02
#       7
#    16   8   8  16  16  16  16
#     4   8  15  30  53  83 118 149 181 232 300 360
#     4  11  22  39  63  93 122 153 195 247 308 359
#     4   9  18  33  59  89 121 151 184 243 308 361
#     4  11  23  40  59  82 117 157 197 246 301 353
#     4   9  17  33  60  90 115 145 192 243 291 348
#     4  11  24  43  60  78 114 161 207 243 295 359
#     4  10  19  35  59  87 115 152 197 242 292 352
#
# _framework density 19.315850000000001
#
# number of rings (size 3 to 8) (size 9 to 14) (size 15 to 20)
#    0.000    2.167    1.667    3.000    0.000    4.000 
#    1.500    4.167    0.000    2.000    0.000    0.000 
#    0.000    0.000    0.000    0.000    0.000    0.000 
#
# Total GULP energy -267632.089974 kJ/mol
# GULP energy per Si atom -5575.668541 kJ/mol
# Density = 1.927189 g / cm^3
# Si number density = 19.315850 Si / 1000 Ang^3
#
#
#
# Elastic Constant Matrix: (Units=GPa)
#
#
# Indices 1 2 3 4 5 6 
#
# 1 170.7949 55.5697 25.8046 0.0000 0.0000 0.0000
# 2 55.5697 53.8562 21.6027 0.0000 0.0000 0.0000
# 3 25.8046 21.6027 17.4521 0.0000 0.0000 0.0000
# 4 0.0000 0.0000 0.0000 38.9378 0.0000 0.0000
# 5 0.0000 0.0000 0.0000 0.0000 26.9436 0.0000
# 6 0.0000 0.0000 0.0000 0.0000 0.0000 9.9850
#
#
#
# Elastic Compliance Matrix: (Units=1/GPa)
#
#
# Indices 1 2 3 4 5 6 
#
# 1 0.008924 -0.007777 -0.003570 0.000000 0.000000 0.000000
# 2 -0.007777 0.043655 -0.042539 0.000000 0.000000 0.000000
# 3 -0.003570 -0.042539 0.115235 0.000000 0.000000 0.000000
# 4 0.000000 0.000000 0.000000 0.025682 0.000000 0.000000
# 5 0.000000 0.000000 0.000000 0.000000 0.037115 0.000000
# 6 0.000000 0.000000 0.000000 0.000000 0.000000 0.100150
#
#
# Mechanical properties :
#
#
# Convention : Reuss Voigt Hill
#
# Bulk Modulus (GPa) = 16.65475 49.78415 33.21945
# Shear Modulus (GPa) = 10.90401 24.44836 17.67619
#
# Velocity S-wave (km/s) = 2.37852 3.56155 3.02837
# Velocity P-wave (km/s) = 4.02296 6.53778 5.42802
#
# Compressibility (1/GPa) = 0.06004294
#
# Stress axis : x y z
#
# Youngs Moduli (GPa) = 112.05139 22.90673 8.67796
#
# Poissons Ratio (x) = 0.17814 0.03098
# Poissons Ratio (y) = 0.87137 0.36916
# Poissons Ratio (z) = 0.39999 0.97444
#
# Static dielectric constant tensor:
#      x y z
#    x 1.710400 0.000000 0.000000 
#    y 0.000000 1.655410 0.000000 
#    z 0.000000 0.000000 1.656640 
# 
# From -- ./inp_files/42541.got.cif
#   From: 2010.05.17/outbox.cif.g08.bks.cpg/sg63_22_cif.got.tgz:42541.got - 2010.06.03 15:47:04.
