data_PCOD9471916
_publ_section_title
;
Structure prediction by ZEFSAII (Michael W. Deem and Ramdas Pophale) SiO2 
 PCOD9471916
Probable space group: C M C M
;
_chemical_formula_sum "Si O2"
_cell_formula_units_Z 80
_cell_length_a 9.204244
_cell_length_b 20.968031
_cell_length_c 25.353466
_cell_angle_alpha 90.000000
_cell_angle_beta 90.000000
_cell_angle_gamma 90.000000
_cell_volume 4893.088964
_symmetry_space_group_name_H-M "C M C M"
_symmetry_group_IT_number 63
_symmetry_cell_setting 'orthorhombic'
loop_
_space_group_symop_operation_xyz
x,y,z
-x,-y,1/2+z
x,-y,-z
-x,y,1/2-z
-x,-y,-z
x,y,1/2-z
-x,y,z
x,-y,1/2+z
1/2+x,1/2+y,z
1/2-x,1/2-y,1/2+z
1/2+x,1/2-y,-z
1/2-x,1/2+y,1/2-z
1/2-x,1/2-y,-z
1/2+x,1/2+y,1/2-z
1/2-x,1/2+y,z
1/2+x,1/2-y,1/2+z
loop_
_atom_site_type_symbol
_atom_site_label
_atom_site_fract_x
_atom_site_fract_y
_atom_site_fract_z
Si Si1 0.324124 0.310170 0.972805
Si Si2 0.323246 0.561336 0.966954
Si Si3 0.666541 0.010283 0.750000
Si Si4 0.667406 0.144775 0.250000
Si Si5 0.673825 0.358307 0.857801
Si Si6 0.673868 0.490348 0.356209
O O1 0.500000 0.304900 0.975178
O O2 0.285104 0.321430 0.911299
O O3 0.250000 0.250000 0.000000
O O4 0.279789 0.373493 0.005155
O O5 0.500000 0.560194 0.967639
O O6 0.278987 0.550405 0.906681
O O7 0.273814 0.500000 0.000000
O O8 0.500000 0.030677 0.750000
O O9 0.748060 0.030273 0.802914
O O10 0.670325 0.932752 0.750000
O O11 0.500000 0.165329 0.250000
O O12 0.747037 0.163525 0.304322
O O13 0.500000 0.352820 0.850635
O O14 0.704118 0.434169 0.865993
O O15 0.500000 0.485150 0.350047
#
# Coordination Sequence:
#
# PCOD9471916 Si02
#       6
#    16  16   8   8  16  16
#     4  10  20  33  50  73 102 133 163 200 247 294
#     4   9  15  28  51  75  95 121 162 206 238 272
#     4   9  17  27  39  64 103 132 149 185 247 302
#     4   9  17  27  43  68  97 126 155 195 245 288
#     4   9  16  28  47  70  95 124 160 199 238 286
#     4   9  15  26  48  72  92 119 162 206 238 276
#
# _framework density 16.349589999999999
#
# number of rings (size 3 to 8) (size 9 to 14) (size 15 to 20)
#    0.000    2.800    2.000    0.600    0.000    3.200 
#    0.000    1.000    0.000    2.400    0.000    1.400 
#    0.000    0.000    0.000    0.000    0.000    0.000 
#
# Total GULP energy -222814.749686 kJ/mol
# GULP energy per Si atom -5570.368742 kJ/mol
# Density = 1.631238 g / cm^3
# Si number density = 16.349590 Si / 1000 Ang^3
#
#
#
# Elastic Constant Matrix: (Units=GPa)
#
#
# Indices 1 2 3 4 5 6 
#
# 1 33.2951 28.5556 62.2842 0.0000 0.0000 0.0000
# 2 28.5556 78.5687 69.4903 0.0000 0.0000 0.0000
# 3 62.2842 69.4903 202.8369 0.0000 0.0000 0.0000
# 4 0.0000 0.0000 0.0000 19.8089 0.0000 0.0000
# 5 0.0000 0.0000 0.0000 0.0000 14.8835 0.0000
# 6 0.0000 0.0000 0.0000 0.0000 0.0000 16.9747
#
#
#
# Elastic Compliance Matrix: (Units=1/GPa)
#
#
# Indices 1 2 3 4 5 6 
#
# 1 0.075652 -0.009971 -0.019814 0.000000 0.000000 0.000000
# 2 -0.009971 0.019575 -0.003645 0.000000 0.000000 0.000000
# 3 -0.019814 -0.003645 0.012263 0.000000 0.000000 0.000000
# 4 0.000000 0.000000 0.000000 0.050482 0.000000 0.000000
# 5 0.000000 0.000000 0.000000 0.000000 0.067189 0.000000
# 6 0.000000 0.000000 0.000000 0.000000 0.000000 0.058911
#
#
# Mechanical properties :
#
#
# Convention : Reuss Voigt Hill
#
# Bulk Modulus (GPa) = 24.61193 70.59565 47.60379
# Shear Modulus (GPa) = 13.71839 20.62477 17.17158
#
# Velocity S-wave (km/s) = 2.89981 3.55559 3.24431
# Velocity P-wave (km/s) = 5.12816 7.75428 6.57370
#
# Compressibility (1/GPa) = 0.04063070
#
# Stress axis : x y z
#
# Youngs Moduli (GPa) = 13.21849 51.08554 81.54681
#
# Poissons Ratio (x) = 0.50936 1.61578
# Poissons Ratio (y) = 0.13180 0.29720
# Poissons Ratio (z) = 0.26191 0.18619
#
# Static dielectric constant tensor:
#      x y z
#    x 1.545810 0.000000 0.000000 
#    y 0.000000 1.525030 0.000000 
#    z 0.000000 0.000000 1.555280 
# 
# From -- ./inp_files/59538.got.cif
#   From: 2010.05.17/outbox.cif.g08.bks.cpg/sg63_30_cif.got.tgz:59538.got - 2010.06.03 15:47:04.
