data_PCOD9471193
_publ_section_title
;
Structure prediction by ZEFSAII (Michael W. Deem and Ramdas Pophale) SiO2 
 PCOD9471193
Probable space group: C M C M
;
_chemical_formula_sum "Si O2"
_cell_formula_units_Z 80
_cell_length_a 19.319390
_cell_length_b 12.586463
_cell_length_c 19.228245
_cell_angle_alpha 90.000000
_cell_angle_beta 90.000000
_cell_angle_gamma 90.000000
_cell_volume 4675.593651
_symmetry_space_group_name_H-M "C M C M"
_symmetry_group_IT_number 63
_symmetry_cell_setting 'orthorhombic'
loop_
_space_group_symop_operation_xyz
x,y,z
-x,-y,1/2+z
x,-y,-z
-x,y,1/2-z
-x,-y,-z
x,y,1/2-z
-x,y,z
x,-y,1/2+z
1/2+x,1/2+y,z
1/2-x,1/2-y,1/2+z
1/2+x,1/2-y,-z
1/2-x,1/2+y,1/2-z
1/2-x,1/2-y,-z
1/2+x,1/2+y,1/2-z
1/2-x,1/2+y,z
1/2+x,1/2-y,1/2+z
loop_
_atom_site_type_symbol
_atom_site_label
_atom_site_fract_x
_atom_site_fract_y
_atom_site_fract_z
Si Si1 0.278438 0.896497 0.953390
Si Si2 0.500000 0.742321 0.666913
Si Si3 0.000000 0.122858 0.975035
Si Si4 0.919318 0.343175 0.329639
Si Si5 0.139528 0.779955 0.540619
Si Si6 0.620502 0.914246 0.830790
O O1 0.197579 0.869510 0.948621
O O2 0.312716 0.909184 0.878587
O O3 0.322335 0.803552 0.990253
O O4 0.288295 0.000000 0.000000
O O5 0.500000 0.711802 0.750000
O O6 0.500000 0.649890 0.608297
O O7 0.433895 0.819658 0.654831
O O8 0.068985 0.176747 0.006983
O O9 0.000000 0.000000 0.000000
O O10 0.896271 0.323693 0.250000
O O11 0.877681 0.278876 0.387234
O O12 0.913355 0.469825 0.342356
O O13 0.000000 0.313753 0.334814
O O14 0.638540 0.907010 0.750000
#
# Coordination Sequence:
#
# PCOD9471193 Si02
#       6
#    16   8   8  16  16  16
#     4  11  22  37  57  85 118 148 197 245 285 344
#     4  10  20  37  61  91 119 147 190 238 294 354
#     4  12  24  41  61  83 115 155 199 243 287 349
#     4  10  19  34  59  91 120 148 188 240 294 351
#     4  11  23  37  58  82 113 160 196 237 291 342
#     4  10  19  34  60  91 121 147 182 241 300 348
#
# _framework density 17.110126999999999
#
# number of rings (size 3 to 8) (size 9 to 14) (size 15 to 20)
#    0.000    1.400    6.000    0.600    0.000    0.800 
#    0.000    4.000    0.000    3.600    0.000    0.000 
#    0.000    0.000    0.000    0.000    0.000    0.000 
#
# Total GULP energy -223092.080603 kJ/mol
# GULP energy per Si atom -5577.302015 kJ/mol
# Density = 1.707118 g / cm^3
# Si number density = 17.110127 Si / 1000 Ang^3
#
#
#
# Elastic Constant Matrix: (Units=GPa)
#
#
# Indices 1 2 3 4 5 6 
#
# 1 117.4350 30.8725 50.6019 0.0000 0.0000 0.0000
# 2 30.8725 72.2798 45.0840 0.0000 0.0000 0.0000
# 3 50.6019 45.0840 101.0616 0.0000 0.0000 0.0000
# 4 0.0000 0.0000 0.0000 24.9620 0.0000 0.0000
# 5 0.0000 0.0000 0.0000 0.0000 15.7392 0.0000
# 6 0.0000 0.0000 0.0000 0.0000 0.0000 22.2230
#
#
#
# Elastic Compliance Matrix: (Units=1/GPa)
#
#
# Indices 1 2 3 4 5 6 
#
# 1 0.011016 -0.001752 -0.004734 0.000000 0.000000 0.000000
# 2 -0.001752 0.019448 -0.007798 0.000000 0.000000 0.000000
# 3 -0.004734 -0.007798 0.015744 0.000000 0.000000 0.000000
# 4 0.000000 0.000000 0.000000 0.040061 0.000000 0.000000
# 5 0.000000 0.000000 0.000000 0.000000 0.063536 0.000000
# 6 0.000000 0.000000 0.000000 0.000000 0.000000 0.044998
#
#
# Mechanical properties :
#
#
# Convention : Reuss Voigt Hill
#
# Bulk Modulus (GPa) = 56.69424 60.43257 58.56340
# Shear Modulus (GPa) = 21.81013 23.53271 22.67142
#
# Velocity S-wave (km/s) = 3.57415 3.71262 3.64404
# Velocity P-wave (km/s) = 7.08799 7.33311 7.21159
#
# Compressibility (1/GPa) = 0.01763848
#
# Stress axis : x y z
#
# Youngs Moduli (GPa) = 90.77833 51.41981 63.51583
#
# Poissons Ratio (x) = 0.09011 0.30068
# Poissons Ratio (y) = 0.15908 0.49532
# Poissons Ratio (z) = 0.42974 0.40099
#
# Static dielectric constant tensor:
#      x y z
#    x 1.561140 0.000000 0.000000 
#    y 0.000000 1.576090 0.000000 
#    z 0.000000 0.000000 1.570090 
# 
# From -- ./inp_files/46841.got.cif
#   From: 2010.05.17/outbox.cif.g08.bks.cpg/sg63_24_cif.got.tgz:46841.got - 2010.06.03 15:47:04.
