data_PCOD9471426
_publ_section_title
;
Structure prediction by ZEFSAII (Michael W. Deem and Ramdas Pophale) SiO2 
 PCOD9471426
Probable space group: C M C M
;
_chemical_formula_sum "Si O2"
_cell_formula_units_Z 72
_cell_length_a 27.908846
_cell_length_b 11.720916
_cell_length_c 11.973859
_cell_angle_alpha 90.000000
_cell_angle_beta 90.000000
_cell_angle_gamma 90.000000
_cell_volume 3916.855704
_symmetry_space_group_name_H-M "C M C M"
_symmetry_group_IT_number 63
_symmetry_cell_setting 'orthorhombic'
loop_
_space_group_symop_operation_xyz
x,y,z
-x,-y,1/2+z
x,-y,-z
-x,y,1/2-z
-x,-y,-z
x,y,1/2-z
-x,y,z
x,-y,1/2+z
1/2+x,1/2+y,z
1/2-x,1/2-y,1/2+z
1/2+x,1/2-y,-z
1/2-x,1/2+y,1/2-z
1/2-x,1/2-y,-z
1/2+x,1/2+y,1/2-z
1/2-x,1/2+y,z
1/2+x,1/2-y,1/2+z
loop_
_atom_site_type_symbol
_atom_site_label
_atom_site_fract_x
_atom_site_fract_y
_atom_site_fract_z
Si Si1 0.631861 0.876885 0.044776
Si Si2 0.613615 0.500000 0.500000
Si Si3 0.732269 0.063339 0.623125
Si Si4 0.054430 0.801932 0.618074
Si Si5 0.326864 0.308485 0.377537
O O1 0.677205 0.898154 0.124649
O O2 0.587621 0.806988 0.093349
O O3 0.654814 0.797351 0.948694
O O4 0.616604 0.000000 0.000000
O O5 0.580443 0.410805 0.564770
O O6 0.647311 0.576684 0.578836
O O7 0.742071 0.010404 0.750000
O O8 0.770303 0.166274 0.615026
O O9 0.737266 0.000000 0.500000
O O10 0.052657 0.818557 0.750000
O O11 0.000000 0.788854 0.575739
O O12 0.339759 0.288932 0.250000
#
# Coordination Sequence:
#
# PCOD9471426 Si02
#       5
#    16   8  16  16  16
#     4  10  22  37  55  79 113 153 194 234 281 332
#     4  10  19  36  58  86 114 142 179 230 300 348
#     4  10  20  36  57  86 118 155 193 235 287 344
#     4  10  21  37  58  82 108 143 188 239 289 338
#     4  10  20  35  57  84 117 150 188 233 287 348
#
# _framework density 18.382092
#
# number of rings (size 3 to 8) (size 9 to 14) (size 15 to 20)
#    0.000    2.000    1.111    2.333    0.000    4.889 
#    0.000    1.111    0.000    6.000    0.000    0.000 
#    0.000    0.000    0.000    0.000    0.000    0.000 
#
# Total GULP energy -200576.837451 kJ/mol
# GULP energy per Si atom -5571.578818 kJ/mol
# Density = 1.834025 g / cm^3
# Si number density = 18.382092 Si / 1000 Ang^3
#
#
#
# Elastic Constant Matrix: (Units=GPa)
#
#
# Indices 1 2 3 4 5 6 
#
# 1 83.9582 28.8596 5.2682 0.0000 0.0000 0.0000
# 2 28.8596 72.4281 16.0616 0.0000 0.0000 0.0000
# 3 5.2682 16.0616 107.5797 0.0000 0.0000 0.0000
# 4 0.0000 0.0000 0.0000 7.6764 0.0000 0.0000
# 5 0.0000 0.0000 0.0000 0.0000 29.2358 0.0000
# 6 0.0000 0.0000 0.0000 0.0000 0.0000 19.7254
#
#
#
# Elastic Compliance Matrix: (Units=1/GPa)
#
#
# Indices 1 2 3 4 5 6 
#
# 1 0.013803 -0.005533 0.000150 0.000000 0.000000 0.000000
# 2 -0.005533 0.016498 -0.002192 0.000000 0.000000 0.000000
# 3 0.000150 -0.002192 0.009615 0.000000 0.000000 0.000000
# 4 0.000000 0.000000 0.000000 0.130270 0.000000 0.000000
# 5 0.000000 0.000000 0.000000 0.000000 0.034205 0.000000
# 6 0.000000 0.000000 0.000000 0.000000 0.000000 0.050696
#
#
# Mechanical properties :
#
#
# Convention : Reuss Voigt Hill
#
# Bulk Modulus (GPa) = 40.37830 40.48275 40.43052
# Shear Modulus (GPa) = 17.95380 25.57929 21.76655
#
# Velocity S-wave (km/s) = 3.12861 3.73437 3.44483
# Velocity P-wave (km/s) = 5.92155 6.37690 6.15344
#
# Compressibility (1/GPa) = 0.02476578
#
# Stress axis : x y z
#
# Youngs Moduli (GPa) = 72.44656 60.61447 104.00023
#
# Poissons Ratio (x) = 0.33540 -0.01562
# Poissons Ratio (y) = 0.40087 0.22798
# Poissons Ratio (z) = -0.01088 0.13288
#
# Static dielectric constant tensor:
#      x y z
#    x 1.628220 0.000000 0.000000 
#    y 0.000000 1.326830 0.000000 
#    z 0.000000 0.000000 1.663130 
# 
# From -- ./inp_files/24717.got.cif
#   From: 2010.05.17/outbox.cif.g08.bks.cpg/sg63_13_cif.got.tgz:24717.got - 2010.06.03 15:47:04.
