data_PCOD9471093
_publ_section_title
;
Structure prediction by ZEFSAII (Michael W. Deem and Ramdas Pophale) SiO2 
 PCOD9471093
Probable space group: C M C M
;
_chemical_formula_sum "Si O2"
_cell_formula_units_Z 96
_cell_length_a 20.370607
_cell_length_b 10.291207
_cell_length_c 25.303527
_cell_angle_alpha 90.000000
_cell_angle_beta 90.000000
_cell_angle_gamma 90.000000
_cell_volume 5304.584168
_symmetry_space_group_name_H-M "C M C M"
_symmetry_group_IT_number 63
_symmetry_cell_setting 'orthorhombic'
loop_
_space_group_symop_operation_xyz
x,y,z
-x,-y,1/2+z
x,-y,-z
-x,y,1/2-z
-x,-y,-z
x,y,1/2-z
-x,y,z
x,-y,1/2+z
1/2+x,1/2+y,z
1/2-x,1/2-y,1/2+z
1/2+x,1/2-y,-z
1/2-x,1/2+y,1/2-z
1/2-x,1/2-y,-z
1/2+x,1/2+y,1/2-z
1/2-x,1/2+y,z
1/2+x,1/2-y,1/2+z
loop_
_atom_site_type_symbol
_atom_site_label
_atom_site_fract_x
_atom_site_fract_y
_atom_site_fract_z
Si Si1 0.779538 0.187752 0.311163
Si Si2 0.103972 0.974540 0.414733
Si Si3 0.253199 0.567961 0.872234
Si Si4 0.426395 0.712372 0.492294
Si Si5 0.927751 0.106552 0.310800
Si Si6 0.298988 0.860766 0.021835
O O1 0.767603 0.156817 0.250000
O O2 0.749319 0.326039 0.326166
O O3 0.859331 0.184718 0.318798
O O4 0.748382 0.075804 0.348075
O O5 0.178782 0.934903 0.404407
O O6 0.073336 0.867400 0.452876
O O7 0.096565 0.109088 0.447354
O O8 0.074845 0.998601 0.356651
O O9 0.202032 0.620843 0.915149
O O10 0.500000 0.756025 0.479998
O O11 0.371772 0.822277 0.495631
O O12 0.924345 0.058088 0.250000
O O13 0.000000 0.172280 0.315936
O O14 0.250000 0.750000 0.000000
O O15 0.277837 0.000000 0.000000
#
# Coordination Sequence:
#
# PCOD9471093 Si02
#       6
#    16  16  16  16  16  16
#     4  10  21  36  56  85 115 147 188 243 297 346
#     4  10  19  34  56  83 117 148 194 234 293 350
#     4  11  21  35  57  82 114 152 192 236 292 346
#     4  11  22  36  58  86 118 156 194 245 295 352
#     4   9  17  31  53  81 111 144 187 239 289 343
#     4  12  23  38  58  84 119 156 197 239 289 355
#
# _framework density 18.097553999999999
#
# number of rings (size 3 to 8) (size 9 to 14) (size 15 to 20)
#    0.000    1.500    1.667    6.500    0.000    1.000 
#    0.000    0.000    0.000    0.000    0.000    0.000 
#    0.000    8.000    0.000    0.000    0.000    0.000 
#
# Total GULP energy -267525.812495 kJ/mol
# GULP energy per Si atom -5573.454427 kJ/mol
# Density = 1.805636 g / cm^3
# Si number density = 18.097554 Si / 1000 Ang^3
#
#
#
# Elastic Constant Matrix: (Units=GPa)
#
#
# Indices 1 2 3 4 5 6 
#
# 1 85.8096 26.3019 18.0287 0.0000 0.0000 0.0000
# 2 26.3019 73.2095 8.1966 0.0000 0.0000 0.0000
# 3 18.0287 8.1966 83.5496 0.0000 0.0000 0.0000
# 4 0.0000 0.0000 0.0000 23.6593 0.0000 0.0000
# 5 0.0000 0.0000 0.0000 0.0000 17.1766 0.0000
# 6 0.0000 0.0000 0.0000 0.0000 0.0000 11.0258
#
#
#
# Elastic Compliance Matrix: (Units=1/GPa)
#
#
# Indices 1 2 3 4 5 6 
#
# 1 0.013586 -0.004603 -0.002480 0.000000 0.000000 0.000000
# 2 -0.004603 0.015371 -0.000515 0.000000 0.000000 0.000000
# 3 -0.002480 -0.000515 0.012555 0.000000 0.000000 0.000000
# 4 0.000000 0.000000 0.000000 0.042267 0.000000 0.000000
# 5 0.000000 0.000000 0.000000 0.000000 0.058219 0.000000
# 6 0.000000 0.000000 0.000000 0.000000 0.000000 0.090696
#
#
# Mechanical properties :
#
#
# Convention : Reuss Voigt Hill
#
# Bulk Modulus (GPa) = 38.00060 38.62479 38.31270
# Shear Modulus (GPa) = 19.48102 23.04180 21.26141
#
# Velocity S-wave (km/s) = 3.28448 3.57206 3.43129
# Velocity P-wave (km/s) = 5.95206 6.19691 6.07572
#
# Compressibility (1/GPa) = 0.02631537
#
# Stress axis : x y z
#
# Youngs Moduli (GPa) = 73.60672 65.05821 79.65227
#
# Poissons Ratio (x) = 0.29948 0.19754
# Poissons Ratio (y) = 0.33883 0.04099
# Poissons Ratio (z) = 0.18254 0.03348
#
# Static dielectric constant tensor:
#      x y z
#    x 1.663300 0.000000 0.000000 
#    y 0.000000 1.603470 0.000000 
#    z 0.000000 0.000000 1.687310 
# 
# From -- ./inp_files/70286.got.cif
#   From: 2010.05.17/outbox.cif.g08.bks.cpg/sg63_36_cif.got.tgz:70286.got - 2010.06.03 15:47:04.
