data_PCOD9471528
_publ_section_title
;
Structure prediction by ZEFSAII (Michael W. Deem and Ramdas Pophale) SiO2 
 PCOD9471528
Probable space group: C M C M
;
_chemical_formula_sum "Si O2"
_cell_formula_units_Z 112
_cell_length_a 12.127627
_cell_length_b 18.583304
_cell_length_c 26.172477
_cell_angle_alpha 90.000000
_cell_angle_beta 90.000000
_cell_angle_gamma 90.000000
_cell_volume 5898.527242
_symmetry_space_group_name_H-M "C M C M"
_symmetry_group_IT_number 63
_symmetry_cell_setting 'orthorhombic'
loop_
_space_group_symop_operation_xyz
x,y,z
-x,-y,1/2+z
x,-y,-z
-x,y,1/2-z
-x,-y,-z
x,y,1/2-z
-x,y,z
x,-y,1/2+z
1/2+x,1/2+y,z
1/2-x,1/2-y,1/2+z
1/2+x,1/2-y,-z
1/2-x,1/2+y,1/2-z
1/2-x,1/2-y,-z
1/2+x,1/2+y,1/2-z
1/2-x,1/2+y,z
1/2+x,1/2-y,1/2+z
loop_
_atom_site_type_symbol
_atom_site_label
_atom_site_fract_x
_atom_site_fract_y
_atom_site_fract_z
Si Si1 0.876648 0.610466 0.393945
Si Si2 0.628457 0.961701 0.051103
Si Si3 0.123858 0.728601 0.807745
Si Si4 0.701450 0.616080 0.192655
Si Si5 0.271684 0.348595 0.390985
Si Si6 0.631195 0.759696 0.531182
Si Si7 0.129068 0.953607 0.193104
O O1 0.867440 0.526454 0.408020
O O2 0.791412 0.628240 0.350322
O O3 0.861304 0.661208 0.443308
O O4 0.000000 0.624501 0.375424
O O5 0.500000 0.942462 0.042481
O O6 0.695363 0.893381 0.069966
O O7 0.671955 0.000000 0.000000
O O8 0.162704 0.709747 0.750000
O O9 0.122838 0.815162 0.809642
O O10 0.198612 0.700268 0.853333
O O11 0.000000 0.700175 0.813736
O O12 0.749657 0.614967 0.250000
O O13 0.646661 0.538669 0.184437
O O14 0.354774 0.299421 0.423588
O O15 0.323635 0.406860 0.352713
O O16 0.500000 0.753388 0.511183
O O17 0.750000 0.750000 0.500000
O O18 0.176059 0.937209 0.250000
O O19 0.000000 0.939205 0.195118
#
# Coordination Sequence:
#
# PCOD9471528 Si02
#       7
#    16  16  16  16  16  16  16
#     4  10  20  39  60  84 118 155 201 248 293 364
#     4  10  21  37  60  85 114 156 201 245 302 365
#     4  10  21  36  57  89 124 159 203 252 303 365
#     4  10  19  37  60  83 116 159 201 241 292 360
#     4  12  21  37  64  87 122 153 198 254 312 358
#     4  11  25  44  66  91 122 160 205 260 316 373
#     4  10  21  37  59  87 119 157 196 238 298 368
#
# _framework density 18.98779
#
# number of rings (size 3 to 8) (size 9 to 14) (size 15 to 20)
#    0.000    1.571    2.857    2.571    0.000    4.286 
#    0.000    0.000    0.000    1.714    0.000    0.000 
#    0.000    0.000    0.000    0.000    0.000    0.000 
#
# Total GULP energy -312025.642619 kJ/mol
# GULP energy per Si atom -5571.886475 kJ/mol
# Density = 1.894457 g / cm^3
# Si number density = 18.987790 Si / 1000 Ang^3
#
#
#
# Elastic Constant Matrix: (Units=GPa)
#
#
# Indices 1 2 3 4 5 6 
#
# 1 81.7478 15.5212 37.6485 0.0000 0.0000 0.0000
# 2 15.5212 85.0876 14.7579 0.0000 0.0000 0.0000
# 3 37.6485 14.7579 72.5204 0.0000 0.0000 0.0000
# 4 0.0000 0.0000 0.0000 34.6134 0.0000 0.0000
# 5 0.0000 0.0000 0.0000 0.0000 27.2024 0.0000
# 6 0.0000 0.0000 0.0000 0.0000 0.0000 3.0510
#
#
#
# Elastic Compliance Matrix: (Units=1/GPa)
#
#
# Indices 1 2 3 4 5 6 
#
# 1 0.016273 -0.001558 -0.008131 0.000000 0.000000 0.000000
# 2 -0.001558 0.012332 -0.001701 0.000000 0.000000 0.000000
# 3 -0.008131 -0.001701 0.018356 0.000000 0.000000 0.000000
# 4 0.000000 0.000000 0.000000 0.028891 0.000000 0.000000
# 5 0.000000 0.000000 0.000000 0.000000 0.036761 0.000000
# 6 0.000000 0.000000 0.000000 0.000000 0.000000 0.327763
#
#
# Mechanical properties :
#
#
# Convention : Reuss Voigt Hill
#
# Bulk Modulus (GPa) = 41.35336 41.69012 41.52174
# Shear Modulus (GPa) = 10.61083 24.40191 17.50637
#
# Velocity S-wave (km/s) = 2.36651 3.58877 3.03971
# Velocity P-wave (km/s) = 5.41233 6.25910 5.85105
#
# Compressibility (1/GPa) = 0.02418183
#
# Stress axis : x y z
#
# Youngs Moduli (GPa) = 61.45025 81.09118 54.47662
#
# Poissons Ratio (x) = 0.12636 0.44295
# Poissons Ratio (y) = 0.09575 0.09264
# Poissons Ratio (z) = 0.49966 0.13790
#
# Static dielectric constant tensor:
#      x y z
#    x 1.657840 0.000000 0.000000 
#    y 0.000000 1.662570 0.000000 
#    z 0.000000 0.000000 1.690350 
# 
# From -- ./inp_files/61807.got.cif
#   From: 2010.05.17/outbox.cif.g08.bks.cpg/sg63_31_cif.got.tgz:61807.got - 2010.06.03 15:47:04.
