data_PCOD9471884
_publ_section_title
;
Structure prediction by ZEFSAII (Michael W. Deem and Ramdas Pophale) SiO2 
 PCOD9471884
Probable space group: C M C M
;
_chemical_formula_sum "Si O2"
_cell_formula_units_Z 80
_cell_length_a 22.158905
_cell_length_b 9.508439
_cell_length_c 17.689097
_cell_angle_alpha 90.000000
_cell_angle_beta 90.000000
_cell_angle_gamma 90.000000
_cell_volume 3727.032533
_symmetry_space_group_name_H-M "C M C M"
_symmetry_group_IT_number 63
_symmetry_cell_setting 'orthorhombic'
loop_
_space_group_symop_operation_xyz
x,y,z
-x,-y,1/2+z
x,-y,-z
-x,y,1/2-z
-x,-y,-z
x,y,1/2-z
-x,y,z
x,-y,1/2+z
1/2+x,1/2+y,z
1/2-x,1/2-y,1/2+z
1/2+x,1/2-y,-z
1/2-x,1/2+y,1/2-z
1/2-x,1/2-y,-z
1/2+x,1/2+y,1/2-z
1/2-x,1/2+y,z
1/2+x,1/2-y,1/2+z
loop_
_atom_site_type_symbol
_atom_site_label
_atom_site_fract_x
_atom_site_fract_y
_atom_site_fract_z
Si Si1 0.068907 0.090998 0.422730
Si Si2 0.379449 0.334749 0.335665
Si Si3 0.618977 0.838857 0.982858
Si Si4 0.747696 0.084858 0.433751
Si Si5 0.267072 0.170782 0.665106
O O1 0.096446 0.238224 0.450505
O O2 0.000000 0.112453 0.397899
O O3 0.068363 0.000000 0.500000
O O4 0.101861 0.990776 0.362482
O O5 0.400543 0.304996 0.250000
O O6 0.400954 0.226914 0.401598
O O7 0.306354 0.328467 0.333820
O O8 0.692198 0.838537 0.975315
O O9 0.601451 0.000000 0.000000
O O10 0.783251 0.190878 0.381457
O O11 0.782033 0.000000 0.500000
O O12 0.717197 0.971651 0.377905
O O13 0.289974 0.173645 0.750000
#
# Coordination Sequence:
#
# PCOD9471884 Si02
#       5
#    16  16  16  16  16
#     4   9  18  34  56  79 103 136 179 222 267 322
#     4   9  19  35  54  76 105 142 183 227 270 318
#     4   9  19  35  54  79 109 141 177 221 273 327
#     4  10  20  33  51  75 103 140 182 222 260 312
#     4  10  20  33  49  73 106 140 176 220 272 320
#
# _framework density 21.464798999999999
#
# number of rings (size 3 to 8) (size 9 to 14) (size 15 to 20)
#    0.000    2.600    0.000    1.200    0.000    8.800 
#    0.000    1.000    0.000    1.200    0.000    0.000 
#    0.000    0.000    0.000    0.000    0.000    0.000 
#
# Total GULP energy -223357.382991 kJ/mol
# GULP energy per Si atom -5583.934575 kJ/mol
# Density = 2.141594 g / cm^3
# Si number density = 21.464799 Si / 1000 Ang^3
#
#
#
# Elastic Constant Matrix: (Units=GPa)
#
#
# Indices 1 2 3 4 5 6 
#
# 1 49.3333 33.1913 19.8448 0.0000 0.0000 0.0000
# 2 33.1913 140.0544 63.3466 0.0000 0.0000 0.0000
# 3 19.8448 63.3466 160.0111 0.0000 0.0000 0.0000
# 4 0.0000 0.0000 0.0000 26.5314 0.0000 0.0000
# 5 0.0000 0.0000 0.0000 0.0000 8.2469 0.0000
# 6 0.0000 0.0000 0.0000 0.0000 0.0000 17.7079
#
#
#
# Elastic Compliance Matrix: (Units=1/GPa)
#
#
# Indices 1 2 3 4 5 6 
#
# 1 0.024219 -0.005337 -0.000891 0.000000 0.000000 0.000000
# 2 -0.005337 0.009873 -0.003247 0.000000 0.000000 0.000000
# 3 -0.000891 -0.003247 0.007645 0.000000 0.000000 0.000000
# 4 0.000000 0.000000 0.000000 0.037691 0.000000 0.000000
# 5 0.000000 0.000000 0.000000 0.000000 0.121258 0.000000
# 6 0.000000 0.000000 0.000000 0.000000 0.000000 0.056472
#
#
# Mechanical properties :
#
#
# Convention : Reuss Voigt Hill
#
# Bulk Modulus (GPa) = 43.88089 64.68490 54.28289
# Shear Modulus (GPa) = 17.62395 26.03164 21.82780
#
# Velocity S-wave (km/s) = 2.86853 3.48625 3.19236
# Velocity P-wave (km/s) = 5.60882 6.81219 6.23958
#
# Compressibility (1/GPa) = 0.02278897
#
# Stress axis : x y z
#
# Youngs Moduli (GPa) = 41.28955 101.28240 130.79628
#
# Poissons Ratio (x) = 0.54051 0.11654
# Poissons Ratio (y) = 0.22035 0.42468
# Poissons Ratio (z) = 0.03679 0.32885
#
# Static dielectric constant tensor:
#      x y z
#    x 1.802000 0.000000 0.000000 
#    y 0.000000 1.829270 0.000000 
#    z 0.000000 0.000000 1.790340 
# 
# From -- ./inp_files/48794.got.cif
#   From: 2010.05.17/outbox.cif.g08.bks.cpg/sg63_25_cif.got.tgz:48794.got - 2010.06.03 15:47:04.
