data_PCOD9471997
_publ_section_title
;
Structure prediction by ZEFSAII (Michael W. Deem and Ramdas Pophale) SiO2 
 PCOD9471997
Probable space group: C M C M
;
_chemical_formula_sum "Si O2"
_cell_formula_units_Z 112
_cell_length_a 32.006984
_cell_length_b 13.556504
_cell_length_c 14.161466
_cell_angle_alpha 90.000000
_cell_angle_beta 90.000000
_cell_angle_gamma 90.000000
_cell_volume 6144.699843
_symmetry_space_group_name_H-M "C M C M"
_symmetry_group_IT_number 63
_symmetry_cell_setting 'orthorhombic'
loop_
_space_group_symop_operation_xyz
x,y,z
-x,-y,1/2+z
x,-y,-z
-x,y,1/2-z
-x,-y,-z
x,y,1/2-z
-x,y,z
x,-y,1/2+z
1/2+x,1/2+y,z
1/2-x,1/2-y,1/2+z
1/2+x,1/2-y,-z
1/2-x,1/2+y,1/2-z
1/2-x,1/2-y,-z
1/2+x,1/2+y,1/2-z
1/2-x,1/2+y,z
1/2+x,1/2-y,1/2+z
loop_
_atom_site_type_symbol
_atom_site_label
_atom_site_fract_x
_atom_site_fract_y
_atom_site_fract_z
Si Si1 0.700343 0.578715 0.863032
Si Si2 0.869320 0.615709 0.990315
Si Si3 0.412539 0.269056 0.635824
Si Si4 0.779227 0.310918 0.429264
Si Si5 0.327862 0.369940 0.858606
Si Si6 0.452547 0.384853 0.477245
Si Si7 0.378320 0.713818 0.636264
O O1 0.697253 0.578335 0.750000
O O2 0.746947 0.612753 0.885305
O O3 0.691103 0.468981 0.900351
O O4 0.664238 0.655584 0.894021
O O5 0.878528 0.680700 0.083750
O O6 0.877059 0.500000 0.000000
O O7 0.897594 0.664109 0.906799
O O8 0.820253 0.635224 0.968781
O O9 0.417956 0.267867 0.750000
O O10 0.372978 0.337733 0.605954
O O11 0.448388 0.318436 0.572666
O O12 0.750000 0.250000 0.500000
O O13 0.797901 0.224053 0.364658
O O14 0.335508 0.392074 0.750000
O O15 0.444936 0.500000 0.500000
O O16 0.500000 0.375997 0.441077
O O17 0.418147 0.345850 0.403359
O O18 0.379003 0.721466 0.750000
#
# Coordination Sequence:
#
# PCOD9471997 Si02
#       7
#    16  16  16  16  16  16  16
#     4  10  20  33  52  74 101 142 189 231 273 329
#     4  10  22  38  55  83 112 146 195 246 292 332
#     4   9  19  38  60  81 113 152 189 229 278 338
#     4  11  21  32  47  73 108 142 182 230 284 326
#     4   9  19  34  50  71 101 140 183 224 268 324
#     4  10  21  36  58  93 127 150 177 220 275 340
#     4  10  21  39  58  81 113 152 191 231 279 338
#
# _framework density 18.22709
#
# number of rings (size 3 to 8) (size 9 to 14) (size 15 to 20)
#    0.000    2.143    1.429    1.286    2.000    3.429 
#    0.000    1.429    0.000    6.857    0.000    8.000 
#    0.000    0.000    0.000    0.000    0.000    0.000 
#
# Total GULP energy -312101.618046 kJ/mol
# GULP energy per Si atom -5573.243179 kJ/mol
# Density = 1.818560 g / cm^3
# Si number density = 18.227090 Si / 1000 Ang^3
#
#
#
# Elastic Constant Matrix: (Units=GPa)
#
#
# Indices 1 2 3 4 5 6 
#
# 1 89.9302 41.5606 20.3928 0.0000 0.0000 0.0000
# 2 41.5606 130.1724 24.8164 0.0000 0.0000 0.0000
# 3 20.3928 24.8164 77.0772 0.0000 0.0000 0.0000
# 4 0.0000 0.0000 0.0000 20.8248 0.0000 0.0000
# 5 0.0000 0.0000 0.0000 0.0000 20.2551 0.0000
# 6 0.0000 0.0000 0.0000 0.0000 0.0000 10.7144
#
#
#
# Elastic Compliance Matrix: (Units=1/GPa)
#
#
# Indices 1 2 3 4 5 6 
#
# 1 0.013421 -0.003844 -0.002313 0.000000 0.000000 0.000000
# 2 -0.003844 0.009285 -0.001973 0.000000 0.000000 0.000000
# 3 -0.002313 -0.001973 0.014221 0.000000 0.000000 0.000000
# 4 0.000000 0.000000 0.000000 0.048020 0.000000 0.000000
# 5 0.000000 0.000000 0.000000 0.000000 0.049370 0.000000
# 6 0.000000 0.000000 0.000000 0.000000 0.000000 0.093332
#
#
# Mechanical properties :
#
#
# Convention : Reuss Voigt Hill
#
# Bulk Modulus (GPa) = 48.38421 52.30215 50.34318
# Shear Modulus (GPa) = 19.93633 24.38620 22.16126
#
# Velocity S-wave (km/s) = 3.31081 3.66171 3.49068
# Velocity P-wave (km/s) = 6.42014 6.82895 6.62770
#
# Compressibility (1/GPa) = 0.02066790
#
# Stress axis : x y z
#
# Youngs Moduli (GPa) = 74.51174 107.69562 70.31789
#
# Poissons Ratio (x) = 0.41397 0.16266
# Poissons Ratio (y) = 0.28641 0.13871
# Poissons Ratio (z) = 0.17236 0.21244
#
# Static dielectric constant tensor:
#      x y z
#    x 0.039000 0.000000 0.000000 
#    y 0.000000 0.655040 0.000000 
#    z 0.000000 0.000000 1.617180 
# 
# From -- ./inp_files/38510.got.cif
#   From: 2010.05.17/outbox.cif.g08.bks.cpg/sg63_20_cif.got.tgz:38510.got - 2010.06.03 15:47:04.
