data_PCOD9471686
_publ_section_title
;
Structure prediction by ZEFSAII (Michael W. Deem and Ramdas Pophale) SiO2 
 PCOD9471686
Probable space group: C M C M
;
_chemical_formula_sum "Si O2"
_cell_formula_units_Z 80
_cell_length_a 7.319300
_cell_length_b 29.211401
_cell_length_c 16.632430
_cell_angle_alpha 90.000000
_cell_angle_beta 90.000000
_cell_angle_gamma 90.000000
_cell_volume 3556.130083
_symmetry_space_group_name_H-M "C M C M"
_symmetry_group_IT_number 63
_symmetry_cell_setting 'orthorhombic'
loop_
_space_group_symop_operation_xyz
x,y,z
-x,-y,1/2+z
x,-y,-z
-x,y,1/2-z
-x,-y,-z
x,y,1/2-z
-x,y,z
x,-y,1/2+z
1/2+x,1/2+y,z
1/2-x,1/2-y,1/2+z
1/2+x,1/2-y,-z
1/2-x,1/2+y,1/2-z
1/2-x,1/2-y,-z
1/2+x,1/2+y,1/2-z
1/2-x,1/2+y,z
1/2+x,1/2-y,1/2+z
loop_
_atom_site_type_symbol
_atom_site_label
_atom_site_fract_x
_atom_site_fract_y
_atom_site_fract_z
Si Si1 0.220785 0.099436 0.750000
Si Si2 0.717668 0.765145 0.906988
Si Si3 0.792670 0.637878 0.433092
Si Si4 0.223827 0.533645 0.426460
Si Si5 0.794684 0.505065 0.250000
Si Si6 0.277945 0.667908 0.887861
O O1 0.275463 0.129010 0.673614
O O2 0.000000 0.095360 0.750000
O O3 0.299853 0.049445 0.750000
O O4 0.500000 0.768863 0.895573
O O5 0.790897 0.816369 0.891826
O O6 0.780257 0.719153 0.862310
O O7 0.750000 0.750000 0.000000
O O8 0.715445 0.586646 0.433758
O O9 0.795139 0.653822 0.525553
O O10 0.000000 0.633024 0.402096
O O11 0.281854 0.500000 0.500000
O O12 0.284250 0.518299 0.337106
O O13 0.000000 0.532455 0.428987
O O14 0.000000 0.524825 0.250000
O O15 0.500000 0.668682 0.893106
#
# Coordination Sequence:
#
# PCOD9471686 Si02
#       6
#     8  16  16  16   8  16
#     4  10  20  32  45  63  91 121 148 186 231 272
#     4   8  14  25  42  63  86 112 143 179 219 264
#     4   9  16  28  47  68  89 116 151 188 224 268
#     4   9  17  29  46  69  94 118 149 190 230 267
#     4  10  20  34  51  69  91 121 154 190 233 274
#     4   9  17  29  44  65  92 120 150 185 228 273
#
# _framework density 22.496365999999998
#
# number of rings (size 3 to 8) (size 9 to 14) (size 15 to 20)
#    0.000    3.000    0.000    1.200    0.000    2.400 
#    0.000    2.000    0.000    9.600    0.000    0.000 
#    0.000    8.000    0.000    0.000    0.000    0.000 
#
# Total GULP energy -222796.275879 kJ/mol
# GULP energy per Si atom -5569.906897 kJ/mol
# Density = 2.244516 g / cm^3
# Si number density = 22.496366 Si / 1000 Ang^3
#
#
#
# Elastic Constant Matrix: (Units=GPa)
#
#
# Indices 1 2 3 4 5 6 
#
# 1 90.4319 6.2637 -0.0705 0.0000 0.0000 0.0000
# 2 6.2637 256.7342 68.5245 0.0000 0.0000 0.0000
# 3 -0.0705 68.5245 83.4166 0.0000 0.0000 0.0000
# 4 0.0000 0.0000 0.0000 13.5908 0.0000 0.0000
# 5 0.0000 0.0000 0.0000 0.0000 -3.2306 0.0000
# 6 0.0000 0.0000 0.0000 0.0000 0.0000 32.7786
#
#
#
# Elastic Compliance Matrix: (Units=1/GPa)
#
#
# Indices 1 2 3 4 5 6 
#
# 1 0.011082 -0.000350 0.000296 0.000000 0.000000 0.000000
# 2 -0.000350 0.005000 -0.004108 0.000000 0.000000 0.000000
# 3 0.000296 -0.004108 0.015363 0.000000 0.000000 0.000000
# 4 0.000000 0.000000 0.000000 0.073579 0.000000 0.000000
# 5 0.000000 0.000000 0.000000 0.000000 -0.309539 0.000000
# 6 0.000000 0.000000 0.000000 0.000000 0.000000 0.030508
#
#
# Mechanical properties :
#
#
# Convention : Reuss Voigt Hill
#
# Bulk Modulus (GPa) = 43.24567 64.44647 53.84607
# Shear Modulus (GPa) = -31.65006 32.35210 0.35102
#
# Velocity S-wave (km/s) = -3.75493 3.79635 0.39544
# Velocity P-wave (km/s) = 0.68249 6.92286 4.91893
#
# Compressibility (1/GPa) = 0.02312370
#
# Stress axis : x y z
#
# Youngs Moduli (GPa) = 90.23247 200.00123 65.09317
#
# Poissons Ratio (x) = 0.06990 -0.01930
# Poissons Ratio (y) = 0.03154 0.26738
# Poissons Ratio (z) = -0.02675 0.82153
#
# Static dielectric constant tensor:
#      x y z
#    x 1.847660 0.000000 0.000000 
#    y 0.000000 1.853120 0.000000 
#    z 0.000000 0.000000 1.803380 
# 
# From -- ./inp_files/40587.got.cif
#   From: 2010.05.17/outbox.cif.g08.bks.cpg/sg63_21_cif.got.tgz:40587.got - 2010.06.03 15:47:04.
