data_PCOD9471598
_publ_section_title
;
Structure prediction by ZEFSAII (Michael W. Deem and Ramdas Pophale) SiO2 
 PCOD9471598
Probable space group: C M C M
;
_chemical_formula_sum "Si O2"
_cell_formula_units_Z 48
_cell_length_a 7.312615
_cell_length_b 22.440924
_cell_length_c 13.415814
_cell_angle_alpha 90.000000
_cell_angle_beta 90.000000
_cell_angle_gamma 90.000000
_cell_volume 2201.559728
_symmetry_space_group_name_H-M "C M C M"
_symmetry_group_IT_number 63
_symmetry_cell_setting 'orthorhombic'
loop_
_space_group_symop_operation_xyz
x,y,z
-x,-y,1/2+z
x,-y,-z
-x,y,1/2-z
-x,-y,-z
x,y,1/2-z
-x,y,z
x,-y,1/2+z
1/2+x,1/2+y,z
1/2-x,1/2-y,1/2+z
1/2+x,1/2-y,-z
1/2-x,1/2+y,1/2-z
1/2-x,1/2-y,-z
1/2+x,1/2+y,1/2-z
1/2-x,1/2+y,z
1/2+x,1/2-y,1/2+z
loop_
_atom_site_type_symbol
_atom_site_label
_atom_site_fract_x
_atom_site_fract_y
_atom_site_fract_z
Si Si1 0.721138 0.848903 0.641146
Si Si2 0.207576 0.400115 0.250000
Si Si3 0.719914 0.736882 0.750000
Si Si4 0.723697 0.066058 0.965964
O O1 0.772013 0.876105 0.750000
O O2 0.500000 0.849904 0.637365
O O3 0.772808 0.779406 0.656404
O O4 0.786998 0.885181 0.546666
O O5 0.202831 0.328480 0.250000
O O6 0.289187 0.420565 0.145410
O O7 0.000000 0.423826 0.250000
O O8 0.500000 0.731207 0.750000
O O9 0.500000 0.069014 0.965159
O O10 0.773899 0.000000 0.000000
#
# Coordination Sequence:
#
# PCOD9471598 Si02
#       4
#    16   8   8  16
#     4   7  13  26  44  62  82 117 156 177 206 267
#     4  10  20  29  43  73  97 110 143 194 232 256
#     4   8  16  31  49  65  87 124 157 176 210 272
#     4   9  17  27  42  65  95 121 143 183 232 269
#
# _framework density 21.802724999999999
#
# number of rings (size 3 to 8) (size 9 to 14) (size 15 to 20)
#    1.000    2.667    0.000    0.000    2.333    1.333 
#    0.000    0.000    0.000    1.000    0.000    2.333 
#    0.000    0.000    0.000    0.000    0.000    0.000 
#
# Total GULP energy -133622.541606 kJ/mol
# GULP energy per Si atom -5567.605900 kJ/mol
# Density = 2.175310 g / cm^3
# Si number density = 21.802725 Si / 1000 Ang^3
#
#
#
# Elastic Constant Matrix: (Units=GPa)
#
#
# Indices 1 2 3 4 5 6 
#
# 1 87.0673 -2.1393 5.5618 0.0000 0.0000 0.0000
# 2 -2.1393 126.0851 102.6071 0.0000 0.0000 0.0000
# 3 5.5618 102.6071 208.4986 0.0000 0.0000 0.0000
# 4 0.0000 0.0000 0.0000 39.7707 0.0000 0.0000
# 5 0.0000 0.0000 0.0000 0.0000 -24.3192 0.0000
# 6 0.0000 0.0000 0.0000 0.0000 0.0000 12.9208
#
#
#
# Elastic Compliance Matrix: (Units=1/GPa)
#
#
# Indices 1 2 3 4 5 6 
#
# 1 0.011547 0.000745 -0.000675 0.000000 0.000000 0.000000
# 2 0.000745 0.013277 -0.006554 0.000000 0.000000 0.000000
# 3 -0.000675 -0.006554 0.008040 0.000000 0.000000 0.000000
# 4 0.000000 0.000000 0.000000 0.025144 0.000000 0.000000
# 5 0.000000 0.000000 0.000000 0.000000 -0.041120 0.000000
# 6 0.000000 0.000000 0.000000 0.000000 0.000000 0.077394
#
#
# Mechanical properties :
#
#
# Convention : Reuss Voigt Hill
#
# Bulk Modulus (GPa) = 50.26051 70.41224 60.33638
# Shear Modulus (GPa) = 43.90516 26.71590 35.31053
#
# Velocity S-wave (km/s) = 4.49235 3.50429 4.02873
# Velocity P-wave (km/s) = 7.07182 6.98131 7.02671
#
# Compressibility (1/GPa) = 0.01989633
#
# Stress axis : x y z
#
# Youngs Moduli (GPa) = 86.60439 75.31608 124.38487
#
# Poissons Ratio (x) = -0.05610 0.08391
# Poissons Ratio (y) = -0.06451 0.81522
# Poissons Ratio (z) = 0.05842 0.49362
#
# Static dielectric constant tensor:
#      x y z
#    x 1.844120 0.000000 0.000000 
#    y 0.000000 1.750750 0.000000 
#    z 0.000000 0.000000 1.796730 
# 
# From -- ./inp_files/15761.got.cif
#   From: 2010.05.17/outbox.cif.g08.bks.cpg/sg63_8_cif.got.tgz:15761.got - 2010.06.03 15:47:04.
