data_PCOD9471667
_publ_section_title
;
Structure prediction by ZEFSAII (Michael W. Deem and Ramdas Pophale) SiO2 
 PCOD9471667
Probable space group: C M C M
;
_chemical_formula_sum "Si O2"
_cell_formula_units_Z 64
_cell_length_a 18.447745
_cell_length_b 9.086003
_cell_length_c 19.942315
_cell_angle_alpha 90.000000
_cell_angle_beta 90.000000
_cell_angle_gamma 90.000000
_cell_volume 3342.656384
_symmetry_space_group_name_H-M "C M C M"
_symmetry_group_IT_number 63
_symmetry_cell_setting 'orthorhombic'
loop_
_space_group_symop_operation_xyz
x,y,z
-x,-y,1/2+z
x,-y,-z
-x,y,1/2-z
-x,-y,-z
x,y,1/2-z
-x,y,z
x,-y,1/2+z
1/2+x,1/2+y,z
1/2-x,1/2-y,1/2+z
1/2+x,1/2-y,-z
1/2-x,1/2+y,1/2-z
1/2-x,1/2-y,-z
1/2+x,1/2+y,1/2-z
1/2-x,1/2+y,z
1/2+x,1/2-y,1/2+z
loop_
_atom_site_type_symbol
_atom_site_label
_atom_site_fract_x
_atom_site_fract_y
_atom_site_fract_z
Si Si1 0.345072 0.762383 0.965645
Si Si2 0.652176 0.754473 0.371889
Si Si3 0.743661 0.504844 0.605498
Si Si4 0.500000 0.133732 0.672413
Si Si5 0.500000 0.884845 0.562517
O O1 0.307508 0.615279 0.937127
O O2 0.426899 0.789953 0.941514
O O3 0.295798 0.897378 0.938332
O O4 0.347991 0.759393 0.046271
O O5 0.691617 0.603542 0.353722
O O6 0.702915 0.891571 0.352346
O O7 0.571926 0.775694 0.345831
O O8 0.500000 0.096655 0.750000
O O9 0.500000 0.987372 0.627502
O O10 0.500000 0.000000 0.500000
#
# Coordination Sequence:
#
# PCOD9471667 Si02
#       5
#    16  16  16   8   8
#     4  11  18  32  58  93 122 145 183 238 295 344
#     4  11  19  36  57  87 121 150 188 232 292 347
#     4  10  20  31  59  96 123 144 180 242 296 347
#     4  12  26  41  57  79 117 162 201 242 293 352
#     4  12  20  37  59  86 111 156 199 244 292 349
#
# _framework density 19.146449
#
# number of rings (size 3 to 8) (size 9 to 14) (size 15 to 20)
#    0.000    1.000    5.000    6.000    0.000    1.000 
#    0.000    3.750    0.000    3.000    0.000    0.000 
#    0.000    0.000    0.000    0.000    0.000    0.000 
#
# Total GULP energy -178797.037324 kJ/mol
# GULP energy per Si atom -5587.407416 kJ/mol
# Density = 1.910287 g / cm^3
# Si number density = 19.146449 Si / 1000 Ang^3
#
#
#
# Elastic Constant Matrix: (Units=GPa)
#
#
# Indices 1 2 3 4 5 6 
#
# 1 203.5857 71.3002 30.6570 0.0000 0.0000 0.0000
# 2 71.3002 122.9927 15.0879 0.0000 0.0000 0.0000
# 3 30.6570 15.0879 47.2703 0.0000 0.0000 0.0000
# 4 0.0000 0.0000 0.0000 9.6487 0.0000 0.0000
# 5 0.0000 0.0000 0.0000 0.0000 -0.5890 0.0000
# 6 0.0000 0.0000 0.0000 0.0000 0.0000 27.1264
#
#
#
# Elastic Compliance Matrix: (Units=1/GPa)
#
#
# Indices 1 2 3 4 5 6 
#
# 1 0.006593 -0.003432 -0.003180 0.000000 0.000000 0.000000
# 2 -0.003432 0.010248 -0.001045 0.000000 0.000000 0.000000
# 3 -0.003180 -0.001045 0.023551 0.000000 0.000000 0.000000
# 4 0.000000 0.000000 0.000000 0.103641 0.000000 0.000000
# 5 0.000000 0.000000 0.000000 0.000000 -1.697672 0.000000
# 6 0.000000 0.000000 0.000000 0.000000 0.000000 0.036864
#
#
# Mechanical properties :
#
#
# Convention : Reuss Voigt Hill
#
# Bulk Modulus (GPa) = 39.87693 67.54878 53.71285
# Shear Modulus (GPa) = -3.34874 24.35746 10.50436
#
# Velocity S-wave (km/s) = -1.32394 3.57061 2.34483
# Velocity P-wave (km/s) = 4.30528 7.23572 5.95362
#
# Compressibility (1/GPa) = 0.02507716
#
# Stress axis : x y z
#
# Youngs Moduli (GPa) = 151.68268 97.57795 42.46067
#
# Poissons Ratio (x) = 0.33486 0.13504
# Poissons Ratio (y) = 0.52053 0.04439
# Poissons Ratio (z) = 0.48240 0.10201
#
# Static dielectric constant tensor:
#      x y z
#    x 1.680530 0.000000 0.000000 
#    y 0.000000 1.693270 0.000000 
#    z 0.000000 0.000000 1.650130 
# 
# From -- ./inp_files/55042.got.cif
#   From: 2010.05.17/outbox.cif.g08.bks.cpg/sg63_28_cif.got.tgz:55042.got - 2010.06.03 15:47:04.
