data_PCOD9471584
_publ_section_title
;
Structure prediction by ZEFSAII (Michael W. Deem and Ramdas Pophale) SiO2 
 PCOD9471584
Probable space group: C M C M
;
_chemical_formula_sum "Si O2"
_cell_formula_units_Z 72
_cell_length_a 10.507812
_cell_length_b 15.018219
_cell_length_c 25.445926
_cell_angle_alpha 90.000000
_cell_angle_beta 90.000000
_cell_angle_gamma 90.000000
_cell_volume 4015.586513
_symmetry_space_group_name_H-M "C M C M"
_symmetry_group_IT_number 63
_symmetry_cell_setting 'orthorhombic'
loop_
_space_group_symop_operation_xyz
x,y,z
-x,-y,1/2+z
x,-y,-z
-x,y,1/2-z
-x,-y,-z
x,y,1/2-z
-x,y,z
x,-y,1/2+z
1/2+x,1/2+y,z
1/2-x,1/2-y,1/2+z
1/2+x,1/2-y,-z
1/2-x,1/2+y,1/2-z
1/2-x,1/2-y,-z
1/2+x,1/2+y,1/2-z
1/2-x,1/2+y,z
1/2+x,1/2-y,1/2+z
loop_
_atom_site_type_symbol
_atom_site_label
_atom_site_fract_x
_atom_site_fract_y
_atom_site_fract_z
Si Si1 0.000000 0.026651 0.311229
Si Si2 0.741578 0.676847 0.074386
Si Si3 0.500000 0.916367 0.188348
Si Si4 0.000000 0.220882 0.355031
Si Si5 0.646836 0.358630 0.457078
Si Si6 0.741148 0.009332 0.626257
O O1 0.000000 0.002674 0.250000
O O2 0.000000 0.133439 0.318827
O O3 0.872464 0.993449 0.340412
O O4 0.622585 0.714683 0.107349
O O5 0.837127 0.758630 0.065651
O O6 0.788192 0.589599 0.104880
O O7 0.693134 0.645855 0.017124
O O8 0.500000 0.935483 0.250000
O O9 0.500000 0.810862 0.177605
O O10 0.374750 0.955913 0.160881
O O11 0.500000 0.386961 0.455132
O O12 0.731205 0.425475 0.422677
#
# Coordination Sequence:
#
# PCOD9471584 Si02
#       6
#     8  16   8   8  16  16
#     4  10  21  39  62  85 109 154 206 254 291 345
#     4  10  22  37  59  91 123 152 192 238 294 366
#     4  12  25  42  60  85 119 160 206 259 305 341
#     4  10  19  39  61  83 115 155 200 240 294 350
#     4  11  21  37  61  91 124 160 191 237 297 365
#     4  11  23  39  62  86 121 156 199 246 299 354
#
# _framework density 17.930133999999999
#
# number of rings (size 3 to 8) (size 9 to 14) (size 15 to 20)
#    0.000    1.333    4.444    1.667    1.556    0.889 
#    0.000    1.111    0.000    1.333    0.000    0.000 
#    0.000    0.000    0.000    0.000    0.000    0.000 
#
# Total GULP energy -201102.654349 kJ/mol
# GULP energy per Si atom -5586.184843 kJ/mol
# Density = 1.788932 g / cm^3
# Si number density = 17.930134 Si / 1000 Ang^3
#
#
#
# Elastic Constant Matrix: (Units=GPa)
#
#
# Indices 1 2 3 4 5 6 
#
# 1 75.8070 16.9227 6.3468 0.0000 0.0000 0.0000
# 2 16.9227 59.3396 0.4377 0.0000 0.0000 0.0000
# 3 6.3468 0.4377 48.6845 0.0000 0.0000 0.0000
# 4 0.0000 0.0000 0.0000 17.0435 0.0000 0.0000
# 5 0.0000 0.0000 0.0000 0.0000 14.2650 0.0000
# 6 0.0000 0.0000 0.0000 0.0000 0.0000 -3.5325
#
#
#
# Elastic Compliance Matrix: (Units=1/GPa)
#
#
# Indices 1 2 3 4 5 6 
#
# 1 0.014248 -0.004050 -0.001821 0.000000 0.000000 0.000000
# 2 -0.004050 0.018004 0.000366 0.000000 0.000000 0.000000
# 3 -0.001821 0.000366 0.020775 0.000000 0.000000 0.000000
# 4 0.000000 0.000000 0.000000 0.058673 0.000000 0.000000
# 5 0.000000 0.000000 0.000000 0.000000 0.070101 0.000000
# 6 0.000000 0.000000 0.000000 0.000000 0.000000 -0.283084
#
#
# Mechanical properties :
#
#
# Convention : Reuss Voigt Hill
#
# Bulk Modulus (GPa) = 23.79973 25.69394 24.74683
# Shear Modulus (GPa) = -65.55882 16.23013 -24.66434
#
# Velocity S-wave (km/s) = -6.05333 3.01190 -3.71291
# Velocity P-wave (km/s) = 5.96278 5.14359 2.13287
#
# Compressibility (1/GPa) = 0.04201729
#
# Stress axis : x y z
#
# Youngs Moduli (GPa) = 70.18564 55.54196 48.13589
#
# Poissons Ratio (x) = 0.22494 0.08766
# Poissons Ratio (y) = 0.28424 -0.01762
# Poissons Ratio (z) = 0.12781 -0.02033
#
# Static dielectric constant tensor:
#      x y z
#    x 1.588810 0.000000 0.000000 
#    y 0.000000 1.607190 0.000000 
#    z 0.000000 0.000000 1.582060 
# 
# From -- ./inp_files/66382.got.cif
#   From: 2010.05.17/outbox.cif.g08.bks.cpg/sg63_34_cif.got.tgz:66382.got - 2010.06.03 15:47:04.
