data_PCOD9471112
_publ_section_title
;
Structure prediction by ZEFSAII (Michael W. Deem and Ramdas Pophale) SiO2 
 PCOD9471112
Probable space group: C M C M
;
_chemical_formula_sum "Si O2"
_cell_formula_units_Z 112
_cell_length_a 16.336850
_cell_length_b 23.664467
_cell_length_c 14.645802
_cell_angle_alpha 90.000000
_cell_angle_beta 90.000000
_cell_angle_gamma 90.000000
_cell_volume 5662.108760
_symmetry_space_group_name_H-M "C M C M"
_symmetry_group_IT_number 63
_symmetry_cell_setting 'orthorhombic'
loop_
_space_group_symop_operation_xyz
x,y,z
-x,-y,1/2+z
x,-y,-z
-x,y,1/2-z
-x,-y,-z
x,y,1/2-z
-x,y,z
x,-y,1/2+z
1/2+x,1/2+y,z
1/2-x,1/2-y,1/2+z
1/2+x,1/2-y,-z
1/2-x,1/2+y,1/2-z
1/2-x,1/2-y,-z
1/2+x,1/2+y,1/2-z
1/2-x,1/2+y,z
1/2+x,1/2-y,1/2+z
loop_
_atom_site_type_symbol
_atom_site_label
_atom_site_fract_x
_atom_site_fract_y
_atom_site_fract_z
Si Si1 0.762359 0.956003 0.419133
Si Si2 0.588941 0.102627 0.138971
Si Si3 0.226219 0.310018 0.642116
Si Si4 0.409379 0.286761 0.353846
Si Si5 0.407807 0.536320 0.144931
Si Si6 0.354977 0.360338 0.516088
Si Si7 0.587441 0.027028 0.641191
O O1 0.792997 0.896881 0.455660
O O2 0.674677 0.945563 0.374812
O O3 0.746515 0.000000 0.500000
O O4 0.837072 0.988986 0.368173
O O5 0.589407 0.103420 0.250000
O O6 0.500000 0.124885 0.109823
O O7 0.667327 0.138242 0.112365
O O8 0.594172 0.037916 0.108274
O O9 0.246369 0.316042 0.750000
O O10 0.166799 0.255906 0.633747
O O11 0.306560 0.316032 0.580371
O O12 0.400844 0.311284 0.250000
O O13 0.500000 0.258847 0.353891
O O14 0.407612 0.329015 0.439251
O O15 0.403285 0.555138 0.250000
O O16 0.500000 0.513524 0.127577
O O17 0.394562 0.590734 0.079930
O O18 0.580597 0.023554 0.750000
O O19 0.500000 0.050761 0.606707
#
# Coordination Sequence:
#
# PCOD9471112 Si02
#       7
#    16  16  16  16  16  16  16
#     4  10  21  33  49  75 109 146 182 223 269 325
#     4   8  13  23  44  73 101 131 168 210 258 312
#     4  10  19  34  57  81 107 137 172 221 278 337
#     4  10  22  39  58  80 106 140 184 233 285 338
#     4  10  21  37  58  84 115 153 194 233 276 329
#     4  11  22  36  55  82 113 144 181 229 285 338
#     4   9  17  30  48  70  99 136 176 218 265 320
#
# _framework density 19.780615999999998
#
# number of rings (size 3 to 8) (size 9 to 14) (size 15 to 20)
#    0.000    2.286    0.000    4.714    0.000    7.429 
#    0.000    2.857    0.000    0.000    0.000    0.000 
#    0.000    0.000    0.000    0.000    0.000    0.000 
#
# Total GULP energy -311876.780350 kJ/mol
# GULP energy per Si atom -5569.228221 kJ/mol
# Density = 1.973559 g / cm^3
# Si number density = 19.780616 Si / 1000 Ang^3
#
#
#
# Elastic Constant Matrix: (Units=GPa)
#
#
# Indices 1 2 3 4 5 6 
#
# 1 132.1881 24.6229 54.9261 0.0000 0.0000 0.0000
# 2 24.6229 36.7571 29.9879 0.0000 0.0000 0.0000
# 3 54.9261 29.9879 85.1433 0.0000 0.0000 0.0000
# 4 0.0000 0.0000 0.0000 22.8289 0.0000 0.0000
# 5 0.0000 0.0000 0.0000 0.0000 -115.1636 0.0000
# 6 0.0000 0.0000 0.0000 0.0000 0.0000 11.4036
#
#
#
# Elastic Compliance Matrix: (Units=1/GPa)
#
#
# Indices 1 2 3 4 5 6 
#
# 1 0.010450 -0.002105 -0.006000 0.000000 0.000000 0.000000
# 2 -0.002105 0.038599 -0.012237 0.000000 0.000000 0.000000
# 3 -0.006000 -0.012237 0.019925 0.000000 0.000000 0.000000
# 4 0.000000 0.000000 0.000000 0.043804 0.000000 0.000000
# 5 0.000000 0.000000 0.000000 0.000000 -0.008683 0.000000
# 6 0.000000 0.000000 0.000000 0.000000 0.000000 0.087691
#
#
# Mechanical properties :
#
#
# Convention : Reuss Voigt Hill
#
# Bulk Modulus (GPa) = 35.34727 52.57361 43.96044
# Shear Modulus (GPa) = 20.66962 -6.54943 7.06009
#
# Velocity S-wave (km/s) = 3.23606 -1.82160 1.89128
# Velocity P-wave (km/s) = 5.64546 4.71293 5.20014
#
# Compressibility (1/GPa) = 0.02829073
#
# Stress axis : x y z
#
# Youngs Moduli (GPa) = 95.69183 25.90727 50.18750
#
# Poissons Ratio (x) = 0.05455 0.30112
# Poissons Ratio (y) = 0.20147 0.61413
# Poissons Ratio (z) = 0.57414 0.31702
#
# Static dielectric constant tensor:
#      x y z
#    x 1.848010 0.000000 0.000000 
#    y 0.000000 1.696210 0.000000 
#    z 0.000000 0.000000 1.732150 
# 
# From -- ./inp_files/32352.got.cif
#   From: 2010.05.17/outbox.cif.g08.bks.cpg/sg63_17_cif.got.tgz:32352.got - 2010.06.03 15:47:04.
