data_PCOD9471243
_publ_section_title
;
Structure prediction by ZEFSAII (Michael W. Deem and Ramdas Pophale) SiO2 
 PCOD9471243
Probable space group: C M C M
;
_chemical_formula_sum "Si O2"
_cell_formula_units_Z 116
_cell_length_a 25.566084
_cell_length_b 17.804822
_cell_length_c 14.599817
_cell_angle_alpha 90.000000
_cell_angle_beta 90.000000
_cell_angle_gamma 90.000000
_cell_volume 6645.830491
_symmetry_space_group_name_H-M "C M C M"
_symmetry_group_IT_number 63
_symmetry_cell_setting 'orthorhombic'
loop_
_space_group_symop_operation_xyz
x,y,z
-x,-y,1/2+z
x,-y,-z
-x,y,1/2-z
-x,-y,-z
x,y,1/2-z
-x,y,z
x,-y,1/2+z
1/2+x,1/2+y,z
1/2-x,1/2-y,1/2+z
1/2+x,1/2-y,-z
1/2-x,1/2+y,1/2-z
1/2-x,1/2-y,-z
1/2+x,1/2+y,1/2-z
1/2-x,1/2+y,z
1/2+x,1/2-y,1/2+z
loop_
_atom_site_type_symbol
_atom_site_label
_atom_site_fract_x
_atom_site_fract_y
_atom_site_fract_z
Si Si1 0.412169 0.536404 0.597245
Si Si2 0.657895 0.723209 0.148797
Si Si3 0.311794 0.553465 0.146076
Si Si4 0.716155 0.079974 0.008535
Si Si5 0.236686 0.182129 0.643994
Si Si6 0.000000 0.997194 0.250000
Si Si7 0.560773 0.297528 0.140887
Si Si8 0.352371 0.777756 0.547016
O O1 0.423881 0.500000 0.500000
O O2 0.353356 0.511063 0.622896
O O3 0.453940 0.507696 0.670908
O O4 0.417922 0.626166 0.595518
O O5 0.637353 0.744812 0.250000
O O6 0.658068 0.633427 0.142476
O O7 0.717711 0.754190 0.145053
O O8 0.633164 0.757778 0.057837
O O9 0.292436 0.543718 0.250000
O O10 0.264722 0.563001 0.075470
O O11 0.678320 0.144023 0.047303
O O12 0.739150 0.113177 0.913308
O O13 0.688260 0.000000 0.000000
O O14 0.223460 0.165183 0.750000
O O15 0.188643 0.216656 0.587442
O O16 0.564547 0.308592 0.250000
O O17 0.500000 0.288533 0.118052
O O18 0.596470 0.229374 0.108365
#
# Coordination Sequence:
#
# PCOD9471243 Si02
#       8
#    16  16  16  16  16   4  16  16
#     4  12  23  39  58  78 114 156 194 243 284 326
#     4   9  17  32  53  76 110 145 186 231 274 326
#     4  11  20  33  52  79 115 152 189 230 278 334
#     4  11  23  37  53  84 120 146 184 227 283 350
#     4  10  19  35  55  80 109 150 190 232 275 333
#     4  12  22  44  52  78 112 156 200 242 284 322
#     4  11  23  41  60  83 110 145 196 248 283 322
#     4  11  20  37  58  79 108 147 190 229 287 334
#
# _framework density 17.454554000000002
#
# number of rings (size 3 to 8) (size 9 to 14) (size 15 to 20)
#    0.000    1.241    4.828    2.690    1.931    1.103 
#    0.000    0.000    0.000    0.828    0.000    0.000 
#    0.000    0.000    0.000    0.000    0.000    0.000 
#
# Total GULP energy -323348.379299 kJ/mol
# GULP energy per Si atom -5574.972057 kJ/mol
# Density = 1.741483 g / cm^3
# Si number density = 17.454554 Si / 1000 Ang^3
#
#
#
# Elastic Constant Matrix: (Units=GPa)
#
#
# Indices 1 2 3 4 5 6 
#
# 1 64.2683 42.2485 29.1002 0.0000 0.0000 0.0000
# 2 42.2485 85.0574 29.6673 0.0000 0.0000 0.0000
# 3 29.1002 29.6673 100.0694 0.0000 0.0000 0.0000
# 4 0.0000 0.0000 0.0000 12.6448 0.0000 0.0000
# 5 0.0000 0.0000 0.0000 0.0000 16.2367 0.0000
# 6 0.0000 0.0000 0.0000 0.0000 0.0000 8.7364
#
#
#
# Elastic Compliance Matrix: (Units=1/GPa)
#
#
# Indices 1 2 3 4 5 6 
#
# 1 0.024400 -0.010757 -0.003906 0.000000 0.000000 0.000000
# 2 -0.010757 0.017855 -0.002165 0.000000 0.000000 0.000000
# 3 -0.003906 -0.002165 0.011771 0.000000 0.000000 0.000000
# 4 0.000000 0.000000 0.000000 0.079084 0.000000 0.000000
# 5 0.000000 0.000000 0.000000 0.000000 0.061589 0.000000
# 6 0.000000 0.000000 0.000000 0.000000 0.000000 0.114464
#
#
# Mechanical properties :
#
#
# Convention : Reuss Voigt Hill
#
# Bulk Modulus (GPa) = 49.09532 50.15854 49.62693
# Shear Modulus (GPa) = 14.30166 17.41552 15.85859
#
# Velocity S-wave (km/s) = 2.86556 3.16217 3.01751
# Velocity P-wave (km/s) = 6.25597 6.49087 6.37450
#
# Compressibility (1/GPa) = 0.02036854
#
# Stress axis : x y z
#
# Youngs Moduli (GPa) = 40.98360 56.00635 84.95467
#
# Poissons Ratio (x) = 0.60247 0.33187
# Poissons Ratio (y) = 0.44086 0.18395
# Poissons Ratio (z) = 0.16010 0.12127
#
# Static dielectric constant tensor:
#      x y z
#    x 1.584230 0.000000 0.000000 
#    y 0.000000 1.617820 0.000000 
#    z 0.000000 0.000000 1.632540 
# 
# From -- ./inp_files/38094.got.cif
#   From: 2010.05.17/outbox.cif.g08.bks.cpg/sg63_20_cif.got.tgz:38094.got - 2010.06.03 15:47:04.
