data_PCOD9471771
_publ_section_title
;
Structure prediction by ZEFSAII (Michael W. Deem and Ramdas Pophale) SiO2 
 PCOD9471771
Probable space group: C M C M
;
_chemical_formula_sum "Si O2"
_cell_formula_units_Z 96
_cell_length_a 23.024161
_cell_length_b 13.604882
_cell_length_c 17.475985
_cell_angle_alpha 90.000000
_cell_angle_beta 90.000000
_cell_angle_gamma 90.000000
_cell_volume 5474.194905
_symmetry_space_group_name_H-M "C M C M"
_symmetry_group_IT_number 63
_symmetry_cell_setting 'orthorhombic'
loop_
_space_group_symop_operation_xyz
x,y,z
-x,-y,1/2+z
x,-y,-z
-x,y,1/2-z
-x,-y,-z
x,y,1/2-z
-x,y,z
x,-y,1/2+z
1/2+x,1/2+y,z
1/2-x,1/2-y,1/2+z
1/2+x,1/2-y,-z
1/2-x,1/2+y,1/2-z
1/2-x,1/2-y,-z
1/2+x,1/2+y,1/2-z
1/2-x,1/2+y,z
1/2+x,1/2-y,1/2+z
loop_
_atom_site_type_symbol
_atom_site_label
_atom_site_fract_x
_atom_site_fract_y
_atom_site_fract_z
Si Si1 0.431924 0.957312 0.581684
Si Si2 0.842817 0.665784 0.161881
Si Si3 0.068377 0.338499 0.160657
Si Si4 0.710635 0.346637 0.417144
Si Si5 0.775435 0.051760 0.160761
Si Si6 0.670608 0.269785 0.921732
O O1 0.500000 0.933542 0.576202
O O2 0.424311 0.045810 0.642200
O O3 0.412910 0.000000 0.500000
O O4 0.394728 0.864950 0.607044
O O5 0.860088 0.657696 0.250000
O O6 0.818263 0.773345 0.144105
O O7 0.790276 0.589341 0.146779
O O8 0.082426 0.319848 0.250000
O O9 0.110688 0.279698 0.103845
O O10 0.000000 0.315983 0.148116
O O11 0.709458 0.458605 0.390924
O O12 0.677668 0.323003 0.496341
O O13 0.777821 0.311506 0.423291
O O14 0.780826 0.026088 0.250000
O O15 0.813842 0.146253 0.139805
#
# Coordination Sequence:
#
# PCOD9471771 Si02
#       6
#    16  16  16  16  16  16
#     4  10  20  33  50  73 102 135 169 206 248 296
#     4  10  20  32  49  74 102 133 168 206 250 300
#     4  10  20  34  54  78 102 132 172 216 258 298
#     4  10  20  33  51  75 104 135 166 204 252 305
#     4  10  20  33  51  75 102 132 167 208 253 301
#     4  10  20  34  53  76 102 133 168 207 253 304
#
# _framework density 17.536825
#
# number of rings (size 3 to 8) (size 9 to 14) (size 15 to 20)
#    0.000    2.000    0.000    4.000    0.000    7.000 
#    0.000    0.000    0.000    3.000    0.000    0.000 
#    0.000    0.000    0.000    0.000    0.000    0.000 
#
# Total GULP energy -267927.823672 kJ/mol
# GULP energy per Si atom -5581.829660 kJ/mol
# Density = 1.749691 g / cm^3
# Si number density = 17.536825 Si / 1000 Ang^3
#
#
#
# Elastic Constant Matrix: (Units=GPa)
#
#
# Indices 1 2 3 4 5 6 
#
# 1 45.3038 10.5320 23.9381 0.0000 0.0000 0.0000
# 2 10.5320 38.4822 3.6317 0.0000 0.0000 0.0000
# 3 23.9381 3.6317 51.9851 0.0000 0.0000 0.0000
# 4 0.0000 0.0000 0.0000 29.7941 0.0000 0.0000
# 5 0.0000 0.0000 0.0000 0.0000 27.1927 0.0000
# 6 0.0000 0.0000 0.0000 0.0000 0.0000 12.0273
#
#
#
# Elastic Compliance Matrix: (Units=1/GPa)
#
#
# Indices 1 2 3 4 5 6 
#
# 1 0.031029 -0.007191 -0.013786 0.000000 0.000000 0.000000
# 2 -0.007191 0.027825 0.001368 0.000000 0.000000 0.000000
# 3 -0.013786 0.001368 0.025489 0.000000 0.000000 0.000000
# 4 0.000000 0.000000 0.000000 0.033564 0.000000 0.000000
# 5 0.000000 0.000000 0.000000 0.000000 0.036775 0.000000
# 6 0.000000 0.000000 0.000000 0.000000 0.000000 0.083144
#
#
# Mechanical properties :
#
#
# Convention : Reuss Voigt Hill
#
# Bulk Modulus (GPa) = 22.16117 23.55276 22.85697
# Shear Modulus (GPa) = 17.11820 20.31410 18.71615
#
# Velocity S-wave (km/s) = 3.12770 3.40717 3.27042
# Velocity P-wave (km/s) = 5.07027 5.37941 5.22713
#
# Compressibility (1/GPa) = 0.04512397
#
# Stress axis : x y z
#
# Youngs Moduli (GPa) = 32.22751 35.93877 39.23272
#
# Poissons Ratio (x) = 0.25844 0.54086
# Poissons Ratio (y) = 0.23176 -0.05365
# Poissons Ratio (z) = 0.44429 -0.04915
#
# Static dielectric constant tensor:
#      x y z
#    x 1.585690 0.000000 0.000000 
#    y 0.000000 1.570120 0.000000 
#    z 0.000000 0.000000 1.628750 
# 
# From -- ./inp_files/48022.got.cif
#   From: 2010.05.17/outbox.cif.g08.bks.cpg/sg63_25_cif.got.tgz:48022.got - 2010.06.03 15:47:04.
