data_PCOD9471302
_publ_section_title
;
Structure prediction by ZEFSAII (Michael W. Deem and Ramdas Pophale) SiO2 
 PCOD9471302
Probable space group: C M C M
;
_chemical_formula_sum "Si O2"
_cell_formula_units_Z 112
_cell_length_a 32.338660
_cell_length_b 11.985854
_cell_length_c 13.801671
_cell_angle_alpha 90.000000
_cell_angle_beta 90.000000
_cell_angle_gamma 90.000000
_cell_volume 5349.616801
_symmetry_space_group_name_H-M "C M C M"
_symmetry_group_IT_number 63
_symmetry_cell_setting 'orthorhombic'
loop_
_space_group_symop_operation_xyz
x,y,z
-x,-y,1/2+z
x,-y,-z
-x,y,1/2-z
-x,-y,-z
x,y,1/2-z
-x,y,z
x,-y,1/2+z
1/2+x,1/2+y,z
1/2-x,1/2-y,1/2+z
1/2+x,1/2-y,-z
1/2-x,1/2+y,1/2-z
1/2-x,1/2-y,-z
1/2+x,1/2+y,1/2-z
1/2-x,1/2+y,z
1/2+x,1/2-y,1/2+z
loop_
_atom_site_type_symbol
_atom_site_label
_atom_site_fract_x
_atom_site_fract_y
_atom_site_fract_z
Si Si1 0.954081 0.674678 0.865294
Si Si2 0.625827 0.237512 0.133583
Si Si3 0.700620 0.166214 0.867721
Si Si4 0.661085 0.404566 0.634694
Si Si5 0.706975 0.367304 0.367215
Si Si6 0.576776 0.620996 0.483405
Si Si7 0.123105 0.479988 0.367453
O O1 0.949426 0.696690 0.750000
O O2 0.949251 0.788938 0.924061
O O3 0.917090 0.591987 0.894276
O O4 0.000000 0.627079 0.880856
O O5 0.621707 0.247763 0.250000
O O6 0.672322 0.276335 0.106709
O O7 0.619908 0.109008 0.104842
O O8 0.593614 0.318285 0.080064
O O9 0.702205 0.155316 0.750000
O O10 0.685612 0.291488 0.886838
O O11 0.746781 0.146639 0.906003
O O12 0.665168 0.080502 0.900711
O O13 0.653102 0.407389 0.750000
O O14 0.687709 0.512768 0.609557
O O15 0.618005 0.402806 0.579474
O O16 0.710013 0.361634 0.250000
O O17 0.556963 0.500000 0.500000
O O18 0.124464 0.479167 0.250000
#
# Coordination Sequence:
#
# PCOD9471302 Si02
#       7
#    16  16  16  16  16  16  16
#     4  10  22  43  71  98 120 147 190 245 304 366
#     4  10  22  38  57  84 122 165 205 246 297 355
#     4   9  17  30  55  85 114 156 208 252 297 352
#     4  10  19  35  58  84 118 162 211 258 302 351
#     4   9  18  31  52  83 118 162 205 247 298 347
#     4  12  23  38  63  88 125 160 205 246 297 358
#     4   9  18  36  61  87 117 155 198 247 306 361
#
# _framework density 20.93608
#
# number of rings (size 3 to 8) (size 9 to 14) (size 15 to 20)
#    0.000    2.143    2.857    0.429    2.000    1.429 
#    0.000    2.143    3.143    1.286    0.000    0.000 
#    0.000    0.000    0.000    0.000    0.000    0.000 
#
# Total GULP energy -313079.290576 kJ/mol
# GULP energy per Si atom -5590.701617 kJ/mol
# Density = 2.088843 g / cm^3
# Si number density = 20.936080 Si / 1000 Ang^3
#
#
#
# Elastic Constant Matrix: (Units=GPa)
#
#
# Indices 1 2 3 4 5 6 
#
# 1 83.3778 43.8974 34.4573 0.0000 0.0000 0.0000
# 2 43.8974 157.5586 26.2488 0.0000 0.0000 0.0000
# 3 34.4573 26.2488 91.0817 0.0000 0.0000 0.0000
# 4 0.0000 0.0000 0.0000 15.3130 0.0000 0.0000
# 5 0.0000 0.0000 0.0000 0.0000 9.7564 0.0000
# 6 0.0000 0.0000 0.0000 0.0000 0.0000 10.3060
#
#
#
# Elastic Compliance Matrix: (Units=1/GPa)
#
#
# Indices 1 2 3 4 5 6 
#
# 1 0.015962 -0.003615 -0.004997 0.000000 0.000000 0.000000
# 2 -0.003615 0.007485 -0.000790 0.000000 0.000000 0.000000
# 3 -0.004997 -0.000790 0.013097 0.000000 0.000000 0.000000
# 4 0.000000 0.000000 0.000000 0.065304 0.000000 0.000000
# 5 0.000000 0.000000 0.000000 0.000000 0.102497 0.000000
# 6 0.000000 0.000000 0.000000 0.000000 0.000000 0.097031
#
#
# Mechanical properties :
#
#
# Convention : Reuss Voigt Hill
#
# Bulk Modulus (GPa) = 56.36389 60.13612 58.25000
# Shear Modulus (GPa) = 15.33306 22.23604 18.78455
#
# Velocity S-wave (km/s) = 2.70918 3.26251 2.99864
# Velocity P-wave (km/s) = 6.06354 6.55576 6.31445
#
# Compressibility (1/GPa) = 0.01774186
#
# Stress axis : x y z
#
# Youngs Moduli (GPa) = 62.65011 133.59177 76.35268
#
# Poissons Ratio (x) = 0.48288 0.38152
# Poissons Ratio (y) = 0.22646 0.06030
# Poissons Ratio (z) = 0.31305 0.10551
#
# Static dielectric constant tensor:
#      x y z
#    x 1.709070 0.000000 0.000000 
#    y 0.000000 1.731490 0.000000 
#    z 0.000000 0.000000 1.798450 
# 
# From -- ./inp_files/38545.got.cif
#   From: 2010.05.17/outbox.cif.g08.bks.cpg/sg63_20_cif.got.tgz:38545.got - 2010.06.03 15:47:04.
