data_PCOD9471885
_publ_section_title
;
Structure prediction by ZEFSAII (Michael W. Deem and Ramdas Pophale) SiO2 
 PCOD9471885
Probable space group: C M C M
;
_chemical_formula_sum "Si O2"
_cell_formula_units_Z 96
_cell_length_a 9.153988
_cell_length_b 24.467416
_cell_length_c 25.916593
_cell_angle_alpha 90.000000
_cell_angle_beta 90.000000
_cell_angle_gamma 90.000000
_cell_volume 5804.654208
_symmetry_space_group_name_H-M "C M C M"
_symmetry_group_IT_number 63
_symmetry_cell_setting 'orthorhombic'
loop_
_space_group_symop_operation_xyz
x,y,z
-x,-y,1/2+z
x,-y,-z
-x,y,1/2-z
-x,-y,-z
x,y,1/2-z
-x,y,z
x,-y,1/2+z
1/2+x,1/2+y,z
1/2-x,1/2-y,1/2+z
1/2+x,1/2-y,-z
1/2-x,1/2+y,1/2-z
1/2-x,1/2-y,-z
1/2+x,1/2+y,1/2-z
1/2-x,1/2+y,z
1/2+x,1/2-y,1/2+z
loop_
_atom_site_type_symbol
_atom_site_label
_atom_site_fract_x
_atom_site_fract_y
_atom_site_fract_z
Si Si1 0.669152 0.164124 0.880395
Si Si2 0.827519 0.510834 0.380967
Si Si3 0.673534 0.421151 0.189080
Si Si4 0.823516 0.766287 0.554257
Si Si5 0.834219 0.574462 0.970720
Si Si6 0.673009 0.607973 0.071312
O O1 0.500000 0.167262 0.863163
O O2 0.764120 0.133597 0.837645
O O3 0.718156 0.222789 0.901550
O O4 0.671497 0.124526 0.930423
O O5 0.750828 0.472363 0.338862
O O6 0.808879 0.478609 0.435540
O O7 0.756306 0.569999 0.387819
O O8 0.000000 0.513685 0.370941
O O9 0.702479 0.421283 0.250000
O O10 0.500000 0.424470 0.180519
O O11 0.750000 0.750000 0.500000
O O12 0.786182 0.828064 0.570333
O O13 0.000000 0.762868 0.548002
O O14 0.000000 0.572081 0.992302
O O15 0.719634 0.585290 0.015277
O O16 0.500000 0.603281 0.078784
#
# Coordination Sequence:
#
# PCOD9471885 Si02
#       6
#    16  16  16  16  16  16
#     4   9  18  33  52  75 105 139 176 213 251 304
#     4  10  21  35  51  72 101 136 172 210 255 311
#     4  10  21  37  58  82 104 125 159 216 275 316
#     4  10  20  33  49  73 106 145 182 214 250 299
#     4   9  17  30  47  68  99 138 175 209 248 297
#     4  11  21  30  46  73 105 140 177 213 251 298
#
# _framework density 16.538453000000001
#
# number of rings (size 3 to 8) (size 9 to 14) (size 15 to 20)
#    0.000    2.167    1.667    3.000    0.000    8.000 
#    0.000    0.000    0.000    1.000    0.000    2.333 
#    0.000    0.000    0.000    0.000    0.000    0.000 
#
# Total GULP energy -267804.277524 kJ/mol
# GULP energy per Si atom -5579.255782 kJ/mol
# Density = 1.650081 g / cm^3
# Si number density = 16.538453 Si / 1000 Ang^3
#
#
#
# Elastic Constant Matrix: (Units=GPa)
#
#
# Indices 1 2 3 4 5 6 
#
# 1 75.8024 72.2199 59.8896 0.0000 0.0000 0.0000
# 2 72.2199 150.4240 61.5183 0.0000 0.0000 0.0000
# 3 59.8896 61.5183 82.2719 0.0000 0.0000 0.0000
# 4 0.0000 0.0000 0.0000 8.2987 0.0000 0.0000
# 5 0.0000 0.0000 0.0000 0.0000 23.6990 0.0000
# 6 0.0000 0.0000 0.0000 0.0000 0.0000 26.2544
#
#
#
# Elastic Compliance Matrix: (Units=1/GPa)
#
#
# Indices 1 2 3 4 5 6 
#
# 1 0.040006 -0.010512 -0.021262 0.000000 0.000000 0.000000
# 2 -0.010512 0.012338 -0.001574 0.000000 0.000000 0.000000
# 3 -0.021262 -0.001574 0.028809 0.000000 0.000000 0.000000
# 4 0.000000 0.000000 0.000000 0.120500 0.000000 0.000000
# 5 0.000000 0.000000 0.000000 0.000000 0.042196 0.000000
# 6 0.000000 0.000000 0.000000 0.000000 0.000000 0.038089
#
#
# Mechanical properties :
#
#
# Convention : Reuss Voigt Hill
#
# Bulk Modulus (GPa) = 69.16540 77.30599 73.23569
# Shear Modulus (GPa) = 14.14616 19.30846 16.72731
#
# Velocity S-wave (km/s) = 2.92781 3.42056 3.18373
# Velocity P-wave (km/s) = 7.30350 7.90221 7.60875
#
# Compressibility (1/GPa) = 0.01445810
#
# Stress axis : x y z
#
# Youngs Moduli (GPa) = 24.99653 81.04849 34.71096
#
# Poissons Ratio (x) = 0.85195 0.73802
# Poissons Ratio (y) = 0.26275 0.05463
# Poissons Ratio (z) = 0.53148 0.12757
#
# Static dielectric constant tensor:
#      x y z
#    x 1.555920 0.000000 0.000000 
#    y 0.000000 1.586140 0.000000 
#    z 0.000000 0.000000 1.529340 
# 
# From -- ./inp_files/59837.got.cif
#   From: 2010.05.17/outbox.cif.g08.bks.cpg/sg63_30_cif.got.tgz:59837.got - 2010.06.03 15:47:04.
