data_PCOD9471057
_publ_section_title
;
Structure prediction by ZEFSAII (Michael W. Deem and Ramdas Pophale) SiO2 
 PCOD9471057
Probable space group: C M C M
;
_chemical_formula_sum "Si O2"
_cell_formula_units_Z 64
_cell_length_a 16.197114
_cell_length_b 8.643539
_cell_length_c 21.033352
_cell_angle_alpha 90.000000
_cell_angle_beta 90.000000
_cell_angle_gamma 90.000000
_cell_volume 2944.677410
_symmetry_space_group_name_H-M "C M C M"
_symmetry_group_IT_number 63
_symmetry_cell_setting 'orthorhombic'
loop_
_space_group_symop_operation_xyz
x,y,z
-x,-y,1/2+z
x,-y,-z
-x,y,1/2-z
-x,-y,-z
x,y,1/2-z
-x,y,z
x,-y,1/2+z
1/2+x,1/2+y,z
1/2-x,1/2-y,1/2+z
1/2+x,1/2-y,-z
1/2-x,1/2+y,1/2-z
1/2-x,1/2-y,-z
1/2+x,1/2+y,1/2-z
1/2-x,1/2+y,z
1/2+x,1/2-y,1/2+z
loop_
_atom_site_type_symbol
_atom_site_label
_atom_site_fract_x
_atom_site_fract_y
_atom_site_fract_z
Si Si1 0.500000 0.180846 0.989927
Si Si2 0.715675 0.830660 0.637671
Si Si3 0.328409 0.110414 0.559746
Si Si4 0.867359 0.028109 0.680704
Si Si5 0.000000 0.944334 0.425909
O O1 0.587213 0.203888 0.954218
O O2 0.500000 0.262697 0.058093
O O3 0.500000 0.000000 0.000000
O O4 0.756426 0.727744 0.580492
O O5 0.666472 0.703421 0.676769
O O6 0.663295 0.978215 0.613962
O O7 0.792488 0.907978 0.673519
O O8 0.307480 0.000000 0.500000
O O9 0.906274 0.004390 0.750000
O O10 0.923597 0.012072 0.618284
O O11 0.000000 0.000000 0.500000
#
# Coordination Sequence:
#
# PCOD9471057 Si02
#       5
#     8  16  16  16   8
#     4  10  20  35  54  81 118 153 188 238 293 348
#     4  10  22  36  59  88 118 158 204 247 296 361
#     4  10  19  34  55  86 123 157 196 248 302 352
#     4  11  23  42  63  88 122 162 202 249 303 361
#     4  12  25  41  62  91 122 157 202 250 301 360
#
# _framework density 21.73413
#
# number of rings (size 3 to 8) (size 9 to 14) (size 15 to 20)
#    0.000    1.500    0.000    6.375    0.000    6.000 
#    0.000    0.000    0.000    0.000    0.000   22.750 
#    0.000    0.000    0.000    0.000    0.000    0.000 
#
# Total GULP energy -178464.910409 kJ/mol
# GULP energy per Si atom -5577.028450 kJ/mol
# Density = 2.168466 g / cm^3
# Si number density = 21.734130 Si / 1000 Ang^3
#
#
#
# Elastic Constant Matrix: (Units=GPa)
#
#
# Indices 1 2 3 4 5 6 
#
# 1 57.1307 1.1231 44.9341 0.0000 0.0000 0.0000
# 2 1.1231 86.1103 32.0742 0.0000 0.0000 0.0000
# 3 44.9341 32.0742 149.0503 0.0000 0.0000 0.0000
# 4 0.0000 0.0000 0.0000 14.0225 0.0000 0.0000
# 5 0.0000 0.0000 0.0000 0.0000 94.3168 0.0000
# 6 0.0000 0.0000 0.0000 0.0000 0.0000 17.2617
#
#
#
# Elastic Compliance Matrix: (Units=1/GPa)
#
#
# Indices 1 2 3 4 5 6 
#
# 1 0.023440 0.002529 -0.007611 0.000000 0.000000 0.000000
# 2 0.002529 0.012898 -0.003538 0.000000 0.000000 0.000000
# 3 -0.007611 -0.003538 0.009765 0.000000 0.000000 0.000000
# 4 0.000000 0.000000 0.000000 0.071314 0.000000 0.000000
# 5 0.000000 0.000000 0.000000 0.000000 0.010603 0.000000
# 6 0.000000 0.000000 0.000000 0.000000 0.000000 0.057932
#
#
# Mechanical properties :
#
#
# Convention : Reuss Voigt Hill
#
# Bulk Modulus (GPa) = 34.64573 49.83934 42.24253
# Shear Modulus (GPa) = 23.49504 39.39753 31.44628
#
# Velocity S-wave (km/s) = 3.29145 4.26220 3.80789
# Velocity P-wave (km/s) = 5.51545 6.87044 6.22990
#
# Compressibility (1/GPa) = 0.02886359
#
# Stress axis : x y z
#
# Youngs Moduli (GPa) = 42.66230 77.53242 102.40810
#
# Poissons Ratio (x) = -0.19609 0.77939
# Poissons Ratio (y) = -0.10790 0.36231
# Poissons Ratio (z) = 0.32469 0.27430
#
# Static dielectric constant tensor:
#      x y z
#    x 1.853920 0.000000 0.000000 
#    y 0.000000 1.911130 0.000000 
#    z 0.000000 0.000000 1.821000 
# 
# From -- ./inp_files/55039.got.cif
#   From: 2010.05.17/outbox.cif.g08.bks.cpg/sg63_28_cif.got.tgz:55039.got - 2010.06.03 15:47:04.
