data_PCOD9471142
_publ_section_title
;
Structure prediction by ZEFSAII (Michael W. Deem and Ramdas Pophale) SiO2 
 PCOD9471142
Probable space group: C M C M
;
_chemical_formula_sum "Si O2"
_cell_formula_units_Z 116
_cell_length_a 20.331044
_cell_length_b 15.603212
_cell_length_c 14.646496
_cell_angle_alpha 90.000000
_cell_angle_beta 90.000000
_cell_angle_gamma 90.000000
_cell_volume 4646.301917
_symmetry_space_group_name_H-M "C M C M"
_symmetry_group_IT_number 63
_symmetry_cell_setting 'orthorhombic'
loop_
_space_group_symop_operation_xyz
x,y,z
-x,-y,1/2+z
x,-y,-z
-x,y,1/2-z
-x,-y,-z
x,y,1/2-z
-x,y,z
x,-y,1/2+z
1/2+x,1/2+y,z
1/2-x,1/2-y,1/2+z
1/2+x,1/2-y,-z
1/2-x,1/2+y,1/2-z
1/2-x,1/2-y,-z
1/2+x,1/2+y,1/2-z
1/2-x,1/2+y,z
1/2+x,1/2-y,1/2+z
loop_
_atom_site_type_symbol
_atom_site_label
_atom_site_fract_x
_atom_site_fract_y
_atom_site_fract_z
Si Si1 0.350931 0.678306 0.885705
Si Si2 0.872568 0.828120 0.906386
Si Si3 0.073879 0.650824 0.897897
Si Si4 0.500000 0.072288 0.250000
Si Si5 0.403280 0.846296 0.885200
Si Si6 0.722329 0.096957 0.611875
Si Si7 0.073771 0.995822 0.142975
Si Si8 0.259304 0.095787 0.109428
O O1 0.405600 0.746915 0.852804
O O2 0.275004 0.667876 0.854407
O O3 0.378865 0.583218 0.874610
O O4 0.350082 0.701062 0.992962
O O5 0.916647 0.750799 0.870690
O O6 0.909752 0.918317 0.911865
O O7 0.804345 0.852798 0.859143
O O8 0.144652 0.610806 0.868401
O O9 0.000000 0.621059 0.867780
O O10 0.076708 0.644018 0.008651
O O11 0.556082 0.086160 0.328746
O O12 0.327250 0.862375 0.865181
O O13 0.734686 0.095400 0.501888
O O14 0.742154 0.001900 0.642190
O O15 0.078008 0.019327 0.250000
O O16 0.000000 0.967857 0.122498
#
# Coordination Sequence:
#
# PCOD9471142 Si02
#       8
#    16  16  16   4  16  16  16  16
#     4  10  20  35  59  84 112 150 195 243 289 341
#     4  10  19  36  61  83 115 145 196 247 292 341
#     4  10  19  34  57  91 116 146 194 248 294 343
#     4  12  24  40  52  74 126 164 190 236 292 368
#     4  10  22  35  54  79 117 158 193 231 290 350
#     4   9  17  33  59  84 114 141 184 247 292 334
#     4  11  24  36  52  82 120 156 188 231 293 360
#     4   9  17  35  55  85 108 145 192 239 287 338
#
# _framework density 24.966092
#
# number of rings (size 3 to 8) (size 9 to 14) (size 15 to 20)
#    0.000    2.069    2.069    1.655    1.931    4.966 
#    2.483    1.379    0.000    0.000    0.000    0.000 
#    0.000    0.000    0.000    0.000    0.000    0.000 
#
# Total GULP energy -323264.876261 kJ/mol
# GULP energy per Si atom -5573.532349 kJ/mol
# Density = 2.490927 g / cm^3
# Si number density = 24.966092 Si / 1000 Ang^3
#
#
#
# Elastic Constant Matrix: (Units=GPa)
#
#
# Indices 1 2 3 4 5 6 
#
# 1 162.6415 -8.5274 -6.6449 0.0000 0.0000 0.0000
# 2 -8.5274 23.9918 -18.2769 0.0000 0.0000 0.0000
# 3 -6.6449 -18.2769 71.1122 0.0000 0.0000 0.0000
# 4 0.0000 0.0000 0.0000 -54.4338 0.0000 0.0000
# 5 0.0000 0.0000 0.0000 0.0000 179.1879 0.0000
# 6 0.0000 0.0000 0.0000 0.0000 0.0000 8.3575
#
#
#
# Elastic Compliance Matrix: (Units=1/GPa)
#
#
# Indices 1 2 3 4 5 6 
#
# 1 0.006386 0.003388 0.001467 0.000000 0.000000 0.000000
# 2 0.003388 0.053626 0.014099 0.000000 0.000000 0.000000
# 3 0.001467 0.014099 0.017823 0.000000 0.000000 0.000000
# 4 0.000000 0.000000 0.000000 -0.018371 0.000000 0.000000
# 5 0.000000 0.000000 0.000000 0.000000 0.005581 0.000000
# 6 0.000000 0.000000 0.000000 0.000000 0.000000 0.119654
#
#
# Mechanical properties :
#
#
# Convention : Reuss Voigt Hill
#
# Bulk Modulus (GPa) = 8.63980 21.20522 14.92251
# Shear Modulus (GPa) = 26.97296 46.03531 36.50413
#
# Velocity S-wave (km/s) = 3.29048 4.29874 3.82795
# Velocity P-wave (km/s) = 4.23137 5.75768 5.05250
#
# Compressibility (1/GPa) = 0.11574337
#
# Stress axis : x y z
#
# Youngs Moduli (GPa) = 156.59097 18.64777 56.10695
#
# Poissons Ratio (x) = -0.06317 -0.08233
# Poissons Ratio (y) = -0.53048 -0.79106
# Poissons Ratio (z) = -0.22978 -0.26292
#
# Static dielectric constant tensor:
#      x y z
#    x 1.965240 0.000000 0.000000 
#    y 0.000000 2.033910 0.000000 
#    z 0.000000 0.000000 2.019880 
# 
# From -- ./inp_files/45899.got.cif
#   From: 2010.05.17/outbox.cif.g08.bks.cpg/sg63_23_cif.got.tgz:45899.got - 2010.06.03 15:47:04.
