data_PCOD9471942
_publ_section_title
;
Structure prediction by ZEFSAII (Michael W. Deem and Ramdas Pophale) SiO2 
 PCOD9471942
Probable space group: C M C M
;
_chemical_formula_sum "Si O2"
_cell_formula_units_Z 96
_cell_length_a 18.548259
_cell_length_b 32.076833
_cell_length_c 9.107478
_cell_angle_alpha 90.000000
_cell_angle_beta 90.000000
_cell_angle_gamma 90.000000
_cell_volume 5418.670779
_symmetry_space_group_name_H-M "C M C M"
_symmetry_group_IT_number 63
_symmetry_cell_setting 'orthorhombic'
loop_
_space_group_symop_operation_xyz
x,y,z
-x,-y,1/2+z
x,-y,-z
-x,y,1/2-z
-x,-y,-z
x,y,1/2-z
-x,y,z
x,-y,1/2+z
1/2+x,1/2+y,z
1/2-x,1/2-y,1/2+z
1/2+x,1/2-y,-z
1/2-x,1/2+y,1/2-z
1/2-x,1/2-y,-z
1/2+x,1/2+y,1/2-z
1/2-x,1/2+y,z
1/2+x,1/2-y,1/2+z
loop_
_atom_site_type_symbol
_atom_site_label
_atom_site_fract_x
_atom_site_fract_y
_atom_site_fract_z
Si Si1 0.674235 0.372472 0.574947
Si Si2 0.586518 0.205606 0.078563
Si Si3 0.830320 0.367674 0.426702
Si Si4 0.413436 0.301003 0.078353
Si Si5 0.845282 0.541404 0.918115
Si Si6 0.169364 0.042211 0.920300
O O1 0.679071 0.375553 0.750000
O O2 0.752876 0.364843 0.504449
O O3 0.624075 0.334708 0.523469
O O4 0.647323 0.416220 0.506385
O O5 0.605370 0.198111 0.250000
O O6 0.500000 0.203260 0.066847
O O7 0.607732 0.253286 0.042736
O O8 0.622999 0.171362 0.977187
O O9 0.821139 0.368975 0.250000
O O10 0.864928 0.412329 0.472991
O O11 0.394635 0.308697 0.250000
O O12 0.500000 0.303592 0.066722
O O13 0.868036 0.538066 0.750000
O O14 0.757363 0.541471 0.922524
O O15 0.870310 0.500000 0.000000
O O16 0.147505 0.043643 0.750000
O O17 0.144897 0.000000 0.000000
#
# Coordination Sequence:
#
# PCOD9471942 Si02
#       6
#    16  16  16  16  16  16
#     4  11  21  32  50  77 106 135 169 210 253 296
#     4   9  19  36  56  76  98 128 167 208 254 309
#     4  10  20  33  50  75 105 134 167 208 253 300
#     4   9  19  37  57  74  97 131 168 207 253 306
#     4   8  15  26  42  66  95 127 161 198 239 285
#     4   9  16  28  46  70 101 134 168 205 247 296
#
# _framework density 17.716522000000001
#
# number of rings (size 3 to 8) (size 9 to 14) (size 15 to 20)
#    0.000    2.667    0.000    4.500    0.000    6.667 
#    0.000    1.667    0.000    1.000    0.000    0.000 
#    0.000    0.000    0.000    0.000    0.000    0.000 
#
# Total GULP energy -267579.596045 kJ/mol
# GULP energy per Si atom -5574.574918 kJ/mol
# Density = 1.767620 g / cm^3
# Si number density = 17.716522 Si / 1000 Ang^3
#
#
#
# Elastic Constant Matrix: (Units=GPa)
#
#
# Indices 1 2 3 4 5 6 
#
# 1 12.9627 35.1446 26.9460 0.0000 0.0000 0.0000
# 2 35.1446 160.2534 92.5881 0.0000 0.0000 0.0000
# 3 26.9460 92.5881 117.8974 0.0000 0.0000 0.0000
# 4 0.0000 0.0000 0.0000 37.3160 0.0000 0.0000
# 5 0.0000 0.0000 0.0000 0.0000 19.8008 0.0000
# 6 0.0000 0.0000 0.0000 0.0000 0.0000 -56.1499
#
#
#
# Elastic Compliance Matrix: (Units=1/GPa)
#
#
# Indices 1 2 3 4 5 6 
#
# 1 0.218795 -0.034949 -0.022561 0.000000 0.000000 0.000000
# 2 -0.034949 0.017006 -0.005367 0.000000 0.000000 0.000000
# 3 -0.022561 -0.005367 0.017853 0.000000 0.000000 0.000000
# 4 0.000000 0.000000 0.000000 0.026798 0.000000 0.000000
# 5 0.000000 0.000000 0.000000 0.000000 0.050503 0.000000
# 6 0.000000 0.000000 0.000000 0.000000 0.000000 -0.017809
#
#
# Mechanical properties :
#
#
# Convention : Reuss Voigt Hill
#
# Bulk Modulus (GPa) = 7.81853 66.71899 37.26876
# Shear Modulus (GPa) = 10.38351 9.28904 9.83628
#
# Velocity S-wave (km/s) = 2.42356 2.29228 2.35883
# Velocity P-wave (km/s) = 3.50060 6.68932 5.33860
#
# Compressibility (1/GPa) = 0.12790132
#
# Stress axis : x y z
#
# Youngs Moduli (GPa) = 4.57048 58.80423 56.01191
#
# Poissons Ratio (x) = 2.05513 1.26366
# Poissons Ratio (y) = 0.15973 0.30063
# Poissons Ratio (z) = 0.10311 0.31562
#
# Static dielectric constant tensor:
#      x y z
#    x 1.587080 0.000000 0.000000 
#    y 0.000000 1.618630 0.000000 
#    z 0.000000 0.000000 1.595030 
# 
# From -- ./inp_files/8614.got.cif
#   From: 2010.05.17/outbox.cif.g08.bks.cpg/sg63_5_cif.got.tgz:8614.got - 2010.06.03 15:47:04.
