data_PCOD9471010
_publ_section_title
;
Structure prediction by ZEFSAII (Michael W. Deem and Ramdas Pophale) SiO2 
 PCOD9471010
Probable space group: C M C M
;
_chemical_formula_sum "Si O2"
_cell_formula_units_Z 80
_cell_length_a 7.741729
_cell_length_b 28.821175
_cell_length_c 21.384020
_cell_angle_alpha 90.000000
_cell_angle_beta 90.000000
_cell_angle_gamma 90.000000
_cell_volume 4771.324994
_symmetry_space_group_name_H-M "C M C M"
_symmetry_group_IT_number 63
_symmetry_cell_setting 'orthorhombic'
loop_
_space_group_symop_operation_xyz
x,y,z
-x,-y,1/2+z
x,-y,-z
-x,y,1/2-z
-x,-y,-z
x,y,1/2-z
-x,y,z
x,-y,1/2+z
1/2+x,1/2+y,z
1/2-x,1/2-y,1/2+z
1/2+x,1/2-y,-z
1/2-x,1/2+y,1/2-z
1/2-x,1/2-y,-z
1/2+x,1/2+y,1/2-z
1/2-x,1/2+y,z
1/2+x,1/2-y,1/2+z
loop_
_atom_site_type_symbol
_atom_site_label
_atom_site_fract_x
_atom_site_fract_y
_atom_site_fract_z
Si Si1 0.800570 0.858011 0.658357
Si Si2 0.000000 0.451894 0.536750
Si Si3 0.293153 0.211147 0.947967
Si Si4 0.807719 0.881439 0.985595
Si Si5 0.289512 0.747334 0.182458
Si Si6 0.000000 0.430590 0.681309
O O1 0.798947 0.858389 0.583152
O O2 0.744024 0.807028 0.679219
O O3 0.668219 0.897334 0.679347
O O4 0.000000 0.866103 0.677653
O O5 0.000000 0.500000 0.500000
O O6 0.164892 0.421271 0.516061
O O7 0.000000 0.456283 0.613302
O O8 0.500000 0.208032 0.945782
O O9 0.228000 0.227418 0.880028
O O10 0.250000 0.250000 0.000000
O O11 0.224711 0.160821 0.967375
O O12 0.000000 0.900589 0.994590
O O13 0.233922 0.766256 0.250000
O O14 0.500000 0.748555 0.180713
O O15 0.000000 0.454822 0.750000
#
# Coordination Sequence:
#
# PCOD9471010 Si02
#       6
#    16   8  16  16  16   8
#     4   9  17  30  47  71 105 141 169 205 259 319
#     4  10  22  40  60  80 106 136 176 228 278 324
#     4  11  19  29  48  74 106 144 183 219 254 311
#     4  10  19  34  54  80 106 136 178 220 267 324
#     4   9  17  28  43  65 100 145 185 214 253 305
#     4  10  20  32  52  80 106 130 168 216 268 328
#
# _framework density 16.766831
#
# number of rings (size 3 to 8) (size 9 to 14) (size 15 to 20)
#    0.000    2.200    3.000    1.200    0.000    1.600 
#    1.800    0.000    0.000    1.200    0.000    0.000 
#    0.000    0.000    0.000    0.000    0.000    0.000 
#
# Total GULP energy -223011.455608 kJ/mol
# GULP energy per Si atom -5575.286390 kJ/mol
# Density = 1.672867 g / cm^3
# Si number density = 16.766831 Si / 1000 Ang^3
#
#
#
# Elastic Constant Matrix: (Units=GPa)
#
#
# Indices 1 2 3 4 5 6 
#
# 1 84.4919 30.7442 29.3724 0.0000 0.0000 0.0000
# 2 30.7442 75.8918 63.7170 0.0000 0.0000 0.0000
# 3 29.3724 63.7170 148.6294 0.0000 0.0000 0.0000
# 4 0.0000 0.0000 0.0000 13.5549 0.0000 0.0000
# 5 0.0000 0.0000 0.0000 0.0000 -4.0843 0.0000
# 6 0.0000 0.0000 0.0000 0.0000 0.0000 8.4527
#
#
#
# Elastic Compliance Matrix: (Units=1/GPa)
#
#
# Indices 1 2 3 4 5 6 
#
# 1 0.013907 -0.005197 -0.000520 0.000000 0.000000 0.000000
# 2 -0.005197 0.022528 -0.008631 0.000000 0.000000 0.000000
# 3 -0.000520 -0.008631 0.010531 0.000000 0.000000 0.000000
# 4 0.000000 0.000000 0.000000 0.073774 0.000000 0.000000
# 5 0.000000 0.000000 0.000000 0.000000 -0.244842 0.000000
# 6 0.000000 0.000000 0.000000 0.000000 0.000000 0.118306
#
#
# Mechanical properties :
#
#
# Convention : Reuss Voigt Hill
#
# Bulk Modulus (GPa) = 54.73406 61.85336 58.29371
# Shear Modulus (GPa) = 172.47024 15.92997 94.20010
#
# Velocity S-wave (km/s) = 10.15319 3.08569 7.50362
# Velocity P-wave (km/s) = 13.04472 7.04739 10.48405
#
# Compressibility (1/GPa) = 0.01827016
#
# Stress axis : x y z
#
# Youngs Moduli (GPa) = 71.90397 44.38896 94.95819
#
# Poissons Ratio (x) = 0.23069 0.04942
# Poissons Ratio (y) = 0.37369 0.81955
# Poissons Ratio (z) = 0.03742 0.38311
#
# Static dielectric constant tensor:
#      x y z
#    x 1.606500 0.000000 0.000000 
#    y 0.000000 1.515190 0.000000 
#    z 0.000000 0.000000 1.615730 
# 
# From -- ./inp_files/51221.got.cif
#   From: 2010.05.17/outbox.cif.g08.bks.cpg/sg63_26_cif.got.tgz:51221.got - 2010.06.03 15:47:04.
