data_PCOD9471172
_publ_section_title
;
Structure prediction by ZEFSAII (Michael W. Deem and Ramdas Pophale) SiO2 
 PCOD9471172
Probable space group: C M C M
;
_chemical_formula_sum "Si O2"
_cell_formula_units_Z 96
_cell_length_a 18.347479
_cell_length_b 17.280189
_cell_length_c 13.777145
_cell_angle_alpha 90.000000
_cell_angle_beta 90.000000
_cell_angle_gamma 90.000000
_cell_volume 4368.014956
_symmetry_space_group_name_H-M "C M C M"
_symmetry_group_IT_number 63
_symmetry_cell_setting 'orthorhombic'
loop_
_space_group_symop_operation_xyz
x,y,z
-x,-y,1/2+z
x,-y,-z
-x,y,1/2-z
-x,-y,-z
x,y,1/2-z
-x,y,z
x,-y,1/2+z
1/2+x,1/2+y,z
1/2-x,1/2-y,1/2+z
1/2+x,1/2-y,-z
1/2-x,1/2+y,1/2-z
1/2-x,1/2-y,-z
1/2+x,1/2+y,1/2-z
1/2-x,1/2+y,z
1/2+x,1/2-y,1/2+z
loop_
_atom_site_type_symbol
_atom_site_label
_atom_site_fract_x
_atom_site_fract_y
_atom_site_fract_z
Si Si1 0.671524 0.080105 0.473907
Si Si2 0.361796 0.227888 0.365465
Si Si3 0.919176 0.893031 0.131643
Si Si4 0.917663 0.179686 0.132315
Si Si5 0.204765 0.302668 0.135608
Si Si6 0.320096 0.534293 0.367172
O O1 0.626934 0.146230 0.417435
O O2 0.700496 0.121809 0.570740
O O3 0.742206 0.055366 0.411321
O O4 0.632083 0.000000 0.500000
O O5 0.372904 0.218878 0.250000
O O6 0.405283 0.304342 0.398296
O O7 0.277226 0.252244 0.381849
O O8 0.917688 0.892269 0.250000
O O9 0.000000 0.919411 0.102507
O O10 0.855792 0.952569 0.103853
O O11 0.920597 0.178264 0.250000
O O12 0.864512 0.250311 0.108937
O O13 0.878045 0.100502 0.104281
O O14 0.000000 0.186369 0.096981
O O15 0.204114 0.321241 0.250000
O O16 0.313319 0.535454 0.250000
#
# Coordination Sequence:
#
# PCOD9471172 Si02
#       6
#    16  16  16  16  16  16
#     4  12  24  36  58  85 119 158 203 254 306 354
#     4  10  20  37  60  85 118 159 202 247 299 363
#     4   9  18  34  60  93 130 170 205 243 300 371
#     4   9  17  32  58  88 119 157 196 242 305 369
#     4  10  21  38  59  84 117 159 208 255 302 360
#     4  10  19  34  58  92 130 160 196 244 302 371
#
# _framework density 21.977947
#
# number of rings (size 3 to 8) (size 9 to 14) (size 15 to 20)
#    0.000    2.000    1.667    2.500    0.000    4.667 
#    0.000    0.833    0.000    4.000    0.000    4.667 
#    0.000    0.000    0.000    0.000    0.000    0.000 
#
# Total GULP energy -268640.755483 kJ/mol
# GULP energy per Si atom -5596.682406 kJ/mol
# Density = 2.192792 g / cm^3
# Si number density = 21.977947 Si / 1000 Ang^3
#
#
#
# Elastic Constant Matrix: (Units=GPa)
#
#
# Indices 1 2 3 4 5 6 
#
# 1 46.3453 9.9467 4.3663 0.0000 0.0000 0.0000
# 2 9.9467 157.0200 39.3856 0.0000 0.0000 0.0000
# 3 4.3663 39.3856 87.9560 0.0000 0.0000 0.0000
# 4 0.0000 0.0000 0.0000 42.4302 0.0000 0.0000
# 5 0.0000 0.0000 0.0000 0.0000 14.9336 0.0000
# 6 0.0000 0.0000 0.0000 0.0000 0.0000 26.5021
#
#
#
# Elastic Compliance Matrix: (Units=1/GPa)
#
#
# Indices 1 2 3 4 5 6 
#
# 1 0.021896 -0.001255 -0.000525 0.000000 0.000000 0.000000
# 2 -0.001255 0.007246 -0.003183 0.000000 0.000000 0.000000
# 3 -0.000525 -0.003183 0.012820 0.000000 0.000000 0.000000
# 4 0.000000 0.000000 0.000000 0.023568 0.000000 0.000000
# 5 0.000000 0.000000 0.000000 0.000000 0.066963 0.000000
# 6 0.000000 0.000000 0.000000 0.000000 0.000000 0.037733
#
#
# Mechanical properties :
#
#
# Convention : Reuss Voigt Hill
#
# Bulk Modulus (GPa) = 31.21346 44.30204 37.75775
# Shear Modulus (GPa) = 26.20109 32.61470 29.40789
#
# Velocity S-wave (km/s) = 3.45650 3.85642 3.66192
# Velocity P-wave (km/s) = 5.49208 6.32697 5.92425
#
# Compressibility (1/GPa) = 0.03203746
#
# Stress axis : x y z
#
# Youngs Moduli (GPa) = 45.67035 137.99916 78.00028
#
# Poissons Ratio (x) = 0.17324 0.04093
# Poissons Ratio (y) = 0.05733 0.24824
# Poissons Ratio (z) = 0.02397 0.43919
#
# Static dielectric constant tensor:
#      x y z
#    x 1.747820 0.000000 0.000000 
#    y 0.000000 1.799140 0.000000 
#    z 0.000000 0.000000 1.886650 
# 
# From -- ./inp_files/35317.got.cif
#   From: 2010.05.17/outbox.cif.g08.bks.cpg/sg63_18_cif.got.tgz:35317.got - 2010.06.03 15:47:04.
