data_PCOD9471403
_publ_section_title
;
Structure prediction by ZEFSAII (Michael W. Deem and Ramdas Pophale) SiO2 
 PCOD9471403
Probable space group: C M C M
;
_chemical_formula_sum "Si O2"
_cell_formula_units_Z 96
_cell_length_a 29.058443
_cell_length_b 8.129941
_cell_length_c 20.332063
_cell_angle_alpha 90.000000
_cell_angle_beta 90.000000
_cell_angle_gamma 90.000000
_cell_volume 4803.316244
_symmetry_space_group_name_H-M "C M C M"
_symmetry_group_IT_number 63
_symmetry_cell_setting 'orthorhombic'
loop_
_space_group_symop_operation_xyz
x,y,z
-x,-y,1/2+z
x,-y,-z
-x,y,1/2-z
-x,-y,-z
x,y,1/2-z
-x,y,z
x,-y,1/2+z
1/2+x,1/2+y,z
1/2-x,1/2-y,1/2+z
1/2+x,1/2-y,-z
1/2-x,1/2+y,1/2-z
1/2-x,1/2-y,-z
1/2+x,1/2+y,1/2-z
1/2-x,1/2+y,z
1/2+x,1/2-y,1/2+z
loop_
_atom_site_type_symbol
_atom_site_label
_atom_site_fract_x
_atom_site_fract_y
_atom_site_fract_z
Si Si1 0.000000 0.368074 0.438022
Si Si2 0.595067 0.203679 0.117113
Si Si3 0.000000 0.367414 0.674798
Si Si4 0.841417 0.579277 0.573959
Si Si5 0.678221 0.619598 0.825692
Si Si6 0.731343 0.033649 0.327139
Si Si7 0.912095 0.815118 0.525482
O O1 0.000000 0.500000 0.500000
O O2 0.043757 0.247342 0.435718
O O3 0.000000 0.480585 0.374372
O O4 0.548730 0.220470 0.158886
O O5 0.632775 0.343256 0.133036
O O6 0.622647 0.030713 0.117744
O O7 0.582087 0.213239 0.041539
O O8 0.000000 0.415990 0.750000
O O9 0.834383 0.500000 0.500000
O O10 0.795868 0.571115 0.618052
O O11 0.865700 0.753097 0.560245
O O12 0.663711 0.602284 0.750000
O O13 0.714302 0.476729 0.841774
O O14 0.709685 0.784640 0.830861
O O15 0.725653 0.979092 0.250000
O O16 0.912364 0.000000 0.500000
#
# Coordination Sequence:
#
# PCOD9471403 Si02
#       7
#     8  16   8  16  16  16  16
#     4  12  19  40  61  84 113 154 195 236 277 345
#     4  10  19  36  56  83 116 145 191 240 280 339
#     4  12  22  34  64  92 110 144 196 238 280 332
#     4   9  18  35  55  80 113 146 194 243 279 335
#     4   9  18  33  53  78 110 149 192 237 286 342
#     4   9  18  33  54  77 107 151 193 234 290 344
#     4  11  21  34  57  85 113 152 191 233 290 345
#
# _framework density 19.986193
#
# number of rings (size 3 to 8) (size 9 to 14) (size 15 to 20)
#    0.000    2.000    3.333    1.250    0.000    2.000 
#    0.000    8.333    0.000    4.000    0.000    0.000 
#    0.000    0.000    0.000    0.000    0.000    0.000 
#
# Total GULP energy -267329.916572 kJ/mol
# GULP energy per Si atom -5569.373262 kJ/mol
# Density = 1.994070 g / cm^3
# Si number density = 19.986193 Si / 1000 Ang^3
#
#
#
# Elastic Constant Matrix: (Units=GPa)
#
#
# Indices 1 2 3 4 5 6 
#
# 1 105.6436 7.8500 39.4048 0.0000 0.0000 0.0000
# 2 7.8500 34.1816 -11.4475 0.0000 0.0000 0.0000
# 3 39.4048 -11.4475 69.8316 0.0000 0.0000 0.0000
# 4 0.0000 0.0000 0.0000 16.4398 0.0000 0.0000
# 5 0.0000 0.0000 0.0000 0.0000 29.1281 0.0000
# 6 0.0000 0.0000 0.0000 0.0000 0.0000 18.4392
#
#
#
# Elastic Compliance Matrix: (Units=1/GPa)
#
#
# Indices 1 2 3 4 5 6 
#
# 1 0.012975 -0.005747 -0.008264 0.000000 0.000000 0.000000
# 2 -0.005747 0.033501 0.008735 0.000000 0.000000 0.000000
# 3 -0.008264 0.008735 0.020415 0.000000 0.000000 0.000000
# 4 0.000000 0.000000 0.000000 0.060828 0.000000 0.000000
# 5 0.000000 0.000000 0.000000 0.000000 0.034331 0.000000
# 6 0.000000 0.000000 0.000000 0.000000 0.000000 0.054232
#
#
# Mechanical properties :
#
#
# Convention : Reuss Voigt Hill
#
# Bulk Modulus (GPa) = 17.74981 31.25240 24.50110
# Shear Modulus (GPa) = 20.35704 24.39138 22.37421
#
# Velocity S-wave (km/s) = 3.19494 3.49723 3.34950
# Velocity P-wave (km/s) = 4.74453 5.65495 5.21962
#
# Compressibility (1/GPa) = 0.05633864
#
# Stress axis : x y z
#
# Youngs Moduli (GPa) = 77.06956 29.85000 48.98286
#
# Poissons Ratio (x) = 0.17156 0.40479
# Poissons Ratio (y) = 0.44296 -0.42787
# Poissons Ratio (z) = 0.63690 -0.26074
#
# Static dielectric constant tensor:
#      x y z
#    x 1.753900 0.000000 0.000000 
#    y 0.000000 1.767260 0.000000 
#    z 0.000000 0.000000 1.685450 
# 
# From -- ./inp_files/65376.got.cif
#   From: 2010.05.17/outbox.cif.g08.bks.cpg/sg63_33_cif.got.tgz:65376.got - 2010.06.03 15:47:04.
