data_PCOD9471497
_publ_section_title
;
Structure prediction by ZEFSAII (Michael W. Deem and Ramdas Pophale) SiO2 
 PCOD9471497
Probable space group: C M C M
;
_chemical_formula_sum "Si O2"
_cell_formula_units_Z 88
_cell_length_a 11.659973
_cell_length_b 24.393621
_cell_length_c 14.015012
_cell_angle_alpha 90.000000
_cell_angle_beta 90.000000
_cell_angle_gamma 90.000000
_cell_volume 3986.275319
_symmetry_space_group_name_H-M "C M C M"
_symmetry_group_IT_number 63
_symmetry_cell_setting 'orthorhombic'
loop_
_space_group_symop_operation_xyz
x,y,z
-x,-y,1/2+z
x,-y,-z
-x,y,1/2-z
-x,-y,-z
x,y,1/2-z
-x,y,z
x,-y,1/2+z
1/2+x,1/2+y,z
1/2-x,1/2-y,1/2+z
1/2+x,1/2-y,-z
1/2-x,1/2+y,1/2-z
1/2-x,1/2-y,-z
1/2+x,1/2+y,1/2-z
1/2-x,1/2+y,z
1/2+x,1/2-y,1/2+z
loop_
_atom_site_type_symbol
_atom_site_label
_atom_site_fract_x
_atom_site_fract_y
_atom_site_fract_z
Si Si1 0.367905 0.592767 0.044578
Si Si2 0.845689 0.508869 0.750000
Si Si3 0.743459 0.194059 0.408205
Si Si4 0.369871 0.080666 0.930513
Si Si5 0.876927 0.966195 0.750000
Si Si6 0.870580 0.295735 0.104548
Si Si7 0.629737 0.121984 0.250000
O O1 0.500000 0.580372 0.009328
O O2 0.348690 0.658669 0.047531
O O3 0.365524 0.569074 0.152937
O O4 0.249154 0.572153 0.991091
O O5 0.882265 0.535680 0.848463
O O6 0.710304 0.515167 0.750000
O O7 0.000000 0.991339 0.750000
O O8 0.786525 0.248989 0.358124
O O9 0.653956 0.208405 0.490987
O O10 0.686849 0.150024 0.340141
O O11 0.500000 0.083294 0.978523
O O12 0.353192 0.139724 0.878667
O O13 0.635453 0.943694 0.750000
O O14 0.000000 0.282350 0.130480
O O15 0.500000 0.138747 0.250000
#
# Coordination Sequence:
#
# PCOD9471497 Si02
#       7
#    16   8  16  16   8  16   8
#     4  10  20  40  66  95 129 169 216 268 329 394
#     4  12  24  45  63  90 130 181 224 276 325 391
#     4  10  19  36  62  93 124 158 207 260 324 390
#     4  10  23  42  64  95 132 176 224 268 324 393
#     4  10  22  42  64  91 129 166 213 272 329 391
#     4   9  19  37  61  89 124 161 203 258 318 387
#     4  12  24  39  61  91 126 165 212 274 331 382
#
# _framework density 22.075747
#
# number of rings (size 3 to 8) (size 9 to 14) (size 15 to 20)
#    0.000    1.818    1.818    1.909    0.000    2.909 
#    0.000    6.364    0.000    1.091    0.000    0.000 
#    0.000    0.000    0.000    0.000    0.000    0.000 
#
# Total GULP energy -245012.658663 kJ/mol
# GULP energy per Si atom -5568.469515 kJ/mol
# Density = 2.202550 g / cm^3
# Si number density = 22.075747 Si / 1000 Ang^3
#
#
#
# Elastic Constant Matrix: (Units=GPa)
#
#
# Indices 1 2 3 4 5 6 
#
# 1 190.5353 34.1292 45.6355 0.0000 0.0000 0.0000
# 2 34.1292 111.2391 31.5215 0.0000 0.0000 0.0000
# 3 45.6355 31.5215 83.2691 0.0000 0.0000 0.0000
# 4 0.0000 0.0000 0.0000 31.2177 0.0000 0.0000
# 5 0.0000 0.0000 0.0000 0.0000 129.7848 0.0000
# 6 0.0000 0.0000 0.0000 0.0000 0.0000 20.9163
#
#
#
# Elastic Compliance Matrix: (Units=1/GPa)
#
#
# Indices 1 2 3 4 5 6 
#
# 1 0.006148 -0.001043 -0.002974 0.000000 0.000000 0.000000
# 2 -0.001043 0.010247 -0.003307 0.000000 0.000000 0.000000
# 3 -0.002974 -0.003307 0.014891 0.000000 0.000000 0.000000
# 4 0.000000 0.000000 0.000000 0.032033 0.000000 0.000000
# 5 0.000000 0.000000 0.000000 0.000000 0.007705 0.000000
# 6 0.000000 0.000000 0.000000 0.000000 0.000000 0.047810
#
#
# Mechanical properties :
#
#
# Convention : Reuss Voigt Hill
#
# Bulk Modulus (GPa) = 60.10975 67.51290 63.81132
# Shear Modulus (GPa) = 35.96387 54.63424 45.29905
#
# Velocity S-wave (km/s) = 4.04060 4.98019 4.53480
# Velocity P-wave (km/s) = 7.00404 7.98238 7.50916
#
# Compressibility (1/GPa) = 0.01663624
#
# Stress axis : x y z
#
# Youngs Moduli (GPa) = 162.66449 97.59050 67.15373
#
# Poissons Ratio (x) = 0.10182 0.19973
# Poissons Ratio (y) = 0.16972 0.22209
# Poissons Ratio (z) = 0.48380 0.32275
#
# Static dielectric constant tensor:
#      x y z
#    x 1.889980 0.000000 0.000000 
#    y 0.000000 1.832520 0.000000 
#    z 0.000000 0.000000 1.854420 
# 
# From -- ./inp_files/30165.got.cif
#   From: 2010.05.17/outbox.cif.g08.bks.cpg/sg63_16_cif.got.tgz:30165.got - 2010.06.03 15:47:04.
