data_PCOD9471225
_publ_section_title
;
Structure prediction by ZEFSAII (Michael W. Deem and Ramdas Pophale) SiO2 
 PCOD9471225
Probable space group: C M C M
;
_chemical_formula_sum "Si O2"
_cell_formula_units_Z 88
_cell_length_a 24.023592
_cell_length_b 8.574745
_cell_length_c 22.946651
_cell_angle_alpha 90.000000
_cell_angle_beta 90.000000
_cell_angle_gamma 90.000000
_cell_volume 4726.922344
_symmetry_space_group_name_H-M "C M C M"
_symmetry_group_IT_number 63
_symmetry_cell_setting 'orthorhombic'
loop_
_space_group_symop_operation_xyz
x,y,z
-x,-y,1/2+z
x,-y,-z
-x,y,1/2-z
-x,-y,-z
x,y,1/2-z
-x,y,z
x,-y,1/2+z
1/2+x,1/2+y,z
1/2-x,1/2-y,1/2+z
1/2+x,1/2-y,-z
1/2-x,1/2+y,1/2-z
1/2-x,1/2-y,-z
1/2+x,1/2+y,1/2-z
1/2-x,1/2+y,z
1/2+x,1/2-y,1/2+z
loop_
_atom_site_type_symbol
_atom_site_label
_atom_site_fract_x
_atom_site_fract_y
_atom_site_fract_z
Si Si1 0.000000 0.387614 0.685748
Si Si2 0.685411 0.702536 0.559389
Si Si3 0.000000 0.991921 0.567964
Si Si4 0.000000 0.714716 0.852346
Si Si5 0.690360 0.673214 0.428762
Si Si6 0.619951 0.667829 0.185559
Si Si7 0.092953 0.836210 0.357509
O O1 0.000000 0.530049 0.641251
O O2 0.053518 0.279148 0.677538
O O3 0.000000 0.458852 0.750000
O O4 0.669408 0.735189 0.491915
O O5 0.688498 0.514708 0.566534
O O6 0.745595 0.773350 0.573102
O O7 0.640152 0.753129 0.606616
O O8 0.000000 0.813980 0.588698
O O9 0.000000 0.000000 0.500000
O O10 0.053406 0.076850 0.595419
O O11 0.943091 0.768228 0.820772
O O12 0.655871 0.719578 0.371031
O O13 0.641459 0.710981 0.250000
O O14 0.616427 0.479205 0.180381
#
# Coordination Sequence:
#
# PCOD9471225 Si02
#       7
#     8  16   8   8  16  16  16
#     4  11  21  37  52  77 113 145 176 224 281 331
#     4   9  18  35  54  76 103 135 182 220 273 326
#     4   9  19  33  58  80 109 142 182 228 266 326
#     4  10  22  34  55  81 108 145 177 218 276 325
#     4   9  19  33  55  75 101 139 172 224 271 320
#     4  10  19  35  54  78 103 140 188 223 262 334
#     4   9  20  33  55  79 104 144 183 222 274 328
#
# _framework density 18.616765000000001
#
# number of rings (size 3 to 8) (size 9 to 14) (size 15 to 20)
#    0.000    2.545    0.000    1.909    7.636    1.455 
#    0.000    6.364    0.000    0.000    0.000    0.000 
#    0.000    0.000    0.000    0.000    0.000    0.000 
#
# Total GULP energy -245252.795521 kJ/mol
# GULP energy per Si atom -5573.927171 kJ/mol
# Density = 1.857439 g / cm^3
# Si number density = 18.616765 Si / 1000 Ang^3
#
#
#
# Elastic Constant Matrix: (Units=GPa)
#
#
# Indices 1 2 3 4 5 6 
#
# 1 78.3210 2.2271 49.4039 0.0000 0.0000 0.0000
# 2 2.2271 31.1775 7.2820 0.0000 0.0000 0.0000
# 3 49.4039 7.2820 121.8403 0.0000 0.0000 0.0000
# 4 0.0000 0.0000 0.0000 13.5161 0.0000 0.0000
# 5 0.0000 0.0000 0.0000 0.0000 7.2418 0.0000
# 6 0.0000 0.0000 0.0000 0.0000 0.0000 21.5968
#
#
#
# Elastic Compliance Matrix: (Units=1/GPa)
#
#
# Indices 1 2 3 4 5 6 
#
# 1 0.017161 0.000405 -0.006983 0.000000 0.000000 0.000000
# 2 0.000405 0.032538 -0.002109 0.000000 0.000000 0.000000
# 3 -0.006983 -0.002109 0.011165 0.000000 0.000000 0.000000
# 4 0.000000 0.000000 0.000000 0.073986 0.000000 0.000000
# 5 0.000000 0.000000 0.000000 0.000000 0.138088 0.000000
# 6 0.000000 0.000000 0.000000 0.000000 0.000000 0.046303
#
#
# Mechanical properties :
#
#
# Convention : Reuss Voigt Hill
#
# Bulk Modulus (GPa) = 22.99332 38.79607 30.89470
# Shear Modulus (GPa) = 14.24050 19.96598 17.10324
#
# Velocity S-wave (km/s) = 2.76874 3.27842 3.03430
# Velocity P-wave (km/s) = 4.75383 5.93424 5.37653
#
# Compressibility (1/GPa) = 0.04349090
#
# Stress axis : x y z
#
# Youngs Moduli (GPa) = 58.27150 30.73320 89.56678
#
# Poissons Ratio (x) = -0.01245 0.62542
# Poissons Ratio (y) = -0.02360 0.18889
# Poissons Ratio (z) = 0.40689 0.06481
#
# Static dielectric constant tensor:
#      x y z
#    x 1.657980 0.000000 0.000000 
#    y 0.000000 1.631450 0.000000 
#    z 0.000000 0.000000 1.652940 
# 
# From -- ./inp_files/57375.got.cif
#   From: 2010.05.17/outbox.cif.g08.bks.cpg/sg63_29_cif.got.tgz:57375.got - 2010.06.03 15:47:04.
