data_PCOD9471967
_publ_section_title
;
Structure prediction by ZEFSAII (Michael W. Deem and Ramdas Pophale) SiO2 
 PCOD9471967
Probable space group: C M C M
;
_chemical_formula_sum "Si O2"
_cell_formula_units_Z 96
_cell_length_a 7.547842
_cell_length_b 19.928050
_cell_length_c 30.493394
_cell_angle_alpha 90.000000
_cell_angle_beta 90.000000
_cell_angle_gamma 90.000000
_cell_volume 4586.626436
_symmetry_space_group_name_H-M "C M C M"
_symmetry_group_IT_number 63
_symmetry_cell_setting 'orthorhombic'
loop_
_space_group_symop_operation_xyz
x,y,z
-x,-y,1/2+z
x,-y,-z
-x,y,1/2-z
-x,-y,-z
x,y,1/2-z
-x,y,z
x,-y,1/2+z
1/2+x,1/2+y,z
1/2-x,1/2-y,1/2+z
1/2+x,1/2-y,-z
1/2-x,1/2+y,1/2-z
1/2-x,1/2-y,-z
1/2+x,1/2+y,1/2-z
1/2-x,1/2+y,z
1/2+x,1/2-y,1/2+z
loop_
_atom_site_type_symbol
_atom_site_label
_atom_site_fract_x
_atom_site_fract_y
_atom_site_fract_z
Si Si1 0.793164 0.068324 0.619762
Si Si2 0.714313 0.162155 0.699528
Si Si3 0.286226 0.674221 0.950369
Si Si4 0.283720 0.313592 0.699470
Si Si5 0.795113 0.920191 0.629850
Si Si6 0.290257 0.174520 0.447899
O O1 0.781742 0.107849 0.665440
O O2 0.717209 0.117733 0.582615
O O3 0.000000 0.059327 0.607814
O O4 0.714698 0.993990 0.624253
O O5 0.767755 0.150112 0.750000
O O6 0.500000 0.160775 0.698304
O O7 0.771899 0.237884 0.687138
O O8 0.500000 0.676658 0.946942
O O9 0.221894 0.749644 0.939514
O O10 0.241699 0.660083 0.000912
O O11 0.233364 0.325628 0.750000
O O12 0.500000 0.312956 0.698040
O O13 0.217669 0.370483 0.666587
O O14 0.790935 0.879682 0.584459
O O15 0.000000 0.930677 0.643156
O O16 0.500000 0.173941 0.439930
#
# Coordination Sequence:
#
# PCOD9471967 Si02
#       6
#    16  16  16  16  16  16
#     4  10  21  34  50  75 104 134 165 201 250 301
#     4   9  18  33  53  75  99 130 167 206 246 287
#     4   9  19  36  54  73 100 131 166 209 253 297
#     4   8  15  30  52  75  97 126 167 206 238 283
#     4  10  20  33  51  75 103 134 164 200 249 299
#     4  10  20  34  54  76  97 128 170 211 249 294
#
# _framework density 20.930416000000001
#
# number of rings (size 3 to 8) (size 9 to 14) (size 15 to 20)
#    0.000    2.667    0.000    2.500    0.000    3.667 
#    0.000    5.000    0.000    1.500    0.000    0.000 
#    0.000    0.000    0.000    0.000    0.000    0.000 
#
# Total GULP energy -267969.840552 kJ/mol
# GULP energy per Si atom -5582.705011 kJ/mol
# Density = 2.088278 g / cm^3
# Si number density = 20.930416 Si / 1000 Ang^3
#
#
#
# Elastic Constant Matrix: (Units=GPa)
#
#
# Indices 1 2 3 4 5 6 
#
# 1 49.8347 -0.6704 -12.3281 0.0000 0.0000 0.0000
# 2 -0.6704 191.5921 107.5916 0.0000 0.0000 0.0000
# 3 -12.3281 107.5916 96.8982 0.0000 0.0000 0.0000
# 4 0.0000 0.0000 0.0000 -38.0816 0.0000 0.0000
# 5 0.0000 0.0000 0.0000 0.0000 11.9199 0.0000
# 6 0.0000 0.0000 0.0000 0.0000 0.0000 -4.5398
#
#
#
# Elastic Compliance Matrix: (Units=1/GPa)
#
#
# Indices 1 2 3 4 5 6 
#
# 1 0.021779 -0.003931 0.007135 0.000000 0.000000 0.000000
# 2 -0.003931 0.014574 -0.016682 0.000000 0.000000 0.000000
# 3 0.007135 -0.016682 0.029751 0.000000 0.000000 0.000000
# 4 0.000000 0.000000 0.000000 -0.026259 0.000000 0.000000
# 5 0.000000 0.000000 0.000000 0.000000 0.083894 0.000000
# 6 0.000000 0.000000 0.000000 0.000000 0.000000 -0.220273
#
#
# Mechanical properties :
#
#
# Convention : Reuss Voigt Hill
#
# Bulk Modulus (GPa) = 25.54387 58.61239 42.07813
# Shear Modulus (GPa) = -88.44907 10.10847 -39.17030
#
# Velocity S-wave (km/s) = -6.50772 2.20001 -4.33072
# Velocity P-wave (km/s) = 6.65105 5.87517 2.20441
#
# Compressibility (1/GPa) = 0.03914833
#
# Stress axis : x y z
#
# Youngs Moduli (GPa) = 45.91663 68.61580 33.61200
#
# Poissons Ratio (x) = 0.26972 -0.23984
# Poissons Ratio (y) = 0.18049 0.56073
# Poissons Ratio (z) = -0.32763 1.14467
#
# Static dielectric constant tensor:
#      x y z
#    x 1.791310 0.000000 0.000000 
#    y 0.000000 1.753790 0.000000 
#    z 0.000000 0.000000 1.711150 
# 
# From -- ./inp_files/66879.got.cif
#   From: 2010.05.17/outbox.cif.g08.bks.cpg/sg63_34_cif.got.tgz:66879.got - 2010.06.03 15:47:04.
