data_PCOD9471661
_publ_section_title
;
Structure prediction by ZEFSAII (Michael W. Deem and Ramdas Pophale) SiO2 
 PCOD9471661
Probable space group: C M C M
;
_chemical_formula_sum "Si O2"
_cell_formula_units_Z 96
_cell_length_a 25.790062
_cell_length_b 24.159530
_cell_length_c 8.664574
_cell_angle_alpha 90.000000
_cell_angle_beta 90.000000
_cell_angle_gamma 90.000000
_cell_volume 5398.686174
_symmetry_space_group_name_H-M "C M C M"
_symmetry_group_IT_number 63
_symmetry_cell_setting 'orthorhombic'
loop_
_space_group_symop_operation_xyz
x,y,z
-x,-y,1/2+z
x,-y,-z
-x,y,1/2-z
-x,-y,-z
x,y,1/2-z
-x,y,z
x,-y,1/2+z
1/2+x,1/2+y,z
1/2-x,1/2-y,1/2+z
1/2+x,1/2-y,-z
1/2-x,1/2+y,1/2-z
1/2-x,1/2-y,-z
1/2+x,1/2+y,1/2-z
1/2-x,1/2+y,z
1/2+x,1/2-y,1/2+z
loop_
_atom_site_type_symbol
_atom_site_label
_atom_site_fract_x
_atom_site_fract_y
_atom_site_fract_z
Si Si1 0.598049 0.136779 0.436871
Si Si2 0.188381 0.939269 0.935580
Si Si3 0.191730 0.560119 0.064358
Si Si4 0.000000 0.061884 0.065332
Si Si5 0.938878 0.247346 0.065227
Si Si6 0.403594 0.368746 0.434077
Si Si7 0.500000 0.061633 0.435463
O O1 0.597462 0.142070 0.250000
O O2 0.651533 0.107310 0.484377
O O3 0.587842 0.196331 0.509684
O O4 0.550853 0.096123 0.482016
O O5 0.184475 0.939756 0.750000
O O6 0.248506 0.929255 0.979969
O O7 0.150051 0.894021 0.004792
O O8 0.174001 0.000000 0.000000
O O9 0.189873 0.557021 0.250000
O O10 0.176439 0.500000 0.000000
O O11 0.000000 0.060874 0.250000
O O12 0.949671 0.094401 0.005624
O O13 0.000000 0.000000 0.000000
O O14 0.935838 0.242401 0.250000
O O15 0.000000 0.249139 0.022097
O O16 0.913116 0.193808 0.988751
O O17 0.405771 0.372117 0.250000
O O18 0.500000 0.058356 0.250000
O O19 0.500000 0.000000 0.500000
#
# Coordination Sequence:
#
# PCOD9471661 Si02
#       7
#    16  16  16   8  16  16   8
#     4  10  20  36  56  82 114 151 192 235 284 340
#     4  10  20  37  59  85 117 152 191 236 285 339
#     4   9  19  35  58  85 116 153 192 236 287 340
#     4  12  24  39  58  85 118 149 183 229 281 338
#     4  11  23  39  59  83 112 150 192 236 285 339
#     4  12  24  39  60  85 113 149 190 233 284 340
#     4  10  20  31  50  79 114 147 181 229 281 334
#
# _framework density 17.782104
#
# number of rings (size 3 to 8) (size 9 to 14) (size 15 to 20)
#    0.000    1.500    1.667    4.250    0.000    2.667 
#    0.000    0.833    0.000    0.000    0.000    0.000 
#    0.000    0.000    0.000    0.000    0.000    0.000 
#
# Total GULP energy -268266.780461 kJ/mol
# GULP energy per Si atom -5588.891260 kJ/mol
# Density = 1.774163 g / cm^3
# Si number density = 17.782104 Si / 1000 Ang^3
#
#
#
# Elastic Constant Matrix: (Units=GPa)
#
#
# Indices 1 2 3 4 5 6 
#
# 1 111.5993 92.2981 46.6815 0.0000 0.0000 0.0000
# 2 92.2981 181.8932 59.6942 0.0000 0.0000 0.0000
# 3 46.6815 59.6942 76.8875 0.0000 0.0000 0.0000
# 4 0.0000 0.0000 0.0000 37.2762 0.0000 0.0000
# 5 0.0000 0.0000 0.0000 0.0000 11.4613 0.0000
# 6 0.0000 0.0000 0.0000 0.0000 0.0000 14.8579
#
#
#
# Elastic Compliance Matrix: (Units=1/GPa)
#
#
# Indices 1 2 3 4 5 6 
#
# 1 0.016646 -0.006884 -0.004762 0.000000 0.000000 0.000000
# 2 -0.006884 0.010224 -0.003759 0.000000 0.000000 0.000000
# 3 -0.004762 -0.003759 0.018815 0.000000 0.000000 0.000000
# 4 0.000000 0.000000 0.000000 0.026827 0.000000 0.000000
# 5 0.000000 0.000000 0.000000 0.000000 0.087250 0.000000
# 6 0.000000 0.000000 0.000000 0.000000 0.000000 0.067304
#
#
# Mechanical properties :
#
#
# Convention : Reuss Voigt Hill
#
# Bulk Modulus (GPa) = 67.21844 85.30307 76.26075
# Shear Modulus (GPa) = 19.02343 24.16615 21.59479
#
# Velocity S-wave (km/s) = 3.27434 3.69048 3.48862
# Velocity P-wave (km/s) = 7.22346 8.13849 7.69459
#
# Compressibility (1/GPa) = 0.01487687
#
# Stress axis : x y z
#
# Youngs Moduli (GPa) = 60.07552 97.80663 53.14868
#
# Poissons Ratio (x) = 0.67328 0.25308
# Poissons Ratio (y) = 0.41355 0.19976
# Poissons Ratio (z) = 0.28607 0.36761
#
# Static dielectric constant tensor:
#      x y z
#    x 1.607110 0.000000 0.000000 
#    y 0.000000 1.565910 0.000000 
#    z 0.000000 0.000000 1.597400 
# 
# From -- ./inp_files/10535.got.cif
#   From: 2010.05.17/outbox.cif.g08.bks.cpg/sg63_6_cif.got.tgz:10535.got - 2010.06.03 15:47:04.
