data_PCOD9471843
_publ_section_title
;
Structure prediction by ZEFSAII (Michael W. Deem and Ramdas Pophale) SiO2 
 PCOD9471843
Probable space group: C M C M
;
_chemical_formula_sum "Si O2"
_cell_formula_units_Z 64
_cell_length_a 35.597510
_cell_length_b 13.797237
_cell_length_c 8.748006
_cell_angle_alpha 90.000000
_cell_angle_beta 90.000000
_cell_angle_gamma 90.000000
_cell_volume 4296.559371
_symmetry_space_group_name_H-M "C M C M"
_symmetry_group_IT_number 63
_symmetry_cell_setting 'orthorhombic'
loop_
_space_group_symop_operation_xyz
x,y,z
-x,-y,1/2+z
x,-y,-z
-x,y,1/2-z
-x,-y,-z
x,y,1/2-z
-x,y,z
x,-y,1/2+z
1/2+x,1/2+y,z
1/2-x,1/2-y,1/2+z
1/2+x,1/2-y,-z
1/2-x,1/2+y,1/2-z
1/2-x,1/2-y,-z
1/2+x,1/2+y,1/2-z
1/2-x,1/2+y,z
1/2+x,1/2-y,1/2+z
loop_
_atom_site_type_symbol
_atom_site_label
_atom_site_fract_x
_atom_site_fract_y
_atom_site_fract_z
Si Si1 0.881691 0.608969 0.567727
Si Si2 0.733937 0.602272 0.932467
Si Si3 0.041146 0.609139 0.066730
Si Si4 0.307482 0.199092 0.067443
O O1 0.877867 0.500000 0.500000
O O2 0.882722 0.602688 0.750000
O O3 0.921120 0.651846 0.505692
O O4 0.846194 0.669833 0.511100
O O5 0.738238 0.595808 0.750000
O O6 0.705788 0.691111 0.966269
O O7 0.721367 0.500000 0.000000
O O8 0.773908 0.631285 0.005869
O O9 0.045009 0.604719 0.250000
O O10 0.000000 0.653154 0.031364
O O11 0.040028 0.500000 0.000000
O O12 0.310604 0.187608 0.250000
#
# Coordination Sequence:
#
# PCOD9471843 Si02
#       4
#    16  16  16  16
#     4  11  20  29  43  62  87 117 148 182 216 253
#     4  10  20  33  49  66  86 113 143 179 219 258
#     4   9  16  26  40  58  82 112 144 176 211 253
#     4  10  20  33  47  64  87 114 146 180 214 255
#
# _framework density 14.895638999999999
#
# number of rings (size 3 to 8) (size 9 to 14) (size 15 to 20)
#    0.000    2.000    0.000    6.750    0.000    4.500 
#    0.000    0.000    0.000    0.000    0.000    0.000 
#    0.000    1.000    0.000    3.250    0.000    4.500 
#
# Total GULP energy -178457.125517 kJ/mol
# GULP energy per Si atom -5576.785172 kJ/mol
# Density = 1.486174 g / cm^3
# Si number density = 14.895639 Si / 1000 Ang^3
#
#
#
# Elastic Constant Matrix: (Units=GPa)
#
#
# Indices 1 2 3 4 5 6 
#
# 1 149.8814 35.6411 67.3827 0.0000 0.0000 0.0000
# 2 35.6411 56.0163 35.2020 0.0000 0.0000 0.0000
# 3 67.3827 35.2020 99.3937 0.0000 0.0000 0.0000
# 4 0.0000 0.0000 0.0000 20.0927 0.0000 0.0000
# 5 0.0000 0.0000 0.0000 0.0000 28.3641 0.0000
# 6 0.0000 0.0000 0.0000 0.0000 0.0000 23.9002
#
#
#
# Elastic Compliance Matrix: (Units=1/GPa)
#
#
# Indices 1 2 3 4 5 6 
#
# 1 0.009899 -0.002677 -0.005763 0.000000 0.000000 0.000000
# 2 -0.002677 0.023687 -0.006574 0.000000 0.000000 0.000000
# 3 -0.005763 -0.006574 0.016296 0.000000 0.000000 0.000000
# 4 0.000000 0.000000 0.000000 0.049769 0.000000 0.000000
# 5 0.000000 0.000000 0.000000 0.000000 0.035256 0.000000
# 6 0.000000 0.000000 0.000000 0.000000 0.000000 0.041841
#
#
# Mechanical properties :
#
#
# Convention : Reuss Voigt Hill
#
# Bulk Modulus (GPa) = 50.36801 64.63812 57.50307
# Shear Modulus (GPa) = 23.43076 25.60912 24.51994
#
# Velocity S-wave (km/s) = 3.97040 4.15087 4.06164
# Velocity P-wave (km/s) = 7.40987 8.15237 7.78997
#
# Compressibility (1/GPa) = 0.01985387
#
# Stress axis : x y z
#
# Youngs Moduli (GPa) = 101.01563 42.21798 61.36326
#
# Poissons Ratio (x) = 0.11302 0.35364
# Poissons Ratio (y) = 0.27042 0.40341
# Poissons Ratio (z) = 0.58216 0.27755
#
# Static dielectric constant tensor:
#      x y z
#    x 1.522420 0.000000 0.000000 
#    y 0.000000 1.473970 0.000000 
#    z 0.000000 0.000000 1.494500 
# 
# From -- ./inp_files/13850.got.cif
#   From: 2010.05.17/outbox.cif.g08.bks.cpg/sg63_7_cif.got.tgz:13850.got - 2010.06.03 15:47:04.
