data_PCOD9471018
_publ_section_title
;
Structure prediction by ZEFSAII (Michael W. Deem and Ramdas Pophale) SiO2 
 PCOD9471018
Probable space group: C M C M
;
_chemical_formula_sum "Si O2"
_cell_formula_units_Z 96
_cell_length_a 11.240005
_cell_length_b 25.188621
_cell_length_c 19.179185
_cell_angle_alpha 90.000000
_cell_angle_beta 90.000000
_cell_angle_gamma 90.000000
_cell_volume 5430.015191
_symmetry_space_group_name_H-M "C M C M"
_symmetry_group_IT_number 63
_symmetry_cell_setting 'orthorhombic'
loop_
_space_group_symop_operation_xyz
x,y,z
-x,-y,1/2+z
x,-y,-z
-x,y,1/2-z
-x,-y,-z
x,y,1/2-z
-x,y,z
x,-y,1/2+z
1/2+x,1/2+y,z
1/2-x,1/2-y,1/2+z
1/2+x,1/2-y,-z
1/2-x,1/2+y,1/2-z
1/2-x,1/2-y,-z
1/2+x,1/2+y,1/2-z
1/2-x,1/2+y,z
1/2+x,1/2-y,1/2+z
loop_
_atom_site_type_symbol
_atom_site_label
_atom_site_fract_x
_atom_site_fract_y
_atom_site_fract_z
Si Si1 0.256082 0.842310 0.104726
Si Si2 0.500000 0.963949 0.332154
Si Si3 0.214287 0.484580 0.581472
Si Si4 0.139223 0.055807 0.670910
Si Si5 0.639919 0.127548 0.455396
Si Si6 0.000000 0.335980 0.330727
Si Si7 0.635604 0.754404 0.551306
O O1 0.211282 0.891323 0.150502
O O2 0.378746 0.817959 0.133420
O O3 0.158382 0.796045 0.100202
O O4 0.290881 0.865316 0.028579
O O5 0.500000 0.977576 0.250000
O O6 0.611779 0.987568 0.373135
O O7 0.500000 0.900224 0.337271
O O8 0.203810 0.500000 0.500000
O O9 0.330943 0.509493 0.616127
O O10 0.197126 0.421446 0.584980
O O11 0.171455 0.039984 0.750000
O O12 0.000000 0.068031 0.668447
O O13 0.500000 0.115140 0.469070
O O14 0.643860 0.185563 0.419782
O O15 0.000000 0.321960 0.250000
O O16 0.500000 0.750679 0.521674
O O17 0.750000 0.750000 0.500000
#
# Coordination Sequence:
#
# PCOD9471018 Si02
#       7
#    16   8  16  16  16   8  16
#     4  11  19  35  57  83 115 146 190 239 293 350
#     4  11  21  33  55  87 117 147 183 227 293 354
#     4  12  21  34  57  86 116 145 185 239 289 344
#     4  11  24  39  55  78 114 156 194 239 297 355
#     4  10  19  34  54  86 117 144 180 235 291 338
#     4  11  20  31  55  87 113 145 192 243 291 345
#     4   9  20  35  56  83 116 151 188 235 292 353
#
# _framework density 17.679507999999998
#
# number of rings (size 3 to 8) (size 9 to 14) (size 15 to 20)
#    0.000    1.333    5.000    1.750    1.167    0.333 
#    0.000    0.833    0.000    4.000    0.000    0.000 
#    0.000    0.000    0.000    0.000    0.000    0.000 
#
# Total GULP energy -267591.313427 kJ/mol
# GULP energy per Si atom -5574.819030 kJ/mol
# Density = 1.763927 g / cm^3
# Si number density = 17.679508 Si / 1000 Ang^3
#
#
#
# Elastic Constant Matrix: (Units=GPa)
#
#
# Indices 1 2 3 4 5 6 
#
# 1 94.8287 29.0934 20.3765 0.0000 0.0000 0.0000
# 2 29.0934 91.0771 20.6241 0.0000 0.0000 0.0000
# 3 20.3765 20.6241 75.3686 0.0000 0.0000 0.0000
# 4 0.0000 0.0000 0.0000 12.7453 0.0000 0.0000
# 5 0.0000 0.0000 0.0000 0.0000 23.1618 0.0000
# 6 0.0000 0.0000 0.0000 0.0000 0.0000 29.2951
#
#
#
# Elastic Compliance Matrix: (Units=1/GPa)
#
#
# Indices 1 2 3 4 5 6 
#
# 1 0.012071 -0.003323 -0.002354 0.000000 0.000000 0.000000
# 2 -0.003323 0.012620 -0.002555 0.000000 0.000000 0.000000
# 3 -0.002354 -0.002555 0.014604 0.000000 0.000000 0.000000
# 4 0.000000 0.000000 0.000000 0.078461 0.000000 0.000000
# 5 0.000000 0.000000 0.000000 0.000000 0.043175 0.000000
# 6 0.000000 0.000000 0.000000 0.000000 0.000000 0.034135
#
#
# Mechanical properties :
#
#
# Convention : Reuss Voigt Hill
#
# Bulk Modulus (GPa) = 43.80133 44.60694 44.20413
# Shear Modulus (GPa) = 22.81664 25.78579 24.30122
#
# Velocity S-wave (km/s) = 3.59635 3.82319 3.71150
# Velocity P-wave (km/s) = 6.48644 6.69139 6.58971
#
# Compressibility (1/GPa) = 0.02283036
#
# Stress axis : x y z
#
# Youngs Moduli (GPa) = 82.84606 79.24142 68.47567
#
# Poissons Ratio (x) = 0.26330 0.16120
# Poissons Ratio (y) = 0.27527 0.17495
# Poissons Ratio (z) = 0.19503 0.20246
#
# Static dielectric constant tensor:
#      x y z
#    x 1.646470 0.000000 0.000000 
#    y 0.000000 1.620060 0.000000 
#    z 0.000000 0.000000 1.606640 
# 
# From -- ./inp_files/42735.got.cif
#   From: 2010.05.17/outbox.cif.g08.bks.cpg/sg63_22_cif.got.tgz:42735.got - 2010.06.03 15:47:04.
