data_PCOD9471644
_publ_section_title
;
Structure prediction by ZEFSAII (Michael W. Deem and Ramdas Pophale) SiO2 
 PCOD9471644
Probable space group: C M C M
;
_chemical_formula_sum "Si O2"
_cell_formula_units_Z 96
_cell_length_a 26.369098
_cell_length_b 24.238055
_cell_length_c 7.759909
_cell_angle_alpha 90.000000
_cell_angle_beta 90.000000
_cell_angle_gamma 90.000000
_cell_volume 4959.634464
_symmetry_space_group_name_H-M "C M C M"
_symmetry_group_IT_number 63
_symmetry_cell_setting 'orthorhombic'
loop_
_space_group_symop_operation_xyz
x,y,z
-x,-y,1/2+z
x,-y,-z
-x,y,1/2-z
-x,-y,-z
x,y,1/2-z
-x,y,z
x,-y,1/2+z
1/2+x,1/2+y,z
1/2-x,1/2-y,1/2+z
1/2+x,1/2-y,-z
1/2-x,1/2+y,1/2-z
1/2-x,1/2-y,-z
1/2+x,1/2+y,1/2-z
1/2-x,1/2+y,z
1/2+x,1/2-y,1/2+z
loop_
_atom_site_type_symbol
_atom_site_label
_atom_site_fract_x
_atom_site_fract_y
_atom_site_fract_z
Si Si1 0.805183 0.063271 0.542540
Si Si2 0.500000 0.564334 0.542600
Si Si3 0.809405 0.563270 0.542085
Si Si4 0.058152 0.248493 0.457674
Si Si5 0.098000 0.365121 0.454384
Si Si6 0.598745 0.630131 0.957390
Si Si7 0.000000 0.564357 0.454377
O O1 0.803403 0.067839 0.750000
O O2 0.747926 0.073575 0.477796
O O3 0.848709 0.104168 0.477519
O O4 0.818618 0.000000 0.500000
O O5 0.500000 0.500000 0.500000
O O6 0.500000 0.569456 0.750000
O O7 0.449503 0.594986 0.477621
O O8 0.822946 0.500000 0.500000
O O9 0.808457 0.567348 0.750000
O O10 0.851927 0.605058 0.474514
O O11 0.055531 0.252479 0.250000
O O12 0.083322 0.304916 0.524338
O O13 0.089096 0.193756 0.501164
O O14 0.000000 0.243446 0.521166
O O15 0.106381 0.358164 0.250000
O O16 0.049899 0.405106 0.476596
O O17 0.599342 0.624838 0.750000
O O18 0.000000 0.500000 0.500000
O O19 0.000000 0.570053 0.250000
#
# Coordination Sequence:
#
# PCOD9471644 Si02
#       7
#    16   8  16  16  16  16   8
#     4   9  18  33  53  78 105 137 172 212 261 310
#     4  10  20  31  46  71  99 130 162 204 257 304
#     4   9  18  33  55  78 104 137 171 211 260 310
#     4  10  20  35  54  74  99 136 177 214 256 308
#     4  10  20  37  56  76 105 137 175 218 259 309
#     4  10  20  34  51  73 105 136 171 213 257 309
#     4  12  24  35  52  79 109 138 170 212 263 316
#
# _framework density 19.356265
#
# number of rings (size 3 to 8) (size 9 to 14) (size 15 to 20)
#    0.000    2.167    1.667    1.750    0.000    4.000 
#    0.000    0.833    0.000    0.000    0.000    0.000 
#    0.000    0.000    0.000    0.000    0.000    0.000 
#
# Total GULP energy -267971.804265 kJ/mol
# GULP energy per Si atom -5582.745922 kJ/mol
# Density = 1.931221 g / cm^3
# Si number density = 19.356265 Si / 1000 Ang^3
#
#
#
# Elastic Constant Matrix: (Units=GPa)
#
#
# Indices 1 2 3 4 5 6 
#
# 1 161.7349 119.8260 2.6693 0.0000 0.0000 0.0000
# 2 119.8260 185.4712 -8.6585 0.0000 0.0000 0.0000
# 3 2.6693 -8.6585 25.1956 0.0000 0.0000 0.0000
# 4 0.0000 0.0000 0.0000 23.3445 0.0000 0.0000
# 5 0.0000 0.0000 0.0000 0.0000 -4.5640 0.0000
# 6 0.0000 0.0000 0.0000 0.0000 0.0000 35.2258
#
#
#
# Elastic Compliance Matrix: (Units=1/GPa)
#
#
# Indices 1 2 3 4 5 6 
#
# 1 0.012260 -0.008112 -0.004086 0.000000 0.000000 0.000000
# 2 -0.008112 0.010846 0.004587 0.000000 0.000000 0.000000
# 3 -0.004086 0.004587 0.041699 0.000000 0.000000 0.000000
# 4 0.000000 0.000000 0.000000 0.042837 0.000000 0.000000
# 5 0.000000 0.000000 0.000000 0.000000 -0.219104 0.000000
# 6 0.000000 0.000000 0.000000 0.000000 0.000000 0.028388
#
#
# Mechanical properties :
#
#
# Convention : Reuss Voigt Hill
#
# Bulk Modulus (GPa) = 20.16834 66.67502 43.42168
# Shear Modulus (GPa) = -97.41934 28.03892 -34.69021
#
# Velocity S-wave (km/s) = -7.10203 3.81014 -4.23803
# Velocity P-wave (km/s) = 7.53722 7.34011 1.21088
#
# Compressibility (1/GPa) = 0.04958266
#
# Stress axis : x y z
#
# Youngs Moduli (GPa) = 81.56560 92.19680 23.98158
#
# Poissons Ratio (x) = 0.74786 0.09800
# Poissons Ratio (y) = 0.66162 -0.11000
# Poissons Ratio (z) = 0.33331 -0.42288
#
# Static dielectric constant tensor:
#      x y z
#    x 1.685110 0.000000 0.000000 
#    y 0.000000 1.639650 0.000000 
#    z 0.000000 0.000000 1.707360 
# 
# From -- ./inp_files/10515.got.cif
#   From: 2010.05.17/outbox.cif.g08.bks.cpg/sg63_6_cif.got.tgz:10515.got - 2010.06.03 15:47:04.
