data_PCOD9471158
_publ_section_title
;
Structure prediction by ZEFSAII (Michael W. Deem and Ramdas Pophale) SiO2 
 PCOD9471158
Probable space group: C M C M
;
_chemical_formula_sum "Si O2"
_cell_formula_units_Z 80
_cell_length_a 8.752439
_cell_length_b 18.582533
_cell_length_c 26.716702
_cell_angle_alpha 90.000000
_cell_angle_beta 90.000000
_cell_angle_gamma 90.000000
_cell_volume 4345.270846
_symmetry_space_group_name_H-M "C M C M"
_symmetry_group_IT_number 63
_symmetry_cell_setting 'orthorhombic'
loop_
_space_group_symop_operation_xyz
x,y,z
-x,-y,1/2+z
x,-y,-z
-x,y,1/2-z
-x,-y,-z
x,y,1/2-z
-x,y,z
x,-y,1/2+z
1/2+x,1/2+y,z
1/2-x,1/2-y,1/2+z
1/2+x,1/2-y,-z
1/2-x,1/2+y,1/2-z
1/2-x,1/2-y,-z
1/2+x,1/2+y,1/2-z
1/2-x,1/2+y,z
1/2+x,1/2-y,1/2+z
loop_
_atom_site_type_symbol
_atom_site_label
_atom_site_fract_x
_atom_site_fract_y
_atom_site_fract_z
Si Si1 0.676119 0.287657 0.750000
Si Si2 0.323749 0.537195 0.250000
Si Si3 0.182738 0.295215 0.644768
Si Si4 0.317115 0.954931 0.049943
Si Si5 0.184742 0.044711 0.358597
Si Si6 0.683297 0.704517 0.545980
O O1 0.500000 0.264707 0.750000
O O2 0.677349 0.375379 0.750000
O O3 0.757176 0.266686 0.801740
O O4 0.500000 0.512974 0.250000
O O5 0.258253 0.516947 0.196007
O O6 0.255973 0.373694 0.635467
O O7 0.221263 0.243701 0.598421
O O8 0.000000 0.303234 0.647237
O O9 0.500000 0.952469 0.055153
O O10 0.251498 0.875097 0.045303
O O11 0.244945 0.995481 0.097151
O O12 0.280655 0.000000 0.000000
O O13 0.000000 0.046067 0.357877
O O14 0.500000 0.701598 0.541797
O O15 0.750000 0.750000 0.500000
#
# Coordination Sequence:
#
# PCOD9471158 Si02
#       6
#     8   8  16  16  16  16
#     4   9  17  31  54  83 112 147 189 227 269 323
#     4   7  14  29  50  79 110 139 175 219 263 313
#     4  10  20  35  56  84 116 148 185 229 276 326
#     4  11  24  40  57  80 111 145 184 232 282 332
#     4  10  19  34  58  85 113 147 187 228 274 330
#     4  11  24  40  59  83 111 146 186 229 280 336
#
# _framework density 18.410820000000001
#
# number of rings (size 3 to 8) (size 9 to 14) (size 15 to 20)
#    0.000    2.000    0.000    5.100    0.000    9.600 
#    0.000    2.500    0.000    2.400    0.000    0.000 
#    0.000    0.000    0.000    0.000    0.000    0.000 
#
# Total GULP energy -223303.140553 kJ/mol
# GULP energy per Si atom -5582.578514 kJ/mol
# Density = 1.836892 g / cm^3
# Si number density = 18.410820 Si / 1000 Ang^3
#
#
#
# Elastic Constant Matrix: (Units=GPa)
#
#
# Indices 1 2 3 4 5 6 
#
# 1 70.6294 54.4706 84.6403 0.0000 0.0000 0.0000
# 2 54.4706 119.5403 103.9859 0.0000 0.0000 0.0000
# 3 84.6403 103.9859 215.4434 0.0000 0.0000 0.0000
# 4 0.0000 0.0000 0.0000 31.8512 0.0000 0.0000
# 5 0.0000 0.0000 0.0000 0.0000 34.7621 0.0000
# 6 0.0000 0.0000 0.0000 0.0000 0.0000 26.8416
#
#
#
# Elastic Compliance Matrix: (Units=1/GPa)
#
#
# Indices 1 2 3 4 5 6 
#
# 1 0.028816 -0.005658 -0.008590 0.000000 0.000000 0.000000
# 2 -0.005658 0.015531 -0.005273 0.000000 0.000000 0.000000
# 3 -0.008590 -0.005273 0.010561 0.000000 0.000000 0.000000
# 4 0.000000 0.000000 0.000000 0.031396 0.000000 0.000000
# 5 0.000000 0.000000 0.000000 0.000000 0.028767 0.000000
# 6 0.000000 0.000000 0.000000 0.000000 0.000000 0.037256
#
#
# Mechanical properties :
#
#
# Convention : Reuss Voigt Hill
#
# Bulk Modulus (GPa) = 63.02969 99.08961 81.05965
# Shear Modulus (GPa) = 25.42495 29.52540 27.47517
#
# Velocity S-wave (km/s) = 3.72018 4.00896 3.86727
# Velocity P-wave (km/s) = 7.26378 8.68143 8.00405
#
# Compressibility (1/GPa) = 0.01586554
#
# Stress axis : x y z
#
# Youngs Moduli (GPa) = 34.70300 64.38886 94.68584
#
# Poissons Ratio (x) = 0.36434 0.81332
# Poissons Ratio (y) = 0.19637 0.49928
# Poissons Ratio (z) = 0.29809 0.33952
#
# Static dielectric constant tensor:
#      x y z
#    x 1.621230 0.000000 0.000000 
#    y 0.000000 1.595920 0.000000 
#    z 0.000000 0.000000 1.649160 
# 
# From -- ./inp_files/66705.got.cif
#   From: 2010.05.17/outbox.cif.g08.bks.cpg/sg63_34_cif.got.tgz:66705.got - 2010.06.03 15:47:04.
