data_PCOD9471934
_publ_section_title
;
Structure prediction by ZEFSAII (Michael W. Deem and Ramdas Pophale) SiO2 
 PCOD9471934
Probable space group: C M C M
;
_chemical_formula_sum "Si O2"
_cell_formula_units_Z 80
_cell_length_a 18.535933
_cell_length_b 28.301384
_cell_length_c 8.545896
_cell_angle_alpha 90.000000
_cell_angle_beta 90.000000
_cell_angle_gamma 90.000000
_cell_volume 4483.113440
_symmetry_space_group_name_H-M "C M C M"
_symmetry_group_IT_number 63
_symmetry_cell_setting 'orthorhombic'
loop_
_space_group_symop_operation_xyz
x,y,z
-x,-y,1/2+z
x,-y,-z
-x,y,1/2-z
-x,-y,-z
x,y,1/2-z
-x,y,z
x,-y,1/2+z
1/2+x,1/2+y,z
1/2-x,1/2-y,1/2+z
1/2+x,1/2-y,-z
1/2-x,1/2+y,1/2-z
1/2-x,1/2-y,-z
1/2+x,1/2+y,1/2-z
1/2-x,1/2+y,z
1/2+x,1/2-y,1/2+z
loop_
_atom_site_type_symbol
_atom_site_label
_atom_site_fract_x
_atom_site_fract_y
_atom_site_fract_z
Si Si1 0.082308 0.289067 0.939119
Si Si2 0.864905 0.814581 0.061155
Si Si3 0.767933 0.050344 0.062664
Si Si4 0.921363 0.087759 0.061548
Si Si5 0.209303 0.353009 0.063050
O O1 0.084377 0.289739 0.750000
O O2 0.106969 0.236503 0.989216
O O3 0.000000 0.297709 0.988898
O O4 0.138693 0.327092 0.001403
O O5 0.870809 0.817433 0.250000
O O6 0.781206 0.823262 0.017833
O O7 0.909054 0.858050 0.989314
O O8 0.768021 0.050128 0.250000
O O9 0.850528 0.059832 0.005395
O O10 0.721620 0.094677 0.004008
O O11 0.742970 0.000000 0.000000
O O12 0.921124 0.085592 0.250000
O O13 0.000000 0.071194 0.004943
O O14 0.207460 0.355482 0.250000
#
# Coordination Sequence:
#
# PCOD9471934 Si02
#       5
#    16  16  16  16  16
#     4  10  20  33  50  74 105 138 169 204 249 297
#     4   9  18  32  50  73 102 138 175 206 241 289
#     4  10  20  35  54  74  98 129 167 210 255 302
#     4   9  18  31  47  71 104 138 170 206 247 290
#     4  10  20  34  53  76 101 131 170 211 249 294
#
# _framework density 17.844743000000001
#
# number of rings (size 3 to 8) (size 9 to 14) (size 15 to 20)
#    0.000    2.400    0.000    2.400    0.000    4.400 
#    0.000    0.000    0.000    0.600    0.000    0.000 
#    0.000    0.000    0.000    0.000    0.000    0.000 
#
# Total GULP energy -223243.909442 kJ/mol
# GULP energy per Si atom -5581.097736 kJ/mol
# Density = 1.780413 g / cm^3
# Si number density = 17.844743 Si / 1000 Ang^3
#
#
#
# Elastic Constant Matrix: (Units=GPa)
#
#
# Indices 1 2 3 4 5 6 
#
# 1 72.1445 22.8969 16.5331 0.0000 0.0000 0.0000
# 2 22.8969 65.9265 10.5055 0.0000 0.0000 0.0000
# 3 16.5331 10.5055 15.5981 0.0000 0.0000 0.0000
# 4 0.0000 0.0000 0.0000 24.6873 0.0000 0.0000
# 5 0.0000 0.0000 0.0000 0.0000 20.9531 0.0000
# 6 0.0000 0.0000 0.0000 0.0000 0.0000 3.5044
#
#
#
# Elastic Compliance Matrix: (Units=1/GPa)
#
#
# Indices 1 2 3 4 5 6 
#
# 1 0.019132 -0.003824 -0.017703 0.000000 0.000000 0.000000
# 2 -0.003824 0.017756 -0.007906 0.000000 0.000000 0.000000
# 3 -0.017703 -0.007906 0.088200 0.000000 0.000000 0.000000
# 4 0.000000 0.000000 0.000000 0.040507 0.000000 0.000000
# 5 0.000000 0.000000 0.000000 0.000000 0.047726 0.000000
# 6 0.000000 0.000000 0.000000 0.000000 0.000000 0.285359
#
#
# Mechanical properties :
#
#
# Convention : Reuss Voigt Hill
#
# Bulk Modulus (GPa) = 15.10084 28.17112 21.63598
# Shear Modulus (GPa) = 8.62636 16.74452 12.68544
#
# Velocity S-wave (km/s) = 2.20105 3.06656 2.66912
# Velocity P-wave (km/s) = 3.86526 5.32536 4.65294
#
# Compressibility (1/GPa) = 0.06622150
#
# Stress axis : x y z
#
# Youngs Moduli (GPa) = 52.26964 56.31817 11.33788
#
# Poissons Ratio (x) = 0.21533 0.20072
# Poissons Ratio (y) = 0.19985 0.08964
# Poissons Ratio (z) = 0.92534 0.44527
#
# Static dielectric constant tensor:
#      x y z
#    x 1.619090 0.000000 0.000000 
#    y 0.000000 1.580020 0.000000 
#    z 0.000000 0.000000 1.602920 
# 
# From -- ./inp_files/6377.got.cif
#   From: 2010.05.17/outbox.cif.g08.bks.cpg/sg63_4_cif.got.tgz:6377.got - 2010.06.03 15:47:04.
