data_PCOD9471571
_publ_section_title
;
Structure prediction by ZEFSAII (Michael W. Deem and Ramdas Pophale) SiO2 
 PCOD9471571
Probable space group: C M C M
;
_chemical_formula_sum "Si O2"
_cell_formula_units_Z 116
_cell_length_a 18.025365
_cell_length_b 19.825905
_cell_length_c 17.436165
_cell_angle_alpha 90.000000
_cell_angle_beta 90.000000
_cell_angle_gamma 90.000000
_cell_volume 6231.147885
_symmetry_space_group_name_H-M "C M C M"
_symmetry_group_IT_number 63
_symmetry_cell_setting 'orthorhombic'
loop_
_space_group_symop_operation_xyz
x,y,z
-x,-y,1/2+z
x,-y,-z
-x,y,1/2-z
-x,-y,-z
x,y,1/2-z
-x,y,z
x,-y,1/2+z
1/2+x,1/2+y,z
1/2-x,1/2-y,1/2+z
1/2+x,1/2-y,-z
1/2-x,1/2+y,1/2-z
1/2-x,1/2-y,-z
1/2+x,1/2+y,1/2-z
1/2-x,1/2+y,z
1/2+x,1/2-y,1/2+z
loop_
_atom_site_type_symbol
_atom_site_label
_atom_site_fract_x
_atom_site_fract_y
_atom_site_fract_z
Si Si1 0.221735 0.874386 0.899035
Si Si2 0.130661 0.285437 0.879492
Si Si3 0.279868 0.656172 0.577943
Si Si4 0.111082 0.687387 0.946158
Si Si5 0.500000 0.203592 0.250000
Si Si6 0.417299 0.967760 0.083452
Si Si7 0.078940 0.806415 0.835934
Si Si8 0.736015 0.017850 0.840452
O O1 0.296916 0.834834 0.873322
O O2 0.150974 0.850029 0.851926
O O3 0.232905 0.953190 0.884530
O O4 0.204558 0.859585 0.988541
O O5 0.163552 0.209109 0.884418
O O6 0.066788 0.295010 0.816955
O O7 0.099644 0.300733 0.964262
O O8 0.198862 0.690320 0.572742
O O9 0.268949 0.586948 0.624570
O O10 0.084237 0.612762 0.926149
O O11 0.077789 0.745566 0.895216
O O12 0.500000 0.990565 0.105597
O O13 0.352221 0.984105 0.142208
O O14 0.399706 0.000000 0.000000
O O15 0.084006 0.778446 0.750000
O O16 0.000000 0.844051 0.842331
O O17 0.749850 0.013828 0.750000
#
# Coordination Sequence:
#
# PCOD9471571 Si02
#       8
#    16  16  16  16   4  16  16  16
#     4  11  21  44  68  90 123 172 214 265 317 387
#     4  11  23  42  62  94 128 171 216 259 324 388
#     4  10  20  40  69  90 119 172 225 254 306 397
#     4  10  19  38  65  92 121 172 212 259 322 382
#     4  12  32  36  60 104 140 168 212 282 324 390
#     4  10  21  38  58  86 124 169 213 262 309 383
#     4  11  23  36  61  99 124 149 201 272 330 372
#     4  11  24  38  60  93 125 167 214 266 318 381
#
# _framework density 18.616153000000001
#
# number of rings (size 3 to 8) (size 9 to 14) (size 15 to 20)
#    0.000    1.379    2.759    4.552    4.828    2.483 
#    1.241    0.000    1.517    0.828    0.000    0.000 
#    0.000    0.000    0.000    0.000    0.000    0.000 
#
# Total GULP energy -323272.081973 kJ/mol
# GULP energy per Si atom -5573.656586 kJ/mol
# Density = 1.857378 g / cm^3
# Si number density = 18.616153 Si / 1000 Ang^3
#
#
#
# Elastic Constant Matrix: (Units=GPa)
#
#
# Indices 1 2 3 4 5 6 
#
# 1 77.3523 7.9815 38.9902 0.0000 0.0000 0.0000
# 2 7.9815 60.4965 4.9566 0.0000 0.0000 0.0000
# 3 38.9902 4.9566 54.5174 0.0000 0.0000 0.0000
# 4 0.0000 0.0000 0.0000 8.1119 0.0000 0.0000
# 5 0.0000 0.0000 0.0000 0.0000 40.6589 0.0000
# 6 0.0000 0.0000 0.0000 0.0000 0.0000 15.1233
#
#
#
# Elastic Compliance Matrix: (Units=1/GPa)
#
#
# Indices 1 2 3 4 5 6 
#
# 1 0.020350 -0.001504 -0.014418 0.000000 0.000000 0.000000
# 2 -0.001504 0.016765 -0.000449 0.000000 0.000000 0.000000
# 3 -0.014418 -0.000449 0.028695 0.000000 0.000000 0.000000
# 4 0.000000 0.000000 0.000000 0.123276 0.000000 0.000000
# 5 0.000000 0.000000 0.000000 0.000000 0.024595 0.000000
# 6 0.000000 0.000000 0.000000 0.000000 0.000000 0.066123
#
#
# Mechanical properties :
#
#
# Convention : Reuss Voigt Hill
#
# Bulk Modulus (GPa) = 30.23886 32.91366 31.57626
# Shear Modulus (GPa) = 15.45273 22.14137 18.79705
#
# Velocity S-wave (km/s) = 2.88422 3.45246 3.18105
# Velocity P-wave (km/s) = 5.23166 5.79751 5.52184
#
# Compressibility (1/GPa) = 0.03307003
#
# Stress axis : x y z
#
# Youngs Moduli (GPa) = 49.13924 59.64799 34.84947
#
# Poissons Ratio (x) = 0.08969 0.50245
# Poissons Ratio (y) = 0.07389 0.01564
# Poissons Ratio (z) = 0.70847 0.02677
#
# Static dielectric constant tensor:
#      x y z
#    x 1.700240 0.000000 0.000000 
#    y 0.000000 1.630760 0.000000 
#    z 0.000000 0.000000 1.631670 
# 
# From -- ./inp_files/45921.got.cif
#   From: 2010.05.17/outbox.cif.g08.bks.cpg/sg63_23_cif.got.tgz:45921.got - 2010.06.03 15:47:04.
