data_PCOD9471925
_publ_section_title
;
Structure prediction by ZEFSAII (Michael W. Deem and Ramdas Pophale) SiO2 
 PCOD9471925
Probable space group: C M C M
;
_chemical_formula_sum "Si O2"
_cell_formula_units_Z 80
_cell_length_a 12.766777
_cell_length_b 24.699717
_cell_length_c 12.633765
_cell_angle_alpha 90.000000
_cell_angle_beta 90.000000
_cell_angle_gamma 90.000000
_cell_volume 3983.878127
_symmetry_space_group_name_H-M "C M C M"
_symmetry_group_IT_number 63
_symmetry_cell_setting 'orthorhombic'
loop_
_space_group_symop_operation_xyz
x,y,z
-x,-y,1/2+z
x,-y,-z
-x,y,1/2-z
-x,-y,-z
x,y,1/2-z
-x,y,z
x,-y,1/2+z
1/2+x,1/2+y,z
1/2-x,1/2-y,1/2+z
1/2+x,1/2-y,-z
1/2-x,1/2+y,1/2-z
1/2-x,1/2-y,-z
1/2+x,1/2+y,1/2-z
1/2-x,1/2+y,z
1/2+x,1/2-y,1/2+z
loop_
_atom_site_type_symbol
_atom_site_label
_atom_site_fract_x
_atom_site_fract_y
_atom_site_fract_z
Si Si1 0.279604 0.335320 0.530871
Si Si2 0.886144 0.414997 0.915566
Si Si3 0.664033 0.037005 0.635382
Si Si4 0.883187 0.083434 0.628271
Si Si5 0.876075 0.728791 0.625486
O O1 0.209847 0.375025 0.603852
O O2 0.355963 0.370741 0.456950
O O3 0.195835 0.307738 0.450661
O O4 0.341345 0.289864 0.595242
O O5 0.870789 0.475018 0.869505
O O6 0.000000 0.393436 0.885049
O O7 0.883401 0.428174 0.041291
O O8 0.637728 0.060051 0.750000
O O9 0.789480 0.040263 0.620181
O O10 0.878272 0.104425 0.750000
O O11 0.000000 0.061892 0.611604
O O12 0.856416 0.718455 0.750000
O O13 0.000000 0.721156 0.605186
#
# Coordination Sequence:
#
# PCOD9471925 Si02
#       5
#    16  16  16  16  16
#     4  10  20  35  54  76 103 132 169 212 256 305
#     4  10  20  33  50  74 101 131 168 206 247 296
#     4   9  18  32  49  72 103 135 166 202 243 291
#     4   9  17  31  52  77 104 135 170 206 245 291
#     4  10  21  37  56  77 102 133 169 212 262 312
#
# _framework density 20.080936000000001
#
# number of rings (size 3 to 8) (size 9 to 14) (size 15 to 20)
#    0.000    2.400    0.000    3.000    0.000    3.200 
#    0.000    9.000    0.000   13.800    0.000    0.000 
#    0.000    0.000    0.000    0.000    0.000    0.000 
#
# Total GULP energy -223198.492474 kJ/mol
# GULP energy per Si atom -5579.962312 kJ/mol
# Density = 2.003523 g / cm^3
# Si number density = 20.080936 Si / 1000 Ang^3
#
#
#
# Elastic Constant Matrix: (Units=GPa)
#
#
# Indices 1 2 3 4 5 6 
#
# 1 113.9402 -2.6227 8.7565 0.0000 0.0000 0.0000
# 2 -2.6227 27.8305 -5.7383 0.0000 0.0000 0.0000
# 3 8.7565 -5.7383 54.5157 0.0000 0.0000 0.0000
# 4 0.0000 0.0000 0.0000 -1.4413 0.0000 0.0000
# 5 0.0000 0.0000 0.0000 0.0000 19.7281 0.0000
# 6 0.0000 0.0000 0.0000 0.0000 0.0000 16.4867
#
#
#
# Elastic Compliance Matrix: (Units=1/GPa)
#
#
# Indices 1 2 3 4 5 6 
#
# 1 0.008895 0.000556 -0.001370 0.000000 0.000000 0.000000
# 2 0.000556 0.036764 0.003780 0.000000 0.000000 0.000000
# 3 -0.001370 0.003780 0.018961 0.000000 0.000000 0.000000
# 4 0.000000 0.000000 0.000000 -0.693827 0.000000 0.000000
# 5 0.000000 0.000000 0.000000 0.000000 0.050689 0.000000
# 6 0.000000 0.000000 0.000000 0.000000 0.000000 0.060655
#
#
# Mechanical properties :
#
#
# Convention : Reuss Voigt Hill
#
# Bulk Modulus (GPa) = 14.17403 21.89750 18.03576
# Shear Modulus (GPa) = -9.99444 20.01410 5.00983
#
# Velocity S-wave (km/s) = -2.23336 3.16044 1.58121
# Velocity P-wave (km/s) = 0.65059 4.92403 3.51208
#
# Compressibility (1/GPa) = 0.07055157
#
# Stress axis : x y z
#
# Youngs Moduli (GPa) = 112.42747 27.20078 52.73886
#
# Poissons Ratio (x) = -0.01512 0.07226
# Poissons Ratio (y) = -0.06248 -0.19938
# Poissons Ratio (z) = 0.15405 -0.10283
#
# Static dielectric constant tensor:
#      x y z
#    x 1.711000 0.000000 0.000000 
#    y 0.000000 1.689540 0.000000 
#    z 0.000000 0.000000 1.731100 
# 
# From -- ./inp_files/30010.got.cif
#   From: 2010.05.17/outbox.cif.g08.bks.cpg/sg63_16_cif.got.tgz:30010.got - 2010.06.03 15:47:04.
