data_PCOD9471872
_publ_section_title
;
Structure prediction by ZEFSAII (Michael W. Deem and Ramdas Pophale) SiO2 
 PCOD9471872
Probable space group: C M C M
;
_chemical_formula_sum "Si O2"
_cell_formula_units_Z 96
_cell_length_a 26.180011
_cell_length_b 25.815518
_cell_length_c 8.760451
_cell_angle_alpha 90.000000
_cell_angle_beta 90.000000
_cell_angle_gamma 90.000000
_cell_volume 5920.755585
_symmetry_space_group_name_H-M "C M C M"
_symmetry_group_IT_number 63
_symmetry_cell_setting 'orthorhombic'
loop_
_space_group_symop_operation_xyz
x,y,z
-x,-y,1/2+z
x,-y,-z
-x,y,1/2-z
-x,-y,-z
x,y,1/2-z
-x,y,z
x,-y,1/2+z
1/2+x,1/2+y,z
1/2-x,1/2-y,1/2+z
1/2+x,1/2-y,-z
1/2-x,1/2+y,1/2-z
1/2-x,1/2-y,-z
1/2+x,1/2+y,1/2-z
1/2-x,1/2+y,z
1/2+x,1/2-y,1/2+z
loop_
_atom_site_type_symbol
_atom_site_label
_atom_site_fract_x
_atom_site_fract_y
_atom_site_fract_z
Si Si1 0.859273 0.942239 0.065996
Si Si2 0.938049 0.256738 0.574376
Si Si3 0.254097 0.058108 0.932863
Si Si4 0.358639 0.942193 0.931298
Si Si5 0.441153 0.642171 0.936508
Si Si6 0.939844 0.634876 0.569068
O O1 0.861821 0.946200 0.250000
O O2 0.802332 0.920971 0.028945
O O3 0.903283 0.903131 0.013579
O O4 0.865088 0.000000 0.000000
O O5 0.921015 0.263558 0.750000
O O6 0.922863 0.199707 0.516845
O O7 0.923868 0.306866 0.477571
O O8 0.000000 0.254728 0.576856
O O9 0.259449 0.056621 0.750000
O O10 0.305349 0.081256 0.004606
O O11 0.252881 0.000000 0.000000
O O12 0.355640 0.946251 0.750000
O O13 0.405314 0.906477 0.982531
O O14 0.364527 0.000000 0.000000
O O15 0.441386 0.642983 0.750000
O O16 0.500000 0.633972 0.984880
O O17 0.934414 0.627774 0.750000
O O18 0.000000 0.629087 0.529894
#
# Coordination Sequence:
#
# PCOD9471872 Si02
#       6
#    16  16  16  16  16  16
#     4   9  17  28  44  67  94 125 157 191 231 273
#     4   8  14  27  47  67  87 117 157 193 223 263
#     4   9  16  28  45  64  88 118 155 193 227 267
#     4  11  21  33  50  70  93 120 151 186 224 268
#     4   8  14  26  45  68  94 124 157 191 229 274
#     4  10  20  33  49  70  96 122 147 180 224 271
#
# _framework density 16.214147000000001
#
# number of rings (size 3 to 8) (size 9 to 14) (size 15 to 20)
#    0.000    2.833    0.000    4.500    0.000    2.333 
#    0.000    0.833    0.000    2.000    0.000    0.000 
#    0.000    0.000    0.000    0.000    0.000    0.000 
#
# Total GULP energy -267244.513571 kJ/mol
# GULP energy per Si atom -5567.594033 kJ/mol
# Density = 1.617724 g / cm^3
# Si number density = 16.214147 Si / 1000 Ang^3
#
#
#
# Elastic Constant Matrix: (Units=GPa)
#
#
# Indices 1 2 3 4 5 6 
#
# 1 100.1377 61.4480 43.9129 0.0000 0.0000 0.0000
# 2 61.4480 91.3732 33.9787 0.0000 0.0000 0.0000
# 3 43.9129 33.9787 57.5888 0.0000 0.0000 0.0000
# 4 0.0000 0.0000 0.0000 18.0809 0.0000 0.0000
# 5 0.0000 0.0000 0.0000 0.0000 14.5507 0.0000
# 6 0.0000 0.0000 0.0000 0.0000 0.0000 14.7212
#
#
#
# Elastic Compliance Matrix: (Units=1/GPa)
#
#
# Indices 1 2 3 4 5 6 
#
# 1 0.020431 -0.010180 -0.009573 0.000000 0.000000 0.000000
# 2 -0.010180 0.019093 -0.003503 0.000000 0.000000 0.000000
# 3 -0.009573 -0.003503 0.026731 0.000000 0.000000 0.000000
# 4 0.000000 0.000000 0.000000 0.055307 0.000000 0.000000
# 5 0.000000 0.000000 0.000000 0.000000 0.068725 0.000000
# 6 0.000000 0.000000 0.000000 0.000000 0.000000 0.067929
#
#
# Mechanical properties :
#
#
# Convention : Reuss Voigt Hill
#
# Bulk Modulus (GPa) = 50.64941 58.64209 54.64575
# Shear Modulus (GPa) = 16.06130 16.78788 16.42459
#
# Velocity S-wave (km/s) = 3.15075 3.22123 3.18619
# Velocity P-wave (km/s) = 6.67397 7.07678 6.87833
#
# Compressibility (1/GPa) = 0.01974357
#
# Stress axis : x y z
#
# Youngs Moduli (GPa) = 48.94561 52.37648 37.41041
#
# Poissons Ratio (x) = 0.53319 0.35812
# Poissons Ratio (y) = 0.49826 0.13103
# Poissons Ratio (z) = 0.46854 0.18345
#
# Static dielectric constant tensor:
#      x y z
#    x 1.567860 0.000000 0.000000 
#    y 0.000000 2.227280 0.000000 
#    z 0.000000 0.000000 1.545350 
# 
# From -- ./inp_files/10679.got.cif
#   From: 2010.05.17/outbox.cif.g08.bks.cpg/sg63_6_cif.got.tgz:10679.got - 2010.06.03 15:47:04.
