data_PCOD9471919
_publ_section_title
;
Structure prediction by ZEFSAII (Michael W. Deem and Ramdas Pophale) SiO2 
 PCOD9471919
Probable space group: C M C M
;
_chemical_formula_sum "Si O2"
_cell_formula_units_Z 80
_cell_length_a 15.099901
_cell_length_b 24.266058
_cell_length_c 11.371257
_cell_angle_alpha 90.000000
_cell_angle_beta 90.000000
_cell_angle_gamma 90.000000
_cell_volume 4166.599969
_symmetry_space_group_name_H-M "C M C M"
_symmetry_group_IT_number 63
_symmetry_cell_setting 'orthorhombic'
loop_
_space_group_symop_operation_xyz
x,y,z
-x,-y,1/2+z
x,-y,-z
-x,y,1/2-z
-x,-y,-z
x,y,1/2-z
-x,y,z
x,-y,1/2+z
1/2+x,1/2+y,z
1/2-x,1/2-y,1/2+z
1/2+x,1/2-y,-z
1/2-x,1/2+y,1/2-z
1/2-x,1/2-y,-z
1/2+x,1/2+y,1/2-z
1/2-x,1/2+y,z
1/2+x,1/2-y,1/2+z
loop_
_atom_site_type_symbol
_atom_site_label
_atom_site_fract_x
_atom_site_fract_y
_atom_site_fract_z
Si Si1 0.599668 0.360923 0.965176
Si Si2 0.105536 0.536861 0.615650
Si Si3 0.272844 0.855452 0.386403
Si Si4 0.097577 0.264200 0.110314
Si Si5 0.895637 0.979705 0.875228
O O1 0.500000 0.363777 0.016748
O O2 0.609147 0.300901 0.907591
O O3 0.606744 0.413487 0.880420
O O4 0.679419 0.366474 0.054816
O O5 0.125521 0.500000 0.500000
O O6 0.122297 0.514225 0.750000
O O7 0.162140 0.592431 0.604840
O O8 0.000000 0.548675 0.611295
O O9 0.255636 0.844440 0.250000
O O10 0.325039 0.802697 0.438803
O O11 0.095055 0.274687 0.250000
O O12 0.000000 0.279116 0.062205
O O13 0.856879 0.999206 0.750000
O O14 0.000000 0.996014 0.875363
O O15 0.857434 0.000000 0.000000
#
# Coordination Sequence:
#
# PCOD9471919 Si02
#       5
#    16  16  16  16  16
#     4  10  20  33  50  73 104 141 177 214 259 314
#     4   9  18  35  59  84 109 138 175 221 271 320
#     4  10  20  33  51  77 106 136 175 220 266 318
#     4   9  17  32  55  78  99 128 171 224 276 321
#     4   9  18  33  52  73  98 132 176 221 260 301
#
# _framework density 19.200308
#
# number of rings (size 3 to 8) (size 9 to 14) (size 15 to 20)
#    0.000    2.600    0.000    1.800    0.000    6.800 
#    0.000    6.000    0.000    1.200    0.000    2.800 
#    0.000    0.000    0.000    0.000    0.000    0.000 
#
# Total GULP energy -222819.323539 kJ/mol
# GULP energy per Si atom -5570.483088 kJ/mol
# Density = 1.915661 g / cm^3
# Si number density = 19.200308 Si / 1000 Ang^3
#
#
#
# Elastic Constant Matrix: (Units=GPa)
#
#
# Indices 1 2 3 4 5 6 
#
# 1 78.3223 26.1765 43.0970 0.0000 0.0000 0.0000
# 2 26.1765 56.9061 35.0495 0.0000 0.0000 0.0000
# 3 43.0970 35.0495 112.8170 0.0000 0.0000 0.0000
# 4 0.0000 0.0000 0.0000 17.5960 0.0000 0.0000
# 5 0.0000 0.0000 0.0000 0.0000 13.6468 0.0000
# 6 0.0000 0.0000 0.0000 0.0000 0.0000 5.9214
#
#
#
# Elastic Compliance Matrix: (Units=1/GPa)
#
#
# Indices 1 2 3 4 5 6 
#
# 1 0.017151 -0.004766 -0.005071 0.000000 0.000000 0.000000
# 2 -0.004766 0.023055 -0.005342 0.000000 0.000000 0.000000
# 3 -0.005071 -0.005342 0.012461 0.000000 0.000000 0.000000
# 4 0.000000 0.000000 0.000000 0.056831 0.000000 0.000000
# 5 0.000000 0.000000 0.000000 0.000000 0.073277 0.000000
# 6 0.000000 0.000000 0.000000 0.000000 0.000000 0.168878
#
#
# Mechanical properties :
#
#
# Convention : Reuss Voigt Hill
#
# Bulk Modulus (GPa) = 44.82543 50.74349 47.78446
# Shear Modulus (GPa) = 12.83868 17.01436 14.92652
#
# Velocity S-wave (km/s) = 2.58867 2.98006 2.79123
# Velocity P-wave (km/s) = 5.68611 6.19087 5.94385
#
# Compressibility (1/GPa) = 0.02230876
#
# Stress axis : x y z
#
# Youngs Moduli (GPa) = 58.30559 43.37375 80.25174
#
# Poissons Ratio (x) = 0.20672 0.40697
# Poissons Ratio (y) = 0.27788 0.42871
# Poissons Ratio (z) = 0.29568 0.23171
#
# Static dielectric constant tensor:
#      x y z
#    x 1.679270 0.000000 0.000000 
#    y 0.000000 1.680930 0.000000 
#    z 0.000000 0.000000 1.690230 
# 
# From -- ./inp_files/19367.got.cif
#   From: 2010.05.17/outbox.cif.g08.bks.cpg/sg63_10_cif.got.tgz:19367.got - 2010.06.03 15:47:04.
