data_PCOD9471285
_publ_section_title
;
Structure prediction by ZEFSAII (Michael W. Deem and Ramdas Pophale) SiO2 
 PCOD9471285
Probable space group: C M C M
;
_chemical_formula_sum "Si O2"
_cell_formula_units_Z 112
_cell_length_a 15.050471
_cell_length_b 13.986308
_cell_length_c 23.758921
_cell_angle_alpha 90.000000
_cell_angle_beta 90.000000
_cell_angle_gamma 90.000000
_cell_volume 5001.265295
_symmetry_space_group_name_H-M "C M C M"
_symmetry_group_IT_number 63
_symmetry_cell_setting 'orthorhombic'
loop_
_space_group_symop_operation_xyz
x,y,z
-x,-y,1/2+z
x,-y,-z
-x,y,1/2-z
-x,-y,-z
x,y,1/2-z
-x,y,z
x,-y,1/2+z
1/2+x,1/2+y,z
1/2-x,1/2-y,1/2+z
1/2+x,1/2-y,-z
1/2-x,1/2+y,1/2-z
1/2-x,1/2-y,-z
1/2+x,1/2+y,1/2-z
1/2-x,1/2+y,z
1/2+x,1/2-y,1/2+z
loop_
_atom_site_type_symbol
_atom_site_label
_atom_site_fract_x
_atom_site_fract_y
_atom_site_fract_z
Si Si1 0.404216 0.582581 0.122020
Si Si2 0.777501 0.210546 0.685551
Si Si3 0.814790 0.603836 0.475364
Si Si4 0.095303 0.873643 0.092805
Si Si5 0.367358 0.719474 0.026361
Si Si6 0.100301 0.615814 0.816532
Si Si7 0.301077 0.919902 0.652284
O O1 0.500000 0.578400 0.153974
O O2 0.401709 0.487086 0.083443
O O3 0.307703 0.573936 0.151481
O O4 0.409117 0.672892 0.080994
O O5 0.788178 0.174855 0.750000
O O6 0.830071 0.154996 0.637063
O O7 0.673705 0.196615 0.668610
O O8 0.812711 0.318975 0.683131
O O9 0.794892 0.500000 0.500000
O O10 0.730380 0.672880 0.468920
O O11 0.872706 0.666395 0.518855
O O12 0.841588 0.591417 0.410725
O O13 0.101147 0.820934 0.033627
O O14 0.000000 0.850069 0.119190
O O15 0.089562 0.627206 0.750000
O O16 0.150914 0.514453 0.825298
O O17 0.000000 0.619208 0.841218
#
# Coordination Sequence:
#
# PCOD9471285 Si02
#       7
#    16  16  16  16  16  16  16
#     4  10  21  36  61  97 128 166 213 260 316 385
#     4  11  24  42  66  96 127 166 215 271 333 392
#     4  10  21  34  59  92 126 175 219 259 314 383
#     4  11  21  38  64  94 127 165 215 265 320 382
#     4  10  19  35  57  90 131 168 211 263 313 378
#     4  10  23  44  69  95 126 169 222 276 331 396
#     4  11  21  40  67  93 129 170 217 265 327 389
#
# _framework density 22.394333
#
# number of rings (size 3 to 8) (size 9 to 14) (size 15 to 20)
#    0.000    1.571    2.857    3.000    0.000    2.571 
#    0.000    0.000    0.000    4.286    0.000    0.000 
#    0.000    0.000    0.000    0.000    0.000    0.000 
#
# Total GULP energy -312062.165569 kJ/mol
# GULP energy per Si atom -5572.538671 kJ/mol
# Density = 2.234336 g / cm^3
# Si number density = 22.394333 Si / 1000 Ang^3
#
#
#
# Elastic Constant Matrix: (Units=GPa)
#
#
# Indices 1 2 3 4 5 6 
#
# 1 81.4953 -15.3978 19.9971 0.0000 0.0000 0.0000
# 2 -15.3978 75.7224 1.6537 0.0000 0.0000 0.0000
# 3 19.9971 1.6537 50.6067 0.0000 0.0000 0.0000
# 4 0.0000 0.0000 0.0000 21.6095 0.0000 0.0000
# 5 0.0000 0.0000 0.0000 0.0000 39.4340 0.0000
# 6 0.0000 0.0000 0.0000 0.0000 0.0000 15.9757
#
#
#
# Elastic Compliance Matrix: (Units=1/GPa)
#
#
# Indices 1 2 3 4 5 6 
#
# 1 0.014247 0.003022 -0.005729 0.000000 0.000000 0.000000
# 2 0.003022 0.013857 -0.001647 0.000000 0.000000 0.000000
# 3 -0.005729 -0.001647 0.022078 0.000000 0.000000 0.000000
# 4 0.000000 0.000000 0.000000 0.046276 0.000000 0.000000
# 5 0.000000 0.000000 0.000000 0.000000 0.025359 0.000000
# 6 0.000000 0.000000 0.000000 0.000000 0.000000 0.062595
#
#
# Mechanical properties :
#
#
# Convention : Reuss Voigt Hill
#
# Bulk Modulus (GPa) = 24.11093 24.48116 24.29604
# Shear Modulus (GPa) = 24.16121 28.84193 26.50157
#
# Velocity S-wave (km/s) = 3.28822 3.59264 3.44380
# Velocity P-wave (km/s) = 5.02060 5.30707 5.16582
#
# Compressibility (1/GPa) = 0.04147496
#
# Stress axis : x y z
#
# Youngs Moduli (GPa) = 70.18856 72.16741 45.29466
#
# Poissons Ratio (x) = -0.21811 0.25947
# Poissons Ratio (y) = -0.21213 0.07460
# Poissons Ratio (z) = 0.40208 0.11886
#
# Static dielectric constant tensor:
#      x y z
#    x 1.954540 0.000000 0.000000 
#    y 0.000000 1.857860 0.000000 
#    z 0.000000 0.000000 1.833220 
# 
# From -- ./inp_files/62982.got.cif
#   From: 2010.05.17/outbox.cif.g08.bks.cpg/sg63_32_cif.got.tgz:62982.got - 2010.06.03 15:47:04.
