data_PCOD9471298
_publ_section_title
;
Structure prediction by ZEFSAII (Michael W. Deem and Ramdas Pophale) SiO2 
 PCOD9471298
Probable space group: C M C M
;
_chemical_formula_sum "Si O2"
_cell_formula_units_Z 72
_cell_length_a 18.318023
_cell_length_b 24.517422
_cell_length_c 7.791478
_cell_angle_alpha 90.000000
_cell_angle_beta 90.000000
_cell_angle_gamma 90.000000
_cell_volume 3499.236139
_symmetry_space_group_name_H-M "C M C M"
_symmetry_group_IT_number 63
_symmetry_cell_setting 'orthorhombic'
loop_
_space_group_symop_operation_xyz
x,y,z
-x,-y,1/2+z
x,-y,-z
-x,y,1/2-z
-x,-y,-z
x,y,1/2-z
-x,y,z
x,-y,1/2+z
1/2+x,1/2+y,z
1/2-x,1/2-y,1/2+z
1/2+x,1/2-y,-z
1/2-x,1/2+y,1/2-z
1/2-x,1/2-y,-z
1/2+x,1/2+y,1/2-z
1/2-x,1/2+y,z
1/2+x,1/2-y,1/2+z
loop_
_atom_site_type_symbol
_atom_site_label
_atom_site_fract_x
_atom_site_fract_y
_atom_site_fract_z
Si Si1 0.709224 0.936357 0.453953
Si Si2 0.355629 0.624598 0.539296
Si Si3 0.500000 0.563072 0.956128
Si Si4 0.917337 0.354704 0.955879
Si Si5 0.664805 0.746683 0.543589
O O1 0.712280 0.932704 0.250000
O O2 0.780670 0.903943 0.520671
O O3 0.636089 0.905219 0.509508
O O4 0.710730 0.000000 0.500000
O O5 0.354318 0.624312 0.750000
O O6 0.426174 0.591403 0.480887
O O7 0.361234 0.687361 0.483530
O O8 0.500000 0.568751 0.750000
O O9 0.500000 0.500000 0.000000
O O10 0.921729 0.349435 0.750000
O O11 0.879127 0.299188 0.022872
O O12 0.000000 0.361385 0.021295
O O13 0.658031 0.747252 0.750000
O O14 0.750000 0.750000 0.500000
#
# Coordination Sequence:
#
# PCOD9471298 Si02
#       5
#    16  16   8  16  16
#     4  11  22  38  59  83 111 148 191 236 284 339
#     4   9  19  34  56  84 113 147 185 226 279 334
#     4  10  20  36  56  80 114 152 187 228 273 326
#     4  10  22  38  58  86 116 148 187 233 283 337
#     4  10  19  35  58  84 112 143 182 227 276 332
#
# _framework density 20.575918000000001
#
# number of rings (size 3 to 8) (size 9 to 14) (size 15 to 20)
#    0.000    2.000    2.222    1.333    1.556    0.889 
#    0.000    2.222    0.000    0.000    0.000    0.000 
#    0.000    0.000    0.000    0.000    0.000    0.000 
#
# Total GULP energy -201089.237411 kJ/mol
# GULP energy per Si atom -5585.812150 kJ/mol
# Density = 2.052909 g / cm^3
# Si number density = 20.575918 Si / 1000 Ang^3
#
#
#
# Elastic Constant Matrix: (Units=GPa)
#
#
# Indices 1 2 3 4 5 6 
#
# 1 146.8597 55.4941 7.3693 0.0000 0.0000 0.0000
# 2 55.4941 139.2390 2.1529 0.0000 0.0000 0.0000
# 3 7.3693 2.1529 28.6783 0.0000 0.0000 0.0000
# 4 0.0000 0.0000 0.0000 6.5095 0.0000 0.0000
# 5 0.0000 0.0000 0.0000 0.0000 16.4148 0.0000
# 6 0.0000 0.0000 0.0000 0.0000 0.0000 38.1570
#
#
#
# Elastic Compliance Matrix: (Units=1/GPa)
#
#
# Indices 1 2 3 4 5 6 
#
# 1 0.008113 -0.003205 -0.001844 0.000000 0.000000 0.000000
# 2 -0.003205 0.008456 0.000189 0.000000 0.000000 0.000000
# 3 -0.001844 0.000189 0.035329 0.000000 0.000000 0.000000
# 4 0.000000 0.000000 0.000000 0.153620 0.000000 0.000000
# 5 0.000000 0.000000 0.000000 0.000000 0.060921 0.000000
# 6 0.000000 0.000000 0.000000 0.000000 0.000000 0.026208
#
#
# Mechanical properties :
#
#
# Convention : Reuss Voigt Hill
#
# Bulk Modulus (GPa) = 23.70911 49.42327 36.56619
# Shear Modulus (GPa) = 15.80144 28.86697 22.33420
#
# Velocity S-wave (km/s) = 2.77421 3.74966 3.29820
# Velocity P-wave (km/s) = 4.67006 6.54360 5.68455
#
# Compressibility (1/GPa) = 0.04217789
#
# Stress axis : x y z
#
# Youngs Moduli (GPa) = 123.26231 118.25527 28.30511
#
# Poissons Ratio (x) = 0.37899 0.05220
# Poissons Ratio (y) = 0.39504 -0.00534
# Poissons Ratio (z) = 0.22731 -0.02232
#
# Static dielectric constant tensor:
#      x y z
#    x 1.717590 0.000000 0.000000 
#    y 0.000000 1.735180 0.000000 
#    z 0.000000 0.000000 1.739990 
# 
# From -- ./inp_files/4665.got.cif
#   From: 2010.05.17/outbox.cif.g08.bks.cpg/sg63_3_cif.got.tgz:4665.got - 2010.06.03 15:47:04.
