data_PCOD9471814
_publ_section_title
;
Structure prediction by ZEFSAII (Michael W. Deem and Ramdas Pophale) SiO2 
 PCOD9471814
Probable space group: C M C M
;
_chemical_formula_sum "Si O2"
_cell_formula_units_Z 72
_cell_length_a 23.446882
_cell_length_b 9.122166
_cell_length_c 14.081634
_cell_angle_alpha 90.000000
_cell_angle_beta 90.000000
_cell_angle_gamma 90.000000
_cell_volume 3011.869295
_symmetry_space_group_name_H-M "C M C M"
_symmetry_group_IT_number 63
_symmetry_cell_setting 'orthorhombic'
loop_
_space_group_symop_operation_xyz
x,y,z
-x,-y,1/2+z
x,-y,-z
-x,y,1/2-z
-x,-y,-z
x,y,1/2-z
-x,y,z
x,-y,1/2+z
1/2+x,1/2+y,z
1/2-x,1/2-y,1/2+z
1/2+x,1/2-y,-z
1/2-x,1/2+y,1/2-z
1/2-x,1/2-y,-z
1/2+x,1/2+y,1/2-z
1/2-x,1/2+y,z
1/2+x,1/2-y,1/2+z
loop_
_atom_site_type_symbol
_atom_site_label
_atom_site_fract_x
_atom_site_fract_y
_atom_site_fract_z
Si Si1 0.436166 0.439166 0.608239
Si Si2 0.723640 0.243559 0.637748
Si Si3 0.065060 0.672216 0.995103
Si Si4 0.641862 0.691599 0.848466
Si Si5 0.761586 0.500000 0.500000
O O1 0.436841 0.500000 0.500000
O O2 0.500000 0.465789 0.646172
O O3 0.425639 0.265241 0.601165
O O4 0.388321 0.228559 0.433172
O O5 0.705114 0.258181 0.750000
O O6 0.614889 0.529690 0.652576
O O7 0.790829 0.201215 0.644516
O O8 0.725352 0.388370 0.568983
O O9 0.000000 0.714905 0.023943
O O10 0.066466 0.500000 0.000000
O O11 0.202900 0.605013 0.926999
O O12 0.624679 0.765911 0.750000
#
# Coordination Sequence:
#
# PCOD9471814 Si02
#       5
#    16  16  16  16   8
#     4   8  15  29  49  72 100 139 179 214 257 317
#     4  10  22  39  60  90 116 144 194 235 276 353
#     4   9  18  32  51  75 106 144 181 218 264 323
#     4  10  20  32  51  79 107 137 178 230 271 318
#     4  10  22  40  64  82 114 162 176 228 308 332
#
# _framework density 23.905418999999998
#
# number of rings (size 3 to 8) (size 9 to 14) (size 15 to 20)
#    0.000    2.667    0.000    2.667    6.222    1.778 
#    0.000    1.111    0.000    9.333    0.000    0.000 
#    0.000    0.000    0.000    0.000    0.000    0.000 
#
# Total GULP energy -200689.331440 kJ/mol
# GULP energy per Si atom -5574.703651 kJ/mol
# Density = 2.385101 g / cm^3
# Si number density = 23.905419 Si / 1000 Ang^3
#
#
#
# Elastic Constant Matrix: (Units=GPa)
#
#
# Indices 1 2 3 4 5 6 
#
# 1 73.2904 15.4159 23.6011 0.0000 0.0000 0.0000
# 2 15.4159 151.5515 39.7827 0.0000 0.0000 0.0000
# 3 23.6011 39.7827 146.5642 0.0000 0.0000 0.0000
# 4 0.0000 0.0000 0.0000 11.7190 0.0000 0.0000
# 5 0.0000 0.0000 0.0000 0.0000 -41.7272 0.0000
# 6 0.0000 0.0000 0.0000 0.0000 0.0000 23.7229
#
#
#
# Elastic Compliance Matrix: (Units=1/GPa)
#
#
# Indices 1 2 3 4 5 6 
#
# 1 0.014511 -0.000929 -0.002085 0.000000 0.000000 0.000000
# 2 -0.000929 0.007164 -0.001795 0.000000 0.000000 0.000000
# 3 -0.002085 -0.001795 0.007646 0.000000 0.000000 0.000000
# 4 0.000000 0.000000 0.000000 0.085331 0.000000 0.000000
# 5 0.000000 0.000000 0.000000 0.000000 -0.023965 0.000000
# 6 0.000000 0.000000 0.000000 0.000000 0.000000 0.042153
#
#
# Mechanical properties :
#
#
# Convention : Reuss Voigt Hill
#
# Bulk Modulus (GPa) = 50.75096 58.77841 54.76468
# Shear Modulus (GPa) = 33.55136 18.25005 25.90070
#
# Velocity S-wave (km/s) = 3.75040 2.76602 3.29518
# Velocity P-wave (km/s) = 6.32693 5.90275 6.11851
#
# Compressibility (1/GPa) = 0.01970406
#
# Stress axis : x y z
#
# Youngs Moduli (GPa) = 68.91321 139.58493 130.78979
#
# Poissons Ratio (x) = 0.12965 0.27264
# Poissons Ratio (y) = 0.06401 0.23477
# Poissons Ratio (z) = 0.14365 0.25056
#
# Static dielectric constant tensor:
#      x y z
#    x 1.908180 0.000000 0.000000 
#    y 0.000000 2.026570 0.000000 
#    z 0.000000 0.000000 1.817440 
# 
# From -- ./inp_files/36379.got.cif
#   From: 2010.05.17/outbox.cif.g08.bks.cpg/sg63_19_cif.got.tgz:36379.got - 2010.06.03 15:47:04.
