data_PCOD9471834
_publ_section_title
;
Structure prediction by ZEFSAII (Michael W. Deem and Ramdas Pophale) SiO2 
 PCOD9471834
Probable space group: C M C M
;
_chemical_formula_sum "Si O2"
_cell_formula_units_Z 92
_cell_length_a 24.929865
_cell_length_b 8.071781
_cell_length_c 19.963971
_cell_angle_alpha 90.000000
_cell_angle_beta 90.000000
_cell_angle_gamma 90.000000
_cell_volume 4017.318154
_symmetry_space_group_name_H-M "C M C M"
_symmetry_group_IT_number 63
_symmetry_cell_setting 'orthorhombic'
loop_
_space_group_symop_operation_xyz
x,y,z
-x,-y,1/2+z
x,-y,-z
-x,y,1/2-z
-x,-y,-z
x,y,1/2-z
-x,y,z
x,-y,1/2+z
1/2+x,1/2+y,z
1/2-x,1/2-y,1/2+z
1/2+x,1/2-y,-z
1/2-x,1/2+y,1/2-z
1/2-x,1/2-y,-z
1/2+x,1/2+y,1/2-z
1/2-x,1/2+y,z
1/2+x,1/2-y,1/2+z
loop_
_atom_site_type_symbol
_atom_site_label
_atom_site_fract_x
_atom_site_fract_y
_atom_site_fract_z
Si Si1 0.731054 0.223994 0.750000
Si Si2 0.160943 0.145754 0.365124
Si Si3 0.357486 0.500000 0.500000
Si Si4 0.441318 0.767796 0.955931
Si Si5 0.834740 0.620138 0.250000
Si Si6 0.500000 0.091426 0.750000
Si Si7 0.557369 0.449813 0.177368
Si Si8 0.594781 0.973196 0.140124
O O1 0.709633 0.321787 0.684809
O O2 0.795080 0.225096 0.750000
O O3 0.702364 0.046042 0.750000
O O4 0.134828 0.325102 0.378124
O O5 0.174021 0.041037 0.431890
O O6 0.110853 0.054268 0.329659
O O7 0.396664 0.659198 0.507341
O O8 0.500000 0.760164 0.989080
O O9 0.445574 0.670158 0.884968
O O10 0.426650 0.947961 0.928411
O O11 0.870108 0.604009 0.316593
O O12 0.452482 0.080681 0.690739
O O13 0.557766 0.364707 0.250000
O O14 0.500000 0.547558 0.176627
#
# Coordination Sequence:
#
# PCOD9471834 Si02
#       8
#     8  16   8  16   8   4  16  16
#     4  10  20  40  63  89 118 150 204 252 326 366
#     4  10  21  38  57  85 118 159 206 254 297 368
#     4  10  23  40  56  80 128 166 218 247 292 358
#     4  10  20  35  52  80 118 166 198 244 289 359
#     4   9  22  37  62  94 123 149 192 265 309 376
#     4  10  20  32  56  92 132 150 188 246 312 368
#     4   9  18  27  47  77 113 150 192 233 287 347
#     4  10  21  35  59  92 123 156 200 251 309 366
#
# _framework density 22.900849000000001
#
# number of rings (size 3 to 8) (size 9 to 14) (size 15 to 20)
#    0.000    2.261    1.739    0.783    3.652    4.174 
#    0.000    0.870    0.000    9.391    0.000    0.000 
#    0.000    0.000    0.000    0.000    0.000    0.000 
#
# Total GULP energy -256407.084413 kJ/mol
# GULP energy per Si atom -5574.067052 kJ/mol
# Density = 2.284873 g / cm^3
# Si number density = 22.900849 Si / 1000 Ang^3
#
#
#
# Elastic Constant Matrix: (Units=GPa)
#
#
# Indices 1 2 3 4 5 6 
#
# 1 40.4065 8.9830 -4.6686 0.0000 0.0000 0.0000
# 2 8.9830 38.5225 8.8057 0.0000 0.0000 0.0000
# 3 -4.6686 8.8057 93.1321 0.0000 0.0000 0.0000
# 4 0.0000 0.0000 0.0000 14.2765 0.0000 0.0000
# 5 0.0000 0.0000 0.0000 0.0000 22.3680 0.0000
# 6 0.0000 0.0000 0.0000 0.0000 0.0000 29.2109
#
#
#
# Elastic Compliance Matrix: (Units=1/GPa)
#
#
# Indices 1 2 3 4 5 6 
#
# 1 0.026444 -0.006612 0.001951 0.000000 0.000000 0.000000
# 2 -0.006612 0.028186 -0.002996 0.000000 0.000000 0.000000
# 3 0.001951 -0.002996 0.011119 0.000000 0.000000 0.000000
# 4 0.000000 0.000000 0.000000 0.070045 0.000000 0.000000
# 5 0.000000 0.000000 0.000000 0.000000 0.044707 0.000000
# 6 0.000000 0.000000 0.000000 0.000000 0.000000 0.034234
#
#
# Mechanical properties :
#
#
# Convention : Reuss Voigt Hill
#
# Bulk Modulus (GPa) = 19.82857 22.03347 20.93102
# Shear Modulus (GPa) = 20.25435 23.76716 22.01075
#
# Velocity S-wave (km/s) = 2.97717 3.22503 3.10358
# Velocity P-wave (km/s) = 4.52718 4.84870 4.69069
#
# Compressibility (1/GPa) = 0.05043227
#
# Stress axis : x y z
#
# Youngs Moduli (GPa) = 37.81584 35.47893 89.93981
#
# Poissons Ratio (x) = 0.23460 -0.17546
# Poissons Ratio (y) = 0.25005 0.26950
# Poissons Ratio (z) = -0.07377 0.10631
#
# Static dielectric constant tensor:
#      x y z
#    x 1.827760 0.000000 0.000000 
#    y 0.000000 1.959710 0.000000 
#    z 0.000000 0.000000 1.836950 
# 
# From -- ./inp_files/57430.got.cif
#   From: 2010.05.17/outbox.cif.g08.bks.cpg/sg63_29_cif.got.tgz:57430.got - 2010.06.03 15:47:04.
