data_PCOD9471891
_publ_section_title
;
Structure prediction by ZEFSAII (Michael W. Deem and Ramdas Pophale) SiO2 
 PCOD9471891
Probable space group: C M C M
;
_chemical_formula_sum "Si O2"
_cell_formula_units_Z 80
_cell_length_a 8.871179
_cell_length_b 29.523442
_cell_length_c 17.326435
_cell_angle_alpha 90.000000
_cell_angle_beta 90.000000
_cell_angle_gamma 90.000000
_cell_volume 4537.927410
_symmetry_space_group_name_H-M "C M C M"
_symmetry_group_IT_number 63
_symmetry_cell_setting 'orthorhombic'
loop_
_space_group_symop_operation_xyz
x,y,z
-x,-y,1/2+z
x,-y,-z
-x,y,1/2-z
-x,-y,-z
x,y,1/2-z
-x,y,z
x,-y,1/2+z
1/2+x,1/2+y,z
1/2-x,1/2-y,1/2+z
1/2+x,1/2-y,-z
1/2-x,1/2+y,1/2-z
1/2-x,1/2-y,-z
1/2+x,1/2+y,1/2-z
1/2-x,1/2+y,z
1/2+x,1/2-y,1/2+z
loop_
_atom_site_type_symbol
_atom_site_label
_atom_site_fract_x
_atom_site_fract_y
_atom_site_fract_z
Si Si1 0.318122 0.232202 0.839803
Si Si2 0.181566 0.642458 0.933171
Si Si3 0.676942 0.435550 0.336276
Si Si4 0.317809 0.824497 0.602490
Si Si5 0.180542 0.487337 0.750000
Si Si6 0.316607 0.116686 0.250000
O O1 0.271897 0.233699 0.750000
O O2 0.500000 0.235171 0.842885
O O3 0.274017 0.185062 0.879690
O O4 0.249067 0.274822 0.884252
O O5 0.251707 0.596887 0.899214
O O6 0.000000 0.638540 0.930411
O O7 0.226215 0.654143 0.020611
O O8 0.696434 0.413925 0.250000
O O9 0.500000 0.441819 0.349326
O O10 0.756758 0.484018 0.322886
O O11 0.500000 0.821256 0.603673
O O12 0.269122 0.856146 0.673793
O O13 0.231939 0.435528 0.750000
O O14 0.000000 0.489041 0.750000
O O15 0.500000 0.116217 0.250000
#
# Coordination Sequence:
#
# PCOD9471891 Si02
#       6
#    16  16  16  16   8   8
#     4  10  20  33  49  75 108 142 180 214 257 314
#     4  10  20  33  53  79 108 144 176 213 262 311
#     4   9  19  34  53  80 107 131 169 215 260 315
#     4  10  20  35  54  77 106 139 182 223 259 305
#     4   9  17  33  58  77  98 135 172 215 268 317
#     4   9  18  35  56  77 100 133 178 225 264 307
#
# _framework density 17.629193000000001
#
# number of rings (size 3 to 8) (size 9 to 14) (size 15 to 20)
#    0.600    1.800    1.000    1.800    0.000    2.400 
#    0.000    3.000    0.000    6.000    0.000    0.000 
#    0.000    0.000    0.000    0.000    0.000    0.000 
#
# Total GULP energy -222950.064659 kJ/mol
# GULP energy per Si atom -5573.751616 kJ/mol
# Density = 1.758907 g / cm^3
# Si number density = 17.629193 Si / 1000 Ang^3
#
#
#
# Elastic Constant Matrix: (Units=GPa)
#
#
# Indices 1 2 3 4 5 6 
#
# 1 17.3414 12.9348 12.5913 0.0000 0.0000 0.0000
# 2 12.9348 77.1994 -6.7658 0.0000 0.0000 0.0000
# 3 12.5913 -6.7658 38.3016 0.0000 0.0000 0.0000
# 4 0.0000 0.0000 0.0000 1.2252 0.0000 0.0000
# 5 0.0000 0.0000 0.0000 0.0000 14.5908 0.0000
# 6 0.0000 0.0000 0.0000 0.0000 0.0000 20.7472
#
#
#
# Elastic Compliance Matrix: (Units=1/GPa)
#
#
# Indices 1 2 3 4 5 6 
#
# 1 0.098245 -0.019595 -0.035758 0.000000 0.000000 0.000000
# 2 -0.019595 0.017065 0.009456 0.000000 0.000000 0.000000
# 3 -0.035758 0.009456 0.039534 0.000000 0.000000 0.000000
# 4 0.000000 0.000000 0.000000 0.816200 0.000000 0.000000
# 5 0.000000 0.000000 0.000000 0.000000 0.068536 0.000000
# 6 0.000000 0.000000 0.000000 0.000000 0.000000 0.048199
#
#
# Mechanical properties :
#
#
# Convention : Reuss Voigt Hill
#
# Bulk Modulus (GPa) = 15.86039 18.92922 17.39481
# Shear Modulus (GPa) = 4.16462 14.91811 9.54137
#
# Velocity S-wave (km/s) = 1.53866 2.91214 2.32895
# Velocity P-wave (km/s) = 3.48896 4.69767 4.13769
#
# Compressibility (1/GPa) = 0.06305014
#
# Stress axis : x y z
#
# Youngs Moduli (GPa) = 10.17864 58.59822 25.29460
#
# Poissons Ratio (x) = 1.14823 0.90449
# Poissons Ratio (y) = 0.19945 -0.23919
# Poissons Ratio (z) = 0.36397 -0.55411
#
# Static dielectric constant tensor:
#      x y z
#    x 1.592850 0.000000 0.000000 
#    y 0.000000 1.569920 0.000000 
#    z 0.000000 0.000000 1.601780 
# 
# From -- ./inp_files/40746.got.cif
#   From: 2010.05.17/outbox.cif.g08.bks.cpg/sg63_21_cif.got.tgz:40746.got - 2010.06.03 15:47:04.
