data_PCOD9471955
_publ_section_title
;
Structure prediction by ZEFSAII (Michael W. Deem and Ramdas Pophale) SiO2 
 PCOD9471955
Probable space group: C M C M
;
_chemical_formula_sum "Si O2"
_cell_formula_units_Z 96
_cell_length_a 12.930168
_cell_length_b 17.321440
_cell_length_c 21.071103
_cell_angle_alpha 90.000000
_cell_angle_beta 90.000000
_cell_angle_gamma 90.000000
_cell_volume 4719.276590
_symmetry_space_group_name_H-M "C M C M"
_symmetry_group_IT_number 63
_symmetry_cell_setting 'orthorhombic'
loop_
_space_group_symop_operation_xyz
x,y,z
-x,-y,1/2+z
x,-y,-z
-x,y,1/2-z
-x,-y,-z
x,y,1/2-z
-x,y,z
x,-y,1/2+z
1/2+x,1/2+y,z
1/2-x,1/2-y,1/2+z
1/2+x,1/2-y,-z
1/2-x,1/2+y,1/2-z
1/2-x,1/2-y,-z
1/2+x,1/2+y,1/2-z
1/2-x,1/2+y,z
1/2+x,1/2-y,1/2+z
loop_
_atom_site_type_symbol
_atom_site_label
_atom_site_fract_x
_atom_site_fract_y
_atom_site_fract_z
Si Si1 0.164423 0.485373 0.427237
Si Si2 0.885516 0.807042 0.026560
Si Si3 0.886503 0.387719 0.822733
Si Si4 0.664713 0.810140 0.418764
Si Si5 0.164590 0.179350 0.323246
Si Si6 0.886142 0.944627 0.577109
O O1 0.132231 0.500000 0.500000
O O2 0.123094 0.546576 0.376227
O O3 0.134289 0.398368 0.411039
O O4 0.289250 0.498545 0.425614
O O5 0.875612 0.729710 0.983520
O O6 0.873636 0.878423 0.976901
O O7 0.000000 0.810768 0.054537
O O8 0.789226 0.808738 0.073295
O O9 0.878821 0.418821 0.750000
O O10 0.788920 0.331604 0.829980
O O11 0.000000 0.351123 0.828966
O O12 0.632040 0.754537 0.362012
O O13 0.137360 0.183020 0.250000
O O14 0.120002 0.103971 0.357924
O O15 0.000000 0.980320 0.570890
#
# Coordination Sequence:
#
# PCOD9471955 Si02
#       6
#    16  16  16  16  16  16
#     4  11  21  34  53  83 118 144 177 225 275 328
#     4   9  18  33  52  72 102 141 175 215 262 311
#     4   9  20  39  58  75 103 146 187 221 269 332
#     4  10  20  33  50  78 109 135 177 220 269 323
#     4   9  19  36  56  76 101 137 182 229 268 317
#     4   9  18  34  55  78 106 142 179 214 263 326
#
# _framework density 20.342101
#
# number of rings (size 3 to 8) (size 9 to 14) (size 15 to 20)
#    0.000    2.500    1.667    0.000    2.333    3.667 
#    0.000    0.000    0.000    0.000    0.000    2.333 
#    0.000    0.000    0.000    0.000    0.000    0.000 
#
# Total GULP energy -268055.477525 kJ/mol
# GULP energy per Si atom -5584.489115 kJ/mol
# Density = 2.029580 g / cm^3
# Si number density = 20.342101 Si / 1000 Ang^3
#
#
#
# Elastic Constant Matrix: (Units=GPa)
#
#
# Indices 1 2 3 4 5 6 
#
# 1 100.2734 -11.3924 -6.7327 0.0000 0.0000 0.0000
# 2 -11.3924 81.7676 25.9987 0.0000 0.0000 0.0000
# 3 -6.7327 25.9987 100.7176 0.0000 0.0000 0.0000
# 4 0.0000 0.0000 0.0000 19.1725 0.0000 0.0000
# 5 0.0000 0.0000 0.0000 0.0000 7.6651 0.0000
# 6 0.0000 0.0000 0.0000 0.0000 0.0000 1.4703
#
#
#
# Elastic Compliance Matrix: (Units=1/GPa)
#
#
# Indices 1 2 3 4 5 6 
#
# 1 0.010144 0.001305 0.000341 0.000000 0.000000 0.000000
# 2 0.001305 0.013491 -0.003395 0.000000 0.000000 0.000000
# 3 0.000341 -0.003395 0.010828 0.000000 0.000000 0.000000
# 4 0.000000 0.000000 0.000000 0.052158 0.000000 0.000000
# 5 0.000000 0.000000 0.000000 0.000000 0.130462 0.000000
# 6 0.000000 0.000000 0.000000 0.000000 0.000000 0.680153
#
#
# Mechanical properties :
#
#
# Convention : Reuss Voigt Hill
#
# Bulk Modulus (GPa) = 32.29494 33.16730 32.73112
# Shear Modulus (GPa) = 5.48814 23.98722 14.73768
#
# Velocity S-wave (km/s) = 1.64432 3.43766 2.69456
# Velocity P-wave (km/s) = 4.41763 5.66541 5.07997
#
# Compressibility (1/GPa) = 0.03096460
#
# Stress axis : x y z
#
# Youngs Moduli (GPa) = 98.58146 74.12265 92.35304
#
# Poissons Ratio (x) = -0.09672 -0.03152
# Poissons Ratio (y) = -0.12863 0.31357
# Poissons Ratio (z) = -0.03364 0.25167
#
# Static dielectric constant tensor:
#      x y z
#    x 1.768670 0.000000 0.000000 
#    y 0.000000 1.700320 0.000000 
#    z 0.000000 0.000000 1.701800 
# 
# From -- ./inp_files/54228.got.cif
#   From: 2010.05.17/outbox.cif.g08.bks.cpg/sg63_28_cif.got.tgz:54228.got - 2010.06.03 15:47:04.
