data_PCOD9471252
_publ_section_title
;
Structure prediction by ZEFSAII (Michael W. Deem and Ramdas Pophale) SiO2 
 PCOD9471252
Probable space group: C M C M
;
_chemical_formula_sum "Si O2"
_cell_formula_units_Z 96
_cell_length_a 18.988339
_cell_length_b 30.826712
_cell_length_c 9.179454
_cell_angle_alpha 90.000000
_cell_angle_beta 90.000000
_cell_angle_gamma 90.000000
_cell_volume 5373.175570
_symmetry_space_group_name_H-M "C M C M"
_symmetry_group_IT_number 63
_symmetry_cell_setting 'orthorhombic'
loop_
_space_group_symop_operation_xyz
x,y,z
-x,-y,1/2+z
x,-y,-z
-x,y,1/2-z
-x,-y,-z
x,y,1/2-z
-x,y,z
x,-y,1/2+z
1/2+x,1/2+y,z
1/2-x,1/2-y,1/2+z
1/2+x,1/2-y,-z
1/2-x,1/2+y,1/2-z
1/2-x,1/2-y,-z
1/2+x,1/2+y,1/2-z
1/2-x,1/2+y,z
1/2+x,1/2-y,1/2+z
loop_
_atom_site_type_symbol
_atom_site_label
_atom_site_fract_x
_atom_site_fract_y
_atom_site_fract_z
Si Si1 0.918034 0.200865 0.577791
Si Si2 0.845537 0.121625 0.423435
Si Si3 0.317269 0.875430 0.925889
Si Si4 0.186719 0.276320 0.576758
Si Si5 0.416884 0.954262 0.925322
Si Si6 0.084772 0.957348 0.083891
O O1 0.913117 0.189738 0.750000
O O2 0.871944 0.167096 0.487097
O O3 0.883696 0.248000 0.559155
O O4 0.000000 0.199166 0.536295
O O5 0.853813 0.121345 0.250000
O O6 0.763746 0.113323 0.458081
O O7 0.891320 0.084652 0.497792
O O8 0.325491 0.874014 0.750000
O O9 0.325346 0.825513 0.976995
O O10 0.370368 0.913092 0.976368
O O11 0.203388 0.278479 0.750000
O O12 0.250000 0.250000 0.500000
O O13 0.408610 0.958500 0.750000
O O14 0.500000 0.946626 0.954713
O O15 0.397065 0.000000 0.000000
O O16 0.110124 0.956578 0.250000
O O17 0.000000 0.958528 0.086979
O O18 0.110079 0.000000 0.000000
#
# Coordination Sequence:
#
# PCOD9471252 Si02
#       6
#    16  16  16  16  16  16
#     4  10  21  35  53  79 108 140 181 226 271 323
#     4  11  21  34  53  77 108 143 178 219 267 322
#     4   9  19  34  54  81 109 139 179 223 268 325
#     4  10  19  35  56  77 107 143 181 226 276 326
#     4   9  18  35  58  81 108 142 179 223 275 328
#     4  10  21  37  55  75 102 136 177 223 268 316
#
# _framework density 17.866530000000001
#
# number of rings (size 3 to 8) (size 9 to 14) (size 15 to 20)
#    0.000    2.167    1.667    1.500    0.000    4.667 
#    0.000    7.500    0.000    0.000    0.000    2.333 
#    0.000    0.000    0.000    0.000    0.000    0.000 
#
# Total GULP energy -267705.240294 kJ/mol
# GULP energy per Si atom -5577.192506 kJ/mol
# Density = 1.782586 g / cm^3
# Si number density = 17.866530 Si / 1000 Ang^3
#
#
#
# Elastic Constant Matrix: (Units=GPa)
#
#
# Indices 1 2 3 4 5 6 
#
# 1 73.1809 45.9345 35.9702 0.0000 0.0000 0.0000
# 2 45.9345 125.7961 35.6747 0.0000 0.0000 0.0000
# 3 35.9702 35.6747 40.6768 0.0000 0.0000 0.0000
# 4 0.0000 0.0000 0.0000 26.3175 0.0000 0.0000
# 5 0.0000 0.0000 0.0000 0.0000 -22.9089 0.0000
# 6 0.0000 0.0000 0.0000 0.0000 0.0000 34.3983
#
#
#
# Elastic Compliance Matrix: (Units=1/GPa)
#
#
# Indices 1 2 3 4 5 6 
#
# 1 0.025522 -0.003885 -0.019161 0.000000 0.000000 0.000000
# 2 -0.003885 0.011173 -0.006363 0.000000 0.000000 0.000000
# 3 -0.019161 -0.006363 0.047108 0.000000 0.000000 0.000000
# 4 0.000000 0.000000 0.000000 0.037997 0.000000 0.000000
# 5 0.000000 0.000000 0.000000 0.000000 -0.043651 0.000000
# 6 0.000000 0.000000 0.000000 0.000000 0.000000 0.029071
#
#
# Mechanical properties :
#
#
# Convention : Reuss Voigt Hill
#
# Bulk Modulus (GPa) = 40.02547 52.75698 46.39123
# Shear Modulus (GPa) = 28.67516 15.69967 22.18741
#
# Velocity S-wave (km/s) = 4.01055 2.96754 3.52780
# Velocity P-wave (km/s) = 6.62549 6.42917 6.52807
#
# Compressibility (1/GPa) = 0.02498409
#
# Stress axis : x y z
#
# Youngs Moduli (GPa) = 39.18238 89.50502 21.22760
#
# Poissons Ratio (x) = 0.34776 0.40674
# Poissons Ratio (y) = 0.15224 0.13507
# Poissons Ratio (z) = 0.75078 0.56951
#
# Static dielectric constant tensor:
#      x y z
#    x 1.602480 0.000000 0.000000 
#    y 0.000000 1.626600 0.000000 
#    z 0.000000 0.000000 1.603840 
# 
# From -- ./inp_files/8545.got.cif
#   From: 2010.05.17/outbox.cif.g08.bks.cpg/sg63_5_cif.got.tgz:8545.got - 2010.06.03 15:47:04.
