data_PCOD9471471
_publ_section_title
;
Structure prediction by ZEFSAII (Michael W. Deem and Ramdas Pophale) SiO2 
 PCOD9471471
Probable space group: C M C M
;
_chemical_formula_sum "Si O2"
_cell_formula_units_Z 96
_cell_length_a 30.192141
_cell_length_b 17.040977
_cell_length_c 7.669015
_cell_angle_alpha 90.000000
_cell_angle_beta 90.000000
_cell_angle_gamma 90.000000
_cell_volume 3945.735675
_symmetry_space_group_name_H-M "C M C M"
_symmetry_group_IT_number 63
_symmetry_cell_setting 'orthorhombic'
loop_
_space_group_symop_operation_xyz
x,y,z
-x,-y,1/2+z
x,-y,-z
-x,y,1/2-z
-x,-y,-z
x,y,1/2-z
-x,y,z
x,-y,1/2+z
1/2+x,1/2+y,z
1/2-x,1/2-y,1/2+z
1/2+x,1/2-y,-z
1/2-x,1/2+y,1/2-z
1/2-x,1/2-y,-z
1/2+x,1/2+y,1/2-z
1/2-x,1/2+y,z
1/2+x,1/2-y,1/2+z
loop_
_atom_site_type_symbol
_atom_site_label
_atom_site_fract_x
_atom_site_fract_y
_atom_site_fract_z
Si Si1 0.236604 0.584448 0.042278
Si Si2 0.808053 0.202960 0.464811
Si Si3 0.621987 0.585350 0.444122
Si Si4 0.950262 0.794875 0.454036
Si Si5 0.355616 0.863051 0.453330
Si Si6 0.450931 0.885284 0.450902
O O1 0.233852 0.589595 0.250000
O O2 0.260351 0.666070 0.982672
O O3 0.258533 0.500000 0.000000
O O4 0.187426 0.583243 0.965090
O O5 0.807348 0.208881 0.250000
O O6 0.838307 0.131031 0.533405
O O7 0.835079 0.280546 0.525324
O O8 0.608164 0.500000 0.500000
O O9 0.638770 0.574776 0.250000
O O10 0.581950 0.645456 0.454475
O O11 0.938227 0.785687 0.250000
O O12 0.950189 0.709513 0.539852
O O13 0.000000 0.825785 0.461696
O O14 0.366079 0.848443 0.250000
O O15 0.401443 0.899932 0.528166
O O16 0.451719 0.912942 0.250000
O O17 0.500000 0.907420 0.527247
#
# Coordination Sequence:
#
# PCOD9471471 Si02
#       6
#    16  16  16  16  16  16
#     4  11  23  39  58  83 115 151 189 230 282 336
#     4   9  19  36  57  82 112 145 186 231 274 327
#     4  11  21  35  52  73 103 143 186 232 280 329
#     4  10  20  33  49  72 103 139 182 231 279 328
#     4  10  19  36  60  87 117 147 184 230 275 330
#     4   9  17  32  57  85 113 147 182 222 277 334
#
# _framework density 24.330065000000001
#
# number of rings (size 3 to 8) (size 9 to 14) (size 15 to 20)
#    0.000    2.000    1.667    2.500    0.000    2.000 
#    0.000    3.333    0.000    0.500    0.000    0.000 
#    0.000    0.000    0.000    0.000    0.000    0.000 
#
# Total GULP energy -267475.146472 kJ/mol
# GULP energy per Si atom -5572.398885 kJ/mol
# Density = 2.427469 g / cm^3
# Si number density = 24.330065 Si / 1000 Ang^3
#
#
#
# Elastic Constant Matrix: (Units=GPa)
#
#
# Indices 1 2 3 4 5 6 
#
# 1 135.1404 18.9768 2.6967 0.0000 0.0000 0.0000
# 2 18.9768 102.2937 -10.4465 0.0000 0.0000 0.0000
# 3 2.6967 -10.4465 49.5274 0.0000 0.0000 0.0000
# 4 0.0000 0.0000 0.0000 11.5407 0.0000 0.0000
# 5 0.0000 0.0000 0.0000 0.0000 1.3808 0.0000
# 6 0.0000 0.0000 0.0000 0.0000 0.0000 11.7035
#
#
#
# Elastic Compliance Matrix: (Units=1/GPa)
#
#
# Indices 1 2 3 4 5 6 
#
# 1 0.007623 -0.001489 -0.000729 0.000000 0.000000 0.000000
# 2 -0.001489 0.010282 0.002250 0.000000 0.000000 0.000000
# 3 -0.000729 0.002250 0.020705 0.000000 0.000000 0.000000
# 4 0.000000 0.000000 0.000000 0.086650 0.000000 0.000000
# 5 0.000000 0.000000 0.000000 0.000000 0.724192 0.000000
# 6 0.000000 0.000000 0.000000 0.000000 0.000000 0.085444
#
#
# Mechanical properties :
#
#
# Convention : Reuss Voigt Hill
#
# Bulk Modulus (GPa) = 25.85720 34.37950 30.11835
# Shear Modulus (GPa) = 5.27580 23.30732 14.29156
#
# Velocity S-wave (km/s) = 1.47416 3.09846 2.42627
# Velocity P-wave (km/s) = 3.68080 5.19247 4.50055
#
# Compressibility (1/GPa) = 0.03867395
#
# Stress axis : x y z
#
# Youngs Moduli (GPa) = 131.17673 97.26030 48.29738
#
# Poissons Ratio (x) = 0.14479 0.03521
# Poissons Ratio (y) = 0.19528 -0.10865
# Poissons Ratio (z) = 0.09564 -0.21881
#
# Static dielectric constant tensor:
#      x y z
#    x 2.025060 0.000000 0.000000 
#    y 0.000000 1.977080 0.000000 
#    z 0.000000 0.000000 1.925490 
# 
# From -- ./inp_files/12322.got.cif
#   From: 2010.05.17/outbox.cif.g08.bks.cpg/sg63_7_cif.got.tgz:12322.got - 2010.06.03 15:47:04.
