data_PCOD9471167
_publ_section_title
;
Structure prediction by ZEFSAII (Michael W. Deem and Ramdas Pophale) SiO2 
 PCOD9471167
Probable space group: C M C M
;
_chemical_formula_sum "Si O2"
_cell_formula_units_Z 116
_cell_length_a 23.796431
_cell_length_b 27.987089
_cell_length_c 7.479275
_cell_angle_alpha 90.000000
_cell_angle_beta 90.000000
_cell_angle_gamma 90.000000
_cell_volume 4981.143541
_symmetry_space_group_name_H-M "C M C M"
_symmetry_group_IT_number 63
_symmetry_cell_setting 'orthorhombic'
loop_
_space_group_symop_operation_xyz
x,y,z
-x,-y,1/2+z
x,-y,-z
-x,y,1/2-z
-x,-y,-z
x,y,1/2-z
-x,y,z
x,-y,1/2+z
1/2+x,1/2+y,z
1/2-x,1/2-y,1/2+z
1/2+x,1/2-y,-z
1/2-x,1/2+y,1/2-z
1/2-x,1/2-y,-z
1/2+x,1/2+y,1/2-z
1/2-x,1/2+y,z
1/2+x,1/2-y,1/2+z
loop_
_atom_site_type_symbol
_atom_site_label
_atom_site_fract_x
_atom_site_fract_y
_atom_site_fract_z
Si Si1 0.500000 0.177160 0.250000
Si Si2 0.740494 0.556687 0.463412
Si Si3 0.561899 0.650602 0.468763
Si Si4 0.589405 0.850518 0.045600
Si Si5 0.173326 0.796324 0.959288
Si Si6 0.707221 0.191681 0.535326
Si Si7 0.135396 0.444053 0.536789
Si Si8 0.117418 0.944117 0.964166
O O1 0.451810 0.173277 0.407138
O O2 0.738336 0.500000 0.500000
O O3 0.741566 0.565171 0.250000
O O4 0.802033 0.569533 0.535943
O O5 0.679241 0.571834 0.533206
O O6 0.562047 0.652063 0.250000
O O7 0.500000 0.667108 0.527091
O O8 0.616215 0.680692 0.531274
O O9 0.572885 0.595517 0.522868
O O10 0.580559 0.834361 0.250000
O O11 0.652901 0.838344 0.988372
O O12 0.588778 0.908137 0.037574
O O13 0.162237 0.788797 0.750000
O O14 0.191710 0.744878 0.034758
O O15 0.231753 0.825659 0.971412
O O16 0.711380 0.193114 0.750000
O O17 0.126003 0.500000 0.500000
O O18 0.135785 0.438158 0.750000
O O19 0.120449 0.940576 0.750000
O O20 0.106138 0.000000 0.000000
#
# Coordination Sequence:
#
# PCOD9471167 Si02
#       8
#     4  16  16  16  16  16  16  16
#     4  12  26  48  66  94 130 172 214 260 306 392
#     4   8  15  26  44  72 106 140 185 242 298 354
#     4   9  18  32  52  81 116 155 205 250 295 360
#     4  11  24  43  67  94 130 166 213 264 318 381
#     4   9  18  35  63  90 121 157 202 255 312 379
#     4   9  20  38  61  95 123 153 196 256 322 375
#     4  10  19  34  58  88 123 161 207 260 321 379
#     4   9  17  30  47  73 107 152 202 249 299 350
#
# _framework density 23.287825000000002
#
# number of rings (size 3 to 8) (size 9 to 14) (size 15 to 20)
#    0.000    2.621    0.690    0.621    2.897    0.828 
#    1.241    1.034    0.000    1.241    0.000    0.000 
#    0.000    0.000    0.000    0.000    0.000    0.000 
#
# Total GULP energy -323083.732123 kJ/mol
# GULP energy per Si atom -5570.409175 kJ/mol
# Density = 2.323482 g / cm^3
# Si number density = 23.287825 Si / 1000 Ang^3
#
#
#
# Elastic Constant Matrix: (Units=GPa)
#
#
# Indices 1 2 3 4 5 6 
#
# 1 114.5152 48.5639 12.4100 0.0000 0.0000 0.0000
# 2 48.5639 57.9816 -1.3235 0.0000 0.0000 0.0000
# 3 12.4100 -1.3235 90.9976 0.0000 0.0000 0.0000
# 4 0.0000 0.0000 0.0000 9.8784 0.0000 0.0000
# 5 0.0000 0.0000 0.0000 0.0000 21.3108 0.0000
# 6 0.0000 0.0000 0.0000 0.0000 0.0000 -12.5552
#
#
#
# Elastic Compliance Matrix: (Units=1/GPa)
#
#
# Indices 1 2 3 4 5 6 
#
# 1 0.013922 -0.011708 -0.002069 0.000000 0.000000 0.000000
# 2 -0.011708 0.027098 0.001991 0.000000 0.000000 0.000000
# 3 -0.002069 0.001991 0.011300 0.000000 0.000000 0.000000
# 4 0.000000 0.000000 0.000000 0.101230 0.000000 0.000000
# 5 0.000000 0.000000 0.000000 0.000000 0.046925 0.000000
# 6 0.000000 0.000000 0.000000 0.000000 0.000000 -0.079648
#
#
# Mechanical properties :
#
#
# Convention : Reuss Voigt Hill
#
# Bulk Modulus (GPa) = 34.78393 42.53279 38.65836
# Shear Modulus (GPa) = 32.47129 17.31639 24.89384
#
# Velocity S-wave (km/s) = 3.73815 2.72983 3.27305
# Velocity P-wave (km/s) = 5.79660 5.31409 5.56058
#
# Compressibility (1/GPa) = 0.02874891
#
# Stress axis : x y z
#
# Youngs Moduli (GPa) = 71.83027 36.90256 88.49240
#
# Poissons Ratio (x) = 0.43204 0.18308
# Poissons Ratio (y) = 0.84097 -0.17617
# Poissons Ratio (z) = 0.14861 -0.07347
#
# Static dielectric constant tensor:
#      x y z
#    x 1.889510 0.000000 0.000000 
#    y 0.000000 1.945270 0.000000 
#    z 0.000000 0.000000 1.874830 
# 
# From -- ./inp_files/10911.got.cif
#   From: 2010.05.17/outbox.cif.g08.bks.cpg/sg63_6_cif.got.tgz:10911.got - 2010.06.03 15:47:04.
