data_PCOD9471777
_publ_section_title
;
Structure prediction by ZEFSAII (Michael W. Deem and Ramdas Pophale) SiO2 
 PCOD9471777
Probable space group: C M C M
;
_chemical_formula_sum "Si O2"
_cell_formula_units_Z 96
_cell_length_a 8.617627
_cell_length_b 20.169561
_cell_length_c 31.545096
_cell_angle_alpha 90.000000
_cell_angle_beta 90.000000
_cell_angle_gamma 90.000000
_cell_volume 5482.971539
_symmetry_space_group_name_H-M "C M C M"
_symmetry_group_IT_number 63
_symmetry_cell_setting 'orthorhombic'
loop_
_space_group_symop_operation_xyz
x,y,z
-x,-y,1/2+z
x,-y,-z
-x,y,1/2-z
-x,-y,-z
x,y,1/2-z
-x,y,z
x,-y,1/2+z
1/2+x,1/2+y,z
1/2-x,1/2-y,1/2+z
1/2+x,1/2-y,-z
1/2-x,1/2+y,1/2-z
1/2-x,1/2-y,-z
1/2+x,1/2+y,1/2-z
1/2-x,1/2+y,z
1/2+x,1/2-y,1/2+z
loop_
_atom_site_type_symbol
_atom_site_label
_atom_site_fract_x
_atom_site_fract_y
_atom_site_fract_z
Si Si1 0.312307 0.797468 0.871533
Si Si2 0.812748 0.953909 0.201645
Si Si3 0.687371 0.548933 0.462679
Si Si4 0.185463 0.450685 0.870493
Si Si5 0.189071 0.801095 0.297852
Si Si6 0.685814 0.702321 0.036172
O O1 0.500000 0.794989 0.873299
O O2 0.266420 0.873913 0.863439
O O3 0.258340 0.749161 0.834076
O O4 0.247437 0.777981 0.917424
O O5 0.766359 0.971048 0.250000
O O6 0.765773 0.877355 0.193845
O O7 0.000000 0.956228 0.199865
O O8 0.745775 0.002690 0.166732
O O9 0.739527 0.500000 0.500000
O O10 0.500000 0.547073 0.461173
O O11 0.750089 0.529210 0.416552
O O12 0.734316 0.625408 0.470783
O O13 0.000000 0.452773 0.871630
O O14 0.238712 0.783158 0.250000
O O15 0.000000 0.799780 0.297836
O O16 0.500000 0.704533 0.035995
O O17 0.750000 0.750000 0.000000
#
# Coordination Sequence:
#
# PCOD9471777 Si02
#       6
#    16  16  16  16  16  16
#     4   9  18  33  52  73  98 128 163 201 240 286
#     4   9  18  33  52  72  96 129 167 203 237 280
#     4   9  19  36  55  72  93 128 171 206 236 281
#     4  10  20  32  49  75 104 130 156 197 252 298
#     4   8  15  30  52  74  94 123 166 206 234 271
#     4  10  20  34  52  73  99 128 160 201 245 290
#
# _framework density 17.508754
#
# number of rings (size 3 to 8) (size 9 to 14) (size 15 to 20)
#    0.000    2.833    0.000    2.000    0.000    4.000 
#    0.000    9.167    0.000    1.500    0.000    0.000 
#    0.000    0.000    0.000    0.000    0.000    0.000 
#
# Total GULP energy -267650.508136 kJ/mol
# GULP energy per Si atom -5576.052253 kJ/mol
# Density = 1.746890 g / cm^3
# Si number density = 17.508754 Si / 1000 Ang^3
#
#
#
# Elastic Constant Matrix: (Units=GPa)
#
#
# Indices 1 2 3 4 5 6 
#
# 1 10.3596 23.8657 32.8968 0.0000 0.0000 0.0000
# 2 23.8657 102.2598 129.3888 0.0000 0.0000 0.0000
# 3 32.8968 129.3888 203.6425 0.0000 0.0000 0.0000
# 4 0.0000 0.0000 0.0000 44.0792 0.0000 0.0000
# 5 0.0000 0.0000 0.0000 0.0000 28.6515 0.0000
# 6 0.0000 0.0000 0.0000 0.0000 0.0000 20.4528
#
#
#
# Elastic Compliance Matrix: (Units=1/GPa)
#
#
# Indices 1 2 3 4 5 6 
#
# 1 0.217051 -0.032087 -0.014676 0.000000 0.000000 0.000000
# 2 -0.032087 0.054619 -0.029520 0.000000 0.000000 0.000000
# 3 -0.014676 -0.029520 0.026038 0.000000 0.000000 0.000000
# 4 0.000000 0.000000 0.000000 0.022686 0.000000 0.000000
# 5 0.000000 0.000000 0.000000 0.000000 0.034902 0.000000
# 6 0.000000 0.000000 0.000000 0.000000 0.000000 0.048893
#
#
# Mechanical properties :
#
#
# Convention : Reuss Voigt Hill
#
# Bulk Modulus (GPa) = 6.88978 76.50716 41.69847
# Shear Modulus (GPa) = 8.26260 27.31076 17.78668
#
# Velocity S-wave (km/s) = 2.17471 3.95376 3.19073
# Velocity P-wave (km/s) = 3.20147 8.03955 6.11898
#
# Compressibility (1/GPa) = 0.14514241
#
# Stress axis : x y z
#
# Youngs Moduli (GPa) = 4.60720 18.30853 38.40599
#
# Poissons Ratio (x) = 0.58747 0.56363
# Poissons Ratio (y) = 0.14783 1.13375
# Poissons Ratio (z) = 0.06761 0.54047
#
# Static dielectric constant tensor:
#      x y z
#    x 1.595690 0.000000 0.000000 
#    y 0.000000 1.591290 0.000000 
#    z 0.000000 0.000000 1.567890 
# 
# From -- ./inp_files/66957.got.cif
#   From: 2010.05.17/outbox.cif.g08.bks.cpg/sg63_34_cif.got.tgz:66957.got - 2010.06.03 15:47:04.
