data_PCOD9471799
_publ_section_title
;
Structure prediction by ZEFSAII (Michael W. Deem and Ramdas Pophale) SiO2 
 PCOD9471799
Probable space group: C M C M
;
_chemical_formula_sum "Si O2"
_cell_formula_units_Z 104
_cell_length_a 9.424931
_cell_length_b 25.614958
_cell_length_c 25.599106
_cell_angle_alpha 90.000000
_cell_angle_beta 90.000000
_cell_angle_gamma 90.000000
_cell_volume 6180.115991
_symmetry_space_group_name_H-M "C M C M"
_symmetry_group_IT_number 63
_symmetry_cell_setting 'orthorhombic'
loop_
_space_group_symop_operation_xyz
x,y,z
-x,-y,1/2+z
x,-y,-z
-x,y,1/2-z
-x,-y,-z
x,y,1/2-z
-x,y,z
x,-y,1/2+z
1/2+x,1/2+y,z
1/2-x,1/2-y,1/2+z
1/2+x,1/2-y,-z
1/2-x,1/2+y,1/2-z
1/2-x,1/2-y,-z
1/2+x,1/2+y,1/2-z
1/2-x,1/2+y,z
1/2+x,1/2-y,1/2+z
loop_
_atom_site_type_symbol
_atom_site_label
_atom_site_fract_x
_atom_site_fract_y
_atom_site_fract_z
Si Si1 0.329826 0.610432 0.386063
Si Si2 0.833315 0.311585 0.811668
Si Si3 0.833216 0.811577 0.188376
Si Si4 0.329820 0.886133 0.110492
Si Si5 0.840519 0.494223 0.885368
Si Si6 0.659505 0.614548 0.994227
Si Si7 0.750050 0.500000 0.000000
O O1 0.500000 0.607494 0.383393
O O2 0.264730 0.652557 0.347064
O O3 0.262511 0.553801 0.372475
O O4 0.293469 0.626396 0.446304
O O5 0.809301 0.321052 0.750000
O O6 0.808833 0.250017 0.821213
O O7 0.000000 0.322230 0.822348
O O8 0.808746 0.821009 0.250000
O O9 0.735380 0.847124 0.152590
O O10 0.000000 0.822131 0.177781
O O11 0.500000 0.883440 0.107594
O O12 0.262609 0.872570 0.053807
O O13 0.293512 0.946338 0.126475
O O14 0.000000 0.485546 0.864996
O O15 0.842411 0.494072 0.948410
O O16 0.500000 0.634867 0.985529
O O17 0.657655 0.551547 0.994074
#
# Coordination Sequence:
#
# PCOD9471799 Si02
#       7
#    16  16  16  16  16  16   8
#     4  10  20  32  50  78 106 134 170 208 248 294
#     4   9  19  37  59  78  96 125 166 209 255 306
#     4   9  19  37  59  78  96 125 166 209 255 306
#     4  10  20  32  50  78 106 134 170 208 248 294
#     4   9  17  29  46  70 103 139 169 201 244 294
#     4   9  17  29  46  70 103 138 168 202 246 295
#     4   8  14  24  44  70  94 128 176 214 238 280
#
# _framework density 16.828163
#
# number of rings (size 3 to 8) (size 9 to 14) (size 15 to 20)
#    0.000    2.769    0.000    2.308    0.000    9.846 
#    0.000    3.077    0.000    0.923    0.000    0.000 
#    0.000    0.000    0.000    0.000    0.000    0.000 
#
# Total GULP energy -289572.539110 kJ/mol
# GULP energy per Si atom -5568.702675 kJ/mol
# Density = 1.678986 g / cm^3
# Si number density = 16.828163 Si / 1000 Ang^3
#
#
#
# Elastic Constant Matrix: (Units=GPa)
#
#
# Indices 1 2 3 4 5 6 
#
# 1 82.1723 57.9330 57.5822 0.0000 0.0000 0.0000
# 2 57.9330 74.4443 60.3638 0.0000 0.0000 0.0000
# 3 57.5822 60.3638 73.4723 0.0000 0.0000 0.0000
# 4 0.0000 0.0000 0.0000 33.2240 0.0000 0.0000
# 5 0.0000 0.0000 0.0000 0.0000 17.0550 0.0000
# 6 0.0000 0.0000 0.0000 0.0000 0.0000 17.2674
#
#
#
# Elastic Compliance Matrix: (Units=1/GPa)
#
#
# Indices 1 2 3 4 5 6 
#
# 1 0.030768 -0.013154 -0.013306 0.000000 0.000000 0.000000
# 2 -0.013154 0.045865 -0.027373 0.000000 0.000000 0.000000
# 3 -0.013306 -0.027373 0.046528 0.000000 0.000000 0.000000
# 4 0.000000 0.000000 0.000000 0.030099 0.000000 0.000000
# 5 0.000000 0.000000 0.000000 0.000000 0.058634 0.000000
# 6 0.000000 0.000000 0.000000 0.000000 0.000000 0.057912
#
#
# Mechanical properties :
#
#
# Convention : Reuss Voigt Hill
#
# Bulk Modulus (GPa) = 64.53896 64.64967 64.59432
# Shear Modulus (GPa) = 13.06719 17.12328 15.09524
#
# Velocity S-wave (km/s) = 2.78961 3.19335 2.99828
# Velocity P-wave (km/s) = 6.98648 7.21786 7.10311
#
# Compressibility (1/GPa) = 0.01549452
#
# Stress axis : x y z
#
# Youngs Moduli (GPa) = 32.50133 21.80306 21.49238
#
# Poissons Ratio (x) = 0.28680 0.28598
# Poissons Ratio (y) = 0.42753 0.58831
# Poissons Ratio (z) = 0.43247 0.59681
#
# Static dielectric constant tensor:
#      x y z
#    x 1.579960 0.000000 0.000000 
#    y 0.000000 1.562410 0.000000 
#    z 0.000000 0.000000 1.562870 
# 
# From -- ./inp_files/67392.got.cif
#   From: 2010.05.17/outbox.cif.g08.bks.cpg/sg63_34_cif.got.tgz:67392.got - 2010.06.03 15:47:04.
