data_PCOD9471820
_publ_section_title
;
Structure prediction by ZEFSAII (Michael W. Deem and Ramdas Pophale) SiO2 
 PCOD9471820
Probable space group: C M C M
;
_chemical_formula_sum "Si O2"
_cell_formula_units_Z 96
_cell_length_a 14.688088
_cell_length_b 10.375405
_cell_length_c 29.592902
_cell_angle_alpha 90.000000
_cell_angle_beta 90.000000
_cell_angle_gamma 90.000000
_cell_volume 4509.806207
_symmetry_space_group_name_H-M "C M C M"
_symmetry_group_IT_number 63
_symmetry_cell_setting 'orthorhombic'
loop_
_space_group_symop_operation_xyz
x,y,z
-x,-y,1/2+z
x,-y,-z
-x,y,1/2-z
-x,-y,-z
x,y,1/2-z
-x,y,z
x,-y,1/2+z
1/2+x,1/2+y,z
1/2-x,1/2-y,1/2+z
1/2+x,1/2-y,-z
1/2-x,1/2+y,1/2-z
1/2-x,1/2-y,-z
1/2+x,1/2+y,1/2-z
1/2-x,1/2+y,z
1/2+x,1/2-y,1/2+z
loop_
_atom_site_type_symbol
_atom_site_label
_atom_site_fract_x
_atom_site_fract_y
_atom_site_fract_z
Si Si1 0.862939 0.131571 0.977598
Si Si2 0.855391 0.618419 0.970538
Si Si3 0.388928 0.222052 0.801936
Si Si4 0.109126 0.511789 0.872390
Si Si5 0.388640 0.512695 0.697559
Si Si6 0.892928 0.219416 0.875421
O O1 0.753219 0.124797 0.977261
O O2 0.886807 0.160380 0.925664
O O3 0.892316 0.249500 0.009269
O O4 0.896167 0.000000 0.000000
O O5 0.873367 0.586616 0.918867
O O6 0.891254 0.500000 0.000000
O O7 0.361999 0.204146 0.750000
O O8 0.500000 0.221947 0.803423
O O9 0.357106 0.103811 0.832430
O O10 0.360562 0.366939 0.815912
O O11 0.146066 0.365193 0.874389
O O12 0.000000 0.501694 0.867567
O O13 0.362316 0.535704 0.750000
O O14 0.500000 0.513008 0.696950
O O15 0.356561 0.620912 0.662356
O O16 0.000000 0.232184 0.865341
#
# Coordination Sequence:
#
# PCOD9471820 Si02
#       6
#    16  16  16  16  16  16
#     4  10  22  36  53  73  97 136 175 207 245 298
#     4  10  20  38  54  70 100 135 173 205 244 303
#     4   8  15  29  48  72 102 134 167 200 242 299
#     4  10  20  32  52  79 104 132 164 207 255 296
#     4   8  15  29  48  71 103 137 164 198 246 298
#     4  10  20  33  50  78 108 130 163 208 254 298
#
# _framework density 21.286944999999999
#
# number of rings (size 3 to 8) (size 9 to 14) (size 15 to 20)
#    0.000    2.667    1.667    1.000    2.333    2.000 
#    0.000    3.333    0.000    1.000    0.000    0.000 
#    0.000    0.000    0.000    0.000    0.000    0.000 
#
# Total GULP energy -267907.716913 kJ/mol
# GULP energy per Si atom -5581.410769 kJ/mol
# Density = 2.123850 g / cm^3
# Si number density = 21.286945 Si / 1000 Ang^3
#
#
#
# Elastic Constant Matrix: (Units=GPa)
#
#
# Indices 1 2 3 4 5 6 
#
# 1 54.5301 11.8601 -1.4518 0.0000 0.0000 0.0000
# 2 11.8601 233.1961 136.5006 0.0000 0.0000 0.0000
# 3 -1.4518 136.5006 153.6041 0.0000 0.0000 0.0000
# 4 0.0000 0.0000 0.0000 41.3265 0.0000 0.0000
# 5 0.0000 0.0000 0.0000 0.0000 30.6372 0.0000
# 6 0.0000 0.0000 0.0000 0.0000 0.0000 -22.0515
#
#
#
# Elastic Compliance Matrix: (Units=1/GPa)
#
#
# Indices 1 2 3 4 5 6 
#
# 1 0.018878 -0.002219 0.002150 0.000000 0.000000 0.000000
# 2 -0.002219 0.009198 -0.008195 0.000000 0.000000 0.000000
# 3 0.002150 -0.008195 0.013813 0.000000 0.000000 0.000000
# 4 0.000000 0.000000 0.000000 0.024198 0.000000 0.000000
# 5 0.000000 0.000000 0.000000 0.000000 0.032640 0.000000
# 6 0.000000 0.000000 0.000000 0.000000 0.000000 -0.045348
#
#
# Mechanical properties :
#
#
# Convention : Reuss Voigt Hill
#
# Bulk Modulus (GPa) = 39.42849 81.68312 60.55581
# Shear Modulus (GPa) = 63.80940 29.61053 46.70996
#
# Velocity S-wave (km/s) = 5.48096 3.73368 4.68942
# Velocity P-wave (km/s) = 7.65618 7.55267 7.60460
#
# Compressibility (1/GPa) = 0.02536237
#
# Stress axis : x y z
#
# Youngs Moduli (GPa) = 52.97090 108.72237 72.39721
#
# Poissons Ratio (x) = 0.24122 -0.15566
# Poissons Ratio (y) = 0.11752 0.59326
# Poissons Ratio (z) = -0.11389 0.89093
#
# Static dielectric constant tensor:
#      x y z
#    x 1.807210 0.000000 0.000000 
#    y 0.000000 1.754460 0.000000 
#    z 0.000000 0.000000 1.717440 
# 
# From -- ./inp_files/70611.got.cif
#   From: 2010.05.17/outbox.cif.g08.bks.cpg/sg63_36_cif.got.tgz:70611.got - 2010.06.03 15:47:04.
