data_PCOD9471975
_publ_section_title
;
Structure prediction by ZEFSAII (Michael W. Deem and Ramdas Pophale) SiO2 
 PCOD9471975
Probable space group: C M C M
;
_chemical_formula_sum "Si O2"
_cell_formula_units_Z 112
_cell_length_a 28.251781
_cell_length_b 15.437283
_cell_length_c 15.077645
_cell_angle_alpha 90.000000
_cell_angle_beta 90.000000
_cell_angle_gamma 90.000000
_cell_volume 6575.824449
_symmetry_space_group_name_H-M "C M C M"
_symmetry_group_IT_number 63
_symmetry_cell_setting 'orthorhombic'
loop_
_space_group_symop_operation_xyz
x,y,z
-x,-y,1/2+z
x,-y,-z
-x,y,1/2-z
-x,-y,-z
x,y,1/2-z
-x,y,z
x,-y,1/2+z
1/2+x,1/2+y,z
1/2-x,1/2-y,1/2+z
1/2+x,1/2-y,-z
1/2-x,1/2+y,1/2-z
1/2-x,1/2-y,-z
1/2+x,1/2+y,1/2-z
1/2-x,1/2+y,z
1/2+x,1/2-y,1/2+z
loop_
_atom_site_type_symbol
_atom_site_label
_atom_site_fract_x
_atom_site_fract_y
_atom_site_fract_z
Si Si1 0.689519 0.808938 0.644146
Si Si2 0.730218 0.837189 0.143671
Si Si3 0.641682 0.770070 0.471194
Si Si4 0.247046 0.031054 0.352985
Si Si5 0.849146 0.068882 0.429132
Si Si6 0.551172 0.564607 0.352565
Si Si7 0.553800 0.225109 0.647998
O O1 0.677817 0.813151 0.750000
O O2 0.726171 0.729160 0.632245
O O3 0.647563 0.795620 0.573892
O O4 0.717502 0.895244 0.613629
O O5 0.719073 0.836201 0.250000
O O6 0.685801 0.805828 0.086131
O O7 0.745447 0.933546 0.113188
O O8 0.644402 0.665701 0.464296
O O9 0.593660 0.800429 0.422416
O O10 0.258488 0.023903 0.250000
O O11 0.193549 0.066259 0.359728
O O12 0.900172 0.035946 0.396227
O O13 0.832048 0.000000 0.500000
O O14 0.552114 0.537773 0.250000
O O15 0.500000 0.537588 0.390707
O O16 0.552502 0.669590 0.353391
O O17 0.565946 0.200727 0.750000
O O18 0.500000 0.195685 0.629278
#
# Coordination Sequence:
#
# PCOD9471975 Si02
#       7
#    16  16  16  16  16  16  16
#     4  10  21  35  48  68 101 140 177 214 253 298
#     4  10  20  33  51  76 102 132 170 213 259 311
#     4  11  20  32  52  73  99 136 172 212 256 306
#     4  10  21  34  48  69 101 135 167 206 255 308
#     4  11  21  29  46  71  97 132 171 209 253 303
#     4   8  15  29  47  66  92 127 165 206 252 300
#     4   8  15  29  51  79 104 124 157 210 266 312
#
# _framework density 17.032084999999999
#
# number of rings (size 3 to 8) (size 9 to 14) (size 15 to 20)
#    0.000    2.286    1.429    3.000    2.000    1.429 
#    0.000    0.714    0.000    0.429    0.000    2.000 
#    0.000    3.429    0.000    0.000    0.000    1.286 
#
# Total GULP energy -311867.404810 kJ/mol
# GULP energy per Si atom -5569.060800 kJ/mol
# Density = 1.699332 g / cm^3
# Si number density = 17.032085 Si / 1000 Ang^3
#
#
#
# Elastic Constant Matrix: (Units=GPa)
#
#
# Indices 1 2 3 4 5 6 
#
# 1 88.0537 14.2447 56.1257 0.0000 0.0000 0.0000
# 2 14.2447 57.4139 20.1162 0.0000 0.0000 0.0000
# 3 56.1257 20.1162 85.1099 0.0000 0.0000 0.0000
# 4 0.0000 0.0000 0.0000 10.5152 0.0000 0.0000
# 5 0.0000 0.0000 0.0000 0.0000 27.9380 0.0000
# 6 0.0000 0.0000 0.0000 0.0000 0.0000 14.7318
#
#
#
# Elastic Compliance Matrix: (Units=1/GPa)
#
#
# Indices 1 2 3 4 5 6 
#
# 1 0.019599 -0.000364 -0.012838 0.000000 0.000000 0.000000
# 2 -0.000364 0.018997 -0.004250 0.000000 0.000000 0.000000
# 3 -0.012838 -0.004250 0.021220 0.000000 0.000000 0.000000
# 4 0.000000 0.000000 0.000000 0.095100 0.000000 0.000000
# 5 0.000000 0.000000 0.000000 0.000000 0.035794 0.000000
# 6 0.000000 0.000000 0.000000 0.000000 0.000000 0.067880
#
#
# Mechanical properties :
#
#
# Convention : Reuss Voigt Hill
#
# Bulk Modulus (GPa) = 40.14297 45.72785 42.93541
# Shear Modulus (GPa) = 16.56737 19.97641 18.27189
#
# Velocity S-wave (km/s) = 3.12222 3.42843 3.27890
# Velocity P-wave (km/s) = 6.05127 6.52522 6.29271
#
# Compressibility (1/GPa) = 0.02491096
#
# Stress axis : x y z
#
# Youngs Moduli (GPa) = 51.02340 52.64058 47.12497
#
# Poissons Ratio (x) = 0.01918 0.60501
# Poissons Ratio (y) = 0.01859 0.20027
# Poissons Ratio (z) = 0.65505 0.22371
#
# Static dielectric constant tensor:
#      x y z
#    x 1.580210 0.000000 0.000000 
#    y 0.000000 1.581530 0.000000 
#    z 0.000000 0.000000 1.615850 
# 
# From -- ./inp_files/38686.got.cif
#   From: 2010.05.17/outbox.cif.g08.bks.cpg/sg63_20_cif.got.tgz:38686.got - 2010.06.03 15:47:04.
