data_PCOD9471612
_publ_section_title
;
Structure prediction by ZEFSAII (Michael W. Deem and Ramdas Pophale) SiO2 
 PCOD9471612
Probable space group: C M C M
;
_chemical_formula_sum "Si O2"
_cell_formula_units_Z 112
_cell_length_a 24.238029
_cell_length_b 16.609313
_cell_length_c 14.631532
_cell_angle_alpha 90.000000
_cell_angle_beta 90.000000
_cell_angle_gamma 90.000000
_cell_volume 5890.318407
_symmetry_space_group_name_H-M "C M C M"
_symmetry_group_IT_number 63
_symmetry_cell_setting 'orthorhombic'
loop_
_space_group_symop_operation_xyz
x,y,z
-x,-y,1/2+z
x,-y,-z
-x,y,1/2-z
-x,-y,-z
x,y,1/2-z
-x,y,z
x,-y,1/2+z
1/2+x,1/2+y,z
1/2-x,1/2-y,1/2+z
1/2+x,1/2-y,-z
1/2-x,1/2+y,1/2-z
1/2-x,1/2-y,-z
1/2+x,1/2+y,1/2-z
1/2-x,1/2+y,z
1/2+x,1/2-y,1/2+z
loop_
_atom_site_type_symbol
_atom_site_label
_atom_site_fract_x
_atom_site_fract_y
_atom_site_fract_z
Si Si1 0.938091 0.657683 0.144198
Si Si2 0.121947 0.316208 0.141006
Si Si3 0.438341 0.979055 0.104950
Si Si4 0.275071 0.713220 0.141338
Si Si5 0.846794 0.216833 0.640627
Si Si6 0.661353 0.591606 0.480462
Si Si7 0.936023 0.150776 0.359380
O O1 0.943474 0.680645 0.250000
O O2 0.919206 0.564637 0.144840
O O3 0.893546 0.720081 0.106973
O O4 0.000000 0.660699 0.102422
O O5 0.123409 0.321998 0.250000
O O6 0.101020 0.402652 0.110347
O O7 0.182231 0.284257 0.112762
O O8 0.079940 0.243601 0.118797
O O9 0.500000 0.960120 0.142191
O O10 0.443971 0.000000 0.000000
O O11 0.284402 0.696569 0.250000
O O12 0.212693 0.741145 0.130200
O O13 0.292666 0.638167 0.079451
O O14 0.853401 0.199302 0.750000
O O15 0.847783 0.139821 0.575013
O O16 0.675783 0.500000 0.500000
O O17 0.605818 0.598348 0.419235
O O18 0.926796 0.139681 0.250000
O O19 0.000000 0.135477 0.378681
#
# Coordination Sequence:
#
# PCOD9471612 Si02
#       7
#    16  16  16  16  16  16  16
#     4   9  19  36  55  76 108 151 191 228 277 341
#     4   9  17  32  55  79 106 143 186 234 288 342
#     4  10  20  30  46  80 117 146 180 228 283 342
#     4   9  20  41  63  83 113 152 195 243 294 351
#     4  10  22  41  61  82 115 157 198 239 289 354
#     4  11  23  38  60  88 117 150 191 245 301 349
#     4   9  19  36  60  87 115 152 195 241 297 356
#
# _framework density 19.014253
#
# number of rings (size 3 to 8) (size 9 to 14) (size 15 to 20)
#    0.000    2.429    0.000    2.571    4.000    3.429 
#    2.571    0.000    0.000    1.714    0.000    0.000 
#    0.000    0.000    0.000    0.000    0.000    0.000 
#
# Total GULP energy -312262.055566 kJ/mol
# GULP energy per Si atom -5576.108135 kJ/mol
# Density = 1.897098 g / cm^3
# Si number density = 19.014253 Si / 1000 Ang^3
#
#
#
# Elastic Constant Matrix: (Units=GPa)
#
#
# Indices 1 2 3 4 5 6 
#
# 1 74.3633 48.0704 35.4734 0.0000 0.0000 0.0000
# 2 48.0704 141.4896 41.8693 0.0000 0.0000 0.0000
# 3 35.4734 41.8693 79.3201 0.0000 0.0000 0.0000
# 4 0.0000 0.0000 0.0000 20.9870 0.0000 0.0000
# 5 0.0000 0.0000 0.0000 0.0000 26.2291 0.0000
# 6 0.0000 0.0000 0.0000 0.0000 0.0000 4.6832
#
#
#
# Elastic Compliance Matrix: (Units=1/GPa)
#
#
# Indices 1 2 3 4 5 6 
#
# 1 0.019499 -0.004793 -0.006190 0.000000 0.000000 0.000000
# 2 -0.004793 0.009554 -0.002900 0.000000 0.000000 0.000000
# 3 -0.006190 -0.002900 0.016906 0.000000 0.000000 0.000000
# 4 0.000000 0.000000 0.000000 0.047648 0.000000 0.000000
# 5 0.000000 0.000000 0.000000 0.000000 0.038126 0.000000
# 6 0.000000 0.000000 0.000000 0.000000 0.000000 0.213531
#
#
# Mechanical properties :
#
#
# Convention : Reuss Voigt Hill
#
# Bulk Modulus (GPa) = 54.96515 60.66656 57.81586
# Shear Modulus (GPa) = 13.18934 21.69720 17.44327
#
# Velocity S-wave (km/s) = 2.63659 3.38168 3.03211
# Velocity P-wave (km/s) = 6.18376 6.87189 6.53689
#
# Compressibility (1/GPa) = 0.01819334
#
# Stress axis : x y z
#
# Youngs Moduli (GPa) = 51.28584 104.66777 59.15002
#
# Poissons Ratio (x) = 0.50164 0.36615
# Poissons Ratio (y) = 0.24580 0.17152
# Poissons Ratio (z) = 0.31747 0.30351
#
# Static dielectric constant tensor:
#      x y z
#    x 1.693500 0.000000 0.000000 
#    y 0.000000 1.651040 0.000000 
#    z 0.000000 0.000000 1.693950 
# 
# From -- ./inp_files/36950.got.cif
#   From: 2010.05.17/outbox.cif.g08.bks.cpg/sg63_19_cif.got.tgz:36950.got - 2010.06.03 15:47:04.
