data_PCOD9471984
_publ_section_title
;
Structure prediction by ZEFSAII (Michael W. Deem and Ramdas Pophale) SiO2 
 PCOD9471984
Probable space group: C M C M
;
_chemical_formula_sum "Si O2"
_cell_formula_units_Z 112
_cell_length_a 28.580846
_cell_length_b 15.397462
_cell_length_c 15.276752
_cell_angle_alpha 90.000000
_cell_angle_beta 90.000000
_cell_angle_gamma 90.000000
_cell_volume 6722.878295
_symmetry_space_group_name_H-M "C M C M"
_symmetry_group_IT_number 63
_symmetry_cell_setting 'orthorhombic'
loop_
_space_group_symop_operation_xyz
x,y,z
-x,-y,1/2+z
x,-y,-z
-x,y,1/2-z
-x,-y,-z
x,y,1/2-z
-x,y,z
x,-y,1/2+z
1/2+x,1/2+y,z
1/2-x,1/2-y,1/2+z
1/2+x,1/2-y,-z
1/2-x,1/2+y,1/2-z
1/2-x,1/2-y,-z
1/2+x,1/2+y,1/2-z
1/2-x,1/2+y,z
1/2+x,1/2-y,1/2+z
loop_
_atom_site_type_symbol
_atom_site_label
_atom_site_fract_x
_atom_site_fract_y
_atom_site_fract_z
Si Si1 0.262893 0.175308 0.351193
Si Si2 0.550540 0.991817 0.893962
Si Si3 0.737689 0.873251 0.346098
Si Si4 0.696490 0.405499 0.990383
Si Si5 0.552434 0.787207 0.646809
Si Si6 0.355535 0.234867 0.042276
Si Si7 0.643082 0.929719 0.422156
O O1 0.269610 0.149177 0.250000
O O2 0.235905 0.268213 0.351960
O O3 0.231213 0.109944 0.407939
O O4 0.312668 0.196137 0.398267
O O5 0.500000 0.024260 0.862022
O O6 0.597521 0.040973 0.868888
O O7 0.554569 0.891359 0.867997
O O8 0.549980 0.000000 0.000000
O O9 0.756362 0.894721 0.250000
O O10 0.770553 0.900322 0.424712
O O11 0.688069 0.917207 0.362540
O O12 0.673642 0.500000 0.000000
O O13 0.662272 0.323617 0.998832
O O14 0.555903 0.769899 0.750000
O O15 0.500000 0.759954 0.617013
O O16 0.597430 0.750055 0.597500
O O17 0.365716 0.161183 0.970823
O O18 0.652050 0.000000 0.500000
#
# Coordination Sequence:
#
# PCOD9471984 Si02
#       7
#    16  16  16  16  16  16  16
#     4  10  20  35  54  74 102 138 175 220 263 307
#     4   9  17  29  46  71 102 135 168 200 247 308
#     4  10  20  34  51  73 101 137 175 212 257 308
#     4  11  22  37  53  74 106 138 178 223 262 305
#     4  10  20  33  51  77 107 137 172 216 263 316
#     4  11  19  35  53  73 104 139 174 214 259 310
#     4  11  18  30  49  72 102 135 172 212 250 303
#
# _framework density 16.659531000000001
#
# number of rings (size 3 to 8) (size 9 to 14) (size 15 to 20)
#    0.000    1.714    5.714    1.714    0.000    1.714 
#    0.000    0.000    0.000    0.429    0.000    0.000 
#    0.000    0.571    0.000    0.000    0.000    0.000 
#
# Total GULP energy -312232.640695 kJ/mol
# GULP energy per Si atom -5575.582870 kJ/mol
# Density = 1.662161 g / cm^3
# Si number density = 16.659531 Si / 1000 Ang^3
#
#
#
# Elastic Constant Matrix: (Units=GPa)
#
#
# Indices 1 2 3 4 5 6 
#
# 1 85.8808 15.6745 0.7084 0.0000 0.0000 0.0000
# 2 15.6745 59.7125 7.0640 0.0000 0.0000 0.0000
# 3 0.7084 7.0640 49.2783 0.0000 0.0000 0.0000
# 4 0.0000 0.0000 0.0000 8.9136 0.0000 0.0000
# 5 0.0000 0.0000 0.0000 0.0000 -9.1153 0.0000
# 6 0.0000 0.0000 0.0000 0.0000 0.0000 22.7882
#
#
#
# Elastic Compliance Matrix: (Units=1/GPa)
#
#
# Indices 1 2 3 4 5 6 
#
# 1 0.012234 -0.003246 0.000289 0.000000 0.000000 0.000000
# 2 -0.003246 0.017897 -0.002519 0.000000 0.000000 0.000000
# 3 0.000289 -0.002519 0.020650 0.000000 0.000000 0.000000
# 4 0.000000 0.000000 0.000000 0.112188 0.000000 0.000000
# 5 0.000000 0.000000 0.000000 0.000000 -0.109706 0.000000
# 6 0.000000 0.000000 0.000000 0.000000 0.000000 0.043882
#
#
# Mechanical properties :
#
#
# Convention : Reuss Voigt Hill
#
# Bulk Modulus (GPa) = 25.10639 26.86282 25.98461
# Shear Modulus (GPa) = 41.19550 15.94561 28.57056
#
# Velocity S-wave (km/s) = 4.97811 3.09713 4.14571
# Velocity P-wave (km/s) = 6.93867 5.38045 6.20864
#
# Compressibility (1/GPa) = 0.03983050
#
# Stress axis : x y z
#
# Youngs Moduli (GPa) = 81.73914 55.87565 48.42662
#
# Poissons Ratio (x) = 0.18135 -0.01401
# Poissons Ratio (y) = 0.26530 0.12198
# Poissons Ratio (z) = -0.02365 0.14074
#
# Static dielectric constant tensor:
#      x y z
#    x 1.587260 0.000000 0.000000 
#    y 0.000000 1.577710 0.000000 
#    z 0.000000 0.000000 1.577650 
# 
# From -- ./inp_files/38717.got.cif
#   From: 2010.05.17/outbox.cif.g08.bks.cpg/sg63_20_cif.got.tgz:38717.got - 2010.06.03 15:47:04.
