data_PCOD9471972
_publ_section_title
;
Structure prediction by ZEFSAII (Michael W. Deem and Ramdas Pophale) SiO2 
 PCOD9471972
Probable space group: C M C M
;
_chemical_formula_sum "Si O2"
_cell_formula_units_Z 80
_cell_length_a 9.418544
_cell_length_b 27.132704
_cell_length_c 15.331612
_cell_angle_alpha 90.000000
_cell_angle_beta 90.000000
_cell_angle_gamma 90.000000
_cell_volume 3918.002131
_symmetry_space_group_name_H-M "C M C M"
_symmetry_group_IT_number 63
_symmetry_cell_setting 'orthorhombic'
loop_
_space_group_symop_operation_xyz
x,y,z
-x,-y,1/2+z
x,-y,-z
-x,y,1/2-z
-x,-y,-z
x,y,1/2-z
-x,y,z
x,-y,1/2+z
1/2+x,1/2+y,z
1/2-x,1/2-y,1/2+z
1/2+x,1/2-y,-z
1/2-x,1/2+y,1/2-z
1/2-x,1/2-y,-z
1/2+x,1/2+y,1/2-z
1/2-x,1/2+y,z
1/2+x,1/2-y,1/2+z
loop_
_atom_site_type_symbol
_atom_site_label
_atom_site_fract_x
_atom_site_fract_y
_atom_site_fract_z
Si Si1 0.835214 0.203515 0.356909
Si Si2 0.659536 0.083629 0.646521
Si Si3 0.337667 0.892204 0.855717
Si Si4 0.159441 0.989300 0.897939
Si Si5 0.173092 0.689069 0.851019
O O1 0.833490 0.204882 0.250000
O O2 0.737760 0.158234 0.384743
O O3 0.786006 0.257681 0.388429
O O4 0.000000 0.195675 0.381742
O O5 0.645884 0.092208 0.750000
O O6 0.500000 0.073295 0.612420
O O7 0.714700 0.136097 0.609510
O O8 0.759114 0.036955 0.637202
O O9 0.339709 0.891699 0.750000
O O10 0.500000 0.895101 0.886542
O O11 0.248647 0.939941 0.882657
O O12 0.000000 0.984134 0.861936
O O13 0.149693 0.000000 0.000000
O O14 0.222036 0.689991 0.750000
O O15 0.000000 0.688671 0.850246
#
# Coordination Sequence:
#
# PCOD9471972 Si02
#       5
#    16  16  16  16  16
#     4   8  13  24  45  72 101 131 158 186 227 280
#     4   9  17  31  53  79 103 127 159 199 241 289
#     4  10  20  33  51  76 102 127 159 200 243 287
#     4  11  24  38  50  67  94 129 168 208 248 290
#     4   7  11  22  43  72 102 128 154 186 229 283
#
# _framework density 20.418569999999999
#
# number of rings (size 3 to 8) (size 9 to 14) (size 15 to 20)
#    0.000    3.000    0.000    4.200    0.000    5.600 
#    0.000    1.000    0.000    4.800    0.000    0.000 
#    0.000    0.000    0.000    0.000    0.000    0.000 
#
# Total GULP energy -222932.313390 kJ/mol
# GULP energy per Si atom -5573.307835 kJ/mol
# Density = 2.037210 g / cm^3
# Si number density = 20.418570 Si / 1000 Ang^3
#
#
#
# Elastic Constant Matrix: (Units=GPa)
#
#
# Indices 1 2 3 4 5 6 
#
# 1 105.2266 82.9922 -26.1321 0.0000 0.0000 0.0000
# 2 82.9922 200.5320 -37.9955 0.0000 0.0000 0.0000
# 3 -26.1321 -37.9955 -11.6743 0.0000 0.0000 0.0000
# 4 0.0000 0.0000 0.0000 -60.6988 0.0000 0.0000
# 5 0.0000 0.0000 0.0000 0.0000 25.6443 0.0000
# 6 0.0000 0.0000 0.0000 0.0000 0.0000 24.5126
#
#
#
# Elastic Compliance Matrix: (Units=1/GPa)
#
#
# Indices 1 2 3 4 5 6 
#
# 1 0.013052 -0.006765 -0.007197 0.000000 0.000000 0.000000
# 2 -0.006765 0.006591 -0.006309 0.000000 0.000000 0.000000
# 3 -0.007197 -0.006309 -0.049016 0.000000 0.000000 0.000000
# 4 0.000000 0.000000 0.000000 -0.016475 0.000000 0.000000
# 5 0.000000 0.000000 0.000000 0.000000 0.038995 0.000000
# 6 0.000000 0.000000 0.000000 0.000000 0.000000 0.040795
#
#
# Mechanical properties :
#
#
# Convention : Reuss Voigt Hill
#
# Bulk Modulus (GPa) = -14.30311 36.86817 11.28253
# Shear Modulus (GPa) = 97.69532 16.23960 56.96746
#
# Velocity S-wave (km/s) = 6.92461 2.82323 5.28776
# Velocity P-wave (km/s) = 7.54410 5.35937 6.54356
#
# Compressibility (1/GPa) = -0.06991487
#
# Stress axis : x y z
#
# Youngs Moduli (GPa) = 76.61822 151.71581 -20.40150
#
# Poissons Ratio (x) = 1.02639 -0.14683
# Poissons Ratio (y) = 0.51834 -0.12871
# Poissons Ratio (z) = 0.55142 0.95712
#
# Static dielectric constant tensor:
#      x y z
#    x 1.713270 0.000000 0.000000 
#    y 0.000000 1.760990 0.000000 
#    z 0.000000 0.000000 1.743300 
# 
# From -- ./inp_files/40508.got.cif
#   From: 2010.05.17/outbox.cif.g08.bks.cpg/sg63_21_cif.got.tgz:40508.got - 2010.06.03 15:47:04.
