data_PCOD9471783
_publ_section_title
;
Structure prediction by ZEFSAII (Michael W. Deem and Ramdas Pophale) SiO2 
 PCOD9471783
Probable space group: C M C M
;
_chemical_formula_sum "Si O2"
_cell_formula_units_Z 112
_cell_length_a 13.454447
_cell_length_b 17.025323
_cell_length_c 24.680652
_cell_angle_alpha 90.000000
_cell_angle_beta 90.000000
_cell_angle_gamma 90.000000
_cell_volume 5653.505782
_symmetry_space_group_name_H-M "C M C M"
_symmetry_group_IT_number 63
_symmetry_cell_setting 'orthorhombic'
loop_
_space_group_symop_operation_xyz
x,y,z
-x,-y,1/2+z
x,-y,-z
-x,y,1/2-z
-x,-y,-z
x,y,1/2-z
-x,y,z
x,-y,1/2+z
1/2+x,1/2+y,z
1/2-x,1/2-y,1/2+z
1/2+x,1/2-y,-z
1/2-x,1/2+y,1/2-z
1/2-x,1/2-y,-z
1/2+x,1/2+y,1/2-z
1/2-x,1/2+y,z
1/2+x,1/2-y,1/2+z
loop_
_atom_site_type_symbol
_atom_site_label
_atom_site_fract_x
_atom_site_fract_y
_atom_site_fract_z
Si Si1 0.799708 0.334229 0.076155
Si Si2 0.257411 0.659137 0.108779
Si Si3 0.610775 0.088083 0.021985
Si Si4 0.110670 0.069251 0.542551
Si Si5 0.611779 0.756021 0.812636
Si Si6 0.250139 0.104570 0.810057
Si Si7 0.111437 0.026130 0.345645
O O1 0.795415 0.241363 0.084675
O O2 0.694997 0.365601 0.050712
O O3 0.811913 0.377813 0.134807
O O4 0.878588 0.358159 0.031165
O O5 0.196523 0.609912 0.064310
O O6 0.177843 0.684519 0.153810
O O7 0.345070 0.609311 0.135670
O O8 0.500000 0.096230 0.045804
O O9 0.623112 0.000000 0.000000
O O10 0.000000 0.100056 0.528525
O O11 0.135226 0.000000 0.500000
O O12 0.104651 0.025741 0.599948
O O13 0.608890 0.779617 0.750000
O O14 0.500000 0.749921 0.833971
O O15 0.664336 0.671143 0.814537
O O16 0.297340 0.114211 0.750000
O O17 0.194602 0.021080 0.812310
O O18 0.000000 0.030579 0.322028
#
# Coordination Sequence:
#
# PCOD9471783 Si02
#       7
#    16  16  16  16  16  16  16
#     4  10  20  35  55  79 108 139 178 224 272 324
#     4  11  22  35  53  79 111 145 180 219 267 321
#     4  11  23  38  55  75 104 144 187 227 264 311
#     4   9  17  31  53  77 101 130 167 217 272 321
#     4   9  18  34  56  81 107 135 173 223 273 318
#     4   9  18  34  58  82 104 134 173 222 278 330
#     4  10  20  32  49  76 108 139 171 209 259 320
#
# _framework density 19.810715999999999
#
# number of rings (size 3 to 8) (size 9 to 14) (size 15 to 20)
#    0.000    2.143    0.000    4.286    0.000    6.000 
#    0.000    1.429    0.000    0.429    0.000    4.000 
#    0.000    0.000    0.000    0.000    0.000    0.000 
#
# Total GULP energy -312443.355958 kJ/mol
# GULP energy per Si atom -5579.345642 kJ/mol
# Density = 1.976563 g / cm^3
# Si number density = 19.810716 Si / 1000 Ang^3
#
#
#
# Elastic Constant Matrix: (Units=GPa)
#
#
# Indices 1 2 3 4 5 6 
#
# 1 23.4748 8.0747 -4.4967 0.0000 0.0000 0.0000
# 2 8.0747 83.4939 3.9832 0.0000 0.0000 0.0000
# 3 -4.4967 3.9832 55.5167 0.0000 0.0000 0.0000
# 4 0.0000 0.0000 0.0000 21.9027 0.0000 0.0000
# 5 0.0000 0.0000 0.0000 0.0000 -4.4437 0.0000
# 6 0.0000 0.0000 0.0000 0.0000 0.0000 -6.8142
#
#
#
# Elastic Compliance Matrix: (Units=1/GPa)
#
#
# Indices 1 2 3 4 5 6 
#
# 1 0.044917 -0.004533 0.003963 0.000000 0.000000 0.000000
# 2 -0.004533 0.012476 -0.001262 0.000000 0.000000 0.000000
# 3 0.003963 -0.001262 0.018424 0.000000 0.000000 0.000000
# 4 0.000000 0.000000 0.000000 0.045656 0.000000 0.000000
# 5 0.000000 0.000000 0.000000 0.000000 -0.225036 0.000000
# 6 0.000000 0.000000 0.000000 0.000000 0.000000 -0.146753
#
#
# Mechanical properties :
#
#
# Convention : Reuss Voigt Hill
#
# Bulk Modulus (GPa) = 13.85938 19.73420 16.79679
# Shear Modulus (GPa) = -22.46173 12.45724 -5.00225
#
# Velocity S-wave (km/s) = -3.37087 2.51033 -1.59076
# Velocity P-wave (km/s) = 2.85294 4.28782 2.26341
#
# Compressibility (1/GPa) = 0.07215331
#
# Stress axis : x y z
#
# Youngs Moduli (GPa) = 22.26310 80.15692 54.27644
#
# Poissons Ratio (x) = 0.36335 -0.21512
# Poissons Ratio (y) = 0.10092 0.06851
# Poissons Ratio (z) = -0.08824 0.10118
#
# Static dielectric constant tensor:
#      x y z
#    x 1.702050 0.000000 0.000000 
#    y 0.000000 1.687700 0.000000 
#    z 0.000000 0.000000 1.748040 
# 
# From -- ./inp_files/63004.got.cif
#   From: 2010.05.17/outbox.cif.g08.bks.cpg/sg63_32_cif.got.tgz:63004.got - 2010.06.03 15:47:04.
