data_PCOD9471549
_publ_section_title
;
Structure prediction by ZEFSAII (Michael W. Deem and Ramdas Pophale) SiO2 
 PCOD9471549
Probable space group: C M C M
;
_chemical_formula_sum "Si O2"
_cell_formula_units_Z 44
_cell_length_a 14.199666
_cell_length_b 18.916375
_cell_length_c 7.531830
_cell_angle_alpha 90.000000
_cell_angle_beta 90.000000
_cell_angle_gamma 90.000000
_cell_volume 2023.096288
_symmetry_space_group_name_H-M "C M C M"
_symmetry_group_IT_number 63
_symmetry_cell_setting 'orthorhombic'
loop_
_space_group_symop_operation_xyz
x,y,z
-x,-y,1/2+z
x,-y,-z
-x,y,1/2-z
-x,-y,-z
x,y,1/2-z
-x,y,z
x,-y,1/2+z
1/2+x,1/2+y,z
1/2-x,1/2-y,1/2+z
1/2+x,1/2-y,-z
1/2-x,1/2+y,1/2-z
1/2-x,1/2-y,-z
1/2+x,1/2+y,1/2-z
1/2-x,1/2+y,z
1/2+x,1/2-y,1/2+z
loop_
_atom_site_type_symbol
_atom_site_label
_atom_site_fract_x
_atom_site_fract_y
_atom_site_fract_z
Si Si1 0.661032 0.201888 0.050574
Si Si2 0.294908 0.416583 0.037759
Si Si3 0.000000 0.712848 0.750000
Si Si4 0.000000 0.084141 0.961803
O O1 0.629040 0.218785 0.250000
O O2 0.750000 0.250000 0.000000
O O3 0.707279 0.123790 0.044276
O O4 0.581588 0.210329 0.905495
O O5 0.292175 0.406020 0.250000
O O6 0.398411 0.389505 0.971446
O O7 0.291210 0.500000 0.000000
O O8 0.000000 0.093508 0.750000
O O9 0.000000 0.000000 0.000000
#
# Coordination Sequence:
#
# PCOD9471549 Si02
#       4
#    16  16   4   8
#     4  12  25  47  74 103 140 186 236 291 355 421
#     4  10  19  37  63  98 143 184 233 289 350 413
#     4  12  26  50  74 100 142 178 242 292 356 420
#     4   8  16  29  54  90 131 173 213 273 338 399
#
# _framework density 21.748842
#
# number of rings (size 3 to 8) (size 9 to 14) (size 15 to 20)
#    0.000    1.455    3.636    1.636    0.000    2.909 
#    0.000    4.545    0.000    0.000    0.000    0.000 
#    0.000    0.000    0.000    0.000    0.000    0.000 
#
# Total GULP energy -122481.855742 kJ/mol
# GULP energy per Si atom -5567.357079 kJ/mol
# Density = 2.169934 g / cm^3
# Si number density = 21.748842 Si / 1000 Ang^3
#
#
#
# Elastic Constant Matrix: (Units=GPa)
#
#
# Indices 1 2 3 4 5 6 
#
# 1 198.5691 35.1301 90.0632 0.0000 0.0000 0.0000
# 2 35.1301 59.9819 12.1520 0.0000 0.0000 0.0000
# 3 90.0632 12.1520 211.8741 0.0000 0.0000 0.0000
# 4 0.0000 0.0000 0.0000 20.2202 0.0000 0.0000
# 5 0.0000 0.0000 0.0000 0.0000 44.1193 0.0000
# 6 0.0000 0.0000 0.0000 0.0000 0.0000 -10.6641
#
#
#
# Elastic Compliance Matrix: (Units=1/GPa)
#
#
# Indices 1 2 3 4 5 6 
#
# 1 0.006890 -0.003482 -0.002729 0.000000 0.000000 0.000000
# 2 -0.003482 0.018628 0.000412 0.000000 0.000000 0.000000
# 3 -0.002729 0.000412 0.005856 0.000000 0.000000 0.000000
# 4 0.000000 0.000000 0.000000 0.049455 0.000000 0.000000
# 5 0.000000 0.000000 0.000000 0.000000 0.022666 0.000000
# 6 0.000000 0.000000 0.000000 0.000000 0.000000 -0.093773
#
#
# Mechanical properties :
#
#
# Convention : Reuss Voigt Hill
#
# Bulk Modulus (GPa) = 50.56917 82.79063 66.67990
# Shear Modulus (GPa) = 179.12762 32.94041 106.03401
#
# Velocity S-wave (km/s) = 9.08519 3.89599 6.98997
# Velocity P-wave (km/s) = 11.54799 7.64118 9.79142
#
# Compressibility (1/GPa) = 0.01977489
#
# Stress axis : x y z
#
# Youngs Moduli (GPa) = 145.14013 53.68321 170.75895
#
# Poissons Ratio (x) = 0.18695 0.46600
# Poissons Ratio (y) = 0.50543 -0.07033
# Poissons Ratio (z) = 0.39609 -0.02211
#
# Static dielectric constant tensor:
#      x y z
#    x 1.778350 0.000000 0.000000 
#    y 0.000000 1.892530 0.000000 
#    z 0.000000 0.000000 1.807570 
# 
# From -- ./inp_files/3646.got.cif
#   From: 2010.05.17/outbox.cif.g08.bks.cpg/sg63_2_cif.got.tgz:3646.got - 2010.06.03 15:47:04.
