data_PCOD9471321
_publ_section_title
;
Structure prediction by ZEFSAII (Michael W. Deem and Ramdas Pophale) SiO2 
 PCOD9471321
Probable space group: C M C M
;
_chemical_formula_sum "Si O2"
_cell_formula_units_Z 116
_cell_length_a 12.758174
_cell_length_b 18.554862
_cell_length_c 28.192931
_cell_angle_alpha 90.000000
_cell_angle_beta 90.000000
_cell_angle_gamma 90.000000
_cell_volume 6674.004237
_symmetry_space_group_name_H-M "C M C M"
_symmetry_group_IT_number 63
_symmetry_cell_setting 'orthorhombic'
loop_
_space_group_symop_operation_xyz
x,y,z
-x,-y,1/2+z
x,-y,-z
-x,y,1/2-z
-x,-y,-z
x,y,1/2-z
-x,y,z
x,-y,1/2+z
1/2+x,1/2+y,z
1/2-x,1/2-y,1/2+z
1/2+x,1/2-y,-z
1/2-x,1/2+y,1/2-z
1/2-x,1/2-y,-z
1/2+x,1/2+y,1/2-z
1/2-x,1/2+y,z
1/2+x,1/2-y,1/2+z
loop_
_atom_site_type_symbol
_atom_site_label
_atom_site_fract_x
_atom_site_fract_y
_atom_site_fract_z
Si Si1 0.265594 0.829843 0.441665
Si Si2 0.500000 0.124411 0.250000
Si Si3 0.622902 0.340518 0.348576
Si Si4 0.373738 0.507681 0.803615
Si Si5 0.723931 0.583514 0.388722
Si Si6 0.876632 0.820009 0.965390
Si Si7 0.387227 0.180134 0.337975
Si Si8 0.880228 0.521209 0.555252
O O1 0.193692 0.834018 0.395095
O O2 0.189585 0.837045 0.487257
O O3 0.328552 0.755159 0.446246
O O4 0.345654 0.896157 0.440591
O O5 0.410557 0.132202 0.292022
O O6 0.500000 0.350523 0.361281
O O7 0.653306 0.409725 0.317589
O O8 0.630987 0.262959 0.322989
O O9 0.337471 0.491587 0.750000
O O10 0.500000 0.502286 0.803926
O O11 0.329106 0.456036 0.844269
O O12 0.644605 0.617998 0.426543
O O13 0.796377 0.647938 0.369267
O O14 0.800041 0.527410 0.415188
O O15 0.000000 0.813075 0.975149
O O16 0.500000 0.180961 0.365089
O O17 0.874178 0.500000 0.500000
O O18 0.000000 0.510349 0.571420
#
# Coordination Sequence:
#
# PCOD9471321 Si02
#       8
#    16   4  16  16  16  16  16  16
#     4  11  21  41  57  87 115 154 195 231 287 340
#     4   8  20  36  56  88 112 140 198 238 308 320
#     4  10  19  35  59  85 114 145 190 239 284 338
#     4  10  23  37  57  84 116 150 191 239 292 344
#     4  12  21  39  57  84 119 153 191 234 287 350
#     4  11  24  38  59  85 119 155 195 237 278 341
#     4   9  20  34  57  84 109 143 186 241 287 334
#     4  11  23  39  59  84 115 154 193 233 283 344
#
# _framework density 17.380869000000001
#
# number of rings (size 3 to 8) (size 9 to 14) (size 15 to 20)
#    0.414    1.103    4.138    1.655    1.931    0.000 
#    0.000    0.690    0.000    0.000    0.000    0.000 
#    0.000    0.000    0.000    0.000    0.000    0.000 
#
# Total GULP energy -322886.222577 kJ/mol
# GULP energy per Si atom -5567.003838 kJ/mol
# Density = 1.734131 g / cm^3
# Si number density = 17.380869 Si / 1000 Ang^3
#
#
#
# Elastic Constant Matrix: (Units=GPa)
#
#
# Indices 1 2 3 4 5 6 
#
# 1 63.7621 26.5165 29.2339 0.0000 0.0000 0.0000
# 2 26.5165 77.4006 21.0252 0.0000 0.0000 0.0000
# 3 29.2339 21.0252 73.7067 0.0000 0.0000 0.0000
# 4 0.0000 0.0000 0.0000 15.1584 0.0000 0.0000
# 5 0.0000 0.0000 0.0000 0.0000 22.4009 0.0000
# 6 0.0000 0.0000 0.0000 0.0000 0.0000 25.3997
#
#
#
# Elastic Compliance Matrix: (Units=1/GPa)
#
#
# Indices 1 2 3 4 5 6 
#
# 1 0.021035 -0.005355 -0.006815 0.000000 0.000000 0.000000
# 2 -0.005355 0.015368 -0.002260 0.000000 0.000000 0.000000
# 3 -0.006815 -0.002260 0.016915 0.000000 0.000000 0.000000
# 4 0.000000 0.000000 0.000000 0.065970 0.000000 0.000000
# 5 0.000000 0.000000 0.000000 0.000000 0.044641 0.000000
# 6 0.000000 0.000000 0.000000 0.000000 0.000000 0.039371
#
#
# Mechanical properties :
#
#
# Convention : Reuss Voigt Hill
#
# Bulk Modulus (GPa) = 40.88708 40.93561 40.91134
# Shear Modulus (GPa) = 20.80617 21.79806 21.30211
#
# Velocity S-wave (km/s) = 3.46363 3.54523 3.50466
# Velocity P-wave (km/s) = 6.29054 6.35306 6.32188
#
# Compressibility (1/GPa) = 0.02445761
#
# Stress axis : x y z
#
# Youngs Moduli (GPa) = 47.53978 65.06929 59.11870
#
# Poissons Ratio (x) = 0.34844 0.40292
# Poissons Ratio (y) = 0.25457 0.13360
# Poissons Ratio (z) = 0.32401 0.14705
#
# Static dielectric constant tensor:
#      x y z
#    x 1.583530 0.000000 0.000000 
#    y 0.000000 1.601970 0.000000 
#    z 0.000000 0.000000 1.573250 
# 
# From -- ./inp_files/73016.got.cif
#   From: 2010.05.17/outbox.cif.g08.bks.cpg/sg63_37_cif.got.tgz:73016.got - 2010.06.03 15:47:04.
