data_PCOD9471956
_publ_section_title
;
Structure prediction by ZEFSAII (Michael W. Deem and Ramdas Pophale) SiO2 
 PCOD9471956
Probable space group: C M C M
;
_chemical_formula_sum "Si O2"
_cell_formula_units_Z 112
_cell_length_a 26.155332
_cell_length_b 12.545288
_cell_length_c 17.948773
_cell_angle_alpha 90.000000
_cell_angle_beta 90.000000
_cell_angle_gamma 90.000000
_cell_volume 5889.462189
_symmetry_space_group_name_H-M "C M C M"
_symmetry_group_IT_number 63
_symmetry_cell_setting 'orthorhombic'
loop_
_space_group_symop_operation_xyz
x,y,z
-x,-y,1/2+z
x,-y,-z
-x,y,1/2-z
-x,-y,-z
x,y,1/2-z
-x,y,z
x,-y,1/2+z
1/2+x,1/2+y,z
1/2-x,1/2-y,1/2+z
1/2+x,1/2-y,-z
1/2-x,1/2+y,1/2-z
1/2-x,1/2-y,-z
1/2+x,1/2+y,1/2-z
1/2-x,1/2+y,z
1/2+x,1/2-y,1/2+z
loop_
_atom_site_type_symbol
_atom_site_label
_atom_site_fract_x
_atom_site_fract_y
_atom_site_fract_z
Si Si1 0.848695 0.303993 0.888173
Si Si2 0.286836 0.395569 0.160813
Si Si3 0.120877 0.952818 0.666226
Si Si4 0.827785 0.464221 0.164519
Si Si5 0.056432 0.168708 0.048879
Si Si6 0.899335 0.610702 0.965998
Si Si7 0.559253 0.656177 0.625899
O O1 0.808834 0.207576 0.880902
O O2 0.830871 0.407885 0.844086
O O3 0.902652 0.254771 0.859323
O O4 0.860049 0.342260 0.972256
O O5 0.290791 0.374945 0.250000
O O6 0.324583 0.495092 0.146040
O O7 0.228769 0.424323 0.143181
O O8 0.123306 0.907616 0.750000
O O9 0.099486 0.873934 0.604094
O O10 0.082005 0.053189 0.665828
O O11 0.837169 0.434506 0.250000
O O12 0.869243 0.415869 0.108944
O O13 0.060092 0.296531 0.046260
O O14 0.000000 0.133167 0.073702
O O15 0.063573 0.133055 0.963208
O O16 0.919838 0.500000 0.000000
O O17 0.500000 0.676708 0.642844
#
# Coordination Sequence:
#
# PCOD9471956 Si02
#       7
#    16  16  16  16  16  16  16
#     4   9  18  35  55  76 102 131 173 220 254 297
#     4   9  19  34  53  77 105 141 176 206 253 310
#     4  10  20  33  50  78 112 137 165 208 254 306
#     4  10  20  35  54  75 102 135 170 213 263 313
#     4  10  20  34  53  75 103 140 174 205 251 310
#     4   9  20  37  54  75 101 131 175 222 259 296
#     4   9  18  34  55  76 101 136 174 211 252 299
#
# _framework density 19.017016999999999
#
# number of rings (size 3 to 8) (size 9 to 14) (size 15 to 20)
#    0.000    2.571    0.000    1.286    0.000    5.429 
#    0.000   16.429    0.000    0.857    0.000    0.000 
#    0.000    0.000    0.000    0.000    0.000    0.000 
#
# Total GULP energy -312438.385155 kJ/mol
# GULP energy per Si atom -5579.256878 kJ/mol
# Density = 1.897373 g / cm^3
# Si number density = 19.017017 Si / 1000 Ang^3
#
#
#
# Elastic Constant Matrix: (Units=GPa)
#
#
# Indices 1 2 3 4 5 6 
#
# 1 40.2071 -1.1800 10.9248 0.0000 0.0000 0.0000
# 2 -1.1800 48.1297 13.3921 0.0000 0.0000 0.0000
# 3 10.9248 13.3921 43.8731 0.0000 0.0000 0.0000
# 4 0.0000 0.0000 0.0000 16.9682 0.0000 0.0000
# 5 0.0000 0.0000 0.0000 0.0000 12.4931 0.0000
# 6 0.0000 0.0000 0.0000 0.0000 0.0000 14.7640
#
#
#
# Elastic Compliance Matrix: (Units=1/GPa)
#
#
# Indices 1 2 3 4 5 6 
#
# 1 0.027010 0.002769 -0.007571 0.000000 0.000000 0.000000
# 2 0.002769 0.022990 -0.007707 0.000000 0.000000 0.000000
# 3 -0.007571 -0.007707 0.027031 0.000000 0.000000 0.000000
# 4 0.000000 0.000000 0.000000 0.058934 0.000000 0.000000
# 5 0.000000 0.000000 0.000000 0.000000 0.080044 0.000000
# 6 0.000000 0.000000 0.000000 0.000000 0.000000 0.067732
#
#
# Mechanical properties :
#
#
# Convention : Reuss Voigt Hill
#
# Bulk Modulus (GPa) = 19.22636 19.83154 19.52895
# Shear Modulus (GPa) = 15.33292 16.11658 15.72475
#
# Velocity S-wave (km/s) = 2.84258 2.91431 2.87867
# Velocity P-wave (km/s) = 4.57227 4.66639 4.61957
#
# Compressibility (1/GPa) = 0.05201191
#
# Stress axis : x y z
#
# Youngs Moduli (GPa) = 37.02390 43.49801 36.99495
#
# Poissons Ratio (x) = -0.12044 0.28008
# Poissons Ratio (y) = -0.10251 0.28512
# Poissons Ratio (z) = 0.28030 0.33524
#
# Static dielectric constant tensor:
#      x y z
#    x 1.633890 0.000000 0.000000 
#    y 0.000000 1.668260 0.000000 
#    z 0.000000 0.000000 1.662470 
# 
# From -- ./inp_files/57610.got.cif
#   From: 2010.05.17/outbox.cif.g08.bks.cpg/sg63_29_cif.got.tgz:57610.got - 2010.06.03 15:47:04.
