data_PCOD9471049
_publ_section_title
;
Structure prediction by ZEFSAII (Michael W. Deem and Ramdas Pophale) SiO2 
 PCOD9471049
Probable space group: C M C M
;
_chemical_formula_sum "Si O2"
_cell_formula_units_Z 120
_cell_length_a 16.856231
_cell_length_b 19.572477
_cell_length_c 19.886159
_cell_angle_alpha 90.000000
_cell_angle_beta 90.000000
_cell_angle_gamma 90.000000
_cell_volume 6560.805654
_symmetry_space_group_name_H-M "C M C M"
_symmetry_group_IT_number 63
_symmetry_cell_setting 'orthorhombic'
loop_
_space_group_symop_operation_xyz
x,y,z
-x,-y,1/2+z
x,-y,-z
-x,y,1/2-z
-x,-y,-z
x,y,1/2-z
-x,y,z
x,-y,1/2+z
1/2+x,1/2+y,z
1/2-x,1/2-y,1/2+z
1/2+x,1/2-y,-z
1/2-x,1/2+y,1/2-z
1/2-x,1/2-y,-z
1/2+x,1/2+y,1/2-z
1/2-x,1/2+y,z
1/2+x,1/2-y,1/2+z
loop_
_atom_site_type_symbol
_atom_site_label
_atom_site_fract_x
_atom_site_fract_y
_atom_site_fract_z
Si Si1 0.407017 0.627431 0.454137
Si Si2 0.814053 0.482898 0.614947
Si Si3 0.762481 0.709367 0.674845
Si Si4 0.905424 0.616771 0.870119
Si Si5 0.173842 0.765385 0.453898
Si Si6 0.308490 0.500000 0.500000
Si Si7 0.908012 0.625948 0.467812
Si Si8 0.700934 0.630520 0.175675
O O1 0.500000 0.618312 0.448373
O O2 0.386275 0.692982 0.499322
O O3 0.363220 0.564923 0.489654
O O4 0.365236 0.630245 0.381798
O O5 0.863515 0.544374 0.648239
O O6 0.746937 0.511858 0.564740
O O7 0.872674 0.440709 0.566753
O O8 0.768067 0.426467 0.659743
O O9 0.737193 0.687467 0.750000
O O10 0.848687 0.675730 0.660075
O O11 0.703500 0.694920 0.612527
O O12 0.767559 0.791762 0.674705
O O13 0.000000 0.620149 0.853121
O O14 0.898913 0.622881 0.951423
O O15 0.250000 0.750000 0.500000
O O16 0.136527 0.691902 0.439076
O O17 0.000000 0.631215 0.452562
O O18 0.668711 0.616870 0.250000
#
# Coordination Sequence:
#
# PCOD9471049 Si02
#       8
#    16  16  16  16  16   8  16  16
#     4  11  22  36  59  89 116 147 192 251 308 346
#     4  11  19  36  59  87 120 160 200 243 295 351
#     4  11  23  39  59  83 118 162 202 242 293 356
#     4  11  22  35  57  91 130 160 192 243 308 365
#     4  12  19  37  60  87 113 151 202 251 288 351
#     4  10  19  34  55  82 114 152 192 244 289 350
#     4  11  20  32  56  92 123 149 191 251 307 351
#     4  10  22  39  60  84 116 160 205 242 289 356
#
# _framework density 18.290437000000001
#
# number of rings (size 3 to 8) (size 9 to 14) (size 15 to 20)
#    0.000    1.067    5.333    2.600    0.000    3.733 
#    0.000    1.333    0.000    3.600    0.000    0.000 
#    0.000    0.000    0.000    0.000    0.000    0.000 
#
# Total GULP energy -334888.280364 kJ/mol
# GULP energy per Si atom -5581.471339 kJ/mol
# Density = 1.824881 g / cm^3
# Si number density = 18.290437 Si / 1000 Ang^3
#
#
#
# Elastic Constant Matrix: (Units=GPa)
#
#
# Indices 1 2 3 4 5 6 
#
# 1 101.1084 29.8045 35.8185 0.0000 0.0000 0.0000
# 2 29.8045 74.1634 24.3739 0.0000 0.0000 0.0000
# 3 35.8185 24.3739 90.7040 0.0000 0.0000 0.0000
# 4 0.0000 0.0000 0.0000 11.5616 0.0000 0.0000
# 5 0.0000 0.0000 0.0000 0.0000 -27.8699 0.0000
# 6 0.0000 0.0000 0.0000 0.0000 0.0000 119.5553
#
#
#
# Elastic Compliance Matrix: (Units=1/GPa)
#
#
# Indices 1 2 3 4 5 6 
#
# 1 0.012355 -0.003687 -0.003888 0.000000 0.000000 0.000000
# 2 -0.003687 0.015890 -0.002814 0.000000 0.000000 0.000000
# 3 -0.003888 -0.002814 0.013316 0.000000 0.000000 0.000000
# 4 0.000000 0.000000 0.000000 0.086493 0.000000 0.000000
# 5 0.000000 0.000000 0.000000 0.000000 -0.035881 0.000000
# 6 0.000000 0.000000 0.000000 0.000000 0.000000 0.008364
#
#
# Mechanical properties :
#
#
# Convention : Reuss Voigt Hill
#
# Bulk Modulus (GPa) = 48.11615 49.55217 48.83416
# Shear Modulus (GPa) = 38.98814 32.38132 35.68473
#
# Velocity S-wave (km/s) = 4.62195 4.21217 4.42181
# Velocity P-wave (km/s) = 7.40588 7.12792 7.26823
#
# Compressibility (1/GPa) = 0.02078304
#
# Stress axis : x y z
#
# Youngs Moduli (GPa) = 80.94130 62.93114 75.09560
#
# Poissons Ratio (x) = 0.23204 0.29197
# Poissons Ratio (y) = 0.29845 0.21132
# Poissons Ratio (z) = 0.31469 0.17709
#
# Static dielectric constant tensor:
#      x y z
#    x 1.601610 0.000000 0.000000 
#    y 0.000000 1.897650 0.000000 
#    z 0.000000 0.000000 1.329010 
# 
# From -- ./inp_files/46171.got.cif
#   From: 2010.05.17/outbox.cif.g08.bks.cpg/sg63_24_cif.got.tgz:46171.got - 2010.06.03 15:47:04.
