data_PCOD9471115
_publ_section_title
;
Structure prediction by ZEFSAII (Michael W. Deem and Ramdas Pophale) SiO2 
 PCOD9471115
Probable space group: C M C M
;
_chemical_formula_sum "Si O2"
_cell_formula_units_Z 112
_cell_length_a 15.644857
_cell_length_b 14.381101
_cell_length_c 25.003556
_cell_angle_alpha 90.000000
_cell_angle_beta 90.000000
_cell_angle_gamma 90.000000
_cell_volume 5625.556782
_symmetry_space_group_name_H-M "C M C M"
_symmetry_group_IT_number 63
_symmetry_cell_setting 'orthorhombic'
loop_
_space_group_symop_operation_xyz
x,y,z
-x,-y,1/2+z
x,-y,-z
-x,y,1/2-z
-x,-y,-z
x,y,1/2-z
-x,y,z
x,-y,1/2+z
1/2+x,1/2+y,z
1/2-x,1/2-y,1/2+z
1/2+x,1/2-y,-z
1/2-x,1/2+y,1/2-z
1/2-x,1/2-y,-z
1/2+x,1/2+y,1/2-z
1/2-x,1/2+y,z
1/2+x,1/2-y,1/2+z
loop_
_atom_site_type_symbol
_atom_site_label
_atom_site_fract_x
_atom_site_fract_y
_atom_site_fract_z
Si Si1 0.898227 0.349566 0.084040
Si Si2 0.165798 0.858554 0.895546
Si Si3 0.192382 0.663587 0.480026
Si Si4 0.098525 0.967791 0.442887
Si Si5 0.200746 0.661745 0.311504
Si Si6 0.397427 0.965923 0.310471
Si Si7 0.599609 0.723276 0.896885
O O1 0.876446 0.239615 0.089008
O O2 0.874383 0.399833 0.139725
O O3 0.000000 0.361184 0.075778
O O4 0.844904 0.385498 0.032582
O O5 0.246111 0.880816 0.935341
O O6 0.206281 0.851288 0.837255
O O7 0.103961 0.944769 0.904059
O O8 0.250000 0.750000 0.500000
O O9 0.113902 0.706594 0.446346
O O10 0.136456 0.875546 0.416870
O O11 0.000000 0.941675 0.453722
O O12 0.134478 0.000000 0.500000
O O13 0.203657 0.688605 0.250000
O O14 0.149681 0.564497 0.316235
O O15 0.152546 0.737395 0.347514
O O16 0.378293 0.929983 0.250000
O O17 0.500000 0.980351 0.313061
O O18 0.500000 0.716106 0.883122
#
# Coordination Sequence:
#
# PCOD9471115 Si02
#       7
#    16  16  16  16  16  16  16
#     4  10  19  34  57  81 109 144 179 222 273 324
#     4  10  21  34  52  81 114 144 179 223 273 331
#     4   9  18  32  50  77 111 143 174 215 267 320
#     4  10  20  35  57  83 113 151 188 222 270 335
#     4  10  22  39  58  79 107 144 184 233 286 330
#     4   9  19  36  57  79 102 137 185 228 272 328
#     4  10  20  35  57  83 110 145 190 232 270 323
#
# _framework density 19.909139
#
# number of rings (size 3 to 8) (size 9 to 14) (size 15 to 20)
#    0.000    2.286    0.000    3.000    0.000    7.143 
#    0.000    4.286    0.000    9.857    0.000    0.000 
#    0.000    0.000    0.000    0.000    0.000    0.000 
#
# Total GULP energy -312401.704215 kJ/mol
# GULP energy per Si atom -5578.601861 kJ/mol
# Density = 1.986383 g / cm^3
# Si number density = 19.909139 Si / 1000 Ang^3
#
#
#
# Elastic Constant Matrix: (Units=GPa)
#
#
# Indices 1 2 3 4 5 6 
#
# 1 35.8148 6.2863 29.7970 0.0000 0.0000 0.0000
# 2 6.2863 52.3990 38.0875 0.0000 0.0000 0.0000
# 3 29.7970 38.0875 150.5978 0.0000 0.0000 0.0000
# 4 0.0000 0.0000 0.0000 35.6497 0.0000 0.0000
# 5 0.0000 0.0000 0.0000 0.0000 23.3666 0.0000
# 6 0.0000 0.0000 0.0000 0.0000 0.0000 0.9727
#
#
#
# Elastic Compliance Matrix: (Units=1/GPa)
#
#
# Indices 1 2 3 4 5 6 
#
# 1 0.033464 0.000978 -0.006868 0.000000 0.000000 0.000000
# 2 0.000978 0.023411 -0.006114 0.000000 0.000000 0.000000
# 3 -0.006868 -0.006114 0.009546 0.000000 0.000000 0.000000
# 4 0.000000 0.000000 0.000000 0.028051 0.000000 0.000000
# 5 0.000000 0.000000 0.000000 0.000000 0.042796 0.000000
# 6 0.000000 0.000000 0.000000 0.000000 0.000000 1.028073
#
#
# Mechanical properties :
#
#
# Convention : Reuss Voigt Hill
#
# Bulk Modulus (GPa) = 23.57875 43.01701 33.29788
# Shear Modulus (GPa) = 4.15459 22.97385 13.56422
#
# Velocity S-wave (km/s) = 1.44613 3.40065 2.61302
# Velocity P-wave (km/s) = 3.82848 6.08874 5.08577
#
# Compressibility (1/GPa) = 0.04241106
#
# Stress axis : x y z
#
# Youngs Moduli (GPa) = 29.88273 42.71409 104.76060
#
# Poissons Ratio (x) = -0.04177 0.71954
# Poissons Ratio (y) = -0.02922 0.64055
# Poissons Ratio (z) = 0.20525 0.26117
#
# Static dielectric constant tensor:
#      x y z
#    x 1.716960 0.000000 0.000000 
#    y 0.000000 1.706950 0.000000 
#    z 0.000000 0.000000 1.708720 
# 
# From -- ./inp_files/62980.got.cif
#   From: 2010.05.17/outbox.cif.g08.bks.cpg/sg63_32_cif.got.tgz:62980.got - 2010.06.03 15:47:04.
