data_PCOD9471486
_publ_section_title
;
Structure prediction by ZEFSAII (Michael W. Deem and Ramdas Pophale) SiO2 
 PCOD9471486
Probable space group: C M C M
;
_chemical_formula_sum "Si O2"
_cell_formula_units_Z 80
_cell_length_a 26.418010
_cell_length_b 9.379165
_cell_length_c 16.212483
_cell_angle_alpha 90.000000
_cell_angle_beta 90.000000
_cell_angle_gamma 90.000000
_cell_volume 4017.110795
_symmetry_space_group_name_H-M "C M C M"
_symmetry_group_IT_number 63
_symmetry_cell_setting 'orthorhombic'
loop_
_space_group_symop_operation_xyz
x,y,z
-x,-y,1/2+z
x,-y,-z
-x,y,1/2-z
-x,-y,-z
x,y,1/2-z
-x,y,z
x,-y,1/2+z
1/2+x,1/2+y,z
1/2-x,1/2-y,1/2+z
1/2+x,1/2-y,-z
1/2-x,1/2+y,1/2-z
1/2-x,1/2-y,-z
1/2+x,1/2+y,1/2-z
1/2-x,1/2+y,z
1/2+x,1/2-y,1/2+z
loop_
_atom_site_type_symbol
_atom_site_label
_atom_site_fract_x
_atom_site_fract_y
_atom_site_fract_z
Si Si1 0.294039 0.876912 0.345643
Si Si2 0.902681 0.088483 0.152357
Si Si3 0.906702 0.413373 0.150407
Si Si4 0.500000 0.569878 0.590384
Si Si5 0.500000 0.111607 0.351750
Si Si6 0.708085 0.565919 0.089247
O O1 0.299224 0.830115 0.250000
O O2 0.348132 0.945957 0.370376
O O3 0.285218 0.735556 0.399767
O O4 0.248279 0.985979 0.353310
O O5 0.894385 0.095320 0.250000
O O6 0.915150 0.249802 0.123082
O O7 0.850309 0.038258 0.112494
O O8 0.949576 0.988580 0.133547
O O9 0.910354 0.413759 0.250000
O O10 0.950146 0.521390 0.123786
O O11 0.500000 0.500000 0.500000
O O12 0.500000 0.739049 0.601252
O O13 0.500000 0.131744 0.250000
O O14 0.717771 0.500000 0.000000
#
# Coordination Sequence:
#
# PCOD9471486 Si02
#       6
#    16  16  16   8   8  16
#     4  10  20  37  59  87 120 161 205 244 292 362
#     4  10  20  39  62  82 109 155 199 237 293 364
#     4   8  17  34  59  84 110 145 195 244 282 334
#     4  12  25  38  54  84 122 152 187 242 296 348
#     4  10  19  36  61  90 115 146 195 248 292 342
#     4  11  22  37  58  87 121 156 197 252 307 351
#
# _framework density 19.914811
#
# number of rings (size 3 to 8) (size 9 to 14) (size 15 to 20)
#    0.000    2.000    0.000    5.700    0.000    3.200 
#    0.000   10.000    0.000    0.000    0.000    0.000 
#    0.000    0.000    0.000    0.000    0.000    0.000 
#
# Total GULP energy -223285.299671 kJ/mol
# GULP energy per Si atom -5582.132492 kJ/mol
# Density = 1.986948 g / cm^3
# Si number density = 19.914811 Si / 1000 Ang^3
#
#
#
# Elastic Constant Matrix: (Units=GPa)
#
#
# Indices 1 2 3 4 5 6 
#
# 1 146.9609 96.3533 6.7670 0.0000 0.0000 0.0000
# 2 96.3533 111.4783 19.5337 0.0000 0.0000 0.0000
# 3 6.7670 19.5337 52.7664 0.0000 0.0000 0.0000
# 4 0.0000 0.0000 0.0000 20.7396 0.0000 0.0000
# 5 0.0000 0.0000 0.0000 0.0000 6.3463 0.0000
# 6 0.0000 0.0000 0.0000 0.0000 0.0000 3.2584
#
#
#
# Elastic Compliance Matrix: (Units=1/GPa)
#
#
# Indices 1 2 3 4 5 6 
#
# 1 0.016232 -0.014613 0.003328 0.000000 0.000000 0.000000
# 2 -0.014613 0.022748 -0.006547 0.000000 0.000000 0.000000
# 3 0.003328 -0.006547 0.020948 0.000000 0.000000 0.000000
# 4 0.000000 0.000000 0.000000 0.048217 0.000000 0.000000
# 5 0.000000 0.000000 0.000000 0.000000 0.157572 0.000000
# 6 0.000000 0.000000 0.000000 0.000000 0.000000 0.306896
#
#
# Mechanical properties :
#
#
# Convention : Reuss Voigt Hill
#
# Bulk Modulus (GPa) = 41.21305 61.83486 51.52396
# Shear Modulus (GPa) = 8.11208 18.63899 13.37553
#
# Velocity S-wave (km/s) = 2.02045 3.06263 2.59441
# Velocity P-wave (km/s) = 5.11689 6.60480 5.90787
#
# Compressibility (1/GPa) = 0.02426416
#
# Stress axis : x y z
#
# Youngs Moduli (GPa) = 61.60645 43.96028 47.73651
#
# Poissons Ratio (x) = 0.64239 -0.15886
# Poissons Ratio (y) = 0.90025 0.31253
# Poissons Ratio (z) = -0.20502 0.28781
#
# Static dielectric constant tensor:
#      x y z
#    x 1.814400 0.000000 0.000000 
#    y 0.000000 1.678760 0.000000 
#    z 0.000000 0.000000 1.747620 
# 
# From -- ./inp_files/48867.got.cif
#   From: 2010.05.17/outbox.cif.g08.bks.cpg/sg63_25_cif.got.tgz:48867.got - 2010.06.03 15:47:04.
