data_PCOD9471608
_publ_section_title
;
Structure prediction by ZEFSAII (Michael W. Deem and Ramdas Pophale) SiO2 
 PCOD9471608
Probable space group: C M C M
;
_chemical_formula_sum "Si O2"
_cell_formula_units_Z 88
_cell_length_a 31.906392
_cell_length_b 18.152543
_cell_length_c 8.487134
_cell_angle_alpha 90.000000
_cell_angle_beta 90.000000
_cell_angle_gamma 90.000000
_cell_volume 4915.596541
_symmetry_space_group_name_H-M "C M C M"
_symmetry_group_IT_number 63
_symmetry_cell_setting 'orthorhombic'
loop_
_space_group_symop_operation_xyz
x,y,z
-x,-y,1/2+z
x,-y,-z
-x,y,1/2-z
-x,-y,-z
x,y,1/2-z
-x,y,z
x,-y,1/2+z
1/2+x,1/2+y,z
1/2-x,1/2-y,1/2+z
1/2+x,1/2-y,-z
1/2-x,1/2+y,1/2-z
1/2-x,1/2-y,-z
1/2+x,1/2+y,1/2-z
1/2-x,1/2+y,z
1/2+x,1/2-y,1/2+z
loop_
_atom_site_type_symbol
_atom_site_label
_atom_site_fract_x
_atom_site_fract_y
_atom_site_fract_z
Si Si1 0.047692 0.083612 0.558906
Si Si2 0.327967 0.078887 0.565326
Si Si3 0.910922 0.638052 0.438135
Si Si4 0.500000 0.917569 0.560211
Si Si5 0.880655 0.195943 0.561486
Si Si6 0.296167 0.765641 0.561701
O O1 0.048410 0.084392 0.750000
O O2 0.086287 0.134945 0.501653
O O3 0.000000 0.107705 0.512388
O O4 0.053019 0.000000 0.500000
O O5 0.320038 0.082180 0.750000
O O6 0.377245 0.089004 0.528697
O O7 0.308097 0.150926 0.485069
O O8 0.313776 0.000000 0.500000
O O9 0.906460 0.623195 0.250000
O O10 0.957593 0.621305 0.491404
O O11 0.900985 0.723760 0.461499
O O12 0.500000 0.916769 0.750000
O O13 0.500000 0.000000 0.500000
O O14 0.877290 0.183077 0.750000
O O15 0.832871 0.209449 0.501891
O O16 0.296546 0.760704 0.750000
O O17 0.250000 0.750000 0.500000
#
# Coordination Sequence:
#
# PCOD9471608 Si02
#       6
#    16  16  16   8  16  16
#     4   9  17  30  50  75 103 137 174 214 260 310
#     4  11  21  35  55  78 104 137 175 216 264 317
#     4   9  18  32  49  72  99 133 175 218 258 306
#     4  10  20  30  44  66  97 132 168 208 253 300
#     4   8  16  31  52  75  99 131 173 216 255 306
#     4  10  20  37  58  81 108 137 175 221 272 325
#
# _framework density 17.902201000000002
#
# number of rings (size 3 to 8) (size 9 to 14) (size 15 to 20)
#    0.000    2.545    0.000    3.818    1.273    2.182 
#    0.000    5.455    0.000    2.182    0.000    0.000 
#    0.000    0.000    0.000    0.000    0.000    0.000 
#
# Total GULP energy -245164.924139 kJ/mol
# GULP energy per Si atom -5571.930094 kJ/mol
# Density = 1.786145 g / cm^3
# Si number density = 17.902201 Si / 1000 Ang^3
#
#
#
# Elastic Constant Matrix: (Units=GPa)
#
#
# Indices 1 2 3 4 5 6 
#
# 1 165.7547 62.3168 21.9559 0.0000 0.0000 0.0000
# 2 62.3168 71.1405 12.0408 0.0000 0.0000 0.0000
# 3 21.9559 12.0408 29.7565 0.0000 0.0000 0.0000
# 4 0.0000 0.0000 0.0000 26.5304 0.0000 0.0000
# 5 0.0000 0.0000 0.0000 0.0000 24.7132 0.0000
# 6 0.0000 0.0000 0.0000 0.0000 0.0000 14.6456
#
#
#
# Elastic Compliance Matrix: (Units=1/GPa)
#
#
# Indices 1 2 3 4 5 6 
#
# 1 0.009392 -0.007573 -0.003866 0.000000 0.000000 0.000000
# 2 -0.007573 0.021196 -0.002989 0.000000 0.000000 0.000000
# 3 -0.003866 -0.002989 0.037668 0.000000 0.000000 0.000000
# 4 0.000000 0.000000 0.000000 0.037693 0.000000 0.000000
# 5 0.000000 0.000000 0.000000 0.000000 0.040464 0.000000
# 6 0.000000 0.000000 0.000000 0.000000 0.000000 0.068280
#
#
# Mechanical properties :
#
#
# Convention : Reuss Voigt Hill
#
# Bulk Modulus (GPa) = 25.38023 51.03097 38.20560
# Shear Modulus (GPa) = 19.47932 24.53373 22.00653
#
# Velocity S-wave (km/s) = 3.30221 3.70595 3.50989
# Velocity P-wave (km/s) = 5.36166 6.84685 6.14926
#
# Compressibility (1/GPa) = 0.03940074
#
# Stress axis : x y z
#
# Youngs Moduli (GPa) = 106.47147 47.17803 26.54771
#
# Poissons Ratio (x) = 0.35728 0.10263
# Poissons Ratio (y) = 0.80631 0.07936
# Poissons Ratio (z) = 0.41159 0.14103
#
# Static dielectric constant tensor:
#      x y z
#    x 1.644620 0.000000 0.000000 
#    y 0.000000 1.591080 0.000000 
#    z 0.000000 0.000000 1.608860 
# 
# From -- ./inp_files/14231.got.cif
#   From: 2010.05.17/outbox.cif.g08.bks.cpg/sg63_8_cif.got.tgz:14231.got - 2010.06.03 15:47:04.
