data_PCOD9471625
_publ_section_title
;
Structure prediction by ZEFSAII (Michael W. Deem and Ramdas Pophale) SiO2 
 PCOD9471625
Probable space group: C M C M
;
_chemical_formula_sum "Si O2"
_cell_formula_units_Z 96
_cell_length_a 24.661239
_cell_length_b 24.343564
_cell_length_c 9.474761
_cell_angle_alpha 90.000000
_cell_angle_beta 90.000000
_cell_angle_gamma 90.000000
_cell_volume 5688.101231
_symmetry_space_group_name_H-M "C M C M"
_symmetry_group_IT_number 63
_symmetry_cell_setting 'orthorhombic'
loop_
_space_group_symop_operation_xyz
x,y,z
-x,-y,1/2+z
x,-y,-z
-x,y,1/2-z
-x,-y,-z
x,y,1/2-z
-x,y,z
x,-y,1/2+z
1/2+x,1/2+y,z
1/2-x,1/2-y,1/2+z
1/2+x,1/2-y,-z
1/2-x,1/2+y,1/2-z
1/2-x,1/2-y,-z
1/2+x,1/2+y,1/2-z
1/2-x,1/2+y,z
1/2+x,1/2-y,1/2+z
loop_
_atom_site_type_symbol
_atom_site_label
_atom_site_fract_x
_atom_site_fract_y
_atom_site_fract_z
Si Si1 0.262653 0.447448 0.411901
Si Si2 0.107800 0.049127 0.595069
Si Si3 0.335033 0.754096 0.585876
Si Si4 0.062377 0.864222 0.596365
Si Si5 0.061525 0.267749 0.412774
Si Si6 0.731769 0.665108 0.415309
O O1 0.241093 0.500000 0.500000
O O2 0.241639 0.443649 0.250000
O O3 0.327409 0.456263 0.398705
O O4 0.257313 0.391188 0.500571
O O5 0.084455 0.045742 0.750000
O O6 0.095019 0.106912 0.525040
O O7 0.086007 0.000000 0.500000
O O8 0.344043 0.738476 0.750000
O O9 0.388912 0.780250 0.516618
O O10 0.313827 0.702123 0.493854
O O11 0.286151 0.797970 0.581726
O O12 0.084578 0.880500 0.750000
O O13 0.061209 0.798733 0.588213
O O14 0.000000 0.882663 0.587762
O O15 0.071703 0.285179 0.250000
O O16 0.000000 0.285332 0.451981
O O17 0.717601 0.655501 0.250000
#
# Coordination Sequence:
#
# PCOD9471625 Si02
#       6
#    16  16  16  16  16  16
#     4  10  20  33  49  69  92 119 153 191 233 282
#     4  10  20  31  43  59  78 104 140 181 224 268
#     4  10  20  32  48  72  99 128 162 199 241 286
#     4   9  18  31  44  58  78 106 141 181 224 267
#     4   9  18  32  49  68  91 121 154 188 231 282
#     4  10  20  33  49  70  98 130 162 198 240 286
#
# _framework density 16.877336
#
# number of rings (size 3 to 8) (size 9 to 14) (size 15 to 20)
#    0.000    2.333    0.000    4.000    0.000    8.333 
#    0.000    1.667    0.000    0.000    0.000    0.000 
#    0.000    0.667    0.000    2.167    0.000    3.167 
#
# Total GULP energy -267580.366857 kJ/mol
# GULP energy per Si atom -5574.590976 kJ/mol
# Density = 1.683892 g / cm^3
# Si number density = 16.877336 Si / 1000 Ang^3
#
#
#
# Elastic Constant Matrix: (Units=GPa)
#
#
# Indices 1 2 3 4 5 6 
#
# 1 68.7281 -1.6431 33.9002 0.0000 0.0000 0.0000
# 2 -1.6431 55.3779 34.6378 0.0000 0.0000 0.0000
# 3 33.9002 34.6378 135.8769 0.0000 0.0000 0.0000
# 4 0.0000 0.0000 0.0000 19.8672 0.0000 0.0000
# 5 0.0000 0.0000 0.0000 0.0000 21.4652 0.0000
# 6 0.0000 0.0000 0.0000 0.0000 0.0000 11.8015
#
#
#
# Elastic Compliance Matrix: (Units=1/GPa)
#
#
# Indices 1 2 3 4 5 6 
#
# 1 0.017242 0.003810 -0.005273 0.000000 0.000000 0.000000
# 2 0.003810 0.022325 -0.006642 0.000000 0.000000 0.000000
# 3 -0.005273 -0.006642 0.010368 0.000000 0.000000 0.000000
# 4 0.000000 0.000000 0.000000 0.050334 0.000000 0.000000
# 5 0.000000 0.000000 0.000000 0.000000 0.046587 0.000000
# 6 0.000000 0.000000 0.000000 0.000000 0.000000 0.084735
#
#
# Mechanical properties :
#
#
# Convention : Reuss Voigt Hill
#
# Bulk Modulus (GPa) = 29.65105 43.75251 36.70178
# Shear Modulus (GPa) = 19.30183 23.49932 21.40058
#
# Velocity S-wave (km/s) = 3.38546 3.73548 3.56477
# Velocity P-wave (km/s) = 5.73485 6.67721 6.22389
#
# Compressibility (1/GPa) = 0.03372562
#
# Stress axis : x y z
#
# Youngs Moduli (GPa) = 57.99777 44.79295 96.44857
#
# Poissons Ratio (x) = -0.17065 0.50856
# Poissons Ratio (y) = -0.22095 0.64057
# Poissons Ratio (z) = 0.30582 0.29750
#
# Static dielectric constant tensor:
#      x y z
#    x 1.593850 0.000000 0.000000 
#    y 0.000000 1.558880 0.000000 
#    z 0.000000 0.000000 1.607360 
# 
# From -- ./inp_files/10402.got.cif
#   From: 2010.05.17/outbox.cif.g08.bks.cpg/sg63_6_cif.got.tgz:10402.got - 2010.06.03 15:47:04.
