data_PCOD9471634
_publ_section_title
;
Structure prediction by ZEFSAII (Michael W. Deem and Ramdas Pophale) SiO2 
 PCOD9471634
Probable space group: C M C M
;
_chemical_formula_sum "Si O2"
_cell_formula_units_Z 92
_cell_length_a 26.861199
_cell_length_b 22.039524
_cell_length_c 7.346370
_cell_angle_alpha 90.000000
_cell_angle_beta 90.000000
_cell_angle_gamma 90.000000
_cell_volume 4349.110105
_symmetry_space_group_name_H-M "C M C M"
_symmetry_group_IT_number 63
_symmetry_cell_setting 'orthorhombic'
loop_
_space_group_symop_operation_xyz
x,y,z
-x,-y,1/2+z
x,-y,-z
-x,y,1/2-z
-x,-y,-z
x,y,1/2-z
-x,y,z
x,-y,1/2+z
1/2+x,1/2+y,z
1/2-x,1/2-y,1/2+z
1/2+x,1/2-y,-z
1/2-x,1/2+y,1/2-z
1/2-x,1/2-y,-z
1/2+x,1/2+y,1/2-z
1/2-x,1/2+y,z
1/2+x,1/2-y,1/2+z
loop_
_atom_site_type_symbol
_atom_site_label
_atom_site_fract_x
_atom_site_fract_y
_atom_site_fract_z
Si Si1 0.444718 0.248478 0.968275
Si Si2 0.420454 0.109169 0.971188
Si Si3 0.398215 0.370298 0.460996
Si Si4 0.702418 0.572021 0.967761
Si Si5 0.688792 0.928179 0.033955
Si Si6 0.500000 0.061338 0.250000
Si Si7 0.000000 0.071658 0.967365
O O1 0.444955 0.251274 0.750000
O O2 0.500000 0.265645 0.035041
O O3 0.435113 0.178717 0.014844
O O4 0.405442 0.298108 0.031675
O O5 0.426120 0.099754 0.750000
O O6 0.363059 0.100229 0.026682
O O7 0.456543 0.067528 0.089584
O O8 0.397382 0.389521 0.250000
O O9 0.346223 0.393694 0.539838
O O10 0.448827 0.399220 0.540483
O O11 0.704150 0.581194 0.750000
O O12 0.757005 0.591297 0.038876
O O13 0.696811 0.500000 0.000000
O O14 0.689806 0.917848 0.250000
O O15 0.685524 0.000000 0.000000
O O16 0.000000 0.082639 0.750000
O O17 0.000000 0.000000 0.000000
#
# Coordination Sequence:
#
# PCOD9471634 Si02
#       7
#    16  16  16  16  16   4   8
#     4  10  20  35  54  75 107 148 187 225 283 339
#     4  10  22  39  59  87 119 150 189 236 280 341
#     4  10  20  32  50  77 109 140 189 234 279 333
#     4   9  18  34  55  80 106 146 187 234 285 336
#     4   9  19  37  61  81 112 147 184 232 283 335
#     4  12  22  34  66  86 114 148 190 218 288 334
#     4  10  20  31  44  70 106 144 174 229 284 327
#
# _framework density 21.153752000000001
#
# number of rings (size 3 to 8) (size 9 to 14) (size 15 to 20)
#    0.000    2.261    1.739    0.783    2.435    1.391 
#    0.000    1.304    0.000    0.000    0.000    0.000 
#    0.000    0.000    0.000    0.000    0.000    0.000 
#
# Total GULP energy -256232.450739 kJ/mol
# GULP energy per Si atom -5570.270668 kJ/mol
# Density = 2.110561 g / cm^3
# Si number density = 21.153752 Si / 1000 Ang^3
#
#
#
# Elastic Constant Matrix: (Units=GPa)
#
#
# Indices 1 2 3 4 5 6 
#
# 1 213.7128 44.4795 33.1071 0.0000 0.0000 0.0000
# 2 44.4795 48.6579 2.6956 0.0000 0.0000 0.0000
# 3 33.1071 2.6956 95.8534 0.0000 0.0000 0.0000
# 4 0.0000 0.0000 0.0000 11.4689 0.0000 0.0000
# 5 0.0000 0.0000 0.0000 0.0000 -38.1397 0.0000
# 6 0.0000 0.0000 0.0000 0.0000 0.0000 17.4175
#
#
#
# Elastic Compliance Matrix: (Units=1/GPa)
#
#
# Indices 1 2 3 4 5 6 
#
# 1 0.006126 -0.005491 -0.001961 0.000000 0.000000 0.000000
# 2 -0.005491 0.025506 0.001179 0.000000 0.000000 0.000000
# 3 -0.001961 0.001179 0.011077 0.000000 0.000000 0.000000
# 4 0.000000 0.000000 0.000000 0.087193 0.000000 0.000000
# 5 0.000000 0.000000 0.000000 0.000000 -0.026219 0.000000
# 6 0.000000 0.000000 0.000000 0.000000 0.000000 0.057414
#
#
# Mechanical properties :
#
#
# Convention : Reuss Voigt Hill
#
# Bulk Modulus (GPa) = 33.15406 57.64316 45.39861
# Shear Modulus (GPa) = 27.21886 16.67879 21.94882
#
# Velocity S-wave (km/s) = 3.59097 2.81099 3.22465
# Velocity P-wave (km/s) = 5.73588 6.15177 5.94747
#
# Compressibility (1/GPa) = 0.03016222
#
# Stress axis : x y z
#
# Youngs Moduli (GPa) = 163.24146 39.20653 90.27799
#
# Poissons Ratio (x) = 0.21529 0.17707
# Poissons Ratio (y) = 0.89639 -0.10647
# Poissons Ratio (z) = 0.32018 -0.04624
#
# Static dielectric constant tensor:
#      x y z
#    x 1.797320 0.000000 0.000000 
#    y 0.000000 1.732310 0.000000 
#    z 0.000000 0.000000 1.800980 
# 
# From -- ./inp_files/10531.got.cif
#   From: 2010.05.17/outbox.cif.g08.bks.cpg/sg63_6_cif.got.tgz:10531.got - 2010.06.03 15:47:04.
