data_PCOD9471006
_publ_section_title
;
Structure prediction by ZEFSAII (Michael W. Deem and Ramdas Pophale) SiO2 
 PCOD9471006
Probable space group: C M C M
;
_chemical_formula_sum "Si O2"
_cell_formula_units_Z 72
_cell_length_a 7.629837
_cell_length_b 32.085148
_cell_length_c 17.682800
_cell_angle_alpha 90.000000
_cell_angle_beta 90.000000
_cell_angle_gamma 90.000000
_cell_volume 4328.828117
_symmetry_space_group_name_H-M "C M C M"
_symmetry_group_IT_number 63
_symmetry_cell_setting 'orthorhombic'
loop_
_space_group_symop_operation_xyz
x,y,z
-x,-y,1/2+z
x,-y,-z
-x,y,1/2-z
-x,-y,-z
x,y,1/2-z
-x,y,z
x,-y,1/2+z
1/2+x,1/2+y,z
1/2-x,1/2-y,1/2+z
1/2+x,1/2-y,-z
1/2-x,1/2+y,1/2-z
1/2-x,1/2-y,-z
1/2+x,1/2+y,1/2-z
1/2-x,1/2+y,z
1/2+x,1/2-y,1/2+z
loop_
_atom_site_type_symbol
_atom_site_label
_atom_site_fract_x
_atom_site_fract_y
_atom_site_fract_z
Si Si1 0.704285 0.314909 0.838669
Si Si2 0.000000 0.249325 0.840603
Si Si3 0.500000 0.340871 0.413979
Si Si4 0.000000 0.069451 0.839646
Si Si5 0.703431 0.869443 0.525038
Si Si6 0.793153 0.458219 0.454314
O O1 0.736546 0.323674 0.750000
O O2 0.500000 0.304339 0.847900
O O3 0.830329 0.276874 0.861733
O O4 0.749709 0.353961 0.891417
O O5 0.000000 0.203697 0.875127
O O6 0.000000 0.245273 0.750000
O O7 0.500000 0.380831 0.358079
O O8 0.330580 0.345809 0.467320
O O9 0.168802 0.050061 0.882587
O O10 0.000000 0.062500 0.750000
O O11 0.500000 0.860347 0.510108
O O12 0.732023 0.918318 0.509128
O O13 0.748210 0.500000 0.500000
O O14 0.000000 0.459957 0.433807
#
# Coordination Sequence:
#
# PCOD9471006 Si02
#       6
#    16   8   8   8  16  16
#     4  10  20  35  52  72 101 136 169 211 262 309
#     4  10  21  36  53  72 100 138 174 210 260 312
#     4  10  21  35  52  76 105 134 175 219 254 304
#     4  10  20  35  56  80 110 142 174 215 265 312
#     4  10  19  34  54  78 102 134 175 210 257 309
#     4   9  19  36  58  80 107 141 176 216 259 310
#
# _framework density 16.632676
#
# number of rings (size 3 to 8) (size 9 to 14) (size 15 to 20)
#    0.000    2.222    2.222    0.667    0.000    2.222 
#    0.000    1.111    0.000    8.000    0.000    0.000 
#    0.000    0.000    0.000    0.000    0.000    0.000 
#
# Total GULP energy -200738.284825 kJ/mol
# GULP energy per Si atom -5576.063467 kJ/mol
# Density = 1.659482 g / cm^3
# Si number density = 16.632676 Si / 1000 Ang^3
#
#
#
# Elastic Constant Matrix: (Units=GPa)
#
#
# Indices 1 2 3 4 5 6 
#
# 1 119.8312 67.4826 68.1590 0.0000 0.0000 0.0000
# 2 67.4826 110.0444 80.3670 0.0000 0.0000 0.0000
# 3 68.1590 80.3670 105.1001 0.0000 0.0000 0.0000
# 4 0.0000 0.0000 0.0000 21.5331 0.0000 0.0000
# 5 0.0000 0.0000 0.0000 0.0000 27.5813 0.0000
# 6 0.0000 0.0000 0.0000 0.0000 0.0000 16.0571
#
#
#
# Elastic Compliance Matrix: (Units=1/GPa)
#
#
# Indices 1 2 3 4 5 6 
#
# 1 0.014130 -0.004468 -0.005747 0.000000 0.000000 0.000000
# 2 -0.004468 0.021993 -0.013920 0.000000 0.000000 0.000000
# 3 -0.005747 -0.013920 0.023886 0.000000 0.000000 0.000000
# 4 0.000000 0.000000 0.000000 0.046440 0.000000 0.000000
# 5 0.000000 0.000000 0.000000 0.000000 0.036257 0.000000
# 6 0.000000 0.000000 0.000000 0.000000 0.000000 0.062278
#
#
# Mechanical properties :
#
#
# Convention : Reuss Voigt Hill
#
# Bulk Modulus (GPa) = 85.18425 85.22145 85.20285
# Shear Modulus (GPa) = 19.44267 20.96542 20.20404
#
# Velocity S-wave (km/s) = 3.42269 3.55420 3.48906
# Velocity P-wave (km/s) = 8.18205 8.25783 8.22003
#
# Compressibility (1/GPa) = 0.01173926
#
# Stress axis : x y z
#
# Youngs Moduli (GPa) = 70.77135 45.46913 41.86533
#
# Poissons Ratio (x) = 0.20314 0.24061
# Poissons Ratio (y) = 0.31618 0.58277
# Poissons Ratio (z) = 0.40674 0.63293
#
# Static dielectric constant tensor:
#      x y z
#    x 1.578970 0.000000 0.000000 
#    y 0.000000 1.538170 0.000000 
#    z 0.000000 0.000000 1.537350 
# 
# From -- ./inp_files/28140.got.cif
#   From: 2010.05.17/outbox.cif.g08.bks.cpg/sg63_15_cif.got.tgz:28140.got - 2010.06.03 15:47:04.
