data_PCOD9471288
_publ_section_title
;
Structure prediction by ZEFSAII (Michael W. Deem and Ramdas Pophale) SiO2 
 PCOD9471288
Probable space group: C M C M
;
_chemical_formula_sum "Si O2"
_cell_formula_units_Z 96
_cell_length_a 21.904814
_cell_length_b 17.774341
_cell_length_c 15.105988
_cell_angle_alpha 90.000000
_cell_angle_beta 90.000000
_cell_angle_gamma 90.000000
_cell_volume 5881.420257
_symmetry_space_group_name_H-M "C M C M"
_symmetry_group_IT_number 63
_symmetry_cell_setting 'orthorhombic'
loop_
_space_group_symop_operation_xyz
x,y,z
-x,-y,1/2+z
x,-y,-z
-x,y,1/2-z
-x,-y,-z
x,y,1/2-z
-x,y,z
x,-y,1/2+z
1/2+x,1/2+y,z
1/2-x,1/2-y,1/2+z
1/2+x,1/2-y,-z
1/2-x,1/2+y,1/2-z
1/2-x,1/2-y,-z
1/2+x,1/2+y,1/2-z
1/2-x,1/2+y,z
1/2+x,1/2-y,1/2+z
loop_
_atom_site_type_symbol
_atom_site_label
_atom_site_fract_x
_atom_site_fract_y
_atom_site_fract_z
Si Si1 0.238081 0.088405 0.985618
Si Si2 0.572918 0.200645 0.407595
Si Si3 0.163845 0.819770 0.351888
Si Si4 0.225749 0.799476 0.852121
Si Si5 0.926070 0.590513 0.250000
Si Si6 0.859245 0.334383 0.088633
Si Si7 0.573829 0.084312 0.750000
O O1 0.185168 0.116315 0.919047
O O2 0.301854 0.114835 0.941692
O O3 0.230147 0.134169 0.077090
O O4 0.237294 0.000000 0.000000
O O5 0.500000 0.201987 0.409209
O O6 0.600629 0.279801 0.375813
O O7 0.593346 0.137289 0.336410
O O8 0.599934 0.181533 0.503027
O O9 0.165205 0.844488 0.250000
O O10 0.214221 0.753047 0.362134
O O11 0.221976 0.823980 0.750000
O O12 0.170029 0.743435 0.875760
O O13 0.907379 0.503742 0.250000
O O14 0.000000 0.590551 0.250000
O O15 0.897822 0.375347 0.164363
O O16 0.500000 0.088724 0.750000
#
# Coordination Sequence:
#
# PCOD9471288 Si02
#       7
#    16  16  16  16   8  16   8
#     4  11  23  36  55  86 115 144 186 239 289 332
#     4  11  20  34  59  84 110 150 192 227 273 332
#     4  10  19  35  58  79 110 144 186 235 279 331
#     4  10  19  37  58  77 107 146 186 234 279 331
#     4   9  22  36  49  80 117 151 188 226 265 319
#     4  11  21  38  56  82 111 151 192 224 272 335
#     4  11  24  38  53  82 125 155 187 230 269 327
#
# _framework density 16.322588
#
# number of rings (size 3 to 8) (size 9 to 14) (size 15 to 20)
#    0.000    1.500    5.000    1.500    3.500    0.667 
#    0.000    2.500    0.000    0.500    0.000    0.000 
#    0.000    0.000    0.000    0.000    0.000    0.000 
#
# Total GULP energy -267993.966204 kJ/mol
# GULP energy per Si atom -5583.207629 kJ/mol
# Density = 1.628544 g / cm^3
# Si number density = 16.322588 Si / 1000 Ang^3
#
#
#
# Elastic Constant Matrix: (Units=GPa)
#
#
# Indices 1 2 3 4 5 6 
#
# 1 66.7453 32.6958 31.6640 0.0000 0.0000 0.0000
# 2 32.6958 99.2993 58.8035 0.0000 0.0000 0.0000
# 3 31.6640 58.8035 133.6591 0.0000 0.0000 0.0000
# 4 0.0000 0.0000 0.0000 18.1873 0.0000 0.0000
# 5 0.0000 0.0000 0.0000 0.0000 28.3722 0.0000
# 6 0.0000 0.0000 0.0000 0.0000 0.0000 19.5517
#
#
#
# Elastic Compliance Matrix: (Units=1/GPa)
#
#
# Indices 1 2 3 4 5 6 
#
# 1 0.018366 -0.004694 -0.002286 0.000000 0.000000 0.000000
# 2 -0.004694 0.014818 -0.005407 0.000000 0.000000 0.000000
# 3 -0.002286 -0.005407 0.010402 0.000000 0.000000 0.000000
# 4 0.000000 0.000000 0.000000 0.054984 0.000000 0.000000
# 5 0.000000 0.000000 0.000000 0.000000 0.035246 0.000000
# 6 0.000000 0.000000 0.000000 0.000000 0.000000 0.051146
#
#
# Mechanical properties :
#
#
# Convention : Reuss Voigt Hill
#
# Bulk Modulus (GPa) = 53.15593 60.67006 56.91299
# Shear Modulus (GPa) = 23.14741 24.99158 24.06949
#
# Velocity S-wave (km/s) = 3.76988 3.91718 3.84423
# Velocity P-wave (km/s) = 7.18233 7.59665 7.39240
#
# Compressibility (1/GPa) = 0.01881258
#
# Stress axis : x y z
#
# Youngs Moduli (GPa) = 54.44845 67.48488 96.13308
#
# Poissons Ratio (x) = 0.31674 0.21976
# Poissons Ratio (y) = 0.25556 0.51983
# Poissons Ratio (z) = 0.12447 0.36491
#
# Static dielectric constant tensor:
#      x y z
#    x 1.546220 0.000000 0.000000 
#    y 0.000000 1.519320 0.000000 
#    z 0.000000 0.000000 1.553030 
# 
# From -- ./inp_files/35441.got.cif
#   From: 2010.05.17/outbox.cif.g08.bks.cpg/sg63_18_cif.got.tgz:35441.got - 2010.06.03 15:47:04.
