data_PCOD9471649
_publ_section_title
;
Structure prediction by ZEFSAII (Michael W. Deem and Ramdas Pophale) SiO2 
 PCOD9471649
Probable space group: C M C M
;
_chemical_formula_sum "Si O2"
_cell_formula_units_Z 116
_cell_length_a 33.173980
_cell_length_b 22.389614
_cell_length_c 8.007870
_cell_angle_alpha 90.000000
_cell_angle_beta 90.000000
_cell_angle_gamma 90.000000
_cell_volume 5947.866319
_symmetry_space_group_name_H-M "C M C M"
_symmetry_group_IT_number 63
_symmetry_cell_setting 'orthorhombic'
loop_
_space_group_symop_operation_xyz
x,y,z
-x,-y,1/2+z
x,-y,-z
-x,y,1/2-z
-x,-y,-z
x,y,1/2-z
-x,y,z
x,-y,1/2+z
1/2+x,1/2+y,z
1/2-x,1/2-y,1/2+z
1/2+x,1/2-y,-z
1/2-x,1/2+y,1/2-z
1/2-x,1/2-y,-z
1/2+x,1/2+y,1/2-z
1/2-x,1/2+y,z
1/2+x,1/2-y,1/2+z
loop_
_atom_site_type_symbol
_atom_site_label
_atom_site_fract_x
_atom_site_fract_y
_atom_site_fract_z
Si Si1 0.074011 0.566429 0.549873
Si Si2 0.400961 0.301524 0.939575
Si Si3 0.042740 0.099950 0.565585
Si Si4 0.189279 0.204739 0.945900
Si Si5 0.000000 0.052411 0.250000
Si Si6 0.833474 0.434606 0.049582
Si Si7 0.455525 0.805212 0.551841
Si Si8 0.774264 0.331179 0.453497
O O1 0.059400 0.500000 0.500000
O O2 0.073471 0.569205 0.750000
O O3 0.120508 0.572028 0.488144
O O4 0.051416 0.624704 0.483964
O O5 0.411629 0.315717 0.750000
O O6 0.421579 0.353356 0.047535
O O7 0.353093 0.301019 0.962922
O O8 0.420724 0.237256 0.979689
O O9 0.044257 0.069754 0.750000
O O10 0.034705 0.059846 0.402073
O O11 0.000000 0.135967 0.567103
O O12 0.181926 0.194665 0.750000
O O13 0.227238 0.164313 0.001692
O O14 0.206527 0.271166 0.973618
O O15 0.835331 0.430375 0.250000
O O16 0.802458 0.385024 0.990463
O O17 0.819368 0.500000 0.000000
O O18 0.455009 0.796465 0.750000
O O19 0.500000 0.788541 0.486130
O O20 0.775217 0.326696 0.250000
#
# Coordination Sequence:
#
# PCOD9471649 Si02
#       8
#    16  16  16  16   4  16  16  16
#     4  10  20  35  53  71  91 117 150 192 242 296
#     4  12  21  32  46  65  89 117 155 192 233 283
#     4   9  16  27  42  60  84 112 145 185 223 266
#     4  10  20  31  48  69  92 126 158 194 241 292
#     4   8  14  28  40  62  80 116 140 180 232 262
#     4   9  18  32  52  75  96 121 154 198 247 295
#     4  11  24  37  50  69  90 116 152 200 249 297
#     4   9  18  34  49  68  97 123 154 193 241 296
#
# _framework density 19.502790999999998
#
# number of rings (size 3 to 8) (size 9 to 14) (size 15 to 20)
#    0.414    1.655    0.690    3.724    0.000    5.793 
#    0.000    0.000    0.000    0.000    0.000    0.000 
#    0.000    0.000    0.000    0.000    0.000    2.759 
#
# Total GULP energy -322873.585251 kJ/mol
# GULP energy per Si atom -5566.785953 kJ/mol
# Density = 1.945840 g / cm^3
# Si number density = 19.502791 Si / 1000 Ang^3
#
#
#
# Elastic Constant Matrix: (Units=GPa)
#
#
# Indices 1 2 3 4 5 6 
#
# 1 76.3081 15.8010 11.4529 0.0000 0.0000 0.0000
# 2 15.8010 44.7701 8.7763 0.0000 0.0000 0.0000
# 3 11.4529 8.7763 77.4453 0.0000 0.0000 0.0000
# 4 0.0000 0.0000 0.0000 25.4665 0.0000 0.0000
# 5 0.0000 0.0000 0.0000 0.0000 15.0910 0.0000
# 6 0.0000 0.0000 0.0000 0.0000 0.0000 24.7828
#
#
#
# Elastic Compliance Matrix: (Units=1/GPa)
#
#
# Indices 1 2 3 4 5 6 
#
# 1 0.014325 -0.004746 -0.001581 0.000000 0.000000 0.000000
# 2 -0.004746 0.024416 -0.002065 0.000000 0.000000 0.000000
# 3 -0.001581 -0.002065 0.013380 0.000000 0.000000 0.000000
# 4 0.000000 0.000000 0.000000 0.039267 0.000000 0.000000
# 5 0.000000 0.000000 0.000000 0.000000 0.066265 0.000000
# 6 0.000000 0.000000 0.000000 0.000000 0.000000 0.040351
#
#
# Mechanical properties :
#
#
# Convention : Reuss Voigt Hill
#
# Bulk Modulus (GPa) = 28.29820 30.06488 29.18154
# Shear Modulus (GPa) = 22.06863 23.90094 22.98478
#
# Velocity S-wave (km/s) = 3.36752 3.50453 3.43671
# Velocity P-wave (km/s) = 5.44624 5.64135 5.54465
#
# Compressibility (1/GPa) = 0.03533793
#
# Stress axis : x y z
#
# Youngs Moduli (GPa) = 69.80934 40.95648 74.73789
#
# Poissons Ratio (x) = 0.19438 0.11813
# Poissons Ratio (y) = 0.33131 0.15434
# Poissons Ratio (z) = 0.11034 0.08458
#
# Static dielectric constant tensor:
#      x y z
#    x 1.691000 0.000000 0.000000 
#    y 0.000000 1.677240 0.000000 
#    z 0.000000 0.000000 1.711070 
# 
# From -- ./inp_files/14768.got.cif
#   From: 2010.05.17/outbox.cif.g08.bks.cpg/sg63_8_cif.got.tgz:14768.got - 2010.06.03 15:47:04.
