data_PCOD9471367
_publ_section_title
;
Structure prediction by ZEFSAII (Michael W. Deem and Ramdas Pophale) SiO2 
 PCOD9471367
Probable space group: C M C M
;
_chemical_formula_sum "Si O2"
_cell_formula_units_Z 68
_cell_length_a 12.726265
_cell_length_b 12.560754
_cell_length_c 21.485704
_cell_angle_alpha 90.000000
_cell_angle_beta 90.000000
_cell_angle_gamma 90.000000
_cell_volume 3434.521669
_symmetry_space_group_name_H-M "C M C M"
_symmetry_group_IT_number 63
_symmetry_cell_setting 'orthorhombic'
loop_
_space_group_symop_operation_xyz
x,y,z
-x,-y,1/2+z
x,-y,-z
-x,y,1/2-z
-x,-y,-z
x,y,1/2-z
-x,y,z
x,-y,1/2+z
1/2+x,1/2+y,z
1/2-x,1/2-y,1/2+z
1/2+x,1/2-y,-z
1/2-x,1/2+y,1/2-z
1/2-x,1/2-y,-z
1/2+x,1/2+y,1/2-z
1/2-x,1/2+y,z
1/2+x,1/2-y,1/2+z
loop_
_atom_site_type_symbol
_atom_site_label
_atom_site_fract_x
_atom_site_fract_y
_atom_site_fract_z
Si Si1 0.882055 0.361719 0.540091
Si Si2 0.660242 0.324621 0.363122
Si Si3 0.164694 0.961152 0.931746
Si Si4 0.500000 0.290697 0.250000
Si Si5 0.384017 0.779177 0.399697
O O1 0.869893 0.253638 0.579803
O O2 0.790153 0.438983 0.562810
O O3 0.866618 0.331519 0.467889
O O4 0.000000 0.403728 0.548925
O O5 0.640277 0.445682 0.383721
O O6 0.591599 0.293809 0.304485
O O7 0.785980 0.309781 0.356827
O O8 0.119194 0.847576 0.912187
O O9 0.129734 0.000000 0.000000
O O10 0.500000 0.809664 0.377214
#
# Coordination Sequence:
#
# PCOD9471367 Si02
#       5
#    16  16  16   4  16
#     4  10  19  35  61  96 127 159 202 249 321 383
#     4  11  22  42  60  87 123 166 218 242 304 376
#     4  11  19  33  59  96 131 156 190 262 317 360
#     4  12  28  44  68  76 118 190 216 246 292 392
#     4  10  21  35  63 101 126 153 197 260 330 372
#
# _framework density 19.798971999999999
#
# number of rings (size 3 to 8) (size 9 to 14) (size 15 to 20)
#    0.000    1.412    5.882    1.412    1.647    1.882 
#    0.000    5.294    0.000    0.000    0.000    0.000 
#    0.000    0.000    0.000    0.000    0.000    0.000 
#
# Total GULP energy -189497.272190 kJ/mol
# GULP energy per Si atom -5573.449182 kJ/mol
# Density = 1.975391 g / cm^3
# Si number density = 19.798972 Si / 1000 Ang^3
#
#
#
# Elastic Constant Matrix: (Units=GPa)
#
#
# Indices 1 2 3 4 5 6 
#
# 1 175.0395 -8.0032 53.7122 0.0000 0.0000 0.0000
# 2 -8.0032 64.8829 6.2138 0.0000 0.0000 0.0000
# 3 53.7122 6.2138 49.7212 0.0000 0.0000 0.0000
# 4 0.0000 0.0000 0.0000 -2.3519 0.0000 0.0000
# 5 0.0000 0.0000 0.0000 0.0000 46.2955 0.0000
# 6 0.0000 0.0000 0.0000 0.0000 0.0000 -2.3532
#
#
#
# Elastic Compliance Matrix: (Units=1/GPa)
#
#
# Indices 1 2 3 4 5 6 
#
# 1 0.008800 0.002020 -0.009759 0.000000 0.000000 0.000000
# 2 0.002020 0.016063 -0.004190 0.000000 0.000000 0.000000
# 3 -0.009759 -0.004190 0.031178 0.000000 0.000000 0.000000
# 4 0.000000 0.000000 0.000000 -0.425196 0.000000 0.000000
# 5 0.000000 0.000000 0.000000 0.000000 0.021600 0.000000
# 6 0.000000 0.000000 0.000000 0.000000 0.000000 -0.424959
#
#
# Mechanical properties :
#
#
# Convention : Reuss Voigt Hill
#
# Bulk Modulus (GPa) = 31.07140 43.72102 37.39621
# Shear Modulus (GPa) = -6.77571 24.16615 8.69522
#
# Velocity S-wave (km/s) = -1.85194 3.49746 2.09792
# Velocity P-wave (km/s) = 3.33985 6.20001 4.97969
#
# Compressibility (1/GPa) = 0.03218394
#
# Stress axis : x y z
#
# Youngs Moduli (GPa) = 113.63803 62.25571 32.07420
#
# Poissons Ratio (x) = -0.12576 0.31300
# Poissons Ratio (y) = -0.22955 0.13438
# Poissons Ratio (z) = 1.10896 0.26082
#
# Static dielectric constant tensor:
#      x y z
#    x 1.782340 0.000000 0.000000 
#    y 0.000000 1.717650 0.000000 
#    z 0.000000 0.000000 1.622690 
# 
# From -- ./inp_files/53845.got.cif
#   From: 2010.05.17/outbox.cif.g08.bks.cpg/sg63_27_cif.got.tgz:53845.got - 2010.06.03 15:47:04.
