data_PCOD9471807
_publ_section_title
;
Structure prediction by ZEFSAII (Michael W. Deem and Ramdas Pophale) SiO2 
 PCOD9471807
Probable space group: C M C M
;
_chemical_formula_sum "Si O2"
_cell_formula_units_Z 96
_cell_length_a 26.546983
_cell_length_b 23.714189
_cell_length_c 8.286466
_cell_angle_alpha 90.000000
_cell_angle_beta 90.000000
_cell_angle_gamma 90.000000
_cell_volume 5216.663233
_symmetry_space_group_name_H-M "C M C M"
_symmetry_group_IT_number 63
_symmetry_cell_setting 'orthorhombic'
loop_
_space_group_symop_operation_xyz
x,y,z
-x,-y,1/2+z
x,-y,-z
-x,y,1/2-z
-x,-y,-z
x,y,1/2-z
-x,y,z
x,-y,1/2+z
1/2+x,1/2+y,z
1/2-x,1/2-y,1/2+z
1/2+x,1/2-y,-z
1/2-x,1/2+y,1/2-z
1/2-x,1/2-y,-z
1/2+x,1/2+y,1/2-z
1/2-x,1/2+y,z
1/2+x,1/2-y,1/2+z
loop_
_atom_site_type_symbol
_atom_site_label
_atom_site_fract_x
_atom_site_fract_y
_atom_site_fract_z
Si Si1 0.745000 0.936315 0.941472
Si Si2 0.557630 0.319185 0.054299
Si Si3 0.654728 0.375779 0.434608
Si Si4 0.195095 0.763264 0.936198
Si Si5 0.058155 0.310294 0.056760
Si Si6 0.344051 0.148554 0.442017
O O1 0.743182 0.935754 0.750000
O O2 0.697068 0.898036 0.995225
O O3 0.799773 0.911635 0.990097
O O4 0.739870 0.000000 0.000000
O O5 0.560991 0.317494 0.250000
O O6 0.500000 0.332602 0.009128
O O7 0.598239 0.365989 0.996428
O O8 0.568192 0.255436 0.992974
O O9 0.650344 0.394457 0.250000
O O10 0.673825 0.311609 0.450120
O O11 0.194725 0.782537 0.750000
O O12 0.250000 0.750000 0.000000
O O13 0.167457 0.704516 0.956716
O O14 0.062439 0.313932 0.250000
O O15 0.000000 0.320834 0.010598
O O16 0.096317 0.354970 0.975579
O O17 0.336444 0.158132 0.250000
#
# Coordination Sequence:
#
# PCOD9471807 Si02
#       6
#    16  16  16  16  16  16
#     4  11  25  42  60  80 107 141 186 236 286 337
#     4   9  18  32  51  78 114 152 186 221 265 324
#     4  11  21  34  56  82 113 149 185 225 275 332
#     4  12  22  32  50  79 114 148 182 223 274 333
#     4  10  20  32  50  80 116 151 185 224 269 322
#     4  11  22  36  55  80 111 148 183 224 277 335
#
# _framework density 18.402569
#
# number of rings (size 3 to 8) (size 9 to 14) (size 15 to 20)
#    0.000    1.333    3.333    3.500    0.000    3.667 
#    0.000    0.000    0.000    1.000    0.000    0.000 
#    0.000    0.000    0.000    0.000    0.000    0.000 
#
# Total GULP energy -267488.932457 kJ/mol
# GULP energy per Si atom -5572.686093 kJ/mol
# Density = 1.836068 g / cm^3
# Si number density = 18.402569 Si / 1000 Ang^3
#
#
#
# Elastic Constant Matrix: (Units=GPa)
#
#
# Indices 1 2 3 4 5 6 
#
# 1 141.3139 36.6082 15.7745 0.0000 0.0000 0.0000
# 2 36.6082 61.3192 5.3396 0.0000 0.0000 0.0000
# 3 15.7745 5.3396 36.4931 0.0000 0.0000 0.0000
# 4 0.0000 0.0000 0.0000 16.0493 0.0000 0.0000
# 5 0.0000 0.0000 0.0000 0.0000 23.2592 0.0000
# 6 0.0000 0.0000 0.0000 0.0000 0.0000 8.0675
#
#
#
# Elastic Compliance Matrix: (Units=1/GPa)
#
#
# Indices 1 2 3 4 5 6 
#
# 1 0.008691 -0.004924 -0.003036 0.000000 0.000000 0.000000
# 2 -0.004924 0.019309 -0.000697 0.000000 0.000000 0.000000
# 3 -0.003036 -0.000697 0.028817 0.000000 0.000000 0.000000
# 4 0.000000 0.000000 0.000000 0.062308 0.000000 0.000000
# 5 0.000000 0.000000 0.000000 0.000000 0.042994 0.000000
# 6 0.000000 0.000000 0.000000 0.000000 0.000000 0.123953
#
#
# Mechanical properties :
#
#
# Convention : Reuss Voigt Hill
#
# Bulk Modulus (GPa) = 25.31510 39.39677 32.35593
# Shear Modulus (GPa) = 15.79513 21.56881 18.68197
#
# Velocity S-wave (km/s) = 2.93287 3.42724 3.18965
# Velocity P-wave (km/s) = 5.02545 6.09230 5.58441
#
# Compressibility (1/GPa) = 0.03950212
#
# Stress axis : x y z
#
# Youngs Moduli (GPa) = 115.06114 51.79042 34.70197
#
# Poissons Ratio (x) = 0.25503 0.10537
# Poissons Ratio (y) = 0.56659 0.02417
# Poissons Ratio (z) = 0.34936 0.03608
#
# Static dielectric constant tensor:
#      x y z
#    x 1.755300 0.000000 0.000000 
#    y 0.000000 1.604070 0.000000 
#    z 0.000000 0.000000 1.632770 
# 
# From -- ./inp_files/12348.got.cif
#   From: 2010.05.17/outbox.cif.g08.bks.cpg/sg63_7_cif.got.tgz:12348.got - 2010.06.03 15:47:04.
