data_PCOD9471244
_publ_section_title
;
Structure prediction by ZEFSAII (Michael W. Deem and Ramdas Pophale) SiO2 
 PCOD9471244
Probable space group: C M C M
;
_chemical_formula_sum "Si O2"
_cell_formula_units_Z 80
_cell_length_a 17.082122
_cell_length_b 28.935853
_cell_length_c 8.685134
_cell_angle_alpha 90.000000
_cell_angle_beta 90.000000
_cell_angle_gamma 90.000000
_cell_volume 4292.938156
_symmetry_space_group_name_H-M "C M C M"
_symmetry_group_IT_number 63
_symmetry_cell_setting 'orthorhombic'
loop_
_space_group_symop_operation_xyz
x,y,z
-x,-y,1/2+z
x,-y,-z
-x,y,1/2-z
-x,-y,-z
x,y,1/2-z
-x,y,z
x,-y,1/2+z
1/2+x,1/2+y,z
1/2-x,1/2-y,1/2+z
1/2+x,1/2-y,-z
1/2-x,1/2+y,1/2-z
1/2-x,1/2-y,-z
1/2+x,1/2+y,1/2-z
1/2-x,1/2+y,z
1/2+x,1/2-y,1/2+z
loop_
_atom_site_type_symbol
_atom_site_label
_atom_site_fract_x
_atom_site_fract_y
_atom_site_fract_z
Si Si1 0.734727 0.641439 0.065793
Si Si2 0.653620 0.218556 0.573745
Si Si3 0.500000 0.844014 0.082762
Si Si4 0.674495 0.951992 0.563216
Si Si5 0.409090 0.313607 0.434239
Si Si6 0.000000 0.435068 0.927690
O O1 0.733745 0.642144 0.250000
O O2 0.779038 0.594347 0.015963
O O3 0.782573 0.686109 0.006410
O O4 0.647100 0.646873 0.001930
O O5 0.677590 0.228761 0.750000
O O6 0.575691 0.187628 0.576876
O O7 0.628816 0.265341 0.489633
O O8 0.500000 0.868890 0.250000
O O9 0.500000 0.879878 0.944868
O O10 0.673489 0.952605 0.750000
O O11 0.584040 0.949279 0.505343
O O12 0.708236 0.000000 0.500000
O O13 0.407356 0.315331 0.250000
O O14 0.500000 0.315996 0.484815
O O15 0.000000 0.449607 0.750000
#
# Coordination Sequence:
#
# PCOD9471244 Si02
#       6
#    16  16   8  16  16   8
#     4  11  23  39  59  84 114 149 188 231 282 333
#     4  11  21  36  57  84 117 153 193 231 273 325
#     4  10  20  31  51  82 115 154 191 227 270 315
#     4  10  22  37  57  83 112 148 185 229 278 329
#     4  11  24  40  59  83 112 148 188 233 284 334
#     4  10  19  35  55  80 116 152 190 227 269 323
#
# _framework density 18.635256999999999
#
# number of rings (size 3 to 8) (size 9 to 14) (size 15 to 20)
#    0.000    1.400    3.000    2.700    0.000    4.400 
#    0.000    0.000    0.000    0.600    0.000    0.000 
#    0.000    0.000    0.000    0.000    0.000    0.000 
#
# Total GULP energy -223319.762676 kJ/mol
# GULP energy per Si atom -5582.994067 kJ/mol
# Density = 1.859284 g / cm^3
# Si number density = 18.635257 Si / 1000 Ang^3
#
#
#
# Elastic Constant Matrix: (Units=GPa)
#
#
# Indices 1 2 3 4 5 6 
#
# 1 135.9062 78.1042 39.1562 0.0000 0.0000 0.0000
# 2 78.1042 95.4929 24.1587 0.0000 0.0000 0.0000
# 3 39.1562 24.1587 46.5057 0.0000 0.0000 0.0000
# 4 0.0000 0.0000 0.0000 29.1078 0.0000 0.0000
# 5 0.0000 0.0000 0.0000 0.0000 28.8971 0.0000
# 6 0.0000 0.0000 0.0000 0.0000 0.0000 10.4074
#
#
#
# Elastic Compliance Matrix: (Units=1/GPa)
#
#
# Indices 1 2 3 4 5 6 
#
# 1 0.015946 -0.011105 -0.007657 0.000000 0.000000 0.000000
# 2 -0.011105 0.019791 -0.000930 0.000000 0.000000 0.000000
# 3 -0.007657 -0.000930 0.028433 0.000000 0.000000 0.000000
# 4 0.000000 0.000000 0.000000 0.034355 0.000000 0.000000
# 5 0.000000 0.000000 0.000000 0.000000 0.034606 0.000000
# 6 0.000000 0.000000 0.000000 0.000000 0.000000 0.096086
#
#
# Mechanical properties :
#
#
# Convention : Reuss Voigt Hill
#
# Bulk Modulus (GPa) = 40.34864 62.30476 51.32670
# Shear Modulus (GPa) = 18.05944 22.78152 20.42048
#
# Velocity S-wave (km/s) = 3.11642 3.50021 3.31388
# Velocity P-wave (km/s) = 5.88627 7.05987 6.49961
#
# Compressibility (1/GPa) = 0.02478399
#
# Stress axis : x y z
#
# Youngs Moduli (GPa) = 62.71031 50.52919 35.17018
#
# Poissons Ratio (x) = 0.56115 0.26931
# Poissons Ratio (y) = 0.69642 0.03272
# Poissons Ratio (z) = 0.48019 0.04701
#
# Static dielectric constant tensor:
#      x y z
#    x 1.660810 0.000000 0.000000 
#    y 0.000000 1.632070 0.000000 
#    z 0.000000 0.000000 1.788630 
# 
# From -- ./inp_files/6470.got.cif
#   From: 2010.05.17/outbox.cif.g08.bks.cpg/sg63_4_cif.got.tgz:6470.got - 2010.06.03 15:47:04.
