data_PCOD9471165
_publ_section_title
;
Structure prediction by ZEFSAII (Michael W. Deem and Ramdas Pophale) SiO2 
 PCOD9471165
Probable space group: C M C M
;
_chemical_formula_sum "Si O2"
_cell_formula_units_Z 96
_cell_length_a 8.965876
_cell_length_b 20.222436
_cell_length_c 28.239273
_cell_angle_alpha 90.000000
_cell_angle_beta 90.000000
_cell_angle_gamma 90.000000
_cell_volume 5120.114932
_symmetry_space_group_name_H-M "C M C M"
_symmetry_group_IT_number 63
_symmetry_cell_setting 'orthorhombic'
loop_
_space_group_symop_operation_xyz
x,y,z
-x,-y,1/2+z
x,-y,-z
-x,y,1/2-z
-x,-y,-z
x,y,1/2-z
-x,y,z
x,-y,1/2+z
1/2+x,1/2+y,z
1/2-x,1/2-y,1/2+z
1/2+x,1/2-y,-z
1/2-x,1/2+y,1/2-z
1/2-x,1/2-y,-z
1/2+x,1/2+y,1/2-z
1/2-x,1/2+y,z
1/2+x,1/2-y,1/2+z
loop_
_atom_site_type_symbol
_atom_site_label
_atom_site_fract_x
_atom_site_fract_y
_atom_site_fract_z
Si Si1 0.822612 0.814620 0.439100
Si Si2 0.675132 0.703498 0.305206
Si Si3 0.678359 0.482734 0.303615
Si Si4 0.821475 0.661262 0.462705
Si Si5 0.176874 0.351132 0.159251
Si Si6 0.322636 0.906553 0.632290
O O1 0.790619 0.735720 0.443480
O O2 0.764088 0.845751 0.488017
O O3 0.739368 0.843890 0.393844
O O4 0.000000 0.822751 0.434209
O O5 0.699869 0.689549 0.250000
O O6 0.500000 0.689832 0.315787
O O7 0.701930 0.780507 0.315740
O O8 0.776604 0.657719 0.337525
O O9 0.720933 0.503480 0.250000
O O10 0.500000 0.482802 0.306367
O O11 0.741016 0.410051 0.313933
O O12 0.743700 0.532200 0.342600
O O13 0.779279 0.609496 0.421885
O O14 0.000000 0.657481 0.470733
O O15 0.000000 0.363799 0.158564
O O16 0.500000 0.915705 0.633602
#
# Coordination Sequence:
#
# PCOD9471165 Si02
#       6
#    16  16  16  16  16  16
#     4  10  19  34  58  88 121 154 193 239 293 351
#     4  10  21  36  56  84 116 149 191 242 291 344
#     4  11  25  43  61  83 117 159 200 244 295 351
#     4   9  19  35  56  86 121 154 192 237 291 350
#     4  11  22  38  61  87 118 155 197 243 295 351
#     4  11  22  38  60  87 118 153 195 242 291 348
#
# _framework density 18.749579000000001
#
# number of rings (size 3 to 8) (size 9 to 14) (size 15 to 20)
#    0.000    1.667    1.667    3.000    0.000    7.000 
#    0.000    0.833    0.000    5.000    0.000    0.000 
#    0.000    0.000    0.000    0.000    0.000    0.000 
#
# Total GULP energy -268232.093511 kJ/mol
# GULP energy per Si atom -5588.168615 kJ/mol
# Density = 1.870690 g / cm^3
# Si number density = 18.749579 Si / 1000 Ang^3
#
#
#
# Elastic Constant Matrix: (Units=GPa)
#
#
# Indices 1 2 3 4 5 6 
#
# 1 30.4554 8.6810 10.9461 0.0000 0.0000 0.0000
# 2 8.6810 24.3121 -8.4520 0.0000 0.0000 0.0000
# 3 10.9461 -8.4520 54.4158 0.0000 0.0000 0.0000
# 4 0.0000 0.0000 0.0000 15.6503 0.0000 0.0000
# 5 0.0000 0.0000 0.0000 0.0000 31.0558 0.0000
# 6 0.0000 0.0000 0.0000 0.0000 0.0000 33.7640
#
#
#
# Elastic Compliance Matrix: (Units=1/GPa)
#
#
# Indices 1 2 3 4 5 6 
#
# 1 0.042431 -0.019152 -0.011510 0.000000 0.000000 0.000000
# 2 -0.019152 0.052124 0.011949 0.000000 0.000000 0.000000
# 3 -0.011510 0.011949 0.022548 0.000000 0.000000 0.000000
# 4 0.000000 0.000000 0.000000 0.063897 0.000000 0.000000
# 5 0.000000 0.000000 0.000000 0.000000 0.032200 0.000000
# 6 0.000000 0.000000 0.000000 0.000000 0.000000 0.029617
#
#
# Mechanical properties :
#
#
# Convention : Reuss Voigt Hill
#
# Bulk Modulus (GPa) = 12.55072 14.61481 13.58277
# Shear Modulus (GPa) = 16.29713 22.62791 19.46252
#
# Velocity S-wave (km/s) = 2.95142 3.47774 3.22533
# Velocity P-wave (km/s) = 4.28052 4.89264 4.59678
#
# Compressibility (1/GPa) = 0.07967669
#
# Stress axis : x y z
#
# Youngs Moduli (GPa) = 23.56784 19.18496 44.34941
#
# Poissons Ratio (x) = 0.36743 0.51046
# Poissons Ratio (y) = 0.45137 -0.52991
# Poissons Ratio (z) = 0.27126 -0.22923
#
# Static dielectric constant tensor:
#      x y z
#    x 1.622480 0.000000 0.000000 
#    y 0.000000 1.638990 0.000000 
#    z 0.000000 0.000000 1.647460 
# 
# From -- ./inp_files/66978.got.cif
#   From: 2010.05.17/outbox.cif.g08.bks.cpg/sg63_34_cif.got.tgz:66978.got - 2010.06.03 15:47:04.
