data_PCOD9471205
_publ_section_title
;
Structure prediction by ZEFSAII (Michael W. Deem and Ramdas Pophale) SiO2 
 PCOD9471205
Probable space group: C M C M
;
_chemical_formula_sum "Si O2"
_cell_formula_units_Z 112
_cell_length_a 13.715815
_cell_length_b 13.466392
_cell_length_c 25.290551
_cell_angle_alpha 90.000000
_cell_angle_beta 90.000000
_cell_angle_gamma 90.000000
_cell_volume 4671.229043
_symmetry_space_group_name_H-M "C M C M"
_symmetry_group_IT_number 63
_symmetry_cell_setting 'orthorhombic'
loop_
_space_group_symop_operation_xyz
x,y,z
-x,-y,1/2+z
x,-y,-z
-x,y,1/2-z
-x,-y,-z
x,y,1/2-z
-x,y,z
x,-y,1/2+z
1/2+x,1/2+y,z
1/2-x,1/2-y,1/2+z
1/2+x,1/2-y,-z
1/2-x,1/2+y,1/2-z
1/2-x,1/2-y,-z
1/2+x,1/2+y,1/2-z
1/2-x,1/2+y,z
1/2+x,1/2-y,1/2+z
loop_
_atom_site_type_symbol
_atom_site_label
_atom_site_fract_x
_atom_site_fract_y
_atom_site_fract_z
Si Si1 0.888652 0.345850 0.422168
Si Si2 0.352625 0.071415 0.079911
Si Si3 0.896422 0.038196 0.861603
Si Si4 0.611517 0.245082 0.808485
Si Si5 0.235900 0.427309 0.691172
Si Si6 0.865301 0.082521 0.459637
Si Si7 0.840131 0.207879 0.944937
O O1 0.894271 0.463854 0.433846
O O2 0.879546 0.325399 0.359012
O O3 0.779342 0.307612 0.441410
O O4 0.000000 0.307981 0.434785
O O5 0.339361 0.075321 0.143222
O O6 0.248202 0.068356 0.051441
O O7 0.382663 0.182553 0.064539
O O8 0.876956 0.130657 0.900511
O O9 0.000000 0.050054 0.834544
O O10 0.808352 0.018248 0.822375
O O11 0.902360 0.942262 0.901382
O O12 0.622424 0.198058 0.750000
O O13 0.500000 0.286172 0.809909
O O14 0.693414 0.330506 0.812216
O O15 0.195548 0.433025 0.750000
O O16 0.876950 0.176054 0.497165
O O17 0.899828 0.000000 0.500000
#
# Coordination Sequence:
#
# PCOD9471205 Si02
#       7
#    16  16  16  16  16  16  16
#     4  11  22  38  59  87 122 159 199 250 301 357
#     4  11  21  38  58  86 117 158 197 246 302 360
#     4  10  21  37  60  90 121 155 201 249 301 362
#     4   9  18  33  56  85 115 152 201 251 296 350
#     4  10  19  34  61  90 119 153 198 250 308 358
#     4   9  18  36  60  82 114 154 197 244 300 344
#     4  11  21  39  60  84 120 161 201 249 299 357
#
# _framework density 23.976559000000002
#
# number of rings (size 3 to 8) (size 9 to 14) (size 15 to 20)
#    0.000    1.857    5.714    0.857    0.000    4.571 
#    0.000    2.143    0.000    3.429    0.000    2.000 
#    0.000    0.000    0.000    0.000    0.000    0.000 
#
# Total GULP energy -312119.613593 kJ/mol
# GULP energy per Si atom -5573.564528 kJ/mol
# Density = 2.392199 g / cm^3
# Si number density = 23.976559 Si / 1000 Ang^3
#
#
#
# Elastic Constant Matrix: (Units=GPa)
#
#
# Indices 1 2 3 4 5 6 
#
# 1 85.7038 15.7285 8.9831 0.0000 0.0000 0.0000
# 2 15.7285 95.8138 20.4766 0.0000 0.0000 0.0000
# 3 8.9831 20.4766 59.5807 0.0000 0.0000 0.0000
# 4 0.0000 0.0000 0.0000 29.0415 0.0000 0.0000
# 5 0.0000 0.0000 0.0000 0.0000 -47.2600 0.0000
# 6 0.0000 0.0000 0.0000 0.0000 0.0000 1.2721
#
#
#
# Elastic Compliance Matrix: (Units=1/GPa)
#
#
# Indices 1 2 3 4 5 6 
#
# 1 0.012114 -0.001725 -0.001234 0.000000 0.000000 0.000000
# 2 -0.001725 0.011510 -0.003696 0.000000 0.000000 0.000000
# 3 -0.001234 -0.003696 0.018240 0.000000 0.000000 0.000000
# 4 0.000000 0.000000 0.000000 0.034433 0.000000 0.000000
# 5 0.000000 0.000000 0.000000 0.000000 -0.021160 0.000000
# 6 0.000000 0.000000 0.000000 0.000000 0.000000 0.786124
#
#
# Mechanical properties :
#
#
# Convention : Reuss Voigt Hill
#
# Bulk Modulus (GPa) = 35.01951 36.83053 35.92502
# Shear Modulus (GPa) = 5.78644 9.67138 7.72891
#
# Velocity S-wave (km/s) = 1.55519 2.01058 1.79737
# Velocity P-wave (km/s) = 4.22638 4.55898 4.39583
#
# Compressibility (1/GPa) = 0.02855551
#
# Stress axis : x y z
#
# Youngs Moduli (GPa) = 82.54939 86.88193 54.82436
#
# Poissons Ratio (x) = 0.14987 0.06763
# Poissons Ratio (y) = 0.14239 0.20261
# Poissons Ratio (z) = 0.10183 0.32108
#
# Static dielectric constant tensor:
#      x y z
#    x 1.957550 0.000000 0.000000 
#    y 0.000000 2.014040 0.000000 
#    z 0.000000 0.000000 1.902310 
# 
# From -- ./inp_files/69396.got.cif
#   From: 2010.05.17/outbox.cif.g08.bks.cpg/sg63_35_cif.got.tgz:69396.got - 2010.06.03 15:47:04.
