data_PCOD9471980
_publ_section_title
;
Structure prediction by ZEFSAII (Michael W. Deem and Ramdas Pophale) SiO2 
 PCOD9471980
Probable space group: C M C M
;
_chemical_formula_sum "Si O2"
_cell_formula_units_Z 80
_cell_length_a 28.127118
_cell_length_b 18.479462
_cell_length_c 8.947076
_cell_angle_alpha 90.000000
_cell_angle_beta 90.000000
_cell_angle_gamma 90.000000
_cell_volume 4650.457555
_symmetry_space_group_name_H-M "C M C M"
_symmetry_group_IT_number 63
_symmetry_cell_setting 'orthorhombic'
loop_
_space_group_symop_operation_xyz
x,y,z
-x,-y,1/2+z
x,-y,-z
-x,y,1/2-z
-x,-y,-z
x,y,1/2-z
-x,y,z
x,-y,1/2+z
1/2+x,1/2+y,z
1/2-x,1/2-y,1/2+z
1/2+x,1/2-y,-z
1/2-x,1/2+y,1/2-z
1/2-x,1/2-y,-z
1/2+x,1/2+y,1/2-z
1/2-x,1/2+y,z
1/2+x,1/2-y,1/2+z
loop_
_atom_site_type_symbol
_atom_site_label
_atom_site_fract_x
_atom_site_fract_y
_atom_site_fract_z
Si Si1 0.413822 0.425624 0.571713
Si Si2 0.149034 0.284030 0.929208
Si Si3 0.210237 0.422819 0.570102
Si Si4 0.053100 0.767055 0.930155
Si Si5 0.312660 0.361056 0.930118
O O1 0.430509 0.500000 0.500000
O O2 0.417092 0.432444 0.750000
O O3 0.440869 0.351979 0.528741
O O4 0.358599 0.409726 0.531584
O O5 0.148619 0.278664 0.750000
O O6 0.173751 0.359311 0.972162
O O7 0.095933 0.275322 0.992795
O O8 0.178855 0.216754 0.995411
O O9 0.198929 0.500000 0.500000
O O10 0.210050 0.428876 0.750000
O O11 0.263265 0.397359 0.524633
O O12 0.058922 0.762994 0.750000
O O13 0.000000 0.742567 0.968755
O O14 0.312672 0.351692 0.750000
#
# Coordination Sequence:
#
# PCOD9471980 Si02
#       5
#    16  16  16  16  16
#     4   9  17  28  44  68  98 129 161 197 234 277
#     4  10  20  33  51  77 103 127 162 207 249 291
#     4  10  21  34  50  75 105 134 165 202 244 291
#     4   9  19  36  54  70  92 127 168 207 251 302
#     4   9  18  33  50  70 100 138 173 199 230 281
#
# _framework density 17.202608000000001
#
# number of rings (size 3 to 8) (size 9 to 14) (size 15 to 20)
#    0.000    2.600    0.000    3.000    0.000    6.400 
#    0.000    0.000    0.000    0.600    0.000    0.000 
#    0.000    0.000    0.000    0.000    0.000    0.000 
#
# Total GULP energy -223157.008592 kJ/mol
# GULP energy per Si atom -5578.925215 kJ/mol
# Density = 1.716345 g / cm^3
# Si number density = 17.202608 Si / 1000 Ang^3
#
#
#
# Elastic Constant Matrix: (Units=GPa)
#
#
# Indices 1 2 3 4 5 6 
#
# 1 61.7141 21.2310 11.4705 0.0000 0.0000 0.0000
# 2 21.2310 75.8603 16.8095 0.0000 0.0000 0.0000
# 3 11.4705 16.8095 9.3232 0.0000 0.0000 0.0000
# 4 0.0000 0.0000 0.0000 31.1496 0.0000 0.0000
# 5 0.0000 0.0000 0.0000 0.0000 20.8007 0.0000
# 6 0.0000 0.0000 0.0000 0.0000 0.0000 3.5035
#
#
#
# Elastic Compliance Matrix: (Units=1/GPa)
#
#
# Indices 1 2 3 4 5 6 
#
# 1 0.021011 -0.000254 -0.025393 0.000000 0.000000 0.000000
# 2 -0.000254 0.021955 -0.039273 0.000000 0.000000 0.000000
# 3 -0.025393 -0.039273 0.209310 0.000000 0.000000 0.000000
# 4 0.000000 0.000000 0.000000 0.032103 0.000000 0.000000
# 5 0.000000 0.000000 0.000000 0.000000 0.048075 0.000000
# 6 0.000000 0.000000 0.000000 0.000000 0.000000 0.285426
#
#
# Mechanical properties :
#
#
# Convention : Reuss Voigt Hill
#
# Bulk Modulus (GPa) = 8.16747 27.32439 17.74593
# Shear Modulus (GPa) = 6.34090 17.58320 11.96205
#
# Velocity S-wave (km/s) = 1.92198 3.20054 2.63983
# Velocity P-wave (km/s) = 3.11183 5.43841 4.43056
#
# Compressibility (1/GPa) = 0.12243698
#
# Stress axis : x y z
#
# Youngs Moduli (GPa) = 47.59501 45.54687 4.77761
#
# Poissons Ratio (x) = 0.01155 0.12132
# Poissons Ratio (y) = 0.01207 0.18763
# Poissons Ratio (z) = 1.20856 1.78877
#
# Static dielectric constant tensor:
#      x y z
#    x 1.593190 0.000000 0.000000 
#    y 0.000000 1.554870 0.000000 
#    z 0.000000 0.000000 1.574800 
# 
# From -- ./inp_files/11968.got.cif
#   From: 2010.05.17/outbox.cif.g08.bks.cpg/sg63_6_cif.got.tgz:11968.got - 2010.06.03 15:47:04.
