data_PCOD9471770
_publ_section_title
;
Structure prediction by ZEFSAII (Michael W. Deem and Ramdas Pophale) SiO2 
 PCOD9471770
Probable space group: C M C M
;
_chemical_formula_sum "Si O2"
_cell_formula_units_Z 112
_cell_length_a 7.476827
_cell_length_b 18.806219
_cell_length_c 37.010032
_cell_angle_alpha 90.000000
_cell_angle_beta 90.000000
_cell_angle_gamma 90.000000
_cell_volume 5204.011910
_symmetry_space_group_name_H-M "C M C M"
_symmetry_group_IT_number 63
_symmetry_cell_setting 'orthorhombic'
loop_
_space_group_symop_operation_xyz
x,y,z
-x,-y,1/2+z
x,-y,-z
-x,y,1/2-z
-x,-y,-z
x,y,1/2-z
-x,y,z
x,-y,1/2+z
1/2+x,1/2+y,z
1/2-x,1/2-y,1/2+z
1/2+x,1/2-y,-z
1/2-x,1/2+y,1/2-z
1/2-x,1/2-y,-z
1/2+x,1/2+y,1/2-z
1/2-x,1/2+y,z
1/2+x,1/2-y,1/2+z
loop_
_atom_site_type_symbol
_atom_site_label
_atom_site_fract_x
_atom_site_fract_y
_atom_site_fract_z
Si Si1 0.218260 0.928404 0.790725
Si Si2 0.286003 0.833839 0.500092
Si Si3 0.784222 0.580920 0.429861
Si Si4 0.780732 0.417597 0.428854
Si Si5 0.784075 0.908112 0.290599
Si Si6 0.290727 0.176049 0.637706
Si Si7 0.787576 0.165537 0.143185
O O1 0.272206 0.908349 0.750000
O O2 0.272985 0.010220 0.797292
O O3 0.000000 0.928547 0.791274
O O4 0.283557 0.876256 0.821912
O O5 0.500000 0.841965 0.500184
O O6 0.250000 0.750000 0.500000
O O7 0.218094 0.873191 0.536052
O O8 0.222305 0.872967 0.463838
O O9 0.721728 0.499375 0.430657
O O10 0.736708 0.618908 0.392525
O O11 0.000000 0.579255 0.431879
O O12 0.718480 0.377556 0.392625
O O13 0.000000 0.419260 0.428733
O O14 0.725613 0.887802 0.250000
O O15 0.723393 0.857855 0.322735
O O16 0.000000 0.907519 0.290672
O O17 0.500000 0.183542 0.628530
O O18 0.212797 0.255348 0.637569
O O19 0.000000 0.173339 0.149513
#
# Coordination Sequence:
#
# PCOD9471770 Si02
#       7
#    16  16  16  16  16  16  16
#     4   8  15  30  51  72  95 128 169 205 240 290
#     4  10  20  35  55  77 102 132 166 205 249 296
#     4  10  20  34  54  76  98 132 173 205 240 293
#     4   9  18  34  53  73 101 135 170 206 244 291
#     4   9  18  33  52  72  96 129 167 206 247 291
#     4  10  20  32  49  74 102 132 164 202 250 297
#     4  10  20  33  51  76 104 132 162 203 253 295
#
# _framework density 21.521856
#
# number of rings (size 3 to 8) (size 9 to 14) (size 15 to 20)
#    0.000    2.571    0.000    3.000    0.000    4.857 
#    0.000    2.857    0.000    3.000    0.000    0.000 
#    0.000    0.000    0.000    0.000    0.000    0.000 
#
# Total GULP energy -312833.315226 kJ/mol
# GULP energy per Si atom -5586.309200 kJ/mol
# Density = 2.147287 g / cm^3
# Si number density = 21.521856 Si / 1000 Ang^3
#
#
#
# Elastic Constant Matrix: (Units=GPa)
#
#
# Indices 1 2 3 4 5 6 
#
# 1 55.0874 -6.3425 -13.8377 0.0000 0.0000 0.0000
# 2 -6.3425 204.3867 125.0103 0.0000 0.0000 0.0000
# 3 -13.8377 125.0103 171.6780 0.0000 0.0000 0.0000
# 4 0.0000 0.0000 0.0000-1548.9887 0.0000 0.0000
# 5 0.0000 0.0000 0.0000 0.0000 23.2728 0.0000
# 6 0.0000 0.0000 0.0000 0.0000 0.0000 -6.8454
#
#
#
# Elastic Compliance Matrix: (Units=1/GPa)
#
#
# Indices 1 2 3 4 5 6 
#
# 1 0.018570 -0.000612 0.001942 0.000000 0.000000 0.000000
# 2 -0.000612 0.008842 -0.006488 0.000000 0.000000 0.000000
# 3 0.001942 -0.006488 0.010705 0.000000 0.000000 0.000000
# 4 0.000000 0.000000 0.000000 -0.000646 0.000000 0.000000
# 5 0.000000 0.000000 0.000000 0.000000 0.042969 0.000000
# 6 0.000000 0.000000 0.000000 0.000000 0.000000 -0.146083
#
#
# Mechanical properties :
#
#
# Convention : Reuss Voigt Hill
#
# Bulk Modulus (GPa) = 35.96658 71.20136 53.58397
# Shear Modulus (GPa) = -108.55217 -284.75745 -196.65481
#
# Velocity S-wave (km/s) = -7.10968 -11.51512 -9.56937
# Velocity P-wave (km/s) = 7.11680 11.98509 9.85625
#
# Compressibility (1/GPa) = 0.02780359
#
# Stress axis : x y z
#
# Youngs Moduli (GPa) = 53.84907 113.10007 93.41058
#
# Poissons Ratio (x) = 0.06918 -0.18142
# Poissons Ratio (y) = 0.03294 0.60601
# Poissons Ratio (z) = -0.10459 0.73374
#
# Static dielectric constant tensor:
#      x y z
#    x 1.556230 0.000000 0.000000 
#    y 0.000000 1.744480 0.000000 
#    z 0.000000 0.000000 1.738830 
# 
# From -- ./inp_files/72841.got.cif
#   From: 2010.05.17/outbox.cif.g08.bks.cpg/sg63_37_cif.got.tgz:72841.got - 2010.06.03 15:47:04.
