data_PCOD9471136
_publ_section_title
;
Structure prediction by ZEFSAII (Michael W. Deem and Ramdas Pophale) SiO2 
 PCOD9471136
Probable space group: C M C M
;
_chemical_formula_sum "Si O2"
_cell_formula_units_Z 112
_cell_length_a 28.177713
_cell_length_b 13.103531
_cell_length_c 14.327069
_cell_angle_alpha 90.000000
_cell_angle_beta 90.000000
_cell_angle_gamma 90.000000
_cell_volume 5289.948382
_symmetry_space_group_name_H-M "C M C M"
_symmetry_group_IT_number 63
_symmetry_cell_setting 'orthorhombic'
loop_
_space_group_symop_operation_xyz
x,y,z
-x,-y,1/2+z
x,-y,-z
-x,y,1/2-z
-x,-y,-z
x,y,1/2-z
-x,y,z
x,-y,1/2+z
1/2+x,1/2+y,z
1/2-x,1/2-y,1/2+z
1/2+x,1/2-y,-z
1/2-x,1/2+y,1/2-z
1/2-x,1/2-y,-z
1/2+x,1/2+y,1/2-z
1/2-x,1/2+y,z
1/2+x,1/2-y,1/2+z
loop_
_atom_site_type_symbol
_atom_site_label
_atom_site_fract_x
_atom_site_fract_y
_atom_site_fract_z
Si Si1 0.944325 0.631159 0.105508
Si Si2 0.113779 0.215161 0.352006
Si Si3 0.054519 0.591913 0.616639
Si Si4 0.787122 0.883407 0.473666
Si Si5 0.218719 0.738025 0.860772
Si Si6 0.554503 0.527929 0.136949
Si Si7 0.381315 0.330454 0.359561
O O1 0.926928 0.520602 0.141728
O O2 0.910665 0.725349 0.129467
O O3 0.000000 0.649065 0.132414
O O4 0.943990 0.612604 0.994393
O O5 0.126767 0.172020 0.250000
O O6 0.079281 0.309753 0.343869
O O7 0.162821 0.264028 0.384283
O O8 0.085979 0.122727 0.400536
O O9 0.000000 0.590099 0.643791
O O10 0.767704 0.829734 0.568694
O O11 0.746987 0.860247 0.396565
O O12 0.835585 0.839304 0.426928
O O13 0.795581 0.000000 0.500000
O O14 0.226279 0.753374 0.750000
O O15 0.551465 0.538845 0.250000
O O16 0.500000 0.529576 0.103576
O O17 0.582469 0.423449 0.119588
O O18 0.366775 0.340026 0.250000
#
# Coordination Sequence:
#
# PCOD9471136 Si02
#       7
#    16  16  16  16  16  16  16
#     4   9  19  35  54  80 120 171 217 262 315 373
#     4  10  19  34  57  85 118 157 206 262 317 376
#     4   9  18  34  54  79 117 165 215 265 315 372
#     4  11  24  44  69  97 128 165 214 266 333 391
#     4  10  23  44  67  95 127 163 211 266 327 394
#     4   9  18  32  54  88 129 173 217 262 313 372
#     4  11  22  37  61  94 133 174 217 266 324 390
#
# _framework density 21.172228
#
# number of rings (size 3 to 8) (size 9 to 14) (size 15 to 20)
#    0.000    2.143    0.000    3.857    0.000    4.571 
#    7.714    1.429    0.000    4.286    0.000    0.000 
#    0.000    0.000    0.000    0.000    0.000    0.000 
#
# Total GULP energy -312161.335185 kJ/mol
# GULP energy per Si atom -5574.309557 kJ/mol
# Density = 2.112404 g / cm^3
# Si number density = 21.172228 Si / 1000 Ang^3
#
#
#
# Elastic Constant Matrix: (Units=GPa)
#
#
# Indices 1 2 3 4 5 6 
#
# 1 92.6411 49.1602 34.8889 0.0000 0.0000 0.0000
# 2 49.1602 135.3868 36.8236 0.0000 0.0000 0.0000
# 3 34.8889 36.8236 125.6632 0.0000 0.0000 0.0000
# 4 0.0000 0.0000 0.0000 13.7124 0.0000 0.0000
# 5 0.0000 0.0000 0.0000 0.0000 9.1589 0.0000
# 6 0.0000 0.0000 0.0000 0.0000 0.0000 28.1600
#
#
#
# Elastic Compliance Matrix: (Units=1/GPa)
#
#
# Indices 1 2 3 4 5 6 
#
# 1 0.014127 -0.004415 -0.002629 0.000000 0.000000 0.000000
# 2 -0.004415 0.009406 -0.001530 0.000000 0.000000 0.000000
# 3 -0.002629 -0.001530 0.009136 0.000000 0.000000 0.000000
# 4 0.000000 0.000000 0.000000 0.072927 0.000000 0.000000
# 5 0.000000 0.000000 0.000000 0.000000 0.109183 0.000000
# 6 0.000000 0.000000 0.000000 0.000000 0.000000 0.035511
#
#
# Mechanical properties :
#
#
# Convention : Reuss Voigt Hill
#
# Bulk Modulus (GPa) = 64.42821 66.15963 65.29392
# Shear Modulus (GPa) = 18.34117 25.72748 22.03433
#
# Velocity S-wave (km/s) = 2.94646 3.48969 3.22952
# Velocity P-wave (km/s) = 6.48630 6.89589 6.69423
#
# Compressibility (1/GPa) = 0.01552115
#
# Stress axis : x y z
#
# Youngs Moduli (GPa) = 70.78684 106.32047 109.45674
#
# Poissons Ratio (x) = 0.46937 0.28771
# Poissons Ratio (y) = 0.31250 0.16752
# Poissons Ratio (z) = 0.18606 0.16272
#
# Static dielectric constant tensor:
#      x y z
#    x 1.764000 0.000000 0.000000 
#    y 0.000000 1.749550 0.000000 
#    z 0.000000 0.000000 1.874010 
# 
# From -- ./inp_files/38491.got.cif
#   From: 2010.05.17/outbox.cif.g08.bks.cpg/sg63_20_cif.got.tgz:38491.got - 2010.06.03 15:47:04.
