data_PCOD9471914
_publ_section_title
;
Structure prediction by ZEFSAII (Michael W. Deem and Ramdas Pophale) SiO2 
 PCOD9471914
Probable space group: C M C M
;
_chemical_formula_sum "Si O2"
_cell_formula_units_Z 96
_cell_length_a 25.764198
_cell_length_b 25.605144
_cell_length_c 8.856049
_cell_angle_alpha 90.000000
_cell_angle_beta 90.000000
_cell_angle_gamma 90.000000
_cell_volume 5842.300100
_symmetry_space_group_name_H-M "C M C M"
_symmetry_group_IT_number 63
_symmetry_cell_setting 'orthorhombic'
loop_
_space_group_symop_operation_xyz
x,y,z
-x,-y,1/2+z
x,-y,-z
-x,y,1/2-z
-x,-y,-z
x,y,1/2-z
-x,y,z
x,-y,1/2+z
1/2+x,1/2+y,z
1/2-x,1/2-y,1/2+z
1/2+x,1/2-y,-z
1/2-x,1/2+y,1/2-z
1/2-x,1/2-y,-z
1/2+x,1/2+y,1/2-z
1/2-x,1/2+y,z
1/2+x,1/2-y,1/2+z
loop_
_atom_site_type_symbol
_atom_site_label
_atom_site_fract_x
_atom_site_fract_y
_atom_site_fract_z
Si Si1 0.246534 0.441872 0.069433
Si Si2 0.938209 0.638021 0.570744
Si Si3 0.437018 0.247608 0.076337
Si Si4 0.061239 0.142569 0.069512
Si Si5 0.137431 0.941947 0.069413
Si Si6 0.358852 0.058119 0.069878
O O1 0.239375 0.444267 0.250000
O O2 0.304139 0.420470 0.038098
O O3 0.248413 0.500000 0.000000
O O4 0.195411 0.418227 0.993308
O O5 0.929723 0.633868 0.750000
O O6 0.921887 0.695337 0.512245
O O7 0.905729 0.594221 0.484708
O O8 0.000000 0.632241 0.542561
O O9 0.419573 0.245674 0.250000
O O10 0.500000 0.247862 0.076322
O O11 0.421448 0.301615 0.997686
O O12 0.066357 0.143179 0.250000
O O13 0.000000 0.135606 0.033460
O O14 0.094987 0.096403 0.999369
O O15 0.131852 0.945687 0.250000
O O16 0.133015 0.000000 0.000000
O O17 0.356783 0.054269 0.250000
O O18 0.364421 0.000000 0.000000
#
# Coordination Sequence:
#
# PCOD9471914 Si02
#       6
#    16  16  16  16  16  16
#     4   9  17  31  50  71  95 125 164 204 242 288
#     4  10  20  34  52  74 101 132 165 202 244 290
#     4   9  17  31  51  73  97 127 165 205 242 286
#     4  10  20  33  50  73 101 133 167 203 244 291
#     4  10  20  33  51  74 100 131 165 204 248 294
#     4  11  21  33  51  74 101 132 165 202 245 292
#
# _framework density 16.431884
#
# number of rings (size 3 to 8) (size 9 to 14) (size 15 to 20)
#    0.000    2.167    0.000    5.000    0.000    6.667 
#    0.000    0.000    0.000    1.000    0.000    0.000 
#    0.000    0.000    0.000    0.000    0.000    0.000 
#
# Total GULP energy -267628.044425 kJ/mol
# GULP energy per Si atom -5575.584259 kJ/mol
# Density = 1.639448 g / cm^3
# Si number density = 16.431884 Si / 1000 Ang^3
#
#
#
# Elastic Constant Matrix: (Units=GPa)
#
#
# Indices 1 2 3 4 5 6 
#
# 1 81.3352 56.3465 65.1001 0.0000 0.0000 0.0000
# 2 56.3465 97.5040 55.3703 0.0000 0.0000 0.0000
# 3 65.1001 55.3703 118.2404 0.0000 0.0000 0.0000
# 4 0.0000 0.0000 0.0000 31.9588 0.0000 0.0000
# 5 0.0000 0.0000 0.0000 0.0000 23.7846 0.0000
# 6 0.0000 0.0000 0.0000 0.0000 0.0000 -5.3663
#
#
#
# Elastic Compliance Matrix: (Units=1/GPa)
#
#
# Indices 1 2 3 4 5 6 
#
# 1 0.027663 -0.009995 -0.010550 0.000000 0.000000 0.000000
# 2 -0.009995 0.017583 -0.002731 0.000000 0.000000 0.000000
# 3 -0.010550 -0.002731 0.015545 0.000000 0.000000 0.000000
# 4 0.000000 0.000000 0.000000 0.031290 0.000000 0.000000
# 5 0.000000 0.000000 0.000000 0.000000 0.042044 0.000000
# 6 0.000000 0.000000 0.000000 0.000000 0.000000 -0.186347
#
#
# Mechanical properties :
#
#
# Convention : Reuss Voigt Hill
#
# Bulk Modulus (GPa) = 70.23021 72.30149 71.26585
# Shear Modulus (GPa) = -5414.52677 18.09293 -2698.21692
#
# Velocity S-wave (km/s) = -57.46554 3.32186 -40.56632
# Velocity P-wave (km/s) = 66.03194 7.66872 46.37568
#
# Compressibility (1/GPa) = 0.01423889
#
# Stress axis : x y z
#
# Youngs Moduli (GPa) = 36.14884 56.87379 64.33046
#
# Poissons Ratio (x) = 0.56846 0.67870
# Poissons Ratio (y) = 0.36131 0.17567
# Poissons Ratio (z) = 0.38138 0.15530
#
# Static dielectric constant tensor:
#      x y z
#    x 1.571510 0.000000 0.000000 
#    y 0.000000 1.532990 0.000000 
#    z 0.000000 0.000000 1.547010 
# 
# From -- ./inp_files/10408.got.cif
#   From: 2010.05.17/outbox.cif.g08.bks.cpg/sg63_6_cif.got.tgz:10408.got - 2010.06.03 15:47:04.
