data_PCOD9471744
_publ_section_title
;
Structure prediction by ZEFSAII (Michael W. Deem and Ramdas Pophale) SiO2 
 PCOD9471744
Probable space group: C M C M
;
_chemical_formula_sum "Si O2"
_cell_formula_units_Z 80
_cell_length_a 26.977116
_cell_length_b 18.809352
_cell_length_c 8.950974
_cell_angle_alpha 90.000000
_cell_angle_beta 90.000000
_cell_angle_gamma 90.000000
_cell_volume 4541.921763
_symmetry_space_group_name_H-M "C M C M"
_symmetry_group_IT_number 63
_symmetry_cell_setting 'orthorhombic'
loop_
_space_group_symop_operation_xyz
x,y,z
-x,-y,1/2+z
x,-y,-z
-x,y,1/2-z
-x,-y,-z
x,y,1/2-z
-x,y,z
x,-y,1/2+z
1/2+x,1/2+y,z
1/2-x,1/2-y,1/2+z
1/2+x,1/2-y,-z
1/2-x,1/2+y,1/2-z
1/2-x,1/2-y,-z
1/2+x,1/2+y,1/2-z
1/2-x,1/2+y,z
1/2+x,1/2-y,1/2+z
loop_
_atom_site_type_symbol
_atom_site_label
_atom_site_fract_x
_atom_site_fract_y
_atom_site_fract_z
Si Si1 0.443545 0.135248 0.929363
Si Si2 0.703158 0.211936 0.573154
Si Si3 0.557876 0.426918 0.427554
Si Si4 0.654791 0.924926 0.571370
Si Si5 0.401725 0.712090 0.075388
O O1 0.435336 0.127089 0.750000
O O2 0.500000 0.114667 0.963755
O O3 0.434951 0.218896 0.963333
O O4 0.401190 0.092915 0.016292
O O5 0.710665 0.199837 0.750000
O O6 0.750000 0.250000 0.500000
O O7 0.688914 0.138325 0.492578
O O8 0.654608 0.261639 0.556969
O O9 0.576721 0.500000 0.500000
O O10 0.560160 0.433156 0.250000
O O11 0.500000 0.419004 0.472570
O O12 0.585884 0.357004 0.481508
O O13 0.656691 0.927123 0.750000
O O14 0.669295 0.000000 0.500000
O O15 0.410405 0.696087 0.250000
#
# Coordination Sequence:
#
# PCOD9471744 Si02
#       5
#    16  16  16  16  16
#     4   9  18  33  53  78 109 145 182 219 262 315
#     4  10  21  39  61  84 108 137 175 218 268 322
#     4  10  20  32  48  72 103 139 177 216 259 308
#     4  11  22  37  57  81 111 145 180 221 267 315
#     4   9  18  33  53  76 104 136 171 214 262 313
#
# _framework density 17.613689999999998
#
# number of rings (size 3 to 8) (size 9 to 14) (size 15 to 20)
#    0.000    2.200    0.000    4.800    0.000    6.800 
#    0.000    1.000    0.000    4.800    0.000    0.000 
#    0.000    0.000    0.000    0.000    0.000    0.000 
#
# Total GULP energy -223318.049860 kJ/mol
# GULP energy per Si atom -5582.951246 kJ/mol
# Density = 1.757360 g / cm^3
# Si number density = 17.613690 Si / 1000 Ang^3
#
#
#
# Elastic Constant Matrix: (Units=GPa)
#
#
# Indices 1 2 3 4 5 6 
#
# 1 77.7680 41.0261 50.8389 0.0000 0.0000 0.0000
# 2 41.0261 124.7539 73.9482 0.0000 0.0000 0.0000
# 3 50.8389 73.9482 103.8690 0.0000 0.0000 0.0000
# 4 0.0000 0.0000 0.0000 35.9959 0.0000 0.0000
# 5 0.0000 0.0000 0.0000 0.0000 29.3474 0.0000
# 6 0.0000 0.0000 0.0000 0.0000 0.0000 6.0825
#
#
#
# Elastic Compliance Matrix: (Units=1/GPa)
#
#
# Indices 1 2 3 4 5 6 
#
# 1 0.019026 -0.001275 -0.008404 0.000000 0.000000 0.000000
# 2 -0.001275 0.013954 -0.009310 0.000000 0.000000 0.000000
# 3 -0.008404 -0.009310 0.020369 0.000000 0.000000 0.000000
# 4 0.000000 0.000000 0.000000 0.027781 0.000000 0.000000
# 5 0.000000 0.000000 0.000000 0.000000 0.034075 0.000000
# 6 0.000000 0.000000 0.000000 0.000000 0.000000 0.164406
#
#
# Mechanical properties :
#
#
# Convention : Reuss Voigt Hill
#
# Bulk Modulus (GPa) = 65.06366 70.89080 67.97723
# Shear Modulus (GPa) = 15.49368 23.65699 19.57534
#
# Velocity S-wave (km/s) = 2.96909 3.66881 3.33734
# Velocity P-wave (km/s) = 6.98380 7.63425 7.31626
#
# Compressibility (1/GPa) = 0.01536956
#
# Stress axis : x y z
#
# Youngs Moduli (GPa) = 52.56098 71.66583 49.09348
#
# Poissons Ratio (x) = 0.09137 0.41260
# Poissons Ratio (y) = 0.06701 0.45707
# Poissons Ratio (z) = 0.44174 0.66722
#
# Static dielectric constant tensor:
#      x y z
#    x 1.590550 0.000000 0.000000 
#    y 0.000000 1.585760 0.000000 
#    z 0.000000 0.000000 1.584520 
# 
# From -- ./inp_files/11996.got.cif
#   From: 2010.05.17/outbox.cif.g08.bks.cpg/sg63_6_cif.got.tgz:11996.got - 2010.06.03 15:47:04.
