data_PCOD9471226
_publ_section_title
;
Structure prediction by ZEFSAII (Michael W. Deem and Ramdas Pophale) SiO2 
 PCOD9471226
Probable space group: C M C M
;
_chemical_formula_sum "Si O2"
_cell_formula_units_Z 96
_cell_length_a 15.759267
_cell_length_b 13.366272
_cell_length_c 22.765503
_cell_angle_alpha 90.000000
_cell_angle_beta 90.000000
_cell_angle_gamma 90.000000
_cell_volume 4795.385863
_symmetry_space_group_name_H-M "C M C M"
_symmetry_group_IT_number 63
_symmetry_cell_setting 'orthorhombic'
loop_
_space_group_symop_operation_xyz
x,y,z
-x,-y,1/2+z
x,-y,-z
-x,y,1/2-z
-x,-y,-z
x,y,1/2-z
-x,y,z
x,-y,1/2+z
1/2+x,1/2+y,z
1/2-x,1/2-y,1/2+z
1/2+x,1/2-y,-z
1/2-x,1/2+y,1/2-z
1/2-x,1/2-y,-z
1/2+x,1/2+y,1/2-z
1/2-x,1/2+y,z
1/2+x,1/2-y,1/2+z
loop_
_atom_site_type_symbol
_atom_site_label
_atom_site_fract_x
_atom_site_fract_y
_atom_site_fract_z
Si Si1 0.908490 0.369153 0.459908
Si Si2 0.907199 0.751438 0.075629
Si Si3 0.331590 0.305974 0.608482
Si Si4 0.222264 0.105439 0.988202
Si Si5 0.684492 0.288353 0.181249
Si Si6 0.600310 0.505810 0.181235
O O1 0.910797 0.336384 0.528105
O O2 0.899985 0.268895 0.420482
O O3 0.813538 0.414603 0.457417
O O4 0.000000 0.418310 0.446252
O O5 0.881065 0.724905 0.141501
O O6 0.000000 0.798947 0.075419
O O7 0.837778 0.828780 0.052091
O O8 0.275826 0.340306 0.551710
O O9 0.275000 0.242608 0.654110
O O10 0.368673 0.403757 0.640041
O O11 0.179897 0.000000 0.000000
O O12 0.681125 0.266159 0.250000
O O13 0.655037 0.404142 0.173517
O O14 0.609618 0.535168 0.250000
O O15 0.500000 0.485613 0.171428
#
# Coordination Sequence:
#
# PCOD9471226 Si02
#       6
#    16  16  16  16  16  16
#     4  10  20  36  58  80 108 149 191 237 294 349
#     4  10  19  35  54  80 113 144 183 232 289 350
#     4  11  20  37  59  85 119 151 195 243 298 359
#     4  11  21  35  57  84 115 151 192 240 296 352
#     4  11  21  35  57  85 119 159 194 234 294 357
#     4  10  22  38  57  87 120 153 201 252 297 352
#
# _framework density 20.019244
#
# number of rings (size 3 to 8) (size 9 to 14) (size 15 to 20)
#    0.000    1.500    3.333    3.500    0.000    2.333 
#    0.000    0.000    0.000    0.000    0.000    0.000 
#    0.000    0.000    0.000    0.000    0.000    0.000 
#
# Total GULP energy -267503.542167 kJ/mol
# GULP energy per Si atom -5572.990462 kJ/mol
# Density = 1.997368 g / cm^3
# Si number density = 20.019244 Si / 1000 Ang^3
#
#
#
# Elastic Constant Matrix: (Units=GPa)
#
#
# Indices 1 2 3 4 5 6 
#
# 1 107.3069 11.4072 26.7172 0.0000 0.0000 0.0000
# 2 11.4072 30.3750 19.8266 0.0000 0.0000 0.0000
# 3 26.7172 19.8266 131.2053 0.0000 0.0000 0.0000
# 4 0.0000 0.0000 0.0000 35.4352 0.0000 0.0000
# 5 0.0000 0.0000 0.0000 0.0000 -4.7444 0.0000
# 6 0.0000 0.0000 0.0000 0.0000 0.0000 24.5388
#
#
#
# Elastic Compliance Matrix: (Units=1/GPa)
#
#
# Indices 1 2 3 4 5 6 
#
# 1 0.010012 -0.002695 -0.001631 0.000000 0.000000 0.000000
# 2 -0.002695 0.037250 -0.005080 0.000000 0.000000 0.000000
# 3 -0.001631 -0.005080 0.008722 0.000000 0.000000 0.000000
# 4 0.000000 0.000000 0.000000 0.028221 0.000000 0.000000
# 5 0.000000 0.000000 0.000000 0.000000 -0.210775 0.000000
# 6 0.000000 0.000000 0.000000 0.000000 0.000000 0.040752
#
#
# Mechanical properties :
#
#
# Convention : Reuss Voigt Hill
#
# Bulk Modulus (GPa) = 26.90340 42.75435 34.82887
# Shear Modulus (GPa) = -91.54721 25.10834 -33.21944
#
# Velocity S-wave (km/s) = -6.76970 3.54532 -4.07796
# Velocity P-wave (km/s) = 6.90197 6.17755 2.17660
#
# Compressibility (1/GPa) = 0.03717003
#
# Stress axis : x y z
#
# Youngs Moduli (GPa) = 99.88267 26.84578 114.65902
#
# Poissons Ratio (x) = 0.07235 0.18706
# Poissons Ratio (y) = 0.26918 0.58248
# Poissons Ratio (z) = 0.16295 0.13638
#
# Static dielectric constant tensor:
#      x y z
#    x 1.773420 0.000000 0.000000 
#    y 0.000000 1.723490 0.000000 
#    z 0.000000 0.000000 1.738990 
# 
# From -- ./inp_files/54217.got.cif
#   From: 2010.05.17/outbox.cif.g08.bks.cpg/sg63_28_cif.got.tgz:54217.got - 2010.06.03 15:47:04.
