data_PCOD9471384
_publ_section_title
;
Structure prediction by ZEFSAII (Michael W. Deem and Ramdas Pophale) SiO2 
 PCOD9471384
Probable space group: C M C M
;
_chemical_formula_sum "Si O2"
_cell_formula_units_Z 56
_cell_length_a 5.481581
_cell_length_b 22.347162
_cell_length_c 19.189277
_cell_angle_alpha 90.000000
_cell_angle_beta 90.000000
_cell_angle_gamma 90.000000
_cell_volume 2350.643806
_symmetry_space_group_name_H-M "C M C M"
_symmetry_group_IT_number 63
_symmetry_cell_setting 'orthorhombic'
loop_
_space_group_symop_operation_xyz
x,y,z
-x,-y,1/2+z
x,-y,-z
-x,y,1/2-z
-x,-y,-z
x,y,1/2-z
-x,y,z
x,-y,1/2+z
1/2+x,1/2+y,z
1/2-x,1/2-y,1/2+z
1/2+x,1/2-y,-z
1/2-x,1/2+y,1/2-z
1/2-x,1/2-y,-z
1/2+x,1/2+y,1/2-z
1/2-x,1/2+y,z
1/2+x,1/2-y,1/2+z
loop_
_atom_site_type_symbol
_atom_site_label
_atom_site_fract_x
_atom_site_fract_y
_atom_site_fract_z
Si Si1 0.000000 0.280107 0.750000
Si Si2 0.000000 0.929936 0.607534
Si Si3 0.000000 0.857023 0.750000
Si Si4 0.000000 0.945182 0.326654
Si Si5 0.500000 0.950515 0.559522
Si Si6 0.000000 0.572910 0.626284
Si Si7 0.000000 0.321154 0.467219
Si Si8 0.000000 0.763712 0.407336
O O1 0.749640 0.318800 0.750000
O O2 0.000000 0.245731 0.675776
O O3 0.000000 0.897284 0.680897
O O4 0.752333 0.915877 0.567677
O O5 0.000000 0.002152 0.616288
O O6 0.249336 0.909719 0.336572
O O7 0.000000 0.972326 0.250000
O O8 0.500000 0.000000 0.500000
O O9 0.500000 0.999990 0.624802
O O10 0.000000 0.608706 0.553391
O O11 0.249096 0.295665 0.432148
O O12 0.000000 0.297352 0.546405
#
# Coordination Sequence:
#
# PCOD9471384 Si02
#       8
#     4   8   4   8   8   8   8   8
#     4  12  26  44  64  99 124 151 216 278 314 366
#     4  10  21  37  58  82 119 169 203 239 299 367
#     4  12  24  40  64  91 124 167 216 246 310 386
#     4  10  19  36  53  81 124 155 188 247 292 335
#     4  10  21  37  57  87 129 162 200 257 300 335
#     4  10  21  34  58  88 115 153 207 237 280 376
#     4  10  21  43  66  89 119 167 205 241 323 392
#     4  10  23  44  67  86 125 161 196 266 325 366
#
# _framework density 23.823259
#
# number of rings (size 3 to 8) (size 9 to 14) (size 15 to 20)
#    0.000    1.714    0.714    3.429    0.000    2.286 
#    7.714    0.000    0.000    0.000    0.000    0.000 
#    0.000    0.000    0.000    0.000    0.000    0.000 
#
# Total GULP energy -156344.740984 kJ/mol
# GULP energy per Si atom -5583.740749 kJ/mol
# Density = 2.376904 g / cm^3
# Si number density = 23.823259 Si / 1000 Ang^3
#
#
#
# Elastic Constant Matrix: (Units=GPa)
#
#
# Indices 1 2 3 4 5 6 
#
# 1 260.8653 25.9170 42.9025 0.0000 0.0000 0.0000
# 2 25.9170 80.9916 -0.8897 0.0000 0.0000 0.0000
# 3 42.9025 -0.8897 108.0262 0.0000 0.0000 0.0000
# 4 0.0000 0.0000 0.0000 30.4612 0.0000 0.0000
# 5 0.0000 0.0000 0.0000 0.0000 44.3380 0.0000
# 6 0.0000 0.0000 0.0000 0.0000 0.0000 15.9468
#
#
#
# Elastic Compliance Matrix: (Units=1/GPa)
#
#
# Indices 1 2 3 4 5 6 
#
# 1 0.004250 -0.001379 -0.001699 0.000000 0.000000 0.000000
# 2 -0.001379 0.012795 0.000653 0.000000 0.000000 0.000000
# 3 -0.001699 0.000653 0.009937 0.000000 0.000000 0.000000
# 4 0.000000 0.000000 0.000000 0.032829 0.000000 0.000000
# 5 0.000000 0.000000 0.000000 0.000000 0.022554 0.000000
# 6 0.000000 0.000000 0.000000 0.000000 0.000000 0.062709
#
#
# Mechanical properties :
#
#
# Convention : Reuss Voigt Hill
#
# Bulk Modulus (GPa) = 45.18229 65.08253 55.13241
# Shear Modulus (GPa) = 31.78624 43.61274 37.69949
#
# Velocity S-wave (km/s) = 3.65670 4.28329 3.98234
# Velocity P-wave (km/s) = 6.06922 7.20002 6.65867
#
# Compressibility (1/GPa) = 0.02213256
#
# Stress axis : x y z
#
# Youngs Moduli (GPa) = 235.30483 78.15384 100.63188
#
# Poissons Ratio (x) = 0.10774 0.17099
# Poissons Ratio (y) = 0.32439 -0.06570
# Poissons Ratio (z) = 0.39982 -0.05103
#
# Static dielectric constant tensor:
#      x y z
#    x 2.739690 0.000000 0.000000 
#    y 0.000000 1.959450 0.000000 
#    z 0.000000 0.000000 1.985450 
# 
# From -- ./inp_files/38994.got.cif
#   From: 2010.05.17/outbox.cif.g08.bks.cpg/sg63_20_cif.got.tgz:38994.got - 2010.06.03 15:47:04.
