data_PCOD9471117
_publ_section_title
;
Structure prediction by ZEFSAII (Michael W. Deem and Ramdas Pophale) SiO2 
 PCOD9471117
Probable space group: C M C M
;
_chemical_formula_sum "Si O2"
_cell_formula_units_Z 100
_cell_length_a 7.495983
_cell_length_b 20.297678
_cell_length_c 30.456179
_cell_angle_alpha 90.000000
_cell_angle_beta 90.000000
_cell_angle_gamma 90.000000
_cell_volume 4633.939590
_symmetry_space_group_name_H-M "C M C M"
_symmetry_group_IT_number 63
_symmetry_cell_setting 'orthorhombic'
loop_
_space_group_symop_operation_xyz
x,y,z
-x,-y,1/2+z
x,-y,-z
-x,y,1/2-z
-x,-y,-z
x,y,1/2-z
-x,y,z
x,-y,1/2+z
1/2+x,1/2+y,z
1/2-x,1/2-y,1/2+z
1/2+x,1/2-y,-z
1/2-x,1/2+y,1/2-z
1/2-x,1/2-y,-z
1/2+x,1/2+y,1/2-z
1/2-x,1/2+y,z
1/2+x,1/2-y,1/2+z
loop_
_atom_site_type_symbol
_atom_site_label
_atom_site_fract_x
_atom_site_fract_y
_atom_site_fract_z
Si Si1 0.294359 0.353373 0.606892
Si Si2 0.782829 0.807724 0.700583
Si Si3 0.785025 0.103395 0.593498
Si Si4 0.210940 0.769139 0.049375
Si Si5 0.000000 0.897676 0.250000
Si Si6 0.704393 0.154321 0.812124
Si Si7 0.717740 0.472645 0.547755
O O1 0.500000 0.373789 0.613328
O O2 0.218964 0.345658 0.656561
O O3 0.292056 0.281782 0.584091
O O4 0.219770 0.404654 0.570603
O O5 0.726293 0.828931 0.750000
O O6 0.736238 0.730296 0.695220
O O7 0.000000 0.810651 0.699940
O O8 0.732782 0.155617 0.556283
O O9 0.711147 0.134052 0.637562
O O10 0.000000 0.102566 0.596349
O O11 0.731330 0.030145 0.581623
O O12 0.000000 0.765538 0.057051
O O13 0.250000 0.750000 0.000000
O O14 0.843083 0.891517 0.212601
O O15 0.500000 0.149514 0.797356
O O16 0.777214 0.500000 0.500000
O O17 0.500000 0.467865 0.543904
#
# Coordination Sequence:
#
# PCOD9471117 Si02
#       7
#    16  16  16  16   4  16  16
#     4  10  19  34  57  81 113 150 195 249 299 363
#     4   9  17  31  53  81 114 147 189 237 299 366
#     4  10  20  36  57  83 120 159 203 250 304 366
#     4  11  22  34  54  82 115 152 194 251 307 362
#     4  12  22  36  60  90 126 156 208 244 302 386
#     4  11  21  35  58  90 123 159 196 254 307 363
#     4   9  18  34  57  82 114 161 208 250 303 367
#
# _framework density 21.579910000000002
#
# number of rings (size 3 to 8) (size 9 to 14) (size 15 to 20)
#    0.000    1.920    3.200    1.680    0.000    3.200 
#    0.000    0.800    1.760    1.920    0.000    0.000 
#    0.000    0.000    0.000    0.000    0.000    0.000 
#
# Total GULP energy -278436.253553 kJ/mol
# GULP energy per Si atom -5568.725071 kJ/mol
# Density = 2.153079 g / cm^3
# Si number density = 21.579910 Si / 1000 Ang^3
#
#
#
# Elastic Constant Matrix: (Units=GPa)
#
#
# Indices 1 2 3 4 5 6 
#
# 1 65.0071 -0.5418 -0.8681 0.0000 0.0000 0.0000
# 2 -0.5418 60.5433 2.3744 0.0000 0.0000 0.0000
# 3 -0.8681 2.3744 116.5027 0.0000 0.0000 0.0000
# 4 0.0000 0.0000 0.0000 -14.1067 0.0000 0.0000
# 5 0.0000 0.0000 0.0000 0.0000 20.8826 0.0000
# 6 0.0000 0.0000 0.0000 0.0000 0.0000 10.4622
#
#
#
# Elastic Compliance Matrix: (Units=1/GPa)
#
#
# Indices 1 2 3 4 5 6 
#
# 1 0.015386 0.000133 0.000112 0.000000 0.000000 0.000000
# 2 0.000133 0.016531 -0.000336 0.000000 0.000000 0.000000
# 3 0.000112 -0.000336 0.008591 0.000000 0.000000 0.000000
# 4 0.000000 0.000000 0.000000 -0.070888 0.000000 0.000000
# 5 0.000000 0.000000 0.000000 0.000000 0.047887 0.000000
# 6 0.000000 0.000000 0.000000 0.000000 0.000000 0.095582
#
#
# Mechanical properties :
#
#
# Convention : Reuss Voigt Hill
#
# Bulk Modulus (GPa) = 24.79742 27.10912 25.95327
# Shear Modulus (GPa) = 39.45928 19.52018 29.48973
#
# Velocity S-wave (km/s) = 4.28076 3.01084 3.70068
# Velocity P-wave (km/s) = 5.99576 4.96753 5.50570
#
# Compressibility (1/GPa) = 0.04032677
#
# Stress axis : x y z
#
# Youngs Moduli (GPa) = 64.99607 60.49065 116.39851
#
# Poissons Ratio (x) = -0.00806 -0.01303
# Poissons Ratio (y) = -0.00866 0.03910
# Poissons Ratio (z) = -0.00727 0.02032
#
# Static dielectric constant tensor:
#      x y z
#    x 1.823450 0.000000 0.000000 
#    y 0.000000 1.761250 0.000000 
#    z 0.000000 0.000000 1.756870 
# 
# From -- ./inp_files/71857.got.cif
#   From: 2010.05.17/outbox.cif.g08.bks.cpg/sg63_36_cif.got.tgz:71857.got - 2010.06.03 15:47:04.
