data_PCOD9471976
_publ_section_title
;
Structure prediction by ZEFSAII (Michael W. Deem and Ramdas Pophale) SiO2 
 PCOD9471976
Probable space group: C M C M
;
_chemical_formula_sum "Si O2"
_cell_formula_units_Z 112
_cell_length_a 12.906825
_cell_length_b 26.748375
_cell_length_c 18.465469
_cell_angle_alpha 90.000000
_cell_angle_beta 90.000000
_cell_angle_gamma 90.000000
_cell_volume 6374.955646
_symmetry_space_group_name_H-M "C M C M"
_symmetry_group_IT_number 63
_symmetry_cell_setting 'orthorhombic'
loop_
_space_group_symop_operation_xyz
x,y,z
-x,-y,1/2+z
x,-y,-z
-x,y,1/2-z
-x,-y,-z
x,y,1/2-z
-x,y,z
x,-y,1/2+z
1/2+x,1/2+y,z
1/2-x,1/2-y,1/2+z
1/2+x,1/2-y,-z
1/2-x,1/2+y,1/2-z
1/2-x,1/2-y,-z
1/2+x,1/2+y,1/2-z
1/2-x,1/2+y,z
1/2+x,1/2-y,1/2+z
loop_
_atom_site_type_symbol
_atom_site_label
_atom_site_fract_x
_atom_site_fract_y
_atom_site_fract_z
Si Si1 0.620598 0.681708 0.417523
Si Si2 0.117045 0.075791 0.162484
Si Si3 0.119781 0.550626 0.540420
Si Si4 0.751049 0.850021 0.447721
Si Si5 0.623555 0.216343 0.665836
Si Si6 0.119238 0.899270 0.329070
Si Si7 0.725621 0.007840 0.831195
O O1 0.500000 0.686993 0.442396
O O2 0.627478 0.629495 0.374546
O O3 0.701137 0.679034 0.483992
O O4 0.641498 0.727319 0.362839
O O5 0.122004 0.079730 0.250000
O O6 0.000000 0.056659 0.145220
O O7 0.210755 0.039706 0.139113
O O8 0.154552 0.500000 0.500000
O O9 0.189368 0.599684 0.528478
O O10 0.134524 0.532259 0.622810
O O11 0.000000 0.560754 0.522736
O O12 0.678013 0.819121 0.393039
O O13 0.845741 0.866844 0.396624
O O14 0.656804 0.209942 0.750000
O O15 0.500000 0.207178 0.664116
O O16 0.135489 0.874465 0.250000
O O17 0.188173 0.948752 0.329191
O O18 0.000000 0.912950 0.334639
O O19 0.691398 0.996102 0.750000
#
# Coordination Sequence:
#
# PCOD9471976 Si02
#       7
#    16  16  16  16  16  16  16
#     4  10  20  33  51  76 103 129 159 201 252 303
#     4   9  16  28  48  73 101 133 166 200 245 301
#     4  10  21  35  49  68  97 132 167 204 246 289
#     4  11  20  33  52  74  98 129 166 203 244 295
#     4  10  21  37  55  75  99 127 163 207 251 294
#     4   9  17  29  45  68  99 130 158 192 235 284
#     4   9  17  29  47  71  97 127 164 203 241 285
#
# _framework density 17.568749
#
# number of rings (size 3 to 8) (size 9 to 14) (size 15 to 20)
#    0.000    2.286    0.000    3.429    0.000    4.286 
#    0.000    0.000    0.000    6.857    0.000    0.000 
#    0.000   12.571    0.000    0.000    0.000    0.000 
#
# Total GULP energy -311915.264021 kJ/mol
# GULP energy per Si atom -5569.915429 kJ/mol
# Density = 1.752876 g / cm^3
# Si number density = 17.568749 Si / 1000 Ang^3
#
#
#
# Elastic Constant Matrix: (Units=GPa)
#
#
# Indices 1 2 3 4 5 6 
#
# 1 33.6877 12.5990 28.8063 0.0000 0.0000 0.0000
# 2 12.5990 40.3788 18.3229 0.0000 0.0000 0.0000
# 3 28.8063 18.3229 60.5432 0.0000 0.0000 0.0000
# 4 0.0000 0.0000 0.0000 27.0612 0.0000 0.0000
# 5 0.0000 0.0000 0.0000 0.0000 18.9803 0.0000
# 6 0.0000 0.0000 0.0000 0.0000 0.0000 10.1550
#
#
#
# Elastic Compliance Matrix: (Units=1/GPa)
#
#
# Indices 1 2 3 4 5 6 
#
# 1 0.051153 -0.005699 -0.022614 0.000000 0.000000 0.000000
# 2 -0.005699 0.029343 -0.006169 0.000000 0.000000 0.000000
# 3 -0.022614 -0.006169 0.029144 0.000000 0.000000 0.000000
# 4 0.000000 0.000000 0.000000 0.036953 0.000000 0.000000
# 5 0.000000 0.000000 0.000000 0.000000 0.052686 0.000000
# 6 0.000000 0.000000 0.000000 0.000000 0.000000 0.098473
#
#
# Mechanical properties :
#
#
# Convention : Reuss Voigt Hill
#
# Bulk Modulus (GPa) = 24.58436 28.22957 26.40696
# Shear Modulus (GPa) = 13.14841 16.23139 14.68990
#
# Velocity S-wave (km/s) = 2.73865 3.04283 2.89474
# Velocity P-wave (km/s) = 4.90142 5.33367 5.12211
#
# Compressibility (1/GPa) = 0.04067626
#
# Stress axis : x y z
#
# Youngs Moduli (GPa) = 19.54926 34.07968 34.31290
#
# Poissons Ratio (x) = 0.19423 0.77594
# Poissons Ratio (y) = 0.11142 0.21167
# Poissons Ratio (z) = 0.44208 0.21023
#
# Static dielectric constant tensor:
#      x y z
#    x 1.591780 0.000000 0.000000 
#    y 0.000000 1.591630 0.000000 
#    z 0.000000 0.000000 1.655040 
# 
# From -- ./inp_files/53157.got.cif
#   From: 2010.05.17/outbox.cif.g08.bks.cpg/sg63_27_cif.got.tgz:53157.got - 2010.06.03 15:47:04.
