data_PCOD9471400
_publ_section_title
;
Structure prediction by ZEFSAII (Michael W. Deem and Ramdas Pophale) SiO2 
 PCOD9471400
Probable space group: C M C M
;
_chemical_formula_sum "Si O2"
_cell_formula_units_Z 68
_cell_length_a 13.793378
_cell_length_b 12.661471
_cell_length_c 17.463439
_cell_angle_alpha 90.000000
_cell_angle_beta 90.000000
_cell_angle_gamma 90.000000
_cell_volume 3049.892796
_symmetry_space_group_name_H-M "C M C M"
_symmetry_group_IT_number 63
_symmetry_cell_setting 'orthorhombic'
loop_
_space_group_symop_operation_xyz
x,y,z
-x,-y,1/2+z
x,-y,-z
-x,y,1/2-z
-x,-y,-z
x,y,1/2-z
-x,y,z
x,-y,1/2+z
1/2+x,1/2+y,z
1/2-x,1/2-y,1/2+z
1/2+x,1/2-y,-z
1/2-x,1/2+y,1/2-z
1/2-x,1/2-y,-z
1/2+x,1/2+y,1/2-z
1/2-x,1/2+y,z
1/2+x,1/2-y,1/2+z
loop_
_atom_site_type_symbol
_atom_site_label
_atom_site_fract_x
_atom_site_fract_y
_atom_site_fract_z
Si Si1 0.000000 0.000000 0.500000
Si Si2 0.895930 0.197047 0.341337
Si Si3 0.660221 0.064215 0.662763
Si Si4 0.328249 0.632114 0.923574
Si Si5 0.201040 0.633147 0.427259
O O1 0.915367 0.937391 0.451270
O O2 0.893567 0.179751 0.250000
O O3 0.891175 0.323716 0.353490
O O4 0.801600 0.147919 0.379570
O O5 0.000000 0.156792 0.373420
O O6 0.638326 0.034730 0.750000
O O7 0.774404 0.093264 0.652557
O O8 0.643414 0.964881 0.607543
O O9 0.353254 0.755569 0.920545
O O10 0.241305 0.622317 0.986829
#
# Coordination Sequence:
#
# PCOD9471400 Si02
#       5
#     4  16  16  16  16
#     4  12  20  40  58  80 112 152 178 244 270 322
#     4   9  19  33  53  83 111 142 187 233 275 332
#     4  10  19  36  59  80 113 151 180 223 285 339
#     4  10  22  35  58  80 114 142 190 226 280 325
#     4  10  19  36  56  81 108 147 184 233 271 334
#
# _framework density 22.295864999999999
#
# number of rings (size 3 to 8) (size 9 to 14) (size 15 to 20)
#    0.000    2.118    2.353    0.706    1.647    0.941 
#    2.118    0.588    0.000    4.235    0.000    0.000 
#    0.000    0.000    0.000    0.000    0.000    0.000 
#
# Total GULP energy -189459.303294 kJ/mol
# GULP energy per Si atom -5572.332450 kJ/mol
# Density = 2.224512 g / cm^3
# Si number density = 22.295865 Si / 1000 Ang^3
#
#
#
# Elastic Constant Matrix: (Units=GPa)
#
#
# Indices 1 2 3 4 5 6 
#
# 1 82.0910 -3.2389 -1.8720 0.0000 0.0000 0.0000
# 2 -3.2389 97.7547 -2.6196 0.0000 0.0000 0.0000
# 3 -1.8720 -2.6196 54.7937 0.0000 0.0000 0.0000
# 4 0.0000 0.0000 0.0000 34.4008 0.0000 0.0000
# 5 0.0000 0.0000 0.0000 0.0000 11.9369 0.0000
# 6 0.0000 0.0000 0.0000 0.0000 0.0000 9.8496
#
#
#
# Elastic Compliance Matrix: (Units=1/GPa)
#
#
# Indices 1 2 3 4 5 6 
#
# 1 0.012208 0.000416 0.000437 0.000000 0.000000 0.000000
# 2 0.000416 0.010257 0.000505 0.000000 0.000000 0.000000
# 3 0.000437 0.000505 0.018289 0.000000 0.000000 0.000000
# 4 0.000000 0.000000 0.000000 0.029069 0.000000 0.000000
# 5 0.000000 0.000000 0.000000 0.000000 0.083774 0.000000
# 6 0.000000 0.000000 0.000000 0.000000 0.000000 0.101527
#
#
# Mechanical properties :
#
#
# Convention : Reuss Voigt Hill
#
# Bulk Modulus (GPa) = 23.00445 24.35316 23.67881
# Shear Modulus (GPa) = 18.73367 27.39544 23.06456
#
# Velocity S-wave (km/s) = 2.90182 3.50912 3.21982
# Velocity P-wave (km/s) = 4.64409 5.23115 4.94634
#
# Compressibility (1/GPa) = 0.04346984
#
# Stress axis : x y z
#
# Youngs Moduli (GPa) = 81.91360 97.49443 54.67667
#
# Poissons Ratio (x) = -0.04058 -0.02389
# Poissons Ratio (y) = -0.03409 -0.02759
# Poissons Ratio (z) = -0.03580 -0.04919
#
# Static dielectric constant tensor:
#      x y z
#    x 1.753940 0.000000 0.000000 
#    y 0.000000 1.847060 0.000000 
#    z 0.000000 0.000000 1.945110 
# 
# From -- ./inp_files/53824.got.cif
#   From: 2010.05.17/outbox.cif.g08.bks.cpg/sg63_27_cif.got.tgz:53824.got - 2010.06.03 15:47:04.
