data_PCOD9471175
_publ_section_title
;
Structure prediction by ZEFSAII (Michael W. Deem and Ramdas Pophale) SiO2 
 PCOD9471175
Probable space group: C M C M
;
_chemical_formula_sum "Si O2"
_cell_formula_units_Z 100
_cell_length_a 32.182942
_cell_length_b 7.550328
_cell_length_c 19.948512
_cell_angle_alpha 90.000000
_cell_angle_beta 90.000000
_cell_angle_gamma 90.000000
_cell_volume 4847.324202
_symmetry_space_group_name_H-M "C M C M"
_symmetry_group_IT_number 63
_symmetry_cell_setting 'orthorhombic'
loop_
_space_group_symop_operation_xyz
x,y,z
-x,-y,1/2+z
x,-y,-z
-x,y,1/2-z
-x,-y,-z
x,y,1/2-z
-x,y,z
x,-y,1/2+z
1/2+x,1/2+y,z
1/2-x,1/2-y,1/2+z
1/2+x,1/2-y,-z
1/2-x,1/2+y,1/2-z
1/2-x,1/2-y,-z
1/2+x,1/2+y,1/2-z
1/2-x,1/2+y,z
1/2+x,1/2-y,1/2+z
loop_
_atom_site_type_symbol
_atom_site_label
_atom_site_fract_x
_atom_site_fract_y
_atom_site_fract_z
Si Si1 0.566270 0.189349 0.362362
Si Si2 0.367530 0.537198 0.828336
Si Si3 0.218092 0.140883 0.672547
Si Si4 0.395216 0.168811 0.626175
Si Si5 0.192234 0.549869 0.671282
Si Si6 0.000000 0.785123 0.250000
Si Si7 0.453602 0.712129 0.490529
O O1 0.607842 0.306966 0.364189
O O2 0.535955 0.275086 0.308653
O O3 0.548179 0.197652 0.436914
O O4 0.577560 0.988894 0.342364
O O5 0.364711 0.584131 0.750000
O O6 0.320045 0.523291 0.854259
O O7 0.392382 0.355496 0.836094
O O8 0.224531 0.082914 0.750000
O O9 0.200985 0.340059 0.671379
O O10 0.264557 0.132298 0.644818
O O11 0.347972 0.098665 0.628233
O O12 0.417152 0.213092 0.555886
O O13 0.184265 0.603804 0.750000
O O14 0.448532 0.500000 0.500000
O O15 0.500000 0.740476 0.460930
#
# Coordination Sequence:
#
# PCOD9471175 Si02
#       7
#    16  16  16  16  16   4  16
#     4  12  25  46  67  99 133 170 221 272 339 390
#     4  11  22  39  63  99 137 173 219 277 335 386
#     4   9  18  34  59  92 139 180 217 275 329 392
#     4  12  25  39  68  97 131 179 223 271 327 403
#     4  10  19  34  58  97 136 173 222 270 330 392
#     4  12  28  44  74 100 138 172 202 290 340 396
#     4  11  25  48  72  94 126 176 233 273 327 403
#
# _framework density 20.629940000000001
#
# number of rings (size 3 to 8) (size 9 to 14) (size 15 to 20)
#    0.000    1.120    4.800    1.920    3.360    3.200 
#    0.000    0.800    0.000    0.960    4.160    0.000 
#    0.000    0.000    0.000    0.000    0.000    0.000 
#
# Total GULP energy -278609.020613 kJ/mol
# GULP energy per Si atom -5572.180412 kJ/mol
# Density = 2.058299 g / cm^3
# Si number density = 20.629940 Si / 1000 Ang^3
#
#
#
# Elastic Constant Matrix: (Units=GPa)
#
#
# Indices 1 2 3 4 5 6 
#
# 1 145.5843 18.0751 46.8928 0.0000 0.0000 0.0000
# 2 18.0751 77.5162 -0.4647 0.0000 0.0000 0.0000
# 3 46.8928 -0.4647 48.6202 0.0000 0.0000 0.0000
# 4 0.0000 0.0000 0.0000 16.6352 0.0000 0.0000
# 5 0.0000 0.0000 0.0000 0.0000 25.5679 0.0000
# 6 0.0000 0.0000 0.0000 0.0000 0.0000 10.3455
#
#
#
# Elastic Compliance Matrix: (Units=1/GPa)
#
#
# Indices 1 2 3 4 5 6 
#
# 1 0.010424 -0.002491 -0.010078 0.000000 0.000000 0.000000
# 2 -0.002491 0.013497 0.002532 0.000000 0.000000 0.000000
# 3 -0.010078 0.002532 0.030311 0.000000 0.000000 0.000000
# 4 0.000000 0.000000 0.000000 0.060113 0.000000 0.000000
# 5 0.000000 0.000000 0.000000 0.000000 0.039112 0.000000
# 6 0.000000 0.000000 0.000000 0.000000 0.000000 0.096660
#
#
# Mechanical properties :
#
#
# Convention : Reuss Voigt Hill
#
# Bulk Modulus (GPa) = 29.27585 44.52522 36.90054
# Shear Modulus (GPa) = 17.75711 24.32422 21.04067
#
# Velocity S-wave (km/s) = 2.93703 3.43749 3.19707
# Velocity P-wave (km/s) = 5.07181 6.11431 5.61730
#
# Compressibility (1/GPa) = 0.03415784
#
# Stress axis : x y z
#
# Youngs Moduli (GPa) = 95.93102 74.09292 32.99094
#
# Poissons Ratio (x) = 0.18457 0.33247
# Poissons Ratio (y) = 0.23897 -0.08352
# Poissons Ratio (z) = 0.96676 -0.18757
#
# Static dielectric constant tensor:
#      x y z
#    x 1.810700 0.000000 0.000000 
#    y 0.000000 1.783910 0.000000 
#    z 0.000000 0.000000 1.701060 
# 
# From -- ./inp_files/58186.got.cif
#   From: 2010.05.17/outbox.cif.g08.bks.cpg/sg63_30_cif.got.tgz:58186.got - 2010.06.03 15:47:04.
