data_PCOD9471755
_publ_section_title
;
Structure prediction by ZEFSAII (Michael W. Deem and Ramdas Pophale) SiO2 
 PCOD9471755
Probable space group: C M C M
;
_chemical_formula_sum "Si O2"
_cell_formula_units_Z 96
_cell_length_a 7.327257
_cell_length_b 20.903940
_cell_length_c 29.314784
_cell_angle_alpha 90.000000
_cell_angle_beta 90.000000
_cell_angle_gamma 90.000000
_cell_volume 4490.102686
_symmetry_space_group_name_H-M "C M C M"
_symmetry_group_IT_number 63
_symmetry_cell_setting 'orthorhombic'
loop_
_space_group_symop_operation_xyz
x,y,z
-x,-y,1/2+z
x,-y,-z
-x,y,1/2-z
-x,-y,-z
x,y,1/2-z
-x,y,z
x,-y,1/2+z
1/2+x,1/2+y,z
1/2-x,1/2-y,1/2+z
1/2+x,1/2-y,-z
1/2-x,1/2+y,1/2-z
1/2-x,1/2-y,-z
1/2+x,1/2+y,1/2-z
1/2-x,1/2+y,z
1/2+x,1/2-y,1/2+z
loop_
_atom_site_type_symbol
_atom_site_label
_atom_site_fract_x
_atom_site_fract_y
_atom_site_fract_z
Si Si1 0.277390 0.425658 0.994208
Si Si2 0.777731 0.992591 0.345570
Si Si3 0.777555 0.875005 0.409762
Si Si4 0.214871 0.244303 0.850240
Si Si5 0.277758 0.286599 0.250000
Si Si6 0.280507 0.619191 0.105079
Si Si7 0.722103 0.435981 0.250000
O O1 0.500000 0.426287 0.993850
O O2 0.216965 0.395889 0.946262
O O3 0.222365 0.500000 0.000000
O O4 0.219259 0.384743 0.038111
O O5 0.725110 0.938126 0.381605
O O6 0.717128 0.971245 0.295677
O O7 0.000000 0.993139 0.344977
O O8 0.716703 0.061784 0.362321
O O9 0.712701 0.812655 0.382419
O O10 0.000000 0.873201 0.410507
O O11 0.285926 0.242945 0.798158
O O12 0.234263 0.312020 0.874799
O O13 0.000000 0.230510 0.845861
O O14 0.500000 0.282648 0.250000
O O15 0.226688 0.361515 0.250000
O O16 0.500000 0.615827 0.103718
O O17 0.500000 0.436332 0.250000
#
# Coordination Sequence:
#
# PCOD9471755 Si02
#       7
#    16  16  16  16   8  16   8
#     4   9  15  26  47  73  97 124 162 205 245 284
#     4   9  15  25  44  71  95 116 154 207 246 271
#     4   9  15  26  47  72  93 120 163 206 235 271
#     4  10  20  33  50  72  99 129 162 200 242 290
#     4   9  16  29  49  71  93 124 163 200 240 286
#     4  10  20  32  48  74 105 131 156 195 249 298
#     4   9  14  23  44  73  95 112 155 216 250 268
#
# _framework density 21.380355999999999
#
# number of rings (size 3 to 8) (size 9 to 14) (size 15 to 20)
#    0.000    2.667    3.333    0.000    0.000    1.333 
#    0.000    1.250    0.000    1.500    0.000    0.000 
#    0.000    0.000    0.000    0.000    0.000    0.000 
#
# Total GULP energy -268073.490680 kJ/mol
# GULP energy per Si atom -5584.864389 kJ/mol
# Density = 2.133169 g / cm^3
# Si number density = 21.380356 Si / 1000 Ang^3
#
#
#
# Elastic Constant Matrix: (Units=GPa)
#
#
# Indices 1 2 3 4 5 6 
#
# 1 80.8789 -5.9705 3.5472 0.0000 0.0000 0.0000
# 2 -5.9705 158.1344 94.1537 0.0000 0.0000 0.0000
# 3 3.5472 94.1537 212.1963 0.0000 0.0000 0.0000
# 4 0.0000 0.0000 0.0000 36.4232 0.0000 0.0000
# 5 0.0000 0.0000 0.0000 0.0000 -5.1676 0.0000
# 6 0.0000 0.0000 0.0000 0.0000 0.0000 -80.3334
#
#
#
# Elastic Compliance Matrix: (Units=1/GPa)
#
#
# Indices 1 2 3 4 5 6 
#
# 1 0.012449 0.000807 -0.000566 0.000000 0.000000 0.000000
# 2 0.000807 0.008647 -0.003850 0.000000 0.000000 0.000000
# 3 -0.000566 -0.003850 0.006430 0.000000 0.000000 0.000000
# 4 0.000000 0.000000 0.000000 0.027455 0.000000 0.000000
# 5 0.000000 0.000000 0.000000 0.000000 -0.193513 0.000000
# 6 0.000000 0.000000 0.000000 0.000000 0.000000 -0.012448
#
#
# Mechanical properties :
#
#
# Convention : Reuss Voigt Hill
#
# Bulk Modulus (GPa) = 49.24355 70.51894 59.88125
# Shear Modulus (GPa) = -36.49813 14.14971 -11.17421
#
# Velocity S-wave (km/s) = -4.13617 2.57536 -2.28861
# Velocity P-wave (km/s) = 0.52113 6.47286 4.59181
#
# Compressibility (1/GPa) = 0.02030723
#
# Stress axis : x y z
#
# Youngs Moduli (GPa) = 80.33044 115.65318 155.51153
#
# Poissons Ratio (x) = -0.09335 0.08806
# Poissons Ratio (y) = -0.06484 0.59873
# Poissons Ratio (z) = 0.04549 0.44527
#
# Static dielectric constant tensor:
#      x y z
#    x 1.859960 0.000000 0.000000 
#    y 0.000000 1.704950 0.000000 
#    z 0.000000 0.000000 1.757050 
# 
# From -- ./inp_files/68388.got.cif
#   From: 2010.05.17/outbox.cif.g08.bks.cpg/sg63_35_cif.got.tgz:68388.got - 2010.06.03 15:47:04.
