data_PCOD9471963
_publ_section_title
;
Structure prediction by ZEFSAII (Michael W. Deem and Ramdas Pophale) SiO2 
 PCOD9471963
Probable space group: C M C M
;
_chemical_formula_sum "Si O2"
_cell_formula_units_Z 80
_cell_length_a 17.652550
_cell_length_b 9.345367
_cell_length_c 22.539964
_cell_angle_alpha 90.000000
_cell_angle_beta 90.000000
_cell_angle_gamma 90.000000
_cell_volume 3718.407904
_symmetry_space_group_name_H-M "C M C M"
_symmetry_group_IT_number 63
_symmetry_cell_setting 'orthorhombic'
loop_
_space_group_symop_operation_xyz
x,y,z
-x,-y,1/2+z
x,-y,-z
-x,y,1/2-z
-x,-y,-z
x,y,1/2-z
-x,y,z
x,-y,1/2+z
1/2+x,1/2+y,z
1/2-x,1/2-y,1/2+z
1/2+x,1/2-y,-z
1/2-x,1/2+y,1/2-z
1/2-x,1/2-y,-z
1/2+x,1/2+y,1/2-z
1/2-x,1/2+y,z
1/2+x,1/2-y,1/2+z
loop_
_atom_site_type_symbol
_atom_site_label
_atom_site_fract_x
_atom_site_fract_y
_atom_site_fract_z
Si Si1 0.356717 0.892959 0.950041
Si Si2 0.230934 0.280642 0.316353
Si Si3 0.201240 0.010035 0.106084
Si Si4 0.086759 0.819615 0.538247
Si Si5 0.583415 0.079394 0.642958
O O1 0.272322 0.946802 0.935409
O O2 0.402184 0.928439 0.890142
O O3 0.365011 0.743441 0.983449
O O4 0.389576 0.000000 0.000000
O O5 0.262053 0.275380 0.250000
O O6 0.208004 0.124472 0.339917
O O7 0.285438 0.355602 0.364852
O O8 0.155171 0.378769 0.317688
O O9 0.126465 0.045821 0.069216
O O10 0.086964 0.699874 0.590812
O O11 0.000000 0.840933 0.520601
O O12 0.500000 0.084427 0.670068
#
# Coordination Sequence:
#
# PCOD9471963 Si02
#       5
#    16  16  16  16  16
#     4   9  16  28  49  74 102 133 159 191 240 296
#     4  10  20  34  52  71  94 128 166 207 249 283
#     4  10  20  33  51  74  99 127 165 206 241 290
#     4   9  16  27  46  72 100 128 157 192 237 289
#     4   8  15  27  45  73 101 122 153 197 243 289
#
# _framework density 21.514582999999998
#
# number of rings (size 3 to 8) (size 9 to 14) (size 15 to 20)
#    0.000    2.800    0.000    3.000    0.000    2.800 
#    0.000    0.000    0.000   12.000    0.000    0.000 
#    0.000    0.000    0.000    0.000    0.000    0.000 
#
# Total GULP energy -223150.715978 kJ/mol
# GULP energy per Si atom -5578.767899 kJ/mol
# Density = 2.146561 g / cm^3
# Si number density = 21.514583 Si / 1000 Ang^3
#
#
#
# Elastic Constant Matrix: (Units=GPa)
#
#
# Indices 1 2 3 4 5 6 
#
# 1 41.7267 -25.6138 -3.5094 0.0000 0.0000 0.0000
# 2 -25.6138 55.2496 10.7355 0.0000 0.0000 0.0000
# 3 -3.5094 10.7355 73.8372 0.0000 0.0000 0.0000
# 4 0.0000 0.0000 0.0000 17.7930 0.0000 0.0000
# 5 0.0000 0.0000 0.0000 0.0000 7.0161 0.0000
# 6 0.0000 0.0000 0.0000 0.0000 0.0000 19.7312
#
#
#
# Elastic Compliance Matrix: (Units=1/GPa)
#
#
# Indices 1 2 3 4 5 6 
#
# 1 0.033532 0.015679 -0.000686 0.000000 0.000000 0.000000
# 2 0.015679 0.025957 -0.003029 0.000000 0.000000 0.000000
# 3 -0.000686 -0.003029 0.013951 0.000000 0.000000 0.000000
# 4 0.000000 0.000000 0.000000 0.056202 0.000000 0.000000
# 5 0.000000 0.000000 0.000000 0.000000 0.142530 0.000000
# 6 0.000000 0.000000 0.000000 0.000000 0.000000 0.050681
#
#
# Mechanical properties :
#
#
# Convention : Reuss Voigt Hill
#
# Bulk Modulus (GPa) = 10.27023 14.89312 12.58168
# Shear Modulus (GPa) = 15.08835 21.52145 18.30490
#
# Velocity S-wave (km/s) = 2.65109 3.16621 2.92004
# Velocity P-wave (km/s) = 3.76232 4.50599 4.15084
#
# Compressibility (1/GPa) = 0.09736877
#
# Stress axis : x y z
#
# Youngs Moduli (GPa) = 29.82202 38.52527 71.67903
#
# Poissons Ratio (x) = -0.60403 0.04916
# Poissons Ratio (y) = -0.46758 0.21710
# Poissons Ratio (z) = 0.02045 0.11669
#
# Static dielectric constant tensor:
#      x y z
#    x 1.776810 0.000000 0.000000 
#    y 0.000000 1.841250 0.000000 
#    z 0.000000 0.000000 1.788050 
# 
# From -- ./inp_files/69736.got.cif
#   From: 2010.05.17/outbox.cif.g08.bks.cpg/sg63_35_cif.got.tgz:69736.got - 2010.06.03 15:47:04.
