data_PCOD9471558
_publ_section_title
;
Structure prediction by ZEFSAII (Michael W. Deem and Ramdas Pophale) SiO2 
 PCOD9471558
Probable space group: C M C M
;
_chemical_formula_sum "Si O2"
_cell_formula_units_Z 84
_cell_length_a 19.673569
_cell_length_b 13.067060
_cell_length_c 17.823211
_cell_angle_alpha 90.000000
_cell_angle_beta 90.000000
_cell_angle_gamma 90.000000
_cell_volume 4581.914561
_symmetry_space_group_name_H-M "C M C M"
_symmetry_group_IT_number 63
_symmetry_cell_setting 'orthorhombic'
loop_
_space_group_symop_operation_xyz
x,y,z
-x,-y,1/2+z
x,-y,-z
-x,y,1/2-z
-x,-y,-z
x,y,1/2-z
-x,y,z
x,-y,1/2+z
1/2+x,1/2+y,z
1/2-x,1/2-y,1/2+z
1/2+x,1/2-y,-z
1/2-x,1/2+y,1/2-z
1/2-x,1/2-y,-z
1/2+x,1/2+y,1/2-z
1/2-x,1/2+y,z
1/2+x,1/2-y,1/2+z
loop_
_atom_site_type_symbol
_atom_site_label
_atom_site_fract_x
_atom_site_fract_y
_atom_site_fract_z
Si Si1 0.653243 0.439748 0.250000
Si Si2 0.277696 0.702054 0.873251
Si Si3 0.500000 0.207833 0.164613
Si Si4 0.141557 0.582646 0.598752
Si Si5 0.798678 0.168206 0.250000
Si Si6 0.123685 0.647961 0.059158
Si Si7 0.080790 0.327568 0.250000
Si Si8 0.000000 0.091741 0.750000
O O1 0.675264 0.370200 0.320949
O O2 0.692780 0.546906 0.250000
O O3 0.572638 0.462343 0.250000
O O4 0.215649 0.633928 0.901709
O O5 0.243223 0.788565 0.820652
O O6 0.321645 0.761654 0.934222
O O7 0.500000 0.163876 0.250000
O O8 0.564458 0.175859 0.116729
O O9 0.500000 0.329339 0.179889
O O10 0.102355 0.629083 0.526786
O O11 0.150271 0.462080 0.586833
O O12 0.103929 0.610167 0.675911
O O13 0.871931 0.225683 0.250000
O O14 0.000000 0.309395 0.250000
#
# Coordination Sequence:
#
# PCOD9471558 Si02
#       8
#     8  16   8  16   8  16   8   4
#     4  11  19  34  61  86 116 150 194 237 272 345
#     4  10  19  38  56  84 119 146 186 237 287 329
#     4  10  22  37  55  87 115 154 182 233 292 327
#     4  10  24  36  58  87 109 155 188 227 291 334
#     4   9  21  34  57  89 111 151 194 228 279 343
#     4  11  22  37  59  86 117 143 191 239 275 346
#     4  10  23  40  55  77 118 156 185 229 280 341
#     4  10  20  36  52  90 108 154 196 222 290 318
#
# _framework density 18.332947999999998
#
# number of rings (size 3 to 8) (size 9 to 14) (size 15 to 20)
#    0.286    1.524    1.905    2.286    6.000    0.762 
#    0.000    0.000    0.000    0.000    0.000    6.667 
#    0.000    0.000    0.000    0.000    0.000    0.000 
#
# Total GULP energy -234257.067619 kJ/mol
# GULP energy per Si atom -5577.549229 kJ/mol
# Density = 1.829122 g / cm^3
# Si number density = 18.332948 Si / 1000 Ang^3
#
#
#
# Elastic Constant Matrix: (Units=GPa)
#
#
# Indices 1 2 3 4 5 6 
#
# 1 86.6320 12.0403 21.7936 0.0000 0.0000 0.0000
# 2 12.0403 82.9730 17.0968 0.0000 0.0000 0.0000
# 3 21.7936 17.0968 98.5611 0.0000 0.0000 0.0000
# 4 0.0000 0.0000 0.0000 21.6997 0.0000 0.0000
# 5 0.0000 0.0000 0.0000 0.0000 17.8410 0.0000
# 6 0.0000 0.0000 0.0000 0.0000 0.0000 14.2210
#
#
#
# Elastic Compliance Matrix: (Units=1/GPa)
#
#
# Indices 1 2 3 4 5 6 
#
# 1 0.012352 -0.001275 -0.002510 0.000000 0.000000 0.000000
# 2 -0.001275 0.012631 -0.001909 0.000000 0.000000 0.000000
# 3 -0.002510 -0.001909 0.011032 0.000000 0.000000 0.000000
# 4 0.000000 0.000000 0.000000 0.046084 0.000000 0.000000
# 5 0.000000 0.000000 0.000000 0.000000 0.056051 0.000000
# 6 0.000000 0.000000 0.000000 0.000000 0.000000 0.070319
#
#
# Mechanical properties :
#
#
# Convention : Reuss Voigt Hill
#
# Bulk Modulus (GPa) = 40.60735 41.11416 40.86076
# Shear Modulus (GPa) = 21.92365 25.23470 23.57917
#
# Velocity S-wave (km/s) = 3.46187 3.71410 3.59020
# Velocity P-wave (km/s) = 6.17879 6.39279 6.28670
#
# Compressibility (1/GPa) = 0.02462608
#
# Stress axis : x y z
#
# Youngs Moduli (GPa) = 80.96033 79.17340 90.64429
#
# Poissons Ratio (x) = 0.10096 0.22752
# Poissons Ratio (y) = 0.10324 0.17304
# Poissons Ratio (z) = 0.20321 0.15114
#
# Static dielectric constant tensor:
#      x y z
#    x 1.641290 0.000000 0.000000 
#    y 0.000000 1.603330 0.000000 
#    z 0.000000 0.000000 1.638350 
# 
# From -- ./inp_files/46898.got.cif
#   From: 2010.05.17/outbox.cif.g08.bks.cpg/sg63_24_cif.got.tgz:46898.got - 2010.06.03 15:47:04.
