data_PCOD9471318
_publ_section_title
;
Structure prediction by ZEFSAII (Michael W. Deem and Ramdas Pophale) SiO2 
 PCOD9471318
Probable space group: C M C M
;
_chemical_formula_sum "Si O2"
_cell_formula_units_Z 80
_cell_length_a 18.288638
_cell_length_b 15.298511
_cell_length_c 15.812512
_cell_angle_alpha 90.000000
_cell_angle_beta 90.000000
_cell_angle_gamma 90.000000
_cell_volume 4424.165807
_symmetry_space_group_name_H-M "C M C M"
_symmetry_group_IT_number 63
_symmetry_cell_setting 'orthorhombic'
loop_
_space_group_symop_operation_xyz
x,y,z
-x,-y,1/2+z
x,-y,-z
-x,y,1/2-z
-x,-y,-z
x,y,1/2-z
-x,y,z
x,-y,1/2+z
1/2+x,1/2+y,z
1/2-x,1/2-y,1/2+z
1/2+x,1/2-y,-z
1/2-x,1/2+y,1/2-z
1/2-x,1/2-y,-z
1/2+x,1/2+y,1/2-z
1/2-x,1/2+y,z
1/2+x,1/2-y,1/2+z
loop_
_atom_site_type_symbol
_atom_site_label
_atom_site_fract_x
_atom_site_fract_y
_atom_site_fract_z
Si Si1 0.583314 0.393132 0.347973
Si Si2 0.270007 0.471035 0.401980
Si Si3 0.085155 0.726116 0.028023
Si Si4 0.313634 0.137167 0.341751
Si Si5 0.289123 0.223194 0.587829
O O1 0.591438 0.363503 0.250000
O O2 0.500000 0.426281 0.357256
O O3 0.647459 0.460782 0.368263
O O4 0.592573 0.313779 0.414540
O O5 0.272070 0.500000 0.500000
O O6 0.224569 0.544368 0.353995
O O7 0.232207 0.376227 0.392769
O O8 0.128574 0.654575 0.083591
O O9 0.000000 0.706908 0.018736
O O10 0.126524 0.734583 0.938282
O O11 0.349256 0.144334 0.250000
O O12 0.249303 0.209893 0.348838
O O13 0.250000 0.250000 0.500000
#
# Coordination Sequence:
#
# PCOD9471318 Si02
#       5
#    16  16  16  16  16
#     4  10  20  33  52  81 113 141 175 229 289 333
#     4  12  20  35  56  79 112 150 191 227 268 338
#     4  10  19  35  59  84 110 144 188 236 281 327
#     4  11  22  35  57  87 113 148 191 234 285 334
#     4  10  19  37  55  79 112 147 187 228 272 337
#
# _framework density 18.082505000000001
#
# number of rings (size 3 to 8) (size 9 to 14) (size 15 to 20)
#    0.000    1.400    8.000    1.200    0.000    2.400 
#    0.000    3.000    0.000    1.800    0.000    0.000 
#    0.000    0.000    0.000    0.000    0.000    0.000 
#
# Total GULP energy -223036.289609 kJ/mol
# GULP energy per Si atom -5575.907240 kJ/mol
# Density = 1.804135 g / cm^3
# Si number density = 18.082505 Si / 1000 Ang^3
#
#
#
# Elastic Constant Matrix: (Units=GPa)
#
#
# Indices 1 2 3 4 5 6 
#
# 1 120.1021 21.7568 1.0160 0.0000 0.0000 0.0000
# 2 21.7568 86.8790 -9.6658 0.0000 0.0000 0.0000
# 3 1.0160 -9.6658 32.5001 0.0000 0.0000 0.0000
# 4 0.0000 0.0000 0.0000 -4.2177 0.0000 0.0000
# 5 0.0000 0.0000 0.0000 0.0000 15.9741 0.0000
# 6 0.0000 0.0000 0.0000 0.0000 0.0000 25.4859
#
#
#
# Elastic Compliance Matrix: (Units=1/GPa)
#
#
# Indices 1 2 3 4 5 6 
#
# 1 0.008751 -0.002298 -0.000957 0.000000 0.000000 0.000000
# 2 -0.002298 0.012508 0.003792 0.000000 0.000000 0.000000
# 3 -0.000957 0.003792 0.031927 0.000000 0.000000 0.000000
# 4 0.000000 0.000000 0.000000 -0.237097 0.000000 0.000000
# 5 0.000000 0.000000 0.000000 0.000000 0.062601 0.000000
# 6 0.000000 0.000000 0.000000 0.000000 0.000000 0.039237
#
#
# Mechanical properties :
#
#
# Convention : Reuss Voigt Hill
#
# Bulk Modulus (GPa) = 18.43023 29.52168 23.97596
# Shear Modulus (GPa) = -76.85103 22.54008 -27.15547
#
# Velocity S-wave (km/s) = -6.52629 3.53443 -3.87945
# Velocity P-wave (km/s) = 6.82463 5.74611 2.60363
#
# Compressibility (1/GPa) = 0.05425867
#
# Stress axis : x y z
#
# Youngs Moduli (GPa) = 114.27783 79.95172 31.32170
#
# Poissons Ratio (x) = 0.18372 0.02997
# Poissons Ratio (y) = 0.26259 -0.11876
# Poissons Ratio (z) = 0.10936 -0.30315
#
# Static dielectric constant tensor:
#      x y z
#    x 1.652990 0.000000 0.000000 
#    y 0.000000 1.621560 0.000000 
#    z 0.000000 0.000000 1.642260 
# 
# From -- ./inp_files/35121.got.cif
#   From: 2010.05.17/outbox.cif.g08.bks.cpg/sg63_18_cif.got.tgz:35121.got - 2010.06.03 15:47:04.
