data_PCOD9471743
_publ_section_title
;
Structure prediction by ZEFSAII (Michael W. Deem and Ramdas Pophale) SiO2 
 PCOD9471743
Probable space group: C M C M
;
_chemical_formula_sum "Si O2"
_cell_formula_units_Z 116
_cell_length_a 24.814801
_cell_length_b 27.709844
_cell_length_c 7.511322
_cell_angle_alpha 90.000000
_cell_angle_beta 90.000000
_cell_angle_gamma 90.000000
_cell_volume 5164.892153
_symmetry_space_group_name_H-M "C M C M"
_symmetry_group_IT_number 63
_symmetry_cell_setting 'orthorhombic'
loop_
_space_group_symop_operation_xyz
x,y,z
-x,-y,1/2+z
x,-y,-z
-x,y,1/2-z
-x,-y,-z
x,y,1/2-z
-x,y,z
x,-y,1/2+z
1/2+x,1/2+y,z
1/2-x,1/2-y,1/2+z
1/2+x,1/2-y,-z
1/2-x,1/2+y,1/2-z
1/2-x,1/2-y,-z
1/2+x,1/2+y,1/2-z
1/2-x,1/2+y,z
1/2+x,1/2-y,1/2+z
loop_
_atom_site_type_symbol
_atom_site_label
_atom_site_fract_x
_atom_site_fract_y
_atom_site_fract_z
Si Si1 0.280949 0.319623 0.952140
Si Si2 0.500000 0.540867 0.250000
Si Si3 0.298785 0.564757 0.046239
Si Si4 0.599431 0.682702 0.955390
Si Si5 0.317409 0.948860 0.963328
Si Si6 0.558994 0.782306 0.531804
Si Si7 0.916726 0.072583 0.954336
Si Si8 0.664066 0.159831 0.031792
O O1 0.280650 0.301145 0.750000
O O2 0.289425 0.377500 0.947995
O O3 0.220455 0.315109 0.027951
O O4 0.336985 0.303247 0.038100
O O5 0.546645 0.545684 0.405813
O O6 0.303723 0.548147 0.250000
O O7 0.243299 0.547378 0.961116
O O8 0.354967 0.555315 0.953417
O O9 0.584090 0.678999 0.750000
O O10 0.567115 0.727428 0.032647
O O11 0.587435 0.628822 0.022460
O O12 0.312814 0.944903 0.750000
O O13 0.338744 0.896609 0.022660
O O14 0.345798 0.000000 0.000000
O O15 0.560567 0.781670 0.750000
O O16 0.500000 0.800568 0.479863
O O17 0.610411 0.813032 0.474421
O O18 0.936854 0.070402 0.750000
O O19 0.666757 0.160844 0.250000
#
# Coordination Sequence:
#
# PCOD9471743 Si02
#       8
#    16   4  16  16  16  16  16  16
#     4   8  14  26  46  66  90 127 160 197 251 310
#     4  12  22  32  48  70 102 148 184 228 266 306
#     4   8  14  29  46  66 100 132 159 200 261 322
#     4   9  18  29  43  68  96 125 171 222 263 302
#     4   9  17  29  51  80 105 126 155 198 256 323
#     4   9  17  29  45  65  94 133 174 220 257 292
#     4  10  20  32  48  72 102 138 183 230 269 307
#     4   8  15  29  47  68  96 131 166 202 253 314
#
# _framework density 22.459329
#
# number of rings (size 3 to 8) (size 9 to 14) (size 15 to 20)
#    0.000    3.172    0.690    1.862    1.931    1.103 
#    0.000    2.069    0.000    1.241    0.000    0.483 
#    0.000    0.000    0.000    0.000    0.000    0.000 
#
# Total GULP energy -323033.583762 kJ/mol
# GULP energy per Si atom -5569.544548 kJ/mol
# Density = 2.240821 g / cm^3
# Si number density = 22.459329 Si / 1000 Ang^3
#
#
#
# Elastic Constant Matrix: (Units=GPa)
#
#
# Indices 1 2 3 4 5 6 
#
# 1 118.4584 39.1229 22.5714 0.0000 0.0000 0.0000
# 2 39.1229 76.5155 14.1379 0.0000 0.0000 0.0000
# 3 22.5714 14.1379 89.2986 0.0000 0.0000 0.0000
# 4 0.0000 0.0000 0.0000 2.9359 0.0000 0.0000
# 5 0.0000 0.0000 0.0000 0.0000 14.6105 0.0000
# 6 0.0000 0.0000 0.0000 0.0000 0.0000 34.5975
#
#
#
# Elastic Compliance Matrix: (Units=1/GPa)
#
#
# Indices 1 2 3 4 5 6 
#
# 1 0.010445 -0.004999 -0.001849 0.000000 0.000000 0.000000
# 2 -0.004999 0.015856 -0.001247 0.000000 0.000000 0.000000
# 3 -0.001849 -0.001247 0.011863 0.000000 0.000000 0.000000
# 4 0.000000 0.000000 0.000000 0.340613 0.000000 0.000000
# 5 0.000000 0.000000 0.000000 0.000000 0.068444 0.000000
# 6 0.000000 0.000000 0.000000 0.000000 0.000000 0.028904
#
#
# Mechanical properties :
#
#
# Convention : Reuss Voigt Hill
#
# Bulk Modulus (GPa) = 45.50650 48.43743 46.97196
# Shear Modulus (GPa) = 10.00723 24.32480 17.16602
#
# Velocity S-wave (km/s) = 2.11315 3.29456 2.76763
# Velocity P-wave (km/s) = 5.12441 6.00714 5.58325
#
# Compressibility (1/GPa) = 0.02197488
#
# Stress axis : x y z
#
# Youngs Moduli (GPa) = 95.73910 63.06895 84.29542
#
# Poissons Ratio (x) = 0.31528 0.15583
# Poissons Ratio (y) = 0.47860 0.10509
# Poissons Ratio (z) = 0.17699 0.07863
#
# Static dielectric constant tensor:
#      x y z
#    x 1.813410 0.000000 0.000000 
#    y 0.000000 1.894220 0.000000 
#    z 0.000000 0.000000 1.977840 
# 
# From -- ./inp_files/11178.got.cif
#   From: 2010.05.17/outbox.cif.g08.bks.cpg/sg63_6_cif.got.tgz:11178.got - 2010.06.03 15:47:04.
