data_PCOD9471422
_publ_section_title
;
Structure prediction by ZEFSAII (Michael W. Deem and Ramdas Pophale) SiO2 
 PCOD9471422
Probable space group: C M C M
;
_chemical_formula_sum "Si O2"
_cell_formula_units_Z 48
_cell_length_a 15.089144
_cell_length_b 25.077541
_cell_length_c 5.283526
_cell_angle_alpha 90.000000
_cell_angle_beta 90.000000
_cell_angle_gamma 90.000000
_cell_volume 1999.278986
_symmetry_space_group_name_H-M "C M C M"
_symmetry_group_IT_number 63
_symmetry_cell_setting 'orthorhombic'
loop_
_space_group_symop_operation_xyz
x,y,z
-x,-y,1/2+z
x,-y,-z
-x,y,1/2-z
-x,-y,-z
x,y,1/2-z
-x,y,z
x,-y,1/2+z
1/2+x,1/2+y,z
1/2-x,1/2-y,1/2+z
1/2+x,1/2-y,-z
1/2-x,1/2+y,1/2-z
1/2-x,1/2-y,-z
1/2+x,1/2+y,1/2-z
1/2-x,1/2+y,z
1/2+x,1/2-y,1/2+z
loop_
_atom_site_type_symbol
_atom_site_label
_atom_site_fract_x
_atom_site_fract_y
_atom_site_fract_z
Si Si1 0.880928 0.470205 0.750000
Si Si2 0.300148 0.228727 0.750000
Si Si3 0.000000 0.941240 0.750000
Si Si4 0.500000 0.795431 0.250000
Si Si5 0.187111 0.058057 0.250000
Si Si6 0.808809 0.129760 0.750000
Si Si7 0.000000 0.867101 0.250000
Si Si8 0.000000 0.369073 0.750000
O O1 0.910831 0.500000 0.500000
O O2 0.775163 0.475152 0.750000
O O3 0.916310 0.409724 0.750000
O O4 0.250000 0.250000 0.500000
O O5 0.406349 0.236818 0.750000
O O6 0.277460 0.166125 0.750000
O O7 0.092786 0.971764 0.750000
O O8 0.000000 0.903833 0.501448
O O9 0.500000 0.832254 0.501334
O O10 0.190921 0.094604 0.498648
O O11 0.903961 0.161240 0.750000
#
# Coordination Sequence:
#
# PCOD9471422 Si02
#       8
#     8   8   4   4   8   8   4   4
#     4  12  24  39  60  93 128 164 211 275 335 375
#     4  12  26  43  64  96 134 166 208 268 324 391
#     4   8  16  30  51  79 106 142 194 246 292 356
#     4  12  26  47  73 100 130 182 226 260 332 409
#     4  10  19  36  58  82 116 158 209 260 311 387
#     4  10  19  36  58  84 113 160 209 254 315 383
#     4   8  16  28  53  79 104 138 194 252 296 350
#     4  12  24  45  71  94 128 174 224 272 316 403
#
# _framework density 24.008655999999998
#
# number of rings (size 3 to 8) (size 9 to 14) (size 15 to 20)
#    0.000    1.333    0.000    6.500    0.000    1.333 
#    0.000    2.500    0.000    0.000    0.000    0.000 
#    0.000    0.000    0.000    0.000    0.000    0.000 
#
# Total GULP energy -134241.454848 kJ/mol
# GULP energy per Si atom -5593.393952 kJ/mol
# Density = 2.395401 g / cm^3
# Si number density = 24.008656 Si / 1000 Ang^3
#
#
#
# Elastic Constant Matrix: (Units=GPa)
#
#
# Indices 1 2 3 4 5 6 
#
# 1 234.8617 19.9624 37.5020 0.0000 0.0000 0.0000
# 2 19.9624 36.6567 49.8865 0.0000 0.0000 0.0000
# 3 37.5020 49.8865 242.8831 0.0000 0.0000 0.0000
# 4 0.0000 0.0000 0.0000 52.7527 0.0000 0.0000
# 5 0.0000 0.0000 0.0000 0.0000 36.9629 0.0000
# 6 0.0000 0.0000 0.0000 0.0000 0.0000 21.5263
#
#
#
# Elastic Compliance Matrix: (Units=1/GPa)
#
#
# Indices 1 2 3 4 5 6 
#
# 1 0.004477 -0.002078 -0.000264 0.000000 0.000000 0.000000
# 2 -0.002078 0.038829 -0.007654 0.000000 0.000000 0.000000
# 3 -0.000264 -0.007654 0.005730 0.000000 0.000000 0.000000
# 4 0.000000 0.000000 0.000000 0.018956 0.000000 0.000000
# 5 0.000000 0.000000 0.000000 0.000000 0.027054 0.000000
# 6 0.000000 0.000000 0.000000 0.000000 0.000000 0.046455
#
#
# Mechanical properties :
#
#
# Convention : Reuss Voigt Hill
#
# Bulk Modulus (GPa) = 34.43297 81.01148 57.72222
# Shear Modulus (GPa) = 29.20990 49.38508 39.29749
#
# Velocity S-wave (km/s) = 3.49182 4.54030 4.05013
# Velocity P-wave (km/s) = 5.53445 7.82954 6.77982
#
# Compressibility (1/GPa) = 0.02904194
#
# Stress axis : x y z
#
# Youngs Moduli (GPa) = 223.38026 25.75426 174.51525
#
# Poissons Ratio (x) = 0.05352 0.04614
# Poissons Ratio (y) = 0.46420 1.33578
# Poissons Ratio (z) = 0.05906 0.19713
#
# Static dielectric constant tensor:
#      x y z
#    x 2.009590 0.000000 0.000000 
#    y 0.000000 1.873060 0.000000 
#    z 0.000000 0.000000 1.880840 
# 
# From -- ./inp_files/565.got.cif
#   From: 2010.05.17/outbox.cif.g08.bks.cpg/sg63_1_cif.got.tgz:565.got - 2010.06.03 15:47:04.
