data_PCOD9471761
_publ_section_title
;
Structure prediction by ZEFSAII (Michael W. Deem and Ramdas Pophale) SiO2 
 PCOD9471761
Probable space group: C M C M
;
_chemical_formula_sum "Si O2"
_cell_formula_units_Z 80
_cell_length_a 14.084829
_cell_length_b 12.856088
_cell_length_c 22.680952
_cell_angle_alpha 90.000000
_cell_angle_beta 90.000000
_cell_angle_gamma 90.000000
_cell_volume 4106.971553
_symmetry_space_group_name_H-M "C M C M"
_symmetry_group_IT_number 63
_symmetry_cell_setting 'orthorhombic'
loop_
_space_group_symop_operation_xyz
x,y,z
-x,-y,1/2+z
x,-y,-z
-x,y,1/2-z
-x,-y,-z
x,y,1/2-z
-x,y,z
x,-y,1/2+z
1/2+x,1/2+y,z
1/2-x,1/2-y,1/2+z
1/2+x,1/2-y,-z
1/2-x,1/2+y,1/2-z
1/2-x,1/2-y,-z
1/2+x,1/2+y,1/2-z
1/2-x,1/2+y,z
1/2+x,1/2-y,1/2+z
loop_
_atom_site_type_symbol
_atom_site_label
_atom_site_fract_x
_atom_site_fract_y
_atom_site_fract_z
Si Si1 0.114716 0.171894 0.529664
Si Si2 0.893097 0.676343 0.682834
Si Si3 0.891235 0.121864 0.395812
Si Si4 0.259251 0.457574 0.123397
Si Si5 0.394098 0.915256 0.551978
O O1 0.140071 0.130204 0.464287
O O2 0.184465 0.117273 0.577007
O O3 0.126837 0.297340 0.531382
O O4 0.000000 0.152553 0.539301
O O5 0.889249 0.714836 0.750000
O O6 0.884696 0.767069 0.634933
O O7 0.803947 0.603360 0.669902
O O8 0.000000 0.629761 0.674875
O O9 0.000000 0.091503 0.399429
O O10 0.839165 0.037136 0.356265
O O11 0.184489 0.536465 0.093562
O O12 0.500000 0.911633 0.578888
O O13 0.397859 0.000000 0.500000
#
# Coordination Sequence:
#
# PCOD9471761 Si02
#       5
#    16  16  16  16  16
#     4  10  21  36  54  84 123 152 177 219 278 341
#     4  10  23  42  59  77 106 145 191 240 282 324
#     4  10  21  37  58  84 116 152 185 221 274 339
#     4  12  21  33  57  85 111 141 184 231 281 332
#     4  10  20  32  48  74 110 148 182 217 263 323
#
# _framework density 19.479075000000002
#
# number of rings (size 3 to 8) (size 9 to 14) (size 15 to 20)
#    0.000    1.600    0.000    5.400    0.000    8.000 
#    0.000    0.000    0.000    1.800    0.000    0.000 
#    0.000    0.000    0.000    0.000    0.000    0.000 
#
# Total GULP energy -223044.409867 kJ/mol
# GULP energy per Si atom -5576.110247 kJ/mol
# Density = 1.943474 g / cm^3
# Si number density = 19.479075 Si / 1000 Ang^3
#
#
#
# Elastic Constant Matrix: (Units=GPa)
#
#
# Indices 1 2 3 4 5 6 
#
# 1 55.7156 15.9619 8.2610 0.0000 0.0000 0.0000
# 2 15.9619 63.9278 -9.3686 0.0000 0.0000 0.0000
# 3 8.2610 -9.3686 37.1801 0.0000 0.0000 0.0000
# 4 0.0000 0.0000 0.0000 -2.2165 0.0000 0.0000
# 5 0.0000 0.0000 0.0000 0.0000 22.0627 0.0000
# 6 0.0000 0.0000 0.0000 0.0000 0.0000 49.7140
#
#
#
# Elastic Compliance Matrix: (Units=1/GPa)
#
#
# Indices 1 2 3 4 5 6 
#
# 1 0.020579 -0.006031 -0.006092 0.000000 0.000000 0.000000
# 2 -0.006031 0.018010 0.005878 0.000000 0.000000 0.000000
# 3 -0.006092 0.005878 0.029731 0.000000 0.000000 0.000000
# 4 0.000000 0.000000 0.000000 -0.451162 0.000000 0.000000
# 5 0.000000 0.000000 0.000000 0.000000 0.045325 0.000000
# 6 0.000000 0.000000 0.000000 0.000000 0.000000 0.020115
#
#
# Mechanical properties :
#
#
# Convention : Reuss Voigt Hill
#
# Bulk Modulus (GPa) = 17.91157 20.72579 19.31868
# Shear Modulus (GPa) = -17.46416 23.37665 2.95624
#
# Velocity S-wave (km/s) = -2.99751 3.46799 1.23327
# Velocity P-wave (km/s) = 1.66278 5.16711 3.45935
#
# Compressibility (1/GPa) = 0.05582982
#
# Stress axis : x y z
#
# Youngs Moduli (GPa) = 48.59210 55.52466 33.63501
#
# Poissons Ratio (x) = 0.33488 0.20491
# Poissons Ratio (y) = 0.29307 -0.19771
# Poissons Ratio (z) = 0.29604 -0.32639
#
# Static dielectric constant tensor:
#      x y z
#    x 1.788030 0.000000 0.000000 
#    y 0.000000 1.730840 0.000000 
#    z 0.000000 0.000000 1.657780 
# 
# From -- ./inp_files/62556.got.cif
#   From: 2010.05.17/outbox.cif.g08.bks.cpg/sg63_32_cif.got.tgz:62556.got - 2010.06.03 15:47:04.
