data_PCOD9471602
_publ_section_title
;
Structure prediction by ZEFSAII (Michael W. Deem and Ramdas Pophale) SiO2 
 PCOD9471602
Probable space group: C M C M
;
_chemical_formula_sum "Si O2"
_cell_formula_units_Z 80
_cell_length_a 19.391974
_cell_length_b 33.647418
_cell_length_c 8.924251
_cell_angle_alpha 90.000000
_cell_angle_beta 90.000000
_cell_angle_gamma 90.000000
_cell_volume 5822.983241
_symmetry_space_group_name_H-M "C M C M"
_symmetry_group_IT_number 63
_symmetry_cell_setting 'orthorhombic'
loop_
_space_group_symop_operation_xyz
x,y,z
-x,-y,1/2+z
x,-y,-z
-x,y,1/2-z
-x,-y,-z
x,y,1/2-z
-x,y,z
x,-y,1/2+z
1/2+x,1/2+y,z
1/2-x,1/2-y,1/2+z
1/2+x,1/2-y,-z
1/2-x,1/2+y,1/2-z
1/2-x,1/2-y,-z
1/2+x,1/2+y,1/2-z
1/2-x,1/2+y,z
1/2+x,1/2-y,1/2+z
loop_
_atom_site_type_symbol
_atom_site_label
_atom_site_fract_x
_atom_site_fract_y
_atom_site_fract_z
Si Si1 0.862021 0.879264 0.427762
Si Si2 0.142877 0.735013 0.428237
Si Si3 0.718202 0.689349 0.071636
Si Si4 0.000000 0.257899 0.427545
Si Si5 0.000000 0.827725 0.425617
Si Si6 0.081255 0.042614 0.070829
O O1 0.851854 0.883185 0.250000
O O2 0.802583 0.852578 0.501257
O O3 0.874155 0.921865 0.502372
O O4 0.932503 0.854176 0.452141
O O5 0.135016 0.740178 0.250000
O O6 0.203107 0.702913 0.455825
O O7 0.171034 0.776315 0.497436
O O8 0.069992 0.724945 0.501786
O O9 0.706225 0.689196 0.250000
O O10 0.000000 0.262138 0.250000
O O11 0.000000 0.211315 0.473606
O O12 0.000000 0.815446 0.250000
O O13 0.088020 0.041291 0.250000
O O14 0.000000 0.050127 0.035315
O O15 0.098845 0.000000 0.000000
#
# Coordination Sequence:
#
# PCOD9471602 Si02
#       6
#    16  16  16   8   8  16
#     4  11  20  31  47  63  86 116 147 185 225 264
#     4  10  20  33  46  61  86 115 144 182 226 266
#     4  10  20  32  46  64  85 112 147 184 222 264
#     4  12  22  30  46  65  85 112 149 189 223 265
#     4  10  20  30  41  61  86 114 149 185 223 261
#     4  10  20  32  46  63  86 113 146 185 223 264
#
# _framework density 13.738663000000001
#
# number of rings (size 3 to 8) (size 9 to 14) (size 15 to 20)
#    0.000    1.600    3.000    3.300    0.000    4.000 
#    0.000    0.000    0.000    0.000    0.000    0.000 
#    0.000    0.000    0.000    0.900    0.000   11.800 
#
# Total GULP energy -223342.624445 kJ/mol
# GULP energy per Si atom -5583.565611 kJ/mol
# Density = 1.370739 g / cm^3
# Si number density = 13.738663 Si / 1000 Ang^3
#
#
#
# Elastic Constant Matrix: (Units=GPa)
#
#
# Indices 1 2 3 4 5 6 
#
# 1 90.1465 44.0502 53.7863 0.0000 0.0000 0.0000
# 2 44.0502 102.2822 53.8242 0.0000 0.0000 0.0000
# 3 53.7863 53.8242 83.5972 0.0000 0.0000 0.0000
# 4 0.0000 0.0000 0.0000 24.5302 0.0000 0.0000
# 5 0.0000 0.0000 0.0000 0.0000 20.5333 0.0000
# 6 0.0000 0.0000 0.0000 0.0000 0.0000 23.9551
#
#
#
# Elastic Compliance Matrix: (Units=1/GPa)
#
#
# Indices 1 2 3 4 5 6 
#
# 1 0.018441 -0.002569 -0.010211 0.000000 0.000000 0.000000
# 2 -0.002569 0.015145 -0.008098 0.000000 0.000000 0.000000
# 3 -0.010211 -0.008098 0.023746 0.000000 0.000000 0.000000
# 4 0.000000 0.000000 0.000000 0.040766 0.000000 0.000000
# 5 0.000000 0.000000 0.000000 0.000000 0.048701 0.000000
# 6 0.000000 0.000000 0.000000 0.000000 0.000000 0.041745
#
#
# Mechanical properties :
#
#
# Convention : Reuss Voigt Hill
#
# Bulk Modulus (GPa) = 64.20277 64.37192 64.28735
# Shear Modulus (GPa) = 21.23226 22.09472 21.66349
#
# Velocity S-wave (km/s) = 3.93547 4.01461 3.97524
# Velocity P-wave (km/s) = 8.21483 8.27319 8.24406
#
# Compressibility (1/GPa) = 0.01557565
#
# Stress axis : x y z
#
# Youngs Moduli (GPa) = 54.22836 66.02969 42.11255
#
# Poissons Ratio (x) = 0.16960 0.43000
# Poissons Ratio (y) = 0.13929 0.34104
# Poissons Ratio (z) = 0.55372 0.53473
#
# Static dielectric constant tensor:
#      x y z
#    x 1.453800 0.000000 0.000000 
#    y 0.000000 1.429690 0.000000 
#    z 0.000000 0.000000 1.448330 
# 
# From -- ./inp_files/8440.got.cif
#   From: 2010.05.17/outbox.cif.g08.bks.cpg/sg63_5_cif.got.tgz:8440.got - 2010.06.03 15:47:04.
