data_PCOD9471418
_publ_section_title
;
Structure prediction by ZEFSAII (Michael W. Deem and Ramdas Pophale) SiO2 
 PCOD9471418
Probable space group: C M C M
;
_chemical_formula_sum "Si O2"
_cell_formula_units_Z 88
_cell_length_a 17.326793
_cell_length_b 28.569649
_cell_length_c 9.464017
_cell_angle_alpha 90.000000
_cell_angle_beta 90.000000
_cell_angle_gamma 90.000000
_cell_volume 4684.881427
_symmetry_space_group_name_H-M "C M C M"
_symmetry_group_IT_number 63
_symmetry_cell_setting 'orthorhombic'
loop_
_space_group_symop_operation_xyz
x,y,z
-x,-y,1/2+z
x,-y,-z
-x,y,1/2-z
-x,-y,-z
x,y,1/2-z
-x,y,z
x,-y,1/2+z
1/2+x,1/2+y,z
1/2-x,1/2-y,1/2+z
1/2+x,1/2-y,-z
1/2-x,1/2+y,1/2-z
1/2-x,1/2-y,-z
1/2+x,1/2+y,1/2-z
1/2-x,1/2+y,z
1/2+x,1/2-y,1/2+z
loop_
_atom_site_type_symbol
_atom_site_label
_atom_site_fract_x
_atom_site_fract_y
_atom_site_fract_z
Si Si1 0.811429 0.606878 0.594893
Si Si2 0.412177 0.199166 0.908397
Si Si3 0.367396 0.375392 0.412697
Si Si4 0.000000 0.948575 0.423680
Si Si5 0.416213 0.047402 0.413569
Si Si6 0.326245 0.729319 0.579604
O O1 0.834929 0.587901 0.750000
O O2 0.848240 0.658460 0.587404
O O3 0.719826 0.605799 0.586643
O O4 0.848517 0.579035 0.468811
O O5 0.405801 0.220644 0.750000
O O6 0.500000 0.181144 0.920703
O O7 0.392955 0.235292 0.031248
O O8 0.392284 0.367904 0.250000
O O9 0.426669 0.415196 0.465467
O O10 0.354559 0.322446 0.469927
O O11 0.000000 0.955240 0.250000
O O12 0.000000 0.000000 0.500000
O O13 0.409581 0.037059 0.250000
O O14 0.500000 0.070461 0.438848
O O15 0.414808 0.000000 0.500000
O O16 0.313316 0.728122 0.750000
O O17 0.250000 0.750000 0.500000
#
# Coordination Sequence:
#
# PCOD9471418 Si02
#       6
#    16  16  16   8  16  16
#     4  10  19  36  58  81 112 154 195 235 291 356
#     4  10  21  36  55  84 124 164 200 244 299 360
#     4   9  20  38  62  86 115 154 197 242 303 372
#     4  10  22  44  68  90 118 156 204 264 321 376
#     4  10  21  36  54  79 110 144 186 234 283 338
#     4  11  21  37  60  87 120 160 206 253 302 368
#
# _framework density 18.783826999999999
#
# number of rings (size 3 to 8) (size 9 to 14) (size 15 to 20)
#    0.000    2.000    1.818    1.636    1.273    3.636 
#    0.000    4.545    0.000    0.000    0.000    0.000 
#    0.000    0.000    0.000    0.000    0.000    0.000 
#
# Total GULP energy -244964.040345 kJ/mol
# GULP energy per Si atom -5567.364553 kJ/mol
# Density = 1.874107 g / cm^3
# Si number density = 18.783827 Si / 1000 Ang^3
#
#
#
# Elastic Constant Matrix: (Units=GPa)
#
#
# Indices 1 2 3 4 5 6 
#
# 1 107.5607 53.1987 33.7392 0.0000 0.0000 0.0000
# 2 53.1987 100.2508 43.8316 0.0000 0.0000 0.0000
# 3 33.7392 43.8316 68.3145 0.0000 0.0000 0.0000
# 4 0.0000 0.0000 0.0000 33.5674 0.0000 0.0000
# 5 0.0000 0.0000 0.0000 0.0000 26.7999 0.0000
# 6 0.0000 0.0000 0.0000 0.0000 0.0000 26.8302
#
#
#
# Elastic Compliance Matrix: (Units=1/GPa)
#
#
# Indices 1 2 3 4 5 6 
#
# 1 0.012971 -0.005674 -0.002766 0.000000 0.000000 0.000000
# 2 -0.005674 0.016346 -0.007686 0.000000 0.000000 0.000000
# 3 -0.002766 -0.007686 0.020935 0.000000 0.000000 0.000000
# 4 0.000000 0.000000 0.000000 0.029791 0.000000 0.000000
# 5 0.000000 0.000000 0.000000 0.000000 0.037314 0.000000
# 6 0.000000 0.000000 0.000000 0.000000 0.000000 0.037271
#
#
# Mechanical properties :
#
#
# Convention : Reuss Voigt Hill
#
# Bulk Modulus (GPa) = 55.54961 59.74058 57.64510
# Shear Modulus (GPa) = 25.92291 27.12991 26.52641
#
# Velocity S-wave (km/s) = 3.71895 3.80455 3.76199
# Velocity P-wave (km/s) = 6.93384 7.15351 7.04453
#
# Compressibility (1/GPa) = 0.01800193
#
# Stress axis : x y z
#
# Youngs Moduli (GPa) = 77.09602 61.17612 47.76605
#
# Poissons Ratio (x) = 0.34711 0.13210
# Poissons Ratio (y) = 0.43743 0.36712
# Poissons Ratio (z) = 0.21322 0.47019
#
# Static dielectric constant tensor:
#      x y z
#    x 1.686060 0.000000 0.000000 
#    y 0.000000 1.676220 0.000000 
#    z 0.000000 0.000000 1.658280 
# 
# From -- ./inp_files/6874.got.cif
#   From: 2010.05.17/outbox.cif.g08.bks.cpg/sg63_4_cif.got.tgz:6874.got - 2010.06.03 15:47:04.
