data_PCOD9471478
_publ_section_title
;
Structure prediction by ZEFSAII (Michael W. Deem and Ramdas Pophale) SiO2 
 PCOD9471478
Probable space group: C M C M
;
_chemical_formula_sum "Si O2"
_cell_formula_units_Z 72
_cell_length_a 23.471545
_cell_length_b 19.626204
_cell_length_c 7.971610
_cell_angle_alpha 90.000000
_cell_angle_beta 90.000000
_cell_angle_gamma 90.000000
_cell_volume 3672.180581
_symmetry_space_group_name_H-M "C M C M"
_symmetry_group_IT_number 63
_symmetry_cell_setting 'orthorhombic'
loop_
_space_group_symop_operation_xyz
x,y,z
-x,-y,1/2+z
x,-y,-z
-x,y,1/2-z
-x,-y,-z
x,y,1/2-z
-x,y,z
x,-y,1/2+z
1/2+x,1/2+y,z
1/2-x,1/2-y,1/2+z
1/2+x,1/2-y,-z
1/2-x,1/2+y,1/2-z
1/2-x,1/2-y,-z
1/2+x,1/2+y,1/2-z
1/2-x,1/2+y,z
1/2+x,1/2-y,1/2+z
loop_
_atom_site_type_symbol
_atom_site_label
_atom_site_fract_x
_atom_site_fract_y
_atom_site_fract_z
Si Si1 0.000000 0.921313 0.047435
Si Si2 0.899064 0.824506 0.048656
Si Si3 0.730531 0.325827 0.950162
Si Si4 0.564722 0.826763 0.544736
Si Si5 0.332243 0.921375 0.547612
O O1 0.944065 0.880511 0.986622
O O2 0.000000 0.918029 0.250000
O O3 0.000000 0.000000 0.000000
O O4 0.904131 0.822630 0.250000
O O5 0.916299 0.748799 0.989053
O O6 0.833684 0.839083 0.007700
O O7 0.731139 0.328962 0.750000
O O8 0.776790 0.380194 0.014677
O O9 0.750000 0.250000 0.000000
O O10 0.565061 0.826399 0.750000
O O11 0.500000 0.840684 0.491594
O O12 0.611068 0.881906 0.488684
O O13 0.332076 0.917197 0.750000
O O14 0.331558 0.000000 0.500000
#
# Coordination Sequence:
#
# PCOD9471478 Si02
#       5
#     8  16  16  16  16
#     4  10  22  38  60  86 119 158 192 239 296 349
#     4  10  19  36  61  86 111 149 196 236 283 341
#     4  11  22  37  59  86 115 150 192 239 287 340
#     4   9  16  32  59  84 108 144 190 231 272 334
#     4  10  22  38  56  82 115 149 185 231 284 335
#
# _framework density 19.606878999999999
#
# number of rings (size 3 to 8) (size 9 to 14) (size 15 to 20)
#    0.000    2.000    3.333    0.667    0.000    4.000 
#    0.000    4.444    0.000    1.333    0.000    0.000 
#    0.000    0.000    0.000    0.000    0.000    0.000 
#
# Total GULP energy -201034.592922 kJ/mol
# GULP energy per Si atom -5584.294248 kJ/mol
# Density = 1.956225 g / cm^3
# Si number density = 19.606879 Si / 1000 Ang^3
#
#
#
# Elastic Constant Matrix: (Units=GPa)
#
#
# Indices 1 2 3 4 5 6 
#
# 1 239.2360 135.1917 8.2402 0.0000 0.0000 0.0000
# 2 135.1917 203.6679 8.1564 0.0000 0.0000 0.0000
# 3 8.2402 8.1564 12.2919 0.0000 0.0000 0.0000
# 4 0.0000 0.0000 0.0000 27.6732 0.0000 0.0000
# 5 0.0000 0.0000 0.0000 0.0000 24.9605 0.0000
# 6 0.0000 0.0000 0.0000 0.0000 0.0000 36.4960
#
#
#
# Elastic Compliance Matrix: (Units=1/GPa)
#
#
# Indices 1 2 3 4 5 6 
#
# 1 0.006719 -0.004396 -0.001587 0.000000 0.000000 0.000000
# 2 -0.004396 0.007921 -0.002309 0.000000 0.000000 0.000000
# 3 -0.001587 -0.002309 0.083950 0.000000 0.000000 0.000000
# 4 0.000000 0.000000 0.000000 0.036136 0.000000 0.000000
# 5 0.000000 0.000000 0.000000 0.000000 0.040063 0.000000
# 6 0.000000 0.000000 0.000000 0.000000 0.000000 0.027400
#
#
# Mechanical properties :
#
#
# Convention : Reuss Voigt Hill
#
# Bulk Modulus (GPa) = 12.19421 84.26360 48.22891
# Shear Modulus (GPa) = 20.31618 38.06644 29.19131
#
# Velocity S-wave (km/s) = 3.22246 4.41101 3.86272
# Velocity P-wave (km/s) = 4.48091 8.30738 6.67424
#
# Compressibility (1/GPa) = 0.08200613
#
# Stress axis : x y z
#
# Youngs Moduli (GPa) = 148.83019 126.25130 11.91179
#
# Poissons Ratio (x) = 0.55506 0.01890
# Poissons Ratio (y) = 0.65433 0.02750
# Poissons Ratio (z) = 0.23619 0.29146
#
# Static dielectric constant tensor:
#      x y z
#    x 1.674310 0.000000 0.000000 
#    y 0.000000 1.649350 0.000000 
#    z 0.000000 0.000000 1.718080 
# 
# From -- ./inp_files/7814.got.cif
#   From: 2010.05.17/outbox.cif.g08.bks.cpg/sg63_4_cif.got.tgz:7814.got - 2010.06.03 15:47:04.
