data_PCOD9471330
_publ_section_title
;
Structure prediction by ZEFSAII (Michael W. Deem and Ramdas Pophale) SiO2 
 PCOD9471330
Probable space group: C M C M
;
_chemical_formula_sum "Si O2"
_cell_formula_units_Z 64
_cell_length_a 18.029275
_cell_length_b 8.702294
_cell_length_c 22.263166
_cell_angle_alpha 90.000000
_cell_angle_beta 90.000000
_cell_angle_gamma 90.000000
_cell_volume 3493.002843
_symmetry_space_group_name_H-M "C M C M"
_symmetry_group_IT_number 63
_symmetry_cell_setting 'orthorhombic'
loop_
_space_group_symop_operation_xyz
x,y,z
-x,-y,1/2+z
x,-y,-z
-x,y,1/2-z
-x,-y,-z
x,y,1/2-z
-x,y,z
x,-y,1/2+z
1/2+x,1/2+y,z
1/2-x,1/2-y,1/2+z
1/2+x,1/2-y,-z
1/2-x,1/2+y,1/2-z
1/2-x,1/2-y,-z
1/2+x,1/2+y,1/2-z
1/2-x,1/2+y,z
1/2+x,1/2-y,1/2+z
loop_
_atom_site_type_symbol
_atom_site_label
_atom_site_fract_x
_atom_site_fract_y
_atom_site_fract_z
Si Si1 0.311115 0.264599 0.678862
Si Si2 0.700743 0.427242 0.391112
Si Si3 0.915443 0.253423 0.967604
Si Si4 0.635314 0.932590 0.417870
O O1 0.313959 0.268667 0.750000
O O2 0.324030 0.428701 0.648360
O O3 0.231001 0.204996 0.654295
O O4 0.366545 0.141510 0.648145
O O5 0.639153 0.365717 0.435975
O O6 0.776940 0.469302 0.426106
O O7 0.909387 0.413236 0.930063
O O8 0.000000 0.200578 0.969447
O O9 0.888313 0.305446 0.033509
#
# Coordination Sequence:
#
# PCOD9471330 Si02
#       4
#    16  16  16  16
#     4  10  20  35  61  84 111 150 200 242 274 331
#     4  10  19  35  59  89 114 142 196 240 283 331
#     4  11  21  37  60  88 121 150 183 237 299 345
#     4   9  19  36  58  86 113 148 194 233 276 344
#
# _framework density 18.322343
#
# number of rings (size 3 to 8) (size 9 to 14) (size 15 to 20)
#    1.500    0.500    2.500    3.000    0.000    1.000 
#    0.000    3.750    0.000   12.000    0.000    0.000 
#    0.000    0.000    0.000    0.000    0.000    0.000 
#
# Total GULP energy -178246.777921 kJ/mol
# GULP energy per Si atom -5570.211810 kJ/mol
# Density = 1.828064 g / cm^3
# Si number density = 18.322343 Si / 1000 Ang^3
#
#
#
# Elastic Constant Matrix: (Units=GPa)
#
#
# Indices 1 2 3 4 5 6 
#
# 1 67.3505 -0.2566 26.4901 0.0000 0.0000 0.0000
# 2 -0.2566 32.2109 11.2030 0.0000 0.0000 0.0000
# 3 26.4901 11.2030 58.3495 0.0000 0.0000 0.0000
# 4 0.0000 0.0000 0.0000 17.1667 0.0000 0.0000
# 5 0.0000 0.0000 0.0000 0.0000 -5.1134 0.0000
# 6 0.0000 0.0000 0.0000 0.0000 0.0000 17.8441
#
#
#
# Elastic Compliance Matrix: (Units=1/GPa)
#
#
# Indices 1 2 3 4 5 6 
#
# 1 0.018391 0.003269 -0.008977 0.000000 0.000000 0.000000
# 2 0.003269 0.033848 -0.007983 0.000000 0.000000 0.000000
# 3 -0.008977 -0.007983 0.022746 0.000000 0.000000 0.000000
# 4 0.000000 0.000000 0.000000 0.058252 0.000000 0.000000
# 5 0.000000 0.000000 0.000000 0.000000 -0.195566 0.000000
# 6 0.000000 0.000000 0.000000 0.000000 0.000000 0.056041
#
#
# Mechanical properties :
#
#
# Convention : Reuss Voigt Hill
#
# Bulk Modulus (GPa) = 21.00701 25.86488 23.43595
# Shear Modulus (GPa) = 135.27587 14.01111 74.64349
#
# Velocity S-wave (km/s) = 8.60182 2.76832 6.38964
# Velocity P-wave (km/s) = 10.49501 4.93613 8.20094
#
# Compressibility (1/GPa) = 0.04760317
#
# Stress axis : x y z
#
# Youngs Moduli (GPa) = 54.37469 29.54398 43.96348
#
# Poissons Ratio (x) = -0.09657 0.39465
# Poissons Ratio (y) = -0.17773 0.35095
# Poissons Ratio (z) = 0.48811 0.23584
#
# Static dielectric constant tensor:
#      x y z
#    x 1.627050 0.000000 0.000000 
#    y 0.000000 1.667700 0.000000 
#    z 0.000000 0.000000 1.601970 
# 
# From -- ./inp_files/56268.got.cif
#   From: 2010.05.17/outbox.cif.g08.bks.cpg/sg63_29_cif.got.tgz:56268.got - 2010.06.03 15:47:04.
