data_PCOD9471983
_publ_section_title
;
Structure prediction by ZEFSAII (Michael W. Deem and Ramdas Pophale) SiO2 
 PCOD9471983
Probable space group: C M C M
;
_chemical_formula_sum "Si O2"
_cell_formula_units_Z 96
_cell_length_a 20.529708
_cell_length_b 23.117410
_cell_length_c 9.728260
_cell_angle_alpha 90.000000
_cell_angle_beta 90.000000
_cell_angle_gamma 90.000000
_cell_volume 4616.970684
_symmetry_space_group_name_H-M "C M C M"
_symmetry_group_IT_number 63
_symmetry_cell_setting 'orthorhombic'
loop_
_space_group_symop_operation_xyz
x,y,z
-x,-y,1/2+z
x,-y,-z
-x,y,1/2-z
-x,-y,-z
x,y,1/2-z
-x,y,z
x,-y,1/2+z
1/2+x,1/2+y,z
1/2-x,1/2-y,1/2+z
1/2+x,1/2-y,-z
1/2-x,1/2+y,1/2-z
1/2-x,1/2-y,-z
1/2+x,1/2+y,1/2-z
1/2-x,1/2+y,z
1/2+x,1/2-y,1/2+z
loop_
_atom_site_type_symbol
_atom_site_label
_atom_site_fract_x
_atom_site_fract_y
_atom_site_fract_z
Si Si1 0.787485 0.945853 0.410460
Si Si2 0.109708 0.316442 0.592009
Si Si3 0.421336 0.947022 0.906702
Si Si4 0.601702 0.289632 0.909129
Si Si5 0.428971 0.600863 0.592776
Si Si6 0.242521 0.160068 0.097815
O O1 0.771261 0.950851 0.250000
O O2 0.866151 0.939278 0.423869
O O3 0.760715 0.887464 0.478994
O O4 0.765563 0.000000 0.500000
O O5 0.085842 0.310852 0.750000
O O6 0.096417 0.382348 0.546093
O O7 0.082703 0.267608 0.492123
O O8 0.187889 0.309717 0.594725
O O9 0.397187 0.953139 0.750000
O O10 0.500000 0.949772 0.903886
O O11 0.397929 0.000000 0.000000
O O12 0.582145 0.287646 0.750000
O O13 0.680340 0.298392 0.913160
O O14 0.575948 0.346300 0.987039
O O15 0.424540 0.623866 0.750000
O O16 0.500000 0.572630 0.578134
O O17 0.236750 0.131410 0.250000
#
# Coordination Sequence:
#
# PCOD9471983 Si02
#       6
#    16  16  16  16  16  16
#     4  10  20  34  53  76 103 136 173 214 261 310
#     4  10  20  34  54  78 103 135 173 208 248 304
#     4   9  19  36  55  74  98 128 162 203 250 296
#     4  10  20  33  51  77 107 136 168 210 258 303
#     4   9  19  36  55  74 100 137 177 214 256 307
#     4   9  19  35  52  73 104 138 172 212 255 300
#
# _framework density 20.792854999999999
#
# number of rings (size 3 to 8) (size 9 to 14) (size 15 to 20)
#    0.000    2.500    0.000    1.500    0.000    4.667 
#    0.000    3.333    0.000    0.000    0.000    0.000 
#    0.000    0.000    0.000    0.000    0.000    0.000 
#
# Total GULP energy -267927.095852 kJ/mol
# GULP energy per Si atom -5581.814497 kJ/mol
# Density = 2.074553 g / cm^3
# Si number density = 20.792855 Si / 1000 Ang^3
#
#
#
# Elastic Constant Matrix: (Units=GPa)
#
#
# Indices 1 2 3 4 5 6 
#
# 1 48.7110 -14.1876 4.4201 0.0000 0.0000 0.0000
# 2 -14.1876 86.7859 75.6551 0.0000 0.0000 0.0000
# 3 4.4201 75.6551 137.3558 0.0000 0.0000 0.0000
# 4 0.0000 0.0000 0.0000 38.7398 0.0000 0.0000
# 5 0.0000 0.0000 0.0000 0.0000 11.8752 0.0000
# 6 0.0000 0.0000 0.0000 0.0000 0.0000 -4.6733
#
#
#
# Elastic Compliance Matrix: (Units=1/GPa)
#
#
# Indices 1 2 3 4 5 6 
#
# 1 0.023560 0.008680 -0.005539 0.000000 0.000000 0.000000
# 2 0.008680 0.025364 -0.014250 0.000000 0.000000 0.000000
# 3 -0.005539 -0.014250 0.015307 0.000000 0.000000 0.000000
# 4 0.000000 0.000000 0.000000 0.025813 0.000000 0.000000
# 5 0.000000 0.000000 0.000000 0.000000 0.084209 0.000000
# 6 0.000000 0.000000 0.000000 0.000000 0.000000 -0.213984
#
#
# Mechanical properties :
#
#
# Convention : Reuss Voigt Hill
#
# Bulk Modulus (GPa) = 23.80149 44.95864 34.38006
# Shear Modulus (GPa) = -1424.91296 22.98603 -700.96347
#
# Velocity S-wave (km/s) = -26.20644 3.32848 -18.38068
# Velocity P-wave (km/s) = 30.07044 6.03662 20.83015
#
# Compressibility (1/GPa) = 0.04201418
#
# Stress axis : x y z
#
# Youngs Moduli (GPa) = 42.44456 39.42658 65.32875
#
# Poissons Ratio (x) = -0.34224 0.36188
# Poissons Ratio (y) = -0.36844 0.93090
# Poissons Ratio (z) = 0.23511 0.56181
#
# Static dielectric constant tensor:
#      x y z
#    x 1.782050 0.000000 0.000000 
#    y 0.000000 1.701820 0.000000 
#    z 0.000000 0.000000 1.708830 
# 
# From -- ./inp_files/10412.got.cif
#   From: 2010.05.17/outbox.cif.g08.bks.cpg/sg63_6_cif.got.tgz:10412.got - 2010.06.03 15:47:04.
