data_PCOD9471105
_publ_section_title
;
Structure prediction by ZEFSAII (Michael W. Deem and Ramdas Pophale) SiO2 
 PCOD9471105
Probable space group: C M C M
;
_chemical_formula_sum "Si O2"
_cell_formula_units_Z 84
_cell_length_a 7.717380
_cell_length_b 14.292988
_cell_length_c 29.402030
_cell_angle_alpha 90.000000
_cell_angle_beta 90.000000
_cell_angle_gamma 90.000000
_cell_volume 3243.173858
_symmetry_space_group_name_H-M "C M C M"
_symmetry_group_IT_number 63
_symmetry_cell_setting 'orthorhombic'
loop_
_space_group_symop_operation_xyz
x,y,z
-x,-y,1/2+z
x,-y,-z
-x,y,1/2-z
-x,-y,-z
x,y,1/2-z
-x,y,z
x,-y,1/2+z
1/2+x,1/2+y,z
1/2-x,1/2-y,1/2+z
1/2+x,1/2-y,-z
1/2-x,1/2+y,1/2-z
1/2-x,1/2-y,-z
1/2+x,1/2+y,1/2-z
1/2-x,1/2+y,z
1/2+x,1/2-y,1/2+z
loop_
_atom_site_type_symbol
_atom_site_label
_atom_site_fract_x
_atom_site_fract_y
_atom_site_fract_z
Si Si1 0.000000 0.882374 0.250000
Si Si2 0.207900 0.059528 0.103082
Si Si3 0.192319 0.684501 0.814956
Si Si4 0.201978 0.155619 0.586351
Si Si5 0.703975 0.597895 0.202151
Si Si6 0.204350 0.393712 0.992235
O O1 0.845919 0.871908 0.209590
O O2 0.280811 0.073488 0.153452
O O3 0.000000 0.067874 0.105567
O O4 0.254348 0.953625 0.090724
O O5 0.263853 0.124811 0.061173
O O6 0.206791 0.698342 0.869722
O O7 0.205447 0.790059 0.796984
O O8 0.000000 0.646975 0.805271
O O9 0.227491 0.171921 0.532594
O O10 0.000000 0.166425 0.595629
O O11 0.780783 0.564461 0.250000
O O12 0.500000 0.568107 0.202911
O O13 0.000000 0.397527 0.998973
O O14 0.278825 0.500000 0.000000
#
# Coordination Sequence:
#
# PCOD9471105 Si02
#       6
#     4  16  16  16  16  16
#     4  12  22  40  60  86 110 152 200 230 282 334
#     4   9  18  34  56  84 113 146 188 234 286 342
#     4  11  22  39  62  84 114 150 192 236 281 338
#     4  10  19  34  56  88 115 147 190 235 284 340
#     4   9  18  36  57  79 108 151 187 227 285 338
#     4   9  17  31  52  78 111 148 185 231 285 340
#
# _framework density 25.900552000000001
#
# number of rings (size 3 to 8) (size 9 to 14) (size 15 to 20)
#    0.000    2.286    1.905    1.429    0.000    3.048 
#    3.429    0.952    0.000    0.000    0.000    0.000 
#    0.000    0.000    0.000    0.000    0.000    0.000 
#
# Total GULP energy -234201.669010 kJ/mol
# GULP energy per Si atom -5576.230215 kJ/mol
# Density = 2.584160 g / cm^3
# Si number density = 25.900552 Si / 1000 Ang^3
#
#
#
# Elastic Constant Matrix: (Units=GPa)
#
#
# Indices 1 2 3 4 5 6 
#
# 1 83.8909 16.2139 49.4024 0.0000 0.0000 0.0000
# 2 16.2139 49.6317 24.2711 0.0000 0.0000 0.0000
# 3 49.4024 24.2711 262.3815 0.0000 0.0000 0.0000
# 4 0.0000 0.0000 0.0000 79.7722 0.0000 0.0000
# 5 0.0000 0.0000 0.0000 0.0000 46.2123 0.0000
# 6 0.0000 0.0000 0.0000 0.0000 0.0000 9.4329
#
#
#
# Elastic Compliance Matrix: (Units=1/GPa)
#
#
# Indices 1 2 3 4 5 6 
#
# 1 0.013942 -0.003426 -0.002308 0.000000 0.000000 0.000000
# 2 -0.003426 0.021945 -0.001385 0.000000 0.000000 0.000000
# 3 -0.002308 -0.001385 0.004374 0.000000 0.000000 0.000000
# 4 0.000000 0.000000 0.000000 0.012536 0.000000 0.000000
# 5 0.000000 0.000000 0.000000 0.000000 0.021639 0.000000
# 6 0.000000 0.000000 0.000000 0.000000 0.000000 0.106012
#
#
# Mechanical properties :
#
#
# Convention : Reuss Voigt Hill
#
# Bulk Modulus (GPa) = 38.42797 63.96432 51.19615
# Shear Modulus (GPa) = 24.58705 47.48460 36.03583
#
# Velocity S-wave (km/s) = 3.08439 4.28640 3.73408
# Velocity P-wave (km/s) = 5.24915 7.01765 6.19681
#
# Compressibility (1/GPa) = 0.02602271
#
# Stress axis : x y z
#
# Youngs Moduli (GPa) = 71.72795 45.56883 228.62716
#
# Poissons Ratio (x) = 0.15611 0.52769
# Poissons Ratio (y) = 0.24572 0.31664
# Poissons Ratio (z) = 0.16555 0.06311
#
# Static dielectric constant tensor:
#      x y z
#    x 1.927780 0.000000 0.000000 
#    y 0.000000 2.113390 0.000000 
#    z 0.000000 0.000000 2.146980 
# 
# From -- ./inp_files/66825.got.cif
#   From: 2010.05.17/outbox.cif.g08.bks.cpg/sg63_34_cif.got.tgz:66825.got - 2010.06.03 15:47:04.
