data_PCOD9471135
_publ_section_title
;
Structure prediction by ZEFSAII (Michael W. Deem and Ramdas Pophale) SiO2 
 PCOD9471135
Probable space group: C M C M
;
_chemical_formula_sum "Si O2"
_cell_formula_units_Z 72
_cell_length_a 14.801119
_cell_length_b 18.177128
_cell_length_c 15.181628
_cell_angle_alpha 90.000000
_cell_angle_beta 90.000000
_cell_angle_gamma 90.000000
_cell_volume 4084.493049
_symmetry_space_group_name_H-M "C M C M"
_symmetry_group_IT_number 63
_symmetry_cell_setting 'orthorhombic'
loop_
_space_group_symop_operation_xyz
x,y,z
-x,-y,1/2+z
x,-y,-z
-x,y,1/2-z
-x,-y,-z
x,y,1/2-z
-x,y,z
x,-y,1/2+z
1/2+x,1/2+y,z
1/2-x,1/2-y,1/2+z
1/2+x,1/2-y,-z
1/2-x,1/2+y,1/2-z
1/2-x,1/2-y,-z
1/2+x,1/2+y,1/2-z
1/2-x,1/2+y,z
1/2+x,1/2-y,1/2+z
loop_
_atom_site_type_symbol
_atom_site_label
_atom_site_fract_x
_atom_site_fract_y
_atom_site_fract_z
Si Si1 0.000000 0.647376 0.855653
Si Si2 0.195103 0.824203 0.011570
Si Si3 0.500000 0.538705 0.404386
Si Si4 0.000000 0.202803 0.031040
Si Si5 0.194020 0.419931 0.146108
Si Si6 0.695208 0.562442 0.149304
O O1 0.000000 0.724204 0.908955
O O2 0.090950 0.601572 0.876456
O O3 0.000000 0.662082 0.750000
O O4 0.239140 0.870200 0.089473
O O5 0.250000 0.750000 0.000000
O O6 0.090907 0.803049 0.024975
O O7 0.199860 0.873807 0.923163
O O8 0.500000 0.500000 0.500000
O O9 0.500000 0.627701 0.411694
O O10 0.403026 0.522429 0.360825
O O11 0.205415 0.405734 0.250000
O O12 0.225627 0.503688 0.131338
O O13 0.702174 0.589073 0.250000
#
# Coordination Sequence:
#
# PCOD9471135 Si02
#       6
#     8  16   8   8  16  16
#     4  10  20  36  58  84 113 148 199 247 283 338
#     4  11  21  36  58  83 117 149 192 243 293 347
#     4  10  19  34  57  85 118 147 185 240 297 354
#     4  10  20  34  55  84 113 144 190 237 291 344
#     4  10  21  38  58  83 114 152 194 240 293 350
#     4  10  21  36  57  85 117 154 193 235 293 352
#
# _framework density 17.627647
#
# number of rings (size 3 to 8) (size 9 to 14) (size 15 to 20)
#    0.000    1.778    2.222    3.667    0.000    4.444 
#    0.000    5.000    0.000    0.000    0.000    0.000 
#    0.000    0.000    0.000    0.000    0.000    0.000 
#
# Total GULP energy -200742.347009 kJ/mol
# GULP energy per Si atom -5576.176306 kJ/mol
# Density = 1.758753 g / cm^3
# Si number density = 17.627647 Si / 1000 Ang^3
#
#
#
# Elastic Constant Matrix: (Units=GPa)
#
#
# Indices 1 2 3 4 5 6 
#
# 1 165.6759 59.8893 50.4943 0.0000 0.0000 0.0000
# 2 59.8893 87.3780 49.6663 0.0000 0.0000 0.0000
# 3 50.4943 49.6663 59.5653 0.0000 0.0000 0.0000
# 4 0.0000 0.0000 0.0000 15.2092 0.0000 0.0000
# 5 0.0000 0.0000 0.0000 0.0000 29.3956 0.0000
# 6 0.0000 0.0000 0.0000 0.0000 0.0000 34.3460
#
#
#
# Elastic Compliance Matrix: (Units=1/GPa)
#
#
# Indices 1 2 3 4 5 6 
#
# 1 0.008622 -0.003336 -0.004527 0.000000 0.000000 0.000000
# 2 -0.003336 0.023046 -0.016388 0.000000 0.000000 0.000000
# 3 -0.004527 -0.016388 0.034290 0.000000 0.000000 0.000000
# 4 0.000000 0.000000 0.000000 0.065750 0.000000 0.000000
# 5 0.000000 0.000000 0.000000 0.000000 0.034019 0.000000
# 6 0.000000 0.000000 0.000000 0.000000 0.000000 0.029115
#
#
# Mechanical properties :
#
#
# Convention : Reuss Voigt Hill
#
# Bulk Modulus (GPa) = 57.28731 70.30211 63.79471
# Shear Modulus (GPa) = 20.06718 25.96145 23.01431
#
# Velocity S-wave (km/s) = 3.37767 3.84183 3.61720
# Velocity P-wave (km/s) = 6.91235 7.72320 7.32900
#
# Compressibility (1/GPa) = 0.01745587
#
# Stress axis : x y z
#
# Youngs Moduli (GPa) = 115.98870 43.39094 29.16263
#
# Poissons Ratio (x) = 0.14476 0.13202
# Poissons Ratio (y) = 0.38695 0.47792
# Poissons Ratio (z) = 0.52507 0.71110
#
# Static dielectric constant tensor:
#      x y z
#    x 1.642740 0.000000 0.000000 
#    y 0.000000 1.599190 0.000000 
#    z 0.000000 0.000000 1.590700 
# 
# From -- ./inp_files/31493.got.cif
#   From: 2010.05.17/outbox.cif.g08.bks.cpg/sg63_16_cif.got.tgz:31493.got - 2010.06.03 15:47:04.
