data_PCOD9471650
_publ_section_title
;
Structure prediction by ZEFSAII (Michael W. Deem and Ramdas Pophale) SiO2 
 PCOD9471650
Probable space group: C M C M
;
_chemical_formula_sum "Si O2"
_cell_formula_units_Z 84
_cell_length_a 12.689804
_cell_length_b 20.966633
_cell_length_c 15.049294
_cell_angle_alpha 90.000000
_cell_angle_beta 90.000000
_cell_angle_gamma 90.000000
_cell_volume 4004.052233
_symmetry_space_group_name_H-M "C M C M"
_symmetry_group_IT_number 63
_symmetry_cell_setting 'orthorhombic'
loop_
_space_group_symop_operation_xyz
x,y,z
-x,-y,1/2+z
x,-y,-z
-x,y,1/2-z
-x,-y,-z
x,y,1/2-z
-x,y,z
x,-y,1/2+z
1/2+x,1/2+y,z
1/2-x,1/2-y,1/2+z
1/2+x,1/2-y,-z
1/2-x,1/2+y,1/2-z
1/2-x,1/2-y,-z
1/2+x,1/2+y,1/2-z
1/2-x,1/2+y,z
1/2+x,1/2-y,1/2+z
loop_
_atom_site_type_symbol
_atom_site_label
_atom_site_fract_x
_atom_site_fract_y
_atom_site_fract_z
Si Si1 0.696831 0.302296 0.353238
Si Si2 0.383187 0.442470 0.142753
Si Si3 0.500000 0.028042 0.250000
Si Si4 0.342787 0.981852 0.400648
Si Si5 0.621356 0.154799 0.958199
Si Si6 0.622695 0.838721 0.847123
O O1 0.727926 0.310141 0.250000
O O2 0.638109 0.367644 0.380004
O O3 0.799609 0.295418 0.414381
O O4 0.629639 0.238006 0.357684
O O5 0.382202 0.445840 0.250000
O O6 0.500000 0.461237 0.111765
O O7 0.283547 0.483090 0.110059
O O8 0.407393 0.019484 0.327545
O O9 0.372555 0.906859 0.394839
O O10 0.373952 0.000000 0.500000
O O11 0.500000 0.175262 0.965970
O O12 0.661089 0.136500 0.057613
O O13 0.672010 0.853246 0.750000
O O14 0.500000 0.857260 0.838574
#
# Coordination Sequence:
#
# PCOD9471650 Si02
#       6
#    16  16   4  16  16  16
#     4   9  17  28  49  73 101 133 164 205 257 301
#     4   9  17  32  54  81 105 134 174 218 260 307
#     4  12  22  40  58  74 108 140 174 226 264 322
#     4  11  23  38  55  80 104 140 176 219 274 317
#     4  10  20  31  48  71 100 129 170 212 251 312
#     4   9  17  31  46  69 100 133 165 205 252 303
#
# _framework density 20.978748
#
# number of rings (size 3 to 8) (size 9 to 14) (size 15 to 20)
#    0.000    2.286    1.905    1.429    1.333    3.048 
#    1.714    0.000    0.000    0.000    0.000    0.000 
#    0.000    0.000    0.000    0.000    0.000    0.000 
#
# Total GULP energy -233812.335199 kJ/mol
# GULP energy per Si atom -5566.960362 kJ/mol
# Density = 2.093100 g / cm^3
# Si number density = 20.978748 Si / 1000 Ang^3
#
#
#
# Elastic Constant Matrix: (Units=GPa)
#
#
# Indices 1 2 3 4 5 6 
#
# 1 137.1155 14.6661 47.0791 0.0000 0.0000 0.0000
# 2 14.6661 51.3736 6.5515 0.0000 0.0000 0.0000
# 3 47.0791 6.5515 100.8631 0.0000 0.0000 0.0000
# 4 0.0000 0.0000 0.0000 10.2939 0.0000 0.0000
# 5 0.0000 0.0000 0.0000 0.0000 26.3279 0.0000
# 6 0.0000 0.0000 0.0000 0.0000 0.0000 23.4870
#
#
#
# Elastic Compliance Matrix: (Units=1/GPa)
#
#
# Indices 1 2 3 4 5 6 
#
# 1 0.008889 -0.002025 -0.004018 0.000000 0.000000 0.000000
# 2 -0.002025 0.020089 -0.000360 0.000000 0.000000 0.000000
# 3 -0.004018 -0.000360 0.011813 0.000000 0.000000 0.000000
# 4 0.000000 0.000000 0.000000 0.097145 0.000000 0.000000
# 5 0.000000 0.000000 0.000000 0.000000 0.037983 0.000000
# 6 0.000000 0.000000 0.000000 0.000000 0.000000 0.042577
#
#
# Mechanical properties :
#
#
# Convention : Reuss Voigt Hill
#
# Bulk Modulus (GPa) = 35.73137 47.32729 41.52933
# Shear Modulus (GPa) = 20.77878 26.75877 23.76878
#
# Velocity S-wave (km/s) = 3.15058 3.57531 3.36965
# Velocity P-wave (km/s) = 5.50491 6.29702 5.91424
#
# Compressibility (1/GPa) = 0.02798661
#
# Stress axis : x y z
#
# Youngs Moduli (GPa) = 112.49595 49.77774 84.65216
#
# Poissons Ratio (x) = 0.10082 0.34010
# Poissons Ratio (y) = 0.22784 0.03044
# Poissons Ratio (z) = 0.45196 0.01790
#
# Static dielectric constant tensor:
#      x y z
#    x 1.755040 0.000000 0.000000 
#    y 0.000000 1.847600 0.000000 
#    z 0.000000 0.000000 1.830640 
# 
# From -- ./inp_files/17993.got.cif
#   From: 2010.05.17/outbox.cif.g08.bks.cpg/sg63_9_cif.got.tgz:17993.got - 2010.06.03 15:47:04.
