data_PCOD9471714
_publ_section_title
;
Structure prediction by ZEFSAII (Michael W. Deem and Ramdas Pophale) SiO2 
 PCOD9471714
Probable space group: C M C M
;
_chemical_formula_sum "Si O2"
_cell_formula_units_Z 88
_cell_length_a 20.321816
_cell_length_b 31.407538
_cell_length_c 8.488332
_cell_angle_alpha 90.000000
_cell_angle_beta 90.000000
_cell_angle_gamma 90.000000
_cell_volume 5417.747573
_symmetry_space_group_name_H-M "C M C M"
_symmetry_group_IT_number 63
_symmetry_cell_setting 'orthorhombic'
loop_
_space_group_symop_operation_xyz
x,y,z
-x,-y,1/2+z
x,-y,-z
-x,y,1/2-z
-x,-y,-z
x,y,1/2-z
-x,y,z
x,-y,1/2+z
1/2+x,1/2+y,z
1/2-x,1/2-y,1/2+z
1/2+x,1/2-y,-z
1/2-x,1/2+y,1/2-z
1/2-x,1/2-y,-z
1/2+x,1/2+y,1/2-z
1/2-x,1/2+y,z
1/2+x,1/2-y,1/2+z
loop_
_atom_site_type_symbol
_atom_site_label
_atom_site_fract_x
_atom_site_fract_y
_atom_site_fract_z
Si Si1 0.146070 0.952246 0.937565
Si Si2 0.573248 0.763688 0.937450
Si Si3 0.796160 0.871177 0.065876
Si Si4 0.210118 0.291650 0.059887
Si Si5 0.426010 0.668524 0.064275
Si Si6 0.500000 0.548575 0.440267
O O1 0.144297 0.954289 0.750000
O O2 0.072702 0.936455 0.991941
O O3 0.199494 0.917547 0.988555
O O4 0.156770 0.000000 0.000000
O O5 0.579936 0.755409 0.750000
O O6 0.500000 0.782363 0.963306
O O7 0.635851 0.789601 0.996818
O O8 0.575038 0.718840 0.029125
O O9 0.784096 0.876731 0.250000
O O10 0.745930 0.835079 0.005908
O O11 0.867880 0.851053 0.035968
O O12 0.210839 0.290363 0.250000
O O13 0.250000 0.250000 0.000000
O O14 0.414333 0.660398 0.250000
O O15 0.500000 0.653150 0.027115
O O16 0.500000 0.500000 0.500000
O O17 0.500000 0.551195 0.250000
#
# Coordination Sequence:
#
# PCOD9471714 Si02
#       6
#    16  16  16  16  16   8
#     4  10  20  35  52  70  95 127 165 210 255 302
#     4  10  20  34  52  73  99 131 168 210 254 301
#     4  11  23  35  49  72  98 131 170 210 256 302
#     4  11  22  35  52  73 102 136 171 211 252 300
#     4  10  20  32  47  68  95 130 172 212 252 299
#     4   8  16  30  48  68  90 120 160 204 250 294
#
# _framework density 16.242912
#
# number of rings (size 3 to 8) (size 9 to 14) (size 15 to 20)
#    0.000    1.818    1.818    2.727    1.273    5.091 
#    0.000    0.000    0.000    0.000    0.000    0.000 
#    0.000    0.727    0.000    2.364    0.000    3.455 
#
# Total GULP energy -245433.718232 kJ/mol
# GULP energy per Si atom -5578.039051 kJ/mol
# Density = 1.620594 g / cm^3
# Si number density = 16.242912 Si / 1000 Ang^3
#
#
#
# Elastic Constant Matrix: (Units=GPa)
#
#
# Indices 1 2 3 4 5 6 
#
# 1 87.7216 53.9100 16.2744 0.0000 0.0000 0.0000
# 2 53.9100 100.5214 19.3504 0.0000 0.0000 0.0000
# 3 16.2744 19.3504 29.6507 0.0000 0.0000 0.0000
# 4 0.0000 0.0000 0.0000 23.7868 0.0000 0.0000
# 5 0.0000 0.0000 0.0000 0.0000 22.0504 0.0000
# 6 0.0000 0.0000 0.0000 0.0000 0.0000 28.8279
#
#
#
# Elastic Compliance Matrix: (Units=1/GPa)
#
#
# Indices 1 2 3 4 5 6 
#
# 1 0.017401 -0.008570 -0.003958 0.000000 0.000000 0.000000
# 2 -0.008570 0.015598 -0.005476 0.000000 0.000000 0.000000
# 3 -0.003958 -0.005476 0.039472 0.000000 0.000000 0.000000
# 4 0.000000 0.000000 0.000000 0.042040 0.000000 0.000000
# 5 0.000000 0.000000 0.000000 0.000000 0.045351 0.000000
# 6 0.000000 0.000000 0.000000 0.000000 0.000000 0.034689
#
#
# Mechanical properties :
#
#
# Convention : Reuss Voigt Hill
#
# Bulk Modulus (GPa) = 27.42461 44.10702 35.76581
# Shear Modulus (GPa) = 20.60049 23.49029 22.04539
#
# Velocity S-wave (km/s) = 3.56515 3.80700 3.68806
# Velocity P-wave (km/s) = 5.81960 6.82187 6.34057
#
# Compressibility (1/GPa) = 0.03646360
#
# Stress axis : x y z
#
# Youngs Moduli (GPa) = 57.46837 64.10883 25.33450
#
# Poissons Ratio (x) = 0.54943 0.10027
# Poissons Ratio (y) = 0.49252 0.13873
# Poissons Ratio (z) = 0.22745 0.35105
#
# Static dielectric constant tensor:
#      x y z
#    x 1.558550 0.000000 0.000000 
#    y 0.000000 1.562970 0.000000 
#    z 0.000000 0.000000 1.553230 
# 
# From -- ./inp_files/6811.got.cif
#   From: 2010.05.17/outbox.cif.g08.bks.cpg/sg63_4_cif.got.tgz:6811.got - 2010.06.03 15:47:04.
