data_PCOD9471346
_publ_section_title
;
Structure prediction by ZEFSAII (Michael W. Deem and Ramdas Pophale) SiO2 
 PCOD9471346
Probable space group: C M C M
;
_chemical_formula_sum "Si O2"
_cell_formula_units_Z 120
_cell_length_a 14.090789
_cell_length_b 19.173674
_cell_length_c 19.174076
_cell_angle_alpha 90.000000
_cell_angle_beta 90.000000
_cell_angle_gamma 90.000000
_cell_volume 5180.302194
_symmetry_space_group_name_H-M "C M C M"
_symmetry_group_IT_number 63
_symmetry_cell_setting 'orthorhombic'
loop_
_space_group_symop_operation_xyz
x,y,z
-x,-y,1/2+z
x,-y,-z
-x,y,1/2-z
-x,-y,-z
x,y,1/2-z
-x,y,z
x,-y,1/2+z
1/2+x,1/2+y,z
1/2-x,1/2-y,1/2+z
1/2+x,1/2-y,-z
1/2-x,1/2+y,1/2-z
1/2-x,1/2-y,-z
1/2+x,1/2+y,1/2-z
1/2-x,1/2+y,z
1/2+x,1/2-y,1/2+z
loop_
_atom_site_type_symbol
_atom_site_label
_atom_site_fract_x
_atom_site_fract_y
_atom_site_fract_z
Si Si1 0.390437 0.539885 0.830147
Si Si2 0.874305 0.271252 0.750000
Si Si3 0.389375 0.008085 0.919524
Si Si4 0.103607 0.669120 0.628434
Si Si5 0.894535 0.124903 0.333949
Si Si6 0.813113 0.628521 0.373312
Si Si7 0.191388 0.174684 0.867755
Si Si8 0.107981 0.731134 0.022054
O O1 0.357959 0.546095 0.750000
O O2 0.500000 0.562272 0.834498
O O3 0.391109 0.458272 0.846816
O O4 0.329849 0.593204 0.874828
O O5 0.863946 0.331808 0.689547
O O6 0.876394 0.211397 0.688225
O O7 0.500000 0.985261 0.915976
O O8 0.388664 0.088133 0.894878
O O9 0.329116 0.954265 0.873118
O O10 0.358630 0.000000 0.000000
O O11 0.203323 0.685711 0.664144
O O12 0.106461 0.717115 0.559668
O O13 0.000000 0.678476 0.662618
O O14 0.887488 0.136256 0.250000
O O15 0.797478 0.150211 0.368207
O O16 0.000000 0.149706 0.355807
O O17 0.859936 0.658720 0.442895
O O18 0.175125 0.211525 0.942172
O O19 0.000000 0.748193 0.042770
#
# Coordination Sequence:
#
# PCOD9471346 Si02
#       8
#    16   8  16  16  16  16  16  16
#     4   9  17  31  53  80 106 139 183 231 283 342
#     4  10  24  36  52  84 118 148 194 240 294 360
#     4  10  19  35  60  89 119 156 199 244 300 358
#     4  10  21  38  59  85 114 154 204 243 284 345
#     4   9  18  33  55  80 110 149 193 234 283 354
#     4  11  19  36  58  84 117 156 196 239 302 357
#     4  11  20  37  56  82 114 157 189 237 295 350
#     4  10  21  36  57  85 117 150 194 246 288 343
#
# _framework density 23.164671999999999
#
# number of rings (size 3 to 8) (size 9 to 14) (size 15 to 20)
#    0.000    2.000    2.667    2.800    0.000    0.000 
#    0.000   10.333    0.000    3.600    0.000    0.000 
#    0.000    0.000    0.000    0.000    0.000    0.000 
#
# Total GULP energy -334075.793908 kJ/mol
# GULP energy per Si atom -5567.929898 kJ/mol
# Density = 2.311195 g / cm^3
# Si number density = 23.164672 Si / 1000 Ang^3
#
#
#
# Elastic Constant Matrix: (Units=GPa)
#
#
# Indices 1 2 3 4 5 6 
#
# 1 103.2400 7.6963 1.4820 0.0000 0.0000 0.0000
# 2 7.6963 98.1467 8.0082 0.0000 0.0000 0.0000
# 3 1.4820 8.0082 38.0838 0.0000 0.0000 0.0000
# 4 0.0000 0.0000 0.0000 27.6605 0.0000 0.0000
# 5 0.0000 0.0000 0.0000 0.0000 2.7298 0.0000
# 6 0.0000 0.0000 0.0000 0.0000 0.0000 27.6672
#
#
#
# Elastic Compliance Matrix: (Units=1/GPa)
#
#
# Indices 1 2 3 4 5 6 
#
# 1 0.009745 -0.000746 -0.000222 0.000000 0.000000 0.000000
# 2 -0.000746 0.010424 -0.002163 0.000000 0.000000 0.000000
# 3 -0.000222 -0.002163 0.026721 0.000000 0.000000 0.000000
# 4 0.000000 0.000000 0.000000 0.036153 0.000000 0.000000
# 5 0.000000 0.000000 0.000000 0.000000 0.366328 0.000000
# 6 0.000000 0.000000 0.000000 0.000000 0.000000 0.036144
#
#
# Mechanical properties :
#
#
# Convention : Reuss Voigt Hill
#
# Bulk Modulus (GPa) = 24.61379 30.42707 27.52043
# Shear Modulus (GPa) = 9.89472 26.43043 18.16258
#
# Velocity S-wave (km/s) = 2.06900 3.38150 2.80315
# Velocity P-wave (km/s) = 4.04429 5.33008 4.73107
#
# Compressibility (1/GPa) = 0.04062763
#
# Stress axis : x y z
#
# Youngs Moduli (GPa) = 102.61703 95.93420 37.42328
#
# Poissons Ratio (x) = 0.07157 0.00832
# Poissons Ratio (y) = 0.07656 0.08094
# Poissons Ratio (z) = 0.02282 0.20749
#
# Static dielectric constant tensor:
#      x y z
#    x 1.960240 0.000000 0.000000 
#    y 0.000000 1.902320 0.000000 
#    z 0.000000 0.000000 1.845640 
# 
# From -- ./inp_files/54765.got.cif
#   From: 2010.05.17/outbox.cif.g08.bks.cpg/sg63_28_cif.got.tgz:54765.got - 2010.06.03 15:47:04.
