data_PCOD9471595
_publ_section_title
;
Structure prediction by ZEFSAII (Michael W. Deem and Ramdas Pophale) SiO2 
 PCOD9471595
Probable space group: C M C M
;
_chemical_formula_sum "Si O2"
_cell_formula_units_Z 60
_cell_length_a 22.995298
_cell_length_b 8.288206
_cell_length_c 14.834023
_cell_angle_alpha 90.000000
_cell_angle_beta 90.000000
_cell_angle_gamma 90.000000
_cell_volume 2827.212985
_symmetry_space_group_name_H-M "C M C M"
_symmetry_group_IT_number 63
_symmetry_cell_setting 'orthorhombic'
loop_
_space_group_symop_operation_xyz
x,y,z
-x,-y,1/2+z
x,-y,-z
-x,y,1/2-z
-x,-y,-z
x,y,1/2-z
-x,y,z
x,-y,1/2+z
1/2+x,1/2+y,z
1/2-x,1/2-y,1/2+z
1/2+x,1/2-y,-z
1/2-x,1/2+y,1/2-z
1/2-x,1/2-y,-z
1/2+x,1/2+y,1/2-z
1/2-x,1/2+y,z
1/2+x,1/2-y,1/2+z
loop_
_atom_site_type_symbol
_atom_site_label
_atom_site_fract_x
_atom_site_fract_y
_atom_site_fract_z
Si Si1 0.863533 0.000000 0.500000
Si Si2 0.165622 0.513807 0.142309
Si Si3 0.785658 0.841086 0.857583
Si Si4 0.000000 0.804832 0.250000
Si Si5 0.435975 0.211825 0.072596
O O1 0.822944 0.032101 0.414027
O O2 0.903730 0.155645 0.513485
O O3 0.155853 0.519275 0.250000
O O4 0.217822 0.636752 0.119201
O O5 0.106724 0.563868 0.093401
O O6 0.190100 0.663577 0.878541
O O7 0.790836 0.868953 0.750000
O O8 0.049603 0.792440 0.330186
O O9 0.500000 0.170192 0.035846
#
# Coordination Sequence:
#
# PCOD9471595 Si02
#       5
#     8  16  16   4  16
#     4  12  25  40  60  96 125 160 202 248 302 366
#     4  10  19  41  64  91 120 160 206 249 304 361
#     4  10  24  38  64  92 124 160 199 253 305 358
#     4   8  20  38  68  88 110 172 196 248 298 352
#     4  10  21  39  65  88 119 159 204 247 297 357
#
# _framework density 21.222313
#
# number of rings (size 3 to 8) (size 9 to 14) (size 15 to 20)
#    0.800    1.067    1.333    2.000    1.867    7.467 
#    0.000    4.000    0.000    4.800    0.000    0.000 
#    0.000    0.000    0.000    0.000    0.000    0.000 
#
# Total GULP energy -167091.485218 kJ/mol
# GULP energy per Si atom -5569.716174 kJ/mol
# Density = 2.117401 g / cm^3
# Si number density = 21.222313 Si / 1000 Ang^3
#
#
#
# Elastic Constant Matrix: (Units=GPa)
#
#
# Indices 1 2 3 4 5 6 
#
# 1 169.1854 61.2892 33.6581 0.0000 0.0000 0.0000
# 2 61.2892 86.7517 14.0769 0.0000 0.0000 0.0000
# 3 33.6581 14.0769 59.7656 0.0000 0.0000 0.0000
# 4 0.0000 0.0000 0.0000 25.9350 0.0000 0.0000
# 5 0.0000 0.0000 0.0000 0.0000 13.7088 0.0000
# 6 0.0000 0.0000 0.0000 0.0000 0.0000 8.4998
#
#
#
# Elastic Compliance Matrix: (Units=1/GPa)
#
#
# Indices 1 2 3 4 5 6 
#
# 1 0.008613 -0.005508 -0.003553 0.000000 0.000000 0.000000
# 2 -0.005508 0.015508 -0.000551 0.000000 0.000000 0.000000
# 3 -0.003553 -0.000551 0.018863 0.000000 0.000000 0.000000
# 4 0.000000 0.000000 0.000000 0.038558 0.000000 0.000000
# 5 0.000000 0.000000 0.000000 0.000000 0.072946 0.000000
# 6 0.000000 0.000000 0.000000 0.000000 0.000000 0.117650
#
#
# Mechanical properties :
#
#
# Convention : Reuss Voigt Hill
#
# Bulk Modulus (GPa) = 42.08820 59.30570 50.69695
# Shear Modulus (GPa) = 16.70663 23.40727 20.05695
#
# Velocity S-wave (km/s) = 2.80879 3.32468 3.07756
# Velocity P-wave (km/s) = 5.51309 6.53786 6.04722
#
# Compressibility (1/GPa) = 0.02375963
#
# Stress axis : x y z
#
# Youngs Moduli (GPa) = 116.10283 64.48220 53.01456
#
# Poissons Ratio (x) = 0.35520 0.18837
# Poissons Ratio (y) = 0.63955 0.02919
# Poissons Ratio (z) = 0.41253 0.03550
#
# Static dielectric constant tensor:
#      x y z
#    x 1.755460 0.000000 0.000000 
#    y 0.000000 1.762120 0.000000 
#    z 0.000000 0.000000 1.738440 
# 
# From -- ./inp_files/23565.got.cif
#   From: 2010.05.17/outbox.cif.g08.bks.cpg/sg63_12_cif.got.tgz:23565.got - 2010.06.03 15:47:04.
