data_PCOD9471201
_publ_section_title
;
Structure prediction by ZEFSAII (Michael W. Deem and Ramdas Pophale) SiO2 
 PCOD9471201
Probable space group: C M C M
;
_chemical_formula_sum "Si O2"
_cell_formula_units_Z 56
_cell_length_a 27.549510
_cell_length_b 16.257766
_cell_length_c 5.530654
_cell_angle_alpha 90.000000
_cell_angle_beta 90.000000
_cell_angle_gamma 90.000000
_cell_volume 2477.143905
_symmetry_space_group_name_H-M "C M C M"
_symmetry_group_IT_number 63
_symmetry_cell_setting 'orthorhombic'
loop_
_space_group_symop_operation_xyz
x,y,z
-x,-y,1/2+z
x,-y,-z
-x,y,1/2-z
-x,-y,-z
x,y,1/2-z
-x,y,z
x,-y,1/2+z
1/2+x,1/2+y,z
1/2-x,1/2-y,1/2+z
1/2+x,1/2-y,-z
1/2-x,1/2+y,1/2-z
1/2-x,1/2-y,-z
1/2+x,1/2+y,1/2-z
1/2-x,1/2+y,z
1/2+x,1/2-y,1/2+z
loop_
_atom_site_type_symbol
_atom_site_label
_atom_site_fract_x
_atom_site_fract_y
_atom_site_fract_z
Si Si1 0.718136 0.551339 0.250000
Si Si2 0.941599 0.863470 0.250000
Si Si3 0.054606 0.469257 0.250000
Si Si4 0.895412 0.681912 0.750000
Si Si5 0.607645 0.380187 0.750000
Si Si6 0.625389 0.791293 0.750000
Si Si7 0.271424 0.219370 0.250000
O O1 0.722161 0.500000 0.500000
O O2 0.663329 0.590589 0.250000
O O3 0.759303 0.622243 0.250000
O O4 0.919618 0.901796 0.497676
O O5 0.921424 0.768206 0.250000
O O6 0.000000 0.865690 0.250000
O O7 0.076901 0.500000 0.500000
O O8 0.055556 0.370377 0.250000
O O9 0.000000 0.503275 0.250000
O O10 0.894983 0.780179 0.750000
O O11 0.871494 0.658996 0.497123
O O12 0.674757 0.741290 0.750000
O O13 0.250000 0.250000 0.500000
#
# Coordination Sequence:
#
# PCOD9471201 Si02
#       7
#     8   8   8   8   8   8   8
#     4  12  26  46  73 103 138 179 225 283 359 428
#     4  10  19  34  60  96 131 166 216 271 324 379
#     4  10  21  37  56  83 121 166 217 271 328 388
#     4  10  20  36  58  86 121 166 213 259 319 382
#     4  10  21  39  62  93 126 168 223 278 327 389
#     4  10  21  35  57  91 126 159 204 268 323 377
#     4  12  23  43  72 102 135 172 224 280 340 413
#
# _framework density 22.606679
#
# number of rings (size 3 to 8) (size 9 to 14) (size 15 to 20)
#    0.000    1.429    0.000    7.286    0.000    4.571 
#    0.000    5.714    0.000    8.571    0.000    0.000 
#    0.000    0.000    0.000    0.000    0.000    0.000 
#
# Total GULP energy -155932.644656 kJ/mol
# GULP energy per Si atom -5569.023023 kJ/mol
# Density = 2.255523 g / cm^3
# Si number density = 22.606679 Si / 1000 Ang^3
#
#
#
# Elastic Constant Matrix: (Units=GPa)
#
#
# Indices 1 2 3 4 5 6 
#
# 1 55.9657 6.3763 19.7625 0.0000 0.0000 0.0000
# 2 6.3763 105.5917 33.9208 0.0000 0.0000 0.0000
# 3 19.7625 33.9208 257.6467 0.0000 0.0000 0.0000
# 4 0.0000 0.0000 0.0000 45.6191 0.0000 0.0000
# 5 0.0000 0.0000 0.0000 0.0000 -111.8481 0.0000
# 6 0.0000 0.0000 0.0000 0.0000 0.0000 24.4710
#
#
#
# Elastic Compliance Matrix: (Units=1/GPa)
#
#
# Indices 1 2 3 4 5 6 
#
# 1 0.018413 -0.000687 -0.001322 0.000000 0.000000 0.000000
# 2 -0.000687 0.009914 -0.001253 0.000000 0.000000 0.000000
# 3 -0.001322 -0.001253 0.004148 0.000000 0.000000 0.000000
# 4 0.000000 0.000000 0.000000 0.021921 0.000000 0.000000
# 5 0.000000 0.000000 0.000000 0.000000 -0.008941 0.000000
# 6 0.000000 0.000000 0.000000 0.000000 0.000000 0.040865
#
#
# Mechanical properties :
#
#
# Convention : Reuss Voigt Hill
#
# Bulk Modulus (GPa) = 38.53317 59.92481 49.22899
# Shear Modulus (GPa) = 49.26416 15.59137 32.42776
#
# Velocity S-wave (km/s) = 4.67324 2.62902 3.79150
# Velocity P-wave (km/s) = 6.79713 5.98171 6.40241
#
# Compressibility (1/GPa) = 0.02595167
#
# Stress axis : x y z
#
# Youngs Moduli (GPa) = 54.30898 100.86413 241.10414
#
# Poissons Ratio (x) = 0.06932 0.31871
# Poissons Ratio (y) = 0.03732 0.30200
# Poissons Ratio (z) = 0.07179 0.12634
#
# Static dielectric constant tensor:
#      x y z
#    x 1.860810 0.000000 0.000000 
#    y 0.000000 1.890150 0.000000 
#    z 0.000000 0.000000 1.910230 
# 
# From -- ./inp_files/1245.got.cif
#   From: 2010.05.17/outbox.cif.g08.bks.cpg/sg63_1_cif.got.tgz:1245.got - 2010.06.03 15:47:04.
