data_PCOD9471832
_publ_section_title
;
Structure prediction by ZEFSAII (Michael W. Deem and Ramdas Pophale) SiO2 
 PCOD9471832
Probable space group: C M C M
;
_chemical_formula_sum "Si O2"
_cell_formula_units_Z 80
_cell_length_a 24.496501
_cell_length_b 9.584498
_cell_length_c 19.566174
_cell_angle_alpha 90.000000
_cell_angle_beta 90.000000
_cell_angle_gamma 90.000000
_cell_volume 4593.876737
_symmetry_space_group_name_H-M "C M C M"
_symmetry_group_IT_number 63
_symmetry_cell_setting 'orthorhombic'
loop_
_space_group_symop_operation_xyz
x,y,z
-x,-y,1/2+z
x,-y,-z
-x,y,1/2-z
-x,-y,-z
x,y,1/2-z
-x,y,z
x,-y,1/2+z
1/2+x,1/2+y,z
1/2-x,1/2-y,1/2+z
1/2+x,1/2-y,-z
1/2-x,1/2+y,1/2-z
1/2-x,1/2-y,-z
1/2+x,1/2+y,1/2-z
1/2-x,1/2+y,z
1/2+x,1/2-y,1/2+z
loop_
_atom_site_type_symbol
_atom_site_label
_atom_site_fract_x
_atom_site_fract_y
_atom_site_fract_z
Si Si1 0.370982 0.185556 0.427179
Si Si2 0.563493 0.377297 0.171129
Si Si3 0.718704 0.419454 0.430956
Si Si4 0.153358 0.371479 0.421207
Si Si5 0.343146 0.393454 0.670465
O O1 0.417059 0.264394 0.384248
O O2 0.316768 0.280684 0.419159
O O3 0.377508 0.172973 0.509171
O O4 0.363830 0.027695 0.401728
O O5 0.571203 0.327978 0.250000
O O6 0.500000 0.412151 0.162419
O O7 0.603142 0.510036 0.162661
O O8 0.700952 0.500000 0.500000
O O9 0.781996 0.382275 0.437649
O O10 0.704738 0.525070 0.369639
O O11 0.146728 0.254933 0.364210
O O12 0.330202 0.379882 0.750000
#
# Coordination Sequence:
#
# PCOD9471832 Si02
#       5
#    16  16  16  16  16
#     4  10  20  32  56  86 108 145 192 223 270 337
#     4   9  20  41  62  77 102 143 189 238 288 336
#     4  11  18  34  59  78 109 158 192 215 262 329
#     4  11  20  33  53  83 119 149 176 224 279 331
#     4  10  22  36  54  82 111 144 189 235 276 330
#
# _framework density 17.414487000000001
#
# number of rings (size 3 to 8) (size 9 to 14) (size 15 to 20)
#    0.000    1.800    4.000    1.800    0.000    1.600 
#    0.000    9.000    0.000    2.400    0.000    0.000 
#    0.000    0.000    0.000    0.000    0.000    0.000 
#
# Total GULP energy -223155.267268 kJ/mol
# GULP energy per Si atom -5578.881682 kJ/mol
# Density = 1.737485 g / cm^3
# Si number density = 17.414487 Si / 1000 Ang^3
#
#
#
# Elastic Constant Matrix: (Units=GPa)
#
#
# Indices 1 2 3 4 5 6 
#
# 1 52.0398 5.0431 30.0638 0.0000 0.0000 0.0000
# 2 5.0431 114.6864 71.9610 0.0000 0.0000 0.0000
# 3 30.0638 71.9610 120.6730 0.0000 0.0000 0.0000
# 4 0.0000 0.0000 0.0000 31.2759 0.0000 0.0000
# 5 0.0000 0.0000 0.0000 0.0000 23.7844 0.0000
# 6 0.0000 0.0000 0.0000 0.0000 0.0000 -5.8064
#
#
#
# Elastic Compliance Matrix: (Units=1/GPa)
#
#
# Indices 1 2 3 4 5 6 
#
# 1 0.023676 0.004250 -0.008433 0.000000 0.000000 0.000000
# 2 0.004250 0.014696 -0.009822 0.000000 0.000000 0.000000
# 3 -0.008433 -0.009822 0.016245 0.000000 0.000000 0.000000
# 4 0.000000 0.000000 0.000000 0.031973 0.000000 0.000000
# 5 0.000000 0.000000 0.000000 0.000000 0.042044 0.000000
# 6 0.000000 0.000000 0.000000 0.000000 0.000000 -0.172222
#
#
# Mechanical properties :
#
#
# Convention : Reuss Voigt Hill
#
# Bulk Modulus (GPa) = 37.58467 55.72611 46.65539
# Shear Modulus (GPa) = -745.32435 21.87287 -361.72574
#
# Velocity S-wave (km/s) = -20.71039 3.54788 -14.42797
# Velocity P-wave (km/s) = 23.45771 6.98946 15.83369
#
# Compressibility (1/GPa) = 0.02660660
#
# Stress axis : x y z
#
# Youngs Moduli (GPa) = 42.23681 68.04727 61.55663
#
# Poissons Ratio (x) = -0.28922 0.51911
# Poissons Ratio (y) = -0.17952 0.60463
# Poissons Ratio (z) = 0.35619 0.66839
#
# Static dielectric constant tensor:
#      x y z
#    x 1.565340 0.000000 0.000000 
#    y 0.000000 1.595460 0.000000 
#    z 0.000000 0.000000 1.596790 
# 
# From -- ./inp_files/48784.got.cif
#   From: 2010.05.17/outbox.cif.g08.bks.cpg/sg63_25_cif.got.tgz:48784.got - 2010.06.03 15:47:04.
