data_PCOD9471299
_publ_section_title
;
Structure prediction by ZEFSAII (Michael W. Deem and Ramdas Pophale) SiO2 
 PCOD9471299
Probable space group: C M C M
;
_chemical_formula_sum "Si O2"
_cell_formula_units_Z 112
_cell_length_a 23.823611
_cell_length_b 12.260691
_cell_length_c 19.499993
_cell_angle_alpha 90.000000
_cell_angle_beta 90.000000
_cell_angle_gamma 90.000000
_cell_volume 5695.829648
_symmetry_space_group_name_H-M "C M C M"
_symmetry_group_IT_number 63
_symmetry_cell_setting 'orthorhombic'
loop_
_space_group_symop_operation_xyz
x,y,z
-x,-y,1/2+z
x,-y,-z
-x,y,1/2-z
-x,-y,-z
x,y,1/2-z
-x,y,z
x,-y,1/2+z
1/2+x,1/2+y,z
1/2-x,1/2-y,1/2+z
1/2+x,1/2-y,-z
1/2-x,1/2+y,1/2-z
1/2-x,1/2-y,-z
1/2+x,1/2+y,1/2-z
1/2-x,1/2+y,z
1/2+x,1/2-y,1/2+z
loop_
_atom_site_type_symbol
_atom_site_label
_atom_site_fract_x
_atom_site_fract_y
_atom_site_fract_z
Si Si1 0.682449 0.876186 0.514286
Si Si2 0.247773 0.781119 0.107938
Si Si3 0.935870 0.602168 0.426451
Si Si4 0.938237 0.808357 0.172414
Si Si5 0.668154 0.460647 0.331571
Si Si6 0.934027 0.390478 0.168656
Si Si7 0.149323 0.799382 0.672181
O O1 0.707920 0.805665 0.452701
O O2 0.707703 0.817149 0.582114
O O3 0.615120 0.881934 0.520981
O O4 0.701610 0.000000 0.500000
O O5 0.212921 0.888176 0.127554
O O6 0.288149 0.749111 0.169967
O O7 0.933843 0.708198 0.378601
O O8 0.924711 0.496800 0.378366
O O9 0.000000 0.595195 0.453762
O O10 0.934011 0.764660 0.250000
O O11 0.889720 0.894964 0.163323
O O12 0.000000 0.859007 0.164735
O O13 0.683810 0.466820 0.250000
O O14 0.657037 0.581484 0.360520
O O15 0.922266 0.413456 0.250000
O O16 0.894765 0.290098 0.145934
O O17 0.000000 0.362560 0.163634
O O18 0.130434 0.820524 0.750000
#
# Coordination Sequence:
#
# PCOD9471299 Si02
#       7
#    16  16  16  16  16  16  16
#     4  11  23  37  56  79 106 149 195 234 282 333
#     4  11  22  39  55  76 113 150 191 238 279 334
#     4  10  19  35  58  84 113 144 187 238 286 338
#     4   9  17  31  55  86 115 142 176 225 285 339
#     4  10  20  36  59  86 114 146 187 231 280 337
#     4   9  18  33  55  85 119 151 182 226 289 351
#     4  10  21  36  56  82 111 144 183 229 281 340
#
# _framework density 19.663509000000001
#
# number of rings (size 3 to 8) (size 9 to 14) (size 15 to 20)
#    0.000    2.000    1.429    2.571    0.000    2.571 
#    0.000    5.000    0.000    0.000    0.000    2.000 
#    0.000    0.000    0.000    0.000    0.000    0.000 
#
# Total GULP energy -312271.041087 kJ/mol
# GULP energy per Si atom -5576.268591 kJ/mol
# Density = 1.961875 g / cm^3
# Si number density = 19.663509 Si / 1000 Ang^3
#
#
#
# Elastic Constant Matrix: (Units=GPa)
#
#
# Indices 1 2 3 4 5 6 
#
# 1 116.3413 47.5301 39.3644 0.0000 0.0000 0.0000
# 2 47.5301 85.7204 9.6136 0.0000 0.0000 0.0000
# 3 39.3644 9.6136 38.1509 0.0000 0.0000 0.0000
# 4 0.0000 0.0000 0.0000 18.3358 0.0000 0.0000
# 5 0.0000 0.0000 0.0000 0.0000 25.7666 0.0000
# 6 0.0000 0.0000 0.0000 0.0000 0.0000 11.5588
#
#
#
# Elastic Compliance Matrix: (Units=1/GPa)
#
#
# Indices 1 2 3 4 5 6 
#
# 1 0.017023 -0.007686 -0.015628 0.000000 0.000000 0.000000
# 2 -0.007686 0.015476 0.004031 0.000000 0.000000 0.000000
# 3 -0.015628 0.004031 0.041321 0.000000 0.000000 0.000000
# 4 0.000000 0.000000 0.000000 0.054538 0.000000 0.000000
# 5 0.000000 0.000000 0.000000 0.000000 0.038810 0.000000
# 6 0.000000 0.000000 0.000000 0.000000 0.000000 0.086514
#
#
# Mechanical properties :
#
#
# Convention : Reuss Voigt Hill
#
# Bulk Modulus (GPa) = 28.36586 48.13652 38.25119
# Shear Modulus (GPa) = 16.44741 20.71256 18.57999
#
# Velocity S-wave (km/s) = 2.89527 3.24906 3.07725
# Velocity P-wave (km/s) = 5.06298 6.21357 5.66755
#
# Compressibility (1/GPa) = 0.03525364
#
# Stress axis : x y z
#
# Youngs Moduli (GPa) = 58.74288 64.61752 24.20085
#
# Poissons Ratio (x) = 0.49668 0.37821
# Poissons Ratio (y) = 0.45152 -0.09756
# Poissons Ratio (z) = 0.91803 -0.26049
#
# Static dielectric constant tensor:
#      x y z
#    x 1.692190 0.000000 0.000000 
#    y 0.000000 1.672240 0.000000 
#    z 0.000000 0.000000 1.748720 
# 
# From -- ./inp_files/57639.got.cif
#   From: 2010.05.17/outbox.cif.g08.bks.cpg/sg63_29_cif.got.tgz:57639.got - 2010.06.03 15:47:04.
