data_PCOD9471618
_publ_section_title
;
Structure prediction by ZEFSAII (Michael W. Deem and Ramdas Pophale) SiO2 
 PCOD9471618
Probable space group: C M C M
;
_chemical_formula_sum "Si O2"
_cell_formula_units_Z 80
_cell_length_a 7.348788
_cell_length_b 18.953590
_cell_length_c 27.590955
_cell_angle_alpha 90.000000
_cell_angle_beta 90.000000
_cell_angle_gamma 90.000000
_cell_volume 3843.031406
_symmetry_space_group_name_H-M "C M C M"
_symmetry_group_IT_number 63
_symmetry_cell_setting 'orthorhombic'
loop_
_space_group_symop_operation_xyz
x,y,z
-x,-y,1/2+z
x,-y,-z
-x,y,1/2-z
-x,-y,-z
x,y,1/2-z
-x,y,z
x,-y,1/2+z
1/2+x,1/2+y,z
1/2-x,1/2-y,1/2+z
1/2+x,1/2-y,-z
1/2-x,1/2+y,1/2-z
1/2-x,1/2-y,-z
1/2+x,1/2+y,1/2-z
1/2-x,1/2+y,z
1/2+x,1/2-y,1/2+z
loop_
_atom_site_type_symbol
_atom_site_label
_atom_site_fract_x
_atom_site_fract_y
_atom_site_fract_z
Si Si1 0.287573 0.077962 0.995276
Si Si2 0.222593 0.326137 0.407797
Si Si3 0.719050 0.172179 0.698000
Si Si4 0.219208 0.159061 0.197872
Si Si5 0.719858 0.337415 0.592339
O O1 0.500000 0.068954 0.982714
O O2 0.276540 0.117577 0.046383
O O3 0.212464 0.126545 0.952214
O O4 0.207410 0.000000 0.000000
O O5 0.281432 0.353566 0.354623
O O6 0.278089 0.244276 0.413301
O O7 0.000000 0.325055 0.407783
O O8 0.786920 0.144235 0.750000
O O9 0.500000 0.164173 0.698540
O O10 0.754193 0.256544 0.697663
O O11 0.286681 0.131183 0.250000
O O12 0.282933 0.134143 0.145036
O O13 0.000000 0.150813 0.198387
O O14 0.500000 0.337075 0.593369
#
# Coordination Sequence:
#
# PCOD9471618 Si02
#       5
#    16  16  16  16  16
#     4  10  20  31  41  55  83 120 145 165 203 251
#     4   8  14  25  41  61  82 104 134 170 207 246
#     4   7   9  15  31  56  81  99 120 160 208 243
#     4   7  10  18  35  61  86 100 116 155 211 253
#     4   9  16  27  46  67  82 100 134 178 209 235
#
# _framework density 20.8169
#
# number of rings (size 3 to 8) (size 9 to 14) (size 15 to 20)
#    0.000    3.800    0.000    4.200    0.000    0.400 
#    0.000    0.000    0.000    1.800    0.000    2.800 
#    0.000    2.400    0.000    0.000    0.000    0.000 
#
# Total GULP energy -222682.338484 kJ/mol
# GULP energy per Si atom -5567.058462 kJ/mol
# Density = 2.076952 g / cm^3
# Si number density = 20.816900 Si / 1000 Ang^3
#
#
#
# Elastic Constant Matrix: (Units=GPa)
#
#
# Indices 1 2 3 4 5 6 
#
# 1 70.4106 -0.3272 -11.0708 0.0000 0.0000 0.0000
# 2 -0.3272 63.8541 73.5162 0.0000 0.0000 0.0000
# 3 -11.0708 73.5162 235.0769 0.0000 0.0000 0.0000
# 4 0.0000 0.0000 0.0000 -6.5707 0.0000 0.0000
# 5 0.0000 0.0000 0.0000 0.0000 3.6325 0.0000
# 6 0.0000 0.0000 0.0000 0.0000 0.0000 13.2188
#
#
#
# Elastic Compliance Matrix: (Units=1/GPa)
#
#
# Indices 1 2 3 4 5 6 
#
# 1 0.014358 -0.001102 0.001021 0.000000 0.000000 0.000000
# 2 -0.001102 0.024556 -0.007731 0.000000 0.000000 0.000000
# 3 0.001021 -0.007731 0.006720 0.000000 0.000000 0.000000
# 4 0.000000 0.000000 0.000000 -0.152190 0.000000 0.000000
# 5 0.000000 0.000000 0.000000 0.000000 0.275289 0.000000
# 6 0.000000 0.000000 0.000000 0.000000 0.000000 0.075650
#
#
# Mechanical properties :
#
#
# Convention : Reuss Voigt Hill
#
# Bulk Modulus (GPa) = 33.32290 54.84199 44.08245
# Shear Modulus (GPa) = 18.51775 22.53768 20.52771
#
# Velocity S-wave (km/s) = 2.98577 3.29395 3.14364
# Velocity P-wave (km/s) = 5.28477 6.39288 5.86506
#
# Compressibility (1/GPa) = 0.03000939
#
# Stress axis : x y z
#
# Youngs Moduli (GPa) = 69.64869 40.72258 148.81233
#
# Poissons Ratio (x) = 0.04486 -0.15189
# Poissons Ratio (y) = 0.07672 1.15054
# Poissons Ratio (z) = -0.07109 0.31485
#
# Static dielectric constant tensor:
#      x y z
#    x 1.823030 0.000000 0.000000 
#    y 0.000000 1.686020 0.000000 
#    z 0.000000 0.000000 1.806120 
# 
# From -- ./inp_files/66572.got.cif
#   From: 2010.05.17/outbox.cif.g08.bks.cpg/sg63_34_cif.got.tgz:66572.got - 2010.06.03 15:47:04.
