data_PCOD9471306
_publ_section_title
;
Structure prediction by ZEFSAII (Michael W. Deem and Ramdas Pophale) SiO2 
 PCOD9471306
Probable space group: C M C M
;
_chemical_formula_sum "Si O2"
_cell_formula_units_Z 56
_cell_length_a 18.237275
_cell_length_b 18.405962
_cell_length_c 8.566783
_cell_angle_alpha 90.000000
_cell_angle_beta 90.000000
_cell_angle_gamma 90.000000
_cell_volume 2875.651377
_symmetry_space_group_name_H-M "C M C M"
_symmetry_group_IT_number 63
_symmetry_cell_setting 'orthorhombic'
loop_
_space_group_symop_operation_xyz
x,y,z
-x,-y,1/2+z
x,-y,-z
-x,y,1/2-z
-x,-y,-z
x,y,1/2-z
-x,y,z
x,-y,1/2+z
1/2+x,1/2+y,z
1/2-x,1/2-y,1/2+z
1/2+x,1/2-y,-z
1/2-x,1/2+y,1/2-z
1/2-x,1/2-y,-z
1/2+x,1/2+y,1/2-z
1/2-x,1/2+y,z
1/2+x,1/2-y,1/2+z
loop_
_atom_site_type_symbol
_atom_site_label
_atom_site_fract_x
_atom_site_fract_y
_atom_site_fract_z
Si Si1 0.842302 0.418245 0.438269
Si Si2 0.414698 0.580254 0.563006
Si Si3 0.713702 0.676741 0.066598
Si Si4 0.500000 0.917635 0.436991
O O1 0.845751 0.500000 0.500000
O O2 0.832691 0.415601 0.250000
O O3 0.775492 0.381840 0.524991
O O4 0.921829 0.383414 0.480065
O O5 0.392474 0.500000 0.500000
O O6 0.411078 0.577711 0.750000
O O7 0.500000 0.591736 0.516054
O O8 0.361196 0.643976 0.504368
O O9 0.703009 0.685764 0.250000
O O10 0.750000 0.750000 0.000000
O O11 0.500000 0.922938 0.250000
O O12 0.500000 0.000000 0.500000
#
# Coordination Sequence:
#
# PCOD9471306 Si02
#       4
#    16  16  16   8
#     4  10  19  35  58  85 115 151 194 241 288 343
#     4  10  21  40  67  96 124 157 202 254 306 362
#     4  12  25  41  59  84 119 159 200 246 302 362
#     4   8  16  30  52  80 110 142 181 226 273 324
#
# _framework density 19.473848
#
# number of rings (size 3 to 8) (size 9 to 14) (size 15 to 20)
#    0.000    1.714    0.000    5.143    0.000    2.857 
#    2.571    0.000    0.000    0.000    0.000    0.000 
#    0.000    0.000    0.000    0.000    0.000    0.000 
#
# Total GULP energy -156175.697010 kJ/mol
# GULP energy per Si atom -5577.703465 kJ/mol
# Density = 1.942952 g / cm^3
# Si number density = 19.473848 Si / 1000 Ang^3
#
#
#
# Elastic Constant Matrix: (Units=GPa)
#
#
# Indices 1 2 3 4 5 6 
#
# 1 120.4740 54.4415 32.9544 0.0000 0.0000 0.0000
# 2 54.4415 84.0357 28.9080 0.0000 0.0000 0.0000
# 3 32.9544 28.9080 77.7631 0.0000 0.0000 0.0000
# 4 0.0000 0.0000 0.0000 33.0646 0.0000 0.0000
# 5 0.0000 0.0000 0.0000 0.0000 22.0077 0.0000
# 6 0.0000 0.0000 0.0000 0.0000 0.0000 20.4415
#
#
#
# Elastic Compliance Matrix: (Units=1/GPa)
#
#
# Indices 1 2 3 4 5 6 
#
# 1 0.012162 -0.007002 -0.002551 0.000000 0.000000 0.000000
# 2 -0.007002 0.017675 -0.003604 0.000000 0.000000 0.000000
# 3 -0.002551 -0.003604 0.015280 0.000000 0.000000 0.000000
# 4 0.000000 0.000000 0.000000 0.030244 0.000000 0.000000
# 5 0.000000 0.000000 0.000000 0.000000 0.045439 0.000000
# 6 0.000000 0.000000 0.000000 0.000000 0.000000 0.048920
#
#
# Mechanical properties :
#
#
# Convention : Reuss Voigt Hill
#
# Bulk Modulus (GPa) = 53.17735 57.20895 55.19315
# Shear Modulus (GPa) = 24.71554 26.16735 25.44144
#
# Velocity S-wave (km/s) = 3.56640 3.66965 3.61839
# Velocity P-wave (km/s) = 6.65772 6.88449 6.77206
#
# Compressibility (1/GPa) = 0.01880500
#
# Stress axis : x y z
#
# Youngs Moduli (GPa) = 82.22035 56.57642 65.44339
#
# Poissons Ratio (x) = 0.39613 0.16697
# Poissons Ratio (y) = 0.57568 0.23583
# Poissons Ratio (z) = 0.20978 0.20387
#
# Static dielectric constant tensor:
#      x y z
#    x 1.749800 0.000000 0.000000 
#    y 0.000000 1.877840 0.000000 
#    z 0.000000 0.000000 1.659350 
# 
# From -- ./inp_files/5512.got.cif
#   From: 2010.05.17/outbox.cif.g08.bks.cpg/sg63_3_cif.got.tgz:5512.got - 2010.06.03 15:47:04.
