data_PCOD9471723
_publ_section_title
;
Structure prediction by ZEFSAII (Michael W. Deem and Ramdas Pophale) SiO2 
 PCOD9471723
Probable space group: C M C M
;
_chemical_formula_sum "Si O2"
_cell_formula_units_Z 80
_cell_length_a 7.527625
_cell_length_b 28.272829
_cell_length_c 18.922456
_cell_angle_alpha 90.000000
_cell_angle_beta 90.000000
_cell_angle_gamma 90.000000
_cell_volume 4027.214357
_symmetry_space_group_name_H-M "C M C M"
_symmetry_group_IT_number 63
_symmetry_cell_setting 'orthorhombic'
loop_
_space_group_symop_operation_xyz
x,y,z
-x,-y,1/2+z
x,-y,-z
-x,y,1/2-z
-x,-y,-z
x,y,1/2-z
-x,y,z
x,-y,1/2+z
1/2+x,1/2+y,z
1/2-x,1/2-y,1/2+z
1/2+x,1/2-y,-z
1/2-x,1/2+y,1/2-z
1/2-x,1/2-y,-z
1/2+x,1/2+y,1/2-z
1/2-x,1/2+y,z
1/2+x,1/2-y,1/2+z
loop_
_atom_site_type_symbol
_atom_site_label
_atom_site_fract_x
_atom_site_fract_y
_atom_site_fract_z
Si Si1 0.290742 0.724315 0.097857
Si Si2 0.217346 0.572005 0.960168
Si Si3 0.787899 0.682733 0.250000
Si Si4 0.217735 0.574215 0.250000
Si Si5 0.716383 0.024284 0.393275
Si Si6 0.294830 0.176515 0.956915
O O1 0.500000 0.724991 0.081601
O O2 0.266933 0.708617 0.178060
O O3 0.210083 0.688301 0.040631
O O4 0.218098 0.776928 0.081088
O O5 0.271172 0.529822 0.907719
O O6 0.000000 0.573318 0.960273
O O7 0.270348 0.555121 0.038676
O O8 0.282869 0.624675 0.944160
O O9 0.722870 0.628604 0.250000
O O10 0.000000 0.681121 0.250000
O O11 0.276010 0.547256 0.320510
O O12 0.000000 0.574449 0.250000
O O13 0.500000 0.024391 0.392853
O O14 0.500000 0.173923 0.934037
#
# Coordination Sequence:
#
# PCOD9471723 Si02
#       6
#    16  16   8   8  16  16
#     4  10  20  32  47  70  98 124 155 195 232 270
#     4   8  13  23  40  62  89 118 144 178 226 273
#     4  11  21  33  50  69  93 125 157 191 234 281
#     4   9  16  25  40  65  91 113 143 187 234 275
#     4   8  13  21  36  62  92 114 139 181 229 271
#     4   9  17  31  50  70  94 125 158 190 229 277
#
# _framework density 19.864847000000001
#
# number of rings (size 3 to 8) (size 9 to 14) (size 15 to 20)
#    0.000    3.000    0.000    3.300    0.000    4.000 
#    0.000    1.000    0.000    4.800    0.000   12.600 
#    0.000    0.000    0.000    0.000    0.000    0.000 
#
# Total GULP energy -223105.185283 kJ/mol
# GULP energy per Si atom -5577.629632 kJ/mol
# Density = 1.981963 g / cm^3
# Si number density = 19.864847 Si / 1000 Ang^3
#
#
#
# Elastic Constant Matrix: (Units=GPa)
#
#
# Indices 1 2 3 4 5 6 
#
# 1 53.6645 3.6560 -7.3319 0.0000 0.0000 0.0000
# 2 3.6560 173.9691 72.4811 0.0000 0.0000 0.0000
# 3 -7.3319 72.4811 127.2784 0.0000 0.0000 0.0000
# 4 0.0000 0.0000 0.0000 16.1467 0.0000 0.0000
# 5 0.0000 0.0000 0.0000 0.0000 10.2191 0.0000
# 6 0.0000 0.0000 0.0000 0.0000 0.0000 4.2893
#
#
#
# Elastic Compliance Matrix: (Units=1/GPa)
#
#
# Indices 1 2 3 4 5 6 
#
# 1 0.018947 -0.001118 0.001728 0.000000 0.000000 0.000000
# 2 -0.001118 0.007602 -0.004394 0.000000 0.000000 0.000000
# 3 0.001728 -0.004394 0.010458 0.000000 0.000000 0.000000
# 4 0.000000 0.000000 0.000000 0.061932 0.000000 0.000000
# 5 0.000000 0.000000 0.000000 0.000000 0.097856 0.000000
# 6 0.000000 0.000000 0.000000 0.000000 0.000000 0.233140
#
#
# Mechanical properties :
#
#
# Convention : Reuss Voigt Hill
#
# Bulk Modulus (GPa) = 33.96750 54.72471 44.34610
# Shear Modulus (GPa) = 11.17780 25.20481 18.19130
#
# Velocity S-wave (km/s) = 2.37469 3.56591 3.02942
# Velocity P-wave (km/s) = 4.96541 6.67552 5.88294
#
# Compressibility (1/GPa) = 0.02943991
#
# Stress axis : x y z
#
# Youngs Moduli (GPa) = 52.77996 131.54152 95.61727
#
# Poissons Ratio (x) = 0.14709 -0.16524
# Poissons Ratio (y) = 0.05902 0.42010
# Poissons Ratio (z) = -0.09121 0.57794
#
# Static dielectric constant tensor:
#      x y z
#    x 1.788320 0.000000 0.000000 
#    y 0.000000 1.717630 0.000000 
#    z 0.000000 0.000000 1.659650 
# 
# From -- ./inp_files/40739.got.cif
#   From: 2010.05.17/outbox.cif.g08.bks.cpg/sg63_21_cif.got.tgz:40739.got - 2010.06.03 15:47:04.
