data_PCOD9471839
_publ_section_title
;
Structure prediction by ZEFSAII (Michael W. Deem and Ramdas Pophale) SiO2 
 PCOD9471839
Probable space group: C M C M
;
_chemical_formula_sum "Si O2"
_cell_formula_units_Z 116
_cell_length_a 26.589235
_cell_length_b 13.566999
_cell_length_c 16.020282
_cell_angle_alpha 90.000000
_cell_angle_beta 90.000000
_cell_angle_gamma 90.000000
_cell_volume 5779.094445
_symmetry_space_group_name_H-M "C M C M"
_symmetry_group_IT_number 63
_symmetry_cell_setting 'orthorhombic'
loop_
_space_group_symop_operation_xyz
x,y,z
-x,-y,1/2+z
x,-y,-z
-x,y,1/2-z
-x,-y,-z
x,y,1/2-z
-x,y,z
x,-y,1/2+z
1/2+x,1/2+y,z
1/2-x,1/2-y,1/2+z
1/2+x,1/2-y,-z
1/2-x,1/2+y,1/2-z
1/2-x,1/2-y,-z
1/2+x,1/2+y,1/2-z
1/2-x,1/2+y,z
1/2+x,1/2-y,1/2+z
loop_
_atom_site_type_symbol
_atom_site_label
_atom_site_fract_x
_atom_site_fract_y
_atom_site_fract_z
Si Si1 0.221483 0.228683 0.350833
Si Si2 0.682842 0.668258 0.845893
Si Si3 0.000000 0.862263 0.250000
Si Si4 0.740993 0.518362 0.097237
Si Si5 0.920546 0.902334 0.396572
Si Si6 0.442015 0.836814 0.149136
Si Si7 0.160575 0.423165 0.149035
Si Si8 0.557274 0.382369 0.588718
O O1 0.221715 0.229620 0.250000
O O2 0.277975 0.253297 0.380888
O O3 0.185446 0.317897 0.376531
O O4 0.213197 0.119305 0.381030
O O5 0.670883 0.691641 0.750000
O O6 0.714611 0.567504 0.850062
O O7 0.632116 0.653137 0.894805
O O8 0.043563 0.866099 0.176471
O O9 0.800914 0.506549 0.116371
O O10 0.733755 0.500000 0.000000
O O11 0.942771 0.886204 0.488496
O O12 0.912710 0.020425 0.383430
O O13 0.442295 0.836003 0.250000
O O14 0.500000 0.856524 0.121606
O O15 0.398026 0.913201 0.123131
O O16 0.427887 0.725694 0.120186
O O17 0.161654 0.429825 0.250000
O O18 0.500000 0.399140 0.619699
#
# Coordination Sequence:
#
# PCOD9471839 Si02
#       8
#    16  16   4  16  16  16  16  16
#     4   9  19  37  55  74 103 138 177 217 267 321
#     4  10  22  36  53  79 104 138 184 225 262 324
#     4  12  20  34  52  72  98 156 192 220 262 328
#     4  11  23  35  55  81 109 143 179 223 280 330
#     4  11  21  32  50  73 106 144 183 222 269 321
#     4   9  19  32  54  82 106 139 179 224 281 338
#     4   9  19  37  57  81 109 141 180 225 270 330
#     4  10  20  33  46  74 110 140 177 221 273 323
#
# _framework density 20.072348999999999
#
# number of rings (size 3 to 8) (size 9 to 14) (size 15 to 20)
#    0.000    2.069    2.069    2.483    4.828    3.310 
#    0.000    0.000    0.000    0.414    1.793    0.000 
#    0.000    0.000    0.000    0.000    0.000    0.000 
#
# Total GULP energy -322878.723846 kJ/mol
# GULP energy per Si atom -5566.874549 kJ/mol
# Density = 2.002666 g / cm^3
# Si number density = 20.072349 Si / 1000 Ang^3
#
#
#
# Elastic Constant Matrix: (Units=GPa)
#
#
# Indices 1 2 3 4 5 6 
#
# 1 81.4266 -9.9969 10.9079 0.0000 0.0000 0.0000
# 2 -9.9969 16.1871 -3.8724 0.0000 0.0000 0.0000
# 3 10.9079 -3.8724 18.9386 0.0000 0.0000 0.0000
# 4 0.0000 0.0000 0.0000 -5.0483 0.0000 0.0000
# 5 0.0000 0.0000 0.0000 0.0000 16.8325 0.0000
# 6 0.0000 0.0000 0.0000 0.0000 0.0000 17.2185
#
#
#
# Elastic Compliance Matrix: (Units=1/GPa)
#
#
# Indices 1 2 3 4 5 6 
#
# 1 0.014040 0.007083 -0.006638 0.000000 0.000000 0.000000
# 2 0.007083 0.068528 0.009933 0.000000 0.000000 0.000000
# 3 -0.006638 0.009933 0.058657 0.000000 0.000000 0.000000
# 4 0.000000 0.000000 0.000000 -0.198088 0.000000 0.000000
# 5 0.000000 0.000000 0.000000 0.000000 0.059409 0.000000
# 6 0.000000 0.000000 0.000000 0.000000 0.000000 0.058077
#
#
# Mechanical properties :
#
#
# Convention : Reuss Voigt Hill
#
# Bulk Modulus (GPa) = 6.17363 12.29216 9.23290
# Shear Modulus (GPa) = 53.27025 13.76813 33.51919
#
# Velocity S-wave (km/s) = 5.15720 2.62186 4.09090
# Velocity P-wave (km/s) = 6.20844 3.91187 5.18881
#
# Compressibility (1/GPa) = 0.16197923
#
# Stress axis : x y z
#
# Youngs Moduli (GPa) = 71.22603 14.59257 17.04835
#
# Poissons Ratio (x) = -0.10335 0.11317
# Poissons Ratio (y) = -0.50447 -0.16934
# Poissons Ratio (z) = 0.47281 -0.14495
#
# Static dielectric constant tensor:
#      x y z
#    x 1.759960 0.000000 0.000000 
#    y 0.000000 1.706290 0.000000 
#    z 0.000000 0.000000 1.681870 
# 
# From -- ./inp_files/49084.got.cif
#   From: 2010.05.17/outbox.cif.g08.bks.cpg/sg63_25_cif.got.tgz:49084.got - 2010.06.03 15:47:04.
