data_PCOD9471061
_publ_section_title
;
Structure prediction by ZEFSAII (Michael W. Deem and Ramdas Pophale) SiO2 
 PCOD9471061
Probable space group: C M C M
;
_chemical_formula_sum "Si O2"
_cell_formula_units_Z 96
_cell_length_a 7.747172
_cell_length_b 24.360103
_cell_length_c 26.306868
_cell_angle_alpha 90.000000
_cell_angle_beta 90.000000
_cell_angle_gamma 90.000000
_cell_volume 4964.682319
_symmetry_space_group_name_H-M "C M C M"
_symmetry_group_IT_number 63
_symmetry_cell_setting 'orthorhombic'
loop_
_space_group_symop_operation_xyz
x,y,z
-x,-y,1/2+z
x,-y,-z
-x,y,1/2-z
-x,-y,-z
x,y,1/2-z
-x,y,z
x,-y,1/2+z
1/2+x,1/2+y,z
1/2-x,1/2-y,1/2+z
1/2+x,1/2-y,-z
1/2-x,1/2+y,1/2-z
1/2-x,1/2-y,-z
1/2+x,1/2+y,1/2-z
1/2-x,1/2+y,z
1/2+x,1/2-y,1/2+z
loop_
_atom_site_type_symbol
_atom_site_label
_atom_site_fract_x
_atom_site_fract_y
_atom_site_fract_z
Si Si1 0.204016 0.367135 0.151925
Si Si2 0.292620 0.434932 0.750000
Si Si3 0.794570 0.250959 0.807722
Si Si4 0.794295 0.364892 0.650555
Si Si5 0.289077 0.937155 0.057787
Si Si6 0.793215 0.939372 0.250000
Si Si7 0.789042 0.436922 0.557603
O O1 0.270152 0.306588 0.164351
O O2 0.274315 0.396121 0.101174
O O3 0.237096 0.406432 0.200035
O O4 0.000000 0.361969 0.145582
O O5 0.500000 0.435554 0.750000
O O6 0.233144 0.402708 0.800059
O O7 0.229502 0.497876 0.750000
O O8 0.724534 0.247701 0.750000
O O9 0.724059 0.304355 0.836749
O O10 0.000000 0.259439 0.803244
O O11 0.725072 0.395576 0.600686
O O12 0.000000 0.359690 0.642604
O O13 0.500000 0.936649 0.058545
O O14 0.237184 0.000134 0.068708
O O15 0.236307 0.923440 0.000129
O O16 0.000000 0.940483 0.250000
O O17 0.000000 0.436596 0.558221
#
# Coordination Sequence:
#
# PCOD9471061 Si02
#       7
#    16   8  16  16  16   8  16
#     4  11  21  33  53  78 101 131 175 216 251 299
#     4  11  23  34  49  76 109 136 158 205 270 311
#     4  10  20  35  51  70 102 140 174 211 257 302
#     4  10  19  34  56  77  98 134 181 214 242 300
#     4   8  15  28  48  79 108 127 157 209 264 302
#     4  11  23  36  49  72 107 138 164 203 260 315
#     4   8  14  28  52  77 103 131 161 206 259 303
#
# _framework density 19.336584999999999
#
# number of rings (size 3 to 8) (size 9 to 14) (size 15 to 20)
#    0.000    2.333    1.667    3.000    0.000    3.333 
#    0.000    0.833    0.000    2.000    0.000    8.167 
#    0.000    0.000    0.000    0.000    0.000    0.000 
#
# Total GULP energy -267907.768407 kJ/mol
# GULP energy per Si atom -5581.411842 kJ/mol
# Density = 1.929257 g / cm^3
# Si number density = 19.336585 Si / 1000 Ang^3
#
#
#
# Elastic Constant Matrix: (Units=GPa)
#
#
# Indices 1 2 3 4 5 6 
#
# 1 24.2601 -4.7048 -4.7844 0.0000 0.0000 0.0000
# 2 -4.7048 188.5078 121.2230 0.0000 0.0000 0.0000
# 3 -4.7844 121.2230 176.2916 0.0000 0.0000 0.0000
# 4 0.0000 0.0000 0.0000 -4.8987 0.0000 0.0000
# 5 0.0000 0.0000 0.0000 0.0000 -6.2038 0.0000
# 6 0.0000 0.0000 0.0000 0.0000 0.0000 13.7958
#
#
#
# Elastic Compliance Matrix: (Units=1/GPa)
#
#
# Indices 1 2 3 4 5 6 
#
# 1 0.041475 0.000558 0.000742 0.000000 0.000000 0.000000
# 2 0.000558 0.009518 -0.006529 0.000000 0.000000 0.000000
# 3 0.000742 -0.006529 0.010182 0.000000 0.000000 0.000000
# 4 0.000000 0.000000 0.000000 -0.204136 0.000000 0.000000
# 5 0.000000 0.000000 0.000000 0.000000 -0.161191 0.000000
# 6 0.000000 0.000000 0.000000 0.000000 0.000000 0.072486
#
#
# Mechanical properties :
#
#
# Convention : Reuss Voigt Hill
#
# Bulk Modulus (GPa) = 19.71785 68.05856 43.88821
# Shear Modulus (GPa) = -24.47351 19.02703 -2.72324
#
# Velocity S-wave (km/s) = -3.56147 3.14027 -1.18802
# Velocity P-wave (km/s) = 2.58704 6.95856 4.56776
#
# Compressibility (1/GPa) = 0.05071546
#
# Stress axis : x y z
#
# Youngs Moduli (GPa) = 24.11119 105.06853 98.20906
#
# Poissons Ratio (x) = -0.05864 -0.07285
# Poissons Ratio (y) = -0.01346 0.64125
# Poissons Ratio (z) = -0.01789 0.68604
#
# Static dielectric constant tensor:
#      x y z
#    x 1.723790 0.000000 0.000000 
#    y 0.000000 1.666340 0.000000 
#    z 0.000000 0.000000 1.662600 
# 
# From -- ./inp_files/67295.got.cif
#   From: 2010.05.17/outbox.cif.g08.bks.cpg/sg63_34_cif.got.tgz:67295.got - 2010.06.03 15:47:04.
