data_PCOD9471782
_publ_section_title
;
Structure prediction by ZEFSAII (Michael W. Deem and Ramdas Pophale) SiO2 
 PCOD9471782
Probable space group: C M C M
;
_chemical_formula_sum "Si O2"
_cell_formula_units_Z 80
_cell_length_a 27.431057
_cell_length_b 19.190152
_cell_length_c 8.758399
_cell_angle_alpha 90.000000
_cell_angle_beta 90.000000
_cell_angle_gamma 90.000000
_cell_volume 4610.475127
_symmetry_space_group_name_H-M "C M C M"
_symmetry_group_IT_number 63
_symmetry_cell_setting 'orthorhombic'
loop_
_space_group_symop_operation_xyz
x,y,z
-x,-y,1/2+z
x,-y,-z
-x,y,1/2-z
-x,-y,-z
x,y,1/2-z
-x,y,z
x,-y,1/2+z
1/2+x,1/2+y,z
1/2-x,1/2-y,1/2+z
1/2+x,1/2-y,-z
1/2-x,1/2+y,1/2-z
1/2-x,1/2-y,-z
1/2+x,1/2+y,1/2-z
1/2-x,1/2+y,z
1/2+x,1/2-y,1/2+z
loop_
_atom_site_type_symbol
_atom_site_label
_atom_site_fract_x
_atom_site_fract_y
_atom_site_fract_z
Si Si1 0.056856 0.572398 0.433470
Si Si2 0.848093 0.925355 0.433347
Si Si3 0.944883 0.141029 0.432929
Si Si4 0.701729 0.716268 0.932872
Si Si5 0.902185 0.279370 0.565561
O O1 0.076316 0.500000 0.500000
O O2 0.058786 0.568714 0.250000
O O3 0.083676 0.642863 0.481552
O O4 0.000000 0.578390 0.479045
O O5 0.848924 0.927504 0.250000
O O6 0.902055 0.904252 0.491504
O O7 0.811858 0.862642 0.481763
O O8 0.834322 0.000000 0.500000
O O9 0.940376 0.137139 0.250000
O O10 0.935057 0.220145 0.488046
O O11 0.000000 0.120168 0.475731
O O12 0.706088 0.715507 0.750000
O O13 0.653647 0.761090 0.971681
O O14 0.750000 0.750000 0.000000
O O15 0.908167 0.273403 0.750000
#
# Coordination Sequence:
#
# PCOD9471782 Si02
#       5
#    16  16  16  16  16
#     4   9  17  29  46  68  96 130 164 200 244 291
#     4  10  21  37  56  78 104 135 170 207 250 298
#     4  10  20  32  49  76 106 136 170 206 247 297
#     4   9  19  35  55  77  99 126 163 206 251 298
#     4   9  18  33  51  71  97 131 171 211 251 299
#
# _framework density 17.351790999999999
#
# number of rings (size 3 to 8) (size 9 to 14) (size 15 to 20)
#    0.000    2.600    0.000    3.000    0.000    7.600 
#    0.000    3.000    0.000    4.800    0.000    0.000 
#    0.000    0.000    0.000    0.000    0.000    0.000 
#
# Total GULP energy -223074.241992 kJ/mol
# GULP energy per Si atom -5576.856050 kJ/mol
# Density = 1.731230 g / cm^3
# Si number density = 17.351791 Si / 1000 Ang^3
#
#
#
# Elastic Constant Matrix: (Units=GPa)
#
#
# Indices 1 2 3 4 5 6 
#
# 1 98.2018 59.6170 29.7704 0.0000 0.0000 0.0000
# 2 59.6170 154.3968 30.9278 0.0000 0.0000 0.0000
# 3 29.7704 30.9278 27.8574 0.0000 0.0000 0.0000
# 4 0.0000 0.0000 0.0000 32.8637 0.0000 0.0000
# 5 0.0000 0.0000 0.0000 0.0000 27.4007 0.0000
# 6 0.0000 0.0000 0.0000 0.0000 0.0000 10.6118
#
#
#
# Elastic Compliance Matrix: (Units=1/GPa)
#
#
# Indices 1 2 3 4 5 6 
#
# 1 0.016526 -0.003657 -0.013602 0.000000 0.000000 0.000000
# 2 -0.003657 0.009138 -0.006238 0.000000 0.000000 0.000000
# 3 -0.013602 -0.006238 0.057358 0.000000 0.000000 0.000000
# 4 0.000000 0.000000 0.000000 0.030429 0.000000 0.000000
# 5 0.000000 0.000000 0.000000 0.000000 0.036495 0.000000
# 6 0.000000 0.000000 0.000000 0.000000 0.000000 0.094235
#
#
# Mechanical properties :
#
#
# Convention : Reuss Voigt Hill
#
# Bulk Modulus (GPa) = 27.75411 57.89850 42.82631
# Shear Modulus (GPa) = 16.49165 24.85129 20.67147
#
# Velocity S-wave (km/s) = 3.08625 3.78855 3.45529
# Velocity P-wave (km/s) = 5.36000 7.25103 6.37601
#
# Compressibility (1/GPa) = 0.03603070
#
# Stress axis : x y z
#
# Youngs Moduli (GPa) = 60.50903 109.42971 17.43442
#
# Poissons Ratio (x) = 0.40016 0.23713
# Poissons Ratio (y) = 0.22127 0.10875
# Poissons Ratio (z) = 0.82302 0.68258
#
# Static dielectric constant tensor:
#      x y z
#    x 1.573850 0.000000 0.000000 
#    y 0.000000 1.591710 0.000000 
#    z 0.000000 0.000000 1.587970 
# 
# From -- ./inp_files/12022.got.cif
#   From: 2010.05.17/outbox.cif.g08.bks.cpg/sg63_7_cif.got.tgz:12022.got - 2010.06.03 15:47:04.
