data_PCOD9471291
_publ_section_title
;
Structure prediction by ZEFSAII (Michael W. Deem and Ramdas Pophale) SiO2 
 PCOD9471291
Probable space group: C M C M
;
_chemical_formula_sum "Si O2"
_cell_formula_units_Z 88
_cell_length_a 9.825290
_cell_length_b 20.983624
_cell_length_c 23.868395
_cell_angle_alpha 90.000000
_cell_angle_beta 90.000000
_cell_angle_gamma 90.000000
_cell_volume 4920.951557
_symmetry_space_group_name_H-M "C M C M"
_symmetry_group_IT_number 63
_symmetry_cell_setting 'orthorhombic'
loop_
_space_group_symop_operation_xyz
x,y,z
-x,-y,1/2+z
x,-y,-z
-x,y,1/2-z
-x,-y,-z
x,y,1/2-z
-x,y,z
x,-y,1/2+z
1/2+x,1/2+y,z
1/2-x,1/2-y,1/2+z
1/2+x,1/2-y,-z
1/2-x,1/2+y,1/2-z
1/2-x,1/2-y,-z
1/2+x,1/2+y,1/2-z
1/2-x,1/2+y,z
1/2+x,1/2-y,1/2+z
loop_
_atom_site_type_symbol
_atom_site_label
_atom_site_fract_x
_atom_site_fract_y
_atom_site_fract_z
Si Si1 0.849976 0.890312 0.877877
Si Si2 0.653558 0.213354 0.250000
Si Si3 0.333088 0.564333 0.750000
Si Si4 0.783142 0.914846 0.750000
Si Si5 0.841019 0.610005 0.645826
Si Si6 0.657031 0.747077 0.352717
Si Si7 0.838954 0.492182 0.564105
O O1 0.849848 0.897875 0.809979
O O2 0.825014 0.815715 0.890405
O O3 0.000000 0.908414 0.898090
O O4 0.739685 0.936334 0.904189
O O5 0.500000 0.235866 0.250000
O O6 0.658902 0.135735 0.250000
O O7 0.736311 0.238376 0.196955
O O8 0.500000 0.564073 0.750000
O O9 0.276956 0.491250 0.750000
O O10 0.265539 0.597382 0.804240
O O11 0.826604 0.682145 0.623583
O O12 0.818442 0.557291 0.598481
O O13 0.000000 0.603245 0.665433
O O14 0.500000 0.743005 0.331680
O O15 0.793966 0.500000 0.500000
O O16 0.000000 0.478177 0.564049
#
# Coordination Sequence:
#
# PCOD9471291 Si02
#       7
#    16   8   8   8  16  16  16
#     4  10  19  35  58  81 106 141 182 220 265 323
#     4  10  20  31  49  78 112 146 180 217 259 316
#     4  12  22  33  53  84 118 144 178 225 273 316
#     4  10  20  32  50  80 116 144 168 212 272 322
#     4  10  21  37  56  79 111 149 184 218 268 332
#     4   9  19  35  53  75 108 147 180 215 267 327
#     4  10  22  39  57  78 106 141 182 230 278 321
#
# _framework density 17.882719999999999
#
# number of rings (size 3 to 8) (size 9 to 14) (size 15 to 20)
#    0.000    2.000    1.818    1.909    0.000    9.818 
#    0.000    0.909    0.000    0.000    0.000    0.000 
#    0.000    0.000    0.000    0.000    0.000    0.000 
#
# Total GULP energy -245087.036969 kJ/mol
# GULP energy per Si atom -5570.159931 kJ/mol
# Density = 1.784202 g / cm^3
# Si number density = 17.882720 Si / 1000 Ang^3
#
#
#
# Elastic Constant Matrix: (Units=GPa)
#
#
# Indices 1 2 3 4 5 6 
#
# 1 86.4262 54.0786 43.0990 0.0000 0.0000 0.0000
# 2 54.0786 154.4830 38.8036 0.0000 0.0000 0.0000
# 3 43.0990 38.8036 75.5840 0.0000 0.0000 0.0000
# 4 0.0000 0.0000 0.0000 0.2803 0.0000 0.0000
# 5 0.0000 0.0000 0.0000 0.0000 14.9434 0.0000
# 6 0.0000 0.0000 0.0000 0.0000 0.0000 20.8866
#
#
#
# Elastic Compliance Matrix: (Units=1/GPa)
#
#
# Indices 1 2 3 4 5 6 
#
# 1 0.018429 -0.004376 -0.008262 0.000000 0.000000 0.000000
# 2 -0.004376 0.008471 -0.001853 0.000000 0.000000 0.000000
# 3 -0.008262 -0.001853 0.018893 0.000000 0.000000 0.000000
# 4 0.000000 0.000000 0.000000 3.567211 0.000000 0.000000
# 5 0.000000 0.000000 0.000000 0.000000 0.066919 0.000000
# 6 0.000000 0.000000 0.000000 0.000000 0.000000 0.047877
#
#
# Mechanical properties :
#
#
# Convention : Reuss Voigt Hill
#
# Bulk Modulus (GPa) = 59.48907 65.38393 62.43650
# Shear Modulus (GPa) = 1.32894 19.25621 10.29258
#
# Velocity S-wave (km/s) = 0.86299 3.28503 2.40169
# Velocity P-wave (km/s) = 5.85931 7.14357 6.53307
#
# Compressibility (1/GPa) = 0.01680981
#
# Stress axis : x y z
#
# Youngs Moduli (GPa) = 54.26348 118.05524 52.93033
#
# Poissons Ratio (x) = 0.51660 0.43729
# Poissons Ratio (y) = 0.23745 0.09810
# Poissons Ratio (z) = 0.44831 0.21881
#
# Static dielectric constant tensor:
#      x y z
#    x 1.604560 0.000000 0.000000 
#    y 0.000000 1.648600 0.000000 
#    z 0.000000 0.000000 1.580970 
# 
# From -- ./inp_files/59698.got.cif
#   From: 2010.05.17/outbox.cif.g08.bks.cpg/sg63_30_cif.got.tgz:59698.got - 2010.06.03 15:47:04.
