data_PCOD9471411
_publ_section_title
;
Structure prediction by ZEFSAII (Michael W. Deem and Ramdas Pophale) SiO2 
 PCOD9471411
Probable space group: C M C M
;
_chemical_formula_sum "Si O2"
_cell_formula_units_Z 112
_cell_length_a 21.762144
_cell_length_b 11.384334
_cell_length_c 24.646507
_cell_angle_alpha 90.000000
_cell_angle_beta 90.000000
_cell_angle_gamma 90.000000
_cell_volume 6106.110884
_symmetry_space_group_name_H-M "C M C M"
_symmetry_group_IT_number 63
_symmetry_cell_setting 'orthorhombic'
loop_
_space_group_symop_operation_xyz
x,y,z
-x,-y,1/2+z
x,-y,-z
-x,y,1/2-z
-x,-y,-z
x,y,1/2-z
-x,y,z
x,-y,1/2+z
1/2+x,1/2+y,z
1/2-x,1/2-y,1/2+z
1/2+x,1/2-y,-z
1/2-x,1/2+y,1/2-z
1/2-x,1/2-y,-z
1/2+x,1/2+y,1/2-z
1/2-x,1/2+y,z
1/2+x,1/2-y,1/2+z
loop_
_atom_site_type_symbol
_atom_site_label
_atom_site_fract_x
_atom_site_fract_y
_atom_site_fract_z
Si Si1 0.664448 0.736670 0.113346
Si Si2 0.430447 0.850029 0.686203
Si Si3 0.798281 0.964858 0.686108
Si Si4 0.289809 0.780952 0.945755
Si Si5 0.171117 0.490434 0.879597
Si Si6 0.069975 0.927129 0.554221
Si Si7 0.884491 0.133234 0.622764
O O1 0.665726 0.653429 0.166491
O O2 0.735623 0.732593 0.097314
O O3 0.619986 0.670890 0.070308
O O4 0.651389 0.874588 0.114030
O O5 0.416229 0.837071 0.750000
O O6 0.500000 0.894957 0.681529
O O7 0.381476 0.929827 0.655686
O O8 0.424108 0.727961 0.654346
O O9 0.789354 0.963717 0.750000
O O10 0.733778 0.980609 0.654951
O O11 0.837861 0.074767 0.665270
O O12 0.315914 0.913300 0.934634
O O13 0.344229 0.693578 0.926041
O O14 0.250000 0.750000 0.000000
O O15 0.000000 0.881596 0.550298
O O16 0.084767 0.000000 0.500000
O O17 0.075418 0.027683 0.599497
#
# Coordination Sequence:
#
# PCOD9471411 Si02
#       7
#    16  16  16  16  16  16  16
#     4  10  21  37  53  83 113 146 189 226 282 339
#     4  10  21  36  56  81 112 153 193 231 278 333
#     4  10  20  34  55  81 114 149 185 234 287 338
#     4  10  20  35  57  82 114 147 180 234 290 343
#     4  10  21  37  53  84 116 148 188 229 283 345
#     4  10  21  37  59  82 111 151 192 234 278 327
#     4  10  19  36  57  83 111 142 191 242 283 331
#
# _framework density 18.342281
#
# number of rings (size 3 to 8) (size 9 to 14) (size 15 to 20)
#    0.000    2.000    1.429    2.143    0.000    2.286 
#    0.000    0.000    0.000    3.857    0.000    8.000 
#    0.000    0.000    0.000    0.000    0.000    0.000 
#
# Total GULP energy -311759.630135 kJ/mol
# GULP energy per Si atom -5567.136252 kJ/mol
# Density = 1.830053 g / cm^3
# Si number density = 18.342281 Si / 1000 Ang^3
#
#
#
# Elastic Constant Matrix: (Units=GPa)
#
#
# Indices 1 2 3 4 5 6 
#
# 1 65.6564 11.9754 8.2663 0.0000 0.0000 0.0000
# 2 11.9754 84.6013 12.0536 0.0000 0.0000 0.0000
# 3 8.2663 12.0536 64.6042 0.0000 0.0000 0.0000
# 4 0.0000 0.0000 0.0000 11.4926 0.0000 0.0000
# 5 0.0000 0.0000 0.0000 0.0000 28.6116 0.0000
# 6 0.0000 0.0000 0.0000 0.0000 0.0000 7.8596
#
#
#
# Elastic Compliance Matrix: (Units=1/GPa)
#
#
# Indices 1 2 3 4 5 6 
#
# 1 0.015804 -0.002002 -0.001649 0.000000 0.000000 0.000000
# 2 -0.002002 0.012397 -0.002057 0.000000 0.000000 0.000000
# 3 -0.001649 -0.002057 0.016074 0.000000 0.000000 0.000000
# 4 0.000000 0.000000 0.000000 0.087012 0.000000 0.000000
# 5 0.000000 0.000000 0.000000 0.000000 0.034951 0.000000
# 6 0.000000 0.000000 0.000000 0.000000 0.000000 0.127233
#
#
# Mechanical properties :
#
#
# Convention : Reuss Voigt Hill
#
# Bulk Modulus (GPa) = 30.43322 31.05029 30.74176
# Shear Modulus (GPa) = 15.83091 21.76386 18.79738
#
# Velocity S-wave (km/s) = 2.94101 3.44836 3.20474
# Velocity P-wave (km/s) = 5.30666 5.72887 5.52180
#
# Compressibility (1/GPa) = 0.03285883
#
# Stress axis : x y z
#
# Youngs Moduli (GPa) = 63.27695 80.66739 62.21397
#
# Poissons Ratio (x) = 0.16151 0.10256
# Poissons Ratio (y) = 0.12669 0.12796
# Poissons Ratio (z) = 0.10432 0.16591
#
# Static dielectric constant tensor:
#      x y z
#    x 1.605090 0.000000 0.000000 
#    y 0.000000 1.682080 0.000000 
#    z 0.000000 0.000000 1.654430 
# 
# From -- ./inp_files/64609.got.cif
#   From: 2010.05.17/outbox.cif.g08.bks.cpg/sg63_33_cif.got.tgz:64609.got - 2010.06.03 15:47:04.
