data_PCOD9471155
_publ_section_title
;
Structure prediction by ZEFSAII (Michael W. Deem and Ramdas Pophale) SiO2 
 PCOD9471155
Probable space group: C M C M
;
_chemical_formula_sum "Si O2"
_cell_formula_units_Z 88
_cell_length_a 11.032436
_cell_length_b 13.793689
_cell_length_c 29.104595
_cell_angle_alpha 90.000000
_cell_angle_beta 90.000000
_cell_angle_gamma 90.000000
_cell_volume 4429.078799
_symmetry_space_group_name_H-M "C M C M"
_symmetry_group_IT_number 63
_symmetry_cell_setting 'orthorhombic'
loop_
_space_group_symop_operation_xyz
x,y,z
-x,-y,1/2+z
x,-y,-z
-x,y,1/2-z
-x,-y,-z
x,y,1/2-z
-x,y,z
x,-y,1/2+z
1/2+x,1/2+y,z
1/2-x,1/2-y,1/2+z
1/2+x,1/2-y,-z
1/2-x,1/2+y,1/2-z
1/2-x,1/2-y,-z
1/2+x,1/2+y,1/2-z
1/2-x,1/2+y,z
1/2+x,1/2-y,1/2+z
loop_
_atom_site_type_symbol
_atom_site_label
_atom_site_fract_x
_atom_site_fract_y
_atom_site_fract_z
Si Si1 0.745570 0.250691 0.129755
Si Si2 0.500000 0.631030 0.496386
Si Si3 0.857379 0.601782 0.303482
Si Si4 0.500000 0.690118 0.596147
Si Si5 0.500000 0.155950 0.020980
Si Si6 0.250377 0.087337 0.050599
Si Si7 0.362878 0.054632 0.618504
O O1 0.726758 0.184499 0.174366
O O2 0.622209 0.313206 0.124262
O O3 0.755751 0.176853 0.086937
O O4 0.847050 0.332146 0.127713
O O5 0.500000 0.378097 0.448308
O O6 0.500000 0.748415 0.489423
O O7 0.376076 0.591161 0.475704
O O8 0.833207 0.585168 0.250000
O O9 0.842854 0.506540 0.334904
O O10 0.000000 0.630710 0.308305
O O11 0.500000 0.797708 0.572628
O O12 0.369730 0.104629 0.018772
O O13 0.275399 0.991154 0.080145
O O14 0.500000 0.034129 0.602477
#
# Coordination Sequence:
#
# PCOD9471155 Si02
#       7
#    16   8  16   8   8  16  16
#     4  10  19  34  58  84 113 148 185 237 281 342
#     4  10  20  31  59  81 107 158 200 241 286 330
#     4   9  18  36  61  86 110 145 188 226 281 354
#     4   8  18  33  55  76 108 147 195 225 285 327
#     4   8  16  32  55  72 105 149 187 232 285 330
#     4  10  19  36  55  80 115 154 193 237 292 335
#     4  10  21  36  56  84 115 152 188 232 284 345
#
# _framework density 19.868690999999998
#
# number of rings (size 3 to 8) (size 9 to 14) (size 15 to 20)
#    0.545    2.000    1.818    0.545    1.273    1.455 
#    0.000    1.818    0.000    2.182    0.000    0.000 
#    0.000    0.000    0.000    0.000    0.000    0.000 
#
# Total GULP energy -245428.816745 kJ/mol
# GULP energy per Si atom -5577.927653 kJ/mol
# Density = 1.982347 g / cm^3
# Si number density = 19.868691 Si / 1000 Ang^3
#
#
#
# Elastic Constant Matrix: (Units=GPa)
#
#
# Indices 1 2 3 4 5 6 
#
# 1 93.5013 20.1056 31.7142 0.0000 0.0000 0.0000
# 2 20.1056 105.7882 31.2199 0.0000 0.0000 0.0000
# 3 31.7142 31.2199 72.2294 0.0000 0.0000 0.0000
# 4 0.0000 0.0000 0.0000 12.9107 0.0000 0.0000
# 5 0.0000 0.0000 0.0000 0.0000 19.6400 0.0000
# 6 0.0000 0.0000 0.0000 0.0000 0.0000 -33.1929
#
#
#
# Elastic Compliance Matrix: (Units=1/GPa)
#
#
# Indices 1 2 3 4 5 6 
#
# 1 0.012637 -0.000876 -0.005170 0.000000 0.000000 0.000000
# 2 -0.000876 0.010896 -0.004325 0.000000 0.000000 0.000000
# 3 -0.005170 -0.004325 0.017984 0.000000 0.000000 0.000000
# 4 0.000000 0.000000 0.000000 0.077455 0.000000 0.000000
# 5 0.000000 0.000000 0.000000 0.000000 0.050917 0.000000
# 6 0.000000 0.000000 0.000000 0.000000 0.000000 -0.030127
#
#
# Mechanical properties :
#
#
# Convention : Reuss Voigt Hill
#
# Bulk Modulus (GPa) = 48.13435 48.62205 48.37820
# Shear Modulus (GPa) = 29.86356 12.43683 21.15020
#
# Velocity S-wave (km/s) = 3.88112 2.50462 3.26621
# Velocity P-wave (km/s) = 6.66055 5.73489 6.21498
#
# Compressibility (1/GPa) = 0.02077518
#
# Stress axis : x y z
#
# Youngs Moduli (GPa) = 79.13284 91.77958 55.60459
#
# Poissons Ratio (x) = 0.08040 0.28747
# Poissons Ratio (y) = 0.06932 0.24048
# Poissons Ratio (z) = 0.40911 0.39693
#
# Static dielectric constant tensor:
#      x y z
#    x 1.713730 0.000000 0.000000 
#    y 0.000000 1.723650 0.000000 
#    z 0.000000 0.000000 1.686320 
# 
# From -- ./inp_files/72643.got.cif
#   From: 2010.05.17/outbox.cif.g08.bks.cpg/sg63_37_cif.got.tgz:72643.got - 2010.06.03 15:47:04.
