data_PCOD9471240
_publ_section_title
;
Structure prediction by ZEFSAII (Michael W. Deem and Ramdas Pophale) SiO2 
 PCOD9471240
Probable space group: C M C M
;
_chemical_formula_sum "Si O2"
_cell_formula_units_Z 96
_cell_length_a 24.131453
_cell_length_b 26.413891
_cell_length_c 7.812334
_cell_angle_alpha 90.000000
_cell_angle_beta 90.000000
_cell_angle_gamma 90.000000
_cell_volume 4979.625200
_symmetry_space_group_name_H-M "C M C M"
_symmetry_group_IT_number 63
_symmetry_cell_setting 'orthorhombic'
loop_
_space_group_symop_operation_xyz
x,y,z
-x,-y,1/2+z
x,-y,-z
-x,y,1/2-z
-x,-y,-z
x,y,1/2-z
-x,y,z
x,-y,1/2+z
1/2+x,1/2+y,z
1/2-x,1/2-y,1/2+z
1/2+x,1/2-y,-z
1/2-x,1/2+y,1/2-z
1/2-x,1/2-y,-z
1/2+x,1/2+y,1/2-z
1/2-x,1/2+y,z
1/2+x,1/2-y,1/2+z
loop_
_atom_site_type_symbol
_atom_site_label
_atom_site_fract_x
_atom_site_fract_y
_atom_site_fract_z
Si Si1 0.316869 0.056989 0.543636
Si Si2 0.878697 0.152735 0.544939
Si Si3 0.114422 0.348967 0.048293
Si Si4 0.500000 0.314939 0.546135
Si Si5 0.500000 0.198159 0.539215
Si Si6 0.314466 0.752833 0.545044
Si Si7 0.309901 0.442983 0.456129
O O1 0.314942 0.061406 0.750000
O O2 0.357706 0.100304 0.476183
O O3 0.253478 0.064068 0.480960
O O4 0.334202 0.000000 0.500000
O O5 0.871958 0.152700 0.750000
O O6 0.943560 0.157879 0.508159
O O7 0.846955 0.202967 0.480761
O O8 0.849683 0.101590 0.479445
O O9 0.105452 0.357978 0.250000
O O10 0.055493 0.330008 0.979209
O O11 0.157357 0.302945 0.028727
O O12 0.500000 0.312393 0.750000
O O13 0.500000 0.256708 0.481733
O O14 0.500000 0.199044 0.750000
O O15 0.320081 0.754949 0.750000
O O16 0.250000 0.750000 0.500000
O O17 0.327704 0.500000 0.500000
O O18 0.308299 0.439849 0.250000
#
# Coordination Sequence:
#
# PCOD9471240 Si02
#       7
#    16  16  16   8   8  16  16
#     4   9  18  33  55  78 107 142 177 219 267 320
#     4  10  21  37  55  77 108 142 176 216 269 322
#     4  10  19  35  55  77 107 143 181 222 269 318
#     4  11  21  35  56  81 106 140 184 222 261 314
#     4   9  18  33  54  77 105 142 181 221 264 313
#     4  11  22  34  52  79 109 140 174 218 270 326
#     4   9  18  34  54  77 103 136 175 216 265 318
#
# _framework density 19.278559999999999
#
# number of rings (size 3 to 8) (size 9 to 14) (size 15 to 20)
#    0.000    2.167    1.667    1.750    0.000    4.667 
#    0.000    4.583    0.000    0.000    0.000    0.000 
#    0.000    0.000    0.000    0.000    0.000    0.000 
#
# Total GULP energy -267965.050252 kJ/mol
# GULP energy per Si atom -5582.605214 kJ/mol
# Density = 1.923468 g / cm^3
# Si number density = 19.278560 Si / 1000 Ang^3
#
#
#
# Elastic Constant Matrix: (Units=GPa)
#
#
# Indices 1 2 3 4 5 6 
#
# 1 130.2967 84.1672 -12.6647 0.0000 0.0000 0.0000
# 2 84.1672 162.4179 -3.9004 0.0000 0.0000 0.0000
# 3 -12.6647 -3.9004 20.1272 0.0000 0.0000 0.0000
# 4 0.0000 0.0000 0.0000 19.4448 0.0000 0.0000
# 5 0.0000 0.0000 0.0000 0.0000 1.3679 0.0000
# 6 0.0000 0.0000 0.0000 0.0000 0.0000 19.4419
#
#
#
# Elastic Compliance Matrix: (Units=1/GPa)
#
#
# Indices 1 2 3 4 5 6 
#
# 1 0.012342 -0.006238 0.006557 0.000000 0.000000 0.000000
# 2 -0.006238 0.009339 -0.002116 0.000000 0.000000 0.000000
# 3 0.006557 -0.002116 0.053400 0.000000 0.000000 0.000000
# 4 0.000000 0.000000 0.000000 0.051428 0.000000 0.000000
# 5 0.000000 0.000000 0.000000 0.000000 0.731065 0.000000
# 6 0.000000 0.000000 0.000000 0.000000 0.000000 0.051435
#
#
# Mechanical properties :
#
#
# Convention : Reuss Voigt Hill
#
# Bulk Modulus (GPa) = 13.98857 49.78289 31.88573
# Shear Modulus (GPa) = 5.33942 24.40023 14.86982
#
# Velocity S-wave (km/s) = 1.66602 3.56148 2.78027
# Velocity P-wave (km/s) = 3.31249 6.54150 5.18478
#
# Compressibility (1/GPa) = 0.07148693
#
# Stress axis : x y z
#
# Youngs Moduli (GPa) = 81.02543 107.07910 18.72666
#
# Poissons Ratio (x) = 0.66798 -0.12279
# Poissons Ratio (y) = 0.50546 0.03962
# Poissons Ratio (z) = -0.53128 0.22653
#
# Static dielectric constant tensor:
#      x y z
#    x 1.655570 0.000000 0.000000 
#    y 0.000000 1.661250 0.000000 
#    z 0.000000 0.000000 1.713910 
# 
# From -- ./inp_files/10528.got.cif
#   From: 2010.05.17/outbox.cif.g08.bks.cpg/sg63_6_cif.got.tgz:10528.got - 2010.06.03 15:47:04.
