data_PCOD9471111
_publ_section_title
;
Structure prediction by ZEFSAII (Michael W. Deem and Ramdas Pophale) SiO2 
 PCOD9471111
Probable space group: C M C M
;
_chemical_formula_sum "Si O2"
_cell_formula_units_Z 80
_cell_length_a 13.470618
_cell_length_b 13.145056
_cell_length_c 23.541801
_cell_angle_alpha 90.000000
_cell_angle_beta 90.000000
_cell_angle_gamma 90.000000
_cell_volume 4168.594445
_symmetry_space_group_name_H-M "C M C M"
_symmetry_group_IT_number 63
_symmetry_cell_setting 'orthorhombic'
loop_
_space_group_symop_operation_xyz
x,y,z
-x,-y,1/2+z
x,-y,-z
-x,y,1/2-z
-x,-y,-z
x,y,1/2-z
-x,y,z
x,-y,1/2+z
1/2+x,1/2+y,z
1/2-x,1/2-y,1/2+z
1/2+x,1/2-y,-z
1/2-x,1/2+y,1/2-z
1/2-x,1/2-y,-z
1/2+x,1/2+y,1/2-z
1/2-x,1/2+y,z
1/2+x,1/2-y,1/2+z
loop_
_atom_site_type_symbol
_atom_site_label
_atom_site_fract_x
_atom_site_fract_y
_atom_site_fract_z
Si Si1 0.117638 0.117333 0.502290
Si Si2 0.818735 0.985675 0.816753
Si Si3 0.889289 0.386113 0.682901
Si Si4 0.185013 0.188926 0.619994
Si Si5 0.611494 0.287314 0.877521
O O1 0.170590 0.176935 0.552843
O O2 0.128434 0.169057 0.441076
O O3 0.000000 0.115213 0.515766
O O4 0.152500 0.000000 0.500000
O O5 0.831463 0.002879 0.750000
O O6 0.702397 0.961060 0.828729
O O7 0.875616 0.884726 0.836707
O O8 0.850231 0.084379 0.851592
O O9 0.881666 0.358978 0.750000
O O10 0.872322 0.285441 0.645562
O O11 0.000000 0.427302 0.672926
O O12 0.300325 0.209289 0.634670
O O13 0.500000 0.246507 0.873256
#
# Coordination Sequence:
#
# PCOD9471111 Si02
#       5
#    16  16  16  16  16
#     4  10  19  34  57  81 106 138 179 222 271 321
#     4  10  21  36  54  78 108 141 176 216 262 314
#     4   9  19  35  53  76 106 138 175 218 264 315
#     4  11  20  34  58  81 106 139 180 222 267 316
#     4  10  22  38  55  80 111 142 177 220 267 319
#
# _framework density 19.191120000000002
#
# number of rings (size 3 to 8) (size 9 to 14) (size 15 to 20)
#    0.000    2.000    2.000    1.800    0.000    2.800 
#    0.000    0.000    0.000    0.600    0.000    0.000 
#    0.000    0.000    0.000    0.000    0.000    0.000 
#
# Total GULP energy -223318.995138 kJ/mol
# GULP energy per Si atom -5582.974878 kJ/mol
# Density = 1.914744 g / cm^3
# Si number density = 19.191120 Si / 1000 Ang^3
#
#
#
# Elastic Constant Matrix: (Units=GPa)
#
#
# Indices 1 2 3 4 5 6 
#
# 1 52.2021 -16.3969 -1.1407 0.0000 0.0000 0.0000
# 2 -16.3969 29.5048 -4.2330 0.0000 0.0000 0.0000
# 3 -1.1407 -4.2330 35.5156 0.0000 0.0000 0.0000
# 4 0.0000 0.0000 0.0000 18.8437 0.0000 0.0000
# 5 0.0000 0.0000 0.0000 0.0000 18.5914 0.0000
# 6 0.0000 0.0000 0.0000 0.0000 0.0000 3.4498
#
#
#
# Elastic Compliance Matrix: (Units=1/GPa)
#
#
# Indices 1 2 3 4 5 6 
#
# 1 0.023397 0.013339 0.002341 0.000000 0.000000 0.000000
# 2 0.013339 0.042087 0.005445 0.000000 0.000000 0.000000
# 3 0.002341 0.005445 0.028881 0.000000 0.000000 0.000000
# 4 0.000000 0.000000 0.000000 0.053068 0.000000 0.000000
# 5 0.000000 0.000000 0.000000 0.000000 0.053788 0.000000
# 6 0.000000 0.000000 0.000000 0.000000 0.000000 0.289870
#
#
# Mechanical properties :
#
#
# Convention : Reuss Voigt Hill
#
# Bulk Modulus (GPa) = 7.31994 8.18683 7.75339
# Shear Modulus (GPa) = 10.11368 17.44320 13.77844
#
# Velocity S-wave (km/s) = 2.29813 3.01810 2.68238
# Velocity P-wave (km/s) = 3.29612 4.05222 3.69357
#
# Compressibility (1/GPa) = 0.13661310
#
# Stress axis : x y z
#
# Youngs Moduli (GPa) = 42.74027 23.76052 34.62513
#
# Poissons Ratio (x) = -0.31693 -0.08107
# Poissons Ratio (y) = -0.57009 -0.18852
# Poissons Ratio (z) = -0.10006 -0.12937
#
# Static dielectric constant tensor:
#      x y z
#    x 1.682690 0.000000 0.000000 
#    y 0.000000 1.630540 0.000000 
#    z 0.000000 0.000000 1.643560 
# 
# From -- ./inp_files/53984.got.cif
#   From: 2010.05.17/outbox.cif.g08.bks.cpg/sg63_27_cif.got.tgz:53984.got - 2010.06.03 15:47:04.
