data_PCOD9471362
_publ_section_title
;
Structure prediction by ZEFSAII (Michael W. Deem and Ramdas Pophale) SiO2 
 PCOD9471362
Probable space group: C M C M
;
_chemical_formula_sum "Si O2"
_cell_formula_units_Z 96
_cell_length_a 15.091674
_cell_length_b 23.374014
_cell_length_c 14.599777
_cell_angle_alpha 90.000000
_cell_angle_beta 90.000000
_cell_angle_gamma 90.000000
_cell_volume 5150.115127
_symmetry_space_group_name_H-M "C M C M"
_symmetry_group_IT_number 63
_symmetry_cell_setting 'orthorhombic'
loop_
_space_group_symop_operation_xyz
x,y,z
-x,-y,1/2+z
x,-y,-z
-x,y,1/2-z
-x,-y,-z
x,y,1/2-z
-x,y,z
x,-y,1/2+z
1/2+x,1/2+y,z
1/2-x,1/2-y,1/2+z
1/2+x,1/2-y,-z
1/2-x,1/2+y,1/2-z
1/2-x,1/2-y,-z
1/2+x,1/2+y,1/2-z
1/2-x,1/2+y,z
1/2+x,1/2-y,1/2+z
loop_
_atom_site_type_symbol
_atom_site_label
_atom_site_fract_x
_atom_site_fract_y
_atom_site_fract_z
Si Si1 0.602028 0.503217 0.609809
Si Si2 0.099503 0.506544 0.861083
Si Si3 0.249281 0.594758 0.855750
Si Si4 0.748541 0.682928 0.481489
Si Si5 0.104587 0.873669 0.854253
Si Si6 0.894538 0.625007 0.141224
O O1 0.604371 0.500000 0.500000
O O2 0.500000 0.511316 0.638647
O O3 0.663766 0.554799 0.640670
O O4 0.632493 0.440587 0.642855
O O5 0.098166 0.507393 0.750000
O O6 0.170580 0.553008 0.889642
O O7 0.122707 0.441374 0.884895
O O8 0.000000 0.519660 0.893110
O O9 0.233198 0.611304 0.750000
O O10 0.254326 0.647716 0.923856
O O11 0.750000 0.750000 0.500000
O O12 0.663708 0.662513 0.422821
O O13 0.833741 0.664153 0.421708
O O14 0.114679 0.853263 0.750000
O O15 0.000000 0.872570 0.878364
O O16 0.874167 0.631743 0.250000
O O17 0.000000 0.634861 0.130279
#
# Coordination Sequence:
#
# PCOD9471362 Si02
#       6
#    16  16  16  16  16  16
#     4  10  19  35  61  91 122 148 181 235 302 365
#     4   8  16  33  58  88 118 142 173 227 292 357
#     4  11  23  37  56  85 121 157 192 234 294 356
#     4  12  26  40  57  80 116 160 208 249 281 324
#     4  10  21  39  64  90 115 148 190 239 297 356
#     4   9  19  38  64  91 115 143 186 241 300 357
#
# _framework density 18.640359
#
# number of rings (size 3 to 8) (size 9 to 14) (size 15 to 20)
#    0.000    2.000    1.667    3.000    0.000    5.000 
#    0.000    1.667    0.000    2.000    0.000    0.000 
#    0.000    0.000    0.000    0.000    0.000    0.000 
#
# Total GULP energy -268189.895246 kJ/mol
# GULP energy per Si atom -5587.289484 kJ/mol
# Density = 1.859793 g / cm^3
# Si number density = 18.640359 Si / 1000 Ang^3
#
#
#
# Elastic Constant Matrix: (Units=GPa)
#
#
# Indices 1 2 3 4 5 6 
#
# 1 88.1355 80.5780 51.8260 0.0000 0.0000 0.0000
# 2 80.5780 161.5585 67.2464 0.0000 0.0000 0.0000
# 3 51.8260 67.2464 119.5094 0.0000 0.0000 0.0000
# 4 0.0000 0.0000 0.0000 -1.6185 0.0000 0.0000
# 5 0.0000 0.0000 0.0000 0.0000 27.4351 0.0000
# 6 0.0000 0.0000 0.0000 0.0000 0.0000 0.4988
#
#
#
# Elastic Compliance Matrix: (Units=1/GPa)
#
#
# Indices 1 2 3 4 5 6 
#
# 1 0.022577 -0.009383 -0.004511 0.000000 0.000000 0.000000
# 2 -0.009383 0.011982 -0.002673 0.000000 0.000000 0.000000
# 3 -0.004511 -0.002673 0.011828 0.000000 0.000000 0.000000
# 4 0.000000 0.000000 0.000000 -0.617838 0.000000 0.000000
# 5 0.000000 0.000000 0.000000 0.000000 0.036450 0.000000
# 6 0.000000 0.000000 0.000000 0.000000 0.000000 2.004837
#
#
# Mechanical properties :
#
#
# Convention : Reuss Voigt Hill
#
# Bulk Modulus (GPa) = 75.45532 85.38936 80.42234
# Shear Modulus (GPa) = 3.31700 16.56662 9.94181
#
# Velocity S-wave (km/s) = 1.33541 2.98442 2.31194
# Velocity P-wave (km/s) = 6.55326 7.60158 7.09680
#
# Compressibility (1/GPa) = 0.01325288
#
# Stress axis : x y z
#
# Youngs Moduli (GPa) = 44.29298 83.45802 84.54475
#
# Poissons Ratio (x) = 0.78306 0.38139
# Poissons Ratio (y) = 0.41559 0.22601
# Poissons Ratio (z) = 0.19981 0.22311
#
# Static dielectric constant tensor:
#      x y z
#    x 1.654860 0.000000 0.000000 
#    y 0.000000 1.592310 0.000000 
#    z 0.000000 0.000000 1.672280 
# 
# From -- ./inp_files/31955.got.cif
#   From: 2010.05.17/outbox.cif.g08.bks.cpg/sg63_16_cif.got.tgz:31955.got - 2010.06.03 15:47:04.
