data_PCOD9471654
_publ_section_title
;
Structure prediction by ZEFSAII (Michael W. Deem and Ramdas Pophale) SiO2 
 PCOD9471654
Probable space group: C M C M
;
_chemical_formula_sum "Si O2"
_cell_formula_units_Z 80
_cell_length_a 13.721110
_cell_length_b 13.332143
_cell_length_c 23.250428
_cell_angle_alpha 90.000000
_cell_angle_beta 90.000000
_cell_angle_gamma 90.000000
_cell_volume 4253.242660
_symmetry_space_group_name_H-M "C M C M"
_symmetry_group_IT_number 63
_symmetry_cell_setting 'orthorhombic'
loop_
_space_group_symop_operation_xyz
x,y,z
-x,-y,1/2+z
x,-y,-z
-x,y,1/2-z
-x,-y,-z
x,y,1/2-z
-x,y,z
x,-y,1/2+z
1/2+x,1/2+y,z
1/2-x,1/2-y,1/2+z
1/2+x,1/2-y,-z
1/2-x,1/2+y,1/2-z
1/2-x,1/2-y,-z
1/2+x,1/2+y,1/2-z
1/2-x,1/2+y,z
1/2+x,1/2-y,1/2+z
loop_
_atom_site_type_symbol
_atom_site_label
_atom_site_fract_x
_atom_site_fract_y
_atom_site_fract_z
Si Si1 0.385606 0.099836 0.901477
Si Si2 0.892857 0.894945 0.969078
Si Si3 0.887099 0.214753 0.185417
Si Si4 0.264191 0.091558 0.374688
Si Si5 0.383157 0.809557 0.974840
O O1 0.500000 0.070583 0.900943
O O2 0.376527 0.201467 0.864353
O O3 0.320759 0.013600 0.872182
O O4 0.359667 0.121617 0.968758
O O5 0.828482 0.919185 0.915394
O O6 0.000000 0.859959 0.951288
O O7 0.854484 0.803661 0.007596
O O8 0.899959 0.000000 0.000000
O O9 0.883000 0.258553 0.250000
O O10 0.791985 0.142653 0.178539
O O11 0.000000 0.173590 0.180609
O O12 0.334350 0.159717 0.414948
O O13 0.500000 0.814557 0.968002
#
# Coordination Sequence:
#
# PCOD9471654 Si02
#       5
#    16  16  16  16  16
#     4  10  21  38  59  87 121 154 187 230 285 347
#     4  10  20  31  48  80 120 154 185 223 273 339
#     4  10  23  43  62  80 109 151 198 243 285 334
#     4  12  21  32  60  86 113 144 192 237 283 334
#     4  10  20  35  54  85 125 157 184 223 287 355
#
# _framework density 18.809179
#
# number of rings (size 3 to 8) (size 9 to 14) (size 15 to 20)
#    0.000    1.600    2.000    3.600    2.800    2.400 
#    0.000    0.000    0.000    1.800    0.000    0.000 
#    0.000    0.000    0.000    0.000    0.000    0.000 
#
# Total GULP energy -222778.615159 kJ/mol
# GULP energy per Si atom -5569.465379 kJ/mol
# Density = 1.876637 g / cm^3
# Si number density = 18.809179 Si / 1000 Ang^3
#
#
#
# Elastic Constant Matrix: (Units=GPa)
#
#
# Indices 1 2 3 4 5 6 
#
# 1 100.1090 29.6480 20.4438 0.0000 0.0000 0.0000
# 2 29.6480 84.0144 12.7693 0.0000 0.0000 0.0000
# 3 20.4438 12.7693 65.1450 0.0000 0.0000 0.0000
# 4 0.0000 0.0000 0.0000 13.9028 0.0000 0.0000
# 5 0.0000 0.0000 0.0000 0.0000 29.5223 0.0000
# 6 0.0000 0.0000 0.0000 0.0000 0.0000 32.4419
#
#
#
# Elastic Compliance Matrix: (Units=1/GPa)
#
#
# Indices 1 2 3 4 5 6 
#
# 1 0.011678 -0.003674 -0.002945 0.000000 0.000000 0.000000
# 2 -0.003674 0.013424 -0.001478 0.000000 0.000000 0.000000
# 3 -0.002945 -0.001478 0.016564 0.000000 0.000000 0.000000
# 4 0.000000 0.000000 0.000000 0.071928 0.000000 0.000000
# 5 0.000000 0.000000 0.000000 0.000000 0.033873 0.000000
# 6 0.000000 0.000000 0.000000 0.000000 0.000000 0.030824
#
#
# Mechanical properties :
#
#
# Convention : Reuss Voigt Hill
#
# Bulk Modulus (GPa) = 39.25753 41.66563 40.46158
# Shear Modulus (GPa) = 24.63339 27.60054 26.11696
#
# Velocity S-wave (km/s) = 3.62283 3.83482 3.73033
# Velocity P-wave (km/s) = 6.19812 6.46588 6.33341
#
# Compressibility (1/GPa) = 0.02547282
#
# Stress axis : x y z
#
# Youngs Moduli (GPa) = 85.62756 74.49445 60.37076
#
# Poissons Ratio (x) = 0.27367 0.17778
# Poissons Ratio (y) = 0.31457 0.08925
# Poissons Ratio (z) = 0.25216 0.11013
#
# Static dielectric constant tensor:
#      x y z
#    x 1.710690 0.000000 0.000000 
#    y 0.000000 1.781810 0.000000 
#    z 0.000000 0.000000 1.707940 
# 
# From -- ./inp_files/55484.got.cif
#   From: 2010.05.17/outbox.cif.g08.bks.cpg/sg63_28_cif.got.tgz:55484.got - 2010.06.03 15:47:04.
