data_PCOD9471060
_publ_section_title
;
Structure prediction by ZEFSAII (Michael W. Deem and Ramdas Pophale) SiO2 
 PCOD9471060
Probable space group: C M C M
;
_chemical_formula_sum "Si O2"
_cell_formula_units_Z 64
_cell_length_a 11.229691
_cell_length_b 15.097674
_cell_length_c 13.865313
_cell_angle_alpha 90.000000
_cell_angle_beta 90.000000
_cell_angle_gamma 90.000000
_cell_volume 2350.755862
_symmetry_space_group_name_H-M "C M C M"
_symmetry_group_IT_number 63
_symmetry_cell_setting 'orthorhombic'
loop_
_space_group_symop_operation_xyz
x,y,z
-x,-y,1/2+z
x,-y,-z
-x,y,1/2-z
-x,-y,-z
x,y,1/2-z
-x,y,z
x,-y,1/2+z
1/2+x,1/2+y,z
1/2-x,1/2-y,1/2+z
1/2+x,1/2-y,-z
1/2-x,1/2+y,1/2-z
1/2-x,1/2-y,-z
1/2+x,1/2+y,1/2-z
1/2-x,1/2+y,z
1/2+x,1/2-y,1/2+z
loop_
_atom_site_type_symbol
_atom_site_label
_atom_site_fract_x
_atom_site_fract_y
_atom_site_fract_z
Si Si1 0.500000 0.729095 0.934891
Si Si2 0.500000 0.831721 0.114542
Si Si3 0.000000 0.887923 0.865568
Si Si4 0.754647 0.006488 0.359327
Si Si5 0.247580 0.811978 0.406558
Si Si6 0.500000 0.031804 0.391629
O O1 0.384163 0.709928 0.871504
O O2 0.500000 0.822039 0.995066
O O3 0.500000 0.667873 0.032767
O O4 0.627038 0.791380 0.144097
O O5 0.500000 0.931018 0.151836
O O6 0.000000 0.859752 0.750000
O O7 0.122930 0.942566 0.874924
O O8 0.760347 0.970508 0.250000
O O9 0.746593 0.917841 0.424204
O O10 0.632836 0.064069 0.364978
O O11 0.250000 0.750000 0.500000
O O12 0.500000 0.000000 0.500000
#
# Coordination Sequence:
#
# PCOD9471060 Si02
#       6
#     8   8   8  16  16   8
#     4  10  19  34  56  77 113 149 187 245 281 337
#     4   8  18  34  50  80 111 136 183 240 282 334
#     4  10  23  37  54  84 120 159 196 236 297 349
#     4  10  21  37  55  82 120 155 192 240 297 351
#     4   9  18  33  54  82 108 145 195 238 285 342
#     4  10  21  35  60  89 106 146 197 245 293 348
#
# _framework density 27.225286000000001
#
# number of rings (size 3 to 8) (size 9 to 14) (size 15 to 20)
#    0.000    2.500    0.000    1.125    7.000    1.000 
#    0.000   11.250    0.000    0.000    0.000    1.750 
#    0.000    0.000    0.000    0.000    0.000    0.000 
#
# Total GULP energy -178422.447212 kJ/mol
# GULP energy per Si atom -5575.701475 kJ/mol
# Density = 2.716332 g / cm^3
# Si number density = 27.225286 Si / 1000 Ang^3
#
#
#
# Elastic Constant Matrix: (Units=GPa)
#
#
# Indices 1 2 3 4 5 6 
#
# 1 334.3906 32.6526 31.2719 0.0000 0.0000 0.0000
# 2 32.6526 83.5086 21.6225 0.0000 0.0000 0.0000
# 3 31.2719 21.6225 125.0523 0.0000 0.0000 0.0000
# 4 0.0000 0.0000 0.0000 6.1001 0.0000 0.0000
# 5 0.0000 0.0000 0.0000 0.0000 8.7136 0.0000
# 6 0.0000 0.0000 0.0000 0.0000 0.0000 41.2837
#
#
#
# Elastic Compliance Matrix: (Units=1/GPa)
#
#
# Indices 1 2 3 4 5 6 
#
# 1 0.003152 -0.001077 -0.000602 0.000000 0.000000 0.000000
# 2 -0.001077 0.012904 -0.001962 0.000000 0.000000 0.000000
# 3 -0.000602 -0.001962 0.008486 0.000000 0.000000 0.000000
# 4 0.000000 0.000000 0.000000 0.163933 0.000000 0.000000
# 5 0.000000 0.000000 0.000000 0.000000 0.114763 0.000000
# 6 0.000000 0.000000 0.000000 0.000000 0.000000 0.024223
#
#
# Mechanical properties :
#
#
# Convention : Reuss Voigt Hill
#
# Bulk Modulus (GPa) = 57.93397 79.33838 68.63618
# Shear Modulus (GPa) = 14.68448 41.71311 28.19879
#
# Velocity S-wave (km/s) = 2.32495 3.91851 3.22181
# Velocity P-wave (km/s) = 5.34162 7.04824 6.25342
#
# Compressibility (1/GPa) = 0.01726103
#
# Stress axis : x y z
#
# Youngs Moduli (GPa) = 317.26470 77.49679 117.83494
#
# Poissons Ratio (x) = 0.08343 0.07094
# Poissons Ratio (y) = 0.34155 0.23119
# Poissons Ratio (z) = 0.19101 0.15204
#
# Static dielectric constant tensor:
#      x y z
#    x 2.165480 0.000000 0.000000 
#    y 0.000000 2.307550 0.000000 
#    z 0.000000 0.000000 2.089540 
# 
# From -- ./inp_files/29245.got.cif
#   From: 2010.05.17/outbox.cif.g08.bks.cpg/sg63_15_cif.got.tgz:29245.got - 2010.06.03 15:47:04.
