data_PCOD9471965
_publ_section_title
;
Structure prediction by ZEFSAII (Michael W. Deem and Ramdas Pophale) SiO2 
 PCOD9471965
Probable space group: C M C M
;
_chemical_formula_sum "Si O2"
_cell_formula_units_Z 96
_cell_length_a 7.478311
_cell_length_b 18.880583
_cell_length_c 31.739832
_cell_angle_alpha 90.000000
_cell_angle_beta 90.000000
_cell_angle_gamma 90.000000
_cell_volume 4481.501502
_symmetry_space_group_name_H-M "C M C M"
_symmetry_group_IT_number 63
_symmetry_cell_setting 'orthorhombic'
loop_
_space_group_symop_operation_xyz
x,y,z
-x,-y,1/2+z
x,-y,-z
-x,y,1/2-z
-x,-y,-z
x,y,1/2-z
-x,y,z
x,-y,1/2+z
1/2+x,1/2+y,z
1/2-x,1/2-y,1/2+z
1/2+x,1/2-y,-z
1/2-x,1/2+y,1/2-z
1/2-x,1/2-y,-z
1/2+x,1/2+y,1/2-z
1/2-x,1/2+y,z
1/2+x,1/2-y,1/2+z
loop_
_atom_site_type_symbol
_atom_site_label
_atom_site_fract_x
_atom_site_fract_y
_atom_site_fract_z
Si Si1 0.719235 0.300517 0.377888
Si Si2 0.716302 0.462954 0.377786
Si Si3 0.285952 0.549395 0.202682
Si Si4 0.711246 0.048596 0.037567
Si Si5 0.214240 0.714254 0.297179
Si Si6 0.285891 0.791748 0.957097
O O1 0.500000 0.300442 0.377977
O O2 0.776404 0.381844 0.381649
O O3 0.779175 0.264792 0.334261
O O4 0.780286 0.253015 0.417156
O O5 0.500000 0.462344 0.376426
O O6 0.781474 0.499943 0.334816
O O7 0.768483 0.508620 0.418285
O O8 0.216639 0.534854 0.250000
O O9 0.500000 0.540371 0.204250
O O10 0.250804 0.631907 0.193053
O O11 0.500000 0.056692 0.028732
O O12 0.785446 0.128172 0.040225
O O13 0.786657 0.000000 0.000000
O O14 0.283730 0.728914 0.250000
O O15 0.000000 0.722334 0.295677
O O16 0.500000 0.796474 0.951695
O O17 0.250000 0.750000 0.000000
#
# Coordination Sequence:
#
# PCOD9471965 Si02
#       6
#    16  16  16  16  16  16
#     4   9  18  32  49  72 100 126 158 202 244 280
#     4  10  20  33  51  74  99 131 168 203 243 292
#     4   9  18  32  49  71 100 130 160 199 246 291
#     4  10  21  36  53  74 101 131 162 201 251 299
#     4   9  17  31  53  76  97 128 168 204 241 290
#     4  10  20  34  52  72  97 128 160 199 244 288
#
# _framework density 21.421392999999998
#
# number of rings (size 3 to 8) (size 9 to 14) (size 15 to 20)
#    0.000    2.500    0.000    2.000    0.000    3.667 
#    0.000    5.000    0.000    0.000    0.000    4.667 
#    0.000    0.000    0.000    0.000    0.000    0.000 
#
# Total GULP energy -268153.306059 kJ/mol
# GULP energy per Si atom -5586.527210 kJ/mol
# Density = 2.137264 g / cm^3
# Si number density = 21.421393 Si / 1000 Ang^3
#
#
#
# Elastic Constant Matrix: (Units=GPa)
#
#
# Indices 1 2 3 4 5 6 
#
# 1 56.2713 -4.2065 -8.7610 0.0000 0.0000 0.0000
# 2 -4.2065 216.4469 138.6185 0.0000 0.0000 0.0000
# 3 -8.7610 138.6185 172.2134 0.0000 0.0000 0.0000
# 4 0.0000 0.0000 0.0000 31.5006 0.0000 0.0000
# 5 0.0000 0.0000 0.0000 0.0000 74.0516 0.0000
# 6 0.0000 0.0000 0.0000 0.0000 0.0000 35.1149
#
#
#
# Elastic Compliance Matrix: (Units=1/GPa)
#
#
# Indices 1 2 3 4 5 6 
#
# 1 0.017938 -0.000487 0.001304 0.000000 0.000000 0.000000
# 2 -0.000487 0.009549 -0.007711 0.000000 0.000000 0.000000
# 3 0.001304 -0.007711 0.012080 0.000000 0.000000 0.000000
# 4 0.000000 0.000000 0.000000 0.031745 0.000000 0.000000
# 5 0.000000 0.000000 0.000000 0.000000 0.013504 0.000000
# 6 0.000000 0.000000 0.000000 0.000000 0.000000 0.028478
#
#
# Mechanical properties :
#
#
# Convention : Reuss Voigt Hill
#
# Bulk Modulus (GPa) = 38.79000 77.35926 58.07463
# Shear Modulus (GPa) = 36.85317 49.41880 43.13598
#
# Velocity S-wave (km/s) = 4.15226 4.80832 4.49228
# Velocity P-wave (km/s) = 6.41371 8.18645 7.35370
#
# Compressibility (1/GPa) = 0.02577984
#
# Stress axis : x y z
#
# Youngs Moduli (GPa) = 55.74839 104.72472 82.78330
#
# Poissons Ratio (x) = 0.05097 -0.10798
# Poissons Ratio (y) = 0.02713 0.63833
# Poissons Ratio (z) = -0.07271 0.80752
#
# Static dielectric constant tensor:
#      x y z
#    x 1.811700 0.000000 0.000000 
#    y 0.000000 1.732670 0.000000 
#    z 0.000000 0.000000 1.743440 
# 
# From -- ./inp_files/68318.got.cif
#   From: 2010.05.17/outbox.cif.g08.bks.cpg/sg63_35_cif.got.tgz:68318.got - 2010.06.03 15:47:04.
