data_PCOD9471156
_publ_section_title
;
Structure prediction by ZEFSAII (Michael W. Deem and Ramdas Pophale) SiO2 
 PCOD9471156
Probable space group: C M C M
;
_chemical_formula_sum "Si O2"
_cell_formula_units_Z 96
_cell_length_a 31.466324
_cell_length_b 11.247166
_cell_length_c 14.344492
_cell_angle_alpha 90.000000
_cell_angle_beta 90.000000
_cell_angle_gamma 90.000000
_cell_volume 5076.615692
_symmetry_space_group_name_H-M "C M C M"
_symmetry_group_IT_number 63
_symmetry_cell_setting 'orthorhombic'
loop_
_space_group_symop_operation_xyz
x,y,z
-x,-y,1/2+z
x,-y,-z
-x,y,1/2-z
-x,-y,-z
x,y,1/2-z
-x,y,z
x,-y,1/2+z
1/2+x,1/2+y,z
1/2-x,1/2-y,1/2+z
1/2+x,1/2-y,-z
1/2-x,1/2+y,1/2-z
1/2-x,1/2-y,-z
1/2+x,1/2+y,1/2-z
1/2-x,1/2+y,z
1/2+x,1/2-y,1/2+z
loop_
_atom_site_type_symbol
_atom_site_label
_atom_site_fract_x
_atom_site_fract_y
_atom_site_fract_z
Si Si1 0.637593 0.262835 0.855239
Si Si2 0.203666 0.629481 0.982824
Si Si3 0.279543 0.309273 0.143064
Si Si4 0.639513 0.463573 0.104110
Si Si5 0.454726 0.720303 0.136712
Si Si6 0.453852 0.441878 0.362802
O O1 0.644858 0.217072 0.750000
O O2 0.672322 0.216077 0.926562
O O3 0.637172 0.406625 0.848711
O O4 0.590475 0.226863 0.890497
O O5 0.244909 0.617197 0.916376
O O6 0.184802 0.500000 0.000000
O O7 0.215423 0.690745 0.080823
O O8 0.266286 0.287976 0.250000
O O9 0.324052 0.379546 0.143044
O O10 0.592861 0.401872 0.105121
O O11 0.650924 0.500000 0.000000
O O12 0.454221 0.720930 0.250000
O O13 0.500000 0.773153 0.106471
O O14 0.454869 0.581187 0.109193
O O15 0.453062 0.436411 0.250000
O O16 0.500000 0.390108 0.392405
#
# Coordination Sequence:
#
# PCOD9471156 Si02
#       6
#    16  16  16  16  16  16
#     4  10  19  34  58  84 113 149 184 227 278 326
#     4  11  25  42  58  83 111 141 186 231 269 324
#     4  11  24  41  61  82 109 145 181 225 279 331
#     4  11  19  33  54  84 116 147 186 229 276 332
#     4   7  11  22  44  76 109 140 177 219 265 318
#     4   8  14  25  43  72 111 149 181 217 269 334
#
# _framework density 18.910236999999999
#
# number of rings (size 3 to 8) (size 9 to 14) (size 15 to 20)
#    0.000    2.333    1.667    4.500    2.333    1.667 
#    0.000    0.000    0.000    0.500    0.000    0.000 
#    0.000    2.667    0.000    0.000    0.000    0.000 
#
# Total GULP energy -267396.528069 kJ/mol
# GULP energy per Si atom -5570.761001 kJ/mol
# Density = 1.886720 g / cm^3
# Si number density = 18.910237 Si / 1000 Ang^3
#
#
#
# Elastic Constant Matrix: (Units=GPa)
#
#
# Indices 1 2 3 4 5 6 
#
# 1 118.6711 13.4471 15.5577 0.0000 0.0000 0.0000
# 2 13.4471 37.4175 14.0789 0.0000 0.0000 0.0000
# 3 15.5577 14.0789 103.1945 0.0000 0.0000 0.0000
# 4 0.0000 0.0000 0.0000 1.4765 0.0000 0.0000
# 5 0.0000 0.0000 0.0000 0.0000 44.9870 0.0000
# 6 0.0000 0.0000 0.0000 0.0000 0.0000 6.6053
#
#
#
# Elastic Compliance Matrix: (Units=1/GPa)
#
#
# Indices 1 2 3 4 5 6 
#
# 1 0.008872 -0.002830 -0.000951 0.000000 0.000000 0.000000
# 2 -0.002830 0.029075 -0.003540 0.000000 0.000000 0.000000
# 3 -0.000951 -0.003540 0.010317 0.000000 0.000000 0.000000
# 4 0.000000 0.000000 0.000000 0.677272 0.000000 0.000000
# 5 0.000000 0.000000 0.000000 0.000000 0.022229 0.000000
# 6 0.000000 0.000000 0.000000 0.000000 0.000000 0.151395
#
#
# Mechanical properties :
#
#
# Convention : Reuss Voigt Hill
#
# Bulk Modulus (GPa) = 29.74427 38.38339 34.06383
# Shear Modulus (GPa) = 5.40535 25.02705 15.21620
#
# Velocity S-wave (km/s) = 1.69252 3.64189 2.83972
# Velocity P-wave (km/s) = 4.42525 6.16654 5.36699
#
# Compressibility (1/GPa) = 0.03361992
#
# Stress axis : x y z
#
# Youngs Moduli (GPa) = 112.71268 34.39419 96.92897
#
# Poissons Ratio (x) = 0.09735 0.09222
# Poissons Ratio (y) = 0.31903 0.34313
# Poissons Ratio (z) = 0.10723 0.12175
#
# Static dielectric constant tensor:
#      x y z
#    x 1.725650 0.000000 0.000000 
#    y 0.000000 1.635940 0.000000 
#    z 0.000000 0.000000 1.697450 
# 
# From -- ./inp_files/38635.got.cif
#   From: 2010.05.17/outbox.cif.g08.bks.cpg/sg63_20_cif.got.tgz:38635.got - 2010.06.03 15:47:04.
