data_PCOD9471907
_publ_section_title
;
Structure prediction by ZEFSAII (Michael W. Deem and Ramdas Pophale) SiO2 
 PCOD9471907
Probable space group: C M C M
;
_chemical_formula_sum "Si O2"
_cell_formula_units_Z 96
_cell_length_a 7.332447
_cell_length_b 20.205564
_cell_length_c 24.658919
_cell_angle_alpha 90.000000
_cell_angle_beta 90.000000
_cell_angle_gamma 90.000000
_cell_volume 3653.372404
_symmetry_space_group_name_H-M "C M C M"
_symmetry_group_IT_number 63
_symmetry_cell_setting 'orthorhombic'
loop_
_space_group_symop_operation_xyz
x,y,z
-x,-y,1/2+z
x,-y,-z
-x,y,1/2-z
-x,-y,-z
x,y,1/2-z
-x,y,z
x,-y,1/2+z
1/2+x,1/2+y,z
1/2-x,1/2-y,1/2+z
1/2+x,1/2-y,-z
1/2-x,1/2+y,1/2-z
1/2-x,1/2-y,-z
1/2+x,1/2+y,1/2-z
1/2-x,1/2+y,z
1/2+x,1/2-y,1/2+z
loop_
_atom_site_type_symbol
_atom_site_label
_atom_site_fract_x
_atom_site_fract_y
_atom_site_fract_z
Si Si1 0.792293 0.399347 0.309108
Si Si2 0.720847 0.689078 0.308307
Si Si3 0.716093 0.414118 0.956569
Si Si4 0.778317 0.769215 0.576439
Si Si5 0.281321 0.125834 0.569687
Si Si6 0.220892 0.041288 0.157262
O O1 0.713801 0.380147 0.250000
O O2 0.711726 0.385337 0.369091
O O3 0.796868 0.479050 0.311380
O O4 0.000000 0.372641 0.309687
O O5 0.785735 0.711932 0.250000
O O6 0.500000 0.689876 0.307989
O O7 0.774470 0.731051 0.360161
O O8 0.771583 0.612629 0.318689
O O9 0.500000 0.412658 0.948038
O O10 0.788510 0.339619 0.945276
O O11 0.782867 0.457724 0.905972
O O12 0.739704 0.424481 0.020663
O O13 0.716056 0.699608 0.552496
O O14 0.000000 0.770420 0.572948
O O15 0.500000 0.126422 0.573334
O O16 0.000000 0.036364 0.160154
#
# Coordination Sequence:
#
# PCOD9471907 Si02
#       6
#    16  16  16  16  16  16
#     4  10  22  37  50  69 100 134 165 198 237 284
#     4   8  13  23  44  73  97 118 154 205 250 284
#     4   9  18  33  53  77 101 123 156 205 252 288
#     4   8  15  28  46  70  99 128 158 196 242 288
#     4  10  20  33  50  72  99 132 165 194 233 291
#     4   9  18  33  53  75  97 124 162 206 248 289
#
# _framework density 26.277092
#
# number of rings (size 3 to 8) (size 9 to 14) (size 15 to 20)
#    0.000    3.000    0.000    3.000    0.000    3.667 
#    0.000    6.667    0.000    1.000    0.000    0.000 
#    0.000    0.000    0.000    0.000    0.000    0.000 
#
# Total GULP energy -268083.706185 kJ/mol
# GULP energy per Si atom -5585.077212 kJ/mol
# Density = 2.621728 g / cm^3
# Si number density = 26.277092 Si / 1000 Ang^3
#
#
#
# Elastic Constant Matrix: (Units=GPa)
#
#
# Indices 1 2 3 4 5 6 
#
# 1 107.0001 -8.3865 -3.2775 0.0000 0.0000 0.0000
# 2 -8.3865 54.8340 12.7217 0.0000 0.0000 0.0000
# 3 -3.2775 12.7217 197.2045 0.0000 0.0000 0.0000
# 4 0.0000 0.0000 0.0000 21.9569 0.0000 0.0000
# 5 0.0000 0.0000 0.0000 0.0000 4.1633 0.0000
# 6 0.0000 0.0000 0.0000 0.0000 0.0000 2.1062
#
#
#
# Elastic Compliance Matrix: (Units=1/GPa)
#
#
# Indices 1 2 3 4 5 6 
#
# 1 0.009460 0.001432 0.000065 0.000000 0.000000 0.000000
# 2 0.001432 0.018731 -0.001185 0.000000 0.000000 0.000000
# 3 0.000065 -0.001185 0.005148 0.000000 0.000000 0.000000
# 4 0.000000 0.000000 0.000000 0.045544 0.000000 0.000000
# 5 0.000000 0.000000 0.000000 0.000000 0.240193 0.000000
# 6 0.000000 0.000000 0.000000 0.000000 0.000000 0.474799
#
#
# Mechanical properties :
#
#
# Convention : Reuss Voigt Hill
#
# Bulk Modulus (GPa) = 29.44358 40.12823 34.78590
# Shear Modulus (GPa) = 6.21449 29.51068 17.86258
#
# Velocity S-wave (km/s) = 1.53952 3.35484 2.61008
# Velocity P-wave (km/s) = 3.79335 5.50554 4.72760
#
# Compressibility (1/GPa) = 0.03396327
#
# Stress axis : x y z
#
# Youngs Moduli (GPa) = 105.70835 53.38844 194.23628
#
# Poissons Ratio (x) = -0.07644 -0.01260
# Poissons Ratio (y) = -0.15135 0.23008
# Poissons Ratio (z) = -0.00686 0.06324
#
# Static dielectric constant tensor:
#      x y z
#    x 2.038870 0.000000 0.000000 
#    y 0.000000 2.021640 0.000000 
#    z 0.000000 0.000000 2.101600 
# 
# From -- ./inp_files/59942.got.cif
#   From: 2010.05.17/outbox.cif.g08.bks.cpg/sg63_30_cif.got.tgz:59942.got - 2010.06.03 15:47:04.
