data_PCOD9471450
_publ_section_title
;
Structure prediction by ZEFSAII (Michael W. Deem and Ramdas Pophale) SiO2 
 PCOD9471450
Probable space group: C M C M
;
_chemical_formula_sum "Si O2"
_cell_formula_units_Z 88
_cell_length_a 31.353617
_cell_length_b 14.907981
_cell_length_c 10.597610
_cell_angle_alpha 90.000000
_cell_angle_beta 90.000000
_cell_angle_gamma 90.000000
_cell_volume 4953.525609
_symmetry_space_group_name_H-M "C M C M"
_symmetry_group_IT_number 63
_symmetry_cell_setting 'orthorhombic'
loop_
_space_group_symop_operation_xyz
x,y,z
-x,-y,1/2+z
x,-y,-z
-x,y,1/2-z
-x,-y,-z
x,y,1/2-z
-x,y,z
x,-y,1/2+z
1/2+x,1/2+y,z
1/2-x,1/2-y,1/2+z
1/2+x,1/2-y,-z
1/2-x,1/2+y,1/2-z
1/2-x,1/2-y,-z
1/2+x,1/2+y,1/2-z
1/2-x,1/2+y,z
1/2+x,1/2-y,1/2+z
loop_
_atom_site_type_symbol
_atom_site_label
_atom_site_fract_x
_atom_site_fract_y
_atom_site_fract_z
Si Si1 0.403039 0.000000 0.000000
Si Si2 0.448617 0.065080 0.250000
Si Si3 0.254399 0.328531 0.102560
Si Si4 0.450490 0.442201 0.250000
Si Si5 0.598771 0.500000 0.500000
Si Si6 0.152983 0.826939 0.479765
Si Si7 0.162031 0.638877 0.895537
Si Si8 0.904846 0.240059 0.750000
O O1 0.371372 0.084156 0.978608
O O2 0.431642 0.984127 0.876176
O O3 0.500000 0.071267 0.250000
O O4 0.426292 0.163020 0.250000
O O5 0.252777 0.299352 0.250000
O O6 0.301961 0.362687 0.075227
O O7 0.211772 0.387342 0.082790
O O8 0.250000 0.250000 0.000000
O O9 0.500000 0.462232 0.250000
O O10 0.428821 0.480107 0.376108
O O11 0.441232 0.335876 0.250000
O O12 0.627243 0.412494 0.527270
O O13 0.159748 0.745612 0.577666
O O14 0.125417 0.780540 0.369091
O O15 0.151923 0.620574 0.750000
#
# Coordination Sequence:
#
# PCOD9471450 Si02
#       8
#     8   8  16   8   8  16  16   8
#     4  12  23  41  64  84 116 156 192 243 303 350
#     4  12  25  42  62  88 114 148 198 253 302 353
#     4   9  18  33  56  85 120 156 192 236 277 334
#     4  10  21  40  59  86 115 145 194 244 294 354
#     4  10  23  35  62  86 112 158 186 237 297 340
#     4  10  19  36  59  85 121 152 195 231 283 343
#     4  10  21  36  58  86 119 156 194 234 285 341
#     4  10  19  36  63  84 107 155 194 235 289 343
#
# _framework density 17.765124
#
# number of rings (size 3 to 8) (size 9 to 14) (size 15 to 20)
#    0.000    1.818    3.636    0.818    1.273    0.727 
#    0.000    0.000    0.000    1.091    0.000    0.000 
#    0.000    0.000    0.000    0.000    0.000    0.000 
#
# Total GULP energy -245155.484203 kJ/mol
# GULP energy per Si atom -5571.715550 kJ/mol
# Density = 1.772469 g / cm^3
# Si number density = 17.765124 Si / 1000 Ang^3
#
#
#
# Elastic Constant Matrix: (Units=GPa)
#
#
# Indices 1 2 3 4 5 6 
#
# 1 141.3100 42.8724 40.5185 0.0000 0.0000 0.0000
# 2 42.8724 69.6699 18.4039 0.0000 0.0000 0.0000
# 3 40.5185 18.4039 85.6672 0.0000 0.0000 0.0000
# 4 0.0000 0.0000 0.0000 22.7880 0.0000 0.0000
# 5 0.0000 0.0000 0.0000 0.0000 -72.4818 0.0000
# 6 0.0000 0.0000 0.0000 0.0000 0.0000 12.4503
#
#
#
# Elastic Compliance Matrix: (Units=1/GPa)
#
#
# Indices 1 2 3 4 5 6 
#
# 1 0.009580 -0.004981 -0.003461 0.000000 0.000000 0.000000
# 2 -0.004981 0.017807 -0.001469 0.000000 0.000000 0.000000
# 3 -0.003461 -0.001469 0.013626 0.000000 0.000000 0.000000
# 4 0.000000 0.000000 0.000000 0.043883 0.000000 0.000000
# 5 0.000000 0.000000 0.000000 0.000000 -0.013797 0.000000
# 6 0.000000 0.000000 0.000000 0.000000 0.000000 0.080319
#
#
# Mechanical properties :
#
#
# Convention : Reuss Voigt Hill
#
# Bulk Modulus (GPa) = 47.19343 55.58185 51.38764
# Shear Modulus (GPa) = 28.04188 5.54146 16.79167
#
# Velocity S-wave (km/s) = 3.97732 1.76807 3.07775
# Velocity P-wave (km/s) = 6.90760 5.96012 6.45128
#
# Compressibility (1/GPa) = 0.02118939
#
# Stress axis : x y z
#
# Youngs Moduli (GPa) = 104.38088 56.15847 73.39012
#
# Poissons Ratio (x) = 0.27973 0.25401
# Poissons Ratio (y) = 0.51993 0.10785
# Poissons Ratio (z) = 0.36128 0.08252
#
# Static dielectric constant tensor:
#      x y z
#    x 1.624230 0.000000 0.000000 
#    y 0.000000 1.586640 0.000000 
#    z 0.000000 0.000000 1.594010 
# 
# From -- ./inp_files/24944.got.cif
#   From: 2010.05.17/outbox.cif.g08.bks.cpg/sg63_13_cif.got.tgz:24944.got - 2010.06.03 15:47:04.
