data_PCOD9471968
_publ_section_title
;
Structure prediction by ZEFSAII (Michael W. Deem and Ramdas Pophale) SiO2 
 PCOD9471968
Probable space group: C M C M
;
_chemical_formula_sum "Si O2"
_cell_formula_units_Z 72
_cell_length_a 10.284648
_cell_length_b 15.403748
_cell_length_c 24.552125
_cell_angle_alpha 90.000000
_cell_angle_beta 90.000000
_cell_angle_gamma 90.000000
_cell_volume 3889.599842
_symmetry_space_group_name_H-M "C M C M"
_symmetry_group_IT_number 63
_symmetry_cell_setting 'orthorhombic'
loop_
_space_group_symop_operation_xyz
x,y,z
-x,-y,1/2+z
x,-y,-z
-x,y,1/2-z
-x,-y,-z
x,y,1/2-z
-x,y,z
x,-y,1/2+z
1/2+x,1/2+y,z
1/2-x,1/2-y,1/2+z
1/2+x,1/2-y,-z
1/2-x,1/2+y,1/2-z
1/2-x,1/2-y,-z
1/2+x,1/2+y,1/2-z
1/2-x,1/2+y,z
1/2+x,1/2-y,1/2+z
loop_
_atom_site_type_symbol
_atom_site_label
_atom_site_fract_x
_atom_site_fract_y
_atom_site_fract_z
Si Si1 0.256729 0.500000 0.000000
Si Si2 0.142067 0.316563 0.981256
Si Si3 0.342706 0.331912 0.310487
Si Si4 0.850035 0.647587 0.352810
Si Si5 0.651622 0.498212 0.377794
O O1 0.171502 0.587017 0.997544
O O2 0.335151 0.503671 0.056647
O O3 0.143400 0.323953 0.916047
O O4 0.000000 0.286624 0.999336
O O5 0.250000 0.250000 0.000000
O O6 0.301979 0.360128 0.250000
O O7 0.500000 0.327831 0.311585
O O8 0.301380 0.233198 0.321638
O O9 0.307949 0.403164 0.355658
O O10 0.749440 0.568261 0.351525
O O11 0.000000 0.625738 0.336419
O O12 0.500000 0.512975 0.363202
#
# Coordination Sequence:
#
# PCOD9471968 Si02
#       5
#     8  16  16  16  16
#     4  10  20  34  52  76 110 144 172 206 258 316
#     4  10  20  33  51  75 104 137 173 210 251 302
#     4   9  18  34  55  76 101 136 175 214 260 313
#     4   9  19  35  52  73 102 135 169 207 255 309
#     4  10  20  34  54  80 106 136 175 217 258 304
#
# _framework density 18.510901
#
# number of rings (size 3 to 8) (size 9 to 14) (size 15 to 20)
#    0.000    2.444    0.000    2.000    0.000    8.000 
#    0.000    1.111    0.000    1.333    0.000    0.000 
#    0.000    0.000    0.000    0.000    0.000    0.000 
#
# Total GULP energy -200656.973614 kJ/mol
# GULP energy per Si atom -5573.804823 kJ/mol
# Density = 1.846877 g / cm^3
# Si number density = 18.510901 Si / 1000 Ang^3
#
#
#
# Elastic Constant Matrix: (Units=GPa)
#
#
# Indices 1 2 3 4 5 6 
#
# 1 93.0007 49.6058 11.5979 0.0000 0.0000 0.0000
# 2 49.6058 108.8359 33.0691 0.0000 0.0000 0.0000
# 3 11.5979 33.0691 38.3696 0.0000 0.0000 0.0000
# 4 0.0000 0.0000 0.0000 29.1543 0.0000 0.0000
# 5 0.0000 0.0000 0.0000 0.0000 10.7498 0.0000
# 6 0.0000 0.0000 0.0000 0.0000 0.0000 23.0563
#
#
#
# Elastic Compliance Matrix: (Units=1/GPa)
#
#
# Indices 1 2 3 4 5 6 
#
# 1 0.014293 -0.007047 0.001753 0.000000 0.000000 0.000000
# 2 -0.007047 0.015923 -0.011593 0.000000 0.000000 0.000000
# 3 0.001753 -0.011593 0.035524 0.000000 0.000000 0.000000
# 4 0.000000 0.000000 0.000000 0.034300 0.000000 0.000000
# 5 0.000000 0.000000 0.000000 0.000000 0.093025 0.000000
# 6 0.000000 0.000000 0.000000 0.000000 0.000000 0.043372
#
#
# Mechanical properties :
#
#
# Convention : Reuss Voigt Hill
#
# Bulk Modulus (GPa) = 31.28340 47.63911 39.46125
# Shear Modulus (GPa) = 17.80213 22.32097 20.06155
#
# Velocity S-wave (km/s) = 3.10451 3.47627 3.29564
# Velocity P-wave (km/s) = 5.45778 6.47334 5.98713
#
# Compressibility (1/GPa) = 0.03196584
#
# Stress axis : x y z
#
# Youngs Moduli (GPa) = 69.96487 62.80380 28.15025
#
# Poissons Ratio (x) = 0.44260 -0.04936
# Poissons Ratio (y) = 0.49306 0.32634
# Poissons Ratio (z) = -0.12268 0.72808
#
# Static dielectric constant tensor:
#      x y z
#    x 1.633410 0.000000 0.000000 
#    y 0.000000 1.629940 0.000000 
#    z 0.000000 0.000000 1.651960 
# 
# From -- ./inp_files/66319.got.cif
#   From: 2010.05.17/outbox.cif.g08.bks.cpg/sg63_34_cif.got.tgz:66319.got - 2010.06.03 15:47:04.
