data_PCOD9471706
_publ_section_title
;
Structure prediction by ZEFSAII (Michael W. Deem and Ramdas Pophale) SiO2 
 PCOD9471706
Probable space group: C M C M
;
_chemical_formula_sum "Si O2"
_cell_formula_units_Z 80
_cell_length_a 19.452764
_cell_length_b 33.491144
_cell_length_c 8.869508
_cell_angle_alpha 90.000000
_cell_angle_beta 90.000000
_cell_angle_gamma 90.000000
_cell_volume 5778.442956
_symmetry_space_group_name_H-M "C M C M"
_symmetry_group_IT_number 63
_symmetry_cell_setting 'orthorhombic'
loop_
_space_group_symop_operation_xyz
x,y,z
-x,-y,1/2+z
x,-y,-z
-x,y,1/2-z
-x,-y,-z
x,y,1/2-z
-x,y,z
x,-y,1/2+z
1/2+x,1/2+y,z
1/2-x,1/2-y,1/2+z
1/2+x,1/2-y,-z
1/2-x,1/2+y,1/2-z
1/2-x,1/2-y,-z
1/2+x,1/2+y,1/2-z
1/2-x,1/2+y,z
1/2+x,1/2-y,1/2+z
loop_
_atom_site_type_symbol
_atom_site_label
_atom_site_fract_x
_atom_site_fract_y
_atom_site_fract_z
Si Si1 0.000000 0.664324 0.927637
Si Si2 0.719625 0.188046 0.571032
Si Si3 0.000000 0.239610 0.426647
Si Si4 0.418869 0.956755 0.430067
Si Si5 0.143893 0.235844 0.570975
Si Si6 0.866953 0.377534 0.929839
O O1 0.000000 0.712085 0.940620
O O2 0.000000 0.653649 0.750000
O O3 0.067020 0.646268 0.005941
O O4 0.707763 0.184420 0.750000
O O5 0.797671 0.202443 0.545093
O O6 0.672142 0.223973 0.508055
O O7 0.697901 0.147510 0.489546
O O8 0.930141 0.225215 0.504820
O O9 0.000000 0.229816 0.250000
O O10 0.410390 0.957391 0.250000
O O11 0.500000 0.948246 0.461639
O O12 0.374242 0.921845 0.503708
O O13 0.403733 0.000000 0.500000
O O14 0.139211 0.243077 0.750000
O O15 0.868660 0.378283 0.750000
#
# Coordination Sequence:
#
# PCOD9471706 Si02
#       6
#     8  16   8  16  16  16
#     4  11  21  31  42  62  86 114 150 189 226 261
#     4  10  20  33  46  63  87 114 145 184 227 265
#     4  11  21  31  47  64  87 116 147 187 228 267
#     4  10  20  33  48  64  88 116 145 184 224 264
#     4  10  20  32  47  64  85 113 147 185 224 267
#     4  12  22  31  47  66  86 115 150 187 224 266
#
# _framework density 13.84456
#
# number of rings (size 3 to 8) (size 9 to 14) (size 15 to 20)
#    0.000    1.400    3.000    4.200    0.000    4.000 
#    0.000    0.000    0.000    0.000    0.000    0.000 
#    0.000    0.000    0.000    0.900    0.000   11.800 
#
# Total GULP energy -223413.152655 kJ/mol
# GULP energy per Si atom -5585.328816 kJ/mol
# Density = 1.381305 g / cm^3
# Si number density = 13.844560 Si / 1000 Ang^3
#
#
#
# Elastic Constant Matrix: (Units=GPa)
#
#
# Indices 1 2 3 4 5 6 
#
# 1 87.0223 35.7685 51.3695 0.0000 0.0000 0.0000
# 2 35.7685 87.5794 57.6492 0.0000 0.0000 0.0000
# 3 51.3695 57.6492 105.9328 0.0000 0.0000 0.0000
# 4 0.0000 0.0000 0.0000 23.4001 0.0000 0.0000
# 5 0.0000 0.0000 0.0000 0.0000 21.4542 0.0000
# 6 0.0000 0.0000 0.0000 0.0000 0.0000 20.5270
#
#
#
# Elastic Compliance Matrix: (Units=1/GPa)
#
#
# Indices 1 2 3 4 5 6 
#
# 1 0.016386 -0.002278 -0.006707 0.000000 0.000000 0.000000
# 2 -0.002278 0.018108 -0.008750 0.000000 0.000000 0.000000
# 3 -0.006707 -0.008750 0.017454 0.000000 0.000000 0.000000
# 4 0.000000 0.000000 0.000000 0.042735 0.000000 0.000000
# 5 0.000000 0.000000 0.000000 0.000000 0.046611 0.000000
# 6 0.000000 0.000000 0.000000 0.000000 0.000000 0.048716
#
#
# Mechanical properties :
#
#
# Convention : Reuss Voigt Hill
#
# Bulk Modulus (GPa) = 60.68048 63.34542 62.01295
# Shear Modulus (GPa) = 21.64756 22.12609 21.88682
#
# Velocity S-wave (km/s) = 3.95855 4.00206 3.98036
# Velocity P-wave (km/s) = 8.05099 8.19813 8.12489
#
# Compressibility (1/GPa) = 0.01647976
#
# Stress axis : x y z
#
# Youngs Moduli (GPa) = 61.02594 55.22357 57.29351
#
# Poissons Ratio (x) = 0.12579 0.38425
# Poissons Ratio (y) = 0.13900 0.50132
# Poissons Ratio (z) = 0.40928 0.48321
#
# Static dielectric constant tensor:
#      x y z
#    x 1.453010 0.000000 0.000000 
#    y 0.000000 1.444740 0.000000 
#    z 0.000000 0.000000 1.458780 
# 
# From -- ./inp_files/8897.got.cif
#   From: 2010.05.17/outbox.cif.g08.bks.cpg/sg63_5_cif.got.tgz:8897.got - 2010.06.03 15:47:04.
