data_PCOD9471754
_publ_section_title
;
Structure prediction by ZEFSAII (Michael W. Deem and Ramdas Pophale) SiO2 
 PCOD9471754
Probable space group: C M C M
;
_chemical_formula_sum "Si O2"
_cell_formula_units_Z 64
_cell_length_a 7.651326
_cell_length_b 42.666664
_cell_length_c 9.519649
_cell_angle_alpha 90.000000
_cell_angle_beta 90.000000
_cell_angle_gamma 90.000000
_cell_volume 3107.751823
_symmetry_space_group_name_H-M "C M C M"
_symmetry_group_IT_number 63
_symmetry_cell_setting 'orthorhombic'
loop_
_space_group_symop_operation_xyz
x,y,z
-x,-y,1/2+z
x,-y,-z
-x,y,1/2-z
-x,-y,-z
x,y,1/2-z
-x,y,z
x,-y,1/2+z
1/2+x,1/2+y,z
1/2-x,1/2-y,1/2+z
1/2+x,1/2-y,-z
1/2-x,1/2+y,1/2-z
1/2-x,1/2-y,-z
1/2+x,1/2+y,1/2-z
1/2-x,1/2+y,z
1/2+x,1/2-y,1/2+z
loop_
_atom_site_type_symbol
_atom_site_label
_atom_site_fract_x
_atom_site_fract_y
_atom_site_fract_z
Si Si1 0.709549 0.780143 0.908616
Si Si2 0.789076 0.650463 0.412286
Si Si3 0.292228 0.410204 0.091097
Si Si4 0.286099 0.530596 0.411996
O O1 0.775530 0.775678 0.750000
O O2 0.500000 0.782218 0.902390
O O3 0.770502 0.814619 0.957497
O O4 0.750000 0.750000 0.000000
O O5 0.731733 0.645361 0.250000
O O6 0.733086 0.622850 0.514326
O O7 0.000000 0.650316 0.410866
O O8 0.221083 0.410515 0.250000
O O9 0.500000 0.415389 0.101806
O O10 0.224691 0.438291 0.993013
O O11 0.233839 0.500000 0.500000
O O12 0.228701 0.529675 0.250000
O O13 0.500000 0.530905 0.409393
#
# Coordination Sequence:
#
# PCOD9471754 Si02
#       4
#    16  16  16  16
#     4   9  19  35  53  74 100 129 163 203 246 294
#     4   9  19  36  54  71  96 132 169 203 244 295
#     4  10  20  32  48  74 104 131 164 206 248 292
#     4   9  16  27  45  69  98 131 165 203 247 292
#
# _framework density 20.593665000000001
#
# number of rings (size 3 to 8) (size 9 to 14) (size 15 to 20)
#    0.000    2.750    0.000    3.000    0.000    7.500 
#    0.000    7.500    0.000    0.750    0.000    0.000 
#    0.000    0.000    0.000    0.000    0.000    0.000 
#
# Total GULP energy -178566.212284 kJ/mol
# GULP energy per Si atom -5580.194134 kJ/mol
# Density = 2.054679 g / cm^3
# Si number density = 20.593665 Si / 1000 Ang^3
#
#
#
# Elastic Constant Matrix: (Units=GPa)
#
#
# Indices 1 2 3 4 5 6 
#
# 1 34.3698 -0.1586 6.6789 0.0000 0.0000 0.0000
# 2 -0.1586 224.3874 145.0060 0.0000 0.0000 0.0000
# 3 6.6789 145.0060 185.0161 0.0000 0.0000 0.0000
# 4 0.0000 0.0000 0.0000 41.2777 0.0000 0.0000
# 5 0.0000 0.0000 0.0000 0.0000 15.2859 0.0000
# 6 0.0000 0.0000 0.0000 0.0000 0.0000 11.7909
#
#
#
# Elastic Compliance Matrix: (Units=1/GPa)
#
#
# Indices 1 2 3 4 5 6 
#
# 1 0.029528 0.001438 -0.002193 0.000000 0.000000 0.000000
# 2 0.001438 0.009100 -0.007184 0.000000 0.000000 0.000000
# 3 -0.002193 -0.007184 0.011115 0.000000 0.000000 0.000000
# 4 0.000000 0.000000 0.000000 0.024226 0.000000 0.000000
# 5 0.000000 0.000000 0.000000 0.000000 0.065420 0.000000
# 6 0.000000 0.000000 0.000000 0.000000 0.000000 0.084811
#
#
# Mechanical properties :
#
#
# Convention : Reuss Voigt Hill
#
# Bulk Modulus (GPa) = 29.52924 82.98068 56.25496
# Shear Modulus (GPa) = 19.89124 33.15404 26.52264
#
# Velocity S-wave (km/s) = 3.11125 4.01673 3.59263
# Velocity P-wave (km/s) = 5.22270 7.86727 6.67722
#
# Compressibility (1/GPa) = 0.03386474
#
# Stress axis : x y z
#
# Youngs Moduli (GPa) = 33.86603 109.88701 89.97080
#
# Poissons Ratio (x) = -0.15802 0.19731
# Poissons Ratio (y) = -0.04870 0.64637
# Poissons Ratio (z) = 0.07427 0.78945
#
# Static dielectric constant tensor:
#      x y z
#    x 1.789950 0.000000 0.000000 
#    y 0.000000 1.719980 0.000000 
#    z 0.000000 0.000000 1.712640 
# 
# From -- ./inp_files/3115.got.cif
#   From: 2010.05.17/outbox.cif.g08.bks.cpg/sg63_2_cif.got.tgz:3115.got - 2010.06.03 15:47:04.
