data_PCOD9471874
_publ_section_title
;
Structure prediction by ZEFSAII (Michael W. Deem and Ramdas Pophale) SiO2 
 PCOD9471874
Probable space group: C M C M
;
_chemical_formula_sum "Si O2"
_cell_formula_units_Z 80
_cell_length_a 9.075507
_cell_length_b 14.726530
_cell_length_c 27.418348
_cell_angle_alpha 90.000000
_cell_angle_beta 90.000000
_cell_angle_gamma 90.000000
_cell_volume 3664.482119
_symmetry_space_group_name_H-M "C M C M"
_symmetry_group_IT_number 63
_symmetry_cell_setting 'orthorhombic'
loop_
_space_group_symop_operation_xyz
x,y,z
-x,-y,1/2+z
x,-y,-z
-x,y,1/2-z
-x,-y,-z
x,y,1/2-z
-x,y,z
x,-y,1/2+z
1/2+x,1/2+y,z
1/2-x,1/2-y,1/2+z
1/2+x,1/2-y,-z
1/2-x,1/2+y,1/2-z
1/2-x,1/2-y,-z
1/2+x,1/2+y,1/2-z
1/2-x,1/2+y,z
1/2+x,1/2-y,1/2+z
loop_
_atom_site_type_symbol
_atom_site_label
_atom_site_fract_x
_atom_site_fract_y
_atom_site_fract_z
Si Si1 0.666563 0.777824 0.250000
Si Si2 0.329131 0.999789 0.750000
Si Si3 0.173575 0.780339 0.450974
Si Si4 0.830317 0.534030 0.555695
Si Si5 0.329680 0.276089 0.153539
Si Si6 0.172013 0.001724 0.850454
O O1 0.500000 0.747773 0.250000
O O2 0.670337 0.888829 0.250000
O O3 0.744192 0.746338 0.200921
O O4 0.500000 0.970850 0.750000
O O5 0.246085 0.971568 0.799640
O O6 0.250000 0.750000 0.500000
O O7 0.212468 0.885698 0.447720
O O8 0.228783 0.743008 0.398875
O O9 0.000000 0.763060 0.453852
O O10 0.836190 0.500000 0.500000
O O11 0.767877 0.476528 0.601456
O O12 0.000000 0.561580 0.567838
O O13 0.500000 0.250079 0.157450
O O14 0.324716 0.386930 0.152567
O O15 0.000000 0.975333 0.854424
#
# Coordination Sequence:
#
# PCOD9471874 Si02
#       6
#     8   8  16  16  16  16
#     4   9  15  21  35  59  84 113 146 183 226 269
#     4   9  15  23  37  59  88 119 150 187 234 283
#     4  10  20  33  50  71  96 127 161 198 239 284
#     4  10  20  33  49  70  97 128 162 200 240 284
#     4   8  15  26  39  58  86 118 148 182 227 275
#     4   9  16  26  41  62  89 120 154 192 235 282
#
# _framework density 21.831188999999998
#
# number of rings (size 3 to 8) (size 9 to 14) (size 15 to 20)
#    0.000    2.800    0.000    3.600    0.000    9.600 
#    0.000    0.000    0.000    0.000    0.000    1.400 
#    0.000    3.200    0.000    0.000    0.000    0.000 
#
# Total GULP energy -223005.939122 kJ/mol
# GULP energy per Si atom -5575.148478 kJ/mol
# Density = 2.178150 g / cm^3
# Si number density = 21.831189 Si / 1000 Ang^3
#
#
#
# Elastic Constant Matrix: (Units=GPa)
#
#
# Indices 1 2 3 4 5 6 
#
# 1 89.8053 -10.6063 101.2445 0.0000 0.0000 0.0000
# 2 -10.6063 29.9781 3.3071 0.0000 0.0000 0.0000
# 3 101.2445 3.3071 254.7260 0.0000 0.0000 0.0000
# 4 0.0000 0.0000 0.0000 7.8481 0.0000 0.0000
# 5 0.0000 0.0000 0.0000 0.0000 44.4347 0.0000
# 6 0.0000 0.0000 0.0000 0.0000 0.0000 7.8248
#
#
#
# Elastic Compliance Matrix: (Units=1/GPa)
#
#
# Indices 1 2 3 4 5 6 
#
# 1 0.022313 0.008885 -0.008984 0.000000 0.000000 0.000000
# 2 0.008885 0.036944 -0.004011 0.000000 0.000000 0.000000
# 3 -0.008984 -0.004011 0.007549 0.000000 0.000000 0.000000
# 4 0.000000 0.000000 0.000000 0.127420 0.000000 0.000000
# 5 0.000000 0.000000 0.000000 0.000000 0.022505 0.000000
# 6 0.000000 0.000000 0.000000 0.000000 0.000000 0.127799
#
#
# Mechanical properties :
#
#
# Convention : Reuss Voigt Hill
#
# Bulk Modulus (GPa) = 17.06897 62.48888 39.77893
# Shear Modulus (GPa) = 13.43084 30.72579 22.07832
#
# Velocity S-wave (km/s) = 2.48304 3.75564 3.18358
# Velocity P-wave (km/s) = 4.00702 6.89146 5.63686
#
# Compressibility (1/GPa) = 0.05858584
#
# Stress axis : x y z
#
# Youngs Moduli (GPa) = 44.81711 27.06811 132.47380
#
# Poissons Ratio (x) = -0.24051 1.19014
# Poissons Ratio (y) = -0.39822 0.53139
# Poissons Ratio (z) = 0.40263 0.10858
#
# Static dielectric constant tensor:
#      x y z
#    x 1.732540 0.000000 0.000000 
#    y 0.000000 1.950670 0.000000 
#    z 0.000000 0.000000 1.860580 
# 
# From -- ./inp_files/59567.got.cif
#   From: 2010.05.17/outbox.cif.g08.bks.cpg/sg63_30_cif.got.tgz:59567.got - 2010.06.03 15:47:04.
