data_PCOD9471096
_publ_section_title
;
Structure prediction by ZEFSAII (Michael W. Deem and Ramdas Pophale) SiO2 
 PCOD9471096
Probable space group: C M C M
;
_chemical_formula_sum "Si O2"
_cell_formula_units_Z 84
_cell_length_a 7.311011
_cell_length_b 24.846003
_cell_length_c 20.354487
_cell_angle_alpha 90.000000
_cell_angle_beta 90.000000
_cell_angle_gamma 90.000000
_cell_volume 3697.380376
_symmetry_space_group_name_H-M "C M C M"
_symmetry_group_IT_number 63
_symmetry_cell_setting 'orthorhombic'
loop_
_space_group_symop_operation_xyz
x,y,z
-x,-y,1/2+z
x,-y,-z
-x,y,1/2-z
-x,-y,-z
x,y,1/2-z
-x,y,z
x,-y,1/2+z
1/2+x,1/2+y,z
1/2-x,1/2-y,1/2+z
1/2+x,1/2-y,-z
1/2-x,1/2+y,1/2-z
1/2-x,1/2-y,-z
1/2+x,1/2+y,1/2-z
1/2-x,1/2+y,z
1/2+x,1/2-y,1/2+z
loop_
_atom_site_type_symbol
_atom_site_label
_atom_site_fract_x
_atom_site_fract_y
_atom_site_fract_z
Si Si1 0.777248 0.131978 0.410581
Si Si2 0.777004 0.909238 0.324218
Si Si3 0.208647 0.755521 0.644263
Si Si4 0.222307 0.966652 0.824186
Si Si5 0.721209 0.334975 0.444999
Si Si6 0.500000 0.721111 0.750000
O O1 0.727422 0.183309 0.366231
O O2 0.715815 0.076612 0.377407
O O3 0.716541 0.142971 0.484840
O O4 0.000000 0.131118 0.411721
O O5 0.719327 0.893785 0.250000
O O6 0.716588 0.872874 0.384648
O O7 0.000000 0.906619 0.322908
O O8 0.724121 0.971462 0.335247
O O9 0.215520 0.724484 0.574804
O O10 0.341854 0.724991 0.692974
O O11 0.000000 0.756040 0.667470
O O12 0.277224 0.951249 0.750000
O O13 0.000000 0.966493 0.825161
O O14 0.500000 0.335072 0.446135
#
# Coordination Sequence:
#
# PCOD9471096 Si02
#       6
#    16  16  16  16  16   4
#     4   9  19  33  54  84 120 163 207 251 302 362
#     4   8  15  26  47  78 115 158 206 256 307 351
#     4  11  24  41  62  91 124 159 197 247 307 362
#     4   8  14  27  46  76 116 157 205 263 306 350
#     4  10  19  34  56  84 123 165 205 251 300 362
#     4  12  26  44  64  94 120 156 204 256 300 360
#
# _framework density 22.718788
#
# number of rings (size 3 to 8) (size 9 to 14) (size 15 to 20)
#    0.000    2.667    0.952    2.000    2.667    0.762 
#    1.714    3.810    0.000    0.000    2.476    1.333 
#    0.000    0.000    0.000    0.000    0.000    0.000 
#
# Total GULP energy -234290.006351 kJ/mol
# GULP energy per Si atom -5578.333485 kJ/mol
# Density = 2.266708 g / cm^3
# Si number density = 22.718788 Si / 1000 Ang^3
#
#
#
# Elastic Constant Matrix: (Units=GPa)
#
#
# Indices 1 2 3 4 5 6 
#
# 1 110.7837 4.9763 18.4268 0.0000 0.0000 0.0000
# 2 4.9763 77.1581 15.7048 0.0000 0.0000 0.0000
# 3 18.4268 15.7048 71.8570 0.0000 0.0000 0.0000
# 4 0.0000 0.0000 0.0000 68.7473 0.0000 0.0000
# 5 0.0000 0.0000 0.0000 0.0000 65.2276 0.0000
# 6 0.0000 0.0000 0.0000 0.0000 0.0000 -4.6106
#
#
#
# Elastic Compliance Matrix: (Units=1/GPa)
#
#
# Indices 1 2 3 4 5 6 
#
# 1 0.009430 -0.000121 -0.002392 0.000000 0.000000 0.000000
# 2 -0.000121 0.013565 -0.002934 0.000000 0.000000 0.000000
# 3 -0.002392 -0.002934 0.015171 0.000000 0.000000 0.000000
# 4 0.000000 0.000000 0.000000 0.014546 0.000000 0.000000
# 5 0.000000 0.000000 0.000000 0.000000 0.015331 0.000000
# 6 0.000000 0.000000 0.000000 0.000000 0.000000 -0.216891
#
#
# Mechanical properties :
#
#
# Convention : Reuss Voigt Hill
#
# Bulk Modulus (GPa) = 36.66651 37.55717 37.11184
# Shear Modulus (GPa) = -38.80070 40.58559 0.89244
#
# Velocity S-wave (km/s) = -4.13712 4.23121 0.62743
# Velocity P-wave (km/s) = 2.57812 6.35909 4.11043
#
# Compressibility (1/GPa) = 0.02727284
#
# Stress axis : x y z
#
# Youngs Moduli (GPa) = 106.04618 73.71727 65.91526
#
# Poissons Ratio (x) = 0.00895 0.15765
# Poissons Ratio (y) = 0.01287 0.19337
# Poissons Ratio (z) = 0.25362 0.21626
#
# Static dielectric constant tensor:
#      x y z
#    x 1.887730 0.000000 0.000000 
#    y 0.000000 1.834840 0.000000 
#    z 0.000000 0.000000 1.811540 
# 
# From -- ./inp_files/50922.got.cif
#   From: 2010.05.17/outbox.cif.g08.bks.cpg/sg63_26_cif.got.tgz:50922.got - 2010.06.03 15:47:04.
