data_PCOD9471368
_publ_section_title
;
Structure prediction by ZEFSAII (Michael W. Deem and Ramdas Pophale) SiO2 
 PCOD9471368
Probable space group: C M C M
;
_chemical_formula_sum "Si O2"
_cell_formula_units_Z 52
_cell_length_a 15.686214
_cell_length_b 29.950544
_cell_length_c 5.388319
_cell_angle_alpha 90.000000
_cell_angle_beta 90.000000
_cell_angle_gamma 90.000000
_cell_volume 2531.489612
_symmetry_space_group_name_H-M "C M C M"
_symmetry_group_IT_number 63
_symmetry_cell_setting 'orthorhombic'
loop_
_space_group_symop_operation_xyz
x,y,z
-x,-y,1/2+z
x,-y,-z
-x,y,1/2-z
-x,-y,-z
x,y,1/2-z
-x,y,z
x,-y,1/2+z
1/2+x,1/2+y,z
1/2-x,1/2-y,1/2+z
1/2+x,1/2-y,-z
1/2-x,1/2+y,1/2-z
1/2-x,1/2-y,-z
1/2+x,1/2+y,1/2-z
1/2-x,1/2+y,z
1/2+x,1/2-y,1/2+z
loop_
_atom_site_type_symbol
_atom_site_label
_atom_site_fract_x
_atom_site_fract_y
_atom_site_fract_z
Si Si1 0.336912 0.953007 0.750000
Si Si2 0.500000 0.529229 0.250000
Si Si3 0.000000 0.193165 0.750000
Si Si4 0.500000 0.248710 0.750000
Si Si5 0.793129 0.272573 0.250000
Si Si6 0.099262 0.445085 0.250000
Si Si7 0.830181 0.916113 0.750000
Si Si8 0.679841 0.358821 0.250000
O O1 0.364000 0.927420 0.504376
O O2 0.236639 0.956901 0.750000
O O3 0.379521 0.001692 0.750000
O O4 0.500000 0.500000 0.500000
O O5 0.579291 0.561849 0.250000
O O6 0.000000 0.222728 0.501707
O O7 0.086958 0.164778 0.750000
O O8 0.600926 0.228646 0.750000
O O9 0.750000 0.250000 0.500000
O O10 0.755256 0.322569 0.250000
O O11 0.000000 0.439614 0.250000
O O12 0.816596 0.887658 0.501373
#
# Coordination Sequence:
#
# PCOD9471368 Si02
#       8
#     8   4   4   4   8   8   8   8
#     4  10  20  33  59  85 116 154 198 253 325 385
#     4  12  28  46  72  98 138 182 236 294 350 422
#     4  12  22  39  72 100 126 177 220 289 334 390
#     4  12  22  41  70 108 136 173 234 285 326 404
#     4  12  23  43  71 108 134 184 230 285 349 412
#     4  10  19  35  62  89 108 146 206 278 313 378
#     4  12  26  43  64  97 134 178 223 277 353 418
#     4  12  24  43  67  98 142 173 228 282 349 413
#
# _framework density 20.541267000000001
#
# number of rings (size 3 to 8) (size 9 to 14) (size 15 to 20)
#    0.000    0.615    3.077    6.923    4.308    0.000 
#    0.000    0.000   13.538    0.000    0.000    0.000 
#    0.000    0.000    0.000    0.000    0.000    0.000 
#
# Total GULP energy -144999.086951 kJ/mol
# GULP energy per Si atom -5576.887960 kJ/mol
# Density = 2.049451 g / cm^3
# Si number density = 20.541267 Si / 1000 Ang^3
#
#
#
# Elastic Constant Matrix: (Units=GPa)
#
#
# Indices 1 2 3 4 5 6 
#
# 1 190.0110 24.1077 45.1233 0.0000 0.0000 0.0000
# 2 24.1077 51.9992 47.8392 0.0000 0.0000 0.0000
# 3 45.1233 47.8392 228.1457 0.0000 0.0000 0.0000
# 4 0.0000 0.0000 0.0000 51.1523 0.0000 0.0000
# 5 0.0000 0.0000 0.0000 0.0000 -74.6408 0.0000
# 6 0.0000 0.0000 0.0000 0.0000 0.0000 53.9027
#
#
#
# Elastic Compliance Matrix: (Units=1/GPa)
#
#
# Indices 1 2 3 4 5 6 
#
# 1 0.005683 -0.001983 -0.000708 0.000000 0.000000 0.000000
# 2 -0.001983 0.024520 -0.004749 0.000000 0.000000 0.000000
# 3 -0.000708 -0.004749 0.005519 0.000000 0.000000 0.000000
# 4 0.000000 0.000000 0.000000 0.019549 0.000000 0.000000
# 5 0.000000 0.000000 0.000000 0.000000 -0.013397 0.000000
# 6 0.000000 0.000000 0.000000 0.000000 0.000000 0.018552
#
#
# Mechanical properties :
#
#
# Convention : Reuss Voigt Hill
#
# Bulk Modulus (GPa) = 47.98339 78.25514 63.11926
# Shear Modulus (GPa) = 60.78795 29.62187 45.20491
#
# Velocity S-wave (km/s) = 5.44585 3.80157 4.69624
# Velocity P-wave (km/s) = 7.93431 7.57948 7.75893
#
# Compressibility (1/GPa) = 0.02084055
#
# Stress axis : x y z
#
# Youngs Moduli (GPa) = 175.97525 40.78342 181.19009
#
# Poissons Ratio (x) = 0.08088 0.12830
# Poissons Ratio (y) = 0.34898 0.86052
# Poissons Ratio (z) = 0.12461 0.19369
#
# Static dielectric constant tensor:
#      x y z
#    x 1.732770 0.000000 0.000000 
#    y 0.000000 1.718000 0.000000 
#    z 0.000000 0.000000 1.827060 
# 
# From -- ./inp_files/617.got.cif
#   From: 2010.05.17/outbox.cif.g08.bks.cpg/sg63_1_cif.got.tgz:617.got - 2010.06.03 15:47:04.
