data_PCOD9471600
_publ_section_title
;
Structure prediction by ZEFSAII (Michael W. Deem and Ramdas Pophale) SiO2 
 PCOD9471600
Probable space group: C M C M
;
_chemical_formula_sum "Si O2"
_cell_formula_units_Z 88
_cell_length_a 28.646236
_cell_length_b 17.831889
_cell_length_c 7.467675
_cell_angle_alpha 90.000000
_cell_angle_beta 90.000000
_cell_angle_gamma 90.000000
_cell_volume 3814.611611
_symmetry_space_group_name_H-M "C M C M"
_symmetry_group_IT_number 63
_symmetry_cell_setting 'orthorhombic'
loop_
_space_group_symop_operation_xyz
x,y,z
-x,-y,1/2+z
x,-y,-z
-x,y,1/2-z
-x,-y,-z
x,y,1/2-z
-x,y,z
x,-y,1/2+z
1/2+x,1/2+y,z
1/2-x,1/2-y,1/2+z
1/2+x,1/2-y,-z
1/2-x,1/2+y,1/2-z
1/2-x,1/2-y,-z
1/2+x,1/2+y,1/2-z
1/2-x,1/2+y,z
1/2+x,1/2-y,1/2+z
loop_
_atom_site_type_symbol
_atom_site_label
_atom_site_fract_x
_atom_site_fract_y
_atom_site_fract_z
Si Si1 0.000000 0.413738 0.036340
Si Si2 0.576694 0.196674 0.966033
Si Si3 0.447920 0.633092 0.541897
Si Si4 0.319880 0.786576 0.034666
Si Si5 0.344774 0.384335 0.457700
Si Si6 0.753442 0.418944 0.465111
O O1 0.044549 0.369549 0.967829
O O2 0.000000 0.404509 0.250000
O O3 0.000000 0.500000 0.000000
O O4 0.573918 0.204187 0.750000
O O5 0.629881 0.178606 0.008080
O O6 0.558959 0.276743 0.036330
O O7 0.449158 0.609888 0.750000
O O8 0.500000 0.615100 0.466406
O O9 0.397329 0.606244 0.465065
O O10 0.314813 0.778964 0.250000
O O11 0.280373 0.844193 0.969937
O O12 0.327540 0.702704 0.962214
O O13 0.348904 0.406571 0.250000
O O14 0.299266 0.422392 0.540878
O O15 0.776383 0.500000 0.500000
O O16 0.750786 0.410700 0.250000
#
# Coordination Sequence:
#
# PCOD9471600 Si02
#       6
#     8  16  16  16  16  16
#     4  10  20  30  40  56  84 122 155 186 225 268
#     4   9  17  30  45  63  89 118 150 190 234 274
#     4   9  16  27  47  72  94 116 147 189 235 280
#     4   9  18  32  51  73  95 122 159 201 240 284
#     4   9  18  32  50  74 100 125 157 199 242 285
#     4  10  21  35  50  70  98 130 163 198 239 288
#
# _framework density 23.069189999999999
#
# number of rings (size 3 to 8) (size 9 to 14) (size 15 to 20)
#    0.000    2.727    0.909    0.545    0.000    2.909 
#    0.000    0.000    0.000    0.545    0.000    0.000 
#    0.000    0.000    0.000    0.000    0.000    0.000 
#
# Total GULP energy -245229.474047 kJ/mol
# GULP energy per Si atom -5573.397137 kJ/mol
# Density = 2.301668 g / cm^3
# Si number density = 23.069190 Si / 1000 Ang^3
#
#
#
# Elastic Constant Matrix: (Units=GPa)
#
#
# Indices 1 2 3 4 5 6 
#
# 1 139.0788 9.7103 16.9018 0.0000 0.0000 0.0000
# 2 9.7103 36.7796 -7.6085 0.0000 0.0000 0.0000
# 3 16.9018 -7.6085 68.2372 0.0000 0.0000 0.0000
# 4 0.0000 0.0000 0.0000 -20.8625 0.0000 0.0000
# 5 0.0000 0.0000 0.0000 0.0000 -0.8307 0.0000
# 6 0.0000 0.0000 0.0000 0.0000 0.0000 -3.3547
#
#
#
# Elastic Compliance Matrix: (Units=1/GPa)
#
#
# Indices 1 2 3 4 5 6 
#
# 1 0.007625 -0.002461 -0.002163 0.000000 0.000000 0.000000
# 2 -0.002461 0.028625 0.003801 0.000000 0.000000 0.000000
# 3 -0.002163 0.003801 0.015614 0.000000 0.000000 0.000000
# 4 0.000000 0.000000 0.000000 -0.047933 0.000000 0.000000
# 5 0.000000 0.000000 0.000000 0.000000 -1.203849 0.000000
# 6 0.000000 0.000000 0.000000 0.000000 0.000000 -0.298093
#
#
# Mechanical properties :
#
#
# Convention : Reuss Voigt Hill
#
# Bulk Modulus (GPa) = 19.91258 31.34475 25.62866
# Shear Modulus (GPa) = -3.37923 9.99657 3.30867
#
# Velocity S-wave (km/s) = -1.21161 2.08392 1.19890
# Velocity P-wave (km/s) = 2.58710 4.40534 3.61249
#
# Compressibility (1/GPa) = 0.05021951
#
# Stress axis : x y z
#
# Youngs Moduli (GPa) = 131.15072 34.93457 64.04371
#
# Poissons Ratio (x) = 0.08596 0.13852
# Poissons Ratio (y) = 0.32270 -0.24344
# Poissons Ratio (z) = 0.28367 -0.13279
#
# Static dielectric constant tensor:
#      x y z
#    x 2.013590 0.000000 0.000000 
#    y 0.000000 1.843700 0.000000 
#    z 0.000000 0.000000 1.874530 
# 
# From -- ./inp_files/14157.got.cif
#   From: 2010.05.17/outbox.cif.g08.bks.cpg/sg63_8_cif.got.tgz:14157.got - 2010.06.03 15:47:04.
