data_PCOD9471439
_publ_section_title
;
Structure prediction by ZEFSAII (Michael W. Deem and Ramdas Pophale) SiO2 
 PCOD9471439
Probable space group: C M C M
;
_chemical_formula_sum "Si O2"
_cell_formula_units_Z 80
_cell_length_a 13.952122
_cell_length_b 15.198395
_cell_length_c 20.661808
_cell_angle_alpha 90.000000
_cell_angle_beta 90.000000
_cell_angle_gamma 90.000000
_cell_volume 4381.333519
_symmetry_space_group_name_H-M "C M C M"
_symmetry_group_IT_number 63
_symmetry_cell_setting 'orthorhombic'
loop_
_space_group_symop_operation_xyz
x,y,z
-x,-y,1/2+z
x,-y,-z
-x,y,1/2-z
-x,-y,-z
x,y,1/2-z
-x,y,z
x,-y,1/2+z
1/2+x,1/2+y,z
1/2-x,1/2-y,1/2+z
1/2+x,1/2-y,-z
1/2-x,1/2+y,1/2-z
1/2-x,1/2-y,-z
1/2+x,1/2+y,1/2-z
1/2-x,1/2+y,z
1/2+x,1/2-y,1/2+z
loop_
_atom_site_type_symbol
_atom_site_label
_atom_site_fract_x
_atom_site_fract_y
_atom_site_fract_z
Si Si1 0.892332 0.972048 0.568369
Si Si2 0.717196 0.279806 0.396725
Si Si3 0.895307 0.221876 0.477541
Si Si4 0.748919 0.541322 0.826071
Si Si5 0.612806 0.883577 0.672285
O O1 0.899519 0.867884 0.562665
O O2 0.000000 0.009941 0.570135
O O3 0.845549 0.000000 0.500000
O O4 0.833415 0.999065 0.630114
O O5 0.810660 0.273401 0.442530
O O6 0.633813 0.301262 0.448832
O O7 0.743912 0.356557 0.346681
O O8 0.679145 0.190233 0.362667
O O9 0.000000 0.264709 0.476673
O O10 0.730730 0.533666 0.750000
O O11 0.842979 0.481115 0.840212
O O12 0.617708 0.869044 0.750000
O O13 0.500000 0.877266 0.653481
#
# Coordination Sequence:
#
# PCOD9471439 Si02
#       5
#    16  16  16  16  16
#     4  10  19  36  59  82 116 153 188 237 299 356
#     4  11  21  37  62  86 118 155 202 246 299 360
#     4  10  21  36  58  87 117 152 194 244 300 358
#     4  11  23  38  59  88 120 155 200 250 302 358
#     4  10  22  40  59  82 117 159 201 248 302 358
#
# _framework density 18.259281000000001
#
# number of rings (size 3 to 8) (size 9 to 14) (size 15 to 20)
#    0.000    1.600    4.000    1.200    0.000    2.000 
#    0.000    0.000    0.000    6.000    0.000    0.000 
#    0.000    0.000    0.000    0.000    0.000    0.000 
#
# Total GULP energy -222729.018382 kJ/mol
# GULP energy per Si atom -5568.225460 kJ/mol
# Density = 1.821772 g / cm^3
# Si number density = 18.259281 Si / 1000 Ang^3
#
#
#
# Elastic Constant Matrix: (Units=GPa)
#
#
# Indices 1 2 3 4 5 6 
#
# 1 110.2156 26.6340 44.0980 0.0000 0.0000 0.0000
# 2 26.6340 61.7279 33.5393 0.0000 0.0000 0.0000
# 3 44.0980 33.5393 90.8524 0.0000 0.0000 0.0000
# 4 0.0000 0.0000 0.0000 26.2293 0.0000 0.0000
# 5 0.0000 0.0000 0.0000 0.0000 23.4342 0.0000
# 6 0.0000 0.0000 0.0000 0.0000 0.0000 18.3458
#
#
#
# Elastic Compliance Matrix: (Units=1/GPa)
#
#
# Indices 1 2 3 4 5 6 
#
# 1 0.011542 -0.002422 -0.004708 0.000000 0.000000 0.000000
# 2 -0.002422 0.020773 -0.006493 0.000000 0.000000 0.000000
# 3 -0.004708 -0.006493 0.015689 0.000000 0.000000 0.000000
# 4 0.000000 0.000000 0.000000 0.038125 0.000000 0.000000
# 5 0.000000 0.000000 0.000000 0.000000 0.042673 0.000000
# 6 0.000000 0.000000 0.000000 0.000000 0.000000 0.054508
#
#
# Mechanical properties :
#
#
# Convention : Reuss Voigt Hill
#
# Bulk Modulus (GPa) = 48.17452 52.37095 50.27273
# Shear Modulus (GPa) = 22.99098 24.17018 23.58058
#
# Velocity S-wave (km/s) = 3.55228 3.64224 3.59755
# Velocity P-wave (km/s) = 6.57768 6.81410 6.69693
#
# Compressibility (1/GPa) = 0.02075786
#
# Stress axis : x y z
#
# Youngs Moduli (GPa) = 86.63852 48.13913 63.73821
#
# Poissons Ratio (x) = 0.11659 0.30010
# Poissons Ratio (y) = 0.20984 0.41386
# Poissons Ratio (z) = 0.40792 0.31257
#
# Static dielectric constant tensor:
#      x y z
#    x 1.669840 0.000000 0.000000 
#    y 0.000000 1.667240 0.000000 
#    z 0.000000 0.000000 1.607500 
# 
# From -- ./inp_files/53978.got.cif
#   From: 2010.05.17/outbox.cif.g08.bks.cpg/sg63_27_cif.got.tgz:53978.got - 2010.06.03 15:47:04.
