data_PCOD9471607
_publ_section_title
;
Structure prediction by ZEFSAII (Michael W. Deem and Ramdas Pophale) SiO2 
 PCOD9471607
Probable space group: C M C M
;
_chemical_formula_sum "Si O2"
_cell_formula_units_Z 88
_cell_length_a 8.420605
_cell_length_b 23.006749
_cell_length_c 21.833987
_cell_angle_alpha 90.000000
_cell_angle_beta 90.000000
_cell_angle_gamma 90.000000
_cell_volume 4229.914582
_symmetry_space_group_name_H-M "C M C M"
_symmetry_group_IT_number 63
_symmetry_cell_setting 'orthorhombic'
loop_
_space_group_symop_operation_xyz
x,y,z
-x,-y,1/2+z
x,-y,-z
-x,y,1/2-z
-x,-y,-z
x,y,1/2-z
-x,y,z
x,-y,1/2+z
1/2+x,1/2+y,z
1/2-x,1/2-y,1/2+z
1/2+x,1/2-y,-z
1/2-x,1/2+y,1/2-z
1/2-x,1/2-y,-z
1/2+x,1/2+y,1/2-z
1/2-x,1/2+y,z
1/2+x,1/2-y,1/2+z
loop_
_atom_site_type_symbol
_atom_site_label
_atom_site_fract_x
_atom_site_fract_y
_atom_site_fract_z
Si Si1 0.166852 0.069923 0.993734
Si Si2 0.000000 0.436999 0.350547
Si Si3 0.500000 0.929727 0.494130
Si Si4 0.823274 0.137237 0.175538
Si Si5 0.685051 0.256934 0.322404
Si Si6 0.000000 0.429277 0.824074
Si Si7 0.323272 0.387547 0.146213
O O1 0.333278 0.092177 0.019929
O O2 0.167988 0.085511 0.921794
O O3 0.000000 0.092087 0.019463
O O4 0.167239 0.000000 0.000000
O O5 0.000000 0.416591 0.421526
O O6 0.833393 0.414787 0.323314
O O7 0.000000 0.506091 0.349992
O O8 0.500000 0.000000 0.500000
O O9 0.821275 0.137975 0.250000
O O10 0.793726 0.204016 0.156201
O O11 0.666176 0.101193 0.158243
O O12 0.000000 0.116276 0.157765
O O13 0.715318 0.267746 0.250000
O O14 0.500000 0.238474 0.327218
O O15 0.702765 0.318271 0.355874
O O16 0.000000 0.432304 0.750000
O O17 0.500000 0.396847 0.174226
#
# Coordination Sequence:
#
# PCOD9471607 Si02
#       7
#    16   8   8  16  16   8  16
#     4   8  13  23  39  57  82 116 139 170 211 261
#     4  10  20  30  44  66  94 126 151 176 224 282
#     4   8  14  26  42  60  84 110 142 181 214 257
#     4   9  17  30  48  65  80 113 162 202 229 256
#     4   9  16  28  45  64  90 120 152 192 232 266
#     4  10  20  34  46  62  92 124 160 195 218 257
#     4   9  18  29  41  64  95 122 144 184 225 275
#
# _framework density 20.804203000000001
#
# number of rings (size 3 to 8) (size 9 to 14) (size 15 to 20)
#    0.000    3.091    0.909    0.000    1.273    1.455 
#    0.000    0.000    0.000    0.000    0.000    0.000 
#    0.000   23.273    2.182    0.000    0.000    0.727 
#
# Total GULP energy -244973.643130 kJ/mol
# GULP energy per Si atom -5567.582798 kJ/mol
# Density = 2.075685 g / cm^3
# Si number density = 20.804203 Si / 1000 Ang^3
#
#
#
# Elastic Constant Matrix: (Units=GPa)
#
#
# Indices 1 2 3 4 5 6 
#
# 1 248.6877 62.8492 8.5390 0.0000 0.0000 0.0000
# 2 62.8492 67.4482 3.5481 0.0000 0.0000 0.0000
# 3 8.5390 3.5481 67.2939 0.0000 0.0000 0.0000
# 4 0.0000 0.0000 0.0000 28.9164 0.0000 0.0000
# 5 0.0000 0.0000 0.0000 0.0000 -7.9447 0.0000
# 6 0.0000 0.0000 0.0000 0.0000 0.0000 30.3676
#
#
#
# Elastic Compliance Matrix: (Units=1/GPa)
#
#
# Indices 1 2 3 4 5 6 
#
# 1 0.005271 -0.004890 -0.000411 0.000000 0.000000 0.000000
# 2 -0.004890 0.019404 -0.000403 0.000000 0.000000 0.000000
# 3 -0.000411 -0.000403 0.014934 0.000000 0.000000 0.000000
# 4 0.000000 0.000000 0.000000 0.034582 0.000000 0.000000
# 5 0.000000 0.000000 0.000000 0.000000 -0.125869 0.000000
# 6 0.000000 0.000000 0.000000 0.000000 0.000000 0.032930
#
#
# Mechanical properties :
#
#
# Convention : Reuss Voigt Hill
#
# Bulk Modulus (GPa) = 35.45933 59.25583 47.35758
# Shear Modulus (GPa) = 2428.30546 30.83409 1229.56978
#
# Velocity S-wave (km/s) = 34.20165 3.85399 24.33727
# Velocity P-wave (km/s) = 39.70833 6.95333 28.50527
#
# Compressibility (1/GPa) = 0.02820132
#
# Stress axis : x y z
#
# Youngs Moduli (GPa) = 189.71585 51.53589 66.96328
#
# Poissons Ratio (x) = 0.25201 0.02752
# Poissons Ratio (y) = 0.92771 0.02696
# Poissons Ratio (z) = 0.07798 0.02075
#
# Static dielectric constant tensor:
#      x y z
#    x 1.806480 0.000000 0.000000 
#    y 0.000000 1.681740 0.000000 
#    z 0.000000 0.000000 1.627080 
# 
# From -- ./inp_files/71730.got.cif
#   From: 2010.05.17/outbox.cif.g08.bks.cpg/sg63_36_cif.got.tgz:71730.got - 2010.06.03 15:47:04.
