data_PCOD9471574
_publ_section_title
;
Structure prediction by ZEFSAII (Michael W. Deem and Ramdas Pophale) SiO2 
 PCOD9471574
Probable space group: C M C M
;
_chemical_formula_sum "Si O2"
_cell_formula_units_Z 52
_cell_length_a 7.730690
_cell_length_b 20.761851
_cell_length_c 16.870052
_cell_angle_alpha 90.000000
_cell_angle_beta 90.000000
_cell_angle_gamma 90.000000
_cell_volume 2707.701276
_symmetry_space_group_name_H-M "C M C M"
_symmetry_group_IT_number 63
_symmetry_cell_setting 'orthorhombic'
loop_
_space_group_symop_operation_xyz
x,y,z
-x,-y,1/2+z
x,-y,-z
-x,y,1/2-z
-x,-y,-z
x,y,1/2-z
-x,y,z
x,-y,1/2+z
1/2+x,1/2+y,z
1/2-x,1/2-y,1/2+z
1/2+x,1/2-y,-z
1/2-x,1/2+y,1/2-z
1/2-x,1/2-y,-z
1/2+x,1/2+y,1/2-z
1/2-x,1/2+y,z
1/2+x,1/2-y,1/2+z
loop_
_atom_site_type_symbol
_atom_site_label
_atom_site_fract_x
_atom_site_fract_y
_atom_site_fract_z
Si Si1 0.195226 0.119548 0.250000
Si Si2 0.500000 0.982490 0.750000
Si Si3 0.197978 0.152440 0.935332
Si Si4 0.000000 0.548806 0.576360
Si Si5 0.791517 0.708775 0.104109
O O1 0.331568 0.062438 0.250000
O O2 0.229392 0.164649 0.174837
O O3 0.000000 0.095312 0.250000
O O4 0.500000 0.018457 0.664770
O O5 0.331540 0.094464 0.929306
O O6 0.249572 0.215680 0.884492
O O7 0.000000 0.134066 0.917295
O O8 0.208426 0.181163 0.024190
O O9 0.000000 0.500000 0.500000
O O10 0.000000 0.704392 0.096035
#
# Coordination Sequence:
#
# PCOD9471574 Si02
#       5
#     8   4  16   8  16
#     4  12  24  39  65  93 123 170 210 269 328 378
#     4  12  28  46  62  94 134 176 228 260 308 412
#     4  10  22  39  65  96 124 168 212 265 322 385
#     4  12  26  44  66  90 138 184 214 262 318 388
#     4  10  19  38  65  96 131 153 208 275 331 379
#
# _framework density 19.204481999999999
#
# number of rings (size 3 to 8) (size 9 to 14) (size 15 to 20)
#    0.000    1.231    3.077    2.769    4.308    3.077 
#    0.000    1.538    0.000    0.000    0.000    0.000 
#    0.000    0.000    0.000    0.000    0.000    0.000 
#
# Total GULP energy -145220.152250 kJ/mol
# GULP energy per Si atom -5585.390471 kJ/mol
# Density = 1.916077 g / cm^3
# Si number density = 19.204482 Si / 1000 Ang^3
#
#
#
# Elastic Constant Matrix: (Units=GPa)
#
#
# Indices 1 2 3 4 5 6 
#
# 1 149.5424 94.9224 28.9364 0.0000 0.0000 0.0000
# 2 94.9224 147.7773 64.3099 0.0000 0.0000 0.0000
# 3 28.9364 64.3099 86.5074 0.0000 0.0000 0.0000
# 4 0.0000 0.0000 0.0000 20.8316 0.0000 0.0000
# 5 0.0000 0.0000 0.0000 0.0000 17.1753 0.0000
# 6 0.0000 0.0000 0.0000 0.0000 0.0000 35.6771
#
#
#
# Elastic Compliance Matrix: (Units=1/GPa)
#
#
# Indices 1 2 3 4 5 6 
#
# 1 0.011634 -0.008543 0.002460 0.000000 0.000000 0.000000
# 2 -0.008543 0.016277 -0.009243 0.000000 0.000000 0.000000
# 3 0.002460 -0.009243 0.017608 0.000000 0.000000 0.000000
# 4 0.000000 0.000000 0.000000 0.048004 0.000000 0.000000
# 5 0.000000 0.000000 0.000000 0.000000 0.058223 0.000000
# 6 0.000000 0.000000 0.000000 0.000000 0.000000 0.028029
#
#
# Mechanical properties :
#
#
# Convention : Reuss Voigt Hill
#
# Bulk Modulus (GPa) = 67.26649 84.46273 75.86461
# Shear Modulus (GPa) = 23.21446 27.78068 25.49757
#
# Velocity S-wave (km/s) = 3.48056 3.80751 3.64770
# Velocity P-wave (km/s) = 7.15925 7.96277 7.57168
#
# Compressibility (1/GPa) = 0.01486624
#
# Stress axis : x y z
#
# Youngs Moduli (GPa) = 85.95481 61.43725 56.79270
#
# Poissons Ratio (x) = 0.52488 -0.13969
# Poissons Ratio (y) = 0.73434 0.52491
# Poissons Ratio (z) = -0.21141 0.56783
#
# Static dielectric constant tensor:
#      x y z
#    x 1.574490 0.000000 0.000000 
#    y 0.000000 1.662380 0.000000 
#    z 0.000000 0.000000 1.669870 
# 
# From -- ./inp_files/27156.got.cif
#   From: 2010.05.17/outbox.cif.g08.bks.cpg/sg63_14_cif.got.tgz:27156.got - 2010.06.03 15:47:04.
