data_PCOD9471163
_publ_section_title
;
Structure prediction by ZEFSAII (Michael W. Deem and Ramdas Pophale) SiO2 
 PCOD9471163
Probable space group: C M C M
;
_chemical_formula_sum "Si O2"
_cell_formula_units_Z 112
_cell_length_a 15.427518
_cell_length_b 20.839627
_cell_length_c 14.495543
_cell_angle_alpha 90.000000
_cell_angle_beta 90.000000
_cell_angle_gamma 90.000000
_cell_volume 4660.371007
_symmetry_space_group_name_H-M "C M C M"
_symmetry_group_IT_number 63
_symmetry_cell_setting 'orthorhombic'
loop_
_space_group_symop_operation_xyz
x,y,z
-x,-y,1/2+z
x,-y,-z
-x,y,1/2-z
-x,-y,-z
x,y,1/2-z
-x,y,z
x,-y,1/2+z
1/2+x,1/2+y,z
1/2-x,1/2-y,1/2+z
1/2+x,1/2-y,-z
1/2-x,1/2+y,1/2-z
1/2-x,1/2-y,-z
1/2+x,1/2+y,1/2-z
1/2-x,1/2+y,z
1/2+x,1/2-y,1/2+z
loop_
_atom_site_type_symbol
_atom_site_label
_atom_site_fract_x
_atom_site_fract_y
_atom_site_fract_z
Si Si1 0.135966 0.867013 0.350103
Si Si2 0.403685 0.488402 0.608175
Si Si3 0.404785 0.276931 0.997146
Si Si4 0.174027 0.695558 0.644625
Si Si5 0.900769 0.663379 0.357714
Si Si6 0.403560 0.935368 0.362613
Si Si7 0.218359 0.450579 0.639851
O O1 0.100351 0.844015 0.250000
O O2 0.124704 0.943246 0.349251
O O3 0.097900 0.842832 0.446720
O O4 0.233340 0.839698 0.354250
O O5 0.409240 0.500000 0.500000
O O6 0.500000 0.469160 0.640809
O O7 0.320259 0.444241 0.623210
O O8 0.500000 0.270238 0.953763
O O9 0.395840 0.226213 0.080676
O O10 0.334750 0.256594 0.921522
O O11 0.153203 0.713121 0.750000
O O12 0.111047 0.638509 0.609972
O O13 0.881039 0.677725 0.250000
O O14 0.836039 0.609676 0.394678
O O15 0.000000 0.639048 0.360802
O O16 0.400272 0.934247 0.250000
O O17 0.500000 0.957283 0.389615
O O18 0.327663 0.983642 0.393933
O O19 0.205934 0.451358 0.750000
#
# Coordination Sequence:
#
# PCOD9471163 Si02
#       7
#    16  16  16  16  16  16  16
#     4  11  23  43  70  95 122 166 222 275 324 378
#     4  11  25  42  62  89 122 161 212 277 335 376
#     4  11  23  38  62  96 130 168 213 261 321 387
#     4  10  21  38  59  89 129 168 211 260 315 383
#     4   9  19  35  56  91 136 172 205 252 315 387
#     4   9  16  29  53  85 122 164 206 247 301 378
#     4  10  19  34  58  87 120 162 207 255 317 380
#
# _framework density 24.032420999999999
#
# number of rings (size 3 to 8) (size 9 to 14) (size 15 to 20)
#    0.000    1.857    1.429    2.571    2.000    5.143 
#    0.000    0.000    0.000    4.286    0.000    4.000 
#    0.000    0.000    0.000    0.000    0.000    0.000 
#
# Total GULP energy -313063.241698 kJ/mol
# GULP energy per Si atom -5590.415030 kJ/mol
# Density = 2.397772 g / cm^3
# Si number density = 24.032421 Si / 1000 Ang^3
#
#
#
# Elastic Constant Matrix: (Units=GPa)
#
#
# Indices 1 2 3 4 5 6 
#
# 1 114.5305 14.6584 8.8202 0.0000 0.0000 0.0000
# 2 14.6584 33.9581 8.3288 0.0000 0.0000 0.0000
# 3 8.8202 8.3288 95.4724 0.0000 0.0000 0.0000
# 4 0.0000 0.0000 0.0000 23.9763 0.0000 0.0000
# 5 0.0000 0.0000 0.0000 0.0000 19.2234 0.0000
# 6 0.0000 0.0000 0.0000 0.0000 0.0000 6.3910
#
#
#
# Elastic Compliance Matrix: (Units=1/GPa)
#
#
# Indices 1 2 3 4 5 6 
#
# 1 0.009267 -0.003873 -0.000518 0.000000 0.000000 0.000000
# 2 -0.003873 0.031711 -0.002409 0.000000 0.000000 0.000000
# 3 -0.000518 -0.002409 0.010732 0.000000 0.000000 0.000000
# 4 0.000000 0.000000 0.000000 0.041708 0.000000 0.000000
# 5 0.000000 0.000000 0.000000 0.000000 0.052020 0.000000
# 6 0.000000 0.000000 0.000000 0.000000 0.000000 0.156470
#
#
# Mechanical properties :
#
#
# Convention : Reuss Voigt Hill
#
# Bulk Modulus (GPa) = 26.23979 34.17510 30.20745
# Shear Modulus (GPa) = 15.23411 24.06171 19.64791
#
# Velocity S-wave (km/s) = 2.52047 3.16764 2.86240
# Velocity P-wave (km/s) = 4.40597 5.25641 4.84987
#
# Compressibility (1/GPa) = 0.03811006
#
# Stress axis : x y z
#
# Youngs Moduli (GPa) = 107.91084 31.53511 93.17730
#
# Poissons Ratio (x) = 0.12214 0.04829
# Poissons Ratio (y) = 0.41795 0.22442
# Poissons Ratio (z) = 0.05592 0.07595
#
# Static dielectric constant tensor:
#      x y z
#    x 1.968050 0.000000 0.000000 
#    y 0.000000 1.916980 0.000000 
#    z 0.000000 0.000000 1.912460 
# 
# From -- ./inp_files/32313.got.cif
#   From: 2010.05.17/outbox.cif.g08.bks.cpg/sg63_17_cif.got.tgz:32313.got - 2010.06.03 15:47:04.
