data_PCOD9471646
_publ_section_title
;
Structure prediction by ZEFSAII (Michael W. Deem and Ramdas Pophale) SiO2 
 PCOD9471646
Probable space group: C M C M
;
_chemical_formula_sum "Si O2"
_cell_formula_units_Z 96
_cell_length_a 13.861797
_cell_length_b 17.334686
_cell_length_c 24.307945
_cell_angle_alpha 90.000000
_cell_angle_beta 90.000000
_cell_angle_gamma 90.000000
_cell_volume 5840.953634
_symmetry_space_group_name_H-M "C M C M"
_symmetry_group_IT_number 63
_symmetry_cell_setting 'orthorhombic'
loop_
_space_group_symop_operation_xyz
x,y,z
-x,-y,1/2+z
x,-y,-z
-x,y,1/2-z
-x,-y,-z
x,y,1/2-z
-x,y,z
x,-y,1/2+z
1/2+x,1/2+y,z
1/2-x,1/2-y,1/2+z
1/2+x,1/2-y,-z
1/2-x,1/2+y,1/2-z
1/2-x,1/2-y,-z
1/2+x,1/2+y,1/2-z
1/2-x,1/2+y,z
1/2+x,1/2-y,1/2+z
loop_
_atom_site_type_symbol
_atom_site_label
_atom_site_fract_x
_atom_site_fract_y
_atom_site_fract_z
Si Si1 0.612422 0.834039 0.486093
Si Si2 0.195861 0.637107 0.399839
Si Si3 0.889256 0.757118 0.314960
Si Si4 0.389948 0.287211 0.886968
Si Si5 0.616156 0.034904 0.899645
Si Si6 0.196516 0.344955 0.314788
O O1 0.500000 0.839849 0.502474
O O2 0.673362 0.825222 0.540937
O O3 0.620456 0.765074 0.442095
O O4 0.637525 0.912342 0.453123
O O5 0.139166 0.685196 0.353254
O O6 0.309055 0.647343 0.387848
O O7 0.159279 0.549988 0.402686
O O8 0.880986 0.737363 0.250000
O O9 0.808384 0.822338 0.325871
O O10 0.000000 0.780285 0.325478
O O11 0.500000 0.313574 0.882998
O O12 0.364168 0.227736 0.837987
O O13 0.500000 0.031840 0.894532
O O14 0.660995 0.081484 0.848584
O O15 0.183160 0.354533 0.250000
#
# Coordination Sequence:
#
# PCOD9471646 Si02
#       6
#    16  16  16  16  16  16
#     4   9  17  31  50  70  93 123 157 190 229 278
#     4  11  19  30  50  72  97 126 153 189 241 284
#     4   9  18  32  49  71  97 122 153 193 232 275
#     4   9  19  33  49  71  95 121 159 201 231 267
#     4  10  20  31  46  72  99 121 153 196 234 274
#     4   9  18  33  52  70  91 125 161 190 229 278
#
# _framework density 16.435672
#
# number of rings (size 3 to 8) (size 9 to 14) (size 15 to 20)
#    0.000    2.500    0.000    4.000    0.000    3.333 
#    0.000    0.833    0.000    2.000    0.000    0.000 
#    0.000    0.000    0.000    0.000    0.000    0.000 
#
# Total GULP energy -267620.233077 kJ/mol
# GULP energy per Si atom -5575.421522 kJ/mol
# Density = 1.639826 g / cm^3
# Si number density = 16.435672 Si / 1000 Ang^3
#
#
#
# Elastic Constant Matrix: (Units=GPa)
#
#
# Indices 1 2 3 4 5 6 
#
# 1 111.7012 25.0128 36.3198 0.0000 0.0000 0.0000
# 2 25.0128 32.8675 5.9138 0.0000 0.0000 0.0000
# 3 36.3198 5.9138 54.8843 0.0000 0.0000 0.0000
# 4 0.0000 0.0000 0.0000 10.6840 0.0000 0.0000
# 5 0.0000 0.0000 0.0000 0.0000 22.9196 0.0000
# 6 0.0000 0.0000 0.0000 0.0000 0.0000 21.8568
#
#
#
# Elastic Compliance Matrix: (Units=1/GPa)
#
#
# Indices 1 2 3 4 5 6 
#
# 1 0.013540 -0.008864 -0.008005 0.000000 0.000000 0.000000
# 2 -0.008864 0.036829 0.001897 0.000000 0.000000 0.000000
# 3 -0.008005 0.001897 0.023313 0.000000 0.000000 0.000000
# 4 0.000000 0.000000 0.000000 0.093597 0.000000 0.000000
# 5 0.000000 0.000000 0.000000 0.000000 0.043631 0.000000
# 6 0.000000 0.000000 0.000000 0.000000 0.000000 0.045752
#
#
# Mechanical properties :
#
#
# Convention : Reuss Voigt Hill
#
# Bulk Modulus (GPa) = 22.86276 37.10508 29.98392
# Shear Modulus (GPa) = 16.60099 19.90585 18.25342
#
# Velocity S-wave (km/s) = 3.18159 3.48392 3.33618
# Velocity P-wave (km/s) = 5.23807 6.22965 5.75525
#
# Compressibility (1/GPa) = 0.04373925
#
# Stress axis : x y z
#
# Youngs Moduli (GPa) = 73.85401 27.15216 42.89425
#
# Poissons Ratio (x) = 0.24068 0.34338
# Poissons Ratio (y) = 0.65464 -0.08139
# Poissons Ratio (z) = 0.59121 -0.05152
#
# Static dielectric constant tensor:
#      x y z
#    x 1.558740 0.000000 0.000000 
#    y 0.000000 1.527670 0.000000 
#    z 0.000000 0.000000 1.554260 
# 
# From -- ./inp_files/61482.got.cif
#   From: 2010.05.17/outbox.cif.g08.bks.cpg/sg63_31_cif.got.tgz:61482.got - 2010.06.03 15:47:04.
