data_PCOD9471738
_publ_section_title
;
Structure prediction by ZEFSAII (Michael W. Deem and Ramdas Pophale) SiO2 
 PCOD9471738
Probable space group: C M C M
;
_chemical_formula_sum "Si O2"
_cell_formula_units_Z 96
_cell_length_a 9.195126
_cell_length_b 28.833841
_cell_length_c 19.910710
_cell_angle_alpha 90.000000
_cell_angle_beta 90.000000
_cell_angle_gamma 90.000000
_cell_volume 5278.942492
_symmetry_space_group_name_H-M "C M C M"
_symmetry_group_IT_number 63
_symmetry_cell_setting 'orthorhombic'
loop_
_space_group_symop_operation_xyz
x,y,z
-x,-y,1/2+z
x,-y,-z
-x,y,1/2-z
-x,-y,-z
x,y,1/2-z
-x,y,z
x,-y,1/2+z
1/2+x,1/2+y,z
1/2-x,1/2-y,1/2+z
1/2+x,1/2-y,-z
1/2-x,1/2+y,1/2-z
1/2-x,1/2-y,-z
1/2+x,1/2+y,1/2-z
1/2-x,1/2+y,z
1/2+x,1/2-y,1/2+z
loop_
_atom_site_type_symbol
_atom_site_label
_atom_site_fract_x
_atom_site_fract_y
_atom_site_fract_z
Si Si1 0.163247 0.821634 0.123479
Si Si2 0.828807 0.004940 0.669635
Si Si3 0.326611 0.227024 0.435208
Si Si4 0.326180 0.957380 0.550427
Si Si5 0.159779 0.595487 0.829382
Si Si6 0.667284 0.638778 0.471229
O O1 0.192456 0.766676 0.121185
O O2 0.281021 0.853292 0.158844
O O3 0.000000 0.829498 0.150487
O O4 0.163988 0.840375 0.046673
O O5 0.806198 0.998776 0.750000
O O6 0.773790 0.056375 0.648929
O O7 0.000000 0.000236 0.656349
O O8 0.736397 0.970591 0.623582
O O9 0.500000 0.222120 0.446670
O O10 0.250000 0.250000 0.500000
O O11 0.251671 0.177267 0.426959
O O12 0.500000 0.952187 0.552192
O O13 0.250576 0.909780 0.528109
O O14 0.291350 0.000000 0.500000
O O15 0.146896 0.588950 0.750000
O O16 0.000000 0.588284 0.860701
O O17 0.500000 0.633132 0.449413
#
# Coordination Sequence:
#
# PCOD9471738 Si02
#       6
#    16  16  16  16  16  16
#     4   9  18  31  49  73 100 131 164 201 248 298
#     4  10  21  37  56  76 101 137 177 214 257 310
#     4   9  17  30  48  71  98 128 163 200 244 301
#     4  11  23  36  53  79 108 138 173 215 262 308
#     4  10  20  32  48  72 100 130 165 205 249 298
#     4  10  20  33  50  74 103 133 166 206 252 301
#
# _framework density 18.185459999999999
#
# number of rings (size 3 to 8) (size 9 to 14) (size 15 to 20)
#    0.000    2.167    0.000    4.500    0.000   10.000 
#    0.000    0.000    0.000    1.000    0.000    4.667 
#    0.000    0.000    0.000    0.000    0.000    0.000 
#
# Total GULP energy -267620.840604 kJ/mol
# GULP energy per Si atom -5575.434179 kJ/mol
# Density = 1.814407 g / cm^3
# Si number density = 18.185460 Si / 1000 Ang^3
#
#
#
# Elastic Constant Matrix: (Units=GPa)
#
#
# Indices 1 2 3 4 5 6 
#
# 1 108.6688 64.2249 24.6158 0.0000 0.0000 0.0000
# 2 64.2249 130.7534 15.1001 0.0000 0.0000 0.0000
# 3 24.6158 15.1001 21.1863 0.0000 0.0000 0.0000
# 4 0.0000 0.0000 0.0000 22.0414 0.0000 0.0000
# 5 0.0000 0.0000 0.0000 0.0000 21.1225 0.0000
# 6 0.0000 0.0000 0.0000 0.0000 0.0000 35.5720
#
#
#
# Elastic Compliance Matrix: (Units=1/GPa)
#
#
# Indices 1 2 3 4 5 6 
#
# 1 0.016153 -0.006284 -0.014289 0.000000 0.000000 0.000000
# 2 -0.006284 0.010779 -0.000381 0.000000 0.000000 0.000000
# 3 -0.014289 -0.000381 0.064074 0.000000 0.000000 0.000000
# 4 0.000000 0.000000 0.000000 0.045369 0.000000 0.000000
# 5 0.000000 0.000000 0.000000 0.000000 0.047343 0.000000
# 6 0.000000 0.000000 0.000000 0.000000 0.000000 0.028112
#
#
# Mechanical properties :
#
#
# Convention : Reuss Voigt Hill
#
# Bulk Modulus (GPa) = 20.36762 52.05448 36.21105
# Shear Modulus (GPa) = 18.51143 26.19168 22.35156
#
# Velocity S-wave (km/s) = 3.19396 3.79919 3.50964
# Velocity P-wave (km/s) = 4.98258 6.92325 6.03148
#
# Compressibility (1/GPa) = 0.04909754
#
# Stress axis : x y z
#
# Youngs Moduli (GPa) = 61.90810 92.77601 15.60699
#
# Poissons Ratio (x) = 0.58301 0.22301
# Poissons Ratio (y) = 0.38903 0.00595
# Poissons Ratio (z) = 0.88460 0.03535
#
# Static dielectric constant tensor:
#      x y z
#    x 1.557200 0.000000 0.000000 
#    y 0.000000 1.646250 0.000000 
#    z 0.000000 0.000000 1.645770 
# 
# From -- ./inp_files/51326.got.cif
#   From: 2010.05.17/outbox.cif.g08.bks.cpg/sg63_26_cif.got.tgz:51326.got - 2010.06.03 15:47:04.
