data_PCOD9471482
_publ_section_title
;
Structure prediction by ZEFSAII (Michael W. Deem and Ramdas Pophale) SiO2 
 PCOD9471482
Probable space group: C M C M
;
_chemical_formula_sum "Si O2"
_cell_formula_units_Z 100
_cell_length_a 7.558641
_cell_length_b 20.307471
_cell_length_c 30.225767
_cell_angle_alpha 90.000000
_cell_angle_beta 90.000000
_cell_angle_gamma 90.000000
_cell_volume 4639.561018
_symmetry_space_group_name_H-M "C M C M"
_symmetry_group_IT_number 63
_symmetry_cell_setting 'orthorhombic'
loop_
_space_group_symop_operation_xyz
x,y,z
-x,-y,1/2+z
x,-y,-z
-x,y,1/2-z
-x,-y,-z
x,y,1/2-z
-x,y,z
x,-y,1/2+z
1/2+x,1/2+y,z
1/2-x,1/2-y,1/2+z
1/2+x,1/2-y,-z
1/2-x,1/2+y,1/2-z
1/2-x,1/2-y,-z
1/2+x,1/2+y,1/2-z
1/2-x,1/2+y,z
1/2+x,1/2-y,1/2+z
loop_
_atom_site_type_symbol
_atom_site_label
_atom_site_fract_x
_atom_site_fract_y
_atom_site_fract_z
Si Si1 0.293529 0.877364 0.553055
Si Si2 0.787862 0.190366 0.799076
Si Si3 0.500000 0.990093 0.750000
Si Si4 0.206429 0.038070 0.816097
Si Si5 0.284676 0.843269 0.459605
Si Si6 0.791598 0.762938 0.888981
Si Si7 0.714968 0.982375 0.082027
O O1 0.500000 0.887294 0.543122
O O2 0.222805 0.837744 0.510373
O O3 0.280402 0.833693 0.596949
O O4 0.219202 0.950117 0.560108
O O5 0.722261 0.209025 0.750000
O O6 0.736149 0.114571 0.808453
O O7 0.736705 0.237007 0.839522
O O8 0.000000 0.190808 0.797828
O O9 0.343201 0.995212 0.788254
O O10 0.000000 0.031963 0.802739
O O11 0.221146 0.022958 0.867808
O O12 0.500000 0.838643 0.457820
O O13 0.217555 0.790358 0.424141
O O14 0.234622 0.916374 0.443770
O O15 0.000000 0.767545 0.895624
O O16 0.500000 0.983769 0.082905
#
# Coordination Sequence:
#
# PCOD9471482 Si02
#       7
#    16  16   4  16  16  16  16
#     4  10  21  37  58  84 122 166 204 247 307 375
#     4  10  21  37  59  87 117 149 198 254 310 363
#     4  12  22  36  64  90 130 160 206 264 308 374
#     4  11  22  36  60  94 125 159 202 260 315 365
#     4   9  18  34  59  89 116 157 213 255 302 368
#     4  11  22  35  58  86 121 159 200 253 309 366
#     4  10  19  36  61  87 120 163 206 255 312 368
#
# _framework density 21.553764999999999
#
# number of rings (size 3 to 8) (size 9 to 14) (size 15 to 20)
#    0.000    1.760    3.200    1.680    1.120    2.880 
#    0.000    1.600    1.760    1.920    0.000    0.000 
#    0.000    0.000    0.000    0.000    0.000    0.000 
#
# Total GULP energy -278782.669081 kJ/mol
# GULP energy per Si atom -5575.653382 kJ/mol
# Density = 2.150471 g / cm^3
# Si number density = 21.553765 Si / 1000 Ang^3
#
#
#
# Elastic Constant Matrix: (Units=GPa)
#
#
# Indices 1 2 3 4 5 6 
#
# 1 73.6300 -5.6137 -1.1921 0.0000 0.0000 0.0000
# 2 -5.6137 55.1603 1.0271 0.0000 0.0000 0.0000
# 3 -1.1921 1.0271 106.8939 0.0000 0.0000 0.0000
# 4 0.0000 0.0000 0.0000 10.0996 0.0000 0.0000
# 5 0.0000 0.0000 0.0000 0.0000 14.6558 0.0000
# 6 0.0000 0.0000 0.0000 0.0000 0.0000 7.5902
#
#
#
# Elastic Compliance Matrix: (Units=1/GPa)
#
#
# Indices 1 2 3 4 5 6 
#
# 1 0.013690 0.001391 0.000139 0.000000 0.000000 0.000000
# 2 0.001391 0.018273 -0.000160 0.000000 0.000000 0.000000
# 3 0.000139 -0.000160 0.009358 0.000000 0.000000 0.000000
# 4 0.000000 0.000000 0.000000 0.099014 0.000000 0.000000
# 5 0.000000 0.000000 0.000000 0.000000 0.068232 0.000000
# 6 0.000000 0.000000 0.000000 0.000000 0.000000 0.131749
#
#
# Mechanical properties :
#
#
# Convention : Reuss Voigt Hill
#
# Bulk Modulus (GPa) = 22.69575 24.90294 23.79935
# Shear Modulus (GPa) = 14.19389 22.56664 18.38027
#
# Velocity S-wave (km/s) = 2.56898 3.23924 2.92338
# Velocity P-wave (km/s) = 4.39911 5.05660 4.73927
#
# Compressibility (1/GPa) = 0.04406111
#
# Stress axis : x y z
#
# Youngs Moduli (GPa) = 73.04758 54.72406 106.85858
#
# Poissons Ratio (x) = -0.07610 -0.01489
# Poissons Ratio (y) = -0.10158 0.01710
# Poissons Ratio (z) = -0.01018 0.00876
#
# Static dielectric constant tensor:
#      x y z
#    x 1.799180 0.000000 0.000000 
#    y 0.000000 1.779020 0.000000 
#    z 0.000000 0.000000 1.792360 
# 
# From -- ./inp_files/71875.got.cif
#   From: 2010.05.17/outbox.cif.g08.bks.cpg/sg63_36_cif.got.tgz:71875.got - 2010.06.03 15:47:04.
