data_PCOD9471790
_publ_section_title
;
Structure prediction by ZEFSAII (Michael W. Deem and Ramdas Pophale) SiO2 
 PCOD9471790
Probable space group: C M C M
;
_chemical_formula_sum "Si O2"
_cell_formula_units_Z 116
_cell_length_a 9.861412
_cell_length_b 26.881837
_cell_length_c 22.408331
_cell_angle_alpha 90.000000
_cell_angle_beta 90.000000
_cell_angle_gamma 90.000000
_cell_volume 5940.288776
_symmetry_space_group_name_H-M "C M C M"
_symmetry_group_IT_number 63
_symmetry_cell_setting 'orthorhombic'
loop_
_space_group_symop_operation_xyz
x,y,z
-x,-y,1/2+z
x,-y,-z
-x,y,1/2-z
-x,-y,-z
x,y,1/2-z
-x,y,z
x,-y,1/2+z
1/2+x,1/2+y,z
1/2-x,1/2-y,1/2+z
1/2+x,1/2-y,-z
1/2-x,1/2+y,1/2-z
1/2-x,1/2-y,-z
1/2+x,1/2+y,1/2-z
1/2-x,1/2+y,z
1/2+x,1/2-y,1/2+z
loop_
_atom_site_type_symbol
_atom_site_label
_atom_site_fract_x
_atom_site_fract_y
_atom_site_fract_z
Si Si1 0.841981 0.344628 0.420864
Si Si2 0.232692 0.915980 0.646393
Si Si3 0.151267 0.872131 0.979271
Si Si4 0.000000 0.080154 0.250000
Si Si5 0.347024 0.018891 0.678756
Si Si6 0.842763 0.689140 0.182854
Si Si7 0.149388 0.231620 0.412919
Si Si8 0.661006 0.386612 0.179066
O O1 0.767497 0.377065 0.471412
O O2 0.839065 0.286488 0.439286
O O3 0.750910 0.350299 0.361564
O O4 0.000000 0.357724 0.412089
O O5 0.175250 0.903522 0.580786
O O6 0.314064 0.967289 0.646939
O O7 0.322754 0.868283 0.664310
O O8 0.117541 0.919706 0.697060
O O9 0.154766 0.814367 0.958226
O O10 0.000000 0.882373 0.003155
O O11 0.343758 0.009438 0.750000
O O12 0.500000 0.036457 0.664334
O O13 0.231288 0.059790 0.667139
O O14 0.789959 0.695360 0.250000
O O15 0.761253 0.721964 0.136478
O O16 0.000000 0.701923 0.181547
O O17 0.000000 0.228396 0.383774
O O18 0.675646 0.376528 0.250000
O O19 0.500000 0.385983 0.165502
#
# Coordination Sequence:
#
# PCOD9471790 Si02
#       8
#    16  16  16   4  16  16  16  16
#     4  11  23  41  61  84 115 153 195 245 298 347
#     4  11  21  33  58  87 122 158 195 231 285 347
#     4  10  21  37  58  86 118 154 196 236 282 343
#     4  12  20  32  58  92 122 164 192 240 284 340
#     4  10  20  35  58  88 121 153 190 240 291 345
#     4  10  20  32  49  80 118 152 186 234 290 345
#     4   9  21  37  57  81 109 149 196 239 286 348
#     4  10  23  41  65  89 114 149 197 246 296 348
#
# _framework density 19.527671000000002
#
# number of rings (size 3 to 8) (size 9 to 14) (size 15 to 20)
#    0.000    1.793    2.069    1.655    1.931    6.621 
#    0.000    3.448    0.000    3.310    0.000    0.000 
#    0.000    0.000    0.000    0.000    0.000    0.000 
#
# Total GULP energy -323069.497185 kJ/mol
# GULP energy per Si atom -5570.163745 kJ/mol
# Density = 1.948322 g / cm^3
# Si number density = 19.527671 Si / 1000 Ang^3
#
#
#
# Elastic Constant Matrix: (Units=GPa)
#
#
# Indices 1 2 3 4 5 6 
#
# 1 133.2219 10.2888 39.3291 0.0000 0.0000 0.0000
# 2 10.2888 37.8965 -2.6503 0.0000 0.0000 0.0000
# 3 39.3291 -2.6503 49.4874 0.0000 0.0000 0.0000
# 4 0.0000 0.0000 0.0000 10.9298 0.0000 0.0000
# 5 0.0000 0.0000 0.0000 0.0000 33.8293 0.0000
# 6 0.0000 0.0000 0.0000 0.0000 0.0000 5.4585
#
#
#
# Elastic Compliance Matrix: (Units=1/GPa)
#
#
# Indices 1 2 3 4 5 6 
#
# 1 0.010215 -0.003354 -0.008298 0.000000 0.000000 0.000000
# 2 -0.003354 0.027588 0.004143 0.000000 0.000000 0.000000
# 3 -0.008298 0.004143 0.027023 0.000000 0.000000 0.000000
# 4 0.000000 0.000000 0.000000 0.091493 0.000000 0.000000
# 5 0.000000 0.000000 0.000000 0.000000 0.029560 0.000000
# 6 0.000000 0.000000 0.000000 0.000000 0.000000 0.183201
#
#
# Mechanical properties :
#
#
# Convention : Reuss Voigt Hill
#
# Bulk Modulus (GPa) = 20.07672 34.94900 27.51286
# Shear Modulus (GPa) = 12.47815 21.61940 17.04877
#
# Velocity S-wave (km/s) = 2.53058 3.33095 2.95796
# Velocity P-wave (km/s) = 4.34073 5.72098 5.07797
#
# Compressibility (1/GPa) = 0.04980893
#
# Stress axis : x y z
#
# Youngs Moduli (GPa) = 97.89661 36.24781 37.00500
#
# Poissons Ratio (x) = 0.12156 0.30705
# Poissons Ratio (y) = 0.32831 -0.15330
# Poissons Ratio (z) = 0.81231 -0.15016
#
# Static dielectric constant tensor:
#      x y z
#    x 1.684010 0.000000 0.000000 
#    y 0.000000 1.689700 0.000000 
#    z 0.000000 0.000000 1.675740 
# 
# From -- ./inp_files/60474.got.cif
#   From: 2010.05.17/outbox.cif.g08.bks.cpg/sg63_31_cif.got.tgz:60474.got - 2010.06.03 15:47:04.
