data_PCOD9471620
_publ_section_title
;
Structure prediction by ZEFSAII (Michael W. Deem and Ramdas Pophale) SiO2 
 PCOD9471620
Probable space group: C M C M
;
_chemical_formula_sum "Si O2"
_cell_formula_units_Z 60
_cell_length_a 21.286984
_cell_length_b 24.722566
_cell_length_c 5.622648
_cell_angle_alpha 90.000000
_cell_angle_beta 90.000000
_cell_angle_gamma 90.000000
_cell_volume 2959.024592
_symmetry_space_group_name_H-M "C M C M"
_symmetry_group_IT_number 63
_symmetry_cell_setting 'orthorhombic'
loop_
_space_group_symop_operation_xyz
x,y,z
-x,-y,1/2+z
x,-y,-z
-x,y,1/2-z
-x,-y,-z
x,y,1/2-z
-x,y,z
x,-y,1/2+z
1/2+x,1/2+y,z
1/2-x,1/2-y,1/2+z
1/2+x,1/2-y,-z
1/2-x,1/2+y,1/2-z
1/2-x,1/2-y,-z
1/2+x,1/2+y,1/2-z
1/2-x,1/2+y,z
1/2+x,1/2-y,1/2+z
loop_
_atom_site_type_symbol
_atom_site_label
_atom_site_fract_x
_atom_site_fract_y
_atom_site_fract_z
Si Si1 0.297022 0.314928 0.250000
Si Si2 0.568786 0.282947 0.250000
Si Si3 0.626777 0.103652 0.750000
Si Si4 0.394087 0.231902 0.750000
Si Si5 0.244075 0.434818 0.001098
Si Si6 0.762651 0.797604 0.750000
Si Si7 0.000000 0.533746 0.750000
O O1 0.371354 0.323214 0.250000
O O2 0.290585 0.248105 0.250000
O O3 0.262309 0.327733 0.497694
O O4 0.500000 0.309055 0.250000
O O5 0.574257 0.249334 0.498707
O O6 0.615819 0.167650 0.750000
O O7 0.672399 0.085726 0.967350
O O8 0.562271 0.071059 0.750000
O O9 0.328399 0.264916 0.750000
O O10 0.277658 0.419537 0.250000
O O11 0.240205 0.500000 0.000000
O O12 0.273697 0.420511 0.750000
O O13 0.000000 0.500000 0.500000
#
# Coordination Sequence:
#
# PCOD9471620 Si02
#       7
#     8   8   8   8  16   8   4
#     4   8  14  26  44  58  68  97 110 145 160 202
#     4  10  20  31  42  53  81  96 120 134 175 223
#     4  10  22  30  42  48  66  83 113 140 193 216
#     4  10  21  30  42  58  73  99 108 151 184 230
#     4   8  15  26  41  47  56  73 102 138 166 202
#     4   8  14  27  42  59  74  82 122 136 174 206
#     4  12  28  34  42  50  62  88 128 162 178 216
#
# _framework density 20.276952000000001
#
# number of rings (size 3 to 8) (size 9 to 14) (size 15 to 20)
#    0.800    2.133    0.000    1.200    5.600    0.000 
#    0.000    0.000    0.000    0.000    0.000    0.000 
#    0.000    0.000    0.000    0.000    0.000    0.000 
#
# Total GULP energy -167069.911945 kJ/mol
# GULP energy per Si atom -5568.997065 kJ/mol
# Density = 2.023080 g / cm^3
# Si number density = 20.276952 Si / 1000 Ang^3
#
#
#
# Elastic Constant Matrix: (Units=GPa)
#
#
# Indices 1 2 3 4 5 6 
#
# 1 90.2553 1.1349 11.4968 0.0000 0.0000 0.0000
# 2 1.1349 45.5041 27.1709 0.0000 0.0000 0.0000
# 3 11.4968 27.1709 205.8852 0.0000 0.0000 0.0000
# 4 0.0000 0.0000 0.0000 41.9628 0.0000 0.0000
# 5 0.0000 0.0000 0.0000 0.0000 11.4956 0.0000
# 6 0.0000 0.0000 0.0000 0.0000 0.0000 17.5047
#
#
#
# Elastic Compliance Matrix: (Units=1/GPa)
#
#
# Indices 1 2 3 4 5 6 
#
# 1 0.011159 0.000102 -0.000637 0.000000 0.000000 0.000000
# 2 0.000102 0.023857 -0.003154 0.000000 0.000000 0.000000
# 3 -0.000637 -0.003154 0.005309 0.000000 0.000000 0.000000
# 4 0.000000 0.000000 0.000000 0.023831 0.000000 0.000000
# 5 0.000000 0.000000 0.000000 0.000000 0.086990 0.000000
# 6 0.000000 0.000000 0.000000 0.000000 0.000000 0.057127
#
#
# Mechanical properties :
#
#
# Convention : Reuss Voigt Hill
#
# Bulk Modulus (GPa) = 30.35141 46.80554 38.57847
# Shear Modulus (GPa) = 22.06205 34.31542 28.18874
#
# Velocity S-wave (km/s) = 3.30212 4.11826 3.73256
# Velocity P-wave (km/s) = 5.43503 6.76363 6.13540
#
# Compressibility (1/GPa) = 0.03294740
#
# Stress axis : x y z
#
# Youngs Moduli (GPa) = 89.60979 41.91673 188.36390
#
# Poissons Ratio (x) = -0.00427 0.11991
# Poissons Ratio (y) = -0.00912 0.59412
# Poissons Ratio (z) = 0.05704 0.13221
#
# Static dielectric constant tensor:
#      x y z
#    x 1.665940 0.000000 0.000000 
#    y 0.000000 1.814330 0.000000 
#    z 0.000000 0.000000 1.858030 
# 
# From -- ./inp_files/1157.got.cif
#   From: 2010.05.17/outbox.cif.g08.bks.cpg/sg63_1_cif.got.tgz:1157.got - 2010.06.03 15:47:04.
