data_PCOD9471678
_publ_section_title
;
Structure prediction by ZEFSAII (Michael W. Deem and Ramdas Pophale) SiO2 
 PCOD9471678
Probable space group: C M C M
;
_chemical_formula_sum "Si O2"
_cell_formula_units_Z 80
_cell_length_a 19.450344
_cell_length_b 33.932784
_cell_length_c 8.933837
_cell_angle_alpha 90.000000
_cell_angle_beta 90.000000
_cell_angle_gamma 90.000000
_cell_volume 5896.371029
_symmetry_space_group_name_H-M "C M C M"
_symmetry_group_IT_number 63
_symmetry_cell_setting 'orthorhombic'
loop_
_space_group_symop_operation_xyz
x,y,z
-x,-y,1/2+z
x,-y,-z
-x,y,1/2-z
-x,-y,-z
x,y,1/2-z
-x,y,z
x,-y,1/2+z
1/2+x,1/2+y,z
1/2-x,1/2-y,1/2+z
1/2+x,1/2-y,-z
1/2-x,1/2+y,1/2-z
1/2-x,1/2-y,-z
1/2+x,1/2+y,1/2-z
1/2-x,1/2+y,z
1/2+x,1/2-y,1/2+z
loop_
_atom_site_type_symbol
_atom_site_label
_atom_site_fract_x
_atom_site_fract_y
_atom_site_fract_z
Si Si1 0.780462 0.189446 0.072166
Si Si2 0.643248 0.235989 0.427891
Si Si3 0.000000 0.165278 0.072909
Si Si4 0.633790 0.374806 0.429791
Si Si5 0.000000 0.740059 0.926104
Si Si6 0.419849 0.541491 0.570251
O O1 0.792780 0.187768 0.250000
O O2 0.702315 0.203384 0.045915
O O3 0.828115 0.223982 0.003208
O O4 0.801813 0.148554 0.996936
O O5 0.637194 0.242346 0.250000
O O6 0.569895 0.225494 0.497204
O O7 0.000000 0.212394 0.056084
O O8 0.000000 0.156281 0.250000
O O9 0.066871 0.147156 0.995090
O O10 0.633528 0.372042 0.250000
O O11 0.625109 0.420628 0.472572
O O12 0.000000 0.731243 0.750000
O O13 0.398569 0.500000 0.500000
O O14 0.418475 0.538262 0.750000
O O15 0.500000 0.548813 0.526658
#
# Coordination Sequence:
#
# PCOD9471678 Si02
#       6
#    16  16   8  16   8  16
#     4  10  20  32  44  63  85 108 142 178 214 256
#     4  10  20  32  46  61  83 112 141 176 217 255
#     4  11  21  29  40  62  84 108 145 184 215 250
#     4  11  20  31  46  62  83 111 143 180 218 257
#     4  11  21  31  45  64  85 108 145 184 214 255
#     4   9  18  31  43  60  83 108 141 176 213 254
#
# _framework density 13.567667999999999
#
# number of rings (size 3 to 8) (size 9 to 14) (size 15 to 20)
#    0.000    1.800    3.000    2.400    0.000    4.800 
#    0.000    0.000    0.000    0.000    0.000    0.000 
#    0.000    0.000    0.000    0.900    0.000   11.800 
#
# Total GULP energy -223197.140741 kJ/mol
# GULP energy per Si atom -5579.928519 kJ/mol
# Density = 1.353679 g / cm^3
# Si number density = 13.567668 Si / 1000 Ang^3
#
#
#
# Elastic Constant Matrix: (Units=GPa)
#
#
# Indices 1 2 3 4 5 6 
#
# 1 89.8539 41.9855 48.7503 0.0000 0.0000 0.0000
# 2 41.9855 95.9590 47.5887 0.0000 0.0000 0.0000
# 3 48.7503 47.5887 65.7105 0.0000 0.0000 0.0000
# 4 0.0000 0.0000 0.0000 21.9677 0.0000 0.0000
# 5 0.0000 0.0000 0.0000 0.0000 22.0964 0.0000
# 6 0.0000 0.0000 0.0000 0.0000 0.0000 20.5913
#
#
#
# Elastic Compliance Matrix: (Units=1/GPa)
#
#
# Indices 1 2 3 4 5 6 
#
# 1 0.018882 -0.002051 -0.012523 0.000000 0.000000 0.000000
# 2 -0.002051 0.016484 -0.010417 0.000000 0.000000 0.000000
# 3 -0.012523 -0.010417 0.032053 0.000000 0.000000 0.000000
# 4 0.000000 0.000000 0.000000 0.045521 0.000000 0.000000
# 5 0.000000 0.000000 0.000000 0.000000 0.045256 0.000000
# 6 0.000000 0.000000 0.000000 0.000000 0.000000 0.048564
#
#
# Mechanical properties :
#
#
# Convention : Reuss Voigt Hill
#
# Bulk Modulus (GPa) = 57.34635 58.68581 58.01608
# Shear Modulus (GPa) = 19.04361 20.47767 19.76064
#
# Velocity S-wave (km/s) = 3.75053 3.88918 3.82049
# Velocity P-wave (km/s) = 7.81754 7.96968 7.89398
#
# Compressibility (1/GPa) = 0.01743790
#
# Stress axis : x y z
#
# Youngs Moduli (GPa) = 52.96072 60.66334 31.19836
#
# Poissons Ratio (x) = 0.12442 0.39070
# Poissons Ratio (y) = 0.10862 0.32498
# Poissons Ratio (z) = 0.66323 0.63191
#
# Static dielectric constant tensor:
#      x y z
#    x 1.444440 0.000000 0.000000 
#    y 0.000000 1.436730 0.000000 
#    z 0.000000 0.000000 1.452070 
# 
# From -- ./inp_files/8927.got.cif
#   From: 2010.05.17/outbox.cif.g08.bks.cpg/sg63_5_cif.got.tgz:8927.got - 2010.06.03 15:47:04.
