data_PCOD9471542
_publ_section_title
;
Structure prediction by ZEFSAII (Michael W. Deem and Ramdas Pophale) SiO2 
 PCOD9471542
Probable space group: C M C M
;
_chemical_formula_sum "Si O2"
_cell_formula_units_Z 116
_cell_length_a 29.639416
_cell_length_b 9.205884
_cell_length_c 22.184997
_cell_angle_alpha 90.000000
_cell_angle_beta 90.000000
_cell_angle_gamma 90.000000
_cell_volume 6053.332293
_symmetry_space_group_name_H-M "C M C M"
_symmetry_group_IT_number 63
_symmetry_cell_setting 'orthorhombic'
loop_
_space_group_symop_operation_xyz
x,y,z
-x,-y,1/2+z
x,-y,-z
-x,y,1/2-z
-x,-y,-z
x,y,1/2-z
-x,y,z
x,-y,1/2+z
1/2+x,1/2+y,z
1/2-x,1/2-y,1/2+z
1/2+x,1/2-y,-z
1/2-x,1/2+y,1/2-z
1/2-x,1/2-y,-z
1/2+x,1/2+y,1/2-z
1/2-x,1/2+y,z
1/2+x,1/2-y,1/2+z
loop_
_atom_site_type_symbol
_atom_site_label
_atom_site_fract_x
_atom_site_fract_y
_atom_site_fract_z
Si Si1 0.653501 0.756879 0.654035
Si Si2 0.075825 0.040771 0.850784
Si Si3 0.153008 0.171681 0.104351
Si Si4 0.500000 0.522282 0.250000
Si Si5 0.449508 0.340565 0.474910
Si Si6 0.222627 0.020328 0.820457
Si Si7 0.138901 0.328188 0.513805
Si Si8 0.826056 0.433495 0.182785
O O1 0.613424 0.651344 0.674587
O O2 0.699377 0.677697 0.673369
O O3 0.652750 0.782142 0.581549
O O4 0.649217 0.913753 0.682325
O O5 0.040036 0.984164 0.802867
O O6 0.051764 0.132393 0.903380
O O7 0.107387 0.917962 0.882215
O O8 0.149876 0.322582 0.139423
O O9 0.193905 0.083103 0.135473
O O10 0.160995 0.219701 0.035476
O O11 0.436469 0.500000 0.500000
O O12 0.500000 0.308284 0.496146
O O13 0.413867 0.216721 0.491090
O O14 0.219807 0.974068 0.750000
O O15 0.274834 0.034008 0.837435
O O16 0.146322 0.500000 0.500000
O O17 0.823628 0.371959 0.250000
#
# Coordination Sequence:
#
# PCOD9471542 Si02
#       8
#    16  16  16   4  16  16  16  16
#     4  10  22  38  62  88 120 163 203 242 309 355
#     4  10  23  37  61  89 120 157 195 248 296 357
#     4  11  22  39  61  89 123 162 200 244 312 352
#     4  12  24  40  62  94 128 148 204 252 296 352
#     4  10  19  37  62  87 110 152 204 250 291 349
#     4  10  22  39  61  89 119 158 210 258 290 352
#     4  11  22  40  59  88 125 160 201 251 307 368
#     4  11  22  38  61  88 122 158 205 252 299 365
#
# _framework density 19.162998000000002
#
# number of rings (size 3 to 8) (size 9 to 14) (size 15 to 20)
#    0.000    1.517    3.448    1.655    5.793    2.483 
#    0.000    4.138    0.000    1.655    0.000    0.000 
#    0.000    0.000    0.000    0.000    0.000    0.000 
#
# Total GULP energy -323004.251683 kJ/mol
# GULP energy per Si atom -5569.038822 kJ/mol
# Density = 1.911938 g / cm^3
# Si number density = 19.162998 Si / 1000 Ang^3
#
#
#
# Elastic Constant Matrix: (Units=GPa)
#
#
# Indices 1 2 3 4 5 6 
#
# 1 66.2090 11.5022 17.5455 0.0000 0.0000 0.0000
# 2 11.5022 64.0103 2.0779 0.0000 0.0000 0.0000
# 3 17.5455 2.0779 76.5714 0.0000 0.0000 0.0000
# 4 0.0000 0.0000 0.0000 -18.7781 0.0000 0.0000
# 5 0.0000 0.0000 0.0000 0.0000 6.5577 0.0000
# 6 0.0000 0.0000 0.0000 0.0000 0.0000 12.4151
#
#
#
# Elastic Compliance Matrix: (Units=1/GPa)
#
#
# Indices 1 2 3 4 5 6 
#
# 1 0.016587 -0.002860 -0.003723 0.000000 0.000000 0.000000
# 2 -0.002860 0.016129 0.000218 0.000000 0.000000 0.000000
# 3 -0.003723 0.000218 0.013907 0.000000 0.000000 0.000000
# 4 0.000000 0.000000 0.000000 -0.053253 0.000000 0.000000
# 5 0.000000 0.000000 0.000000 0.000000 0.152492 0.000000
# 6 0.000000 0.000000 0.000000 0.000000 0.000000 0.080547
#
#
# Mechanical properties :
#
#
# Convention : Reuss Voigt Hill
#
# Bulk Modulus (GPa) = 29.50486 29.89356 29.69921
# Shear Modulus (GPa) = 19.96507 11.74994 15.85751
#
# Velocity S-wave (km/s) = 3.23128 2.47889 2.87976
# Velocity P-wave (km/s) = 5.41773 4.88126 5.15647
#
# Compressibility (1/GPa) = 0.03389273
#
# Stress axis : x y z
#
# Youngs Moduli (GPa) = 60.28770 61.99900 71.90663
#
# Poissons Ratio (x) = 0.17730 0.26772
# Poissons Ratio (y) = 0.17241 -0.01565
# Poissons Ratio (z) = 0.22446 -0.01349
#
# Static dielectric constant tensor:
#      x y z
#    x 1.668400 0.000000 0.000000 
#    y 0.000000 1.678120 0.000000 
#    z 0.000000 0.000000 0.907720 
# 
# From -- ./inp_files/65805.got.cif
#   From: 2010.05.17/outbox.cif.g08.bks.cpg/sg63_33_cif.got.tgz:65805.got - 2010.06.03 15:47:04.
