data_PCOD9471144
_publ_section_title
;
Structure prediction by ZEFSAII (Michael W. Deem and Ramdas Pophale) SiO2 
 PCOD9471144
Probable space group: C M C M
;
_chemical_formula_sum "Si O2"
_cell_formula_units_Z 80
_cell_length_a 7.380973
_cell_length_b 25.572051
_cell_length_c 17.914904
_cell_angle_alpha 90.000000
_cell_angle_beta 90.000000
_cell_angle_gamma 90.000000
_cell_volume 3381.377542
_symmetry_space_group_name_H-M "C M C M"
_symmetry_group_IT_number 63
_symmetry_cell_setting 'orthorhombic'
loop_
_space_group_symop_operation_xyz
x,y,z
-x,-y,1/2+z
x,-y,-z
-x,y,1/2-z
-x,-y,-z
x,y,1/2-z
-x,y,z
x,-y,1/2+z
1/2+x,1/2+y,z
1/2-x,1/2-y,1/2+z
1/2+x,1/2-y,-z
1/2-x,1/2+y,1/2-z
1/2-x,1/2-y,-z
1/2+x,1/2+y,1/2-z
1/2-x,1/2+y,z
1/2+x,1/2-y,1/2+z
loop_
_atom_site_type_symbol
_atom_site_label
_atom_site_fract_x
_atom_site_fract_y
_atom_site_fract_z
Si Si1 0.722055 0.241778 0.668009
Si Si2 0.280756 0.916442 0.833859
Si Si3 0.278895 0.980572 0.417947
Si Si4 0.704587 0.865052 0.390783
Si Si5 0.792613 0.825748 0.949142
O O1 0.774791 0.261752 0.750000
O O2 0.500000 0.242297 0.665398
O O3 0.784313 0.182230 0.656947
O O4 0.782893 0.277880 0.599549
O O5 0.220811 0.904853 0.750000
O O6 0.500000 0.913810 0.836060
O O7 0.211654 0.874905 0.893357
O O8 0.229373 0.974675 0.859405
O O9 0.500000 0.977729 0.420969
O O10 0.212846 0.922683 0.397241
O O11 0.221001 0.000000 0.500000
O O12 0.500000 0.872538 0.362166
O O13 0.697771 0.842058 0.474791
O O14 0.000000 0.813732 0.969166
#
# Coordination Sequence:
#
# PCOD9471144 Si02
#       5
#    16  16  16  16  16
#     4   9  19  34  52  77 106 136 173 218 267 314
#     4  10  20  34  54  80 106 135 176 220 263 313
#     4   9  16  30  52  77 104 130 162 213 265 302
#     4  10  19  34  58  79 102 137 178 220 260 311
#     4  11  21  34  53  77 109 142 174 214 260 312
#
# _framework density 23.658998
#
# number of rings (size 3 to 8) (size 9 to 14) (size 15 to 20)
#    0.000    2.200    2.000    1.800    0.000    2.000 
#    0.000    7.000    0.000    3.000    0.000    0.000 
#    0.000    0.000    0.000    0.000    0.000    0.000 
#
# Total GULP energy -223631.005360 kJ/mol
# GULP energy per Si atom -5590.775134 kJ/mol
# Density = 2.360515 g / cm^3
# Si number density = 23.658998 Si / 1000 Ang^3
#
#
#
# Elastic Constant Matrix: (Units=GPa)
#
#
# Indices 1 2 3 4 5 6 
#
# 1 86.5730 -3.4180 -6.4606 0.0000 0.0000 0.0000
# 2 -3.4180 132.0734 -3.8585 0.0000 0.0000 0.0000
# 3 -6.4606 -3.8585 62.2327 0.0000 0.0000 0.0000
# 4 0.0000 0.0000 0.0000 -281.9162 0.0000 0.0000
# 5 0.0000 0.0000 0.0000 0.0000 4.1268 0.0000
# 6 0.0000 0.0000 0.0000 0.0000 0.0000 -5.8530
#
#
#
# Elastic Compliance Matrix: (Units=1/GPa)
#
#
# Indices 1 2 3 4 5 6 
#
# 1 0.011656 0.000338 0.001231 0.000000 0.000000 0.000000
# 2 0.000338 0.007595 0.000506 0.000000 0.000000 0.000000
# 3 0.001231 0.000506 0.016228 0.000000 0.000000 0.000000
# 4 0.000000 0.000000 0.000000 -0.003547 0.000000 0.000000
# 5 0.000000 0.000000 0.000000 0.000000 0.242317 0.000000
# 6 0.000000 0.000000 0.000000 0.000000 0.000000 -0.170854
#
#
# Mechanical properties :
#
#
# Convention : Reuss Voigt Hill
#
# Bulk Modulus (GPa) = 25.23456 28.15612 26.69534
# Shear Modulus (GPa) = 44.46204 -37.08739 3.68733
#
# Velocity S-wave (km/s) = 4.33978 -3.96356 1.24977
# Velocity P-wave (km/s) = 5.98336 3.00330 3.65929
#
# Compressibility (1/GPa) = 0.03962820
#
# Stress axis : x y z
#
# Youngs Moduli (GPa) = 85.79173 131.66447 61.62233
#
# Poissons Ratio (x) = -0.04445 -0.07586
# Poissons Ratio (y) = -0.02896 -0.03118
# Poissons Ratio (z) = -0.10561 -0.06662
#
# Static dielectric constant tensor:
#      x y z
#    x 1.936170 0.000000 0.000000 
#    y 0.000000 1.879650 0.000000 
#    z 0.000000 0.000000 1.833670 
# 
# From -- ./inp_files/40455.got.cif
#   From: 2010.05.17/outbox.cif.g08.bks.cpg/sg63_21_cif.got.tgz:40455.got - 2010.06.03 15:47:04.
