data_PCOD9471526
_publ_section_title
;
Structure prediction by ZEFSAII (Michael W. Deem and Ramdas Pophale) SiO2 
 PCOD9471526
Probable space group: C M C M
;
_chemical_formula_sum "Si O2"
_cell_formula_units_Z 96
_cell_length_a 8.637323
_cell_length_b 24.290778
_cell_length_c 25.878146
_cell_angle_alpha 90.000000
_cell_angle_beta 90.000000
_cell_angle_gamma 90.000000
_cell_volume 5429.423825
_symmetry_space_group_name_H-M "C M C M"
_symmetry_group_IT_number 63
_symmetry_cell_setting 'orthorhombic'
loop_
_space_group_symop_operation_xyz
x,y,z
-x,-y,1/2+z
x,-y,-z
-x,y,1/2-z
-x,-y,-z
x,y,1/2-z
-x,y,z
x,-y,1/2+z
1/2+x,1/2+y,z
1/2-x,1/2-y,1/2+z
1/2+x,1/2-y,-z
1/2-x,1/2+y,1/2-z
1/2-x,1/2-y,-z
1/2+x,1/2+y,1/2-z
1/2-x,1/2+y,z
1/2+x,1/2-y,1/2+z
loop_
_atom_site_type_symbol
_atom_site_label
_atom_site_fract_x
_atom_site_fract_y
_atom_site_fract_z
Si Si1 0.311631 0.383085 0.902839
Si Si2 0.687227 0.307393 0.809448
Si Si3 0.314752 0.686728 0.810107
Si Si4 0.315892 0.881869 0.402366
Si Si5 0.812796 0.997374 0.439067
Si Si6 0.186078 0.811536 0.497457
O O1 0.500000 0.383962 0.902532
O O2 0.261426 0.353588 0.850105
O O3 0.261971 0.445770 0.912207
O O4 0.265401 0.345867 0.951763
O O5 0.732251 0.318983 0.750000
O O6 0.500000 0.304113 0.811328
O O7 0.753470 0.247655 0.824087
O O8 0.273092 0.677315 0.750000
O O9 0.500000 0.686026 0.814614
O O10 0.243074 0.642094 0.848156
O O11 0.500000 0.879474 0.404405
O O12 0.246740 0.843138 0.447245
O O13 0.258425 0.943499 0.413438
O O14 0.000000 0.993397 0.436127
O O15 0.772873 0.000000 0.500000
O O16 0.250000 0.750000 0.500000
O O17 0.000000 0.810277 0.496110
#
# Coordination Sequence:
#
# PCOD9471526 Si02
#       6
#    16  16  16  16  16  16
#     4   9  18  33  54  78 107 144 187 227 275 334
#     4   9  17  32  56  85 115 144 176 223 283 345
#     4  10  21  38  60  84 110 145 188 231 278 338
#     4  12  24  37  55  82 114 148 187 234 286 342
#     4  10  19  37  59  77 105 152 196 237 282 329
#     4  11  21  35  54  81 113 147 186 231 282 337
#
# _framework density 17.681433999999999
#
# number of rings (size 3 to 8) (size 9 to 14) (size 15 to 20)
#    0.000    1.833    1.667    3.500    0.000    2.667 
#    0.000    2.500    0.000    3.000    0.000    0.000 
#    0.000    0.000    0.000    0.000    0.000    0.000 
#
# Total GULP energy -268088.537638 kJ/mol
# GULP energy per Si atom -5585.177867 kJ/mol
# Density = 1.764119 g / cm^3
# Si number density = 17.681434 Si / 1000 Ang^3
#
#
#
# Elastic Constant Matrix: (Units=GPa)
#
#
# Indices 1 2 3 4 5 6 
#
# 1 43.8813 46.9221 38.7032 0.0000 0.0000 0.0000
# 2 46.9221 191.7031 99.2234 0.0000 0.0000 0.0000
# 3 38.7032 99.2234 113.0184 0.0000 0.0000 0.0000
# 4 0.0000 0.0000 0.0000 23.9925 0.0000 0.0000
# 5 0.0000 0.0000 0.0000 0.0000 16.6543 0.0000
# 6 0.0000 0.0000 0.0000 0.0000 0.0000 32.0754
#
#
#
# Elastic Compliance Matrix: (Units=1/GPa)
#
#
# Indices 1 2 3 4 5 6 
#
# 1 0.034452 -0.004263 -0.008055 0.000000 0.000000 0.000000
# 2 -0.004263 0.010089 -0.007397 0.000000 0.000000 0.000000
# 3 -0.008055 -0.007397 0.018101 0.000000 0.000000 0.000000
# 4 0.000000 0.000000 0.000000 0.041680 0.000000 0.000000
# 5 0.000000 0.000000 0.000000 0.000000 0.060045 0.000000
# 6 0.000000 0.000000 0.000000 0.000000 0.000000 0.031177
#
#
# Mechanical properties :
#
#
# Convention : Reuss Voigt Hill
#
# Bulk Modulus (GPa) = 43.08449 79.81114 61.44781
# Shear Modulus (GPa) = 20.60064 25.46139 23.03101
#
# Velocity S-wave (km/s) = 3.41706 3.79886 3.61301
# Velocity P-wave (km/s) = 6.32364 8.02983 7.22726
#
# Compressibility (1/GPa) = 0.02321021
#
# Stress axis : x y z
#
# Youngs Moduli (GPa) = 29.02572 99.12123 55.24579
#
# Poissons Ratio (x) = 0.42260 0.44501
# Poissons Ratio (y) = 0.12375 0.40867
# Poissons Ratio (z) = 0.23381 0.73322
#
# Static dielectric constant tensor:
#      x y z
#    x 1.599140 0.000000 0.000000 
#    y 0.000000 1.573550 0.000000 
#    z 0.000000 0.000000 1.597550 
# 
# From -- ./inp_files/59840.got.cif
#   From: 2010.05.17/outbox.cif.g08.bks.cpg/sg63_30_cif.got.tgz:59840.got - 2010.06.03 15:47:04.
