data_PCOD9471555
_publ_section_title
;
Structure prediction by ZEFSAII (Michael W. Deem and Ramdas Pophale) SiO2 
 PCOD9471555
Probable space group: C M C M
;
_chemical_formula_sum "Si O2"
_cell_formula_units_Z 80
_cell_length_a 23.665762
_cell_length_b 11.302574
_cell_length_c 14.846604
_cell_angle_alpha 90.000000
_cell_angle_beta 90.000000
_cell_angle_gamma 90.000000
_cell_volume 3971.229414
_symmetry_space_group_name_H-M "C M C M"
_symmetry_group_IT_number 63
_symmetry_cell_setting 'orthorhombic'
loop_
_space_group_symop_operation_xyz
x,y,z
-x,-y,1/2+z
x,-y,-z
-x,y,1/2-z
-x,-y,-z
x,y,1/2-z
-x,y,z
x,-y,1/2+z
1/2+x,1/2+y,z
1/2-x,1/2-y,1/2+z
1/2+x,1/2-y,-z
1/2-x,1/2+y,1/2-z
1/2-x,1/2-y,-z
1/2+x,1/2+y,1/2-z
1/2-x,1/2+y,z
1/2+x,1/2-y,1/2+z
loop_
_atom_site_type_symbol
_atom_site_label
_atom_site_fract_x
_atom_site_fract_y
_atom_site_fract_z
Si Si1 0.652581 0.225925 0.851348
Si Si2 0.345838 0.616888 0.522288
Si Si3 0.935113 0.530887 0.894024
Si Si4 0.245054 0.517584 0.645514
Si Si5 0.151991 0.331446 0.851460
O O1 0.649742 0.273985 0.750000
O O2 0.700163 0.124751 0.853741
O O3 0.594965 0.155739 0.874743
O O4 0.666326 0.321181 0.927017
O O5 0.382568 0.500000 0.500000
O O6 0.293973 0.561858 0.579872
O O7 0.365882 0.724521 0.584808
O O8 0.896858 0.429678 0.849513
O O9 0.000000 0.529935 0.864946
O O10 0.932820 0.500000 0.000000
O O11 0.262896 0.499503 0.750000
O O12 0.208419 0.402018 0.616423
O O13 0.163533 0.289070 0.750000
#
# Coordination Sequence:
#
# PCOD9471555 Si02
#       5
#    16  16  16  16  16
#     4  10  22  39  57  86 122 151 194 248 299 354
#     4  12  25  36  57  81 119 169 203 232 288 350
#     4  10  19  37  69  97 116 145 191 251 318 362
#     4   9  21  37  57  84 113 152 200 250 295 343
#     4  10  22  40  60  88 122 151 197 255 300 351
#
# _framework density 20.144894000000001
#
# number of rings (size 3 to 8) (size 9 to 14) (size 15 to 20)
#    0.000    1.800    2.000    3.000    5.600    3.200 
#    0.000    0.000    0.000    2.400    0.000    2.800 
#    0.000    0.000    0.000    0.000    0.000    0.000 
#
# Total GULP energy -223348.174237 kJ/mol
# GULP energy per Si atom -5583.704356 kJ/mol
# Density = 2.009904 g / cm^3
# Si number density = 20.144894 Si / 1000 Ang^3
#
#
#
# Elastic Constant Matrix: (Units=GPa)
#
#
# Indices 1 2 3 4 5 6 
#
# 1 81.4934 27.4953 17.9988 0.0000 0.0000 0.0000
# 2 27.4953 124.1773 47.8187 0.0000 0.0000 0.0000
# 3 17.9988 47.8187 115.7864 0.0000 0.0000 0.0000
# 4 0.0000 0.0000 0.0000 -2.2631 0.0000 0.0000
# 5 0.0000 0.0000 0.0000 0.0000 24.4151 0.0000
# 6 0.0000 0.0000 0.0000 0.0000 0.0000 11.4279
#
#
#
# Elastic Compliance Matrix: (Units=1/GPa)
#
#
# Indices 1 2 3 4 5 6 
#
# 1 0.013362 -0.002567 -0.001017 0.000000 0.000000 0.000000
# 2 -0.002567 0.010069 -0.003759 0.000000 0.000000 0.000000
# 3 -0.001017 -0.003759 0.010347 0.000000 0.000000 0.000000
# 4 0.000000 0.000000 0.000000 -0.441875 0.000000 0.000000
# 5 0.000000 0.000000 0.000000 0.000000 0.040958 0.000000
# 6 0.000000 0.000000 0.000000 0.000000 0.000000 0.087505
#
#
# Mechanical properties :
#
#
# Convention : Reuss Voigt Hill
#
# Bulk Modulus (GPa) = 52.37953 56.45363 54.41658
# Shear Modulus (GPa) = -19.33613 21.92561 1.29474
#
# Velocity S-wave (km/s) = -3.10151 3.30266 0.80256
# Velocity P-wave (km/s) = 3.63758 6.52902 5.28489
#
# Compressibility (1/GPa) = 0.01909143
#
# Stress axis : x y z
#
# Youngs Moduli (GPa) = 74.84138 99.31424 96.64382
#
# Poissons Ratio (x) = 0.25493 0.09828
# Poissons Ratio (y) = 0.19211 0.36332
# Poissons Ratio (z) = 0.07611 0.37336
#
# Static dielectric constant tensor:
#      x y z
#    x 1.709310 0.000000 0.000000 
#    y 0.000000 1.736290 0.000000 
#    z 0.000000 0.000000 1.762330 
# 
# From -- ./inp_files/36482.got.cif
#   From: 2010.05.17/outbox.cif.g08.bks.cpg/sg63_19_cif.got.tgz:36482.got - 2010.06.03 15:47:04.
