data_PCOD9471459
_publ_section_title
;
Structure prediction by ZEFSAII (Michael W. Deem and Ramdas Pophale) SiO2 
 PCOD9471459
Probable space group: C M C M
;
_chemical_formula_sum "Si O2"
_cell_formula_units_Z 100
_cell_length_a 18.647972
_cell_length_b 33.977415
_cell_length_c 7.744993
_cell_angle_alpha 90.000000
_cell_angle_beta 90.000000
_cell_angle_gamma 90.000000
_cell_volume 4907.304113
_symmetry_space_group_name_H-M "C M C M"
_symmetry_group_IT_number 63
_symmetry_cell_setting 'orthorhombic'
loop_
_space_group_symop_operation_xyz
x,y,z
-x,-y,1/2+z
x,-y,-z
-x,y,1/2-z
-x,-y,-z
x,y,1/2-z
-x,y,z
x,-y,1/2+z
1/2+x,1/2+y,z
1/2-x,1/2-y,1/2+z
1/2+x,1/2-y,-z
1/2-x,1/2+y,1/2-z
1/2-x,1/2-y,-z
1/2+x,1/2+y,1/2-z
1/2-x,1/2+y,z
1/2+x,1/2-y,1/2+z
loop_
_atom_site_type_symbol
_atom_site_label
_atom_site_fract_x
_atom_site_fract_y
_atom_site_fract_z
Si Si1 0.500000 0.965471 0.750000
Si Si2 0.164722 0.641289 0.948242
Si Si3 0.082717 0.805592 0.958867
Si Si4 0.228395 0.957503 0.957043
Si Si5 0.082100 0.281602 0.545399
Si Si6 0.391036 0.942080 0.449541
Si Si7 0.679042 0.624032 0.447607
O O1 0.438023 0.962009 0.596457
O O2 0.185568 0.634727 0.750000
O O3 0.111681 0.605014 0.990541
O O4 0.127569 0.683145 0.967612
O O5 0.238286 0.638158 0.052212
O O6 0.083595 0.806090 0.750000
O O7 0.130190 0.841757 0.025846
O O8 0.000000 0.808980 0.016500
O O9 0.109955 0.762407 0.011714
O O10 0.236494 0.953615 0.750000
O O11 0.183359 0.919970 0.022137
O O12 0.308103 0.954872 0.036631
O O13 0.197302 0.000000 0.000000
O O14 0.080551 0.287984 0.750000
O O15 0.000000 0.282931 0.479091
O O16 0.415540 0.948104 0.250000
O O17 0.654139 0.619668 0.250000
#
# Coordination Sequence:
#
# PCOD9471459 Si02
#       7
#     4  16  16  16  16  16  16
#     4  12  22  36  58  78 114 156 186 240 288 344
#     4  10  21  34  51  77 106 141 188 236 273 318
#     4   9  18  35  56  79 108 139 177 221 270 330
#     4  10  19  36  60  82 108 140 179 230 277 332
#     4  10  21  33  50  74 105 146 186 225 274 324
#     4  10  22  37  55  81 110 148 195 238 287 334
#     4   9  19  35  57  81 105 139 177 219 275 330
#
# _framework density 20.377786
#
# number of rings (size 3 to 8) (size 9 to 14) (size 15 to 20)
#    0.000    2.240    0.800    1.680    3.360    2.880 
#    0.000    0.400    0.000    0.480    0.000    0.000 
#    0.000    0.000    0.000    0.000    0.000    0.480 
#
# Total GULP energy -278651.353288 kJ/mol
# GULP energy per Si atom -5573.027066 kJ/mol
# Density = 2.033141 g / cm^3
# Si number density = 20.377786 Si / 1000 Ang^3
#
#
#
# Elastic Constant Matrix: (Units=GPa)
#
#
# Indices 1 2 3 4 5 6 
#
# 1 28.5694 45.5247 12.5114 0.0000 0.0000 0.0000
# 2 45.5247 177.9639 13.9153 0.0000 0.0000 0.0000
# 3 12.5114 13.9153 83.0167 0.0000 0.0000 0.0000
# 4 0.0000 0.0000 0.0000 20.1531 0.0000 0.0000
# 5 0.0000 0.0000 0.0000 0.0000 -23.7823 0.0000
# 6 0.0000 0.0000 0.0000 0.0000 0.0000 75.6765
#
#
#
# Elastic Compliance Matrix: (Units=1/GPa)
#
#
# Indices 1 2 3 4 5 6 
#
# 1 0.062713 -0.015507 -0.006852 0.000000 0.000000 0.000000
# 2 -0.015507 0.009528 0.000740 0.000000 0.000000 0.000000
# 3 -0.006852 0.000740 0.012954 0.000000 0.000000 0.000000
# 4 0.000000 0.000000 0.000000 0.049620 0.000000 0.000000
# 5 0.000000 0.000000 0.000000 0.000000 -0.042048 0.000000
# 6 0.000000 0.000000 0.000000 0.000000 0.000000 0.013214
#
#
# Mechanical properties :
#
#
# Convention : Reuss Voigt Hill
#
# Bulk Modulus (GPa) = 23.83368 48.16141 35.99754
# Shear Modulus (GPa) = 30.63624 28.91604 29.77614
#
# Velocity S-wave (km/s) = 3.88159 3.77105 3.82672
# Velocity P-wave (km/s) = 5.64006 6.53044 6.10151
#
# Compressibility (1/GPa) = 0.04195744
#
# Stress axis : x y z
#
# Youngs Moduli (GPa) = 15.94566 104.95351 77.19369
#
# Poissons Ratio (x) = 1.62749 0.52894
# Poissons Ratio (y) = 0.24727 -0.05712
# Poissons Ratio (z) = 0.10926 -0.07766
#
# Static dielectric constant tensor:
#      x y z
#    x 1.689470 0.000000 0.000000 
#    y 0.000000 1.780310 0.000000 
#    z 0.000000 0.000000 1.746010 
# 
# From -- ./inp_files/8760.got.cif
#   From: 2010.05.17/outbox.cif.g08.bks.cpg/sg63_5_cif.got.tgz:8760.got - 2010.06.03 15:47:04.
