data_PCOD9471679
_publ_section_title
;
Structure prediction by ZEFSAII (Michael W. Deem and Ramdas Pophale) SiO2 
 PCOD9471679
Probable space group: C M C M
;
_chemical_formula_sum "Si O2"
_cell_formula_units_Z 88
_cell_length_a 19.451491
_cell_length_b 27.644675
_cell_length_c 8.835813
_cell_angle_alpha 90.000000
_cell_angle_beta 90.000000
_cell_angle_gamma 90.000000
_cell_volume 4751.283023
_symmetry_space_group_name_H-M "C M C M"
_symmetry_group_IT_number 63
_symmetry_cell_setting 'orthorhombic'
loop_
_space_group_symop_operation_xyz
x,y,z
-x,-y,1/2+z
x,-y,-z
-x,y,1/2-z
-x,-y,-z
x,y,1/2-z
-x,y,z
x,-y,1/2+z
1/2+x,1/2+y,z
1/2-x,1/2-y,1/2+z
1/2+x,1/2-y,-z
1/2-x,1/2+y,1/2-z
1/2-x,1/2-y,-z
1/2+x,1/2+y,1/2-z
1/2-x,1/2+y,z
1/2+x,1/2-y,1/2+z
loop_
_atom_site_type_symbol
_atom_site_label
_atom_site_fract_x
_atom_site_fract_y
_atom_site_fract_z
Si Si1 0.214660 0.550300 0.429653
Si Si2 0.579331 0.765025 0.431402
Si Si3 0.692542 0.694804 0.576201
Si Si4 0.500000 0.552986 0.932865
Si Si5 0.648359 0.583515 0.576173
Si Si6 0.330528 0.157670 0.068447
O O1 0.188645 0.500000 0.500000
O O2 0.209192 0.547258 0.250000
O O3 0.294140 0.557097 0.478064
O O4 0.179853 0.601402 0.478214
O O5 0.584665 0.764261 0.250000
O O6 0.500000 0.754662 0.473328
O O7 0.633846 0.727350 0.501113
O O8 0.603865 0.816903 0.494473
O O9 0.705294 0.710388 0.750000
O O10 0.664765 0.640075 0.578667
O O11 0.764328 0.688921 0.487182
O O12 0.500000 0.552734 0.750000
O O13 0.428809 0.577028 0.981237
O O14 0.500000 0.500000 0.000000
O O15 0.653489 0.565372 0.750000
O O16 0.333730 0.159499 0.250000
#
# Coordination Sequence:
#
# PCOD9471679 Si02
#       6
#    16  16  16   8  16  16
#     4  10  20  34  55  81 107 135 174 221 269 321
#     4  11  24  39  56  81 113 146 182 227 276 328
#     4  10  20  35  58  82 108 145 185 228 273 323
#     4  10  20  32  44  64  96 136 180 222 265 312
#     4   9  19  33  50  72 102 138 180 225 266 315
#     4  10  21  38  59  83 112 145 183 226 271 325
#
# _framework density 18.521312999999999
#
# number of rings (size 3 to 8) (size 9 to 14) (size 15 to 20)
#    0.000    2.000    0.000    3.273    1.273    6.545 
#    0.000    0.000    0.000    0.545    0.000    0.000 
#    0.000    0.000    0.000    0.000    0.000    0.000 
#
# Total GULP energy -245570.156378 kJ/mol
# GULP energy per Si atom -5581.139918 kJ/mol
# Density = 1.847916 g / cm^3
# Si number density = 18.521313 Si / 1000 Ang^3
#
#
#
# Elastic Constant Matrix: (Units=GPa)
#
#
# Indices 1 2 3 4 5 6 
#
# 1 55.3747 28.4881 21.0927 0.0000 0.0000 0.0000
# 2 28.4881 92.2907 32.4793 0.0000 0.0000 0.0000
# 3 21.0927 32.4793 58.4504 0.0000 0.0000 0.0000
# 4 0.0000 0.0000 0.0000 33.1021 0.0000 0.0000
# 5 0.0000 0.0000 0.0000 0.0000 25.1493 0.0000
# 6 0.0000 0.0000 0.0000 0.0000 0.0000 13.3496
#
#
#
# Elastic Compliance Matrix: (Units=1/GPa)
#
#
# Indices 1 2 3 4 5 6 
#
# 1 0.022740 -0.005136 -0.005352 0.000000 0.000000 0.000000
# 2 -0.005136 0.014629 -0.006276 0.000000 0.000000 0.000000
# 3 -0.005352 -0.006276 0.022527 0.000000 0.000000 0.000000
# 4 0.000000 0.000000 0.000000 0.030210 0.000000 0.000000
# 5 0.000000 0.000000 0.000000 0.000000 0.039763 0.000000
# 6 0.000000 0.000000 0.000000 0.000000 0.000000 0.074909
#
#
# Mechanical properties :
#
#
# Convention : Reuss Voigt Hill
#
# Bulk Modulus (GPa) = 37.92364 41.13734 39.53049
# Shear Modulus (GPa) = 20.23526 22.59057 21.41291
#
# Velocity S-wave (km/s) = 3.30894 3.49622 3.40387
# Velocity P-wave (km/s) = 5.92612 6.20944 6.06943
#
# Compressibility (1/GPa) = 0.02636878
#
# Stress axis : x y z
#
# Youngs Moduli (GPa) = 43.97621 68.35652 44.39073
#
# Poissons Ratio (x) = 0.35105 0.23759
# Poissons Ratio (y) = 0.22585 0.27859
# Poissons Ratio (z) = 0.23537 0.42899
#
# Static dielectric constant tensor:
#      x y z
#    x 1.806860 0.000000 0.000000 
#    y 0.000000 1.663750 0.000000 
#    z 0.000000 0.000000 1.637680 
# 
# From -- ./inp_files/6802.got.cif
#   From: 2010.05.17/outbox.cif.g08.bks.cpg/sg63_4_cif.got.tgz:6802.got - 2010.06.03 15:47:04.
