data_PCOD9471348
_publ_section_title
;
Structure prediction by ZEFSAII (Michael W. Deem and Ramdas Pophale) SiO2 
 PCOD9471348
Probable space group: C M C M
;
_chemical_formula_sum "Si O2"
_cell_formula_units_Z 112
_cell_length_a 23.880514
_cell_length_b 13.771732
_cell_length_c 17.501764
_cell_angle_alpha 90.000000
_cell_angle_beta 90.000000
_cell_angle_gamma 90.000000
_cell_volume 5755.910817
_symmetry_space_group_name_H-M "C M C M"
_symmetry_group_IT_number 63
_symmetry_cell_setting 'orthorhombic'
loop_
_space_group_symop_operation_xyz
x,y,z
-x,-y,1/2+z
x,-y,-z
-x,y,1/2-z
-x,-y,-z
x,y,1/2-z
-x,y,z
x,-y,1/2+z
1/2+x,1/2+y,z
1/2-x,1/2-y,1/2+z
1/2+x,1/2-y,-z
1/2-x,1/2+y,1/2-z
1/2-x,1/2-y,-z
1/2+x,1/2+y,1/2-z
1/2-x,1/2+y,z
1/2+x,1/2-y,1/2+z
loop_
_atom_site_type_symbol
_atom_site_label
_atom_site_fract_x
_atom_site_fract_y
_atom_site_fract_z
Si Si1 0.565047 0.801455 0.884257
Si Si2 0.064624 0.038593 0.413107
Si Si3 0.862921 0.121922 0.662486
Si Si4 0.830985 0.419076 0.659706
Si Si5 0.233732 0.758431 0.088205
Si Si6 0.337760 0.859349 0.340353
Si Si7 0.564577 0.233267 0.934104
O O1 0.500000 0.816458 0.866781
O O2 0.589485 0.705125 0.844348
O O3 0.605193 0.888994 0.859474
O O4 0.571178 0.783560 0.975207
O O5 0.075131 0.153454 0.415494
O O6 0.000000 0.022155 0.387348
O O7 0.067956 0.000000 0.500000
O O8 0.108660 0.977786 0.363947
O O9 0.842778 0.117257 0.750000
O O10 0.813343 0.160410 0.607854
O O11 0.822174 0.405106 0.750000
O O12 0.792487 0.343020 0.615419
O O13 0.820322 0.530521 0.640082
O O14 0.288410 0.787311 0.135547
O O15 0.250000 0.750000 0.000000
O O16 0.348117 0.854806 0.250000
O O17 0.392605 0.831177 0.387270
O O18 0.500000 0.212061 0.914923
#
# Coordination Sequence:
#
# PCOD9471348 Si02
#       7
#    16  16  16  16  16  16  16
#     4  10  19  35  60  89 121 158 200 248 303 360
#     4  10  20  37  61  89 129 171 206 248 305 376
#     4  11  22  37  60  92 126 157 205 264 311 363
#     4  10  23  42  62  88 123 156 197 252 304 364
#     4  11  24  42  65  90 118 157 203 258 311 378
#     4  11  24  43  64  86 120 162 202 249 310 368
#     4  10  22  39  61  90 124 164 208 254 301 364
#
# _framework density 19.458258000000001
#
# number of rings (size 3 to 8) (size 9 to 14) (size 15 to 20)
#    0.000    1.571    1.429    4.714    0.000    6.857 
#    0.000    4.286    0.000    0.000    0.000    0.000 
#    0.000    0.000    0.000    0.000    0.000    0.000 
#
# Total GULP energy -313029.124440 kJ/mol
# GULP energy per Si atom -5589.805794 kJ/mol
# Density = 1.941397 g / cm^3
# Si number density = 19.458258 Si / 1000 Ang^3
#
#
#
# Elastic Constant Matrix: (Units=GPa)
#
#
# Indices 1 2 3 4 5 6 
#
# 1 81.3876 39.0123 50.9097 0.0000 0.0000 0.0000
# 2 39.0123 66.4438 44.2690 0.0000 0.0000 0.0000
# 3 50.9097 44.2690 84.3009 0.0000 0.0000 0.0000
# 4 0.0000 0.0000 0.0000 27.3657 0.0000 0.0000
# 5 0.0000 0.0000 0.0000 0.0000 -92.8908 0.0000
# 6 0.0000 0.0000 0.0000 0.0000 0.0000 23.6148
#
#
#
# Elastic Compliance Matrix: (Units=1/GPa)
#
#
# Indices 1 2 3 4 5 6 
#
# 1 0.021207 -0.006028 -0.009642 0.000000 0.000000 0.000000
# 2 -0.006028 0.024863 -0.009416 0.000000 0.000000 0.000000
# 3 -0.009642 -0.009416 0.022630 0.000000 0.000000 0.000000
# 4 0.000000 0.000000 0.000000 0.036542 0.000000 0.000000
# 5 0.000000 0.000000 0.000000 0.000000 -0.010765 0.000000
# 6 0.000000 0.000000 0.000000 0.000000 0.000000 0.042346
#
#
# Mechanical properties :
#
#
# Convention : Reuss Voigt Hill
#
# Bulk Modulus (GPa) = 53.97063 55.61271 54.79167
# Shear Modulus (GPa) = 25.88371 -1.85263 12.01554
#
# Velocity S-wave (km/s) = 3.65117 -0.97682 2.48766
# Velocity P-wave (km/s) = 6.75067 5.23167 6.03912
#
# Compressibility (1/GPa) = 0.01852860
#
# Stress axis : x y z
#
# Youngs Moduli (GPa) = 47.15315 40.22003 44.18957
#
# Poissons Ratio (x) = 0.24244 0.42607
# Poissons Ratio (y) = 0.28423 0.41610
# Poissons Ratio (z) = 0.45464 0.37872
#
# Static dielectric constant tensor:
#      x y z
#    x 1.683160 0.000000 0.000000 
#    y 0.000000 1.707430 0.000000 
#    z 0.000000 0.000000 1.663340 
# 
# From -- ./inp_files/36883.got.cif
#   From: 2010.05.17/outbox.cif.g08.bks.cpg/sg63_19_cif.got.tgz:36883.got - 2010.06.03 15:47:04.
