data_PCOD9471464
_publ_section_title
;
Structure prediction by ZEFSAII (Michael W. Deem and Ramdas Pophale) SiO2 
 PCOD9471464
Probable space group: C M C M
;
_chemical_formula_sum "Si O2"
_cell_formula_units_Z 96
_cell_length_a 16.006629
_cell_length_b 23.861528
_cell_length_c 14.046815
_cell_angle_alpha 90.000000
_cell_angle_beta 90.000000
_cell_angle_gamma 90.000000
_cell_volume 5365.077409
_symmetry_space_group_name_H-M "C M C M"
_symmetry_group_IT_number 63
_symmetry_cell_setting 'orthorhombic'
loop_
_space_group_symop_operation_xyz
x,y,z
-x,-y,1/2+z
x,-y,-z
-x,y,1/2-z
-x,-y,-z
x,y,1/2-z
-x,y,z
x,-y,1/2+z
1/2+x,1/2+y,z
1/2-x,1/2-y,1/2+z
1/2+x,1/2-y,-z
1/2-x,1/2+y,1/2-z
1/2-x,1/2-y,-z
1/2+x,1/2+y,1/2-z
1/2-x,1/2+y,z
1/2+x,1/2-y,1/2+z
loop_
_atom_site_type_symbol
_atom_site_label
_atom_site_fract_x
_atom_site_fract_y
_atom_site_fract_z
Si Si1 0.757909 0.455662 0.362701
Si Si2 0.099980 0.731019 0.859620
Si Si3 0.819169 0.580003 0.358803
Si Si4 0.596982 0.115541 0.955092
Si Si5 0.408841 0.434541 0.027208
Si Si6 0.351510 0.356012 0.640519
O O1 0.747474 0.453436 0.250000
O O2 0.775886 0.520897 0.387398
O O3 0.839499 0.422207 0.395234
O O4 0.674871 0.430180 0.410233
O O5 0.123437 0.716368 0.750000
O O6 0.118803 0.679813 0.929741
O O7 0.139189 0.790815 0.884339
O O8 0.000000 0.739002 0.860821
O O9 0.849744 0.574476 0.250000
O O10 0.886773 0.598501 0.435757
O O11 0.744570 0.624899 0.361089
O O12 0.500000 0.106700 0.929548
O O13 0.500000 0.421414 0.071700
O O14 0.410816 0.500000 0.000000
O O15 0.398101 0.395703 0.934313
O O16 0.381949 0.363327 0.750000
#
# Coordination Sequence:
#
# PCOD9471464 Si02
#       6
#    16  16  16  16  16  16
#     4  11  22  39  57  80 119 155 189 240 290 341
#     4   9  19  35  56  86 116 145 190 242 287 337
#     4  10  21  37  57  83 117 151 189 235 290 350
#     4  11  22  38  61  85 113 151 195 243 294 340
#     4  11  21  34  55  84 115 149 188 229 284 344
#     4  10  19  36  60  84 114 150 190 237 285 336
#
# _framework density 17.893498000000001
#
# number of rings (size 3 to 8) (size 9 to 14) (size 15 to 20)
#    0.000    1.667    3.333    1.500    0.000    4.667 
#    0.000    3.333    0.000    0.000    0.000    2.333 
#    0.000    0.000    0.000    0.000    0.000    0.000 
#
# Total GULP energy -267741.246826 kJ/mol
# GULP energy per Si atom -5577.942642 kJ/mol
# Density = 1.785277 g / cm^3
# Si number density = 17.893498 Si / 1000 Ang^3
#
#
#
# Elastic Constant Matrix: (Units=GPa)
#
#
# Indices 1 2 3 4 5 6 
#
# 1 100.3603 53.0807 39.5248 0.0000 0.0000 0.0000
# 2 53.0807 101.7689 52.3333 0.0000 0.0000 0.0000
# 3 39.5248 52.3333 81.2842 0.0000 0.0000 0.0000
# 4 0.0000 0.0000 0.0000 29.0700 0.0000 0.0000
# 5 0.0000 0.0000 0.0000 0.0000 14.0347 0.0000
# 6 0.0000 0.0000 0.0000 0.0000 0.0000 34.0175
#
#
#
# Elastic Compliance Matrix: (Units=1/GPa)
#
#
# Indices 1 2 3 4 5 6 
#
# 1 0.014301 -0.005805 -0.003216 0.000000 0.000000 0.000000
# 2 -0.005805 0.017046 -0.008152 0.000000 0.000000 0.000000
# 3 -0.003216 -0.008152 0.019115 0.000000 0.000000 0.000000
# 4 0.000000 0.000000 0.000000 0.034400 0.000000 0.000000
# 5 0.000000 0.000000 0.000000 0.000000 0.071252 0.000000
# 6 0.000000 0.000000 0.000000 0.000000 0.000000 0.029397
#
#
# Mechanical properties :
#
#
# Convention : Reuss Voigt Hill
#
# Bulk Modulus (GPa) = 62.05388 63.69901 62.87644
# Shear Modulus (GPa) = 22.19953 24.65608 23.42780
#
# Velocity S-wave (km/s) = 3.52610 3.71608 3.62234
# Velocity P-wave (km/s) = 7.16469 7.35450 7.26021
#
# Compressibility (1/GPa) = 0.01611503
#
# Stress axis : x y z
#
# Youngs Moduli (GPa) = 69.92411 58.66426 52.31474
#
# Poissons Ratio (x) = 0.34056 0.16827
# Poissons Ratio (y) = 0.40593 0.42647
# Poissons Ratio (z) = 0.22491 0.47823
#
# Static dielectric constant tensor:
#      x y z
#    x 1.617330 0.000000 0.000000 
#    y 0.000000 1.598600 0.000000 
#    z 0.000000 0.000000 1.631670 
# 
# From -- ./inp_files/31912.got.cif
#   From: 2010.05.17/outbox.cif.g08.bks.cpg/sg63_16_cif.got.tgz:31912.got - 2010.06.03 15:47:04.
