data_PCOD9471329
_publ_section_title
;
Structure prediction by ZEFSAII (Michael W. Deem and Ramdas Pophale) SiO2 
 PCOD9471329
Probable space group: C M C M
;
_chemical_formula_sum "Si O2"
_cell_formula_units_Z 80
_cell_length_a 17.226600
_cell_length_b 10.695465
_cell_length_c 19.178451
_cell_angle_alpha 90.000000
_cell_angle_beta 90.000000
_cell_angle_gamma 90.000000
_cell_volume 3533.562422
_symmetry_space_group_name_H-M "C M C M"
_symmetry_group_IT_number 63
_symmetry_cell_setting 'orthorhombic'
loop_
_space_group_symop_operation_xyz
x,y,z
-x,-y,1/2+z
x,-y,-z
-x,y,1/2-z
-x,-y,-z
x,y,1/2-z
-x,y,z
x,-y,1/2+z
1/2+x,1/2+y,z
1/2-x,1/2-y,1/2+z
1/2+x,1/2-y,-z
1/2-x,1/2+y,1/2-z
1/2-x,1/2-y,-z
1/2+x,1/2+y,1/2-z
1/2-x,1/2+y,z
1/2+x,1/2-y,1/2+z
loop_
_atom_site_type_symbol
_atom_site_label
_atom_site_fract_x
_atom_site_fract_y
_atom_site_fract_z
Si Si1 0.500000 0.008293 0.334414
Si Si2 0.410563 0.503432 0.334646
Si Si3 0.721636 0.691436 0.384944
Si Si4 0.835396 0.641854 0.513726
Si Si5 0.500000 0.140679 0.531267
Si Si6 0.881877 0.277902 0.671472
O O1 0.500000 0.981072 0.250000
O O2 0.427416 0.099316 0.353690
O O3 0.500000 0.888373 0.385124
O O4 0.401120 0.507656 0.250000
O O5 0.500000 0.538286 0.350270
O O6 0.346243 0.595497 0.367056
O O7 0.397162 0.359688 0.359601
O O8 0.769149 0.662852 0.456010
O O9 0.689179 0.826766 0.407251
O O10 0.790235 0.697977 0.329936
O O11 0.851117 0.500000 0.500000
O O12 0.920119 0.706654 0.507570
O O13 0.500000 0.000000 0.500000
O O14 0.910783 0.265197 0.750000
#
# Coordination Sequence:
#
# PCOD9471329 Si02
#       6
#     8  16  16  16   8  16
#     4  10  20  36  61  92 119 160 214 257 305 381
#     4  10  21  39  62  91 128 164 199 250 315 378
#     4  11  22  36  61  88 119 158 205 254 308 366
#     4  10  22  39  58  83 118 157 204 253 307 367
#     4  10  20  38  61  82 116 164 201 253 318 365
#     4  10  19  35  59  88 120 155 202 247 299 370
#
# _framework density 22.640039999999999
#
# number of rings (size 3 to 8) (size 9 to 14) (size 15 to 20)
#    0.000    1.800    1.000    4.200    1.400    0.000 
#    0.000    4.000    0.000    3.000    0.000    0.000 
#    0.000    0.000    0.000    0.000    0.000    0.000 
#
# Total GULP energy -222724.541504 kJ/mol
# GULP energy per Si atom -5568.113538 kJ/mol
# Density = 2.258851 g / cm^3
# Si number density = 22.640040 Si / 1000 Ang^3
#
#
#
# Elastic Constant Matrix: (Units=GPa)
#
#
# Indices 1 2 3 4 5 6 
#
# 1 167.5385 43.0579 34.2135 0.0000 0.0000 0.0000
# 2 43.0579 68.4646 28.2013 0.0000 0.0000 0.0000
# 3 34.2135 28.2013 95.1321 0.0000 0.0000 0.0000
# 4 0.0000 0.0000 0.0000 24.0065 0.0000 0.0000
# 5 0.0000 0.0000 0.0000 0.0000 33.8263 0.0000
# 6 0.0000 0.0000 0.0000 0.0000 0.0000 38.6026
#
#
#
# Elastic Compliance Matrix: (Units=1/GPa)
#
#
# Indices 1 2 3 4 5 6 
#
# 1 0.007288 -0.003991 -0.001438 0.000000 0.000000 0.000000
# 2 -0.003991 0.018823 -0.004145 0.000000 0.000000 0.000000
# 3 -0.001438 -0.004145 0.012258 0.000000 0.000000 0.000000
# 4 0.000000 0.000000 0.000000 0.041655 0.000000 0.000000
# 5 0.000000 0.000000 0.000000 0.000000 0.029563 0.000000
# 6 0.000000 0.000000 0.000000 0.000000 0.000000 0.025905
#
#
# Mechanical properties :
#
#
# Convention : Reuss Voigt Hill
#
# Bulk Modulus (GPa) = 52.02544 60.23117 56.12831
# Shear Modulus (GPa) = 31.04678 34.33124 32.68901
#
# Velocity S-wave (km/s) = 3.70715 3.89832 3.80394
# Velocity P-wave (km/s) = 6.43065 6.85011 6.64369
#
# Compressibility (1/GPa) = 0.01922137
#
# Stress axis : x y z
#
# Youngs Moduli (GPa) = 137.20808 53.12520 81.58263
#
# Poissons Ratio (x) = 0.21204 0.11731
# Poissons Ratio (y) = 0.54764 0.33813
# Poissons Ratio (z) = 0.19730 0.22019
#
# Static dielectric constant tensor:
#      x y z
#    x 2.153230 0.000000 0.000000 
#    y 0.000000 1.936090 0.000000 
#    z 0.000000 0.000000 1.966950 
# 
# From -- ./inp_files/55301.got.cif
#   From: 2010.05.17/outbox.cif.g08.bks.cpg/sg63_28_cif.got.tgz:55301.got - 2010.06.03 15:47:04.
