data_PCOD9471463
_publ_section_title
;
Structure prediction by ZEFSAII (Michael W. Deem and Ramdas Pophale) SiO2 
 PCOD9471463
Probable space group: C M C M
;
_chemical_formula_sum "Si O2"
_cell_formula_units_Z 68
_cell_length_a 7.596745
_cell_length_b 13.998683
_cell_length_c 32.570843
_cell_angle_alpha 90.000000
_cell_angle_beta 90.000000
_cell_angle_gamma 90.000000
_cell_volume 3463.727573
_symmetry_space_group_name_H-M "C M C M"
_symmetry_group_IT_number 63
_symmetry_cell_setting 'orthorhombic'
loop_
_space_group_symop_operation_xyz
x,y,z
-x,-y,1/2+z
x,-y,-z
-x,y,1/2-z
-x,-y,-z
x,y,1/2-z
-x,y,z
x,-y,1/2+z
1/2+x,1/2+y,z
1/2-x,1/2-y,1/2+z
1/2+x,1/2-y,-z
1/2-x,1/2+y,1/2-z
1/2-x,1/2-y,-z
1/2+x,1/2+y,1/2-z
1/2-x,1/2+y,z
1/2+x,1/2-y,1/2+z
loop_
_atom_site_type_symbol
_atom_site_label
_atom_site_fract_x
_atom_site_fract_y
_atom_site_fract_z
Si Si1 0.203897 0.213767 0.180120
Si Si2 0.000000 0.595516 0.446432
Si Si3 0.294491 0.659131 0.601472
Si Si4 0.797788 0.933346 0.615653
Si Si5 0.000000 0.634526 0.538006
Si Si6 0.000000 0.741363 0.250000
O O1 0.228344 0.281439 0.140432
O O2 0.240296 0.108971 0.160582
O O3 0.344997 0.238919 0.214231
O O4 0.000000 0.218127 0.193797
O O5 0.169165 0.611594 0.417951
O O6 0.000000 0.650180 0.489384
O O7 0.000000 0.481226 0.456126
O O8 0.500000 0.678616 0.593421
O O9 0.278579 0.547089 0.613577
O O10 0.170690 0.672479 0.562035
O O11 0.000000 0.909195 0.606201
#
# Coordination Sequence:
#
# PCOD9471463 Si02
#       6
#    16   8  16  16   8   4
#     4  11  22  40  63  82 114 144 186 230 285 343
#     4   9  17  32  55  85 114 152 194 241 266 324
#     4  10  19  36  60  83 112 154 190 225 280 336
#     4   9  20  36  60  83 113 152 189 229 280 333
#     4   9  18  32  54  84 118 149 197 234 276 314
#     4  12  24  40  62  88 108 144 180 238 288 342
#
# _framework density 19.632028999999999
#
# number of rings (size 3 to 8) (size 9 to 14) (size 15 to 20)
#    0.000    2.118    2.353    1.059    0.000    0.941 
#    0.000    7.059    0.000    0.000    0.000    0.000 
#    0.000    0.000    0.000    0.000    0.000    0.000 
#
# Total GULP energy -189346.243533 kJ/mol
# GULP energy per Si atom -5569.007163 kJ/mol
# Density = 1.958735 g / cm^3
# Si number density = 19.632029 Si / 1000 Ang^3
#
#
#
# Elastic Constant Matrix: (Units=GPa)
#
#
# Indices 1 2 3 4 5 6 
#
# 1 112.5198 12.7223 49.0306 0.0000 0.0000 0.0000
# 2 12.7223 42.2677 2.5138 0.0000 0.0000 0.0000
# 3 49.0306 2.5138 96.3357 0.0000 0.0000 0.0000
# 4 0.0000 0.0000 0.0000 -4.8258 0.0000 0.0000
# 5 0.0000 0.0000 0.0000 0.0000 38.2752 0.0000
# 6 0.0000 0.0000 0.0000 0.0000 0.0000 15.4180
#
#
#
# Elastic Compliance Matrix: (Units=1/GPa)
#
#
# Indices 1 2 3 4 5 6 
#
# 1 0.011840 -0.003210 -0.005942 0.000000 0.000000 0.000000
# 2 -0.003210 0.024566 0.000993 0.000000 0.000000 0.000000
# 3 -0.005942 0.000993 0.013379 0.000000 0.000000 0.000000
# 4 0.000000 0.000000 0.000000 -0.207218 0.000000 0.000000
# 5 0.000000 0.000000 0.000000 0.000000 0.026127 0.000000
# 6 0.000000 0.000000 0.000000 0.000000 0.000000 0.064859
#
#
# Mechanical properties :
#
#
# Convention : Reuss Voigt Hill
#
# Bulk Modulus (GPa) = 29.88165 42.18404 36.03284
# Shear Modulus (GPa) = -128.29193 22.23057 -53.03068
#
# Velocity S-wave (km/s) = -8.09260 3.36871 -5.20298
# Velocity P-wave (km/s) = 8.48919 6.05516 4.20722
#
# Compressibility (1/GPa) = 0.03346536
#
# Stress axis : x y z
#
# Youngs Moduli (GPa) = 84.46266 40.70673 74.74565
#
# Poissons Ratio (x) = 0.13068 0.44414
# Poissons Ratio (y) = 0.27114 -0.07421
# Poissons Ratio (z) = 0.50188 -0.04042
#
# Static dielectric constant tensor:
#      x y z
#    x 1.685770 0.000000 0.000000 
#    y 0.000000 1.755190 0.000000 
#    z 0.000000 0.000000 1.635920 
# 
# From -- ./inp_files/66287.got.cif
#   From: 2010.05.17/outbox.cif.g08.bks.cpg/sg63_34_cif.got.tgz:66287.got - 2010.06.03 15:47:04.
