data_PCOD9471074
_publ_section_title
;
Structure prediction by ZEFSAII (Michael W. Deem and Ramdas Pophale) SiO2 
 PCOD9471074
Probable space group: C M C M
;
_chemical_formula_sum "Si O2"
_cell_formula_units_Z 64
_cell_length_a 21.879718
_cell_length_b 18.826692
_cell_length_c 8.355632
_cell_angle_alpha 90.000000
_cell_angle_beta 90.000000
_cell_angle_gamma 90.000000
_cell_volume 3441.874593
_symmetry_space_group_name_H-M "C M C M"
_symmetry_group_IT_number 63
_symmetry_cell_setting 'orthorhombic'
loop_
_space_group_symop_operation_xyz
x,y,z
-x,-y,1/2+z
x,-y,-z
-x,y,1/2-z
-x,-y,-z
x,y,1/2-z
-x,y,z
x,-y,1/2+z
1/2+x,1/2+y,z
1/2-x,1/2-y,1/2+z
1/2+x,1/2-y,-z
1/2-x,1/2+y,1/2-z
1/2-x,1/2-y,-z
1/2+x,1/2+y,1/2-z
1/2-x,1/2+y,z
1/2+x,1/2-y,1/2+z
loop_
_atom_site_type_symbol
_atom_site_label
_atom_site_fract_x
_atom_site_fract_y
_atom_site_fract_z
Si Si1 0.500000 0.918469 0.942947
Si Si2 0.366776 0.418555 0.056152
Si Si3 0.749628 0.169549 0.558569
Si Si4 0.866388 0.581541 0.057767
Si Si5 0.500000 0.581641 0.556978
O O1 0.500000 0.916478 0.750000
O O2 0.433666 0.890166 0.995476
O O3 0.500000 0.000000 0.000000
O O4 0.366034 0.418855 0.250000
O O5 0.309858 0.372214 0.998623
O O6 0.433794 0.389803 0.003915
O O7 0.360633 0.500000 0.000000
O O8 0.751685 0.169139 0.750000
O O9 0.750000 0.250000 0.500000
O O10 0.689016 0.128489 0.504400
O O11 0.864966 0.581337 0.250000
O O12 0.860049 0.500000 0.000000
O O13 0.500000 0.500000 0.500000
O O14 0.500000 0.583700 0.750000
#
# Coordination Sequence:
#
# PCOD9471074 Si02
#       5
#     8  16  16  16   8
#     4   8  16  30  51  78 105 131 165 209 257 306
#     4   9  18  32  53  77 100 127 162 202 248 298
#     4  11  23  37  51  72 103 140 177 216 260 307
#     4  10  19  34  56  81 106 135 171 213 259 311
#     4   8  14  28  49  74  99 123 155 199 245 294
#
# _framework density 18.594518999999998
#
# number of rings (size 3 to 8) (size 9 to 14) (size 15 to 20)
#    0.000    2.500    0.000    2.250    0.000    5.000 
#    0.000    1.250    0.000    4.500    0.000    0.000 
#    0.000    0.000    0.000    0.000    0.000    0.000 
#
# Total GULP energy -178310.745978 kJ/mol
# GULP energy per Si atom -5572.210812 kJ/mol
# Density = 1.855220 g / cm^3
# Si number density = 18.594519 Si / 1000 Ang^3
#
#
#
# Elastic Constant Matrix: (Units=GPa)
#
#
# Indices 1 2 3 4 5 6 
#
# 1 252.1227 94.9774 30.6681 0.0000 0.0000 0.0000
# 2 94.9774 85.3676 15.1003 0.0000 0.0000 0.0000
# 3 30.6681 15.1003 24.6391 0.0000 0.0000 0.0000
# 4 0.0000 0.0000 0.0000 25.4801 0.0000 0.0000
# 5 0.0000 0.0000 0.0000 0.0000 25.2061 0.0000
# 6 0.0000 0.0000 0.0000 0.0000 0.0000 -5.4179
#
#
#
# Elastic Compliance Matrix: (Units=1/GPa)
#
#
# Indices 1 2 3 4 5 6 
#
# 1 0.007262 -0.007269 -0.004584 0.000000 0.000000 0.000000
# 2 -0.007269 0.020414 -0.003463 0.000000 0.000000 0.000000
# 3 -0.004584 -0.003463 0.048415 0.000000 0.000000 0.000000
# 4 0.000000 0.000000 0.000000 0.039246 0.000000 0.000000
# 5 0.000000 0.000000 0.000000 0.000000 0.039673 0.000000
# 6 0.000000 0.000000 0.000000 0.000000 0.000000 -0.184574
#
#
# Mechanical properties :
#
#
# Convention : Reuss Voigt Hill
#
# Bulk Modulus (GPa) = 21.99859 71.51342 46.75601
# Shear Modulus (GPa) = 308.23055 23.81257 166.02156
#
# Velocity S-wave (km/s) = 12.88891 3.58246 9.45934
# Velocity P-wave (km/s) = 15.27597 7.46022 12.02102
#
# Compressibility (1/GPa) = 0.04545745
#
# Stress axis : x y z
#
# Youngs Moduli (GPa) = 137.69914 48.98675 20.65490
#
# Poissons Ratio (x) = 0.35607 0.09469
# Poissons Ratio (y) = 1.00091 0.07153
# Poissons Ratio (z) = 0.63128 0.16965
#
# Static dielectric constant tensor:
#      x y z
#    x 1.715730 0.000000 0.000000 
#    y 0.000000 1.576820 0.000000 
#    z 0.000000 0.000000 1.639800 
# 
# From -- ./inp_files/7548.got.cif
#   From: 2010.05.17/outbox.cif.g08.bks.cpg/sg63_4_cif.got.tgz:7548.got - 2010.06.03 15:47:04.
