data_PCOD9471792
_publ_section_title
;
Structure prediction by ZEFSAII (Michael W. Deem and Ramdas Pophale) SiO2 
 PCOD9471792
Probable space group: C M C M
;
_chemical_formula_sum "Si O2"
_cell_formula_units_Z 112
_cell_length_a 13.594162
_cell_length_b 31.649773
_cell_length_c 14.176115
_cell_angle_alpha 90.000000
_cell_angle_beta 90.000000
_cell_angle_gamma 90.000000
_cell_volume 6099.303836
_symmetry_space_group_name_H-M "C M C M"
_symmetry_group_IT_number 63
_symmetry_cell_setting 'orthorhombic'
loop_
_space_group_symop_operation_xyz
x,y,z
-x,-y,1/2+z
x,-y,-z
-x,y,1/2-z
-x,-y,-z
x,y,1/2-z
-x,y,z
x,-y,1/2+z
1/2+x,1/2+y,z
1/2-x,1/2-y,1/2+z
1/2+x,1/2-y,-z
1/2-x,1/2+y,1/2-z
1/2-x,1/2-y,-z
1/2+x,1/2+y,1/2-z
1/2-x,1/2+y,z
1/2+x,1/2-y,1/2+z
loop_
_atom_site_type_symbol
_atom_site_label
_atom_site_fract_x
_atom_site_fract_y
_atom_site_fract_z
Si Si1 0.678280 0.432872 0.141863
Si Si2 0.791187 0.710329 0.137190
Si Si3 0.614396 0.660686 0.853667
Si Si4 0.115960 0.774291 0.994189
Si Si5 0.888400 0.621837 0.140554
Si Si6 0.695464 0.047670 0.476649
Si Si7 0.608663 0.474453 0.862722
O O1 0.708630 0.436717 0.250000
O O2 0.621471 0.389255 0.131086
O O3 0.616149 0.475001 0.120858
O O4 0.772001 0.432709 0.075421
O O5 0.804615 0.718927 0.250000
O O6 0.863588 0.735633 0.066300
O O7 0.813789 0.660527 0.123195
O O8 0.684154 0.724605 0.098457
O O9 0.658711 0.670178 0.750000
O O10 0.500000 0.672757 0.848843
O O11 0.653708 0.686240 0.942054
O O12 0.000000 0.777388 0.972710
O O13 0.877087 0.609485 0.250000
O O14 0.871703 0.580357 0.078318
O O15 0.000000 0.637822 0.127656
O O16 0.797530 0.043851 0.416746
O O17 0.660052 0.000000 0.500000
O O18 0.617548 0.467255 0.750000
O O19 0.500000 0.459455 0.892529
#
# Coordination Sequence:
#
# PCOD9471792 Si02
#       7
#    16  16  16  16  16  16  16
#     4   9  17  28  43  66  98 134 167 201 248 309
#     4  10  21  37  57  82 112 146 184 223 264 319
#     4   9  16  26  43  68  97 129 167 210 254 305
#     4  10  20  34  55  83 112 142 178 221 268 315
#     4  10  21  38  59  79 101 134 178 226 274 325
#     4  10  20  32  50  73  99 131 173 224 272 318
#     4   9  17  29  45  67  98 134 169 206 254 316
#
# _framework density 18.362750999999999
#
# number of rings (size 3 to 8) (size 9 to 14) (size 15 to 20)
#    0.000    2.429    0.000    2.571    0.000    7.429 
#    0.000    0.714    0.000    1.286    0.000    0.000 
#    0.000    0.000    0.000    0.000    0.000    0.000 
#
# Total GULP energy -311907.553581 kJ/mol
# GULP energy per Si atom -5569.777743 kJ/mol
# Density = 1.832096 g / cm^3
# Si number density = 18.362751 Si / 1000 Ang^3
#
#
#
# Elastic Constant Matrix: (Units=GPa)
#
#
# Indices 1 2 3 4 5 6 
#
# 1 52.6245 16.3671 21.0379 0.0000 0.0000 0.0000
# 2 16.3671 48.2916 22.0188 0.0000 0.0000 0.0000
# 3 21.0379 22.0188 56.0217 0.0000 0.0000 0.0000
# 4 0.0000 0.0000 0.0000 26.6375 0.0000 0.0000
# 5 0.0000 0.0000 0.0000 0.0000 18.8296 0.0000
# 6 0.0000 0.0000 0.0000 0.0000 0.0000 13.0166
#
#
#
# Elastic Compliance Matrix: (Units=1/GPa)
#
#
# Indices 1 2 3 4 5 6 
#
# 1 0.023218 -0.004744 -0.006855 0.000000 0.000000 0.000000
# 2 -0.004744 0.026198 -0.008515 0.000000 0.000000 0.000000
# 3 -0.006855 -0.008515 0.023771 0.000000 0.000000 0.000000
# 4 0.000000 0.000000 0.000000 0.037541 0.000000 0.000000
# 5 0.000000 0.000000 0.000000 0.000000 0.053108 0.000000
# 6 0.000000 0.000000 0.000000 0.000000 0.000000 0.076825
#
#
# Mechanical properties :
#
#
# Convention : Reuss Voigt Hill
#
# Bulk Modulus (GPa) = 30.34004 30.64282 30.49143
# Shear Modulus (GPa) = 17.13056 18.19767 17.66412
#
# Velocity S-wave (km/s) = 3.05765 3.15145 3.10490
# Velocity P-wave (km/s) = 5.38740 5.47411 5.43093
#
# Compressibility (1/GPa) = 0.03295974
#
# Stress axis : x y z
#
# Youngs Moduli (GPa) = 43.06954 38.17088 42.06756
#
# Poissons Ratio (x) = 0.18107 0.28836
# Poissons Ratio (y) = 0.20431 0.35822
# Poissons Ratio (z) = 0.29523 0.32504
#
# Static dielectric constant tensor:
#      x y z
#    x 1.636790 0.000000 0.000000 
#    y 0.000000 1.650370 0.000000 
#    z 0.000000 0.000000 1.674950 
# 
# From -- ./inp_files/32529.got.cif
#   From: 2010.05.17/outbox.cif.g08.bks.cpg/sg63_17_cif.got.tgz:32529.got - 2010.06.03 15:47:04.
