data_PCOD9471845
_publ_section_title
;
Structure prediction by ZEFSAII (Michael W. Deem and Ramdas Pophale) SiO2 
 PCOD9471845
Probable space group: C M C M
;
_chemical_formula_sum "Si O2"
_cell_formula_units_Z 80
_cell_length_a 26.961621
_cell_length_b 20.222607
_cell_length_c 7.699840
_cell_angle_alpha 90.000000
_cell_angle_beta 90.000000
_cell_angle_gamma 90.000000
_cell_volume 4198.216607
_symmetry_space_group_name_H-M "C M C M"
_symmetry_group_IT_number 63
_symmetry_cell_setting 'orthorhombic'
loop_
_space_group_symop_operation_xyz
x,y,z
-x,-y,1/2+z
x,-y,-z
-x,y,1/2-z
-x,-y,-z
x,y,1/2-z
-x,y,z
x,-y,1/2+z
1/2+x,1/2+y,z
1/2-x,1/2-y,1/2+z
1/2+x,1/2-y,-z
1/2-x,1/2+y,1/2-z
1/2-x,1/2-y,-z
1/2+x,1/2+y,1/2-z
1/2-x,1/2+y,z
1/2+x,1/2-y,1/2+z
loop_
_atom_site_type_symbol
_atom_site_label
_atom_site_fract_x
_atom_site_fract_y
_atom_site_fract_z
Si Si1 0.000000 0.333191 0.950382
Si Si2 0.194056 0.575920 0.543672
Si Si3 0.194499 0.076150 0.958883
Si Si4 0.893319 0.675043 0.043123
Si Si5 0.000000 0.172218 0.549201
Si Si6 0.391279 0.674067 0.963820
O O1 0.946399 0.350701 0.028763
O O2 0.000000 0.357033 0.750000
O O3 0.000000 0.252669 0.949593
O O4 0.181820 0.500000 0.500000
O O5 0.196525 0.581312 0.750000
O O6 0.249667 0.589784 0.474048
O O7 0.152065 0.626186 0.484188
O O8 0.195878 0.082527 0.750000
O O9 0.152480 0.126117 0.022846
O O10 0.182722 0.000000 0.000000
O O11 0.900878 0.681413 0.250000
O O12 0.883140 0.749804 0.980746
O O13 0.946441 0.152825 0.475575
O O14 0.000000 0.150349 0.750000
O O15 0.392057 0.673198 0.750000
#
# Coordination Sequence:
#
# PCOD9471845 Si02
#       6
#     8  16  16  16   8  16
#     4   7  12  24  44  69  92 114 142 177 218 265
#     4  10  20  33  47  64  89 121 154 186 223 267
#     4   9  18  32  47  64  90 123 155 186 222 264
#     4   9  16  29  50  72  92 115 146 184 224 266
#     4   7  10  20  41  67  91 116 147 179 214 261
#     4   8  14  26  46  70  93 118 149 184 221 264
#
# _framework density 19.055710000000001
#
# number of rings (size 3 to 8) (size 9 to 14) (size 15 to 20)
#    0.000    3.400    0.000    3.000    0.000    1.600 
#    0.000    2.500    0.000    0.000    0.000    1.400 
#    0.000    0.000    0.000    0.000    0.000    0.000 
#
# Total GULP energy -222703.423678 kJ/mol
# GULP energy per Si atom -5567.585592 kJ/mol
# Density = 1.901234 g / cm^3
# Si number density = 19.055710 Si / 1000 Ang^3
#
#
#
# Elastic Constant Matrix: (Units=GPa)
#
#
# Indices 1 2 3 4 5 6 
#
# 1 212.6287 122.4503 5.0744 0.0000 0.0000 0.0000
# 2 122.4503 93.8285 -0.0322 0.0000 0.0000 0.0000
# 3 5.0744 -0.0322 28.9308 0.0000 0.0000 0.0000
# 4 0.0000 0.0000 0.0000 8.3079 0.0000 0.0000
# 5 0.0000 0.0000 0.0000 0.0000 0.2325 0.0000
# 6 0.0000 0.0000 0.0000 0.0000 0.0000 -31.7664
#
#
#
# Elastic Compliance Matrix: (Units=1/GPa)
#
#
# Indices 1 2 3 4 5 6 
#
# 1 0.019260 -0.025136 -0.003406 0.000000 0.000000 0.000000
# 2 -0.025136 0.043464 0.004457 0.000000 0.000000 0.000000
# 3 -0.003406 0.004457 0.035168 0.000000 0.000000 0.000000
# 4 0.000000 0.000000 0.000000 0.120368 0.000000 0.000000
# 5 0.000000 0.000000 0.000000 0.000000 4.301025 0.000000
# 6 0.000000 0.000000 0.000000 0.000000 0.000000 -0.031480
#
#
# Mechanical properties :
#
#
# Convention : Reuss Voigt Hill
#
# Bulk Modulus (GPa) = 20.11244 65.59699 42.85472
# Shear Modulus (GPa) = 1.09829 9.21448 5.15638
#
# Velocity S-wave (km/s) = 0.76000 2.20137 1.64676
# Velocity P-wave (km/s) = 3.36862 6.39999 5.11407
#
# Compressibility (1/GPa) = 0.04972047
#
# Stress axis : x y z
#
# Youngs Moduli (GPa) = 51.92075 23.00781 28.43522
#
# Poissons Ratio (x) = 0.57834 0.09685
# Poissons Ratio (y) = 1.30511 -0.12674
# Poissons Ratio (z) = 0.17685 -0.10255
#
# Static dielectric constant tensor:
#      x y z
#    x 1.725090 0.000000 0.000000 
#    y 0.000000 1.597860 0.000000 
#    z 0.000000 0.000000 1.703750 
# 
# From -- ./inp_files/12134.got.cif
#   From: 2010.05.17/outbox.cif.g08.bks.cpg/sg63_7_cif.got.tgz:12134.got - 2010.06.03 15:47:04.
