data_PCOD9471122
_publ_section_title
;
Structure prediction by ZEFSAII (Michael W. Deem and Ramdas Pophale) SiO2 
 PCOD9471122
Probable space group: C M C M
;
_chemical_formula_sum "Si O2"
_cell_formula_units_Z 80
_cell_length_a 7.550827
_cell_length_b 16.127664
_cell_length_c 30.070435
_cell_angle_alpha 90.000000
_cell_angle_beta 90.000000
_cell_angle_gamma 90.000000
_cell_volume 3661.893400
_symmetry_space_group_name_H-M "C M C M"
_symmetry_group_IT_number 63
_symmetry_cell_setting 'orthorhombic'
loop_
_space_group_symop_operation_xyz
x,y,z
-x,-y,1/2+z
x,-y,-z
-x,y,1/2-z
-x,-y,-z
x,y,1/2-z
-x,y,z
x,-y,1/2+z
1/2+x,1/2+y,z
1/2-x,1/2-y,1/2+z
1/2+x,1/2-y,-z
1/2-x,1/2+y,1/2-z
1/2-x,1/2-y,-z
1/2+x,1/2+y,1/2-z
1/2-x,1/2+y,z
1/2+x,1/2-y,1/2+z
loop_
_atom_site_type_symbol
_atom_site_label
_atom_site_fract_x
_atom_site_fract_y
_atom_site_fract_z
Si Si1 0.711458 0.788435 0.951977
Si Si2 0.287892 0.626733 0.199721
Si Si3 0.212140 0.786621 0.360050
Si Si4 0.796741 0.021907 0.452495
Si Si5 0.717621 0.530903 0.643425
O O1 0.500000 0.798306 0.948068
O O2 0.773823 0.733270 0.910311
O O3 0.794311 0.879235 0.948068
O O4 0.750000 0.750000 0.000000
O O5 0.219129 0.633128 0.250000
O O6 0.500000 0.618234 0.202241
O O7 0.253782 0.709244 0.171326
O O8 0.221390 0.544767 0.174206
O O9 0.273975 0.876529 0.343416
O O10 0.000000 0.792326 0.362364
O O11 0.000000 0.990579 0.454417
O O12 0.713023 0.000000 0.500000
O O13 0.721510 0.984791 0.407235
O O14 0.500000 0.527525 0.643428
#
# Coordination Sequence:
#
# PCOD9471122 Si02
#       5
#    16  16  16  16  16
#     4  11  22  35  54  83 119 155 196 240 288 347
#     4  10  21  38  60  85 113 148 192 240 291 347
#     4  10  21  38  60  86 115 151 195 240 285 344
#     4  10  19  34  57  82 112 151 194 238 286 342
#     4   9  18  35  58  82 112 150 190 232 283 342
#
# _framework density 21.846622
#
# number of rings (size 3 to 8) (size 9 to 14) (size 15 to 20)
#    0.000    2.000    2.000    1.800    0.000    5.600 
#    0.000    4.000    0.000    0.000    0.000    0.000 
#    0.000    0.000    0.000    0.000    0.000    0.000 
#
# Total GULP energy -223456.896919 kJ/mol
# GULP energy per Si atom -5586.422423 kJ/mol
# Density = 2.179690 g / cm^3
# Si number density = 21.846622 Si / 1000 Ang^3
#
#
#
# Elastic Constant Matrix: (Units=GPa)
#
#
# Indices 1 2 3 4 5 6 
#
# 1 53.5316 -5.0925 4.2284 0.0000 0.0000 0.0000
# 2 -5.0925 193.9733 100.0220 0.0000 0.0000 0.0000
# 3 4.2284 100.0220 180.2048 0.0000 0.0000 0.0000
# 4 0.0000 0.0000 0.0000 28.4531 0.0000 0.0000
# 5 0.0000 0.0000 0.0000 0.0000 -24.4804 0.0000
# 6 0.0000 0.0000 0.0000 0.0000 0.0000 21.9447
#
#
#
# Elastic Compliance Matrix: (Units=1/GPa)
#
#
# Indices 1 2 3 4 5 6 
#
# 1 0.018856 0.001013 -0.001005 0.000000 0.000000 0.000000
# 2 0.001013 0.007277 -0.004063 0.000000 0.000000 0.000000
# 3 -0.001005 -0.004063 0.007828 0.000000 0.000000 0.000000
# 4 0.000000 0.000000 0.000000 0.035146 0.000000 0.000000
# 5 0.000000 0.000000 0.000000 0.000000 -0.040849 0.000000
# 6 0.000000 0.000000 0.000000 0.000000 0.000000 0.045569
#
#
# Mechanical properties :
#
#
# Convention : Reuss Voigt Hill
#
# Bulk Modulus (GPa) = 38.68142 69.55839 54.11990
# Shear Modulus (GPa) = 55.21627 27.08694 41.15161
#
# Velocity S-wave (km/s) = 5.03283 3.52500 4.34482
# Velocity P-wave (km/s) = 7.17752 6.96247 7.07082
#
# Compressibility (1/GPa) = 0.02585220
#
# Stress axis : x y z
#
# Youngs Moduli (GPa) = 53.03270 137.42068 127.74881
#
# Poissons Ratio (x) = -0.13923 0.12836
# Poissons Ratio (y) = -0.05373 0.51902
# Poissons Ratio (z) = 0.05329 0.55831
#
# Static dielectric constant tensor:
#      x y z
#    x 1.926300 0.000000 0.000000 
#    y 0.000000 1.771880 0.000000 
#    z 0.000000 0.000000 1.820260 
# 
# From -- ./inp_files/66634.got.cif
#   From: 2010.05.17/outbox.cif.g08.bks.cpg/sg63_34_cif.got.tgz:66634.got - 2010.06.03 15:47:04.
