data_PCOD9471320
_publ_section_title
;
Structure prediction by ZEFSAII (Michael W. Deem and Ramdas Pophale) SiO2 
 PCOD9471320
Probable space group: C M C M
;
_chemical_formula_sum "Si O2"
_cell_formula_units_Z 96
_cell_length_a 9.090515
_cell_length_b 25.420974
_cell_length_c 24.046189
_cell_angle_alpha 90.000000
_cell_angle_beta 90.000000
_cell_angle_gamma 90.000000
_cell_volume 5556.827695
_symmetry_space_group_name_H-M "C M C M"
_symmetry_group_IT_number 63
_symmetry_cell_setting 'orthorhombic'
loop_
_space_group_symop_operation_xyz
x,y,z
-x,-y,1/2+z
x,-y,-z
-x,y,1/2-z
-x,-y,-z
x,y,1/2-z
-x,y,z
x,-y,1/2+z
1/2+x,1/2+y,z
1/2-x,1/2-y,1/2+z
1/2+x,1/2-y,-z
1/2-x,1/2+y,1/2-z
1/2-x,1/2-y,-z
1/2+x,1/2+y,1/2-z
1/2-x,1/2+y,z
1/2+x,1/2-y,1/2+z
loop_
_atom_site_type_symbol
_atom_site_label
_atom_site_fract_x
_atom_site_fract_y
_atom_site_fract_z
Si Si1 0.324107 0.104959 0.250000
Si Si2 0.176547 0.972594 0.058793
Si Si3 0.324037 0.431347 0.862506
Si Si4 0.175746 0.832555 0.942341
Si Si5 0.676295 0.765498 0.137346
Si Si6 0.675955 0.140469 0.557279
Si Si7 0.823954 0.271022 0.750000
O O1 0.500000 0.101297 0.250000
O O2 0.258690 0.078792 0.305234
O O3 0.283103 0.166941 0.250000
O O4 0.256187 0.917179 0.064600
O O5 0.000000 0.964278 0.058216
O O6 0.212301 0.013854 0.107455
O O7 0.214777 0.000000 0.000000
O O8 0.500000 0.429814 0.852879
O O9 0.290089 0.384102 0.905492
O O10 0.212027 0.781425 0.905870
O O11 0.000000 0.832633 0.953090
O O12 0.260495 0.835697 0.000149
O O13 0.500000 0.763544 0.146690
O O14 0.713716 0.820334 0.107720
O O15 0.758195 0.755058 0.194786
O O16 0.500000 0.137505 0.553484
O O17 0.000000 0.267353 0.750000
#
# Coordination Sequence:
#
# PCOD9471320 Si02
#       7
#     8  16  16  16  16  16   8
#     4  11  23  37  56  87 122 145 178 238 295 334
#     4  10  20  38  60  83 111 148 194 233 272 335
#     4  10  20  36  61  86 110 149 195 229 272 338
#     4  10  19  35  59  84 114 152 188 230 279 336
#     4  10  22  39  58  82 115 154 193 230 282 346
#     4  11  23  36  55  87 120 152 188 232 288 340
#     4  11  23  37  58  87 114 147 190 236 285 338
#
# _framework density 17.276043000000001
#
# number of rings (size 3 to 8) (size 9 to 14) (size 15 to 20)
#    0.000    1.667    3.333    1.500    0.000    4.333 
#    0.000    0.833    0.000    0.000    0.000    0.000 
#    0.000    0.000    0.000    0.000    0.000    0.000 
#
# Total GULP energy -268159.275781 kJ/mol
# GULP energy per Si atom -5586.651579 kJ/mol
# Density = 1.723672 g / cm^3
# Si number density = 17.276043 Si / 1000 Ang^3
#
#
#
# Elastic Constant Matrix: (Units=GPa)
#
#
# Indices 1 2 3 4 5 6 
#
# 1 45.5324 62.0967 73.3606 0.0000 0.0000 0.0000
# 2 62.0967 150.1836 94.7513 0.0000 0.0000 0.0000
# 3 73.3606 94.7513 168.0101 0.0000 0.0000 0.0000
# 4 0.0000 0.0000 0.0000 27.5510 0.0000 0.0000
# 5 0.0000 0.0000 0.0000 0.0000 30.4393 0.0000
# 6 0.0000 0.0000 0.0000 0.0000 0.0000 26.8574
#
#
#
# Elastic Compliance Matrix: (Units=1/GPa)
#
#
# Indices 1 2 3 4 5 6 
#
# 1 0.110368 -0.023642 -0.034858 0.000000 0.000000 0.000000
# 2 -0.023642 0.015400 0.001638 0.000000 0.000000 0.000000
# 3 -0.034858 0.001638 0.020249 0.000000 0.000000 0.000000
# 4 0.000000 0.000000 0.000000 0.036296 0.000000 0.000000
# 5 0.000000 0.000000 0.000000 0.000000 0.032852 0.000000
# 6 0.000000 0.000000 0.000000 0.000000 0.000000 0.037234
#
#
# Mechanical properties :
#
#
# Convention : Reuss Voigt Hill
#
# Bulk Modulus (GPa) = 30.96691 91.57150 61.26921
# Shear Modulus (GPa) = 13.26654 25.87071 19.56862
#
# Velocity S-wave (km/s) = 2.77414 3.87394 3.36922
# Velocity P-wave (km/s) = 5.31270 8.55160 7.11880
#
# Compressibility (1/GPa) = 0.03229253
#
# Stress axis : x y z
#
# Youngs Moduli (GPa) = 9.06064 64.93328 49.38490
#
# Poissons Ratio (x) = 1.53513 1.72148
# Poissons Ratio (y) = 0.21421 -0.08088
# Poissons Ratio (z) = 0.31584 -0.10634
#
# Static dielectric constant tensor:
#      x y z
#    x 1.573230 0.000000 0.000000 
#    y 0.000000 1.575000 0.000000 
#    z 0.000000 0.000000 1.551680 
# 
# From -- ./inp_files/60088.got.cif
#   From: 2010.05.17/outbox.cif.g08.bks.cpg/sg63_31_cif.got.tgz:60088.got - 2010.06.03 15:47:04.
