data_PCOD9471766
_publ_section_title
;
Structure prediction by ZEFSAII (Michael W. Deem and Ramdas Pophale) SiO2 
 PCOD9471766
Probable space group: C M C M
;
_chemical_formula_sum "Si O2"
_cell_formula_units_Z 88
_cell_length_a 15.529011
_cell_length_b 35.918241
_cell_length_c 7.848741
_cell_angle_alpha 90.000000
_cell_angle_beta 90.000000
_cell_angle_gamma 90.000000
_cell_volume 4377.829624
_symmetry_space_group_name_H-M "C M C M"
_symmetry_group_IT_number 63
_symmetry_cell_setting 'orthorhombic'
loop_
_space_group_symop_operation_xyz
x,y,z
-x,-y,1/2+z
x,-y,-z
-x,y,1/2-z
-x,-y,-z
x,y,1/2-z
-x,y,z
x,-y,1/2+z
1/2+x,1/2+y,z
1/2-x,1/2-y,1/2+z
1/2+x,1/2-y,-z
1/2-x,1/2+y,1/2-z
1/2-x,1/2-y,-z
1/2+x,1/2+y,1/2-z
1/2-x,1/2+y,z
1/2+x,1/2-y,1/2+z
loop_
_atom_site_type_symbol
_atom_site_label
_atom_site_fract_x
_atom_site_fract_y
_atom_site_fract_z
Si Si1 0.104668 0.252450 0.053629
Si Si2 0.742777 0.382854 0.045956
Si Si3 0.902856 0.171429 0.951664
Si Si4 0.098766 0.334455 0.040876
Si Si5 0.812735 0.543028 0.452637
Si Si6 0.500000 0.956332 0.545259
O O1 0.131896 0.250919 0.250000
O O2 0.128100 0.293045 0.983588
O O3 0.000000 0.252884 0.048124
O O4 0.131541 0.213647 0.971321
O O5 0.743346 0.378403 0.250000
O O6 0.662723 0.359048 0.977548
O O7 0.831496 0.364225 0.982156
O O8 0.743956 0.426562 0.008848
O O9 0.909899 0.164832 0.750000
O O10 0.000000 0.169548 0.024349
O O11 0.097326 0.333524 0.250000
O O12 0.000000 0.341754 0.986917
O O13 0.797482 0.500000 0.500000
O O14 0.817888 0.544028 0.250000
O O15 0.907043 0.556122 0.522828
O O16 0.500000 0.951287 0.750000
O O17 0.500000 0.000000 0.500000
#
# Coordination Sequence:
#
# PCOD9471766 Si02
#       6
#    16  16  16  16  16   8
#     4   8  14  27  47  67  90 125 167 205 241 285
#     4  10  20  32  49  73  97 128 166 202 244 291
#     4   9  18  32  48  68  97 129 163 206 252 292
#     4   8  15  28  45  68  98 129 161 199 241 287
#     4  10  20  35  53  74 101 130 160 195 235 285
#     4   8  16  30  48  70  96 126 156 184 220 270
#
# _framework density 20.101285000000001
#
# number of rings (size 3 to 8) (size 9 to 14) (size 15 to 20)
#    0.000    3.091    0.000    1.636    1.273    2.182 
#    0.000    0.909    0.000    1.636    0.000    0.000 
#    0.000    0.000    0.000    0.000    0.000    0.000 
#
# Total GULP energy -245161.518761 kJ/mol
# GULP energy per Si atom -5571.852699 kJ/mol
# Density = 2.005553 g / cm^3
# Si number density = 20.101285 Si / 1000 Ang^3
#
#
#
# Elastic Constant Matrix: (Units=GPa)
#
#
# Indices 1 2 3 4 5 6 
#
# 1 61.6543 62.6008 7.3010 0.0000 0.0000 0.0000
# 2 62.6008 134.7096 -1.9771 0.0000 0.0000 0.0000
# 3 7.3010 -1.9771 20.1000 0.0000 0.0000 0.0000
# 4 0.0000 0.0000 0.0000 17.7003 0.0000 0.0000
# 5 0.0000 0.0000 0.0000 0.0000 3.5349 0.0000
# 6 0.0000 0.0000 0.0000 0.0000 0.0000 29.8924
#
#
#
# Elastic Compliance Matrix: (Units=1/GPa)
#
#
# Indices 1 2 3 4 5 6 
#
# 1 0.034250 -0.016122 -0.014027 0.000000 0.000000 0.000000
# 2 -0.016122 0.015023 0.007334 0.000000 0.000000 0.000000
# 3 -0.014027 0.007334 0.055568 0.000000 0.000000 0.000000
# 4 0.000000 0.000000 0.000000 0.056496 0.000000 0.000000
# 5 0.000000 0.000000 0.000000 0.000000 0.282890 0.000000
# 6 0.000000 0.000000 0.000000 0.000000 0.000000 0.033453
#
#
# Mechanical properties :
#
#
# Convention : Reuss Voigt Hill
#
# Bulk Modulus (GPa) = 16.88879 39.14593 28.01736
# Shear Modulus (GPa) = 9.20730 20.12815 14.66772
#
# Velocity S-wave (km/s) = 2.14252 3.16782 2.70421
# Velocity P-wave (km/s) = 3.81322 5.73557 4.87018
#
# Compressibility (1/GPa) = 0.05921088
#
# Stress axis : x y z
#
# Youngs Moduli (GPa) = 29.19680 66.56364 17.99606
#
# Poissons Ratio (x) = 1.07316 0.25243
# Poissons Ratio (y) = 0.47072 -0.13198
# Poissons Ratio (z) = 0.40954 -0.48818
#
# Static dielectric constant tensor:
#      x y z
#    x 1.758170 0.000000 0.000000 
#    y 0.000000 1.708110 0.000000 
#    z 0.000000 0.000000 1.720820 
# 
# From -- ./inp_files/6806.got.cif
#   From: 2010.05.17/outbox.cif.g08.bks.cpg/sg63_4_cif.got.tgz:6806.got - 2010.06.03 15:47:04.
