data_PCOD9471559
_publ_section_title
;
Structure prediction by ZEFSAII (Michael W. Deem and Ramdas Pophale) SiO2 
 PCOD9471559
Probable space group: C M C M
;
_chemical_formula_sum "Si O2"
_cell_formula_units_Z 92
_cell_length_a 14.529468
_cell_length_b 14.038906
_cell_length_c 23.828662
_cell_angle_alpha 90.000000
_cell_angle_beta 90.000000
_cell_angle_gamma 90.000000
_cell_volume 4860.518897
_symmetry_space_group_name_H-M "C M C M"
_symmetry_group_IT_number 63
_symmetry_cell_setting 'orthorhombic'
loop_
_space_group_symop_operation_xyz
x,y,z
-x,-y,1/2+z
x,-y,-z
-x,y,1/2-z
-x,-y,-z
x,y,1/2-z
-x,y,z
x,-y,1/2+z
1/2+x,1/2+y,z
1/2-x,1/2-y,1/2+z
1/2+x,1/2-y,-z
1/2-x,1/2+y,1/2-z
1/2-x,1/2-y,-z
1/2+x,1/2+y,1/2-z
1/2-x,1/2+y,z
1/2+x,1/2-y,1/2+z
loop_
_atom_site_type_symbol
_atom_site_label
_atom_site_fract_x
_atom_site_fract_y
_atom_site_fract_z
Si Si1 0.607098 0.883501 0.627922
Si Si2 0.305630 0.547338 0.750000
Si Si3 0.605600 0.362905 0.872964
Si Si4 0.362006 0.205074 0.250000
Si Si5 0.759629 0.958314 0.126943
Si Si6 0.500000 0.384516 0.250000
Si Si7 0.242806 0.760233 0.433574
Si Si8 0.666796 0.335220 0.750000
O O1 0.500000 0.894055 0.613160
O O2 0.614219 0.850177 0.692813
O O3 0.666881 0.979532 0.620689
O O4 0.658215 0.801407 0.591884
O O5 0.269401 0.582033 0.809892
O O6 0.416776 0.538227 0.750000
O O7 0.277969 0.435647 0.750000
O O8 0.500000 0.368977 0.890407
O O9 0.657534 0.464717 0.879315
O O10 0.665933 0.286842 0.906852
O O11 0.612602 0.332030 0.807764
O O12 0.420169 0.301787 0.250000
O O13 0.254646 0.233094 0.250000
O O14 0.765721 0.869814 0.085209
O O15 0.250000 0.750000 0.500000
#
# Coordination Sequence:
#
# PCOD9471559 Si02
#       8
#    16   8  16   8  16   4  16   8
#     4  11  22  40  63  93 122 163 202 255 318 378
#     4  10  20  34  56  96 123 151 189 245 304 376
#     4  10  22  39  63  90 123 158 198 248 316 373
#     4  12  18  37  56  95 128 154 186 251 307 376
#     4  10  22  39  62  89 124 157 199 249 314 372
#     4  12  24  24  62  94 126 160 206 232 298 370
#     4  11  25  43  61  86 122 164 216 266 303 355
#     4  10  19  38  57  86 131 156 181 240 317 372
#
# _framework density 18.92802
#
# number of rings (size 3 to 8) (size 9 to 14) (size 15 to 20)
#    0.000    1.391    6.087    1.304    4.870    4.870 
#    0.000    1.739    0.000    2.087    0.000    0.000 
#    0.000    0.000    0.000    0.000    0.000    0.000 
#
# Total GULP energy -256234.225531 kJ/mol
# GULP energy per Si atom -5570.309251 kJ/mol
# Density = 1.888494 g / cm^3
# Si number density = 18.928020 Si / 1000 Ang^3
#
#
#
# Elastic Constant Matrix: (Units=GPa)
#
#
# Indices 1 2 3 4 5 6 
#
# 1 185.2834 60.7277 37.8636 0.0000 0.0000 0.0000
# 2 60.7277 94.3779 39.3423 0.0000 0.0000 0.0000
# 3 37.8636 39.3423 118.9303 0.0000 0.0000 0.0000
# 4 0.0000 0.0000 0.0000 14.2733 0.0000 0.0000
# 5 0.0000 0.0000 0.0000 0.0000 4.6673 0.0000
# 6 0.0000 0.0000 0.0000 0.0000 0.0000 15.4862
#
#
#
# Elastic Compliance Matrix: (Units=1/GPa)
#
#
# Indices 1 2 3 4 5 6 
#
# 1 0.006912 -0.004095 -0.000846 0.000000 0.000000 0.000000
# 2 -0.004095 0.014717 -0.003565 0.000000 0.000000 0.000000
# 3 -0.000846 -0.003565 0.009857 0.000000 0.000000 0.000000
# 4 0.000000 0.000000 0.000000 0.070061 0.000000 0.000000
# 5 0.000000 0.000000 0.000000 0.000000 0.214255 0.000000
# 6 0.000000 0.000000 0.000000 0.000000 0.000000 0.064574
#
#
# Mechanical properties :
#
#
# Convention : Reuss Voigt Hill
#
# Bulk Modulus (GPa) = 69.08721 74.93986 72.01354
# Shear Modulus (GPa) = 12.43131 24.26259 18.34695
#
# Velocity S-wave (km/s) = 2.56553 3.58416 3.11674
# Velocity P-wave (km/s) = 6.73462 7.53699 7.14707
#
# Compressibility (1/GPa) = 0.01447446
#
# Stress axis : x y z
#
# Youngs Moduli (GPa) = 144.67218 67.95074 101.45314
#
# Poissons Ratio (x) = 0.27826 0.08583
# Poissons Ratio (y) = 0.59243 0.36163
# Poissons Ratio (z) = 0.12239 0.24221
#
# Static dielectric constant tensor:
#      x y z
#    x 1.779090 0.000000 0.000000 
#    y 0.000000 1.680870 0.000000 
#    z 0.000000 0.000000 1.682950 
# 
# From -- ./inp_files/54294.got.cif
#   From: 2010.05.17/outbox.cif.g08.bks.cpg/sg63_28_cif.got.tgz:54294.got - 2010.06.03 15:47:04.
