data_PCOD9471730
_publ_section_title
;
Structure prediction by ZEFSAII (Michael W. Deem and Ramdas Pophale) SiO2 
 PCOD9471730
Probable space group: C M C M
;
_chemical_formula_sum "Si O2"
_cell_formula_units_Z 96
_cell_length_a 9.508386
_cell_length_b 25.828339
_cell_length_c 20.451111
_cell_angle_alpha 90.000000
_cell_angle_beta 90.000000
_cell_angle_gamma 90.000000
_cell_volume 5022.502802
_symmetry_space_group_name_H-M "C M C M"
_symmetry_group_IT_number 63
_symmetry_cell_setting 'orthorhombic'
loop_
_space_group_symop_operation_xyz
x,y,z
-x,-y,1/2+z
x,-y,-z
-x,y,1/2-z
-x,-y,-z
x,y,1/2-z
-x,y,z
x,-y,1/2+z
1/2+x,1/2+y,z
1/2-x,1/2-y,1/2+z
1/2+x,1/2-y,-z
1/2-x,1/2+y,1/2-z
1/2-x,1/2-y,-z
1/2+x,1/2+y,1/2-z
1/2-x,1/2+y,z
1/2+x,1/2-y,1/2+z
loop_
_atom_site_type_symbol
_atom_site_label
_atom_site_fract_x
_atom_site_fract_y
_atom_site_fract_z
Si Si1 0.656470 0.069407 0.672953
Si Si2 0.831937 0.002363 0.397729
Si Si3 0.669457 0.586734 0.004274
Si Si4 0.165542 0.768524 0.675063
Si Si5 0.342442 0.665035 0.671577
Si Si6 0.831623 0.799110 0.530558
O O1 0.643005 0.078350 0.750000
O O2 0.500000 0.068280 0.644027
O O3 0.761103 0.218359 0.662401
O O4 0.740320 0.016367 0.662425
O O5 0.796591 0.956882 0.450408
O O6 0.750084 0.882802 0.352122
O O7 0.000000 0.000710 0.386160
O O8 0.793419 0.057577 0.428045
O O9 0.500000 0.589882 0.003341
O O10 0.718826 0.645863 0.001095
O O11 0.195727 0.787564 0.750000
O O12 0.186825 0.802401 0.609781
O O13 0.000000 0.753921 0.675251
O O14 0.355689 0.659149 0.750000
O O15 0.500000 0.664689 0.643383
O O16 0.750000 0.750000 0.500000
O O17 0.000000 0.792698 0.519098
#
# Coordination Sequence:
#
# PCOD9471730 Si02
#       6
#    16  16  16  16  16  16
#     4  10  20  32  47  73 109 140 168 211 265 313
#     4   9  17  33  57  77  98 135 177 217 260 310
#     4   8  17  35  55  76 103 134 172 219 267 306
#     4   9  18  33  51  72 103 141 176 213 264 322
#     4   9  17  29  47  71  99 133 174 215 254 305
#     4  10  21  36  54  79 110 142 178 222 269 319
#
# _framework density 19.113976000000001
#
# number of rings (size 3 to 8) (size 9 to 14) (size 15 to 20)
#    0.000    2.833    0.000    2.000    2.333    3.667 
#    0.000    3.333    0.000    3.000    0.000    2.333 
#    0.000    0.000    0.000    0.000    0.000    0.000 
#
# Total GULP energy -267202.510405 kJ/mol
# GULP energy per Si atom -5566.718967 kJ/mol
# Density = 1.907047 g / cm^3
# Si number density = 19.113976 Si / 1000 Ang^3
#
#
#
# Elastic Constant Matrix: (Units=GPa)
#
#
# Indices 1 2 3 4 5 6 
#
# 1 52.1635 24.6546 16.4304 0.0000 0.0000 0.0000
# 2 24.6546 103.0500 22.3810 0.0000 0.0000 0.0000
# 3 16.4304 22.3810 63.9547 0.0000 0.0000 0.0000
# 4 0.0000 0.0000 0.0000 32.4624 0.0000 0.0000
# 5 0.0000 0.0000 0.0000 0.0000 16.5376 0.0000
# 6 0.0000 0.0000 0.0000 0.0000 0.0000 -5.6066
#
#
#
# Elastic Compliance Matrix: (Units=1/GPa)
#
#
# Indices 1 2 3 4 5 6 
#
# 1 0.022630 -0.004493 -0.004241 0.000000 0.000000 0.000000
# 2 -0.004493 0.011394 -0.002833 0.000000 0.000000 0.000000
# 3 -0.004241 -0.002833 0.017717 0.000000 0.000000 0.000000
# 4 0.000000 0.000000 0.000000 0.030805 0.000000 0.000000
# 5 0.000000 0.000000 0.000000 0.000000 0.060468 0.000000
# 6 0.000000 0.000000 0.000000 0.000000 0.000000 -0.178362
#
#
# Mechanical properties :
#
#
# Convention : Reuss Voigt Hill
#
# Bulk Modulus (GPa) = 34.95740 38.45557 36.70648
# Shear Modulus (GPa) = -1868.25347 19.05884 -924.59732
#
# Velocity S-wave (km/s) = -31.29776 3.16114 -22.01769
# Velocity P-wave (km/s) = 35.88506 5.78675 25.04248
#
# Compressibility (1/GPa) = 0.02860625
#
# Stress axis : x y z
#
# Youngs Moduli (GPa) = 44.18898 87.76316 56.44236
#
# Poissons Ratio (x) = 0.39432 0.23940
# Poissons Ratio (y) = 0.19854 0.15991
# Poissons Ratio (z) = 0.18743 0.24865
#
# Static dielectric constant tensor:
#      x y z
#    x 1.664860 0.000000 0.000000 
#    y 0.000000 1.658970 0.000000 
#    z 0.000000 0.000000 1.799250 
# 
# From -- ./inp_files/53029.got.cif
#   From: 2010.05.17/outbox.cif.g08.bks.cpg/sg63_27_cif.got.tgz:53029.got - 2010.06.03 15:47:04.
