data_PCOD9471498
_publ_section_title
;
Structure prediction by ZEFSAII (Michael W. Deem and Ramdas Pophale) SiO2 
 PCOD9471498
Probable space group: C M C M
;
_chemical_formula_sum "Si O2"
_cell_formula_units_Z 112
_cell_length_a 30.638947
_cell_length_b 12.128960
_cell_length_c 15.160338
_cell_angle_alpha 90.000000
_cell_angle_beta 90.000000
_cell_angle_gamma 90.000000
_cell_volume 5633.863016
_symmetry_space_group_name_H-M "C M C M"
_symmetry_group_IT_number 63
_symmetry_cell_setting 'orthorhombic'
loop_
_space_group_symop_operation_xyz
x,y,z
-x,-y,1/2+z
x,-y,-z
-x,y,1/2-z
-x,-y,-z
x,y,1/2-z
-x,y,z
x,-y,1/2+z
1/2+x,1/2+y,z
1/2-x,1/2-y,1/2+z
1/2+x,1/2-y,-z
1/2-x,1/2+y,1/2-z
1/2-x,1/2-y,-z
1/2+x,1/2+y,1/2-z
1/2-x,1/2+y,z
1/2+x,1/2-y,1/2+z
loop_
_atom_site_type_symbol
_atom_site_label
_atom_site_fract_x
_atom_site_fract_y
_atom_site_fract_z
Si Si1 0.376244 0.275292 0.651706
Si Si2 0.914715 0.009744 0.905123
Si Si3 0.685559 0.154716 0.151999
Si Si4 0.051375 0.235286 0.652528
Si Si5 0.390750 0.877095 0.518569
Si Si6 0.181183 0.107271 0.907457
Si Si7 0.713969 0.622270 0.106205
O O1 0.386992 0.234671 0.750000
O O2 0.403271 0.389702 0.634333
O O3 0.384012 0.189909 0.572400
O O4 0.324794 0.306725 0.648304
O O5 0.939544 0.103897 0.851842
O O6 0.867664 0.065711 0.924006
O O7 0.937350 0.000000 0.000000
O O8 0.677050 0.109075 0.250000
O O9 0.654221 0.109444 0.075003
O O10 0.677408 0.285405 0.150323
O O11 0.736603 0.146829 0.128993
O O12 0.065017 0.274152 0.750000
O O13 0.078141 0.301856 0.579325
O O14 0.000000 0.253822 0.641296
O O15 0.407747 0.000000 0.500000
O O16 0.205819 0.004179 0.866385
O O17 0.204361 0.131397 0.001085
#
# Coordination Sequence:
#
# PCOD9471498 Si02
#       7
#    16  16  16  16  16  16  16
#     4  11  22  39  63  95 131 170 215 260 315 382
#     4  11  17  39  68  99 128 168 200 250 330 388
#     4  12  24  37  59  88 122 165 217 270 316 372
#     4  11  24  44  73 104 130 160 208 265 322 392
#     4  12  27  45  65  87 126 176 218 269 322 377
#     4  10  19  36  63  83 122 168 208 253 314 375
#     4  10  20  36  57  88 123 168 212 258 319 373
#
# _framework density 19.879788000000001
#
# number of rings (size 3 to 8) (size 9 to 14) (size 15 to 20)
#    0.000    1.000    7.143    1.714    2.000    4.571 
#    0.000    0.000    0.000    0.429    0.000    0.000 
#    0.000    0.000    0.000    0.000    0.000    0.000 
#
# Total GULP energy -312591.396313 kJ/mol
# GULP energy per Si atom -5581.989220 kJ/mol
# Density = 1.983454 g / cm^3
# Si number density = 19.879788 Si / 1000 Ang^3
#
#
#
# Elastic Constant Matrix: (Units=GPa)
#
#
# Indices 1 2 3 4 5 6 
#
# 1 47.6442 18.5264 34.7517 0.0000 0.0000 0.0000
# 2 18.5264 81.0160 36.7590 0.0000 0.0000 0.0000
# 3 34.7517 36.7590 157.1794 0.0000 0.0000 0.0000
# 4 0.0000 0.0000 0.0000 2.7298 0.0000 0.0000
# 5 0.0000 0.0000 0.0000 0.0000 -19.7967 0.0000
# 6 0.0000 0.0000 0.0000 0.0000 0.0000 12.7719
#
#
#
# Elastic Compliance Matrix: (Units=1/GPa)
#
#
# Indices 1 2 3 4 5 6 
#
# 1 0.025996 -0.003733 -0.004875 0.000000 0.000000 0.000000
# 2 -0.003733 0.014345 -0.002529 0.000000 0.000000 0.000000
# 3 -0.004875 -0.002529 0.008031 0.000000 0.000000 0.000000
# 4 0.000000 0.000000 0.000000 0.366329 0.000000 0.000000
# 5 0.000000 0.000000 0.000000 0.000000 -0.050513 0.000000
# 6 0.000000 0.000000 0.000000 0.000000 0.000000 0.078297
#
#
# Mechanical properties :
#
#
# Convention : Reuss Voigt Hill
#
# Bulk Modulus (GPa) = 38.31686 51.76819 45.04253
# Shear Modulus (GPa) = 10.56061 12.19448 11.37754
#
# Velocity S-wave (km/s) = 2.30733 2.47940 2.39491
# Velocity P-wave (km/s) = 5.13950 5.85608 5.50946
#
# Compressibility (1/GPa) = 0.02609817
#
# Stress axis : x y z
#
# Youngs Moduli (GPa) = 38.46744 69.71305 124.51064
#
# Poissons Ratio (x) = 0.26023 0.60694
# Poissons Ratio (y) = 0.14360 0.31493
# Poissons Ratio (z) = 0.18751 0.17633
#
# Static dielectric constant tensor:
#      x y z
#    x 1.711390 0.000000 0.000000 
#    y 0.000000 1.720800 0.000000 
#    z 0.000000 0.000000 1.820590 
# 
# From -- ./inp_files/38543.got.cif
#   From: 2010.05.17/outbox.cif.g08.bks.cpg/sg63_20_cif.got.tgz:38543.got - 2010.06.03 15:47:04.
