data_PCOD9471945
_publ_section_title
;
Structure prediction by ZEFSAII (Michael W. Deem and Ramdas Pophale) SiO2 
 PCOD9471945
Probable space group: C M C M
;
_chemical_formula_sum "Si O2"
_cell_formula_units_Z 104
_cell_length_a 21.864587
_cell_length_b 28.874196
_cell_length_c 8.544590
_cell_angle_alpha 90.000000
_cell_angle_beta 90.000000
_cell_angle_gamma 90.000000
_cell_volume 5394.390814
_symmetry_space_group_name_H-M "C M C M"
_symmetry_group_IT_number 63
_symmetry_cell_setting 'orthorhombic'
loop_
_space_group_symop_operation_xyz
x,y,z
-x,-y,1/2+z
x,-y,-z
-x,y,1/2-z
-x,-y,-z
x,y,1/2-z
-x,y,z
x,-y,1/2+z
1/2+x,1/2+y,z
1/2-x,1/2-y,1/2+z
1/2+x,1/2-y,-z
1/2-x,1/2+y,1/2-z
1/2-x,1/2-y,-z
1/2+x,1/2+y,1/2-z
1/2-x,1/2+y,z
1/2+x,1/2-y,1/2+z
loop_
_atom_site_type_symbol
_atom_site_label
_atom_site_fract_x
_atom_site_fract_y
_atom_site_fract_z
Si Si1 0.000000 0.448288 0.938747
Si Si2 0.929758 0.310304 0.438666
Si Si3 0.572826 0.452180 0.428202
Si Si4 0.349185 0.620836 0.431472
Si Si5 0.569829 0.703077 0.059261
Si Si6 0.125085 0.399655 0.937310
Si Si7 0.753580 0.552183 0.564538
O O1 0.061741 0.423157 0.991380
O O2 0.000000 0.447970 0.750000
O O3 0.000000 0.500000 0.000000
O O4 0.927519 0.313384 0.250000
O O5 0.919194 0.256698 0.482074
O O6 0.882254 0.346443 0.510119
O O7 0.000000 0.321496 0.487731
O O8 0.596591 0.500000 0.500000
O O9 0.595331 0.444972 0.250000
O O10 0.500000 0.454868 0.420625
O O11 0.592220 0.411962 0.544175
O O12 0.332665 0.626388 0.250000
O O13 0.375430 0.669546 0.495315
O O14 0.296281 0.590566 0.511692
O O15 0.569230 0.700163 0.250000
O O16 0.500000 0.690636 0.007806
O O17 0.129054 0.401851 0.750000
O O18 0.181687 0.427526 0.007181
O O19 0.743549 0.500000 0.500000
O O20 0.753126 0.548810 0.750000
#
# Coordination Sequence:
#
# PCOD9471945 Si02
#       7
#     8  16  16  16  16  16  16
#     4  10  22  36  56  86 120 148 180 228 281 340
#     4   9  17  33  59  90 121 155 192 233 285 345
#     4  10  20  33  50  75 107 142 184 236 291 348
#     4  11  21  36  58  82 111 151 195 242 293 345
#     4   8  16  32  57  89 121 152 193 242 291 343
#     4  11  22  39  60  88 120 153 191 235 288 345
#     4  12  26  44  62  83 113 153 198 242 290 349
#
# _framework density 19.279285999999999
#
# number of rings (size 3 to 8) (size 9 to 14) (size 15 to 20)
#    0.000    1.846    0.769    5.077    0.000    4.000 
#    0.000    2.308    0.000    1.846    0.000    0.000 
#    0.000    0.000    0.000    0.000    0.000    0.000 
#
# Total GULP energy -290109.187545 kJ/mol
# GULP energy per Si atom -5579.022837 kJ/mol
# Density = 1.923541 g / cm^3
# Si number density = 19.279286 Si / 1000 Ang^3
#
#
#
# Elastic Constant Matrix: (Units=GPa)
#
#
# Indices 1 2 3 4 5 6 
#
# 1 118.1062 71.9291 38.9234 0.0000 0.0000 0.0000
# 2 71.9291 131.0287 26.6794 0.0000 0.0000 0.0000
# 3 38.9234 26.6794 55.2181 0.0000 0.0000 0.0000
# 4 0.0000 0.0000 0.0000 19.3400 0.0000 0.0000
# 5 0.0000 0.0000 0.0000 0.0000 22.2987 0.0000
# 6 0.0000 0.0000 0.0000 0.0000 0.0000 -73.1973
#
#
#
# Elastic Compliance Matrix: (Units=1/GPa)
#
#
# Indices 1 2 3 4 5 6 
#
# 1 0.014974 -0.006733 -0.007302 0.000000 0.000000 0.000000
# 2 -0.006733 0.011492 -0.000806 0.000000 0.000000 0.000000
# 3 -0.007302 -0.000806 0.023647 0.000000 0.000000 0.000000
# 4 0.000000 0.000000 0.000000 0.051706 0.000000 0.000000
# 5 0.000000 0.000000 0.000000 0.000000 0.044846 0.000000
# 6 0.000000 0.000000 0.000000 0.000000 0.000000 -0.013662
#
#
# Mechanical properties :
#
#
# Convention : Reuss Voigt Hill
#
# Bulk Modulus (GPa) = 48.94776 64.37964 56.66370
# Shear Modulus (GPa) = 29.49899 4.80967 17.15433
#
# Velocity S-wave (km/s) = 3.91588 1.58119 2.98615
# Velocity P-wave (km/s) = 6.77417 6.06623 6.42995
#
# Compressibility (1/GPa) = 0.02042994
#
# Stress axis : x y z
#
# Youngs Moduli (GPa) = 66.78148 87.01370 42.28893
#
# Poissons Ratio (x) = 0.58590 0.30880
# Poissons Ratio (y) = 0.44967 0.03410
# Poissons Ratio (z) = 0.48764 0.07016
#
# Static dielectric constant tensor:
#      x y z
#    x 1.691890 0.000000 0.000000 
#    y 0.000000 1.687900 0.000000 
#    z 0.000000 0.000000 1.666650 
# 
# From -- ./inp_files/8750.got.cif
#   From: 2010.05.17/outbox.cif.g08.bks.cpg/sg63_5_cif.got.tgz:8750.got - 2010.06.03 15:47:04.
