data_PCOD9471657
_publ_section_title
;
Structure prediction by ZEFSAII (Michael W. Deem and Ramdas Pophale) SiO2 
 PCOD9471657
Probable space group: C M C M
;
_chemical_formula_sum "Si O2"
_cell_formula_units_Z 112
_cell_length_a 14.123006
_cell_length_b 29.314446
_cell_length_c 14.625132
_cell_angle_alpha 90.000000
_cell_angle_beta 90.000000
_cell_angle_gamma 90.000000
_cell_volume 6054.923064
_symmetry_space_group_name_H-M "C M C M"
_symmetry_group_IT_number 63
_symmetry_cell_setting 'orthorhombic'
loop_
_space_group_symop_operation_xyz
x,y,z
-x,-y,1/2+z
x,-y,-z
-x,y,1/2-z
-x,-y,-z
x,y,1/2-z
-x,y,z
x,-y,1/2+z
1/2+x,1/2+y,z
1/2-x,1/2-y,1/2+z
1/2+x,1/2-y,-z
1/2-x,1/2+y,1/2-z
1/2-x,1/2-y,-z
1/2+x,1/2+y,1/2-z
1/2-x,1/2+y,z
1/2+x,1/2-y,1/2+z
loop_
_atom_site_type_symbol
_atom_site_label
_atom_site_fract_x
_atom_site_fract_y
_atom_site_fract_z
Si Si1 0.386485 0.696680 0.358093
Si Si2 0.895182 0.478676 0.140291
Si Si3 0.802973 0.978365 0.857841
Si Si4 0.114612 0.298367 0.353602
Si Si5 0.391842 0.885946 0.024757
Si Si6 0.612546 0.578010 0.644916
Si Si7 0.695804 0.610634 0.038616
O O1 0.366066 0.690960 0.250000
O O2 0.500000 0.694719 0.368634
O O3 0.353885 0.747926 0.384107
O O4 0.342471 0.656199 0.415993
O O5 0.890125 0.472098 0.250000
O O6 0.804838 0.508716 0.113828
O O7 0.888170 0.429889 0.091134
O O8 0.000000 0.498109 0.118578
O O9 0.802710 0.967596 0.750000
O O10 0.841145 0.935262 0.912682
O O11 0.861845 0.024790 0.870546
O O12 0.148802 0.306651 0.250000
O O13 0.134454 0.340425 0.418988
O O14 0.000000 0.296145 0.348703
O O15 0.500000 0.882068 0.991453
O O16 0.309260 0.890959 0.951767
O O17 0.641151 0.588530 0.750000
O O18 0.500000 0.584658 0.636740
O O19 0.666497 0.606347 0.567486
#
# Coordination Sequence:
#
# PCOD9471657 Si02
#       7
#    16  16  16  16  16  16  16
#     4   9  19  36  57  81 106 133 174 226 272 317
#     4   9  17  31  51  74 102 135 173 216 259 304
#     4  10  21  36  51  73 103 137 179 220 259 309
#     4   8  15  31  54  78 105 135 171 222 275 315
#     4  10  20  31  49  78 108 139 176 216 264 316
#     4  10  22  38  53  72 102 138 177 221 266 316
#     4  12  22  33  54  79 107 142 176 216 267 319
#
# _framework density 18.497343999999998
#
# number of rings (size 3 to 8) (size 9 to 14) (size 15 to 20)
#    0.000    2.286    1.429    2.571    0.000    5.143 
#    0.000    2.857    0.000    1.286    0.000    0.000 
#    0.000    4.571    0.000    0.000    0.000    0.000 
#
# Total GULP energy -312447.083735 kJ/mol
# GULP energy per Si atom -5579.412210 kJ/mol
# Density = 1.845524 g / cm^3
# Si number density = 18.497344 Si / 1000 Ang^3
#
#
#
# Elastic Constant Matrix: (Units=GPa)
#
#
# Indices 1 2 3 4 5 6 
#
# 1 44.7519 10.8720 13.5448 0.0000 0.0000 0.0000
# 2 10.8720 83.9730 30.3986 0.0000 0.0000 0.0000
# 3 13.5448 30.3986 43.6970 0.0000 0.0000 0.0000
# 4 0.0000 0.0000 0.0000 18.6631 0.0000 0.0000
# 5 0.0000 0.0000 0.0000 0.0000 16.6037 0.0000
# 6 0.0000 0.0000 0.0000 0.0000 0.0000 22.7948
#
#
#
# Elastic Compliance Matrix: (Units=1/GPa)
#
#
# Indices 1 2 3 4 5 6 
#
# 1 0.024679 -0.000569 -0.007254 0.000000 0.000000 0.000000
# 2 -0.000569 0.015930 -0.010906 0.000000 0.000000 0.000000
# 3 -0.007254 -0.010906 0.032720 0.000000 0.000000 0.000000
# 4 0.000000 0.000000 0.000000 0.053582 0.000000 0.000000
# 5 0.000000 0.000000 0.000000 0.000000 0.060227 0.000000
# 6 0.000000 0.000000 0.000000 0.000000 0.000000 0.043870
#
#
# Mechanical properties :
#
#
# Convention : Reuss Voigt Hill
#
# Bulk Modulus (GPa) = 27.87694 31.33918 29.60806
# Shear Modulus (GPa) = 17.83020 19.45275 18.64147
#
# Velocity S-wave (km/s) = 3.10809 3.24643 3.17802
# Velocity P-wave (km/s) = 5.28998 5.57062 5.43211
#
# Compressibility (1/GPa) = 0.03587194
#
# Stress axis : x y z
#
# Youngs Moduli (GPa) = 40.51993 62.77393 30.56231
#
# Poissons Ratio (x) = 0.03574 0.22169
# Poissons Ratio (y) = 0.02307 0.33330
# Poissons Ratio (z) = 0.29392 0.68459
#
# Static dielectric constant tensor:
#      x y z
#    x 1.656660 0.000000 0.000000 
#    y 0.000000 1.631400 0.000000 
#    z 0.000000 0.000000 1.642180 
# 
# From -- ./inp_files/32752.got.cif
#   From: 2010.05.17/outbox.cif.g08.bks.cpg/sg63_17_cif.got.tgz:32752.got - 2010.06.03 15:47:04.
