data_PCOD9471304
_publ_section_title
;
Structure prediction by ZEFSAII (Michael W. Deem and Ramdas Pophale) SiO2 
 PCOD9471304
Probable space group: C M C M
;
_chemical_formula_sum "Si O2"
_cell_formula_units_Z 112
_cell_length_a 15.795422
_cell_length_b 30.346824
_cell_length_c 13.757060
_cell_angle_alpha 90.000000
_cell_angle_beta 90.000000
_cell_angle_gamma 90.000000
_cell_volume 6594.321404
_symmetry_space_group_name_H-M "C M C M"
_symmetry_group_IT_number 63
_symmetry_cell_setting 'orthorhombic'
loop_
_space_group_symop_operation_xyz
x,y,z
-x,-y,1/2+z
x,-y,-z
-x,y,1/2-z
-x,-y,-z
x,y,1/2-z
-x,y,z
x,-y,1/2+z
1/2+x,1/2+y,z
1/2-x,1/2-y,1/2+z
1/2+x,1/2-y,-z
1/2-x,1/2+y,1/2-z
1/2-x,1/2-y,-z
1/2+x,1/2+y,1/2-z
1/2-x,1/2+y,z
1/2+x,1/2-y,1/2+z
loop_
_atom_site_type_symbol
_atom_site_label
_atom_site_fract_x
_atom_site_fract_y
_atom_site_fract_z
Si Si1 0.244697 0.476447 0.359993
Si Si2 0.901380 0.082888 0.862768
Si Si3 0.813773 0.434285 0.944301
Si Si4 0.796869 0.145944 0.003566
Si Si5 0.599151 0.712951 0.365640
Si Si6 0.500000 0.948252 0.527361
Si Si7 0.000000 0.623760 0.636642
Si Si8 0.659918 0.812512 0.364545
O O1 0.217047 0.466329 0.250000
O O2 0.341276 0.459995 0.370438
O O3 0.233043 0.527613 0.383845
O O4 0.193167 0.450044 0.442355
O O5 0.893564 0.098171 0.750000
O O6 0.861784 0.117608 0.937714
O O7 0.000000 0.074415 0.881927
O O8 0.912737 0.435892 0.918636
O O9 0.764524 0.388449 0.940360
O O10 0.737663 0.173392 0.930771
O O11 0.846541 0.178018 0.074942
O O12 0.607576 0.705559 0.250000
O O13 0.500000 0.709433 0.390646
O O14 0.629736 0.762853 0.384898
O O15 0.500000 0.918461 0.431005
O O16 0.500000 0.000000 0.500000
O O17 0.082293 0.653945 0.617650
O O18 0.000000 0.611792 0.750000
O O19 0.681156 0.815599 0.250000
#
# Coordination Sequence:
#
# PCOD9471304 Si02
#       8
#    16  16  16  16  16   8   8  16
#     4   9  18  34  51  69  98 136 177 217 261 312
#     4   9  18  33  53  77 105 136 173 222 273 323
#     4  10  21  34  49  76 104 136 176 222 264 317
#     4  11  20  33  54  80 111 139 175 218 277 326
#     4  10  21  37  56  79 109 143 185 229 269 319
#     4  12  20  36  50  74 116 141 170 220 269 314
#     4  10  20  34  58  86 110 140 177 226 279 321
#     4  10  19  35  58  85 111 138 176 225 275 325
#
# _framework density 16.984311000000002
#
# number of rings (size 3 to 8) (size 9 to 14) (size 15 to 20)
#    0.000    2.000    3.571    1.286    0.000    1.714 
#    0.000    6.786    0.000    1.714    0.000    0.500 
#    0.000    0.000    0.000    0.000    0.000    0.000 
#
# Total GULP energy -312430.671402 kJ/mol
# GULP energy per Si atom -5579.119132 kJ/mol
# Density = 1.694565 g / cm^3
# Si number density = 16.984311 Si / 1000 Ang^3
#
#
#
# Elastic Constant Matrix: (Units=GPa)
#
#
# Indices 1 2 3 4 5 6 
#
# 1 126.9577 63.9683 34.9952 0.0000 0.0000 0.0000
# 2 63.9683 122.0297 38.5263 0.0000 0.0000 0.0000
# 3 34.9952 38.5263 36.2228 0.0000 0.0000 0.0000
# 4 0.0000 0.0000 0.0000 26.6654 0.0000 0.0000
# 5 0.0000 0.0000 0.0000 0.0000 27.6519 0.0000
# 6 0.0000 0.0000 0.0000 0.0000 0.0000 25.8705
#
#
#
# Elastic Compliance Matrix: (Units=1/GPa)
#
#
# Indices 1 2 3 4 5 6 
#
# 1 0.011859 -0.003914 -0.007295 0.000000 0.000000 0.000000
# 2 -0.003914 0.013629 -0.010715 0.000000 0.000000 0.000000
# 3 -0.007295 -0.010715 0.046051 0.000000 0.000000 0.000000
# 4 0.000000 0.000000 0.000000 0.037502 0.000000 0.000000
# 5 0.000000 0.000000 0.000000 0.000000 0.036164 0.000000
# 6 0.000000 0.000000 0.000000 0.000000 0.000000 0.038654
#
#
# Mechanical properties :
#
#
# Convention : Reuss Voigt Hill
#
# Bulk Modulus (GPa) = 36.11087 62.24332 49.17709
# Shear Modulus (GPa) = 21.10272 25.88559 23.49415
#
# Velocity S-wave (km/s) = 3.52871 3.90819 3.72329
# Velocity P-wave (km/s) = 6.15710 7.55595 6.89211
#
# Compressibility (1/GPa) = 0.02769249
#
# Stress axis : x y z
#
# Youngs Moduli (GPa) = 84.32177 73.37271 21.71518
#
# Poissons Ratio (x) = 0.28715 0.15841
# Poissons Ratio (y) = 0.33000 0.23267
# Poissons Ratio (z) = 0.61512 0.78617
#
# Static dielectric constant tensor:
#      x y z
#    x 1.579250 0.000000 0.000000 
#    y 0.000000 1.559870 0.000000 
#    z 0.000000 0.000000 1.565740 
# 
# From -- ./inp_files/32631.got.cif
#   From: 2010.05.17/outbox.cif.g08.bks.cpg/sg63_17_cif.got.tgz:32631.got - 2010.06.03 15:47:04.
