data_PCOD9471024
_publ_section_title
;
Structure prediction by ZEFSAII (Michael W. Deem and Ramdas Pophale) SiO2 
 PCOD9471024
Probable space group: C M C M
;
_chemical_formula_sum "Si O2"
_cell_formula_units_Z 80
_cell_length_a 13.515985
_cell_length_b 18.649857
_cell_length_c 19.140581
_cell_angle_alpha 90.000000
_cell_angle_beta 90.000000
_cell_angle_gamma 90.000000
_cell_volume 4824.788981
_symmetry_space_group_name_H-M "C M C M"
_symmetry_group_IT_number 63
_symmetry_cell_setting 'orthorhombic'
loop_
_space_group_symop_operation_xyz
x,y,z
-x,-y,1/2+z
x,-y,-z
-x,y,1/2-z
-x,-y,-z
x,y,1/2-z
-x,y,z
x,-y,1/2+z
1/2+x,1/2+y,z
1/2-x,1/2-y,1/2+z
1/2+x,1/2-y,-z
1/2-x,1/2+y,1/2-z
1/2-x,1/2-y,-z
1/2+x,1/2+y,1/2-z
1/2-x,1/2+y,z
1/2+x,1/2-y,1/2+z
loop_
_atom_site_type_symbol
_atom_site_label
_atom_site_fract_x
_atom_site_fract_y
_atom_site_fract_z
Si Si1 0.388599 0.693380 0.666670
Si Si2 0.692439 0.823188 0.576120
Si Si3 0.689128 0.116032 0.666781
Si Si4 0.886456 0.736434 0.930986
Si Si5 0.117828 0.479449 0.581028
O O1 0.385377 0.705046 0.750000
O O2 0.500000 0.671825 0.647173
O O3 0.359592 0.766378 0.627528
O O4 0.303711 0.635524 0.650236
O O5 0.807639 0.800782 0.574114
O O6 0.645787 0.808199 0.499770
O O7 0.671259 0.904425 0.596313
O O8 0.676708 0.112127 0.750000
O O9 0.628836 0.182563 0.633829
O O10 0.655319 0.043667 0.629524
O O11 0.000000 0.758775 0.936771
O O12 0.135141 0.500000 0.500000
O O13 0.000000 0.470201 0.590235
#
# Coordination Sequence:
#
# PCOD9471024 Si02
#       5
#    16  16  16  16  16
#     4   9  18  34  55  78 105 138 175 214 255 300
#     4  10  20  33  53  78 105 134 173 214 254 307
#     4  10  21  35  54  80 106 136 175 213 253 309
#     4  10  19  34  55  77 103 136 171 213 259 303
#     4  11  21  34  51  74 108 141 167 208 265 313
#
# _framework density 16.581036000000001
#
# number of rings (size 3 to 8) (size 9 to 14) (size 15 to 20)
#    0.000    2.000    2.000    2.400    0.000    2.400 
#    0.000    1.000    0.000    1.200    0.000    0.000 
#    0.000    0.000    0.000    0.000    0.000    0.000 
#
# Total GULP energy -223193.734819 kJ/mol
# GULP energy per Si atom -5579.843370 kJ/mol
# Density = 1.654330 g / cm^3
# Si number density = 16.581036 Si / 1000 Ang^3
#
#
#
# Elastic Constant Matrix: (Units=GPa)
#
#
# Indices 1 2 3 4 5 6 
#
# 1 132.1882 49.6534 38.0322 0.0000 0.0000 0.0000
# 2 49.6534 109.3760 41.2598 0.0000 0.0000 0.0000
# 3 38.0322 41.2598 56.7452 0.0000 0.0000 0.0000
# 4 0.0000 0.0000 0.0000 27.9228 0.0000 0.0000
# 5 0.0000 0.0000 0.0000 0.0000 20.5124 0.0000
# 6 0.0000 0.0000 0.0000 0.0000 0.0000 11.4158
#
#
#
# Elastic Compliance Matrix: (Units=1/GPa)
#
#
# Indices 1 2 3 4 5 6 
#
# 1 0.009940 -0.002755 -0.004659 0.000000 0.000000 0.000000
# 2 -0.002755 0.013362 -0.007869 0.000000 0.000000 0.000000
# 3 -0.004659 -0.007869 0.026467 0.000000 0.000000 0.000000
# 4 0.000000 0.000000 0.000000 0.035813 0.000000 0.000000
# 5 0.000000 0.000000 0.000000 0.000000 0.048751 0.000000
# 6 0.000000 0.000000 0.000000 0.000000 0.000000 0.087598
#
#
# Mechanical properties :
#
#
# Convention : Reuss Voigt Hill
#
# Bulk Modulus (GPa) = 52.07563 61.80002 56.93782
# Shear Modulus (GPa) = 19.31264 23.26114 21.28689
#
# Velocity S-wave (km/s) = 3.41653 3.74956 3.58692
# Velocity P-wave (km/s) = 6.85846 7.48986 7.18111
#
# Compressibility (1/GPa) = 0.01920284
#
# Stress axis : x y z
#
# Youngs Moduli (GPa) = 100.60044 74.83960 37.78312
#
# Poissons Ratio (x) = 0.20619 0.17603
# Poissons Ratio (y) = 0.27716 0.29732
# Poissons Ratio (z) = 0.46870 0.58891
#
# Static dielectric constant tensor:
#      x y z
#    x 1.574380 0.000000 0.000000 
#    y 0.000000 1.521860 0.000000 
#    z 0.000000 0.000000 1.568000 
# 
# From -- ./inp_files/43965.got.cif
#   From: 2010.05.17/outbox.cif.g08.bks.cpg/sg63_22_cif.got.tgz:43965.got - 2010.06.03 15:47:04.
