data_PCOD9471949
_publ_section_title
;
Structure prediction by ZEFSAII (Michael W. Deem and Ramdas Pophale) SiO2 
 PCOD9471949
Probable space group: C M C M
;
_chemical_formula_sum "Si O2"
_cell_formula_units_Z 116
_cell_length_a 25.627926
_cell_length_b 11.476462
_cell_length_c 18.342654
_cell_angle_alpha 90.000000
_cell_angle_beta 90.000000
_cell_angle_gamma 90.000000
_cell_volume 5394.903221
_symmetry_space_group_name_H-M "C M C M"
_symmetry_group_IT_number 63
_symmetry_cell_setting 'orthorhombic'
loop_
_space_group_symop_operation_xyz
x,y,z
-x,-y,1/2+z
x,-y,-z
-x,y,1/2-z
-x,-y,-z
x,y,1/2-z
-x,y,z
x,-y,1/2+z
1/2+x,1/2+y,z
1/2-x,1/2-y,1/2+z
1/2+x,1/2-y,-z
1/2-x,1/2+y,1/2-z
1/2-x,1/2-y,-z
1/2+x,1/2+y,1/2-z
1/2-x,1/2+y,z
1/2+x,1/2-y,1/2+z
loop_
_atom_site_type_symbol
_atom_site_label
_atom_site_fract_x
_atom_site_fract_y
_atom_site_fract_z
Si Si1 0.938424 0.629611 0.520352
Si Si2 0.000000 0.157435 0.250000
Si Si3 0.395565 0.616847 0.971983
Si Si4 0.332576 0.360860 0.334897
Si Si5 0.909267 0.270738 0.328326
Si Si6 0.769608 0.426846 0.071802
Si Si7 0.187332 0.185666 0.086280
Si Si8 0.706933 0.107027 0.333814
O O1 0.917344 0.500000 0.500000
O O2 0.917751 0.751903 0.484619
O O3 0.928028 0.649279 0.606020
O O4 0.000000 0.627564 0.505068
O O5 0.953743 0.174428 0.312398
O O6 0.379087 0.601633 0.887885
O O7 0.425028 0.500000 0.000000
O O8 0.343907 0.618780 0.023858
O O9 0.334995 0.397400 0.250000
O O10 0.279300 0.401149 0.375040
O O11 0.328802 0.220393 0.336925
O O12 0.904339 0.333083 0.250000
O O13 0.855161 0.213262 0.351852
O O14 0.794327 0.305304 0.049167
O O15 0.811413 0.496440 0.120765
O O16 0.758182 0.500000 0.000000
O O17 0.238367 0.137581 0.126234
O O18 0.716229 0.078158 0.250000
#
# Coordination Sequence:
#
# PCOD9471949 Si02
#       8
#    16   4  16  16  16  16  16  16
#     4  10  21  40  64  90 119 152 193 245 304 368
#     4   8  16  32  58  88 118 150 188 260 314 358
#     4  11  23  39  60  87 116 153 199 244 297 360
#     4  10  21  36  54  76 113 159 199 243 296 359
#     4   9  17  33  59  87 121 147 196 248 310 362
#     4  11  21  34  53  76 111 152 203 256 298 346
#     4  10  21  34  54  83 112 156 196 242 299 364
#     4  10  20  33  50  76 113 150 196 243 296 346
#
# _framework density 21.501777000000001
#
# number of rings (size 3 to 8) (size 9 to 14) (size 15 to 20)
#    0.414    1.517    0.690    3.724    0.000    8.552 
#    0.000    4.828    0.000    1.241    0.000    0.000 
#    0.000    0.000    0.000    0.000    0.000    0.000 
#
# Total GULP energy -322927.253394 kJ/mol
# GULP energy per Si atom -5567.711265 kJ/mol
# Density = 2.145284 g / cm^3
# Si number density = 21.501777 Si / 1000 Ang^3
#
#
#
# Elastic Constant Matrix: (Units=GPa)
#
#
# Indices 1 2 3 4 5 6 
#
# 1 54.5331 14.1059 11.4888 0.0000 0.0000 0.0000
# 2 14.1059 122.6007 37.8031 0.0000 0.0000 0.0000
# 3 11.4888 37.8031 143.9044 0.0000 0.0000 0.0000
# 4 0.0000 0.0000 0.0000 21.4796 0.0000 0.0000
# 5 0.0000 0.0000 0.0000 0.0000 17.1657 0.0000
# 6 0.0000 0.0000 0.0000 0.0000 0.0000 10.1614
#
#
#
# Elastic Compliance Matrix: (Units=1/GPa)
#
#
# Indices 1 2 3 4 5 6 
#
# 1 0.019039 -0.001874 -0.001028 0.000000 0.000000 0.000000
# 2 -0.001874 0.009060 -0.002230 0.000000 0.000000 0.000000
# 3 -0.001028 -0.002230 0.007617 0.000000 0.000000 0.000000
# 4 0.000000 0.000000 0.000000 0.046556 0.000000 0.000000
# 5 0.000000 0.000000 0.000000 0.000000 0.058256 0.000000
# 6 0.000000 0.000000 0.000000 0.000000 0.000000 0.098411
#
#
# Mechanical properties :
#
#
# Convention : Reuss Voigt Hill
#
# Bulk Modulus (GPa) = 39.28970 49.75931 44.52450
# Shear Modulus (GPa) = 19.40348 26.93739 23.17044
#
# Velocity S-wave (km/s) = 3.00728 3.54333 3.28625
# Velocity P-wave (km/s) = 5.51096 6.31921 5.92888
#
# Compressibility (1/GPa) = 0.02545197
#
# Stress axis : x y z
#
# Youngs Moduli (GPa) = 52.52474 110.37702 131.28474
#
# Poissons Ratio (x) = 0.20680 0.13493
# Poissons Ratio (y) = 0.09841 0.29282
# Poissons Ratio (z) = 0.05398 0.24619
#
# Static dielectric constant tensor:
#      x y z
#    x 1.791010 0.000000 0.000000 
#    y 0.000000 1.916560 0.000000 
#    z 0.000000 0.000000 1.782170 
# 
# From -- ./inp_files/49633.got.cif
#   From: 2010.05.17/outbox.cif.g08.bks.cpg/sg63_25_cif.got.tgz:49633.got - 2010.06.03 15:47:04.
