data_PCOD9471877
_publ_section_title
;
Structure prediction by ZEFSAII (Michael W. Deem and Ramdas Pophale) SiO2 
 PCOD9471877
Probable space group: C M C M
;
_chemical_formula_sum "Si O2"
_cell_formula_units_Z 120
_cell_length_a 27.997191
_cell_length_b 28.591643
_cell_length_c 8.710640
_cell_angle_alpha 90.000000
_cell_angle_beta 90.000000
_cell_angle_gamma 90.000000
_cell_volume 6972.742671
_symmetry_space_group_name_H-M "C M C M"
_symmetry_group_IT_number 63
_symmetry_cell_setting 'orthorhombic'
loop_
_space_group_symop_operation_xyz
x,y,z
-x,-y,1/2+z
x,-y,-z
-x,y,1/2-z
-x,-y,-z
x,y,1/2-z
-x,y,z
x,-y,1/2+z
1/2+x,1/2+y,z
1/2-x,1/2-y,1/2+z
1/2+x,1/2-y,-z
1/2-x,1/2+y,1/2-z
1/2-x,1/2-y,-z
1/2+x,1/2+y,1/2-z
1/2-x,1/2+y,z
1/2+x,1/2-y,1/2+z
loop_
_atom_site_type_symbol
_atom_site_label
_atom_site_fract_x
_atom_site_fract_y
_atom_site_fract_z
Si Si1 0.110987 0.450525 0.566843
Si Si2 0.199644 0.600146 0.934653
Si Si3 0.946231 0.640891 0.065061
Si Si4 0.203970 0.777243 0.934304
Si Si5 0.194022 0.118597 0.935728
Si Si6 0.105939 0.947137 0.064005
Si Si7 0.140692 0.307685 0.433720
Si Si8 0.000000 0.052448 0.565113
O O1 0.096360 0.500000 0.500000
O O2 0.110773 0.452200 0.750000
O O3 0.163744 0.436608 0.509365
O O4 0.075993 0.408820 0.515127
O O5 0.196565 0.596125 0.750000
O O6 0.254843 0.596082 0.979919
O O7 0.178815 0.651588 0.977777
O O8 0.946558 0.641018 0.250000
O O9 0.000000 0.647048 0.009357
O O10 0.909407 0.679470 0.007755
O O11 0.208385 0.779509 0.750000
O O12 0.160360 0.742878 0.975446
O O13 0.250000 0.750000 0.000000
O O14 0.195785 0.828773 0.000197
O O15 0.193055 0.121403 0.750000
O O16 0.148762 0.087340 0.985351
O O17 0.107454 0.949905 0.250000
O O18 0.052568 0.928704 0.019165
O O19 0.111694 0.000000 0.000000
O O20 0.136513 0.310119 0.250000
O O21 0.000000 0.051521 0.750000
O O22 0.000000 0.000000 0.500000
#
# Coordination Sequence:
#
# PCOD9471877 Si02
#       8
#    16  16  16  16  16  16  16   8
#     4  10  20  33  49  71  99 133 171 211 259 309
#     4   9  17  32  49  67  97 131 166 206 250 304
#     4   9  19  35  54  76 100 128 170 220 263 309
#     4  11  21  34  54  80 107 137 173 212 254 304
#     4  10  20  34  51  77 108 139 170 211 258 304
#     4   9  18  32  52  75 104 136 172 212 254 300
#     4   9  18  33  52  74  99 130 168 208 253 306
#     4   8  14  28  50  74  94 126 168 208 248 296
#
# _framework density 17.209871
#
# number of rings (size 3 to 8) (size 9 to 14) (size 15 to 20)
#    0.000    2.533    1.333    0.800    0.000    3.733 
#    0.000    1.333    1.467    0.000    0.000    0.000 
#    0.000    0.000    0.000    0.000    0.000    0.000 
#
# Total GULP energy -334374.235266 kJ/mol
# GULP energy per Si atom -5572.903921 kJ/mol
# Density = 1.717070 g / cm^3
# Si number density = 17.209871 Si / 1000 Ang^3
#
#
#
# Elastic Constant Matrix: (Units=GPa)
#
#
# Indices 1 2 3 4 5 6 
#
# 1 172.3709 57.4807 27.3805 0.0000 0.0000 0.0000
# 2 57.4807 71.6992 17.0961 0.0000 0.0000 0.0000
# 3 27.3805 17.0961 7.4328 0.0000 0.0000 0.0000
# 4 0.0000 0.0000 0.0000 28.5358 0.0000 0.0000
# 5 0.0000 0.0000 0.0000 0.0000 21.6469 0.0000
# 6 0.0000 0.0000 0.0000 0.0000 0.0000 16.5980
#
#
#
# Elastic Compliance Matrix: (Units=1/GPa)
#
#
# Indices 1 2 3 4 5 6 
#
# 1 0.014169 0.002406 -0.057730 0.000000 0.000000 0.000000
# 2 0.002406 0.031295 -0.080845 0.000000 0.000000 0.000000
# 3 -0.057730 -0.080845 0.533155 0.000000 0.000000 0.000000
# 4 0.000000 0.000000 0.000000 0.035044 0.000000 0.000000
# 5 0.000000 0.000000 0.000000 0.000000 0.046196 0.000000
# 6 0.000000 0.000000 0.000000 0.000000 0.000000 0.060248
#
#
# Mechanical properties :
#
#
# Convention : Reuss Voigt Hill
#
# Bulk Modulus (GPa) = 3.26498 50.60194 26.93346
# Shear Modulus (GPa) = 4.56813 23.32585 13.94699
#
# Velocity S-wave (km/s) = 1.63099 3.68554 2.84985
# Velocity P-wave (km/s) = 2.33412 6.89765 5.14906
#
# Compressibility (1/GPa) = 0.30628087
#
# Stress axis : x y z
#
# Youngs Moduli (GPa) = 70.57475 31.95367 1.87563
#
# Poissons Ratio (x) = -0.07688 0.10828
# Poissons Ratio (y) = -0.16979 0.15164
# Poissons Ratio (z) = 4.07429 2.58330
#
# Static dielectric constant tensor:
#      x y z
#    x 1.605570 0.000000 0.000000 
#    y 0.000000 1.561240 0.000000 
#    z 0.000000 0.000000 1.582840 
# 
# From -- ./inp_files/13159.got.cif
#   From: 2010.05.17/outbox.cif.g08.bks.cpg/sg63_7_cif.got.tgz:13159.got - 2010.06.03 15:47:04.
