data_PCOD9471130
_publ_section_title
;
Structure prediction by ZEFSAII (Michael W. Deem and Ramdas Pophale) SiO2 
 PCOD9471130
Probable space group: C M C M
;
_chemical_formula_sum "Si O2"
_cell_formula_units_Z 64
_cell_length_a 8.680090
_cell_length_b 20.576934
_cell_length_c 20.155698
_cell_angle_alpha 90.000000
_cell_angle_beta 90.000000
_cell_angle_gamma 90.000000
_cell_volume 3600.001944
_symmetry_space_group_name_H-M "C M C M"
_symmetry_group_IT_number 63
_symmetry_cell_setting 'orthorhombic'
loop_
_space_group_symop_operation_xyz
x,y,z
-x,-y,1/2+z
x,-y,-z
-x,y,1/2-z
-x,-y,-z
x,y,1/2-z
-x,y,z
x,-y,1/2+z
1/2+x,1/2+y,z
1/2-x,1/2-y,1/2+z
1/2+x,1/2-y,-z
1/2-x,1/2+y,1/2-z
1/2-x,1/2-y,-z
1/2+x,1/2+y,1/2-z
1/2-x,1/2+y,z
1/2+x,1/2-y,1/2+z
loop_
_atom_site_type_symbol
_atom_site_label
_atom_site_fract_x
_atom_site_fract_y
_atom_site_fract_z
Si Si1 0.684038 0.085751 0.556650
Si Si2 0.315474 0.451670 0.587347
Si Si3 0.683533 0.274957 0.070229
Si Si4 0.185330 0.171934 0.326853
O O1 0.500000 0.086550 0.554153
O O2 0.749698 0.075895 0.482088
O O3 0.748137 0.153636 0.583060
O O4 0.742844 0.022680 0.596301
O O5 0.500000 0.457685 0.581354
O O6 0.279364 0.399446 0.643965
O O7 0.500000 0.278411 0.065265
O O8 0.734096 0.224972 0.126991
O O9 0.750000 0.250000 0.000000
O O10 0.228522 0.177590 0.250000
O O11 0.000000 0.180481 0.332469
#
# Coordination Sequence:
#
# PCOD9471130 Si02
#       4
#    16  16  16  16
#     4  11  21  34  56  85 117 149 191 245 291 340
#     4  10  19  34  57  84 116 151 190 238 289 350
#     4  12  23  37  59  87 118 154 198 247 296 351
#     4  10  22  40  61  86 119 157 194 238 297 359
#
# _framework density 17.777767000000001
#
# number of rings (size 3 to 8) (size 9 to 14) (size 15 to 20)
#    0.000    1.250    2.500    6.750    0.000    1.500 
#    0.000    1.250    0.000    4.500    0.000    0.000 
#    0.000    0.000    0.000    0.000    0.000    0.000 
#
# Total GULP energy -178840.623904 kJ/mol
# GULP energy per Si atom -5588.769497 kJ/mol
# Density = 1.773730 g / cm^3
# Si number density = 17.777767 Si / 1000 Ang^3
#
#
#
# Elastic Constant Matrix: (Units=GPa)
#
#
# Indices 1 2 3 4 5 6 
#
# 1 119.1751 74.8455 56.8502 0.0000 0.0000 0.0000
# 2 74.8455 169.7213 71.7568 0.0000 0.0000 0.0000
# 3 56.8502 71.7568 100.6267 0.0000 0.0000 0.0000
# 4 0.0000 0.0000 0.0000 24.9202 0.0000 0.0000
# 5 0.0000 0.0000 0.0000 0.0000 21.0166 0.0000
# 6 0.0000 0.0000 0.0000 0.0000 0.0000 34.7537
#
#
#
# Elastic Compliance Matrix: (Units=1/GPa)
#
#
# Indices 1 2 3 4 5 6 
#
# 1 0.012965 -0.003752 -0.004649 0.000000 0.000000 0.000000
# 2 -0.003752 0.009521 -0.004670 0.000000 0.000000 0.000000
# 3 -0.004649 -0.004670 0.015894 0.000000 0.000000 0.000000
# 4 0.000000 0.000000 0.000000 0.040128 0.000000 0.000000
# 5 0.000000 0.000000 0.000000 0.000000 0.047582 0.000000
# 6 0.000000 0.000000 0.000000 0.000000 0.000000 0.028774
#
#
# Mechanical properties :
#
#
# Convention : Reuss Voigt Hill
#
# Bulk Modulus (GPa) = 81.70849 88.49200 85.10025
# Shear Modulus (GPa) = 27.01458 28.54279 27.77869
#
# Velocity S-wave (km/s) = 3.90240 4.01126 3.95720
# Velocity P-wave (km/s) = 8.14652 8.44621 8.29772
#
# Compressibility (1/GPa) = 0.01223863
#
# Stress axis : x y z
#
# Youngs Moduli (GPa) = 77.12980 105.03309 62.91522
#
# Poissons Ratio (x) = 0.39406 0.29252
# Poissons Ratio (y) = 0.28937 0.29379
# Poissons Ratio (z) = 0.35861 0.49047
#
# Static dielectric constant tensor:
#      x y z
#    x 1.595640 0.000000 0.000000 
#    y 0.000000 1.614590 0.000000 
#    z 0.000000 0.000000 1.577430 
# 
# From -- ./inp_files/40102.got.cif
#   From: 2010.05.17/outbox.cif.g08.bks.cpg/sg63_21_cif.got.tgz:40102.got - 2010.06.03 15:47:04.
