data_PCOD9471132
_publ_section_title
;
Structure prediction by ZEFSAII (Michael W. Deem and Ramdas Pophale) SiO2 
 PCOD9471132
Probable space group: C M C M
;
_chemical_formula_sum "Si O2"
_cell_formula_units_Z 96
_cell_length_a 20.296108
_cell_length_b 29.817690
_cell_length_c 8.816889
_cell_angle_alpha 90.000000
_cell_angle_beta 90.000000
_cell_angle_gamma 90.000000
_cell_volume 5335.831834
_symmetry_space_group_name_H-M "C M C M"
_symmetry_group_IT_number 63
_symmetry_cell_setting 'orthorhombic'
loop_
_space_group_symop_operation_xyz
x,y,z
-x,-y,1/2+z
x,-y,-z
-x,y,1/2-z
-x,-y,-z
x,y,1/2-z
-x,y,z
x,-y,1/2+z
1/2+x,1/2+y,z
1/2-x,1/2-y,1/2+z
1/2+x,1/2-y,-z
1/2-x,1/2+y,1/2-z
1/2-x,1/2-y,-z
1/2+x,1/2+y,1/2-z
1/2-x,1/2+y,z
1/2+x,1/2-y,1/2+z
loop_
_atom_site_type_symbol
_atom_site_label
_atom_site_fract_x
_atom_site_fract_y
_atom_site_fract_z
Si Si1 0.072639 0.950610 0.930389
Si Si2 0.306066 0.305171 0.425869
Si Si3 0.699570 0.406338 0.067787
Si Si4 0.150649 0.718106 0.924379
Si Si5 0.669369 0.950559 0.932808
Si Si6 0.576444 0.133132 0.067115
O O1 0.086241 0.952357 0.750000
O O2 0.000000 0.929599 0.950824
O O3 0.130939 0.927555 0.020131
O O4 0.069312 0.000000 0.000000
O O5 0.325909 0.306625 0.250000
O O6 0.305718 0.355238 0.489260
O O7 0.228767 0.292492 0.430906
O O8 0.350936 0.267872 0.505488
O O9 0.709095 0.406335 0.250000
O O10 0.760182 0.432885 0.993136
O O11 0.129774 0.718894 0.750000
O O12 0.111760 0.678109 0.006555
O O13 0.670557 0.953484 0.750000
O O14 0.616635 0.911849 0.977843
O O15 0.655584 0.000000 0.000000
O O16 0.577969 0.134809 0.250000
O O17 0.500000 0.131196 0.018532
#
# Coordination Sequence:
#
# PCOD9471132 Si02
#       6
#    16  16  16  16  16  16
#     4  10  21  37  56  79 109 146 187 228 275 333
#     4   9  19  34  55  83 114 145 180 224 276 332
#     4  11  21  36  58  85 116 148 187 233 282 336
#     4  10  19  34  57  85 112 142 184 229 275 330
#     4  11  23  38  58  83 114 150 193 243 293 342
#     4  10  22  40  60  82 113 154 196 239 292 349
#
# _framework density 17.991572000000001
#
# number of rings (size 3 to 8) (size 9 to 14) (size 15 to 20)
#    0.000    1.833    1.667    2.500    0.000    4.333 
#    0.000    0.833    0.000    1.000    0.000    0.000 
#    0.000    0.000    0.000    0.000    0.000    0.000 
#
# Total GULP energy -267669.676807 kJ/mol
# GULP energy per Si atom -5576.451600 kJ/mol
# Density = 1.795062 g / cm^3
# Si number density = 17.991572 Si / 1000 Ang^3
#
#
#
# Elastic Constant Matrix: (Units=GPa)
#
#
# Indices 1 2 3 4 5 6 
#
# 1 57.5390 30.6503 26.1631 0.0000 0.0000 0.0000
# 2 30.6503 100.9359 32.0665 0.0000 0.0000 0.0000
# 3 26.1631 32.0665 45.4707 0.0000 0.0000 0.0000
# 4 0.0000 0.0000 0.0000 19.2888 0.0000 0.0000
# 5 0.0000 0.0000 0.0000 0.0000 -13.7880 0.0000
# 6 0.0000 0.0000 0.0000 0.0000 0.0000 45.8473
#
#
#
# Elastic Compliance Matrix: (Units=1/GPa)
#
#
# Indices 1 2 3 4 5 6 
#
# 1 0.024640 -0.003838 -0.011471 0.000000 0.000000 0.000000
# 2 -0.003838 0.013366 -0.007217 0.000000 0.000000 0.000000
# 3 -0.011471 -0.007217 0.033682 0.000000 0.000000 0.000000
# 4 0.000000 0.000000 0.000000 0.051843 0.000000 0.000000
# 5 0.000000 0.000000 0.000000 0.000000 -0.072527 0.000000
# 6 0.000000 0.000000 0.000000 0.000000 0.000000 0.021812
#
#
# Mechanical properties :
#
#
# Convention : Reuss Voigt Hill
#
# Bulk Modulus (GPa) = 37.54410 42.41173 39.97792
# Shear Modulus (GPa) = 39.44900 17.94067 28.69483
#
# Velocity S-wave (km/s) = 4.68764 3.16123 3.99796
# Velocity P-wave (km/s) = 7.08601 6.07855 6.60153
#
# Compressibility (1/GPa) = 0.02663534
#
# Stress axis : x y z
#
# Youngs Moduli (GPa) = 40.58485 74.81896 29.68953
#
# Poissons Ratio (x) = 0.28715 0.34056
# Poissons Ratio (y) = 0.15576 0.21428
# Poissons Ratio (z) = 0.46554 0.53999
#
# Static dielectric constant tensor:
#      x y z
#    x 1.613460 0.000000 0.000000 
#    y 0.000000 1.672570 0.000000 
#    z 0.000000 0.000000 1.614010 
# 
# From -- ./inp_files/8580.got.cif
#   From: 2010.05.17/outbox.cif.g08.bks.cpg/sg63_5_cif.got.tgz:8580.got - 2010.06.03 15:47:04.
