data_PCOD9471990
_publ_section_title
;
Structure prediction by ZEFSAII (Michael W. Deem and Ramdas Pophale) SiO2 
 PCOD9471990
Probable space group: C M C M
;
_chemical_formula_sum "Si O2"
_cell_formula_units_Z 80
_cell_length_a 8.623295
_cell_length_b 28.011559
_cell_length_c 18.973496
_cell_angle_alpha 90.000000
_cell_angle_beta 90.000000
_cell_angle_gamma 90.000000
_cell_volume 4583.084704
_symmetry_space_group_name_H-M "C M C M"
_symmetry_group_IT_number 63
_symmetry_cell_setting 'orthorhombic'
loop_
_space_group_symop_operation_xyz
x,y,z
-x,-y,1/2+z
x,-y,-z
-x,y,1/2-z
-x,-y,-z
x,y,1/2-z
-x,y,z
x,-y,1/2+z
1/2+x,1/2+y,z
1/2-x,1/2-y,1/2+z
1/2+x,1/2-y,-z
1/2-x,1/2+y,1/2-z
1/2-x,1/2-y,-z
1/2+x,1/2+y,1/2-z
1/2-x,1/2+y,z
1/2+x,1/2-y,1/2+z
loop_
_atom_site_type_symbol
_atom_site_label
_atom_site_fract_x
_atom_site_fract_y
_atom_site_fract_z
Si Si1 0.187587 0.178336 0.466910
Si Si2 0.684445 0.680571 0.750000
Si Si3 0.315711 0.073349 0.750000
Si Si4 0.811772 0.928481 0.961268
Si Si5 0.685854 0.224982 0.607571
Si Si6 0.812218 0.024892 0.890131
O O1 0.239547 0.125275 0.445907
O O2 0.254972 0.192557 0.542902
O O3 0.230750 0.220750 0.413394
O O4 0.000000 0.178290 0.472373
O O5 0.500000 0.679138 0.750000
O O6 0.747236 0.626614 0.750000
O O7 0.743712 0.707238 0.819689
O O8 0.500000 0.076403 0.750000
O O9 0.258622 0.045938 0.680364
O O10 0.000000 0.928870 0.959536
O O11 0.762677 0.970688 0.908705
O O12 0.769061 0.944007 0.040819
O O13 0.500000 0.222375 0.611177
O O14 0.000000 0.025964 0.884501
#
# Coordination Sequence:
#
# PCOD9471990 Si02
#       6
#    16   8   8  16  16  16
#     4   9  17  32  54  78 106 140 174 208 252 305
#     4  12  24  38  55  72  97 135 174 213 261 312
#     4  12  24  36  51  76 107 133 162 205 259 312
#     4   8  15  30  54  79 100 130 174 213 242 287
#     4  10  20  33  51  78 108 135 170 216 260 304
#     4   9  17  32  54  78 103 133 171 209 245 292
#
# _framework density 17.455490999999999
#
# number of rings (size 3 to 8) (size 9 to 14) (size 15 to 20)
#    0.000    2.400    0.000    4.800    0.000    2.400 
#    0.000    4.000    0.000    6.000    0.000    0.000 
#    0.000    0.000    0.000    0.000    0.000    0.000 
#
# Total GULP energy -223169.757699 kJ/mol
# GULP energy per Si atom -5579.243942 kJ/mol
# Density = 1.741576 g / cm^3
# Si number density = 17.455491 Si / 1000 Ang^3
#
#
#
# Elastic Constant Matrix: (Units=GPa)
#
#
# Indices 1 2 3 4 5 6 
#
# 1 41.8899 38.9347 43.9108 0.0000 0.0000 0.0000
# 2 38.9347 176.6976 95.1003 0.0000 0.0000 0.0000
# 3 43.9108 95.1003 150.0909 0.0000 0.0000 0.0000
# 4 0.0000 0.0000 0.0000 13.8327 0.0000 0.0000
# 5 0.0000 0.0000 0.0000 0.0000 24.5396 0.0000
# 6 0.0000 0.0000 0.0000 0.0000 0.0000 20.4523
#
#
#
# Elastic Compliance Matrix: (Units=1/GPa)
#
#
# Indices 1 2 3 4 5 6 
#
# 1 0.035736 -0.003410 -0.008294 0.000000 0.000000 0.000000
# 2 -0.003410 0.008914 -0.004650 0.000000 0.000000 0.000000
# 3 -0.008294 -0.004650 0.012036 0.000000 0.000000 0.000000
# 4 0.000000 0.000000 0.000000 0.072292 0.000000 0.000000
# 5 0.000000 0.000000 0.000000 0.000000 0.040750 0.000000
# 6 0.000000 0.000000 0.000000 0.000000 0.000000 0.048894
#
#
# Mechanical properties :
#
#
# Convention : Reuss Voigt Hill
#
# Bulk Modulus (GPa) = 41.70819 80.50780 61.10800
# Shear Modulus (GPa) = 19.28094 24.48044 21.88069
#
# Velocity S-wave (km/s) = 3.32712 3.74899 3.54434
# Velocity P-wave (km/s) = 6.22138 8.05989 7.19956
#
# Compressibility (1/GPa) = 0.02397611
#
# Stress axis : x y z
#
# Youngs Moduli (GPa) = 27.98289 112.18879 83.08731
#
# Poissons Ratio (x) = 0.38260 0.68914
# Poissons Ratio (y) = 0.09543 0.38636
# Poissons Ratio (z) = 0.23209 0.52168
#
# Static dielectric constant tensor:
#      x y z
#    x 1.590850 0.000000 0.000000 
#    y 0.000000 1.611890 0.000000 
#    z 0.000000 0.000000 1.552110 
# 
# From -- ./inp_files/40602.got.cif
#   From: 2010.05.17/outbox.cif.g08.bks.cpg/sg63_21_cif.got.tgz:40602.got - 2010.06.03 15:47:04.
