data_PCOD9471827
_publ_section_title
;
Structure prediction by ZEFSAII (Michael W. Deem and Ramdas Pophale) SiO2 
 PCOD9471827
Probable space group: C M C M
;
_chemical_formula_sum "Si O2"
_cell_formula_units_Z 80
_cell_length_a 14.296677
_cell_length_b 12.793689
_cell_length_c 20.618809
_cell_angle_alpha 90.000000
_cell_angle_beta 90.000000
_cell_angle_gamma 90.000000
_cell_volume 3771.329431
_symmetry_space_group_name_H-M "C M C M"
_symmetry_group_IT_number 63
_symmetry_cell_setting 'orthorhombic'
loop_
_space_group_symop_operation_xyz
x,y,z
-x,-y,1/2+z
x,-y,-z
-x,y,1/2-z
-x,-y,-z
x,y,1/2-z
-x,y,z
x,-y,1/2+z
1/2+x,1/2+y,z
1/2-x,1/2-y,1/2+z
1/2+x,1/2-y,-z
1/2-x,1/2+y,1/2-z
1/2-x,1/2-y,-z
1/2+x,1/2+y,1/2-z
1/2-x,1/2+y,z
1/2+x,1/2-y,1/2+z
loop_
_atom_site_type_symbol
_atom_site_label
_atom_site_fract_x
_atom_site_fract_y
_atom_site_fract_z
Si Si1 0.387855 0.411844 0.675189
Si Si2 0.889885 0.510653 0.326499
Si Si3 0.200501 0.698259 0.676826
Si Si4 0.612604 0.564869 0.560202
Si Si5 0.609626 0.240269 0.369026
O O1 0.357064 0.430131 0.750000
O O2 0.500000 0.401452 0.675983
O O3 0.343907 0.304085 0.649059
O O4 0.363250 0.504799 0.626667
O O5 0.866744 0.533356 0.250000
O O6 0.833215 0.411025 0.351996
O O7 0.876171 0.616117 0.367596
O O8 0.000000 0.485054 0.328075
O O9 0.162420 0.693987 0.750000
O O10 0.311244 0.714986 0.678159
O O11 0.652493 0.500000 0.500000
O O12 0.500000 0.558398 0.555633
O O13 0.630907 0.688718 0.567660
O O14 0.500000 0.257958 0.350972
#
# Coordination Sequence:
#
# PCOD9471827 Si02
#       5
#    16  16  16  16  16
#     4   9  18  33  56  86 115 146 190 240 284 333
#     4   9  18  33  52  76 110 150 187 227 280 337
#     4  10  20  32  53  81 115 151 186 229 284 339
#     4   9  19  37  59  81 111 152 191 233 288 341
#     4  10  21  35  53  78 109 146 190 231 275 334
#
# _framework density 21.212679000000001
#
# number of rings (size 3 to 8) (size 9 to 14) (size 15 to 20)
#    0.000    2.600    0.000    1.200    2.800    5.200 
#    0.000    7.000    0.000    0.000    0.000    7.000 
#    0.000    0.000    0.000    0.000    0.000    0.000 
#
# Total GULP energy -222837.425148 kJ/mol
# GULP energy per Si atom -5570.935629 kJ/mol
# Density = 2.116440 g / cm^3
# Si number density = 21.212679 Si / 1000 Ang^3
#
#
#
# Elastic Constant Matrix: (Units=GPa)
#
#
# Indices 1 2 3 4 5 6 
#
# 1 84.6315 41.9337 -4.1978 0.0000 0.0000 0.0000
# 2 41.9337 100.3720 -8.6896 0.0000 0.0000 0.0000
# 3 -4.1978 -8.6896 14.1795 0.0000 0.0000 0.0000
# 4 0.0000 0.0000 0.0000 29.2859 0.0000 0.0000
# 5 0.0000 0.0000 0.0000 0.0000 6.5019 0.0000
# 6 0.0000 0.0000 0.0000 0.0000 0.0000 26.2599
#
#
#
# Elastic Compliance Matrix: (Units=1/GPa)
#
#
# Indices 1 2 3 4 5 6 
#
# 1 0.014906 -0.006173 0.000630 0.000000 0.000000 0.000000
# 2 -0.006173 0.013077 0.006187 0.000000 0.000000 0.000000
# 3 0.000630 0.006187 0.074502 0.000000 0.000000 0.000000
# 4 0.000000 0.000000 0.000000 0.034146 0.000000 0.000000
# 5 0.000000 0.000000 0.000000 0.000000 0.153801 0.000000
# 6 0.000000 0.000000 0.000000 0.000000 0.000000 0.038081
#
#
# Mechanical properties :
#
#
# Convention : Reuss Voigt Hill
#
# Bulk Modulus (GPa) = 9.63643 28.58618 19.11130
# Shear Modulus (GPa) = 13.81917 23.75200 18.78559
#
# Velocity S-wave (km/s) = 2.55514 3.34983 2.97910
# Velocity P-wave (km/s) = 3.64110 5.33546 4.56753
#
# Compressibility (1/GPa) = 0.10377290
#
# Stress axis : x y z
#
# Youngs Moduli (GPa) = 67.08839 76.46754 13.42246
#
# Poissons Ratio (x) = 0.47202 -0.00846
# Poissons Ratio (y) = 0.41412 -0.08304
# Poissons Ratio (z) = -0.04226 -0.47309
#
# Static dielectric constant tensor:
#      x y z
#    x 1.774390 0.000000 0.000000 
#    y 0.000000 1.821660 0.000000 
#    z 0.000000 0.000000 1.752250 
# 
# From -- ./inp_files/62536.got.cif
#   From: 2010.05.17/outbox.cif.g08.bks.cpg/sg63_32_cif.got.tgz:62536.got - 2010.06.03 15:47:04.
