data_PCOD9471533
_publ_section_title
;
Structure prediction by ZEFSAII (Michael W. Deem and Ramdas Pophale) SiO2 
 PCOD9471533
Probable space group: C M C M
;
_chemical_formula_sum "Si O2"
_cell_formula_units_Z 76
_cell_length_a 17.042283
_cell_length_b 26.677980
_cell_length_c 9.805532
_cell_angle_alpha 90.000000
_cell_angle_beta 90.000000
_cell_angle_gamma 90.000000
_cell_volume 4458.121257
_symmetry_space_group_name_H-M "C M C M"
_symmetry_group_IT_number 63
_symmetry_cell_setting 'orthorhombic'
loop_
_space_group_symop_operation_xyz
x,y,z
-x,-y,1/2+z
x,-y,-z
-x,y,1/2-z
-x,-y,-z
x,y,1/2-z
-x,y,z
x,-y,1/2+z
1/2+x,1/2+y,z
1/2-x,1/2-y,1/2+z
1/2+x,1/2-y,-z
1/2-x,1/2+y,1/2-z
1/2-x,1/2-y,-z
1/2+x,1/2+y,1/2-z
1/2-x,1/2+y,z
1/2+x,1/2-y,1/2+z
loop_
_atom_site_type_symbol
_atom_site_label
_atom_site_fract_x
_atom_site_fract_y
_atom_site_fract_z
Si Si1 0.907353 0.048207 0.088987
Si Si2 0.091920 0.769988 0.088302
Si Si3 0.185100 0.149830 0.087595
Si Si4 0.500000 0.000981 0.750000
Si Si5 0.500000 0.920979 0.500525
Si Si6 0.130255 0.654491 0.412917
O O1 0.897210 0.037440 0.250000
O O2 0.857272 0.097271 0.055259
O O3 0.000000 0.058358 0.065733
O O4 0.885175 0.000000 0.000000
O O5 0.108224 0.776481 0.250000
O O6 0.107827 0.711827 0.054670
O O7 0.000000 0.781020 0.065426
O O8 0.145215 0.806365 0.998937
O O9 0.174732 0.159137 0.250000
O O10 0.277733 0.146757 0.060373
O O11 0.500000 0.957192 0.631059
O O12 0.500000 0.044684 0.868613
O O13 0.575655 0.884774 0.510203
O O14 0.116755 0.648035 0.250000
#
# Coordination Sequence:
#
# PCOD9471533 Si02
#       6
#    16  16  16   4   8  16
#     4   9  18  34  53  73 103 140 178 220 275 329
#     4  10  20  35  57  82 110 155 194 227 286 353
#     4  10  21  36  54  85 114 147 185 239 291 339
#     4  10  24  38  68  86 112 154 202 246 286 338
#     4  11  20  44  60  90 116 154 201 242 288 346
#     4  10  19  37  61  80 115 154 187 231 295 349
#
# _framework density 17.047540999999999
#
# number of rings (size 3 to 8) (size 9 to 14) (size 15 to 20)
#    0.000    2.105    2.105    1.263    0.000    2.105 
#    7.579    2.105    0.000    0.000    0.000    0.000 
#    0.000    0.000    0.000    0.000    0.000    0.000 
#
# Total GULP energy -211536.078292 kJ/mol
# GULP energy per Si atom -5566.738902 kJ/mol
# Density = 1.700874 g / cm^3
# Si number density = 17.047541 Si / 1000 Ang^3
#
#
#
# Elastic Constant Matrix: (Units=GPa)
#
#
# Indices 1 2 3 4 5 6 
#
# 1 97.8990 85.1179 52.6429 0.0000 0.0000 0.0000
# 2 85.1179 151.6934 74.6950 0.0000 0.0000 0.0000
# 3 52.6429 74.6950 81.5547 0.0000 0.0000 0.0000
# 4 0.0000 0.0000 0.0000 34.0813 0.0000 0.0000
# 5 0.0000 0.0000 0.0000 0.0000 7.1456 0.0000
# 6 0.0000 0.0000 0.0000 0.0000 0.0000 3.1908
#
#
#
# Elastic Compliance Matrix: (Units=1/GPa)
#
#
# Indices 1 2 3 4 5 6 
#
# 1 0.021023 -0.009316 -0.005038 0.000000 0.000000 0.000000
# 2 -0.009316 0.016135 -0.008765 0.000000 0.000000 0.000000
# 3 -0.005038 -0.008765 0.023542 0.000000 0.000000 0.000000
# 4 0.000000 0.000000 0.000000 0.029342 0.000000 0.000000
# 5 0.000000 0.000000 0.000000 0.000000 0.139947 0.000000
# 6 0.000000 0.000000 0.000000 0.000000 0.000000 0.313398
#
#
# Mechanical properties :
#
#
# Convention : Reuss Voigt Hill
#
# Bulk Modulus (GPa) = 69.14464 84.00653 76.57558
# Shear Modulus (GPa) = 8.41119 16.79628 12.60374
#
# Velocity S-wave (km/s) = 2.22366 3.14229 2.72201
# Velocity P-wave (km/s) = 6.87320 7.90886 7.40915
#
# Compressibility (1/GPa) = 0.01446244
#
# Stress axis : x y z
#
# Youngs Moduli (GPa) = 47.56631 61.97532 42.47785
#
# Poissons Ratio (x) = 0.57734 0.21401
# Poissons Ratio (y) = 0.44311 0.37232
# Poissons Ratio (z) = 0.23965 0.54322
#
# Static dielectric constant tensor:
#      x y z
#    x 1.571130 0.000000 0.000000 
#    y 0.000000 1.545120 0.000000 
#    z 0.000000 0.000000 1.559970 
# 
# From -- ./inp_files/6460.got.cif
#   From: 2010.05.17/outbox.cif.g08.bks.cpg/sg63_4_cif.got.tgz:6460.got - 2010.06.03 15:47:04.
