data_PCOD9471791
_publ_section_title
;
Structure prediction by ZEFSAII (Michael W. Deem and Ramdas Pophale) SiO2 
 PCOD9471791
Probable space group: C M C M
;
_chemical_formula_sum "Si O2"
_cell_formula_units_Z 112
_cell_length_a 20.622658
_cell_length_b 16.648921
_cell_length_c 17.945798
_cell_angle_alpha 90.000000
_cell_angle_beta 90.000000
_cell_angle_gamma 90.000000
_cell_volume 6161.600083
_symmetry_space_group_name_H-M "C M C M"
_symmetry_group_IT_number 63
_symmetry_cell_setting 'orthorhombic'
loop_
_space_group_symop_operation_xyz
x,y,z
-x,-y,1/2+z
x,-y,-z
-x,y,1/2-z
-x,-y,-z
x,y,1/2-z
-x,y,z
x,-y,1/2+z
1/2+x,1/2+y,z
1/2-x,1/2-y,1/2+z
1/2+x,1/2-y,-z
1/2-x,1/2+y,1/2-z
1/2-x,1/2-y,-z
1/2+x,1/2+y,1/2-z
1/2-x,1/2+y,z
1/2+x,1/2-y,1/2+z
loop_
_atom_site_type_symbol
_atom_site_label
_atom_site_fract_x
_atom_site_fract_y
_atom_site_fract_z
Si Si1 0.167326 0.588948 0.111763
Si Si2 0.429319 0.871746 0.015615
Si Si3 0.793450 0.858857 0.952481
Si Si4 0.880443 0.423604 0.167716
Si Si5 0.926204 0.816951 0.488601
Si Si6 0.236102 0.315401 0.387480
Si Si7 0.870105 0.767033 0.167333
O O1 0.244378 0.585034 0.094033
O O2 0.144303 0.514407 0.159585
O O3 0.146268 0.673782 0.148410
O O4 0.127275 0.590901 0.034234
O O5 0.500000 0.887461 0.981086
O O6 0.426685 0.905647 0.098435
O O7 0.420347 0.775265 0.017916
O O8 0.787552 0.773759 0.909680
O O9 0.869480 0.868895 0.971938
O O10 0.759083 0.850918 0.033085
O O11 0.906947 0.409094 0.250000
O O12 0.819360 0.365882 0.151316
O O13 0.911203 0.804696 0.400481
O O14 0.000000 0.844330 0.500470
O O15 0.300027 0.308832 0.337841
O O16 0.898143 0.773985 0.250000
#
# Coordination Sequence:
#
# PCOD9471791 Si02
#       7
#    16  16  16  16  16  16  16
#     4  10  20  32  50  70  95 133 175 206 240 291
#     4  10  20  35  51  68  96 137 174 200 234 287
#     4   9  15  31  53  71  92 124 168 209 246 283
#     4  12  22  31  46  73 101 127 163 206 247 295
#     4   9  17  30  52  76  96 127 171 207 240 292
#     4   9  16  29  48  71  93 125 160 202 245 292
#     4   9  17  30  46  69 103 131 156 201 254 294
#
# _framework density 18.177095999999999
#
# number of rings (size 3 to 8) (size 9 to 14) (size 15 to 20)
#    0.000    2.286    2.857    3.000    0.000    1.714 
#    0.000    0.000    0.000    2.571    0.000    8.000 
#    0.000    4.571    0.000    0.000    0.000    0.000 
#
# Total GULP energy -312024.329478 kJ/mol
# GULP energy per Si atom -5571.863026 kJ/mol
# Density = 1.813572 g / cm^3
# Si number density = 18.177096 Si / 1000 Ang^3
#
#
#
# Elastic Constant Matrix: (Units=GPa)
#
#
# Indices 1 2 3 4 5 6 
#
# 1 100.8082 -0.8437 14.1627 0.0000 0.0000 0.0000
# 2 -0.8437 4.6208 -2.8219 0.0000 0.0000 0.0000
# 3 14.1627 -2.8219 49.9880 0.0000 0.0000 0.0000
# 4 0.0000 0.0000 0.0000 10.5788 0.0000 0.0000
# 5 0.0000 0.0000 0.0000 0.0000 9.0418 0.0000
# 6 0.0000 0.0000 0.0000 0.0000 0.0000 1.5837
#
#
#
# Elastic Compliance Matrix: (Units=1/GPa)
#
#
# Indices 1 2 3 4 5 6 
#
# 1 0.010331 0.000102 -0.002921 0.000000 0.000000 0.000000
# 2 0.000102 0.224141 0.012624 0.000000 0.000000 0.000000
# 3 -0.002921 0.012624 0.021545 0.000000 0.000000 0.000000
# 4 0.000000 0.000000 0.000000 0.094528 0.000000 0.000000
# 5 0.000000 0.000000 0.000000 0.000000 0.110597 0.000000
# 6 0.000000 0.000000 0.000000 0.000000 0.000000 0.631439
#
#
# Mechanical properties :
#
#
# Convention : Reuss Voigt Hill
#
# Bulk Modulus (GPa) = 3.62808 19.60123 11.61465
# Shear Modulus (GPa) = 4.29240 13.90219 9.09730
#
# Velocity S-wave (km/s) = 1.53836 2.76854 2.23957
# Velocity P-wave (km/s) = 2.27062 4.58548 3.61817
#
# Compressibility (1/GPa) = 0.27562815
#
# Stress axis : x y z
#
# Youngs Moduli (GPa) = 96.79514 4.46147 46.41423
#
# Poissons Ratio (x) = -0.00046 0.13559
# Poissons Ratio (y) = -0.00990 -0.58594
# Poissons Ratio (z) = 0.28276 -0.05632
#
# Static dielectric constant tensor:
#      x y z
#    x 1.648280 0.000000 0.000000 
#    y 0.000000 1.624250 0.000000 
#    z 0.000000 0.000000 1.634210 
# 
# From -- ./inp_files/47468.got.cif
#   From: 2010.05.17/outbox.cif.g08.bks.cpg/sg63_24_cif.got.tgz:47468.got - 2010.06.03 15:47:04.
