data_PCOD9471457
_publ_section_title
;
Structure prediction by ZEFSAII (Michael W. Deem and Ramdas Pophale) SiO2 
 PCOD9471457
Probable space group: C M C M
;
_chemical_formula_sum "Si O2"
_cell_formula_units_Z 104
_cell_length_a 17.921907
_cell_length_b 15.798556
_cell_length_c 19.168854
_cell_angle_alpha 90.000000
_cell_angle_beta 90.000000
_cell_angle_gamma 90.000000
_cell_volume 5427.474140
_symmetry_space_group_name_H-M "C M C M"
_symmetry_group_IT_number 63
_symmetry_cell_setting 'orthorhombic'
loop_
_space_group_symop_operation_xyz
x,y,z
-x,-y,1/2+z
x,-y,-z
-x,y,1/2-z
-x,-y,-z
x,y,1/2-z
-x,y,z
x,-y,1/2+z
1/2+x,1/2+y,z
1/2-x,1/2-y,1/2+z
1/2+x,1/2-y,-z
1/2-x,1/2+y,1/2-z
1/2-x,1/2-y,-z
1/2+x,1/2+y,1/2-z
1/2-x,1/2+y,z
1/2+x,1/2-y,1/2+z
loop_
_atom_site_type_symbol
_atom_site_label
_atom_site_fract_x
_atom_site_fract_y
_atom_site_fract_z
Si Si1 0.650042 0.054586 0.397250
Si Si2 0.586258 0.374634 0.101731
Si Si3 0.306058 0.490479 0.750000
Si Si4 0.912587 0.798315 0.959777
Si Si5 0.845847 0.173332 0.750000
Si Si6 0.089636 0.612622 0.952854
Si Si7 0.161636 0.628224 0.250000
Si Si8 0.329424 0.458749 0.599998
O O1 0.618525 0.094484 0.468696
O O2 0.626758 0.102457 0.325604
O O3 0.740033 0.049063 0.404469
O O4 0.620473 0.958420 0.400965
O O5 0.500000 0.403159 0.101879
O O6 0.608732 0.342470 0.178316
O O7 0.638449 0.451465 0.074382
O O8 0.593553 0.301681 0.043858
O O9 0.289914 0.591716 0.750000
O O10 0.233523 0.432560 0.750000
O O11 0.350256 0.466738 0.681349
O O12 0.886989 0.707322 0.932992
O O13 0.866777 0.876091 0.930336
O O14 0.000000 0.809741 0.943107
O O15 0.820897 0.271291 0.750000
O O16 0.000000 0.608436 0.954340
#
# Coordination Sequence:
#
# PCOD9471457 Si02
#       8
#    16  16   8  16   8  16   8  16
#     4  10  21  38  59  84 114 150 191 241 292 343
#     4  10  20  34  55  84 118 152 188 240 294 342
#     4   8  20  39  51  81 120 151 182 231 298 345
#     4  10  21  36  56  84 116 152 195 240 286 344
#     4  10  19  36  60  78 114 155 191 239 284 358
#     4  10  22  41  58  81 117 157 193 236 293 346
#     4  10  20  39  57  89 114 144 196 242 293 333
#     4  10  20  36  56  83 117 148 192 237 293 348
#
# _framework density 19.161767999999999
#
# number of rings (size 3 to 8) (size 9 to 14) (size 15 to 20)
#    0.000    2.154    0.000    3.000    4.308    1.846 
#   16.615    5.000    0.000    1.846    0.000    0.000 
#    0.000    0.000    0.000    0.000    0.000    0.000 
#
# Total GULP energy -289698.608540 kJ/mol
# GULP energy per Si atom -5571.127087 kJ/mol
# Density = 1.911816 g / cm^3
# Si number density = 19.161768 Si / 1000 Ang^3
#
#
#
# Elastic Constant Matrix: (Units=GPa)
#
#
# Indices 1 2 3 4 5 6 
#
# 1 45.3396 38.6097 8.8284 0.0000 0.0000 0.0000
# 2 38.6097 148.1070 53.3941 0.0000 0.0000 0.0000
# 3 8.8284 53.3941 70.5926 0.0000 0.0000 0.0000
# 4 0.0000 0.0000 0.0000 21.0374 0.0000 0.0000
# 5 0.0000 0.0000 0.0000 0.0000 -15.1511 0.0000
# 6 0.0000 0.0000 0.0000 0.0000 0.0000 27.7233
#
#
#
# Elastic Compliance Matrix: (Units=1/GPa)
#
#
# Indices 1 2 3 4 5 6 
#
# 1 0.028761 -0.008526 0.002852 0.000000 0.000000 0.000000
# 2 -0.008526 0.011811 -0.007867 0.000000 0.000000 0.000000
# 3 0.002852 -0.007867 0.019759 0.000000 0.000000 0.000000
# 4 0.000000 0.000000 0.000000 0.047534 0.000000 0.000000
# 5 0.000000 0.000000 0.000000 0.000000 -0.066002 0.000000
# 6 0.000000 0.000000 0.000000 0.000000 0.000000 0.036071
#
#
# Mechanical properties :
#
#
# Convention : Reuss Voigt Hill
#
# Bulk Modulus (GPa) = 30.07613 51.74484 40.91049
# Shear Modulus (GPa) = 43.06687 17.60239 30.33463
#
# Velocity S-wave (km/s) = 4.74597 3.03416 3.98311
# Velocity P-wave (km/s) = 6.76478 6.27198 6.52303
#
# Compressibility (1/GPa) = 0.03324896
#
# Stress axis : x y z
#
# Youngs Moduli (GPa) = 34.76974 84.67041 50.60874
#
# Poissons Ratio (x) = 0.72187 -0.14432
# Poissons Ratio (y) = 0.29643 0.39813
# Poissons Ratio (z) = -0.09915 0.66609
#
# Static dielectric constant tensor:
#      x y z
#    x 1.654150 0.000000 0.000000 
#    y 0.000000 1.685350 0.000000 
#    z 0.000000 0.000000 1.715900 
# 
# From -- ./inp_files/55666.got.cif
#   From: 2010.05.17/outbox.cif.g08.bks.cpg/sg63_28_cif.got.tgz:55666.got - 2010.06.03 15:47:04.
