data_PCOD9471432
_publ_section_title
;
Structure prediction by ZEFSAII (Michael W. Deem and Ramdas Pophale) SiO2 
 PCOD9471432
Probable space group: C M C M
;
_chemical_formula_sum "Si O2"
_cell_formula_units_Z 96
_cell_length_a 7.916451
_cell_length_b 21.668669
_cell_length_c 25.331812
_cell_angle_alpha 90.000000
_cell_angle_beta 90.000000
_cell_angle_gamma 90.000000
_cell_volume 4345.392594
_symmetry_space_group_name_H-M "C M C M"
_symmetry_group_IT_number 63
_symmetry_cell_setting 'orthorhombic'
loop_
_space_group_symop_operation_xyz
x,y,z
-x,-y,1/2+z
x,-y,-z
-x,y,1/2-z
-x,-y,-z
x,y,1/2-z
-x,y,z
x,-y,1/2+z
1/2+x,1/2+y,z
1/2-x,1/2-y,1/2+z
1/2+x,1/2-y,-z
1/2-x,1/2+y,1/2-z
1/2-x,1/2-y,-z
1/2+x,1/2+y,1/2-z
1/2-x,1/2+y,z
1/2+x,1/2-y,1/2+z
loop_
_atom_site_type_symbol
_atom_site_label
_atom_site_fract_x
_atom_site_fract_y
_atom_site_fract_z
Si Si1 0.297414 0.103803 0.307475
Si Si2 0.195095 0.665038 0.493841
Si Si3 0.291968 0.153853 0.885451
Si Si4 0.801904 0.788105 0.614073
Si Si5 0.806102 0.525962 0.654661
Si Si6 0.692946 0.461490 0.552890
O O1 0.240731 0.126902 0.250000
O O2 0.500000 0.097550 0.307108
O O3 0.261602 0.152761 0.353576
O O4 0.230183 0.033659 0.315567
O O5 0.263981 0.652517 0.552781
O O6 0.272929 0.709916 0.449470
O O7 0.215165 0.600675 0.463065
O O8 0.000000 0.681886 0.499311
O O9 0.500000 0.150590 0.885767
O O10 0.237476 0.221566 0.866003
O O11 0.232116 0.094898 0.851537
O O12 0.000000 0.788405 0.622101
O O13 0.796557 0.500256 0.595055
O O14 0.000000 0.533157 0.672796
O O15 0.679479 0.500000 0.500000
O O16 0.500000 0.448807 0.571922
#
# Coordination Sequence:
#
# PCOD9471432 Si02
#       6
#    16  16  16  16  16  16
#     4  10  22  40  62  85 106 138 189 240 287 343
#     4  11  20  33  54  80 114 158 195 226 266 327
#     4   9  20  35  54  83 117 152 188 225 273 333
#     4  11  22  37  56  83 118 151 188 234 280 332
#     4  10  19  36  59  79 107 146 188 232 277 331
#     4  11  21  31  48  81 119 150 183 227 274 323
#
# _framework density 22.092365000000001
#
# number of rings (size 3 to 8) (size 9 to 14) (size 15 to 20)
#    0.000    1.667    3.333    2.000    0.000    1.000 
#    0.000    5.000    0.000    3.000    0.000    0.000 
#    0.000    0.000    0.000    0.000    0.000    0.000 
#
# Total GULP energy -267581.190766 kJ/mol
# GULP energy per Si atom -5574.608141 kJ/mol
# Density = 2.204208 g / cm^3
# Si number density = 22.092365 Si / 1000 Ang^3
#
#
#
# Elastic Constant Matrix: (Units=GPa)
#
#
# Indices 1 2 3 4 5 6 
#
# 1 34.5568 10.7521 6.4470 0.0000 0.0000 0.0000
# 2 10.7521 156.3646 31.3190 0.0000 0.0000 0.0000
# 3 6.4470 31.3190 82.6549 0.0000 0.0000 0.0000
# 4 0.0000 0.0000 0.0000 21.2222 0.0000 0.0000
# 5 0.0000 0.0000 0.0000 0.0000 9.8580 0.0000
# 6 0.0000 0.0000 0.0000 0.0000 0.0000 16.1885
#
#
#
# Elastic Compliance Matrix: (Units=1/GPa)
#
#
# Indices 1 2 3 4 5 6 
#
# 1 0.029783 -0.001713 -0.001674 0.000000 0.000000 0.000000
# 2 -0.001713 0.007019 -0.002526 0.000000 0.000000 0.000000
# 3 -0.001674 -0.002526 0.013186 0.000000 0.000000 0.000000
# 4 0.000000 0.000000 0.000000 0.047120 0.000000 0.000000
# 5 0.000000 0.000000 0.000000 0.000000 0.101441 0.000000
# 6 0.000000 0.000000 0.000000 0.000000 0.000000 0.061772
#
#
# Mechanical properties :
#
#
# Convention : Reuss Voigt Hill
#
# Bulk Modulus (GPa) = 26.20357 41.17916 33.69137
# Shear Modulus (GPa) = 17.55198 24.45762 21.00480
#
# Velocity S-wave (km/s) = 2.82171 3.33086 3.08680
# Velocity P-wave (km/s) = 4.74371 5.78558 5.29035
#
# Compressibility (1/GPa) = 0.03816274
#
# Stress axis : x y z
#
# Youngs Moduli (GPa) = 33.57615 142.46998 75.83676
#
# Poissons Ratio (x) = 0.24400 0.12696
# Poissons Ratio (y) = 0.05750 0.19156
# Poissons Ratio (z) = 0.05621 0.35988
#
# Static dielectric constant tensor:
#      x y z
#    x 1.827260 0.000000 0.000000 
#    y 0.000000 1.897550 0.000000 
#    z 0.000000 0.000000 1.835680 
# 
# From -- ./inp_files/66897.got.cif
#   From: 2010.05.17/outbox.cif.g08.bks.cpg/sg63_34_cif.got.tgz:66897.got - 2010.06.03 15:47:04.
