data_PCOD9471039
_publ_section_title
;
Structure prediction by ZEFSAII (Michael W. Deem and Ramdas Pophale) SiO2 
 PCOD9471039
Probable space group: C M C M
;
_chemical_formula_sum "Si O2"
_cell_formula_units_Z 88
_cell_length_a 17.678898
_cell_length_b 32.773952
_cell_length_c 8.973189
_cell_angle_alpha 90.000000
_cell_angle_beta 90.000000
_cell_angle_gamma 90.000000
_cell_volume 5199.131700
_symmetry_space_group_name_H-M "C M C M"
_symmetry_group_IT_number 63
_symmetry_cell_setting 'orthorhombic'
loop_
_space_group_symop_operation_xyz
x,y,z
-x,-y,1/2+z
x,-y,-z
-x,y,1/2-z
-x,-y,-z
x,y,1/2-z
-x,y,z
x,-y,1/2+z
1/2+x,1/2+y,z
1/2-x,1/2-y,1/2+z
1/2+x,1/2-y,-z
1/2-x,1/2+y,1/2-z
1/2-x,1/2-y,-z
1/2+x,1/2+y,1/2-z
1/2-x,1/2+y,z
1/2+x,1/2-y,1/2+z
loop_
_atom_site_type_symbol
_atom_site_label
_atom_site_fract_x
_atom_site_fract_y
_atom_site_fract_z
Si Si1 0.236561 0.385060 0.427464
Si Si2 0.500000 0.544677 0.071877
Si Si3 0.915754 0.353017 0.570168
Si Si4 0.666391 0.454803 0.570506
Si Si5 0.802677 0.192442 0.418544
Si Si6 0.135966 0.266071 0.919233
O O1 0.235363 0.387980 0.250000
O O2 0.152626 0.375935 0.490244
O O3 0.271464 0.425199 0.501560
O O4 0.288042 0.346693 0.479394
O O5 0.500000 0.540275 0.250000
O O6 0.418000 0.562688 0.032602
O O7 0.500000 0.500000 0.000000
O O8 0.903520 0.354233 0.750000
O O9 0.911032 0.305085 0.526901
O O10 0.000000 0.368635 0.538364
O O11 0.671685 0.500000 0.500000
O O12 0.673321 0.457066 0.750000
O O13 0.821111 0.179833 0.250000
O O14 0.860813 0.225636 0.482345
O O15 0.721480 0.215672 0.413884
O O16 0.113468 0.255988 0.750000
#
# Coordination Sequence:
#
# PCOD9471039 Si02
#       6
#    16   8  16  16  16  16
#     4  11  21  32  49  75 104 136 174 214 256 302
#     4   8  16  30  52  78 102 128 156 192 238 292
#     4   9  18  33  52  73  99 134 175 219 264 307
#     4  10  19  34  55  80 107 134 166 204 250 304
#     4   9  16  27  44  66  92 124 161 201 247 297
#     4   8  14  25  43  67  92 119 156 201 250 300
#
# _framework density 16.925903000000002
#
# number of rings (size 3 to 8) (size 9 to 14) (size 15 to 20)
#    0.000    2.727    0.000    3.818    0.000    5.455 
#    0.000    0.000    2.000    0.545    0.000    0.000 
#    0.000    0.000    0.000    0.000    0.000    0.000 
#
# Total GULP energy -245023.795308 kJ/mol
# GULP energy per Si atom -5568.722621 kJ/mol
# Density = 1.688738 g / cm^3
# Si number density = 16.925903 Si / 1000 Ang^3
#
#
#
# Elastic Constant Matrix: (Units=GPa)
#
#
# Indices 1 2 3 4 5 6 
#
# 1 98.9266 54.2336 52.1626 0.0000 0.0000 0.0000
# 2 54.2336 78.5604 49.5931 0.0000 0.0000 0.0000
# 3 52.1626 49.5931 91.4251 0.0000 0.0000 0.0000
# 4 0.0000 0.0000 0.0000 26.6042 0.0000 0.0000
# 5 0.0000 0.0000 0.0000 0.0000 14.9159 0.0000
# 6 0.0000 0.0000 0.0000 0.0000 0.0000 17.9426
#
#
#
# Elastic Compliance Matrix: (Units=1/GPa)
#
#
# Indices 1 2 3 4 5 6 
#
# 1 0.017812 -0.008944 -0.005311 0.000000 0.000000 0.000000
# 2 -0.008944 0.023848 -0.007834 0.000000 0.000000 0.000000
# 3 -0.005311 -0.007834 0.018218 0.000000 0.000000 0.000000
# 4 0.000000 0.000000 0.000000 0.037588 0.000000 0.000000
# 5 0.000000 0.000000 0.000000 0.000000 0.067043 0.000000
# 6 0.000000 0.000000 0.000000 0.000000 0.000000 0.055733
#
#
# Mechanical properties :
#
#
# Convention : Reuss Voigt Hill
#
# Bulk Modulus (GPa) = 63.69021 64.54341 64.11681
# Shear Modulus (GPa) = 18.54236 19.42073 18.98154
#
# Velocity S-wave (km/s) = 3.31343 3.39100 3.35244
# Velocity P-wave (km/s) = 7.23526 7.31762 7.27655
#
# Compressibility (1/GPa) = 0.01570100
#
# Stress axis : x y z
#
# Youngs Moduli (GPa) = 56.14142 41.93163 54.89191
#
# Poissons Ratio (x) = 0.37502 0.29155
# Poissons Ratio (y) = 0.50211 0.43000
# Poissons Ratio (z) = 0.29819 0.32848
#
# Static dielectric constant tensor:
#      x y z
#    x 1.598830 0.000000 0.000000 
#    y 0.000000 1.556300 0.000000 
#    z 0.000000 0.000000 1.572460 
# 
# From -- ./inp_files/6886.got.cif
#   From: 2010.05.17/outbox.cif.g08.bks.cpg/sg63_4_cif.got.tgz:6886.got - 2010.06.03 15:47:04.
