data_PCOD9471124
_publ_section_title
;
Structure prediction by ZEFSAII (Michael W. Deem and Ramdas Pophale) SiO2 
 PCOD9471124
Probable space group: C M C M
;
_chemical_formula_sum "Si O2"
_cell_formula_units_Z 96
_cell_length_a 7.491808
_cell_length_b 20.442862
_cell_length_c 28.361090
_cell_angle_alpha 90.000000
_cell_angle_beta 90.000000
_cell_angle_gamma 90.000000
_cell_volume 4343.614295
_symmetry_space_group_name_H-M "C M C M"
_symmetry_group_IT_number 63
_symmetry_cell_setting 'orthorhombic'
loop_
_space_group_symop_operation_xyz
x,y,z
-x,-y,1/2+z
x,-y,-z
-x,y,1/2-z
-x,-y,-z
x,y,1/2-z
-x,y,z
x,-y,1/2+z
1/2+x,1/2+y,z
1/2-x,1/2-y,1/2+z
1/2+x,1/2-y,-z
1/2-x,1/2+y,1/2-z
1/2-x,1/2-y,-z
1/2+x,1/2+y,1/2-z
1/2-x,1/2+y,z
1/2+x,1/2-y,1/2+z
loop_
_atom_site_type_symbol
_atom_site_label
_atom_site_fract_x
_atom_site_fract_y
_atom_site_fract_z
Si Si1 0.784764 0.597196 0.304243
Si Si2 0.288233 0.700190 0.042400
Si Si3 0.208494 0.273389 0.647708
Si Si4 0.780425 0.141434 0.804282
Si Si5 0.218181 0.950679 0.541811
Si Si6 0.297272 0.478007 0.364249
O O1 0.745258 0.610477 0.250000
O O2 0.717065 0.657204 0.335680
O O3 0.702438 0.530535 0.322483
O O4 0.000000 0.590479 0.309110
O O5 0.500000 0.695058 0.046495
O O6 0.222038 0.730328 0.091593
O O7 0.220995 0.624969 0.036536
O O8 0.250000 0.750000 0.000000
O O9 0.279985 0.211442 0.675930
O O10 0.000000 0.275740 0.660591
O O11 0.726428 0.130596 0.750000
O O12 0.000000 0.139452 0.804528
O O13 0.716696 0.086675 0.841209
O O14 0.280431 0.984006 0.590701
O O15 0.000000 0.948349 0.542361
O O16 0.270148 0.000000 0.500000
O O17 0.500000 0.460685 0.378369
#
# Coordination Sequence:
#
# PCOD9471124 Si02
#       6
#    16  16  16  16  16  16
#     4  10  20  34  54  80 113 150 182 219 274 335
#     4  11  23  39  60  85 113 142 181 228 278 335
#     4  10  20  36  58  81 111 147 186 227 272 323
#     4   9  18  32  54  84 112 144 191 236 269 314
#     4   9  19  35  57  83 110 140 180 228 279 329
#     4  10  19  34  57  83 109 140 184 235 276 319
#
# _framework density 22.101409
#
# number of rings (size 3 to 8) (size 9 to 14) (size 15 to 20)
#    0.000    2.167    1.667    1.500    2.333    3.000 
#    0.000    0.833    0.000    5.000    0.000    0.000 
#    0.000    0.000    0.000    0.000    0.000    0.000 
#
# Total GULP energy -268042.868237 kJ/mol
# GULP energy per Si atom -5584.226422 kJ/mol
# Density = 2.205111 g / cm^3
# Si number density = 22.101409 Si / 1000 Ang^3
#
#
#
# Elastic Constant Matrix: (Units=GPa)
#
#
# Indices 1 2 3 4 5 6 
#
# 1 59.6448 2.7310 -9.3082 0.0000 0.0000 0.0000
# 2 2.7310 100.7886 11.1573 0.0000 0.0000 0.0000
# 3 -9.3082 11.1573 78.0203 0.0000 0.0000 0.0000
# 4 0.0000 0.0000 0.0000 45.6253 0.0000 0.0000
# 5 0.0000 0.0000 0.0000 0.0000 15.6088 0.0000
# 6 0.0000 0.0000 0.0000 0.0000 0.0000 -11.9553
#
#
#
# Elastic Compliance Matrix: (Units=1/GPa)
#
#
# Indices 1 2 3 4 5 6 
#
# 1 0.017133 -0.000702 0.002144 0.000000 0.000000 0.000000
# 2 -0.000702 0.010110 -0.001529 0.000000 0.000000 0.000000
# 3 0.002144 -0.001529 0.013292 0.000000 0.000000 0.000000
# 4 0.000000 0.000000 0.000000 0.021918 0.000000 0.000000
# 5 0.000000 0.000000 0.000000 0.000000 0.064066 0.000000
# 6 0.000000 0.000000 0.000000 0.000000 0.000000 -0.083645
#
#
# Mechanical properties :
#
#
# Convention : Reuss Voigt Hill
#
# Bulk Modulus (GPa) = 24.77642 27.51267 26.14455
# Shear Modulus (GPa) = 88.49384 25.44733 56.97058
#
# Velocity S-wave (km/s) = 6.33457 3.39689 5.08260
# Velocity P-wave (km/s) = 8.04594 5.27831 6.80433
#
# Compressibility (1/GPa) = 0.04036095
#
# Stress axis : x y z
#
# Youngs Moduli (GPa) = 58.36795 98.91111 75.23477
#
# Poissons Ratio (x) = 0.06940 -0.16133
# Poissons Ratio (y) = 0.04095 0.11507
# Poissons Ratio (z) = -0.12516 0.15128
#
# Static dielectric constant tensor:
#      x y z
#    x 1.890270 0.000000 0.000000 
#    y 0.000000 1.778560 0.000000 
#    z 0.000000 0.000000 1.767940 
# 
# From -- ./inp_files/66945.got.cif
#   From: 2010.05.17/outbox.cif.g08.bks.cpg/sg63_34_cif.got.tgz:66945.got - 2010.06.03 15:47:04.
