data_PCOD9471307
_publ_section_title
;
Structure prediction by ZEFSAII (Michael W. Deem and Ramdas Pophale) SiO2 
 PCOD9471307
Probable space group: C M C M
;
_chemical_formula_sum "Si O2"
_cell_formula_units_Z 116
_cell_length_a 16.596837
_cell_length_b 9.387433
_cell_length_c 33.260530
_cell_angle_alpha 90.000000
_cell_angle_beta 90.000000
_cell_angle_gamma 90.000000
_cell_volume 5182.046962
_symmetry_space_group_name_H-M "C M C M"
_symmetry_group_IT_number 63
_symmetry_cell_setting 'orthorhombic'
loop_
_space_group_symop_operation_xyz
x,y,z
-x,-y,1/2+z
x,-y,-z
-x,y,1/2-z
-x,-y,-z
x,y,1/2-z
-x,y,z
x,-y,1/2+z
1/2+x,1/2+y,z
1/2-x,1/2-y,1/2+z
1/2+x,1/2-y,-z
1/2-x,1/2+y,1/2-z
1/2-x,1/2-y,-z
1/2+x,1/2+y,1/2-z
1/2-x,1/2+y,z
1/2+x,1/2-y,1/2+z
loop_
_atom_site_type_symbol
_atom_site_label
_atom_site_fract_x
_atom_site_fract_y
_atom_site_fract_z
Si Si1 0.087811 0.590436 0.119544
Si Si2 0.587936 0.254330 0.620202
Si Si3 0.725214 0.188668 0.825623
Si Si4 0.910888 0.858789 0.025795
Si Si5 0.148134 0.401942 0.705771
Si Si6 0.859549 0.674216 0.959196
Si Si7 0.500000 0.000000 0.500000
Si Si8 0.801378 0.826842 0.091665
O O1 0.090520 0.419631 0.118674
O O2 0.093822 0.627656 0.166830
O O3 0.164382 0.664877 0.098296
O O4 0.000000 0.637599 0.104399
O O5 0.500000 0.302466 0.633002
O O6 0.658343 0.285964 0.651444
O O7 0.603514 0.284963 0.573503
O O8 0.780562 0.287051 0.798468
O O9 0.775914 0.127248 0.863798
O O10 0.684498 0.059511 0.802016
O O11 0.878595 0.891573 0.069789
O O12 0.000000 0.789105 0.024604
O O13 0.852594 0.751199 0.002173
O O14 0.913967 0.000000 0.000000
O O15 0.111241 0.394896 0.750000
O O16 0.927106 0.554634 0.968319
O O17 0.773711 0.644499 0.938198
#
# Coordination Sequence:
#
# PCOD9471307 Si02
#       8
#    16  16  16  16  16  16   4  16
#     4   9  19  34  57  86 116 146 186 225 285 342
#     4   9  17  33  55  82 109 143 183 241 282 338
#     4   9  20  35  55  85 110 145 191 229 282 344
#     4  11  24  39  51  73 111 151 190 234 292 344
#     4  10  19  35  58  85 117 148 181 230 285 344
#     4  11  23  36  54  82 104 143 193 239 296 335
#     4  12  24  36  58  80 110 136 194 250 304 340
#     4  10  22  37  56  80 110 150 192 239 280 347
#
# _framework density 22.384976999999999
#
# number of rings (size 3 to 8) (size 9 to 14) (size 15 to 20)
#    0.000    2.069    1.379    1.241    2.897    5.793 
#    0.000    0.000    0.000    4.552    0.000    0.000 
#    0.000    0.000    0.000    0.000    0.000    0.000 
#
# Total GULP energy -322914.117346 kJ/mol
# GULP energy per Si atom -5567.484782 kJ/mol
# Density = 2.233403 g / cm^3
# Si number density = 22.384977 Si / 1000 Ang^3
#
#
#
# Elastic Constant Matrix: (Units=GPa)
#
#
# Indices 1 2 3 4 5 6 
#
# 1 85.1222 11.1572 19.8792 0.0000 0.0000 0.0000
# 2 11.1572 36.2272 7.3532 0.0000 0.0000 0.0000
# 3 19.8792 7.3532 110.0836 0.0000 0.0000 0.0000
# 4 0.0000 0.0000 0.0000 24.5805 0.0000 0.0000
# 5 0.0000 0.0000 0.0000 0.0000 19.5094 0.0000
# 6 0.0000 0.0000 0.0000 0.0000 0.0000 11.4872
#
#
#
# Elastic Compliance Matrix: (Units=1/GPa)
#
#
# Indices 1 2 3 4 5 6 
#
# 1 0.012686 -0.003489 -0.002058 0.000000 0.000000 0.000000
# 2 -0.003489 0.028943 -0.001303 0.000000 0.000000 0.000000
# 3 -0.002058 -0.001303 0.009543 0.000000 0.000000 0.000000
# 4 0.000000 0.000000 0.000000 0.040683 0.000000 0.000000
# 5 0.000000 0.000000 0.000000 0.000000 0.051257 0.000000
# 6 0.000000 0.000000 0.000000 0.000000 0.000000 0.087053
#
#
# Mechanical properties :
#
#
# Convention : Reuss Voigt Hill
#
# Bulk Modulus (GPa) = 26.68755 34.24582 30.46668
# Shear Modulus (GPa) = 19.50418 23.98496 21.74457
#
# Velocity S-wave (km/s) = 2.95499 3.27689 3.12010
# Velocity P-wave (km/s) = 4.85702 5.44510 5.15944
#
# Compressibility (1/GPa) = 0.03747066
#
# Stress axis : x y z
#
# Youngs Moduli (GPa) = 78.82873 34.55105 104.79269
#
# Poissons Ratio (x) = 0.12056 0.21564
# Poissons Ratio (y) = 0.27505 0.13656
# Poissons Ratio (z) = 0.16221 0.04503
#
# Static dielectric constant tensor:
#      x y z
#    x 1.858090 0.000000 0.000000 
#    y 0.000000 1.926170 0.000000 
#    z 0.000000 0.000000 1.880020 
# 
# From -- ./inp_files/73950.got.cif
#   From: 2010.05.17/outbox.cif.g08.bks.cpg/sg63_37_cif.got.tgz:73950.got - 2010.06.03 15:47:04.
