data_PCOD9471765
_publ_section_title
;
Structure prediction by ZEFSAII (Michael W. Deem and Ramdas Pophale) SiO2 
 PCOD9471765
Probable space group: C M C M
;
_chemical_formula_sum "Si O2"
_cell_formula_units_Z 80
_cell_length_a 7.529158
_cell_length_b 15.292471
_cell_length_c 31.545429
_cell_angle_alpha 90.000000
_cell_angle_beta 90.000000
_cell_angle_gamma 90.000000
_cell_volume 3632.122726
_symmetry_space_group_name_H-M "C M C M"
_symmetry_group_IT_number 63
_symmetry_cell_setting 'orthorhombic'
loop_
_space_group_symop_operation_xyz
x,y,z
-x,-y,1/2+z
x,-y,-z
-x,y,1/2-z
-x,-y,-z
x,y,1/2-z
-x,y,z
x,-y,1/2+z
1/2+x,1/2+y,z
1/2-x,1/2-y,1/2+z
1/2+x,1/2-y,-z
1/2-x,1/2+y,1/2-z
1/2-x,1/2-y,-z
1/2+x,1/2+y,1/2-z
1/2-x,1/2+y,z
1/2+x,1/2-y,1/2+z
loop_
_atom_site_type_symbol
_atom_site_label
_atom_site_fract_x
_atom_site_fract_y
_atom_site_fract_z
Si Si1 0.282428 0.362092 0.201526
Si Si2 0.215863 0.963193 0.545731
Si Si3 0.714943 0.787524 0.638430
Si Si4 0.193057 0.735035 0.451786
Si Si5 0.289458 0.493514 0.636315
O O1 0.222589 0.366027 0.250000
O O2 0.500000 0.363294 0.202351
O O3 0.229658 0.273454 0.177198
O O4 0.219336 0.443773 0.172977
O O5 0.306194 0.869750 0.550250
O O6 0.269554 0.015003 0.588101
O O7 0.000000 0.951869 0.546352
O O8 0.263396 0.000000 0.500000
O O9 0.500000 0.784238 0.635586
O O10 0.784410 0.747152 0.593575
O O11 0.761428 0.889715 0.643368
O O12 0.250000 0.750000 0.500000
O O13 0.000000 0.778233 0.449505
O O14 0.500000 0.507733 0.636034
#
# Coordination Sequence:
#
# PCOD9471765 Si02
#       5
#    16  16  16  16  16
#     4   9  18  33  55  80 102 133 176 215 256 309
#     4   9  18  31  50  73 100 135 172 207 251 308
#     4   9  19  35  54  75 105 139 173 214 259 310
#     4  10  20  32  49  73 103 136 173 213 257 307
#     4   9  18  33  53  76 104 135 171 213 256 305
#
# _framework density 22.025687000000001
#
# number of rings (size 3 to 8) (size 9 to 14) (size 15 to 20)
#    0.000    2.800    0.000    0.600    2.800    2.000 
#    0.000    1.000    0.000    1.200    0.000    0.000 
#    0.000    0.000    0.000    0.000    0.000    0.000 
#
# Total GULP energy -222857.046925 kJ/mol
# GULP energy per Si atom -5571.426173 kJ/mol
# Density = 2.197556 g / cm^3
# Si number density = 22.025687 Si / 1000 Ang^3
#
#
#
# Elastic Constant Matrix: (Units=GPa)
#
#
# Indices 1 2 3 4 5 6 
#
# 1 45.6856 -11.5669 9.6506 0.0000 0.0000 0.0000
# 2 -11.5669 75.1020 84.0603 0.0000 0.0000 0.0000
# 3 9.6506 84.0603 255.1894 0.0000 0.0000 0.0000
# 4 0.0000 0.0000 0.0000 41.5870 0.0000 0.0000
# 5 0.0000 0.0000 0.0000 0.0000 6.4753 0.0000
# 6 0.0000 0.0000 0.0000 0.0000 0.0000 17.3623
#
#
#
# Elastic Compliance Matrix: (Units=1/GPa)
#
#
# Indices 1 2 3 4 5 6 
#
# 1 0.024549 0.007635 -0.003443 0.000000 0.000000 0.000000
# 2 0.007635 0.023466 -0.008019 0.000000 0.000000 0.000000
# 3 -0.003443 -0.008019 0.006690 0.000000 0.000000 0.000000
# 4 0.000000 0.000000 0.000000 0.024046 0.000000 0.000000
# 5 0.000000 0.000000 0.000000 0.000000 0.154433 0.000000
# 6 0.000000 0.000000 0.000000 0.000000 0.000000 0.057596
#
#
# Mechanical properties :
#
#
# Convention : Reuss Voigt Hill
#
# Bulk Modulus (GPa) = 21.25313 60.02945 40.64129
# Shear Modulus (GPa) = 15.91757 32.67379 24.29568
#
# Velocity S-wave (km/s) = 2.69119 3.85572 3.32484
# Velocity P-wave (km/s) = 4.39623 6.86554 5.76465
#
# Compressibility (1/GPa) = 0.04705189
#
# Stress axis : x y z
#
# Youngs Moduli (GPa) = 40.73450 42.61445 149.47155
#
# Poissons Ratio (x) = -0.32537 0.51470
# Poissons Ratio (y) = -0.31101 1.19855
# Poissons Ratio (z) = 0.14027 0.34171
#
# Static dielectric constant tensor:
#      x y z
#    x 1.834840 0.000000 0.000000 
#    y 0.000000 1.761650 0.000000 
#    z 0.000000 0.000000 1.863900 
# 
# From -- ./inp_files/66600.got.cif
#   From: 2010.05.17/outbox.cif.g08.bks.cpg/sg63_34_cif.got.tgz:66600.got - 2010.06.03 15:47:04.
