data_PCOD9471023
_publ_section_title
;
Structure prediction by ZEFSAII (Michael W. Deem and Ramdas Pophale) SiO2 
 PCOD9471023
Probable space group: C M C M
;
_chemical_formula_sum "Si O2"
_cell_formula_units_Z 112
_cell_length_a 15.915452
_cell_length_b 13.414532
_cell_length_c 28.014738
_cell_angle_alpha 90.000000
_cell_angle_beta 90.000000
_cell_angle_gamma 90.000000
_cell_volume 5981.100063
_symmetry_space_group_name_H-M "C M C M"
_symmetry_group_IT_number 63
_symmetry_cell_setting 'orthorhombic'
loop_
_space_group_symop_operation_xyz
x,y,z
-x,-y,1/2+z
x,-y,-z
-x,y,1/2-z
-x,-y,-z
x,y,1/2-z
-x,y,z
x,-y,1/2+z
1/2+x,1/2+y,z
1/2-x,1/2-y,1/2+z
1/2+x,1/2-y,-z
1/2-x,1/2+y,1/2-z
1/2-x,1/2-y,-z
1/2+x,1/2+y,1/2-z
1/2-x,1/2+y,z
1/2+x,1/2-y,1/2+z
loop_
_atom_site_type_symbol
_atom_site_label
_atom_site_fract_x
_atom_site_fract_y
_atom_site_fract_z
Si Si1 0.595752 0.818703 0.807353
Si Si2 0.906382 0.172551 0.125492
Si Si3 0.315285 0.493104 0.919600
Si Si4 0.664055 0.025323 0.652376
Si Si5 0.908706 0.632466 0.935535
Si Si6 0.242264 0.134208 0.989778
Si Si7 0.771790 0.729209 0.693932
O O1 0.592178 0.813200 0.750000
O O2 0.500000 0.797642 0.824962
O O3 0.674639 0.747744 0.821947
O O4 0.624284 0.930233 0.822052
O O5 0.893316 0.062756 0.103986
O O6 0.898595 0.253626 0.082786
O O7 0.834055 0.201416 0.162988
O O8 0.000000 0.184259 0.145884
O O9 0.245049 0.496447 0.878912
O O10 0.319523 0.599517 0.946565
O O11 0.283935 0.421825 0.962444
O O12 0.600323 0.069939 0.613194
O O13 0.695339 0.116753 0.685217
O O14 0.833834 0.604166 0.970282
O O15 0.000000 0.619537 0.957261
O O16 0.250000 0.250000 0.000000
O O17 0.777171 0.753357 0.750000
#
# Coordination Sequence:
#
# PCOD9471023 Si02
#       7
#    16  16  16  16  16  16  16
#     4  10  20  35  58  87 115 147 192 242 290 348
#     4  10  19  35  57  82 112 144 186 236 285 342
#     4  10  20  34  54  82 107 149 186 229 281 335
#     4  10  19  34  57  81 114 152 190 231 288 342
#     4   9  18  32  53  80 109 143 182 231 282 330
#     4  10  19  34  55  76 110 147 185 225 280 334
#     4  10  21  37  58  84 117 154 191 238 295 348
#
# _framework density 18.725652
#
# number of rings (size 3 to 8) (size 9 to 14) (size 15 to 20)
#    0.000    2.143    2.857    0.857    0.000    0.857 
#    0.000    9.286    0.000    0.000    0.000    0.000 
#    0.000    0.000    0.000    0.000    0.000    0.000 
#
# Total GULP energy -311894.233248 kJ/mol
# GULP energy per Si atom -5569.539879 kJ/mol
# Density = 1.868303 g / cm^3
# Si number density = 18.725652 Si / 1000 Ang^3
#
#
#
# Elastic Constant Matrix: (Units=GPa)
#
#
# Indices 1 2 3 4 5 6 
#
# 1 103.8970 5.4954 29.3169 0.0000 0.0000 0.0000
# 2 5.4954 24.1036 3.6513 0.0000 0.0000 0.0000
# 3 29.3169 3.6513 43.0649 0.0000 0.0000 0.0000
# 4 0.0000 0.0000 0.0000 15.6128 0.0000 0.0000
# 5 0.0000 0.0000 0.0000 0.0000 19.1908 0.0000
# 6 0.0000 0.0000 0.0000 0.0000 0.0000 12.9436
#
#
#
# Elastic Compliance Matrix: (Units=1/GPa)
#
#
# Indices 1 2 3 4 5 6 
#
# 1 0.011968 -0.001514 -0.008019 0.000000 0.000000 0.000000
# 2 -0.001514 0.042219 -0.002549 0.000000 0.000000 0.000000
# 3 -0.008019 -0.002549 0.028896 0.000000 0.000000 0.000000
# 4 0.000000 0.000000 0.000000 0.064050 0.000000 0.000000
# 5 0.000000 0.000000 0.000000 0.000000 0.052108 0.000000
# 6 0.000000 0.000000 0.000000 0.000000 0.000000 0.077258
#
#
# Mechanical properties :
#
#
# Convention : Reuss Voigt Hill
#
# Bulk Modulus (GPa) = 16.97244 27.55476 22.26360
# Shear Modulus (GPa) = 15.61029 18.38957 16.99993
#
# Velocity S-wave (km/s) = 2.89040 3.13717 3.01631
# Velocity P-wave (km/s) = 4.49696 5.27915 4.90367
#
# Compressibility (1/GPa) = 0.05891904
#
# Stress axis : x y z
#
# Youngs Moduli (GPa) = 83.55849 23.68607 34.60712
#
# Poissons Ratio (x) = 0.03586 0.27751
# Poissons Ratio (y) = 0.12649 0.08822
# Poissons Ratio (z) = 0.67004 0.06038
#
# Static dielectric constant tensor:
#      x y z
#    x 1.655270 0.000000 0.000000 
#    y 0.000000 1.701260 0.000000 
#    z 0.000000 0.000000 1.634180 
# 
# From -- ./inp_files/73557.got.cif
#   From: 2010.05.17/outbox.cif.g08.bks.cpg/sg63_37_cif.got.tgz:73557.got - 2010.06.03 15:47:04.
