data_PCOD9471515
_publ_section_title
;
Structure prediction by ZEFSAII (Michael W. Deem and Ramdas Pophale) SiO2 
 PCOD9471515
Probable space group: C M C M
;
_chemical_formula_sum "Si O2"
_cell_formula_units_Z 96
_cell_length_a 16.619639
_cell_length_b 12.888717
_cell_length_c 22.960896
_cell_angle_alpha 90.000000
_cell_angle_beta 90.000000
_cell_angle_gamma 90.000000
_cell_volume 4918.357641
_symmetry_space_group_name_H-M "C M C M"
_symmetry_group_IT_number 63
_symmetry_cell_setting 'orthorhombic'
loop_
_space_group_symop_operation_xyz
x,y,z
-x,-y,1/2+z
x,-y,-z
-x,y,1/2-z
-x,-y,-z
x,y,1/2-z
-x,y,z
x,-y,1/2+z
1/2+x,1/2+y,z
1/2-x,1/2-y,1/2+z
1/2+x,1/2-y,-z
1/2-x,1/2+y,1/2-z
1/2-x,1/2-y,-z
1/2+x,1/2+y,1/2-z
1/2-x,1/2+y,z
1/2+x,1/2-y,1/2+z
loop_
_atom_site_type_symbol
_atom_site_label
_atom_site_fract_x
_atom_site_fract_y
_atom_site_fract_z
Si Si1 0.412457 0.607696 0.034336
Si Si2 0.409009 0.837434 0.518568
Si Si3 0.647640 0.867976 0.105555
Si Si4 0.328675 0.068931 0.181113
Si Si5 0.500000 0.835593 0.318221
Si Si6 0.253097 0.325183 0.907846
Si Si7 0.000000 0.588971 0.316646
O O1 0.500000 0.611821 0.065299
O O2 0.331161 0.613340 0.070855
O O3 0.411100 0.500000 0.000000
O O4 0.410160 0.713255 0.995771
O O5 0.500000 0.864180 0.540198
O O6 0.395689 0.893382 0.455696
O O7 0.327216 0.852579 0.555667
O O8 0.676892 0.963993 0.143885
O O9 0.580438 0.809527 0.145406
O O10 0.721370 0.794326 0.088203
O O11 0.330130 0.048818 0.250000
O O12 0.413543 0.120470 0.161630
O O13 0.261549 0.146155 0.159168
O O14 0.500000 0.804524 0.250000
O O15 0.500000 0.962831 0.318491
O O16 0.000000 0.622657 0.250000
#
# Coordination Sequence:
#
# PCOD9471515 Si02
#       7
#    16  16  16  16   8  16   8
#     4   9  19  36  58  81 113 152 186 223 272 340
#     4  10  21  37  55  87 120 145 184 232 292 340
#     4  10  19  37  56  81 114 148 186 238 278 336
#     4  10  22  37  56  81 111 150 193 233 278 336
#     4   9  16  30  57  81 103 147 187 232 284 323
#     4  11  24  33  60  85 118 144 188 232 287 336
#     4   7  14  32  51  71 100 135 181 220 265 323
#
# _framework density 19.518711
#
# number of rings (size 3 to 8) (size 9 to 14) (size 15 to 20)
#    0.000    2.333    0.833    3.500    7.000    1.333 
#    0.000    0.833    0.000    0.000    0.000    0.000 
#    0.000    0.000    0.000    0.000    0.000    0.000 
#
# Total GULP energy -267264.695307 kJ/mol
# GULP energy per Si atom -5568.014486 kJ/mol
# Density = 1.947429 g / cm^3
# Si number density = 19.518711 Si / 1000 Ang^3
#
#
#
# Elastic Constant Matrix: (Units=GPa)
#
#
# Indices 1 2 3 4 5 6 
#
# 1 151.1005 13.5940 56.5657 0.0000 0.0000 0.0000
# 2 13.5940 22.6411 4.9298 0.0000 0.0000 0.0000
# 3 56.5657 4.9298 90.0134 0.0000 0.0000 0.0000
# 4 0.0000 0.0000 0.0000 21.6998 0.0000 0.0000
# 5 0.0000 0.0000 0.0000 0.0000 29.9882 0.0000
# 6 0.0000 0.0000 0.0000 0.0000 0.0000 10.7924
#
#
#
# Elastic Compliance Matrix: (Units=1/GPa)
#
#
# Indices 1 2 3 4 5 6 
#
# 1 0.009039 -0.004241 -0.005448 0.000000 0.000000 0.000000
# 2 -0.004241 0.046690 0.000108 0.000000 0.000000 0.000000
# 3 -0.005448 0.000108 0.014527 0.000000 0.000000 0.000000
# 4 0.000000 0.000000 0.000000 0.046083 0.000000 0.000000
# 5 0.000000 0.000000 0.000000 0.000000 0.033346 0.000000
# 6 0.000000 0.000000 0.000000 0.000000 0.000000 0.092658
#
#
# Mechanical properties :
#
#
# Convention : Reuss Voigt Hill
#
# Bulk Modulus (GPa) = 19.57161 45.99267 32.78214
# Shear Modulus (GPa) = 17.95087 25.07378 21.51232
#
# Velocity S-wave (km/s) = 3.03590 3.58802 3.32345
# Velocity P-wave (km/s) = 4.72629 6.38590 5.61772
#
# Compressibility (1/GPa) = 0.05109442
#
# Stress axis : x y z
#
# Youngs Moduli (GPa) = 110.62940 21.41778 68.83644
#
# Poissons Ratio (x) = 0.09083 0.37503
# Poissons Ratio (y) = 0.46918 -0.00743
# Poissons Ratio (z) = 0.60272 -0.00231
#
# Static dielectric constant tensor:
#      x y z
#    x 1.740910 0.000000 0.000000 
#    y 0.000000 1.701660 0.000000 
#    z 0.000000 0.000000 1.698350 
# 
# From -- ./inp_files/62927.got.cif
#   From: 2010.05.17/outbox.cif.g08.bks.cpg/sg63_32_cif.got.tgz:62927.got - 2010.06.03 15:47:04.
