data_PCOD9471137
_publ_section_title
;
Structure prediction by ZEFSAII (Michael W. Deem and Ramdas Pophale) SiO2 
 PCOD9471137
Probable space group: C M C M
;
_chemical_formula_sum "Si O2"
_cell_formula_units_Z 112
_cell_length_a 18.292731
_cell_length_b 11.226918
_cell_length_c 28.216886
_cell_angle_alpha 90.000000
_cell_angle_beta 90.000000
_cell_angle_gamma 90.000000
_cell_volume 5794.929839
_symmetry_space_group_name_H-M "C M C M"
_symmetry_group_IT_number 63
_symmetry_cell_setting 'orthorhombic'
loop_
_space_group_symop_operation_xyz
x,y,z
-x,-y,1/2+z
x,-y,-z
-x,y,1/2-z
-x,-y,-z
x,y,1/2-z
-x,y,z
x,-y,1/2+z
1/2+x,1/2+y,z
1/2-x,1/2-y,1/2+z
1/2+x,1/2-y,-z
1/2-x,1/2+y,1/2-z
1/2-x,1/2-y,-z
1/2+x,1/2+y,1/2-z
1/2-x,1/2+y,z
1/2+x,1/2-y,1/2+z
loop_
_atom_site_type_symbol
_atom_site_label
_atom_site_fract_x
_atom_site_fract_y
_atom_site_fract_z
Si Si1 0.163900 0.941404 0.626482
Si Si2 0.412365 0.886451 0.465682
Si Si3 0.087779 0.882879 0.529036
Si Si4 0.822989 0.532668 0.874649
Si Si5 0.629555 0.855493 0.801893
Si Si6 0.293080 0.245398 0.803983
Si Si7 0.082187 0.902662 0.197034
O O1 0.118149 0.900619 0.581650
O O2 0.247626 0.966345 0.611282
O O3 0.161018 0.842207 0.667358
O O4 0.129632 0.054130 0.653123
O O5 0.500000 0.885170 0.455458
O O6 0.393421 0.753859 0.486129
O O7 0.399061 0.000000 0.500000
O O8 0.364587 0.908658 0.418559
O O9 0.000000 0.888305 0.528852
O O10 0.114113 0.000000 0.500000
O O11 0.875239 0.442224 0.846221
O O12 0.797773 0.627297 0.835050
O O13 0.619294 0.913281 0.750000
O O14 0.711527 0.800030 0.802699
O O15 0.579853 0.739821 0.804811
O O16 0.316360 0.226195 0.750000
O O17 0.112417 0.933096 0.250000
O O18 0.000000 0.951138 0.193666
#
# Coordination Sequence:
#
# PCOD9471137 Si02
#       7
#    16  16  16  16  16  16  16
#     4  11  21  36  59  90 120 153 198 252 299 353
#     4  10  23  45  67  87 117 157 201 251 314 381
#     4  10  22  42  65  88 117 157 203 253 310 365
#     4  11  21  36  61  89 117 154 199 248 298 358
#     4   9  19  33  52  82 120 161 199 236 285 349
#     4  10  19  34  57  85 121 159 197 240 291 348
#     4  10  20  34  53  81 121 163 201 243 291 351
#
# _framework density 19.327238999999999
#
# number of rings (size 3 to 8) (size 9 to 14) (size 15 to 20)
#    0.000    1.857    2.857    1.286    0.000    3.429 
#    0.000    2.857    0.000    2.143    0.000    0.000 
#    0.000    0.000    0.000    0.000    0.000    0.000 
#
# Total GULP energy -312127.183721 kJ/mol
# GULP energy per Si atom -5573.699709 kJ/mol
# Density = 1.928325 g / cm^3
# Si number density = 19.327239 Si / 1000 Ang^3
#
#
#
# Elastic Constant Matrix: (Units=GPa)
#
#
# Indices 1 2 3 4 5 6 
#
# 1 16.4732 7.7606 19.6741 0.0000 0.0000 0.0000
# 2 7.7606 100.1493 43.9705 0.0000 0.0000 0.0000
# 3 19.6741 43.9705 82.6401 0.0000 0.0000 0.0000
# 4 0.0000 0.0000 0.0000 29.8114 0.0000 0.0000
# 5 0.0000 0.0000 0.0000 0.0000 -3.5050 0.0000
# 6 0.0000 0.0000 0.0000 0.0000 0.0000 16.5486
#
#
#
# Elastic Compliance Matrix: (Units=1/GPa)
#
#
# Indices 1 2 3 4 5 6 
#
# 1 0.085515 0.003016 -0.021963 0.000000 0.000000 0.000000
# 2 0.003016 0.013135 -0.007707 0.000000 0.000000 0.000000
# 3 -0.021963 -0.007707 0.021430 0.000000 0.000000 0.000000
# 4 0.000000 0.000000 0.000000 0.033544 0.000000 0.000000
# 5 0.000000 0.000000 0.000000 0.000000 -0.285307 0.000000
# 6 0.000000 0.000000 0.000000 0.000000 0.000000 0.060428
#
#
# Mechanical properties :
#
#
# Convention : Reuss Voigt Hill
#
# Bulk Modulus (GPa) = 14.97632 38.00810 26.49221
# Shear Modulus (GPa) = 1160.11074 17.09482 588.60278
#
# Velocity S-wave (km/s) = 24.52651 2.97727 17.47017
# Velocity P-wave (km/s) = 28.45754 5.61490 20.51047
#
# Compressibility (1/GPa) = 0.06677208
#
# Stress axis : x y z
#
# Youngs Moduli (GPa) = 11.69391 76.13205 46.66328
#
# Poissons Ratio (x) = -0.22965 1.02488
# Poissons Ratio (y) = -0.03527 0.35963
# Poissons Ratio (z) = 0.25684 0.58674
#
# Static dielectric constant tensor:
#      x y z
#    x 1.694740 0.000000 0.000000 
#    y 0.000000 1.742470 0.000000 
#    z 0.000000 0.000000 1.660680 
# 
# From -- ./inp_files/64651.got.cif
#   From: 2010.05.17/outbox.cif.g08.bks.cpg/sg63_33_cif.got.tgz:64651.got - 2010.06.03 15:47:04.
