data_PCOD9471065
_publ_section_title
;
Structure prediction by ZEFSAII (Michael W. Deem and Ramdas Pophale) SiO2 
 PCOD9471065
Probable space group: C M C M
;
_chemical_formula_sum "Si O2"
_cell_formula_units_Z 80
_cell_length_a 9.897562
_cell_length_b 26.042390
_cell_length_c 17.710043
_cell_angle_alpha 90.000000
_cell_angle_beta 90.000000
_cell_angle_gamma 90.000000
_cell_volume 4564.872848
_symmetry_space_group_name_H-M "C M C M"
_symmetry_group_IT_number 63
_symmetry_cell_setting 'orthorhombic'
loop_
_space_group_symop_operation_xyz
x,y,z
-x,-y,1/2+z
x,-y,-z
-x,y,1/2-z
-x,-y,-z
x,y,1/2-z
-x,y,z
x,-y,1/2+z
1/2+x,1/2+y,z
1/2-x,1/2-y,1/2+z
1/2+x,1/2-y,-z
1/2-x,1/2+y,1/2-z
1/2-x,1/2-y,-z
1/2+x,1/2+y,1/2-z
1/2-x,1/2+y,z
1/2+x,1/2-y,1/2+z
loop_
_atom_site_type_symbol
_atom_site_label
_atom_site_fract_x
_atom_site_fract_y
_atom_site_fract_z
Si Si1 0.000000 0.721235 0.403859
Si Si2 0.500000 0.616659 0.839607
Si Si3 0.000000 0.728475 0.915663
Si Si4 0.721763 0.297444 0.159669
Si Si5 0.000000 0.839376 0.840008
Si Si6 0.208205 0.928827 0.659771
Si Si7 0.000000 0.606814 0.341211
Si Si8 0.500000 0.494458 0.410987
O O1 0.130714 0.750108 0.369670
O O2 0.000000 0.726295 0.494055
O O3 0.000000 0.662529 0.378592
O O4 0.500000 0.605242 0.750000
O O5 0.630775 0.652162 0.855393
O O6 0.500000 0.564269 0.885232
O O7 0.135180 0.703060 0.881825
O O8 0.000000 0.787418 0.886841
O O9 0.739785 0.292704 0.250000
O O10 0.871460 0.875713 0.856788
O O11 0.000000 0.827507 0.750000
O O12 0.198516 0.935830 0.750000
O O13 0.363513 0.922816 0.638074
O O14 0.129157 0.975193 0.621599
O O15 0.000000 0.613661 0.250000
O O16 0.500000 0.500000 0.500000
#
# Coordination Sequence:
#
# PCOD9471065 Si02
#       8
#     8   8   8  16   8  16   8   8
#     4  11  22  34  52  81 117 152 177 213 274 330
#     4   9  20  39  58  71  96 141 184 220 262 317
#     4  12  22  32  52  84 117 143 177 232 272 302
#     4  10  21  37  55  76 105 148 194 223 252 315
#     4   9  17  31  52  76 106 144 177 214 262 314
#     4   9  19  35  56  80 103 132 177 222 261 315
#     4  10  19  34  56  79 106 141 175 216 268 321
#     4  11  22  36  58  81 104 135 170 217 277 328
#
# _framework density 17.525131999999999
#
# number of rings (size 3 to 8) (size 9 to 14) (size 15 to 20)
#    0.000    2.000    0.000    5.700    0.000    6.400 
#    0.000    1.500    0.000    2.400    0.000    0.000 
#    0.000    0.000    0.000    0.000    0.000    0.000 
#
# Total GULP energy -223418.094978 kJ/mol
# GULP energy per Si atom -5585.452374 kJ/mol
# Density = 1.748524 g / cm^3
# Si number density = 17.525132 Si / 1000 Ang^3
#
#
#
# Elastic Constant Matrix: (Units=GPa)
#
#
# Indices 1 2 3 4 5 6 
#
# 1 138.9652 48.2787 34.5107 0.0000 0.0000 0.0000
# 2 48.2787 99.2502 50.6085 0.0000 0.0000 0.0000
# 3 34.5107 50.6085 52.4177 0.0000 0.0000 0.0000
# 4 0.0000 0.0000 0.0000 -299.8927 0.0000 0.0000
# 5 0.0000 0.0000 0.0000 0.0000 14.9093 0.0000
# 6 0.0000 0.0000 0.0000 0.0000 0.0000 0.8164
#
#
#
# Elastic Compliance Matrix: (Units=1/GPa)
#
#
# Indices 1 2 3 4 5 6 
#
# 1 0.008944 -0.002655 -0.003325 0.000000 0.000000 0.000000
# 2 -0.002655 0.020634 -0.018174 0.000000 0.000000 0.000000
# 3 -0.003325 -0.018174 0.038813 0.000000 0.000000 0.000000
# 4 0.000000 0.000000 0.000000 -0.003335 0.000000 0.000000
# 5 0.000000 0.000000 0.000000 0.000000 0.067072 0.000000
# 6 0.000000 0.000000 0.000000 0.000000 0.000000 1.224906
#
#
# Mechanical properties :
#
#
# Convention : Reuss Voigt Hill
#
# Bulk Modulus (GPa) = 49.79254 61.93656 55.86455
# Shear Modulus (GPa) = 3.54098 -46.35106 -21.40504
#
# Velocity S-wave (km/s) = 1.42299 -5.14837 -3.49863
# Velocity P-wave (km/s) = 5.58333 0.27800 3.95290
#
# Compressibility (1/GPa) = 0.02008333
#
# Stress axis : x y z
#
# Youngs Moduli (GPa) = 111.80308 48.46339 25.76446
#
# Poissons Ratio (x) = 0.12869 0.08567
# Poissons Ratio (y) = 0.29687 0.46824
# Poissons Ratio (z) = 0.37175 0.88076
#
# Static dielectric constant tensor:
#      x y z
#    x 1.603070 0.000000 0.000000 
#    y 0.000000 1.563730 0.000000 
#    z 0.000000 0.000000 1.574140 
# 
# From -- ./inp_files/40668.got.cif
#   From: 2010.05.17/outbox.cif.g08.bks.cpg/sg63_21_cif.got.tgz:40668.got - 2010.06.03 15:47:04.
