data_PCOD9471876
_publ_section_title
;
Structure prediction by ZEFSAII (Michael W. Deem and Ramdas Pophale) SiO2 
 PCOD9471876
Probable space group: C M C M
;
_chemical_formula_sum "Si O2"
_cell_formula_units_Z 80
_cell_length_a 9.133830
_cell_length_b 26.720962
_cell_length_c 19.296205
_cell_angle_alpha 90.000000
_cell_angle_beta 90.000000
_cell_angle_gamma 90.000000
_cell_volume 4709.522954
_symmetry_space_group_name_H-M "C M C M"
_symmetry_group_IT_number 63
_symmetry_cell_setting 'orthorhombic'
loop_
_space_group_symop_operation_xyz
x,y,z
-x,-y,1/2+z
x,-y,-z
-x,y,1/2-z
-x,-y,-z
x,y,1/2-z
-x,y,z
x,-y,1/2+z
1/2+x,1/2+y,z
1/2-x,1/2-y,1/2+z
1/2+x,1/2-y,-z
1/2-x,1/2+y,1/2-z
1/2-x,1/2-y,-z
1/2+x,1/2+y,1/2-z
1/2-x,1/2+y,z
1/2+x,1/2-y,1/2+z
loop_
_atom_site_type_symbol
_atom_site_label
_atom_site_fract_x
_atom_site_fract_y
_atom_site_fract_z
Si Si1 0.176909 0.055904 0.583510
Si Si2 0.677348 0.443256 0.921552
Si Si3 0.668633 0.746497 0.834320
Si Si4 0.172824 0.355645 0.166954
Si Si5 0.324264 0.651126 0.331990
O O1 0.214812 0.063365 0.502380
O O2 0.252278 0.097685 0.629629
O O3 0.000000 0.059354 0.589949
O O4 0.222737 0.998952 0.601650
O O5 0.500000 0.443601 0.918505
O O6 0.727296 0.397256 0.874603
O O7 0.671156 0.746612 0.750000
O O8 0.500000 0.745165 0.856588
O O9 0.753012 0.696442 0.856158
O O10 0.747359 0.797764 0.855740
O O11 0.193278 0.359895 0.250000
O O12 0.000000 0.354270 0.153067
O O13 0.295605 0.644124 0.250000
O O14 0.500000 0.656340 0.340101
#
# Coordination Sequence:
#
# PCOD9471876 Si02
#       5
#    16  16  16  16  16
#     4   9  17  32  52  71  95 128 164 198 232 276
#     4   8  16  31  50  72  98 128 160 195 235 278
#     4   9  17  30  48  70  95 123 156 194 237 283
#     4  10  20  33  49  71  98 125 156 197 242 285
#     4   9  16  28  48  72  97 125 156 191 234 283
#
# _framework density 16.986858999999999
#
# number of rings (size 3 to 8) (size 9 to 14) (size 15 to 20)
#    0.000    3.000    0.000    2.400    0.000    4.400 
#    0.000    7.000    0.000    2.400    0.000    0.000 
#    0.000    0.000    0.000    0.000    0.000    0.000 
#
# Total GULP energy -222877.561932 kJ/mol
# GULP energy per Si atom -5571.939048 kJ/mol
# Density = 1.694820 g / cm^3
# Si number density = 16.986859 Si / 1000 Ang^3
#
#
#
# Elastic Constant Matrix: (Units=GPa)
#
#
# Indices 1 2 3 4 5 6 
#
# 1 63.5491 82.5416 42.3620 0.0000 0.0000 0.0000
# 2 82.5416 212.0392 73.6705 0.0000 0.0000 0.0000
# 3 42.3620 73.6705 35.7997 0.0000 0.0000 0.0000
# 4 0.0000 0.0000 0.0000 -49.4000 0.0000 0.0000
# 5 0.0000 0.0000 0.0000 0.0000 16.4646 0.0000
# 6 0.0000 0.0000 0.0000 0.0000 0.0000 29.6130
#
#
#
# Elastic Compliance Matrix: (Units=1/GPa)
#
#
# Indices 1 2 3 4 5 6 
#
# 1 0.076530 0.005867 -0.102632 0.000000 0.000000 0.000000
# 2 0.005867 0.016996 -0.041918 0.000000 0.000000 0.000000
# 3 -0.102632 -0.041918 0.235639 0.000000 0.000000 0.000000
# 4 0.000000 0.000000 0.000000 -0.020243 0.000000 0.000000
# 5 0.000000 0.000000 0.000000 0.000000 0.060736 0.000000
# 6 0.000000 0.000000 0.000000 0.000000 0.000000 0.033769
#
#
# Mechanical properties :
#
#
# Convention : Reuss Voigt Hill
#
# Bulk Modulus (GPa) = 19.30518 78.72623 49.01571
# Shear Modulus (GPa) = 7.16271 6.85645 7.00958
#
# Velocity S-wave (km/s) = 2.05567 2.01124 2.03358
# Velocity P-wave (km/s) = 4.12599 7.19996 5.86785
#
# Compressibility (1/GPa) = 0.05179957
#
# Stress axis : x y z
#
# Youngs Moduli (GPa) = 13.06674 58.83693 4.24378
#
# Poissons Ratio (x) = -0.34519 0.43555
# Poissons Ratio (y) = -0.07666 0.17789
# Poissons Ratio (z) = 1.34106 2.46632
#
# Static dielectric constant tensor:
#      x y z
#    x 1.568870 0.000000 0.000000 
#    y 0.000000 1.567590 0.000000 
#    z 0.000000 0.000000 1.561240 
# 
# From -- ./inp_files/40436.got.cif
#   From: 2010.05.17/outbox.cif.g08.bks.cpg/sg63_21_cif.got.tgz:40436.got - 2010.06.03 15:47:04.
