data_PCOD9471636
_publ_section_title
;
Structure prediction by ZEFSAII (Michael W. Deem and Ramdas Pophale) SiO2 
 PCOD9471636
Probable space group: C M C M
;
_chemical_formula_sum "Si O2"
_cell_formula_units_Z 96
_cell_length_a 10.661105
_cell_length_b 19.415534
_cell_length_c 26.846685
_cell_angle_alpha 90.000000
_cell_angle_beta 90.000000
_cell_angle_gamma 90.000000
_cell_volume 5557.023426
_symmetry_space_group_name_H-M "C M C M"
_symmetry_group_IT_number 63
_symmetry_cell_setting 'orthorhombic'
loop_
_space_group_symop_operation_xyz
x,y,z
-x,-y,1/2+z
x,-y,-z
-x,y,1/2-z
-x,-y,-z
x,y,1/2-z
-x,y,z
x,-y,1/2+z
1/2+x,1/2+y,z
1/2-x,1/2-y,1/2+z
1/2+x,1/2-y,-z
1/2-x,1/2+y,1/2-z
1/2-x,1/2-y,-z
1/2+x,1/2+y,1/2-z
1/2-x,1/2+y,z
1/2+x,1/2-y,1/2+z
loop_
_atom_site_type_symbol
_atom_site_label
_atom_site_fract_x
_atom_site_fract_y
_atom_site_fract_z
Si Si1 0.730735 0.421909 0.501110
Si Si2 0.645391 0.680811 0.360640
Si Si3 0.632778 0.718858 0.472088
Si Si4 0.152036 0.683743 0.805414
Si Si5 0.356252 0.075686 0.394010
Si Si6 0.852030 0.414538 0.393896
O O1 0.680669 0.500000 0.500000
O O2 0.635417 0.362370 0.515885
O O3 0.832067 0.420452 0.546160
O O4 0.786557 0.404677 0.447137
O O5 0.500000 0.656578 0.354077
O O6 0.645386 0.723250 0.412763
O O7 0.678235 0.736802 0.318919
O O8 0.749714 0.622061 0.367923
O O9 0.500000 0.749878 0.487850
O O10 0.750000 0.750000 0.500000
O O11 0.197185 0.666117 0.750000
O O12 0.197076 0.633492 0.849408
O O13 0.000000 0.677743 0.805291
O O14 0.500000 0.096425 0.383226
O O15 0.339955 0.995357 0.380458
O O16 0.000000 0.400576 0.400742
#
# Coordination Sequence:
#
# PCOD9471636 Si02
#       6
#    16  16  16  16  16  16
#     4   9  17  29  46  69  98 129 158 187 226 279
#     4   9  18  32  48  67  93 123 155 193 234 274
#     4  10  20  31  45  68  97 127 157 192 232 275
#     4   9  17  30  49  69  88 118 162 204 238 276
#     4   9  17  29  48  74 100 126 155 186 229 286
#     4   9  16  28  46  69  97 125 156 196 236 274
#
# _framework density 17.275435000000002
#
# number of rings (size 3 to 8) (size 9 to 14) (size 15 to 20)
#    0.000    2.833    0.000    1.500    0.000    7.000 
#    0.000    3.333    0.000    2.500    0.000    0.000 
#    0.000    0.000    0.000    0.000    0.000    0.000 
#
# Total GULP energy -267346.580590 kJ/mol
# GULP energy per Si atom -5569.720429 kJ/mol
# Density = 1.723612 g / cm^3
# Si number density = 17.275435 Si / 1000 Ang^3
#
#
#
# Elastic Constant Matrix: (Units=GPa)
#
#
# Indices 1 2 3 4 5 6 
#
# 1 72.2397 31.1678 12.3470 0.0000 0.0000 0.0000
# 2 31.1678 64.2487 42.3522 0.0000 0.0000 0.0000
# 3 12.3470 42.3522 87.7525 0.0000 0.0000 0.0000
# 4 0.0000 0.0000 0.0000 22.2827 0.0000 0.0000
# 5 0.0000 0.0000 0.0000 0.0000 7.0602 0.0000
# 6 0.0000 0.0000 0.0000 0.0000 0.0000 -4.8342
#
#
#
# Elastic Compliance Matrix: (Units=1/GPa)
#
#
# Indices 1 2 3 4 5 6 
#
# 1 0.017858 -0.010276 0.002447 0.000000 0.000000 0.000000
# 2 -0.010276 0.028740 -0.012425 0.000000 0.000000 0.000000
# 3 0.002447 -0.012425 0.017048 0.000000 0.000000 0.000000
# 4 0.000000 0.000000 0.000000 0.044878 0.000000 0.000000
# 5 0.000000 0.000000 0.000000 0.000000 0.141639 0.000000
# 6 0.000000 0.000000 0.000000 0.000000 0.000000 -0.206861
#
#
# Mechanical properties :
#
#
# Convention : Reuss Voigt Hill
#
# Bulk Modulus (GPa) = 43.21925 43.99723 43.60824
# Shear Modulus (GPa) = 54.63003 14.12666 34.37835
#
# Velocity S-wave (km/s) = 5.62953 2.86270 4.46580
# Velocity P-wave (km/s) = 8.20534 6.03739 7.20339
#
# Compressibility (1/GPa) = 0.02313784
#
# Stress axis : x y z
#
# Youngs Moduli (GPa) = 55.99637 34.79452 58.65747
#
# Poissons Ratio (x) = 0.35756 -0.14353
# Poissons Ratio (y) = 0.57544 0.72882
# Poissons Ratio (z) = -0.13702 0.43232
#
# Static dielectric constant tensor:
#      x y z
#    x 1.583170 0.000000 0.000000 
#    y 0.000000 1.622910 0.000000 
#    z 0.000000 0.000000 1.589300 
# 
# From -- ./inp_files/68315.got.cif
#   From: 2010.05.17/outbox.cif.g08.bks.cpg/sg63_35_cif.got.tgz:68315.got - 2010.06.03 15:47:04.
