data_PCOD9471047
_publ_section_title
;
Structure prediction by ZEFSAII (Michael W. Deem and Ramdas Pophale) SiO2 
 PCOD9471047
Probable space group: C M C M
;
_chemical_formula_sum "Si O2"
_cell_formula_units_Z 104
_cell_length_a 28.570188
_cell_length_b 23.399910
_cell_length_c 8.625434
_cell_angle_alpha 90.000000
_cell_angle_beta 90.000000
_cell_angle_gamma 90.000000
_cell_volume 5766.446162
_symmetry_space_group_name_H-M "C M C M"
_symmetry_group_IT_number 63
_symmetry_cell_setting 'orthorhombic'
loop_
_space_group_symop_operation_xyz
x,y,z
-x,-y,1/2+z
x,-y,-z
-x,y,1/2-z
-x,-y,-z
x,y,1/2-z
-x,y,z
x,-y,1/2+z
1/2+x,1/2+y,z
1/2-x,1/2-y,1/2+z
1/2+x,1/2-y,-z
1/2-x,1/2+y,1/2-z
1/2-x,1/2-y,-z
1/2+x,1/2+y,1/2-z
1/2-x,1/2+y,z
1/2+x,1/2-y,1/2+z
loop_
_atom_site_type_symbol
_atom_site_label
_atom_site_fract_x
_atom_site_fract_y
_atom_site_fract_z
Si Si1 0.237592 0.937580 0.434905
Si Si2 0.302298 0.259891 0.567138
Si Si3 0.645874 0.628609 0.935860
Si Si4 0.553561 0.564075 0.562368
Si Si5 0.000000 0.564162 0.935299
Si Si6 0.398656 0.935418 0.062892
Si Si7 0.182517 0.641648 0.432917
O O1 0.244749 0.936886 0.250000
O O2 0.183931 0.921005 0.468858
O O3 0.270052 0.888986 0.509676
O O4 0.249299 0.000000 0.500000
O O5 0.298036 0.266456 0.750000
O O6 0.250000 0.250000 0.500000
O O7 0.331452 0.313541 0.502650
O O8 0.326629 0.200662 0.520925
O O9 0.643924 0.635735 0.750000
O O10 0.594690 0.607341 0.989574
O O11 0.562425 0.500000 0.500000
O O12 0.555218 0.562033 0.750000
O O13 0.500000 0.579884 0.517382
O O14 0.050023 0.589945 0.978184
O O15 0.000000 0.559735 0.750000
O O16 0.000000 0.500000 0.000000
O O17 0.392539 0.935024 0.250000
O O18 0.358448 0.901204 0.978611
O O19 0.397497 0.000000 0.000000
O O20 0.185234 0.651677 0.250000
#
# Coordination Sequence:
#
# PCOD9471047 Si02
#       7
#    16  16  16  16   8  16  16
#     4  11  22  35  53  79 114 149 185 228 277 333
#     4  12  24  40  61  83 108 144 188 232 279 334
#     4  10  21  37  58  83 114 152 193 235 281 335
#     4   9  18  34  58  89 123 157 193 237 288 342
#     4   8  16  30  52  78 106 140 176 218 265 320
#     4  10  19  34  55  82 113 145 182 225 277 332
#     4  12  24  38  56  79 109 146 187 231 279 332
#
# _framework density 18.035371000000001
#
# number of rings (size 3 to 8) (size 9 to 14) (size 15 to 20)
#    0.000    1.538    1.538    4.615    0.000    1.846 
#    0.000    0.000    1.692    0.000    0.000    0.000 
#    0.000    0.000    0.000    0.000    0.000    0.000 
#
# Total GULP energy -290193.650918 kJ/mol
# GULP energy per Si atom -5580.647133 kJ/mol
# Density = 1.799432 g / cm^3
# Si number density = 18.035371 Si / 1000 Ang^3
#
#
#
# Elastic Constant Matrix: (Units=GPa)
#
#
# Indices 1 2 3 4 5 6 
#
# 1 133.6228 46.2312 33.8524 0.0000 0.0000 0.0000
# 2 46.2312 95.0123 17.8447 0.0000 0.0000 0.0000
# 3 33.8524 17.8447 41.6424 0.0000 0.0000 0.0000
# 4 0.0000 0.0000 0.0000 28.7908 0.0000 0.0000
# 5 0.0000 0.0000 0.0000 0.0000 12.9207 0.0000
# 6 0.0000 0.0000 0.0000 0.0000 0.0000 16.5613
#
#
#
# Elastic Compliance Matrix: (Units=1/GPa)
#
#
# Indices 1 2 3 4 5 6 
#
# 1 0.010573 -0.003839 -0.006950 0.000000 0.000000 0.000000
# 2 -0.003839 0.012840 -0.002381 0.000000 0.000000 0.000000
# 3 -0.006950 -0.002381 0.030684 0.000000 0.000000 0.000000
# 4 0.000000 0.000000 0.000000 0.034733 0.000000 0.000000
# 5 0.000000 0.000000 0.000000 0.000000 0.077395 0.000000
# 6 0.000000 0.000000 0.000000 0.000000 0.000000 0.060382
#
#
# Mechanical properties :
#
#
# Convention : Reuss Voigt Hill
#
# Bulk Modulus (GPa) = 36.02751 51.79267 43.91009
# Shear Modulus (GPa) = 19.06939 23.14449 21.10694
#
# Velocity S-wave (km/s) = 3.25519 3.58618 3.42469
# Velocity P-wave (km/s) = 5.84361 6.77696 6.32752
#
# Compressibility (1/GPa) = 0.02775656
#
# Stress axis : x y z
#
# Youngs Moduli (GPa) = 94.58316 77.87987 32.59028
#
# Poissons Ratio (x) = 0.29900 0.22649
# Poissons Ratio (y) = 0.36313 0.07761
# Poissons Ratio (z) = 0.65732 0.18546
#
# Static dielectric constant tensor:
#      x y z
#    x 1.666250 0.000000 0.000000 
#    y 0.000000 1.643590 0.000000 
#    z 0.000000 0.000000 1.607980 
# 
# From -- ./inp_files/12573.got.cif
#   From: 2010.05.17/outbox.cif.g08.bks.cpg/sg63_7_cif.got.tgz:12573.got - 2010.06.03 15:47:04.
