data_PCOD9471677
_publ_section_title
;
Structure prediction by ZEFSAII (Michael W. Deem and Ramdas Pophale) SiO2 
 PCOD9471677
Probable space group: C M C M
;
_chemical_formula_sum "Si O2"
_cell_formula_units_Z 104
_cell_length_a 32.656503
_cell_length_b 21.382180
_cell_length_c 8.575843
_cell_angle_alpha 90.000000
_cell_angle_beta 90.000000
_cell_angle_gamma 90.000000
_cell_volume 5988.230096
_symmetry_space_group_name_H-M "C M C M"
_symmetry_group_IT_number 63
_symmetry_cell_setting 'orthorhombic'
loop_
_space_group_symop_operation_xyz
x,y,z
-x,-y,1/2+z
x,-y,-z
-x,y,1/2-z
-x,-y,-z
x,y,1/2-z
-x,y,z
x,-y,1/2+z
1/2+x,1/2+y,z
1/2-x,1/2-y,1/2+z
1/2+x,1/2-y,-z
1/2-x,1/2+y,1/2-z
1/2-x,1/2-y,-z
1/2+x,1/2+y,1/2-z
1/2-x,1/2+y,z
1/2+x,1/2-y,1/2+z
loop_
_atom_site_type_symbol
_atom_site_label
_atom_site_fract_x
_atom_site_fract_y
_atom_site_fract_z
Si Si1 0.572104 0.656531 0.934938
Si Si2 0.134953 0.681179 0.936795
Si Si3 0.454289 0.798814 0.934920
Si Si4 0.658685 0.680892 0.434901
Si Si5 0.783785 0.931686 0.938585
Si Si6 0.000000 0.931300 0.437829
Si Si7 0.188311 0.567506 0.063350
O O1 0.581058 0.649275 0.750000
O O2 0.550699 0.723975 0.952893
O O3 0.540364 0.604984 0.989130
O O4 0.613723 0.654622 0.030007
O O5 0.135842 0.682757 0.750000
O O6 0.154898 0.747300 0.995661
O O7 0.087401 0.675810 0.988626
O O8 0.161022 0.623403 0.998484
O O9 0.452755 0.812545 0.750000
O O10 0.500000 0.817287 0.992058
O O11 0.665958 0.685824 0.250000
O O12 0.690876 0.629151 0.495117
O O13 0.786338 0.933538 0.750000
O O14 0.736045 0.924373 0.983218
O O15 0.797774 0.000000 0.000000
O O16 0.000000 0.929400 0.250000
O O17 0.000000 0.000000 0.500000
O O18 0.186395 0.567330 0.250000
O O19 0.174785 0.500000 0.000000
#
# Coordination Sequence:
#
# PCOD9471677 Si02
#       7
#    16  16  16  16  16   8  16
#     4   9  17  31  48  66  91 126 167 211 255 298
#     4  10  20  33  51  79 110 137 168 209 257 308
#     4   9  16  30  53  75  97 129 168 209 250 297
#     4   9  19  34  50  73 105 135 167 213 262 305
#     4   9  19  35  53  73 100 136 177 216 258 306
#     4  10  20  32  44  62  90 126 169 214 257 302
#     4  10  20  36  57  78 102 135 172 210 253 307
#
# _framework density 17.367401999999998
#
# number of rings (size 3 to 8) (size 9 to 14) (size 15 to 20)
#    0.000    2.615    0.769    0.923    0.000    4.000 
#    0.000    3.077    0.000    0.462    0.000    0.000 
#    0.000    0.000    0.000    0.000    0.000    0.000 
#
# Total GULP energy -289689.963581 kJ/mol
# GULP energy per Si atom -5570.960838 kJ/mol
# Density = 1.732787 g / cm^3
# Si number density = 17.367402 Si / 1000 Ang^3
#
#
#
# Elastic Constant Matrix: (Units=GPa)
#
#
# Indices 1 2 3 4 5 6 
#
# 1 101.9559 87.9326 23.3090 0.0000 0.0000 0.0000
# 2 87.9326 134.9420 24.0101 0.0000 0.0000 0.0000
# 3 23.3090 24.0101 14.3977 0.0000 0.0000 0.0000
# 4 0.0000 0.0000 0.0000 26.3701 0.0000 0.0000
# 5 0.0000 0.0000 0.0000 0.0000 25.7614 0.0000
# 6 0.0000 0.0000 0.0000 0.0000 0.0000 258.8073
#
#
#
# Elastic Compliance Matrix: (Units=1/GPa)
#
#
# Indices 1 2 3 4 5 6 
#
# 1 0.025736 -0.013305 -0.019477 0.000000 0.000000 0.000000
# 2 -0.013305 0.017415 -0.007503 0.000000 0.000000 0.000000
# 3 -0.019477 -0.007503 0.113500 0.000000 0.000000 0.000000
# 4 0.000000 0.000000 0.000000 0.037922 0.000000 0.000000
# 5 0.000000 0.000000 0.000000 0.000000 0.038818 0.000000
# 6 0.000000 0.000000 0.000000 0.000000 0.000000 0.003864
#
#
# Mechanical properties :
#
#
# Convention : Reuss Voigt Hill
#
# Bulk Modulus (GPa) = 13.14383 57.97766 35.56074
# Shear Modulus (GPa) = 14.56942 69.92402 42.24672
#
# Velocity S-wave (km/s) = 2.89951 6.35209 4.93742
# Velocity P-wave (km/s) = 4.33521 9.34100 7.28177
#
# Compressibility (1/GPa) = 0.07608134
#
# Stress axis : x y z
#
# Youngs Moduli (GPa) = 38.85647 57.42067 8.81058
#
# Poissons Ratio (x) = 0.76396 0.17161
# Poissons Ratio (y) = 0.51697 0.06610
# Poissons Ratio (z) = 0.75682 0.43082
#
# Static dielectric constant tensor:
#      x y z
#    x 1.588270 0.000000 0.000000 
#    y 0.000000 1.580380 0.000000 
#    z 0.000000 0.000000 1.602730 
# 
# From -- ./inp_files/12530.got.cif
#   From: 2010.05.17/outbox.cif.g08.bks.cpg/sg63_7_cif.got.tgz:12530.got - 2010.06.03 15:47:04.
