data_PCOD9471437
_publ_section_title
;
Structure prediction by ZEFSAII (Michael W. Deem and Ramdas Pophale) SiO2 
 PCOD9471437
Probable space group: C M C M
;
_chemical_formula_sum "Si O2"
_cell_formula_units_Z 88
_cell_length_a 15.608417
_cell_length_b 27.791942
_cell_length_c 11.005915
_cell_angle_alpha 90.000000
_cell_angle_beta 90.000000
_cell_angle_gamma 90.000000
_cell_volume 4774.236277
_symmetry_space_group_name_H-M "C M C M"
_symmetry_group_IT_number 63
_symmetry_cell_setting 'orthorhombic'
loop_
_space_group_symop_operation_xyz
x,y,z
-x,-y,1/2+z
x,-y,-z
-x,y,1/2-z
-x,-y,-z
x,y,1/2-z
-x,y,z
x,-y,1/2+z
1/2+x,1/2+y,z
1/2-x,1/2-y,1/2+z
1/2+x,1/2-y,-z
1/2-x,1/2+y,1/2-z
1/2-x,1/2-y,-z
1/2+x,1/2+y,1/2-z
1/2-x,1/2+y,z
1/2+x,1/2-y,1/2+z
loop_
_atom_site_type_symbol
_atom_site_label
_atom_site_fract_x
_atom_site_fract_y
_atom_site_fract_z
Si Si1 0.500000 0.962316 0.112919
Si Si2 0.669575 0.942941 0.001647
Si Si3 0.103963 0.601699 0.250000
Si Si4 0.406392 0.195707 0.608013
Si Si5 0.236830 0.860173 0.103241
Si Si6 0.896558 0.286681 0.750000
Si Si7 0.600019 0.284608 0.033648
O O1 0.500000 0.982440 0.250000
O O2 0.587885 0.933968 0.091235
O O3 0.500000 0.000000 0.000000
O O4 0.640079 0.924449 0.869741
O O5 0.749413 0.913470 0.052789
O O6 0.685053 0.000000 0.000000
O O7 0.131184 0.657980 0.250000
O O8 0.000000 0.599589 0.250000
O O9 0.411714 0.185533 0.750000
O O10 0.500000 0.183763 0.550730
O O11 0.324522 0.166851 0.563369
O O12 0.393287 0.252634 0.587256
O O13 0.229765 0.859239 0.250000
O O14 0.158643 0.830772 0.046674
O O15 0.871032 0.254657 0.634594
O O16 0.000000 0.288193 0.750000
O O17 0.500000 0.296223 0.054470
#
# Coordination Sequence:
#
# PCOD9471437 Si02
#       7
#     8  16   8  16  16   8  16
#     4  10  22  36  60  82 114 158 202 242 292 342
#     4  11  25  37  58  79 117 151 200 238 292 333
#     4  11  22  38  55  86 115 159 194 241 278 342
#     4   9  19  33  51  78 116 153 186 226 279 343
#     4  11  22  36  56  84 112 150 193 237 284 342
#     4   9  18  32  55  80 111 139 184 233 288 330
#     4  10  19  36  59  82 112 148 189 240 288 342
#
# _framework density 18.432267
#
# number of rings (size 3 to 8) (size 9 to 14) (size 15 to 20)
#    0.000    1.818    1.818    2.182    7.636    1.455 
#    1.636    0.000    0.000    0.545    0.000    0.000 
#    0.000    0.000    0.000    0.000    0.000    0.000 
#
# Total GULP energy -245601.750200 kJ/mol
# GULP energy per Si atom -5581.857959 kJ/mol
# Density = 1.839031 g / cm^3
# Si number density = 18.432267 Si / 1000 Ang^3
#
#
#
# Elastic Constant Matrix: (Units=GPa)
#
#
# Indices 1 2 3 4 5 6 
#
# 1 71.1002 55.0659 10.5000 0.0000 0.0000 0.0000
# 2 55.0659 119.1710 5.7371 0.0000 0.0000 0.0000
# 3 10.5000 5.7371 52.2732 0.0000 0.0000 0.0000
# 4 0.0000 0.0000 0.0000 21.4895 0.0000 0.0000
# 5 0.0000 0.0000 0.0000 0.0000 13.9686 0.0000
# 6 0.0000 0.0000 0.0000 0.0000 0.0000 32.9220
#
#
#
# Elastic Compliance Matrix: (Units=1/GPa)
#
#
# Indices 1 2 3 4 5 6 
#
# 1 0.022487 -0.010227 -0.003394 0.000000 0.000000 0.000000
# 2 -0.010227 0.013087 0.000618 0.000000 0.000000 0.000000
# 3 -0.003394 0.000618 0.019744 0.000000 0.000000 0.000000
# 4 0.000000 0.000000 0.000000 0.046534 0.000000 0.000000
# 5 0.000000 0.000000 0.000000 0.000000 0.071589 0.000000
# 6 0.000000 0.000000 0.000000 0.000000 0.000000 0.030375
#
#
# Mechanical properties :
#
#
# Convention : Reuss Voigt Hill
#
# Bulk Modulus (GPa) = 34.11682 42.79447 38.45564
# Shear Modulus (GPa) = 20.86865 25.09211 22.98038
#
# Velocity S-wave (km/s) = 3.36844 3.69360 3.53476
# Velocity P-wave (km/s) = 5.80327 6.43877 6.12927
#
# Compressibility (1/GPa) = 0.02931105
#
# Stress axis : x y z
#
# Youngs Moduli (GPa) = 44.47080 76.41028 50.64766
#
# Poissons Ratio (x) = 0.78146 0.17192
# Poissons Ratio (y) = 0.45481 -0.03130
# Poissons Ratio (z) = 0.15095 -0.04722
#
# Static dielectric constant tensor:
#      x y z
#    x 1.647240 0.000000 0.000000 
#    y 0.000000 1.669130 0.000000 
#    z 0.000000 0.000000 1.701570 
# 
# From -- ./inp_files/19834.got.cif
#   From: 2010.05.17/outbox.cif.g08.bks.cpg/sg63_10_cif.got.tgz:19834.got - 2010.06.03 15:47:04.
