data_PCOD9471505
_publ_section_title
;
Structure prediction by ZEFSAII (Michael W. Deem and Ramdas Pophale) SiO2 
 PCOD9471505
Probable space group: C M C M
;
_chemical_formula_sum "Si O2"
_cell_formula_units_Z 88
_cell_length_a 10.362838
_cell_length_b 21.850300
_cell_length_c 20.173937
_cell_angle_alpha 90.000000
_cell_angle_beta 90.000000
_cell_angle_gamma 90.000000
_cell_volume 4568.007133
_symmetry_space_group_name_H-M "C M C M"
_symmetry_group_IT_number 63
_symmetry_cell_setting 'orthorhombic'
loop_
_space_group_symop_operation_xyz
x,y,z
-x,-y,1/2+z
x,-y,-z
-x,y,1/2-z
-x,-y,-z
x,y,1/2-z
-x,y,z
x,-y,1/2+z
1/2+x,1/2+y,z
1/2-x,1/2-y,1/2+z
1/2+x,1/2-y,-z
1/2-x,1/2+y,1/2-z
1/2-x,1/2-y,-z
1/2+x,1/2+y,1/2-z
1/2-x,1/2+y,z
1/2+x,1/2-y,1/2+z
loop_
_atom_site_type_symbol
_atom_site_label
_atom_site_fract_x
_atom_site_fract_y
_atom_site_fract_z
Si Si1 0.728270 0.023669 0.325116
Si Si2 0.500000 0.252075 0.177262
Si Si3 0.500000 0.979664 0.409244
Si Si4 0.771067 0.182353 0.470414
Si Si5 0.500000 0.354576 0.065225
Si Si6 0.500000 0.888374 0.983578
Si Si7 0.253135 0.332230 0.824544
Si Si8 0.500000 0.463331 0.171871
O O1 0.696277 0.007897 0.250000
O O2 0.631365 0.986433 0.369564
O O3 0.715247 0.096543 0.331367
O O4 0.874285 0.004632 0.338007
O O5 0.500000 0.283931 0.250000
O O6 0.500000 0.296033 0.114271
O O7 0.625542 0.209375 0.175491
O O8 0.500000 0.044768 0.448923
O O9 0.500000 0.913093 0.441794
O O10 0.750000 0.250000 0.500000
O O11 0.631024 0.148783 0.469397
O O12 0.821441 0.184269 0.394091
O O13 0.874171 0.148583 0.517895
O O14 0.500000 0.410732 0.116653
O O15 0.313394 0.325683 0.750000
O O16 0.500000 0.442829 0.250000
#
# Coordination Sequence:
#
# PCOD9471505 Si02
#       8
#    16   8   8  16   8   8  16   8
#     4  10  20  37  64  90 121 159 205 260 308 358
#     4  10  19  36  63  94 118 153 211 259 301 361
#     4  11  20  38  62  87 126 152 206 254 297 376
#     4  12  23  41  62  91 128 160 210 258 310 369
#     4  12  24  39  64  91 125 170 202 247 312 374
#     4  11  24  39  59  89 124 165 195 250 313 359
#     4  10  20  37  61  89 118 155 205 261 305 353
#     4  10  23  42  59  91 133 169 205 245 308 384
#
# _framework density 19.264417000000002
#
# number of rings (size 3 to 8) (size 9 to 14) (size 15 to 20)
#    0.000    1.273    3.636    3.273    0.000    2.182 
#    0.000    2.273    0.000    1.091    0.000    0.000 
#    0.000    0.000    0.000    0.000    0.000    0.000 
#
# Total GULP energy -245337.885319 kJ/mol
# GULP energy per Si atom -5575.861030 kJ/mol
# Density = 1.922057 g / cm^3
# Si number density = 19.264417 Si / 1000 Ang^3
#
#
#
# Elastic Constant Matrix: (Units=GPa)
#
#
# Indices 1 2 3 4 5 6 
#
# 1 73.3442 10.9873 37.0007 0.0000 0.0000 0.0000
# 2 10.9873 53.6547 28.2622 0.0000 0.0000 0.0000
# 3 37.0007 28.2622 132.0009 0.0000 0.0000 0.0000
# 4 0.0000 0.0000 0.0000 30.3841 0.0000 0.0000
# 5 0.0000 0.0000 0.0000 0.0000 232.0524 0.0000
# 6 0.0000 0.0000 0.0000 0.0000 0.0000 58.2947
#
#
#
# Elastic Compliance Matrix: (Units=1/GPa)
#
#
# Indices 1 2 3 4 5 6 
#
# 1 0.015930 -0.001026 -0.004246 0.000000 0.000000 0.000000
# 2 -0.001026 0.021073 -0.004224 0.000000 0.000000 0.000000
# 3 -0.004246 -0.004224 0.009670 0.000000 0.000000 0.000000
# 4 0.000000 0.000000 0.000000 0.032912 0.000000 0.000000
# 5 0.000000 0.000000 0.000000 0.000000 0.004309 0.000000
# 6 0.000000 0.000000 0.000000 0.000000 0.000000 0.017154
#
#
# Mechanical properties :
#
#
# Convention : Reuss Voigt Hill
#
# Bulk Modulus (GPa) = 36.12507 45.72226 40.92367
# Shear Modulus (GPa) = 38.67962 76.32953 57.50457
#
# Velocity S-wave (km/s) = 4.48574 6.30143 5.46946
# Velocity P-wave (km/s) = 6.75441 8.75955 7.82150
#
# Compressibility (1/GPa) = 0.02768160
#
# Stress axis : x y z
#
# Youngs Moduli (GPa) = 62.77533 47.45434 103.41014
#
# Poissons Ratio (x) = 0.04868 0.43904
# Poissons Ratio (y) = 0.06439 0.43684
# Poissons Ratio (z) = 0.26652 0.20046
#
# Static dielectric constant tensor:
#      x y z
#    x 1.725560 0.000000 0.000000 
#    y 0.000000 1.630560 0.000000 
#    z 0.000000 0.000000 1.785660 
# 
# From -- ./inp_files/42354.got.cif
#   From: 2010.05.17/outbox.cif.g08.bks.cpg/sg63_22_cif.got.tgz:42354.got - 2010.06.03 15:47:04.
