data_PCOD9471385
_publ_section_title
;
Structure prediction by ZEFSAII (Michael W. Deem and Ramdas Pophale) SiO2 
 PCOD9471385
Probable space group: C M C M
;
_chemical_formula_sum "Si O2"
_cell_formula_units_Z 104
_cell_length_a 30.947082
_cell_length_b 24.543416
_cell_length_c 9.146129
_cell_angle_alpha 90.000000
_cell_angle_beta 90.000000
_cell_angle_gamma 90.000000
_cell_volume 6946.915827
_symmetry_space_group_name_H-M "C M C M"
_symmetry_group_IT_number 63
_symmetry_cell_setting 'orthorhombic'
loop_
_space_group_symop_operation_xyz
x,y,z
-x,-y,1/2+z
x,-y,-z
-x,y,1/2-z
-x,-y,-z
x,y,1/2-z
-x,y,z
x,-y,1/2+z
1/2+x,1/2+y,z
1/2-x,1/2-y,1/2+z
1/2+x,1/2-y,-z
1/2-x,1/2+y,1/2-z
1/2-x,1/2-y,-z
1/2+x,1/2+y,1/2-z
1/2-x,1/2+y,z
1/2+x,1/2-y,1/2+z
loop_
_atom_site_type_symbol
_atom_site_label
_atom_site_fract_x
_atom_site_fract_y
_atom_site_fract_z
Si Si1 0.450357 0.032528 0.750000
Si Si2 0.313488 0.250440 0.919639
Si Si3 0.408786 0.219482 0.579892
Si Si4 0.616484 0.093357 0.945479
Si Si5 0.757456 0.661884 0.076970
Si Si6 0.918634 0.586124 0.250000
Si Si7 0.049948 0.291764 0.750000
Si Si8 0.713933 0.056185 0.586593
O O1 0.500000 0.050519 0.750000
O O2 0.422538 0.057219 0.617960
O O3 0.447730 0.967506 0.750000
O O4 0.303433 0.236242 0.750000
O O5 0.364833 0.254299 0.931882
O O6 0.286720 0.304948 0.954135
O O7 0.295169 0.202194 0.020036
O O8 0.427289 0.229942 0.750000
O O9 0.393861 0.156173 0.587903
O O10 0.431692 0.224701 0.416245
O O11 0.663648 0.074188 0.901426
O O12 0.613210 0.085547 0.115512
O O13 0.761415 0.654186 0.250000
O O14 0.761908 0.605064 0.995257
O O15 0.944659 0.642502 0.250000
O O16 0.000000 0.275947 0.750000
O O17 0.731011 0.049333 0.750000
O O18 0.716375 0.000000 0.500000
#
# Coordination Sequence:
#
# PCOD9471385 Si02
#       8
#     8  16  16  16  16   8   8  16
#     4  12  23  36  48  61  79 109 152 198 253 302
#     4   9  18  33  50  74  98 123 156 199 250 295
#     4  10  19  36  54  69  96 125 154 202 252 301
#     4  11  22  35  48  66  83 112 152 198 250 302
#     4  10  20  31  51  74  97 122 157 201 245 292
#     4  10  23  36  48  58  82 112 150 206 252 302
#     4  10  23  36  50  73  91 121 166 206 249 304
#     4  12  23  35  50  68  97 125 158 196 241 297
#
# _framework density 14.970672
#
# number of rings (size 3 to 8) (size 9 to 14) (size 15 to 20)
#    0.000    1.538    3.077    2.538    3.231    4.615 
#    0.000    0.000    0.000    0.000    0.000    0.000 
#    0.000    0.000    0.000    0.000    0.000    0.769 
#
# Total GULP energy -289481.918254 kJ/mol
# GULP energy per Si atom -5566.959966 kJ/mol
# Density = 1.493660 g / cm^3
# Si number density = 14.970672 Si / 1000 Ang^3
#
#
#
# Elastic Constant Matrix: (Units=GPa)
#
#
# Indices 1 2 3 4 5 6 
#
# 1 54.1082 26.1674 36.1529 0.0000 0.0000 0.0000
# 2 26.1674 49.1703 38.0911 0.0000 0.0000 0.0000
# 3 36.1529 38.0911 140.7532 0.0000 0.0000 0.0000
# 4 0.0000 0.0000 0.0000 19.9129 0.0000 0.0000
# 5 0.0000 0.0000 0.0000 0.0000 4.4555 0.0000
# 6 0.0000 0.0000 0.0000 0.0000 0.0000 12.3844
#
#
#
# Elastic Compliance Matrix: (Units=1/GPa)
#
#
# Indices 1 2 3 4 5 6 
#
# 1 0.026375 -0.011119 -0.003765 0.000000 0.000000 0.000000
# 2 -0.011119 0.030420 -0.005376 0.000000 0.000000 0.000000
# 3 -0.003765 -0.005376 0.009527 0.000000 0.000000 0.000000
# 4 0.000000 0.000000 0.000000 0.050219 0.000000 0.000000
# 5 0.000000 0.000000 0.000000 0.000000 0.224442 0.000000
# 6 0.000000 0.000000 0.000000 0.000000 0.000000 0.080746
#
#
# Mechanical properties :
#
#
# Convention : Reuss Voigt Hill
#
# Bulk Modulus (GPa) = 38.76027 49.42829 44.09428
# Shear Modulus (GPa) = 10.61909 16.92524 13.77216
#
# Velocity S-wave (km/s) = 2.66621 3.36603 3.03635
# Velocity P-wave (km/s) = 5.95191 6.94228 6.46608
#
# Compressibility (1/GPa) = 0.02579962
#
# Stress axis : x y z
#
# Youngs Moduli (GPa) = 37.91519 32.87336 104.96777
#
# Poissons Ratio (x) = 0.36552 0.39524
# Poissons Ratio (y) = 0.42158 0.56434
# Poissons Ratio (z) = 0.14276 0.17674
#
# Static dielectric constant tensor:
#      x y z
#    x 1.494260 0.000000 0.000000 
#    y 0.000000 1.482710 0.000000 
#    z 0.000000 0.000000 1.534350 
# 
# From -- ./inp_files/14707.got.cif
#   From: 2010.05.17/outbox.cif.g08.bks.cpg/sg63_8_cif.got.tgz:14707.got - 2010.06.03 15:47:04.
