data_PCOD9471296
_publ_section_title
;
Structure prediction by ZEFSAII (Michael W. Deem and Ramdas Pophale) SiO2 
 PCOD9471296
Probable space group: C M C M
;
_chemical_formula_sum "Si O2"
_cell_formula_units_Z 96
_cell_length_a 8.986325
_cell_length_b 25.399580
_cell_length_c 24.232942
_cell_angle_alpha 90.000000
_cell_angle_beta 90.000000
_cell_angle_gamma 90.000000
_cell_volume 5531.141889
_symmetry_space_group_name_H-M "C M C M"
_symmetry_group_IT_number 63
_symmetry_cell_setting 'orthorhombic'
loop_
_space_group_symop_operation_xyz
x,y,z
-x,-y,1/2+z
x,-y,-z
-x,y,1/2-z
-x,-y,-z
x,y,1/2-z
-x,y,z
x,-y,1/2+z
1/2+x,1/2+y,z
1/2-x,1/2-y,1/2+z
1/2+x,1/2-y,-z
1/2-x,1/2+y,1/2-z
1/2-x,1/2-y,-z
1/2+x,1/2+y,1/2-z
1/2-x,1/2+y,z
1/2+x,1/2-y,1/2+z
loop_
_atom_site_type_symbol
_atom_site_label
_atom_site_fract_x
_atom_site_fract_y
_atom_site_fract_z
Si Si1 0.821771 0.228907 0.556478
Si Si2 0.178971 0.141375 0.250000
Si Si3 0.320727 0.974168 0.750000
Si Si4 0.178133 0.483366 0.369024
Si Si5 0.178087 0.815044 0.631097
Si Si6 0.321184 0.606309 0.562077
Si Si7 0.821832 0.078107 0.436975
O O1 0.750000 0.250000 0.500000
O O2 0.763075 0.266002 0.605161
O O3 0.781129 0.167810 0.564946
O O4 0.000000 0.231928 0.551856
O O5 0.251996 0.083998 0.250000
O O6 0.218833 0.171947 0.305915
O O7 0.000000 0.134466 0.250000
O O8 0.500000 0.969397 0.750000
O O9 0.276704 0.003860 0.806090
O O10 0.244330 0.429422 0.392261
O O11 0.239252 0.530528 0.407218
O O12 0.000000 0.482192 0.371729
O O13 0.209668 0.867251 0.594775
O O14 0.000000 0.805965 0.627915
O O15 0.500000 0.602116 0.567136
O O16 0.281352 0.584844 0.501055
O O17 0.000000 0.069038 0.433682
#
# Coordination Sequence:
#
# PCOD9471296 Si02
#       7
#    16   8   8  16  16  16  16
#     4  11  22  38  60  85 114 150 190 235 284 340
#     4  10  20  36  61  86 113 149 194 232 274 341
#     4  10  22  38  55  80 115 147 186 238 288 331
#     4  11  23  37  55  83 114 147 189 236 283 336
#     4  10  20  36  58  88 117 148 189 233 281 336
#     4  10  22  39  56  80 114 152 187 226 279 338
#     4  10  19  35  58  83 116 149 180 228 282 337
#
# _framework density 17.356271
#
# number of rings (size 3 to 8) (size 9 to 14) (size 15 to 20)
#    0.000    1.667    3.333    1.500    0.000    6.000 
#    0.000    0.833    0.000    5.000    0.000    0.000 
#    0.000    0.000    0.000    0.000    0.000    0.000 
#
# Total GULP energy -268145.046247 kJ/mol
# GULP energy per Si atom -5586.355130 kJ/mol
# Density = 1.731677 g / cm^3
# Si number density = 17.356271 Si / 1000 Ang^3
#
#
#
# Elastic Constant Matrix: (Units=GPa)
#
#
# Indices 1 2 3 4 5 6 
#
# 1 33.2825 60.7135 50.5649 0.0000 0.0000 0.0000
# 2 60.7135 159.0347 99.4805 0.0000 0.0000 0.0000
# 3 50.5649 99.4805 162.1659 0.0000 0.0000 0.0000
# 4 0.0000 0.0000 0.0000 31.8769 0.0000 0.0000
# 5 0.0000 0.0000 0.0000 0.0000 26.0193 0.0000
# 6 0.0000 0.0000 0.0000 0.0000 0.0000 35.1386
#
#
#
# Elastic Compliance Matrix: (Units=1/GPa)
#
#
# Indices 1 2 3 4 5 6 
#
# 1 0.117384 -0.035565 -0.014784 0.000000 0.000000 0.000000
# 2 -0.035565 0.020979 -0.001780 0.000000 0.000000 0.000000
# 3 -0.014784 -0.001780 0.011868 0.000000 0.000000 0.000000
# 4 0.000000 0.000000 0.000000 0.031371 0.000000 0.000000
# 5 0.000000 0.000000 0.000000 0.000000 0.038433 0.000000
# 6 0.000000 0.000000 0.000000 0.000000 0.000000 0.028459
#
#
# Mechanical properties :
#
#
# Convention : Reuss Voigt Hill
#
# Bulk Modulus (GPa) = 21.75196 86.22233 53.98714
# Shear Modulus (GPa) = 13.58419 28.18857 20.88638
#
# Velocity S-wave (km/s) = 2.80065 4.03440 3.47276
# Velocity P-wave (km/s) = 4.79771 8.45504 6.87407
#
# Compressibility (1/GPa) = 0.04597287
#
# Stress axis : x y z
#
# Youngs Moduli (GPa) = 8.51907 47.66768 84.25859
#
# Poissons Ratio (x) = 1.69529 1.24570
# Poissons Ratio (y) = 0.30298 0.14997
# Poissons Ratio (z) = 0.12595 0.08484
#
# Static dielectric constant tensor:
#      x y z
#    x 1.579810 0.000000 0.000000 
#    y 0.000000 1.561020 0.000000 
#    z 0.000000 0.000000 1.584120 
# 
# From -- ./inp_files/60038.got.cif
#   From: 2010.05.17/outbox.cif.g08.bks.cpg/sg63_31_cif.got.tgz:60038.got - 2010.06.03 15:47:04.
