data_PCOD9471069
_publ_section_title
;
Structure prediction by ZEFSAII (Michael W. Deem and Ramdas Pophale) SiO2 
 PCOD9471069
Probable space group: C M C M
;
_chemical_formula_sum "Si O2"
_cell_formula_units_Z 96
_cell_length_a 8.744432
_cell_length_b 30.233432
_cell_length_c 19.363370
_cell_angle_alpha 90.000000
_cell_angle_beta 90.000000
_cell_angle_gamma 90.000000
_cell_volume 5119.175264
_symmetry_space_group_name_H-M "C M C M"
_symmetry_group_IT_number 63
_symmetry_cell_setting 'orthorhombic'
loop_
_space_group_symop_operation_xyz
x,y,z
-x,-y,1/2+z
x,-y,-z
-x,y,1/2-z
-x,-y,-z
x,y,1/2-z
-x,y,z
x,-y,1/2+z
1/2+x,1/2+y,z
1/2-x,1/2-y,1/2+z
1/2+x,1/2-y,-z
1/2-x,1/2+y,1/2-z
1/2-x,1/2-y,-z
1/2+x,1/2+y,1/2-z
1/2-x,1/2+y,z
1/2+x,1/2-y,1/2+z
loop_
_atom_site_type_symbol
_atom_site_label
_atom_site_fract_x
_atom_site_fract_y
_atom_site_fract_z
Si Si1 0.819003 0.814292 0.947217
Si Si2 0.181502 0.589117 0.428286
Si Si3 0.682865 0.726317 0.599123
Si Si4 0.685152 0.562106 0.572555
Si Si5 0.684603 0.519722 0.170543
Si Si6 0.686251 0.640296 0.826468
O O1 0.735585 0.860114 0.932367
O O2 0.765048 0.773349 0.900277
O O3 0.000000 0.821374 0.941602
O O4 0.787020 0.797542 0.025388
O O5 0.245512 0.564525 0.496609
O O6 0.248701 0.564260 0.361845
O O7 0.000000 0.586889 0.427921
O O8 0.500000 0.733294 0.603725
O O9 0.731649 0.690249 0.655375
O O10 0.500000 0.562223 0.565946
O O11 0.729347 0.520341 0.619500
O O12 0.733517 0.605826 0.614975
O O13 0.731516 0.512246 0.250000
O O14 0.500000 0.521708 0.169464
O O15 0.736371 0.626953 0.750000
O O16 0.500000 0.639546 0.827213
#
# Coordination Sequence:
#
# PCOD9471069 Si02
#       6
#    16  16  16  16  16  16
#     4  10  19  34  56  80 107 144 189 236 280 328
#     4  12  24  37  57  85 116 152 193 236 284 337
#     4   9  17  31  52  81 112 143 181 228 285 340
#     4  10  19  36  60  87 114 146 189 235 282 338
#     4  10  22  40  62  86 113 148 190 237 289 342
#     4   9  16  29  53  84 116 147 182 228 283 341
#
# _framework density 18.753021
#
# number of rings (size 3 to 8) (size 9 to 14) (size 15 to 20)
#    0.000    2.000    1.667    3.000    0.000    5.667 
#    0.000    0.833    0.000    6.000    0.000    0.000 
#    0.000    0.000    0.000    0.000    0.000    0.000 
#
# Total GULP energy -267971.800350 kJ/mol
# GULP energy per Si atom -5582.745841 kJ/mol
# Density = 1.871034 g / cm^3
# Si number density = 18.753021 Si / 1000 Ang^3
#
#
#
# Elastic Constant Matrix: (Units=GPa)
#
#
# Indices 1 2 3 4 5 6 
#
# 1 13.8222 28.2160 13.7128 0.0000 0.0000 0.0000
# 2 28.2160 100.4713 32.7662 0.0000 0.0000 0.0000
# 3 13.7128 32.7662 57.1075 0.0000 0.0000 0.0000
# 4 0.0000 0.0000 0.0000 20.4719 0.0000 0.0000
# 5 0.0000 0.0000 0.0000 0.0000 6.6022 0.0000
# 6 0.0000 0.0000 0.0000 0.0000 0.0000 24.1642
#
#
#
# Elastic Compliance Matrix: (Units=1/GPa)
#
#
# Indices 1 2 3 4 5 6 
#
# 1 0.183157 -0.045633 -0.017798 0.000000 0.000000 0.000000
# 2 -0.045633 0.023613 -0.002591 0.000000 0.000000 0.000000
# 3 -0.017798 -0.002591 0.023271 0.000000 0.000000 0.000000
# 4 0.000000 0.000000 0.000000 0.048848 0.000000 0.000000
# 5 0.000000 0.000000 0.000000 0.000000 0.151465 0.000000
# 6 0.000000 0.000000 0.000000 0.000000 0.000000 0.041383
#
#
# Mechanical properties :
#
#
# Convention : Reuss Voigt Hill
#
# Bulk Modulus (GPa) = 10.20424 35.64346 22.92385
# Shear Modulus (GPa) = 7.85612 16.69472 12.27542
#
# Velocity S-wave (km/s) = 2.04899 2.98693 2.56126
# Velocity P-wave (km/s) = 3.32430 5.56271 4.58229
#
# Compressibility (1/GPa) = 0.09799846
#
# Stress axis : x y z
#
# Youngs Moduli (GPa) = 5.45980 42.34870 42.97176
#
# Poissons Ratio (x) = 1.93249 0.76479
# Poissons Ratio (y) = 0.24915 0.11134
# Poissons Ratio (z) = 0.09717 0.10973
#
# Static dielectric constant tensor:
#      x y z
#    x 1.633430 0.000000 0.000000 
#    y 0.000000 1.652710 0.000000 
#    z 0.000000 0.000000 1.642530 
# 
# From -- ./inp_files/51367.got.cif
#   From: 2010.05.17/outbox.cif.g08.bks.cpg/sg63_26_cif.got.tgz:51367.got - 2010.06.03 15:47:04.
