data_PCOD9471837
_publ_section_title
;
Structure prediction by ZEFSAII (Michael W. Deem and Ramdas Pophale) SiO2 
 PCOD9471837
Probable space group: C M C M
;
_chemical_formula_sum "Si O2"
_cell_formula_units_Z 80
_cell_length_a 23.742671
_cell_length_b 28.910093
_cell_length_c 9.038238
_cell_angle_alpha 90.000000
_cell_angle_beta 90.000000
_cell_angle_gamma 90.000000
_cell_volume 6203.872111
_symmetry_space_group_name_H-M "C M C M"
_symmetry_group_IT_number 63
_symmetry_cell_setting 'orthorhombic'
loop_
_space_group_symop_operation_xyz
x,y,z
-x,-y,1/2+z
x,-y,-z
-x,y,1/2-z
-x,-y,-z
x,y,1/2-z
-x,y,z
x,-y,1/2+z
1/2+x,1/2+y,z
1/2-x,1/2-y,1/2+z
1/2+x,1/2-y,-z
1/2-x,1/2+y,1/2-z
1/2-x,1/2-y,-z
1/2+x,1/2+y,1/2-z
1/2-x,1/2+y,z
1/2+x,1/2-y,1/2+z
loop_
_atom_site_type_symbol
_atom_site_label
_atom_site_fract_x
_atom_site_fract_y
_atom_site_fract_z
Si Si1 0.933137 0.950497 0.425732
Si Si2 0.169895 0.280063 0.580188
Si Si3 0.625499 0.636753 0.426623
Si Si4 0.270432 0.321277 0.419303
Si Si5 0.565518 0.275317 0.071932
O O1 0.922290 0.951908 0.250000
O O2 0.898070 0.910101 0.502775
O O3 0.000000 0.941040 0.446227
O O4 0.921314 0.000000 0.500000
O O5 0.169500 0.296261 0.750000
O O6 0.207934 0.313517 0.481897
O O7 0.200693 0.229780 0.578898
O O8 0.106705 0.267212 0.531390
O O9 0.622646 0.635653 0.250000
O O10 0.688912 0.647431 0.481369
O O11 0.587727 0.679057 0.489613
O O12 0.270325 0.337291 0.250000
O O13 0.572377 0.282492 0.250000
O O14 0.500000 0.267258 0.041737
#
# Coordination Sequence:
#
# PCOD9471837 Si02
#       5
#    16  16  16  16  16
#     4  10  20  33  46  58  74  96 122 153 190 230
#     4   8  14  24  37  53  72  93 119 151 185 220
#     4  11  20  28  40  57  75  95 123 158 192 225
#     4   9  16  26  39  53  70  93 120 151 187 223
#     4   9  17  28  40  54  74 100 127 155 188 224
#
# _framework density 12.895172000000001
#
# number of rings (size 3 to 8) (size 9 to 14) (size 15 to 20)
#    0.000    2.600    0.000    4.800    0.000    8.800 
#    0.000    0.000    0.000    0.000    0.000    0.000 
#    0.000    0.000    0.000    0.000    0.000    1.000 
#
# Total GULP energy -222845.810042 kJ/mol
# GULP energy per Si atom -5571.145251 kJ/mol
# Density = 1.286582 g / cm^3
# Si number density = 12.895172 Si / 1000 Ang^3
#
#
#
# Elastic Constant Matrix: (Units=GPa)
#
#
# Indices 1 2 3 4 5 6 
#
# 1 102.3845 46.8002 53.7971 0.0000 0.0000 0.0000
# 2 46.8002 44.5333 39.7439 0.0000 0.0000 0.0000
# 3 53.7971 39.7439 83.8311 0.0000 0.0000 0.0000
# 4 0.0000 0.0000 0.0000 16.9296 0.0000 0.0000
# 5 0.0000 0.0000 0.0000 0.0000 19.6674 0.0000
# 6 0.0000 0.0000 0.0000 0.0000 0.0000 19.7512
#
#
#
# Elastic Compliance Matrix: (Units=1/GPa)
#
#
# Indices 1 2 3 4 5 6 
#
# 1 0.019917 -0.016509 -0.004954 0.000000 0.000000 0.000000
# 2 -0.016509 0.052609 -0.014347 0.000000 0.000000 0.000000
# 3 -0.004954 -0.014347 0.021910 0.000000 0.000000 0.000000
# 4 0.000000 0.000000 0.000000 0.059068 0.000000 0.000000
# 5 0.000000 0.000000 0.000000 0.000000 0.050846 0.000000
# 6 0.000000 0.000000 0.000000 0.000000 0.000000 0.050630
#
#
# Mechanical properties :
#
#
# Convention : Reuss Voigt Hill
#
# Bulk Modulus (GPa) = 43.83199 56.82571 50.32885
# Shear Modulus (GPa) = 14.96092 17.29682 16.12887
#
# Velocity S-wave (km/s) = 3.40986 3.66641 3.54046
# Velocity P-wave (km/s) = 7.04043 7.87950 7.47175
#
# Compressibility (1/GPa) = 0.02281439
#
# Stress axis : x y z
#
# Youngs Moduli (GPa) = 50.20946 19.00832 45.64129
#
# Poissons Ratio (x) = 0.31381 0.22612
# Poissons Ratio (y) = 0.82890 0.65482
# Poissons Ratio (z) = 0.24875 0.27271
#
# Static dielectric constant tensor:
#      x y z
#    x 1.437160 0.000000 0.000000 
#    y 0.000000 1.388250 0.000000 
#    z 0.000000 0.000000 1.434030 
# 
# From -- ./inp_files/8884.got.cif
#   From: 2010.05.17/outbox.cif.g08.bks.cpg/sg63_5_cif.got.tgz:8884.got - 2010.06.03 15:47:04.
