data_PCOD9471425
_publ_section_title
;
Structure prediction by ZEFSAII (Michael W. Deem and Ramdas Pophale) SiO2 
 PCOD9471425
Probable space group: C M C M
;
_chemical_formula_sum "Si O2"
_cell_formula_units_Z 60
_cell_length_a 15.346012
_cell_length_b 21.573168
_cell_length_c 7.358980
_cell_angle_alpha 90.000000
_cell_angle_beta 90.000000
_cell_angle_gamma 90.000000
_cell_volume 2436.279336
_symmetry_space_group_name_H-M "C M C M"
_symmetry_group_IT_number 63
_symmetry_cell_setting 'orthorhombic'
loop_
_space_group_symop_operation_xyz
x,y,z
-x,-y,1/2+z
x,-y,-z
-x,y,1/2-z
-x,-y,-z
x,y,1/2-z
-x,y,z
x,-y,1/2+z
1/2+x,1/2+y,z
1/2-x,1/2-y,1/2+z
1/2+x,1/2-y,-z
1/2-x,1/2+y,1/2-z
1/2-x,1/2-y,-z
1/2+x,1/2+y,1/2-z
1/2-x,1/2+y,z
1/2+x,1/2-y,1/2+z
loop_
_atom_site_type_symbol
_atom_site_label
_atom_site_fract_x
_atom_site_fract_y
_atom_site_fract_z
Si Si1 0.098822 0.744686 0.469891
Si Si2 0.130582 0.397699 0.958609
Si Si3 0.000000 0.072317 0.534358
Si Si4 0.820560 0.868004 0.029929
Si Si5 0.500000 0.947432 0.250000
O O1 0.100421 0.745137 0.250000
O O2 0.114313 0.673771 0.522569
O O3 0.167994 0.796235 0.530189
O O4 0.000000 0.762282 0.524235
O O5 0.101046 0.404700 0.750000
O O6 0.234678 0.402433 0.964017
O O7 0.076092 0.439666 0.092360
O O8 0.909718 0.100418 0.466800
O O9 0.000000 0.085394 0.750000
O O10 0.000000 0.000000 0.500000
O O11 0.816587 0.868896 0.250000
#
# Coordination Sequence:
#
# PCOD9471425 Si02
#       5
#    16  16   8  16   4
#     4   9  16  30  52  79 117 159 204 249 290 354
#     4  11  22  36  56  86 121 162 209 249 294 361
#     4  10  22  39  64  89 124 163 204 256 316 363
#     4  10  19  36  58  84 117 162 204 251 309 366
#     4  12  22  38  56  78 122 158 206 244 298 346
#
# _framework density 24.627718000000002
#
# number of rings (size 3 to 8) (size 9 to 14) (size 15 to 20)
#    0.000    1.867    4.000    1.200    0.000    1.067 
#    2.400    0.000    2.933    0.000    0.000    0.933 
#    0.000    0.000    0.000    0.000    0.000    0.000 
#
# Total GULP energy -167433.310169 kJ/mol
# GULP energy per Si atom -5581.110339 kJ/mol
# Density = 2.457166 g / cm^3
# Si number density = 24.627718 Si / 1000 Ang^3
#
#
#
# Elastic Constant Matrix: (Units=GPa)
#
#
# Indices 1 2 3 4 5 6 
#
# 1 199.5206 31.4954 35.1930 0.0000 0.0000 0.0000
# 2 31.4954 79.4827 23.5078 0.0000 0.0000 0.0000
# 3 35.1930 23.5078 144.3273 0.0000 0.0000 0.0000
# 4 0.0000 0.0000 0.0000 4.1807 0.0000 0.0000
# 5 0.0000 0.0000 0.0000 0.0000 47.7831 0.0000
# 6 0.0000 0.0000 0.0000 0.0000 0.0000 14.0270
#
#
#
# Elastic Compliance Matrix: (Units=1/GPa)
#
#
# Indices 1 2 3 4 5 6 
#
# 1 0.005490 -0.001869 -0.001034 0.000000 0.000000 0.000000
# 2 -0.001869 0.013855 -0.001801 0.000000 0.000000 0.000000
# 3 -0.001034 -0.001801 0.007474 0.000000 0.000000 0.000000
# 4 0.000000 0.000000 0.000000 0.239193 0.000000 0.000000
# 5 0.000000 0.000000 0.000000 0.000000 0.020928 0.000000
# 6 0.000000 0.000000 0.000000 0.000000 0.000000 0.071291
#
#
# Mechanical properties :
#
#
# Convention : Reuss Voigt Hill
#
# Bulk Modulus (GPa) = 57.43886 67.08033 62.25959
# Shear Modulus (GPa) = 13.38896 35.40713 24.39805
#
# Velocity S-wave (km/s) = 2.33417 3.79581 3.15091
# Velocity P-wave (km/s) = 5.53516 6.81966 6.21070
#
# Compressibility (1/GPa) = 0.01740982
#
# Stress axis : x y z
#
# Youngs Moduli (GPa) = 182.16572 72.17764 133.79432
#
# Poissons Ratio (x) = 0.13493 0.13835
# Poissons Ratio (y) = 0.34054 0.24094
# Poissons Ratio (z) = 0.18837 0.12998
#
# Static dielectric constant tensor:
#      x y z
#    x 1.934080 0.000000 0.000000 
#    y 0.000000 1.978060 0.000000 
#    z 0.000000 0.000000 1.963870 
# 
# From -- ./inp_files/4186.got.cif
#   From: 2010.05.17/outbox.cif.g08.bks.cpg/sg63_3_cif.got.tgz:4186.got - 2010.06.03 15:47:04.
