data_PCOD9471708
_publ_section_title
;
Structure prediction by ZEFSAII (Michael W. Deem and Ramdas Pophale) SiO2 
 PCOD9471708
Probable space group: C M C M
;
_chemical_formula_sum "Si O2"
_cell_formula_units_Z 96
_cell_length_a 18.196130
_cell_length_b 29.428926
_cell_length_c 9.902422
_cell_angle_alpha 90.000000
_cell_angle_beta 90.000000
_cell_angle_gamma 90.000000
_cell_volume 5302.673339
_symmetry_space_group_name_H-M "C M C M"
_symmetry_group_IT_number 63
_symmetry_cell_setting 'orthorhombic'
loop_
_space_group_symop_operation_xyz
x,y,z
-x,-y,1/2+z
x,-y,-z
-x,y,1/2-z
-x,-y,-z
x,y,1/2-z
-x,y,z
x,-y,1/2+z
1/2+x,1/2+y,z
1/2-x,1/2-y,1/2+z
1/2+x,1/2-y,-z
1/2-x,1/2+y,1/2-z
1/2-x,1/2-y,-z
1/2+x,1/2+y,1/2-z
1/2-x,1/2+y,z
1/2+x,1/2-y,1/2+z
loop_
_atom_site_type_symbol
_atom_site_label
_atom_site_fract_x
_atom_site_fract_y
_atom_site_fract_z
Si Si1 0.913767 0.038386 0.900006
Si Si2 0.589430 0.790203 0.595370
Si Si3 0.586937 0.293096 0.593233
Si Si4 0.916050 0.390802 0.585720
Si Si5 0.214252 0.544391 0.409287
Si Si6 0.643980 0.608127 0.095100
O O1 0.880576 0.037785 0.750000
O O2 0.000000 0.029156 0.885469
O O3 0.904422 0.084954 0.979743
O O4 0.883492 0.000000 0.000000
O O5 0.614638 0.784146 0.750000
O O6 0.500000 0.791258 0.597953
O O7 0.610385 0.748153 0.502127
O O8 0.610940 0.840402 0.544549
O O9 0.590710 0.279166 0.750000
O O10 0.500000 0.304158 0.566089
O O11 0.636461 0.338005 0.577465
O O12 0.917094 0.389209 0.750000
O O13 0.860824 0.430507 0.547549
O O14 0.000000 0.397779 0.540149
O O15 0.225537 0.500000 0.500000
O O16 0.210478 0.532178 0.250000
O O17 0.277779 0.583004 0.419861
O O18 0.618247 0.598301 0.250000
#
# Coordination Sequence:
#
# PCOD9471708 Si02
#       6
#    16  16  16  16  16  16
#     4  10  20  32  47  67  90 120 162 210 253 291
#     4   8  14  27  49  74  97 124 160 199 238 284
#     4   9  17  29  46  69  98 131 164 199 240 283
#     4   8  15  31  55  78  99 126 160 198 244 301
#     4  10  21  36  53  73  98 129 165 205 250 299
#     4  10  20  33  48  67  96 134 169 201 241 290
#
# _framework density 18.104075999999999
#
# number of rings (size 3 to 8) (size 9 to 14) (size 15 to 20)
#    0.000    2.833    0.000    2.500    0.000    4.667 
#    0.000    3.333    0.000    1.000    0.000    0.000 
#    0.000    0.000    0.000    0.000    0.000    0.000 
#
# Total GULP energy -267327.952502 kJ/mol
# GULP energy per Si atom -5569.332344 kJ/mol
# Density = 1.806287 g / cm^3
# Si number density = 18.104076 Si / 1000 Ang^3
#
#
#
# Elastic Constant Matrix: (Units=GPa)
#
#
# Indices 1 2 3 4 5 6 
#
# 1 55.2177 53.5473 35.7321 0.0000 0.0000 0.0000
# 2 53.5473 121.3464 63.7227 0.0000 0.0000 0.0000
# 3 35.7321 63.7227 82.7611 0.0000 0.0000 0.0000
# 4 0.0000 0.0000 0.0000 24.8113 0.0000 0.0000
# 5 0.0000 0.0000 0.0000 0.0000 5.3338 0.0000
# 6 0.0000 0.0000 0.0000 0.0000 0.0000 16.2510
#
#
#
# Elastic Compliance Matrix: (Units=1/GPa)
#
#
# Indices 1 2 3 4 5 6 
#
# 1 0.032881 -0.011843 -0.005078 0.000000 0.000000 0.000000
# 2 -0.011843 0.018100 -0.008823 0.000000 0.000000 0.000000
# 3 -0.005078 -0.008823 0.021069 0.000000 0.000000 0.000000
# 4 0.000000 0.000000 0.000000 0.040304 0.000000 0.000000
# 5 0.000000 0.000000 0.000000 0.000000 0.187484 0.000000
# 6 0.000000 0.000000 0.000000 0.000000 0.000000 0.061535
#
#
# Mechanical properties :
#
#
# Convention : Reuss Voigt Hill
#
# Bulk Modulus (GPa) = 48.63344 62.81438 55.72391
# Shear Modulus (GPa) = 11.91285 16.36742 14.14014
#
# Velocity S-wave (km/s) = 2.56797 3.01004 2.79775
# Velocity P-wave (km/s) = 5.97614 6.84486 6.42520
#
# Compressibility (1/GPa) = 0.02056199
#
# Stress axis : x y z
#
# Youngs Moduli (GPa) = 30.41294 55.24773 47.46365
#
# Poissons Ratio (x) = 0.65430 0.24100
# Poissons Ratio (y) = 0.36018 0.41878
# Poissons Ratio (z) = 0.15442 0.48746
#
# Static dielectric constant tensor:
#      x y z
#    x 1.657550 0.000000 0.000000 
#    y 0.000000 1.631710 0.000000 
#    z 0.000000 0.000000 1.622700 
# 
# From -- ./inp_files/8522.got.cif
#   From: 2010.05.17/outbox.cif.g08.bks.cpg/sg63_5_cif.got.tgz:8522.got - 2010.06.03 15:47:04.
