data_PCOD9471012
_publ_section_title
;
Structure prediction by ZEFSAII (Michael W. Deem and Ramdas Pophale) SiO2 
 PCOD9471012
Probable space group: C M C M
;
_chemical_formula_sum "Si O2"
_cell_formula_units_Z 96
_cell_length_a 20.632375
_cell_length_b 20.532551
_cell_length_c 11.568566
_cell_angle_alpha 90.000000
_cell_angle_beta 90.000000
_cell_angle_gamma 90.000000
_cell_volume 4900.852835
_symmetry_space_group_name_H-M "C M C M"
_symmetry_group_IT_number 63
_symmetry_cell_setting 'orthorhombic'
loop_
_space_group_symop_operation_xyz
x,y,z
-x,-y,1/2+z
x,-y,-z
-x,y,1/2-z
-x,-y,-z
x,y,1/2-z
-x,y,z
x,-y,1/2+z
1/2+x,1/2+y,z
1/2-x,1/2-y,1/2+z
1/2+x,1/2-y,-z
1/2-x,1/2+y,1/2-z
1/2-x,1/2-y,-z
1/2+x,1/2+y,1/2-z
1/2-x,1/2+y,z
1/2+x,1/2-y,1/2+z
loop_
_atom_site_type_symbol
_atom_site_label
_atom_site_fract_x
_atom_site_fract_y
_atom_site_fract_z
Si Si1 0.265571 0.527939 0.625044
Si Si2 0.923941 0.186465 0.118484
Si Si3 0.391300 0.970340 0.376115
Si Si4 0.073770 0.333679 0.039648
Si Si5 0.810727 0.162247 0.546646
Si Si6 0.191030 0.309911 0.619737
O O1 0.286853 0.500000 0.500000
O O2 0.284059 0.497057 0.750000
O O3 0.187145 0.528327 0.622001
O O4 0.292966 0.601036 0.623487
O O5 0.906863 0.168858 0.250000
O O6 0.915164 0.264712 0.103329
O O7 0.000000 0.172668 0.099782
O O8 0.877095 0.154692 0.024654
O O9 0.411470 0.998604 0.250000
O O10 0.414366 0.895725 0.380822
O O11 0.413540 0.000000 0.500000
O O12 0.000000 0.333672 0.997298
O O13 0.126301 0.337469 0.938225
O O14 0.812927 0.231362 0.611812
O O15 0.752365 0.168486 0.454691
O O16 0.197794 0.331889 0.750000
#
# Coordination Sequence:
#
# PCOD9471012 Si02
#       6
#    16  16  16  16  16  16
#     4  10  21  37  57  82 113 147 185 230 277 326
#     4   9  18  32  53  82 112 141 176 221 274 333
#     4  10  21  37  54  76 106 146 192 239 280 321
#     4  10  20  35  52  74 107 148 188 227 272 326
#     4  10  19  34  54  81 107 142 177 226 273 334
#     4  10  20  32  51  80 110 141 181 229 278 328
#
# _framework density 19.588426999999999
#
# number of rings (size 3 to 8) (size 9 to 14) (size 15 to 20)
#    0.000    2.167    1.667    1.500    0.000    3.667 
#    0.000    0.000    0.000    2.000    0.000    0.000 
#    0.000    0.000    0.000    0.000    0.000    0.000 
#
# Total GULP energy -267753.690868 kJ/mol
# GULP energy per Si atom -5578.201893 kJ/mol
# Density = 1.954384 g / cm^3
# Si number density = 19.588427 Si / 1000 Ang^3
#
#
#
# Elastic Constant Matrix: (Units=GPa)
#
#
# Indices 1 2 3 4 5 6 
#
# 1 44.4976 1.2550 41.1728 0.0000 0.0000 0.0000
# 2 1.2550 28.9604 23.6095 0.0000 0.0000 0.0000
# 3 41.1728 23.6095 143.1184 0.0000 0.0000 0.0000
# 4 0.0000 0.0000 0.0000 9.1156 0.0000 0.0000
# 5 0.0000 0.0000 0.0000 0.0000 -15.4718 0.0000
# 6 0.0000 0.0000 0.0000 0.0000 0.0000 17.5567
#
#
#
# Elastic Compliance Matrix: (Units=1/GPa)
#
#
# Indices 1 2 3 4 5 6 
#
# 1 0.031817 0.007029 -0.010313 0.000000 0.000000 0.000000
# 2 0.007029 0.041448 -0.008859 0.000000 0.000000 0.000000
# 3 -0.010313 -0.008859 0.011416 0.000000 0.000000 0.000000
# 4 0.000000 0.000000 0.000000 0.109702 0.000000 0.000000
# 5 0.000000 0.000000 0.000000 0.000000 -0.064634 0.000000
# 6 0.000000 0.000000 0.000000 0.000000 0.000000 0.056958
#
#
# Mechanical properties :
#
#
# Convention : Reuss Voigt Hill
#
# Bulk Modulus (GPa) = 16.55815 38.73899 27.64857
# Shear Modulus (GPa) = 21.63332 12.27605 16.95469
#
# Velocity S-wave (km/s) = 3.32685 2.50611 2.94521
# Velocity P-wave (km/s) = 4.81960 5.30976 5.07061
#
# Compressibility (1/GPa) = 0.06039323
#
# Stress axis : x y z
#
# Youngs Moduli (GPa) = 31.42968 24.12668 87.60013
#
# Poissons Ratio (x) = -0.16957 0.90339
# Poissons Ratio (y) = -0.22090 0.77609
# Poissons Ratio (z) = 0.32412 0.21375
#
# Static dielectric constant tensor:
#      x y z
#    x 1.650770 0.000000 0.000000 
#    y 0.000000 1.707970 0.000000 
#    z 0.000000 0.000000 1.749070 
# 
# From -- ./inp_files/22794.got.cif
#   From: 2010.05.17/outbox.cif.g08.bks.cpg/sg63_12_cif.got.tgz:22794.got - 2010.06.03 15:47:04.
