data_PCOD9471336
_publ_section_title
;
Structure prediction by ZEFSAII (Michael W. Deem and Ramdas Pophale) SiO2 
 PCOD9471336
Probable space group: C M C M
;
_chemical_formula_sum "Si O2"
_cell_formula_units_Z 116
_cell_length_a 16.782506
_cell_length_b 28.067134
_cell_length_c 11.961255
_cell_angle_alpha 90.000000
_cell_angle_beta 90.000000
_cell_angle_gamma 90.000000
_cell_volume 5634.191815
_symmetry_space_group_name_H-M "C M C M"
_symmetry_group_IT_number 63
_symmetry_cell_setting 'orthorhombic'
loop_
_space_group_symop_operation_xyz
x,y,z
-x,-y,1/2+z
x,-y,-z
-x,y,1/2-z
-x,-y,-z
x,y,1/2-z
-x,y,z
x,-y,1/2+z
1/2+x,1/2+y,z
1/2-x,1/2-y,1/2+z
1/2+x,1/2-y,-z
1/2-x,1/2+y,1/2-z
1/2-x,1/2-y,-z
1/2+x,1/2+y,1/2-z
1/2-x,1/2+y,z
1/2+x,1/2-y,1/2+z
loop_
_atom_site_type_symbol
_atom_site_label
_atom_site_fract_x
_atom_site_fract_y
_atom_site_fract_z
Si Si1 0.144300 0.954454 0.069114
Si Si2 0.651559 0.223999 0.374848
Si Si3 0.000000 0.031635 0.750000
Si Si4 0.732654 0.124430 0.624224
Si Si5 0.592989 0.121912 0.046001
Si Si6 0.904378 0.482288 0.625015
Si Si7 0.179485 0.800595 0.537739
Si Si8 0.906166 0.112596 0.132181
O O1 0.215427 0.923927 0.122968
O O2 0.071555 0.966659 0.152458
O O3 0.113376 0.919462 0.972488
O O4 0.173311 0.000000 0.000000
O O5 0.631652 0.240331 0.250000
O O6 0.616459 0.171447 0.394665
O O7 0.747240 0.220775 0.392156
O O8 0.628887 0.260912 0.472360
O O9 0.720913 0.140565 0.750000
O O10 0.649801 0.117326 0.560908
O O11 0.780308 0.164966 0.555569
O O12 0.500000 0.122542 0.017051
O O13 0.607697 0.074857 0.119570
O O14 0.876608 0.500000 0.500000
O O15 0.874737 0.498932 0.750000
O O16 0.000000 0.491790 0.625574
O O17 0.129029 0.835369 0.614084
O O18 0.875550 0.091892 0.250000
O O19 0.000000 0.115456 0.137795
#
# Coordination Sequence:
#
# PCOD9471336 Si02
#       8
#    16  16   4  16  16  16  16  16
#     4  11  24  39  63  95 127 164 206 251 316 370
#     4  10  19  35  60  84 112 154 203 258 317 378
#     4  12  22  40  66  96 130 162 196 274 300 380
#     4  10  21  40  60  84 123 165 208 256 309 374
#     4  10  22  38  59  89 123 158 209 263 317 370
#     4   9  18  34  56  82 112 150 195 251 309 367
#     4   9  20  36  56  85 117 153 201 249 314 377
#     4  10  21  36  57  85 122 160 198 240 295 369
#
# _framework density 20.58858
#
# number of rings (size 3 to 8) (size 9 to 14) (size 15 to 20)
#    0.000    2.069    1.379    1.448    0.966    2.759 
#    0.000    2.759    0.000    0.000    0.000    0.000 
#    0.000    0.000    0.000    0.000    0.000    0.000 
#
# Total GULP energy -322955.321051 kJ/mol
# GULP energy per Si atom -5568.195191 kJ/mol
# Density = 2.054172 g / cm^3
# Si number density = 20.588580 Si / 1000 Ang^3
#
#
#
# Elastic Constant Matrix: (Units=GPa)
#
#
# Indices 1 2 3 4 5 6 
#
# 1 36.4510 13.4916 26.7158 0.0000 0.0000 0.0000
# 2 13.4916 59.0729 14.3714 0.0000 0.0000 0.0000
# 3 26.7158 14.3714 147.6134 0.0000 0.0000 0.0000
# 4 0.0000 0.0000 0.0000 8.0090 0.0000 0.0000
# 5 0.0000 0.0000 0.0000 0.0000 14.4266 0.0000
# 6 0.0000 0.0000 0.0000 0.0000 0.0000 12.4752
#
#
#
# Elastic Compliance Matrix: (Units=1/GPa)
#
#
# Indices 1 2 3 4 5 6 
#
# 1 0.033830 -0.006388 -0.005501 0.000000 0.000000 0.000000
# 2 -0.006388 0.018545 -0.000649 0.000000 0.000000 0.000000
# 3 -0.005501 -0.000649 0.007833 0.000000 0.000000 0.000000
# 4 0.000000 0.000000 0.000000 0.124860 0.000000 0.000000
# 5 0.000000 0.000000 0.000000 0.000000 0.069317 0.000000
# 6 0.000000 0.000000 0.000000 0.000000 0.000000 0.080159
#
#
# Mechanical properties :
#
#
# Convention : Reuss Voigt Hill
#
# Bulk Modulus (GPa) = 28.46411 39.14387 33.80399
# Shear Modulus (GPa) = 13.46507 19.55271 16.50889
#
# Velocity S-wave (km/s) = 2.56013 3.08504 2.83476
# Velocity P-wave (km/s) = 4.75334 5.63415 5.21238
#
# Compressibility (1/GPa) = 0.03513196
#
# Stress axis : x y z
#
# Youngs Moduli (GPa) = 29.55934 53.92227 127.66099
#
# Poissons Ratio (x) = 0.34446 0.70224
# Poissons Ratio (y) = 0.18883 0.08290
# Poissons Ratio (z) = 0.16260 0.03502
#
# Static dielectric constant tensor:
#      x y z
#    x 1.707240 0.000000 0.000000 
#    y 0.000000 1.574700 0.000000 
#    z 0.000000 0.000000 1.759570 
# 
# From -- ./inp_files/21671.got.cif
#   From: 2010.05.17/outbox.cif.g08.bks.cpg/sg63_11_cif.got.tgz:21671.got - 2010.06.03 15:47:04.
