data_PCOD9471516
_publ_section_title
;
Structure prediction by ZEFSAII (Michael W. Deem and Ramdas Pophale) SiO2 
 PCOD9471516
Probable space group: C M C M
;
_chemical_formula_sum "Si O2"
_cell_formula_units_Z 96
_cell_length_a 12.673521
_cell_length_b 18.807983
_cell_length_c 23.478912
_cell_angle_alpha 90.000000
_cell_angle_beta 90.000000
_cell_angle_gamma 90.000000
_cell_volume 5596.512530
_symmetry_space_group_name_H-M "C M C M"
_symmetry_group_IT_number 63
_symmetry_cell_setting 'orthorhombic'
loop_
_space_group_symop_operation_xyz
x,y,z
-x,-y,1/2+z
x,-y,-z
-x,y,1/2-z
-x,-y,-z
x,y,1/2-z
-x,y,z
x,-y,1/2+z
1/2+x,1/2+y,z
1/2-x,1/2-y,1/2+z
1/2+x,1/2-y,-z
1/2-x,1/2+y,1/2-z
1/2-x,1/2-y,-z
1/2+x,1/2+y,1/2-z
1/2-x,1/2+y,z
1/2+x,1/2-y,1/2+z
loop_
_atom_site_type_symbol
_atom_site_label
_atom_site_fract_x
_atom_site_fract_y
_atom_site_fract_z
Si Si1 0.000000 0.577035 0.470018
Si Si2 0.266753 0.987424 0.183419
Si Si3 0.500000 0.078263 0.684963
Si Si4 0.378693 0.392833 0.398027
Si Si5 0.732822 0.759014 0.432905
Si Si6 0.500000 0.818118 0.078386
Si Si7 0.662809 0.500000 0.000000
Si Si8 0.717796 0.099688 0.090557
O O1 0.000000 0.500000 0.500000
O O2 0.098942 0.588444 0.429688
O O3 0.000000 0.632273 0.522247
O O4 0.241508 0.991641 0.250000
O O5 0.389913 0.964108 0.178076
O O6 0.189131 0.933023 0.150632
O O7 0.257141 0.060875 0.149441
O O8 0.500000 0.106461 0.750000
O O9 0.500000 0.135861 0.635553
O O10 0.500000 0.376228 0.381824
O O11 0.310177 0.322729 0.413227
O O12 0.385240 0.446771 0.452370
O O13 0.750000 0.750000 0.500000
O O14 0.610072 0.776427 0.422744
O O15 0.758125 0.682644 0.406404
O O16 0.722486 0.443301 0.959722
#
# Coordination Sequence:
#
# PCOD9471516 Si02
#       8
#     8  16   8  16  16   8   8  16
#     4  12  20  30  61  91 125 154 195 253 310 367
#     4  10  22  43  66  87 116 156 209 260 300 351
#     4  10  20  40  68  92 116 156 212 262 297 351
#     4  11  23  38  60  89 121 162 201 247 305 363
#     4  12  24  38  57  92 130 163 195 243 309 378
#     4  12  22  40  60  88 127 168 205 245 306 375
#     4  10  19  37  56  82 122 155 204 243 292 354
#     4  11  22  36  56  92 121 157 200 248 304 362
#
# _framework density 17.153538999999999
#
# number of rings (size 3 to 8) (size 9 to 14) (size 15 to 20)
#    0.000    1.000    5.833    1.750    2.333    0.333 
#    6.000    1.667    0.000    0.000    0.000    0.000 
#    0.000    0.000    0.000    0.000    0.000    0.000 
#
# Total GULP energy -267606.164818 kJ/mol
# GULP energy per Si atom -5575.128434 kJ/mol
# Density = 1.711450 g / cm^3
# Si number density = 17.153539 Si / 1000 Ang^3
#
#
#
# Elastic Constant Matrix: (Units=GPa)
#
#
# Indices 1 2 3 4 5 6 
#
# 1 130.7052 67.3131 49.9622 0.0000 0.0000 0.0000
# 2 67.3131 150.2706 65.9437 0.0000 0.0000 0.0000
# 3 49.9622 65.9437 136.1115 0.0000 0.0000 0.0000
# 4 0.0000 0.0000 0.0000 16.1823 0.0000 0.0000
# 5 0.0000 0.0000 0.0000 0.0000 27.4313 0.0000
# 6 0.0000 0.0000 0.0000 0.0000 0.0000 31.1593
#
#
#
# Elastic Compliance Matrix: (Units=1/GPa)
#
#
# Indices 1 2 3 4 5 6 
#
# 1 0.010345 -0.003769 -0.001971 0.000000 0.000000 0.000000
# 2 -0.003769 0.009825 -0.003376 0.000000 0.000000 0.000000
# 3 -0.001971 -0.003376 0.009706 0.000000 0.000000 0.000000
# 4 0.000000 0.000000 0.000000 0.061796 0.000000 0.000000
# 5 0.000000 0.000000 0.000000 0.000000 0.036455 0.000000
# 6 0.000000 0.000000 0.000000 0.000000 0.000000 0.032093
#
#
# Mechanical properties :
#
#
# Convention : Reuss Voigt Hill
#
# Bulk Modulus (GPa) = 85.89061 87.05838 86.47449
# Shear Modulus (GPa) = 27.42207 30.54580 28.98394
#
# Velocity S-wave (km/s) = 4.00262 4.22445 4.11503
# Velocity P-wave (km/s) = 8.45823 8.64044 8.54982
#
# Compressibility (1/GPa) = 0.01164272
#
# Stress axis : x y z
#
# Youngs Moduli (GPa) = 96.66078 101.78462 103.02513
#
# Poissons Ratio (x) = 0.38363 0.20311
# Poissons Ratio (y) = 0.36432 0.34785
# Poissons Ratio (z) = 0.19056 0.34366
#
# Static dielectric constant tensor:
#      x y z
#    x 1.640330 0.000000 0.000000 
#    y 0.000000 0.110540 0.000000 
#    z 0.000000 0.000000 1.482990 
# 
# From -- ./inp_files/61571.got.cif
#   From: 2010.05.17/outbox.cif.g08.bks.cpg/sg63_31_cif.got.tgz:61571.got - 2010.06.03 15:47:04.
