data_PCOD9471904
_publ_section_title
;
Structure prediction by ZEFSAII (Michael W. Deem and Ramdas Pophale) SiO2 
 PCOD9471904
Probable space group: C M C M
;
_chemical_formula_sum "Si O2"
_cell_formula_units_Z 80
_cell_length_a 7.473081
_cell_length_b 18.986841
_cell_length_c 26.444700
_cell_angle_alpha 90.000000
_cell_angle_beta 90.000000
_cell_angle_gamma 90.000000
_cell_volume 3752.243791
_symmetry_space_group_name_H-M "C M C M"
_symmetry_group_IT_number 63
_symmetry_cell_setting 'orthorhombic'
loop_
_space_group_symop_operation_xyz
x,y,z
-x,-y,1/2+z
x,-y,-z
-x,y,1/2-z
-x,-y,-z
x,y,1/2-z
-x,y,z
x,-y,1/2+z
1/2+x,1/2+y,z
1/2-x,1/2-y,1/2+z
1/2+x,1/2-y,-z
1/2-x,1/2+y,1/2-z
1/2-x,1/2-y,-z
1/2+x,1/2+y,1/2-z
1/2-x,1/2+y,z
1/2+x,1/2-y,1/2+z
loop_
_atom_site_type_symbol
_atom_site_label
_atom_site_fract_x
_atom_site_fract_y
_atom_site_fract_z
Si Si1 0.719562 0.826561 0.096843
Si Si2 0.283833 0.665220 0.402311
Si Si3 0.288348 0.920979 0.496413
Si Si4 0.285670 0.577146 0.306876
Si Si5 0.285819 0.086442 0.806731
O O1 0.500000 0.826258 0.096542
O O2 0.777529 0.745707 0.092927
O O3 0.778943 0.862772 0.149042
O O4 0.781779 0.873586 0.049635
O O5 0.500000 0.666486 0.400081
O O6 0.234222 0.619711 0.451079
O O7 0.218038 0.627519 0.351157
O O8 0.500000 0.928347 0.486374
O O9 0.213335 0.000000 0.500000
O O10 0.216544 0.590874 0.250000
O O11 0.500000 0.585668 0.304982
O O12 0.249878 0.495331 0.319094
O O13 0.215830 0.100119 0.750000
O O14 0.500000 0.094787 0.804750
#
# Coordination Sequence:
#
# PCOD9471904 Si02
#       5
#    16  16  16  16  16
#     4   9  18  32  49  72 100 126 156 196 241 285
#     4  10  20  33  50  72  98 127 160 198 237 283
#     4  10  20  34  52  71  95 128 161 197 242 287
#     4   9  18  32  49  70  97 127 157 193 239 284
#     4   9  17  31  53  76  96 124 163 201 234 277
#
# _framework density 21.320577
#
# number of rings (size 3 to 8) (size 9 to 14) (size 15 to 20)
#    0.000    2.600    0.000    1.800    0.000    3.600 
#    0.000    6.000    0.000    0.000    0.000    5.600 
#    0.000    0.000    0.000    0.000    0.000    0.000 
#
# Total GULP energy -223421.896971 kJ/mol
# GULP energy per Si atom -5585.547424 kJ/mol
# Density = 2.127205 g / cm^3
# Si number density = 21.320577 Si / 1000 Ang^3
#
#
#
# Elastic Constant Matrix: (Units=GPa)
#
#
# Indices 1 2 3 4 5 6 
#
# 1 56.9191 -5.0987 -7.6196 0.0000 0.0000 0.0000
# 2 -5.0987 211.1498 139.9940 0.0000 0.0000 0.0000
# 3 -7.6196 139.9940 162.8491 0.0000 0.0000 0.0000
# 4 0.0000 0.0000 0.0000 353.5791 0.0000 0.0000
# 5 0.0000 0.0000 0.0000 0.0000 15.1113 0.0000
# 6 0.0000 0.0000 0.0000 0.0000 0.0000 11.6945
#
#
#
# Elastic Compliance Matrix: (Units=1/GPa)
#
#
# Indices 1 2 3 4 5 6 
#
# 1 0.017687 -0.000283 0.001071 0.000000 0.000000 0.000000
# 2 -0.000283 0.011017 -0.009484 0.000000 0.000000 0.000000
# 3 0.001071 -0.009484 0.014344 0.000000 0.000000 0.000000
# 4 0.000000 0.000000 0.000000 0.002828 0.000000 0.000000
# 5 0.000000 0.000000 0.000000 0.000000 0.066176 0.000000
# 6 0.000000 0.000000 0.000000 0.000000 0.000000 0.085510
#
#
# Mechanical properties :
#
#
# Convention : Reuss Voigt Hill
#
# Bulk Modulus (GPa) = 38.97845 76.16326 57.57085
# Shear Modulus (GPa) = 22.37071 96.31982 59.34526
#
# Velocity S-wave (km/s) = 3.24273 6.72867 5.28159
# Velocity P-wave (km/s) = 5.68702 9.80648 8.01590
#
# Compressibility (1/GPa) = 0.02565520
#
# Stress axis : x y z
#
# Youngs Moduli (GPa) = 56.53936 90.76615 69.71564
#
# Poissons Ratio (x) = 0.02566 -0.07464
# Poissons Ratio (y) = 0.01598 0.66121
# Poissons Ratio (z) = -0.06053 0.86086
#
# Static dielectric constant tensor:
#      x y z
#    x 1.858990 0.000000 0.000000 
#    y 0.000000 1.721280 0.000000 
#    z 0.000000 0.000000 1.745810 
# 
# From -- ./inp_files/61105.got.cif
#   From: 2010.05.17/outbox.cif.g08.bks.cpg/sg63_31_cif.got.tgz:61105.got - 2010.06.03 15:47:04.
