data_PCOD9471140
_publ_section_title
;
Structure prediction by ZEFSAII (Michael W. Deem and Ramdas Pophale) SiO2 
 PCOD9471140
Probable space group: C M C M
;
_chemical_formula_sum "Si O2"
_cell_formula_units_Z 104
_cell_length_a 12.353001
_cell_length_b 23.343301
_cell_length_c 18.360547
_cell_angle_alpha 90.000000
_cell_angle_beta 90.000000
_cell_angle_gamma 90.000000
_cell_volume 5294.444039
_symmetry_space_group_name_H-M "C M C M"
_symmetry_group_IT_number 63
_symmetry_cell_setting 'orthorhombic'
loop_
_space_group_symop_operation_xyz
x,y,z
-x,-y,1/2+z
x,-y,-z
-x,y,1/2-z
-x,-y,-z
x,y,1/2-z
-x,y,z
x,-y,1/2+z
1/2+x,1/2+y,z
1/2-x,1/2-y,1/2+z
1/2+x,1/2-y,-z
1/2-x,1/2+y,1/2-z
1/2-x,1/2-y,-z
1/2+x,1/2+y,1/2-z
1/2-x,1/2+y,z
1/2+x,1/2-y,1/2+z
loop_
_atom_site_type_symbol
_atom_site_label
_atom_site_fract_x
_atom_site_fract_y
_atom_site_fract_z
Si Si1 0.119782 0.808000 0.546596
Si Si2 0.870127 0.828801 0.250000
Si Si3 0.740870 0.404511 0.598656
Si Si4 0.867944 0.928868 0.750000
Si Si5 0.746663 0.050189 0.750000
Si Si6 0.879871 0.367073 0.482224
Si Si7 0.720866 0.718126 0.900070
Si Si8 0.625220 0.017712 0.605805
O O1 0.149250 0.875680 0.547389
O O2 0.205877 0.774830 0.596715
O O3 0.134327 0.781584 0.466061
O O4 0.000000 0.799802 0.574015
O O5 0.814861 0.891572 0.250000
O O6 0.829422 0.796797 0.322893
O O7 0.000000 0.833209 0.250000
O O8 0.689025 0.401458 0.678710
O O9 0.843071 0.368995 0.566402
O O10 0.785890 0.468752 0.590830
O O11 0.000000 0.924324 0.750000
O O12 0.828584 0.995556 0.750000
O O13 0.667851 0.045339 0.680628
O O14 0.801681 0.331038 0.430400
O O15 0.876620 0.432254 0.453579
O O16 0.000000 0.344420 0.474896
O O17 0.500000 0.996305 0.612467
#
# Coordination Sequence:
#
# PCOD9471140 Si02
#       8
#    16   8  16   8   8  16  16  16
#     4  10  21  41  63  86 117 158 204 253 297 349
#     4  12  23  40  62  91 126 158 193 244 303 361
#     4  10  21  34  57  83 115 154 200 246 294 356
#     4  10  21  38  56  77 111 161 202 244 298 358
#     4  10  20  36  58  86 123 155 195 238 297 361
#     4  10  19  35  59  87 120 156 195 247 302 352
#     4  10  22  39  63  90 122 159 201 247 300 363
#     4  10  19  34  57  87 123 157 192 241 295 351
#
# _framework density 19.643234
#
# number of rings (size 3 to 8) (size 9 to 14) (size 15 to 20)
#    0.000    1.846    1.538    2.769    0.000    1.846 
#    0.000    5.769    0.000    3.692    0.000    0.000 
#    0.000    0.000    0.000    0.000    0.000    0.000 
#
# Total GULP energy -289553.132790 kJ/mol
# GULP energy per Si atom -5568.329477 kJ/mol
# Density = 1.959853 g / cm^3
# Si number density = 19.643234 Si / 1000 Ang^3
#
#
#
# Elastic Constant Matrix: (Units=GPa)
#
#
# Indices 1 2 3 4 5 6 
#
# 1 116.8957 47.5173 54.1446 0.0000 0.0000 0.0000
# 2 47.5173 82.6705 27.7734 0.0000 0.0000 0.0000
# 3 54.1446 27.7734 120.6959 0.0000 0.0000 0.0000
# 4 0.0000 0.0000 0.0000 24.3306 0.0000 0.0000
# 5 0.0000 0.0000 0.0000 0.0000 18.3896 0.0000
# 6 0.0000 0.0000 0.0000 0.0000 0.0000 20.8071
#
#
#
# Elastic Compliance Matrix: (Units=1/GPa)
#
#
# Indices 1 2 3 4 5 6 
#
# 1 0.013073 -0.006008 -0.004482 0.000000 0.000000 0.000000
# 2 -0.006008 0.015871 -0.000957 0.000000 0.000000 0.000000
# 3 -0.004482 -0.000957 0.010516 0.000000 0.000000 0.000000
# 4 0.000000 0.000000 0.000000 0.041100 0.000000 0.000000
# 5 0.000000 0.000000 0.000000 0.000000 0.054378 0.000000
# 6 0.000000 0.000000 0.000000 0.000000 0.000000 0.048061
#
#
# Mechanical properties :
#
#
# Convention : Reuss Voigt Hill
#
# Bulk Modulus (GPa) = 60.36463 64.34809 62.35636
# Shear Modulus (GPa) = 23.65006 25.42725 24.53865
#
# Velocity S-wave (km/s) = 3.47361 3.60175 3.53826
# Velocity P-wave (km/s) = 6.84727 7.08000 6.96461
#
# Compressibility (1/GPa) = 0.01656599
#
# Stress axis : x y z
#
# Youngs Moduli (GPa) = 76.49353 63.00756 95.09240
#
# Poissons Ratio (x) = 0.37857 0.42620
# Poissons Ratio (y) = 0.45960 0.09098
# Poissons Ratio (z) = 0.34284 0.06028
#
# Static dielectric constant tensor:
#      x y z
#    x 1.689490 0.000000 0.000000 
#    y 0.000000 1.739770 0.000000 
#    z 0.000000 0.000000 1.692680 
# 
# From -- ./inp_files/42821.got.cif
#   From: 2010.05.17/outbox.cif.g08.bks.cpg/sg63_22_cif.got.tgz:42821.got - 2010.06.03 15:47:04.
