data_PCOD9471946
_publ_section_title
;
Structure prediction by ZEFSAII (Michael W. Deem and Ramdas Pophale) SiO2 
 PCOD9471946
Probable space group: C M C M
;
_chemical_formula_sum "Si O2"
_cell_formula_units_Z 112
_cell_length_a 13.719979
_cell_length_b 17.787129
_cell_length_c 25.592053
_cell_angle_alpha 90.000000
_cell_angle_beta 90.000000
_cell_angle_gamma 90.000000
_cell_volume 6245.459952
_symmetry_space_group_name_H-M "C M C M"
_symmetry_group_IT_number 63
_symmetry_cell_setting 'orthorhombic'
loop_
_space_group_symop_operation_xyz
x,y,z
-x,-y,1/2+z
x,-y,-z
-x,y,1/2-z
-x,-y,-z
x,y,1/2-z
-x,y,z
x,-y,1/2+z
1/2+x,1/2+y,z
1/2-x,1/2-y,1/2+z
1/2+x,1/2-y,-z
1/2-x,1/2+y,1/2-z
1/2-x,1/2-y,-z
1/2+x,1/2+y,1/2-z
1/2-x,1/2+y,z
1/2+x,1/2-y,1/2+z
loop_
_atom_site_type_symbol
_atom_site_label
_atom_site_fract_x
_atom_site_fract_y
_atom_site_fract_z
Si Si1 0.887636 0.763441 0.533789
Si Si2 0.883100 0.760884 0.307920
Si Si3 0.386087 0.900368 0.835890
Si Si4 0.617185 0.067162 0.810558
Si Si5 0.756481 0.663178 0.889953
Si Si6 0.890531 0.625650 0.040473
Si Si7 0.193969 0.081984 0.509218
O O1 0.815473 0.724880 0.575602
O O2 0.880576 0.710664 0.481839
O O3 0.858931 0.848218 0.519293
O O4 0.000000 0.759661 0.551425
O O5 0.865702 0.792809 0.250000
O O6 0.847581 0.674277 0.308742
O O7 0.826251 0.801866 0.353591
O O8 0.000000 0.761287 0.317253
O O9 0.500000 0.904649 0.820869
O O10 0.381104 0.883567 0.897647
O O11 0.346296 0.981813 0.821258
O O12 0.636484 0.086628 0.750000
O O13 0.500000 0.069188 0.818375
O O14 0.668259 0.121185 0.851875
O O15 0.707859 0.605440 0.930746
O O16 0.000000 0.600618 0.025597
O O17 0.803310 0.581134 0.014164
O O18 0.149315 0.000000 0.500000
#
# Coordination Sequence:
#
# PCOD9471946 Si02
#       7
#    16  16  16  16  16  16  16
#     4  10  21  37  54  74 102 136 174 213 254 305
#     4  10  20  34  54  79 104 133 171 213 257 304
#     4   9  16  29  51  77 105 133 161 202 258 310
#     4  10  20  33  50  76 108 138 170 209 253 301
#     4  11  21  35  55  75 102 139 174 211 253 305
#     4   9  17  31  52  77 106 136 167 208 258 315
#     4  11  22  34  51  77 105 134 173 216 262 314
#
# _framework density 17.933026999999999
#
# number of rings (size 3 to 8) (size 9 to 14) (size 15 to 20)
#    0.000    2.000    0.000    5.571    0.000    4.571 
#    0.000    0.000    0.000    0.000    0.000    0.000 
#    0.000    6.857    0.000    0.000    0.000    0.000 
#
# Total GULP energy -312396.534732 kJ/mol
# GULP energy per Si atom -5578.509549 kJ/mol
# Density = 1.789221 g / cm^3
# Si number density = 17.933027 Si / 1000 Ang^3
#
#
#
# Elastic Constant Matrix: (Units=GPa)
#
#
# Indices 1 2 3 4 5 6 
#
# 1 54.7249 22.3305 37.0412 0.0000 0.0000 0.0000
# 2 22.3305 100.4090 48.0349 0.0000 0.0000 0.0000
# 3 37.0412 48.0349 105.3083 0.0000 0.0000 0.0000
# 4 0.0000 0.0000 0.0000 9.8015 0.0000 0.0000
# 5 0.0000 0.0000 0.0000 0.0000 29.1627 0.0000
# 6 0.0000 0.0000 0.0000 0.0000 0.0000 14.2939
#
#
#
# Elastic Compliance Matrix: (Units=1/GPa)
#
#
# Indices 1 2 3 4 5 6 
#
# 1 0.024202 -0.001676 -0.007748 0.000000 0.000000 0.000000
# 2 -0.001676 0.012855 -0.005274 0.000000 0.000000 0.000000
# 3 -0.007748 -0.005274 0.014627 0.000000 0.000000 0.000000
# 4 0.000000 0.000000 0.000000 0.102025 0.000000 0.000000
# 5 0.000000 0.000000 0.000000 0.000000 0.034290 0.000000
# 6 0.000000 0.000000 0.000000 0.000000 0.000000 0.069960
#
#
# Mechanical properties :
#
#
# Convention : Reuss Voigt Hill
#
# Bulk Modulus (GPa) = 44.86865 52.80617 48.83741
# Shear Modulus (GPa) = 16.96151 20.85398 18.90775
#
# Velocity S-wave (km/s) = 3.07876 3.41380 3.25060
# Velocity P-wave (km/s) = 6.14108 6.71185 6.43280
#
# Compressibility (1/GPa) = 0.02228728
#
# Stress axis : x y z
#
# Youngs Moduli (GPa) = 41.31970 77.79020 68.36595
#
# Poissons Ratio (x) = 0.13034 0.52973
# Poissons Ratio (y) = 0.06923 0.36058
# Poissons Ratio (z) = 0.32016 0.41029
#
# Static dielectric constant tensor:
#      x y z
#    x 1.614620 0.000000 0.000000 
#    y 0.000000 1.645370 0.000000 
#    z 0.000000 0.000000 1.682510 
# 
# From -- ./inp_files/62994.got.cif
#   From: 2010.05.17/outbox.cif.g08.bks.cpg/sg63_32_cif.got.tgz:62994.got - 2010.06.03 15:47:04.
