data_PCOD9471083
_publ_section_title
;
Structure prediction by ZEFSAII (Michael W. Deem and Ramdas Pophale) SiO2 
 PCOD9471083
Probable space group: C M C M
;
_chemical_formula_sum "Si O2"
_cell_formula_units_Z 80
_cell_length_a 26.445849
_cell_length_b 17.301400
_cell_length_c 8.406260
_cell_angle_alpha 90.000000
_cell_angle_beta 90.000000
_cell_angle_gamma 90.000000
_cell_volume 3846.286044
_symmetry_space_group_name_H-M "C M C M"
_symmetry_group_IT_number 63
_symmetry_cell_setting 'orthorhombic'
loop_
_space_group_symop_operation_xyz
x,y,z
-x,-y,1/2+z
x,-y,-z
-x,y,1/2-z
-x,-y,-z
x,y,1/2-z
-x,y,z
x,-y,1/2+z
1/2+x,1/2+y,z
1/2-x,1/2-y,1/2+z
1/2+x,1/2-y,-z
1/2-x,1/2+y,1/2-z
1/2-x,1/2-y,-z
1/2+x,1/2+y,1/2-z
1/2-x,1/2+y,z
1/2+x,1/2-y,1/2+z
loop_
_atom_site_type_symbol
_atom_site_label
_atom_site_fract_x
_atom_site_fract_y
_atom_site_fract_z
Si Si1 0.444551 0.116649 0.437180
Si Si2 0.767199 0.081373 0.066330
Si Si3 0.053822 0.195575 0.937354
Si Si4 0.837673 0.209684 0.939812
Si Si5 0.336745 0.117835 0.566760
O O1 0.440698 0.097453 0.250000
O O2 0.500000 0.090923 0.496964
O O3 0.445032 0.210646 0.447355
O O4 0.393745 0.091936 0.525532
O O5 0.779739 0.090125 0.250000
O O6 0.791894 0.152454 0.972751
O O7 0.706849 0.083023 0.042504
O O8 0.786350 0.000000 0.000000
O O9 0.052189 0.176187 0.750000
O O10 0.109111 0.170930 0.994607
O O11 0.000000 0.169925 0.009588
O O12 0.840940 0.226579 0.750000
O O13 0.833322 0.290195 0.032215
O O14 0.325320 0.101346 0.750000
#
# Coordination Sequence:
#
# PCOD9471083 Si02
#       5
#    16  16  16  16  16
#     4   8  14  27  48  75 107 141 175 213 259 308
#     4  12  25  41  57  75 102 137 178 223 273 325
#     4   7  11  22  44  74 105 135 167 205 250 299
#     4  10  19  34  56  82 110 141 178 219 263 312
#     4  11  21  34  54  82 112 142 178 219 263 312
#
# _framework density 20.799285999999999
#
# number of rings (size 3 to 8) (size 9 to 14) (size 15 to 20)
#    0.000    2.400    0.000    7.200    0.000    0.400 
#    0.000    0.000    0.000    3.000    0.000    0.000 
#    0.000    0.000    0.000    0.000    0.000    0.000 
#
# Total GULP energy -223139.022404 kJ/mol
# GULP energy per Si atom -5578.475560 kJ/mol
# Density = 2.075195 g / cm^3
# Si number density = 20.799286 Si / 1000 Ang^3
#
#
#
# Elastic Constant Matrix: (Units=GPa)
#
#
# Indices 1 2 3 4 5 6 
#
# 1 97.3108 10.7219 -5.4062 0.0000 0.0000 0.0000
# 2 10.7219 44.3679 -4.4707 0.0000 0.0000 0.0000
# 3 -5.4062 -4.4707 47.7514 0.0000 0.0000 0.0000
# 4 0.0000 0.0000 0.0000 15.1446 0.0000 0.0000
# 5 0.0000 0.0000 0.0000 0.0000 22.8868 0.0000
# 6 0.0000 0.0000 0.0000 0.0000 0.0000 -17.9589
#
#
#
# Elastic Compliance Matrix: (Units=1/GPa)
#
#
# Indices 1 2 3 4 5 6 
#
# 1 0.010602 -0.002464 0.000970 0.000000 0.000000 0.000000
# 2 -0.002464 0.023326 0.001905 0.000000 0.000000 0.000000
# 3 0.000970 0.001905 0.021230 0.000000 0.000000 0.000000
# 4 0.000000 0.000000 0.000000 0.066030 0.000000 0.000000
# 5 0.000000 0.000000 0.000000 0.000000 0.043693 0.000000
# 6 0.000000 0.000000 0.000000 0.000000 0.000000 -0.055683
#
#
# Mechanical properties :
#
#
# Convention : Reuss Voigt Hill
#
# Bulk Modulus (GPa) = 17.86409 21.23558 19.54984
# Shear Modulus (GPa) = 39.35835 16.58683 27.97259
#
# Velocity S-wave (km/s) = 4.35477 2.82702 3.67124
# Velocity P-wave (km/s) = 5.82175 4.57034 5.23358
#
# Compressibility (1/GPa) = 0.05597822
#
# Stress axis : x y z
#
# Youngs Moduli (GPa) = 94.32410 42.87006 47.10338
#
# Poissons Ratio (x) = 0.10565 -0.04567
# Poissons Ratio (y) = 0.23244 -0.08973
# Poissons Ratio (z) = -0.09145 -0.08166
#
# Static dielectric constant tensor:
#      x y z
#    x 1.816460 0.000000 0.000000 
#    y 0.000000 1.729010 0.000000 
#    z 0.000000 0.000000 1.694990 
# 
# From -- ./inp_files/14057.got.cif
#   From: 2010.05.17/outbox.cif.g08.bks.cpg/sg63_8_cif.got.tgz:14057.got - 2010.06.03 15:47:04.
