data_PCOD9471988
_publ_section_title
;
Structure prediction by ZEFSAII (Michael W. Deem and Ramdas Pophale) SiO2 
 PCOD9471988
Probable space group: C M C M
;
_chemical_formula_sum "Si O2"
_cell_formula_units_Z 96
_cell_length_a 21.132684
_cell_length_b 13.713914
_cell_length_c 17.902976
_cell_angle_alpha 90.000000
_cell_angle_beta 90.000000
_cell_angle_gamma 90.000000
_cell_volume 5188.493896
_symmetry_space_group_name_H-M "C M C M"
_symmetry_group_IT_number 63
_symmetry_cell_setting 'orthorhombic'
loop_
_space_group_symop_operation_xyz
x,y,z
-x,-y,1/2+z
x,-y,-z
-x,y,1/2-z
-x,-y,-z
x,y,1/2-z
-x,y,z
x,-y,1/2+z
1/2+x,1/2+y,z
1/2-x,1/2-y,1/2+z
1/2+x,1/2-y,-z
1/2-x,1/2+y,1/2-z
1/2-x,1/2-y,-z
1/2+x,1/2+y,1/2-z
1/2-x,1/2+y,z
1/2+x,1/2-y,1/2+z
loop_
_atom_site_type_symbol
_atom_site_label
_atom_site_fract_x
_atom_site_fract_y
_atom_site_fract_z
Si Si1 0.640416 0.801759 0.662902
Si Si2 0.235722 0.334482 0.162404
Si Si3 0.574776 0.480938 0.664980
Si Si4 0.427556 0.666382 0.939974
Si Si5 0.216539 0.535105 0.419797
Si Si6 0.160645 0.168399 0.083149
O O1 0.626793 0.815527 0.750000
O O2 0.697665 0.722646 0.656201
O O3 0.583306 0.754696 0.617280
O O4 0.666578 0.899956 0.625488
O O5 0.219623 0.338296 0.250000
O O6 0.237726 0.441679 0.127946
O O7 0.185399 0.269364 0.117046
O O8 0.588758 0.513386 0.750000
O O9 0.500000 0.456825 0.661376
O O10 0.586031 0.567165 0.605789
O O11 0.618064 0.390428 0.642424
O O12 0.500000 0.661430 0.966160
O O13 0.380163 0.678829 0.008555
O O14 0.192040 0.500000 0.500000
O O15 0.277640 0.603127 0.433542
#
# Coordination Sequence:
#
# PCOD9471988 Si02
#       6
#    16  16  16  16  16  16
#     4  10  21  36  55  81 110 141 180 224 271 324
#     4  10  21  36  56  82 111 144 181 222 272 327
#     4  10  20  33  51  77 109 145 183 223 269 321
#     4  11  22  36  56  81 110 145 184 225 269 319
#     4  11  21  34  55  81 110 142 176 220 274 327
#     4  11  21  35  55  81 112 145 180 222 271 324
#
# _framework density 18.502479000000001
#
# number of rings (size 3 to 8) (size 9 to 14) (size 15 to 20)
#    0.000    1.500    0.000    6.500    0.000    8.333 
#    0.000    0.000    0.000    5.500    0.000    0.000 
#    0.000    0.000    0.000    0.000    0.000    0.000 
#
# Total GULP energy -268385.121551 kJ/mol
# GULP energy per Si atom -5591.356699 kJ/mol
# Density = 1.846037 g / cm^3
# Si number density = 18.502479 Si / 1000 Ang^3
#
#
#
# Elastic Constant Matrix: (Units=GPa)
#
#
# Indices 1 2 3 4 5 6 
#
# 1 40.5298 4.7875 22.5135 0.0000 0.0000 0.0000
# 2 4.7875 72.7347 19.7123 0.0000 0.0000 0.0000
# 3 22.5135 19.7123 93.6653 0.0000 0.0000 0.0000
# 4 0.0000 0.0000 0.0000 29.2711 0.0000 0.0000
# 5 0.0000 0.0000 0.0000 0.0000 28.4723 0.0000
# 6 0.0000 0.0000 0.0000 0.0000 0.0000 21.3888
#
#
#
# Elastic Compliance Matrix: (Units=1/GPa)
#
#
# Indices 1 2 3 4 5 6 
#
# 1 0.028475 -0.000021 -0.006840 0.000000 0.000000 0.000000
# 2 -0.000021 0.014580 -0.003064 0.000000 0.000000 0.000000
# 3 -0.006840 -0.003064 0.012965 0.000000 0.000000 0.000000
# 4 0.000000 0.000000 0.000000 0.034163 0.000000 0.000000
# 5 0.000000 0.000000 0.000000 0.000000 0.035122 0.000000
# 6 0.000000 0.000000 0.000000 0.000000 0.000000 0.046754
#
#
# Mechanical properties :
#
#
# Convention : Reuss Voigt Hill
#
# Bulk Modulus (GPa) = 27.64546 33.43961 30.54254
# Shear Modulus (GPa) = 24.51404 26.48753 25.50078
#
# Velocity S-wave (km/s) = 3.64387 3.78771 3.71649
# Velocity P-wave (km/s) = 5.71644 6.10256 5.91265
#
# Compressibility (1/GPa) = 0.03617230
#
# Stress axis : x y z
#
# Youngs Moduli (GPa) = 35.11843 68.58607 77.13004
#
# Poissons Ratio (x) = 0.00141 0.52757
# Poissons Ratio (y) = 0.00072 0.23629
# Poissons Ratio (z) = 0.24021 0.21012
#
# Static dielectric constant tensor:
#      x y z
#    x 1.624780 0.000000 0.000000 
#    y 0.000000 1.618010 0.000000 
#    z 0.000000 0.000000 1.645370 
# 
# From -- ./inp_files/35307.got.cif
#   From: 2010.05.17/outbox.cif.g08.bks.cpg/sg63_18_cif.got.tgz:35307.got - 2010.06.03 15:47:04.
