data_PCOD9471557
_publ_section_title
;
Structure prediction by ZEFSAII (Michael W. Deem and Ramdas Pophale) SiO2 
 PCOD9471557
Probable space group: C M C M
;
_chemical_formula_sum "Si O2"
_cell_formula_units_Z 104
_cell_length_a 30.358141
_cell_length_b 8.651121
_cell_length_c 21.686118
_cell_angle_alpha 90.000000
_cell_angle_beta 90.000000
_cell_angle_gamma 90.000000
_cell_volume 5695.467483
_symmetry_space_group_name_H-M "C M C M"
_symmetry_group_IT_number 63
_symmetry_cell_setting 'orthorhombic'
loop_
_space_group_symop_operation_xyz
x,y,z
-x,-y,1/2+z
x,-y,-z
-x,y,1/2-z
-x,-y,-z
x,y,1/2-z
-x,y,z
x,-y,1/2+z
1/2+x,1/2+y,z
1/2-x,1/2-y,1/2+z
1/2+x,1/2-y,-z
1/2-x,1/2+y,1/2-z
1/2-x,1/2-y,-z
1/2+x,1/2+y,1/2-z
1/2-x,1/2+y,z
1/2+x,1/2-y,1/2+z
loop_
_atom_site_type_symbol
_atom_site_label
_atom_site_fract_x
_atom_site_fract_y
_atom_site_fract_z
Si Si1 0.867693 0.995350 0.429198
Si Si2 0.415310 0.000000 0.500000
Si Si3 0.708636 0.987617 0.321595
Si Si4 0.449670 0.021108 0.321558
Si Si5 0.549594 0.273499 0.074172
Si Si6 0.874052 0.654985 0.614551
Si Si7 0.194383 0.854359 0.177033
O O1 0.913282 0.901262 0.432750
O O2 0.838230 0.913964 0.376224
O O3 0.849476 0.000000 0.500000
O O4 0.875571 0.168677 0.405939
O O5 0.444238 0.854427 0.520662
O O6 0.384715 0.950189 0.444192
O O7 0.699925 0.953073 0.250000
O O8 0.673453 0.890325 0.359741
O O9 0.758870 0.939100 0.333163
O O10 0.701176 0.170334 0.330532
O O11 0.445961 0.060687 0.250000
O O12 0.500000 0.966810 0.333955
O O13 0.413007 0.895008 0.338834
O O14 0.443228 0.172882 0.363561
O O15 0.500000 0.335069 0.073919
O O16 0.181463 0.881228 0.250000
#
# Coordination Sequence:
#
# PCOD9471557 Si02
#       7
#    16   8  16  16  16  16  16
#     4  12  25  41  56  91 128 161 204 251 304 362
#     4  10  19  38  56  84 114 154 208 242 297 350
#     4  10  21  40  67  95 117 154 205 248 299 366
#     4   9  19  37  61  89 118 154 204 256 306 360
#     4  10  21  38  61  84 117 160 204 249 300 361
#     4  11  22  36  59  85 122 159 197 248 296 358
#     4  10  22  42  66  90 122 159 201 250 304 368
#
# _framework density 18.260134999999998
#
# number of rings (size 3 to 8) (size 9 to 14) (size 15 to 20)
#    0.000    1.692    1.538    3.462    0.000    5.846 
#    1.385    1.538    0.000    1.846    0.000    0.000 
#    0.000    0.000    0.000    0.000    0.000    0.000 
#
# Total GULP energy -290191.395754 kJ/mol
# GULP energy per Si atom -5580.603765 kJ/mol
# Density = 1.821857 g / cm^3
# Si number density = 18.260135 Si / 1000 Ang^3
#
#
#
# Elastic Constant Matrix: (Units=GPa)
#
#
# Indices 1 2 3 4 5 6 
#
# 1 96.4411 49.9521 63.9633 0.0000 0.0000 0.0000
# 2 49.9521 66.2121 30.8360 0.0000 0.0000 0.0000
# 3 63.9633 30.8360 100.6230 0.0000 0.0000 0.0000
# 4 0.0000 0.0000 0.0000 16.3077 0.0000 0.0000
# 5 0.0000 0.0000 0.0000 0.0000 17.6424 0.0000
# 6 0.0000 0.0000 0.0000 0.0000 0.0000 25.0723
#
#
#
# Elastic Compliance Matrix: (Units=1/GPa)
#
#
# Indices 1 2 3 4 5 6 
#
# 1 0.025282 -0.013518 -0.011929 0.000000 0.000000 0.000000
# 2 -0.013518 0.024845 0.000979 0.000000 0.000000 0.000000
# 3 -0.011929 0.000979 0.017221 0.000000 0.000000 0.000000
# 4 0.000000 0.000000 0.000000 0.061321 0.000000 0.000000
# 5 0.000000 0.000000 0.000000 0.000000 0.056682 0.000000
# 6 0.000000 0.000000 0.000000 0.000000 0.000000 0.039885
#
#
# Mechanical properties :
#
#
# Convention : Reuss Voigt Hill
#
# Bulk Modulus (GPa) = 54.30869 61.41989 57.86429
# Shear Modulus (GPa) = 17.83747 19.70613 18.77180
#
# Velocity S-wave (km/s) = 3.12886 3.28866 3.20976
# Velocity P-wave (km/s) = 6.54670 6.93754 6.74495
#
# Compressibility (1/GPa) = 0.01841326
#
# Stress axis : x y z
#
# Youngs Moduli (GPa) = 39.55316 40.24880 58.06970
#
# Poissons Ratio (x) = 0.54410 0.69269
# Poissons Ratio (y) = 0.53469 -0.05687
# Poissons Ratio (z) = 0.47182 -0.03942
#
# Static dielectric constant tensor:
#      x y z
#    x 1.628680 0.000000 0.000000 
#    y 0.000000 1.607240 0.000000 
#    z 0.000000 0.000000 1.648600 
# 
# From -- ./inp_files/58161.got.cif
#   From: 2010.05.17/outbox.cif.g08.bks.cpg/sg63_30_cif.got.tgz:58161.got - 2010.06.03 15:47:04.
