data_PCOD9471823
_publ_section_title
;
Structure prediction by ZEFSAII (Michael W. Deem and Ramdas Pophale) SiO2 
 PCOD9471823
Probable space group: C M C M
;
_chemical_formula_sum "Si O2"
_cell_formula_units_Z 72
_cell_length_a 17.353257
_cell_length_b 25.615646
_cell_length_c 7.558260
_cell_angle_alpha 90.000000
_cell_angle_beta 90.000000
_cell_angle_gamma 90.000000
_cell_volume 3359.759099
_symmetry_space_group_name_H-M "C M C M"
_symmetry_group_IT_number 63
_symmetry_cell_setting 'orthorhombic'
loop_
_space_group_symop_operation_xyz
x,y,z
-x,-y,1/2+z
x,-y,-z
-x,y,1/2-z
-x,-y,-z
x,y,1/2-z
-x,y,z
x,-y,1/2+z
1/2+x,1/2+y,z
1/2-x,1/2-y,1/2+z
1/2+x,1/2-y,-z
1/2-x,1/2+y,1/2-z
1/2-x,1/2-y,-z
1/2+x,1/2+y,1/2-z
1/2-x,1/2+y,z
1/2+x,1/2-y,1/2+z
loop_
_atom_site_type_symbol
_atom_site_label
_atom_site_fract_x
_atom_site_fract_y
_atom_site_fract_z
Si Si1 0.914699 0.739772 0.966115
Si Si2 0.377716 0.355357 0.540653
Si Si3 0.000000 0.061502 0.037658
Si Si4 0.912849 0.559067 0.537998
Si Si5 0.698306 0.150158 0.536070
O O1 0.912532 0.740080 0.750000
O O2 0.905455 0.799165 0.029507
O O3 0.844732 0.702906 0.024865
O O4 0.000000 0.719667 0.015224
O O5 0.393386 0.353581 0.750000
O O6 0.425777 0.405099 0.472623
O O7 0.286326 0.357087 0.516797
O O8 0.000000 0.063603 0.250000
O O9 0.000000 0.000000 0.000000
O O10 0.888231 0.500000 0.500000
O O11 0.916567 0.565046 0.750000
O O12 0.853670 0.602014 0.472060
O O13 0.000000 0.565839 0.468955
O O14 0.697183 0.150861 0.750000
#
# Coordination Sequence:
#
# PCOD9471823 Si02
#       5
#    16  16   8  16  16
#     4   9  16  31  56  80 105 139 176 213 257 315
#     4  10  20  36  56  77 104 137 175 217 264 318
#     4  10  22  40  60  80 102 140 187 226 268 318
#     4   9  18  33  51  72 101 137 174 210 251 304
#     4  10  20  32  52  82 109 134 171 217 265 313
#
# _framework density 21.430107
#
# number of rings (size 3 to 8) (size 9 to 14) (size 15 to 20)
#    0.000    2.444    1.111    1.333    0.000    5.333 
#    0.000    4.444    0.000    3.333    0.000    0.000 
#    0.000    0.000    0.000    0.000    0.000    0.000 
#
# Total GULP energy -200982.265573 kJ/mol
# GULP energy per Si atom -5582.840710 kJ/mol
# Density = 2.138133 g / cm^3
# Si number density = 21.430107 Si / 1000 Ang^3
#
#
#
# Elastic Constant Matrix: (Units=GPa)
#
#
# Indices 1 2 3 4 5 6 
#
# 1 163.4949 117.1597 0.4320 0.0000 0.0000 0.0000
# 2 117.1597 179.9960 5.2234 0.0000 0.0000 0.0000
# 3 0.4320 5.2234 49.4143 0.0000 0.0000 0.0000
# 4 0.0000 0.0000 0.0000 15.8583 0.0000 0.0000
# 5 0.0000 0.0000 0.0000 0.0000 23.0700 0.0000
# 6 0.0000 0.0000 0.0000 0.0000 0.0000 -54.6852
#
#
#
# Elastic Compliance Matrix: (Units=1/GPa)
#
#
# Indices 1 2 3 4 5 6 
#
# 1 0.011487 -0.007497 0.000692 0.000000 0.000000 0.000000
# 2 -0.007497 0.010466 -0.001041 0.000000 0.000000 0.000000
# 3 0.000692 -0.001041 0.020341 0.000000 0.000000 0.000000
# 4 0.000000 0.000000 0.000000 0.063059 0.000000 0.000000
# 5 0.000000 0.000000 0.000000 0.000000 0.043346 0.000000
# 6 0.000000 0.000000 0.000000 0.000000 0.000000 -0.018286
#
#
# Mechanical properties :
#
#
# Convention : Reuss Voigt Hill
#
# Bulk Modulus (GPa) = 37.59070 70.94836 54.26953
# Shear Modulus (GPa) = 32.26425 14.85463 23.55944
#
# Velocity S-wave (km/s) = 3.88436 2.63566 3.31926
# Velocity P-wave (km/s) = 6.13977 6.51468 6.33000
#
# Compressibility (1/GPa) = 0.02660233
#
# Stress axis : x y z
#
# Youngs Moduli (GPa) = 87.05674 95.55133 49.16171
#
# Poissons Ratio (x) = 0.71633 -0.03402
# Poissons Ratio (y) = 0.65265 0.05116
# Poissons Ratio (z) = -0.06025 0.09944
#
# Static dielectric constant tensor:
#      x y z
#    x 1.758950 0.000000 0.000000 
#    y 0.000000 1.765730 0.000000 
#    z 0.000000 0.000000 1.804530 
# 
# From -- ./inp_files/4620.got.cif
#   From: 2010.05.17/outbox.cif.g08.bks.cpg/sg63_3_cif.got.tgz:4620.got - 2010.06.03 15:47:04.
