data_PCOD9471658
_publ_section_title
;
Structure prediction by ZEFSAII (Michael W. Deem and Ramdas Pophale) SiO2 
 PCOD9471658
Probable space group: C M C M
;
_chemical_formula_sum "Si O2"
_cell_formula_units_Z 80
_cell_length_a 7.297825
_cell_length_b 28.622960
_cell_length_c 16.542582
_cell_angle_alpha 90.000000
_cell_angle_beta 90.000000
_cell_angle_gamma 90.000000
_cell_volume 3455.503082
_symmetry_space_group_name_H-M "C M C M"
_symmetry_group_IT_number 63
_symmetry_cell_setting 'orthorhombic'
loop_
_space_group_symop_operation_xyz
x,y,z
-x,-y,1/2+z
x,-y,-z
-x,y,1/2-z
-x,-y,-z
x,y,1/2-z
-x,y,z
x,-y,1/2+z
1/2+x,1/2+y,z
1/2-x,1/2-y,1/2+z
1/2+x,1/2-y,-z
1/2-x,1/2+y,1/2-z
1/2-x,1/2-y,-z
1/2+x,1/2+y,1/2-z
1/2-x,1/2+y,z
1/2+x,1/2-y,1/2+z
loop_
_atom_site_type_symbol
_atom_site_label
_atom_site_fract_x
_atom_site_fract_y
_atom_site_fract_z
Si Si1 0.277497 0.866594 0.750000
Si Si2 0.723597 0.975096 0.083993
Si Si3 0.776313 0.311537 0.588779
Si Si4 0.788599 0.370249 0.062233
Si Si5 0.220633 0.217368 0.840718
Si Si6 0.276398 0.025606 0.250000
O O1 0.500000 0.866640 0.750000
O O2 0.223003 0.839232 0.669566
O O3 0.218945 0.920339 0.750000
O O4 0.500000 0.976169 0.085965
O O5 0.786434 0.921258 0.080884
O O6 0.782016 0.000454 0.166805
O O7 0.777856 0.000000 0.000000
O O8 0.708959 0.340541 0.512064
O O9 0.715298 0.257927 0.598566
O O10 0.000000 0.310307 0.585620
O O11 0.782030 0.334191 0.135854
O O12 0.000000 0.378972 0.039974
O O13 0.277100 0.229837 0.750000
O O14 0.000000 0.217208 0.842377
O O15 0.500000 0.025060 0.250000
#
# Coordination Sequence:
#
# PCOD9471658 Si02
#       6
#     8  16  16  16  16   8
#     4   9  14  24  45  68  93 127 169 203 234 283
#     4   9  17  29  43  67 101 130 157 194 243 294
#     4   9  16  29  47  70  95 127 166 204 241 283
#     4  10  20  31  50  75 102 129 159 202 250 295
#     4  10  20  34  50  69  97 131 168 204 239 289
#     4   9  16  24  39  62  93 129 157 191 242 289
#
# _framework density 23.151477
#
# number of rings (size 3 to 8) (size 9 to 14) (size 15 to 20)
#    0.000    2.600    1.000    1.800    1.400    5.200 
#    0.000    0.000    0.000    0.600    0.000    0.000 
#    0.000    1.600    0.000    0.000    0.000    0.000 
#
# Total GULP energy -223538.275413 kJ/mol
# GULP energy per Si atom -5588.456885 kJ/mol
# Density = 2.309878 g / cm^3
# Si number density = 23.151477 Si / 1000 Ang^3
#
#
#
# Elastic Constant Matrix: (Units=GPa)
#
#
# Indices 1 2 3 4 5 6 
#
# 1 93.2448 -2.5371 -4.6347 0.0000 0.0000 0.0000
# 2 -2.5371 198.6732 54.2171 0.0000 0.0000 0.0000
# 3 -4.6347 54.2171 112.0742 0.0000 0.0000 0.0000
# 4 0.0000 0.0000 0.0000 35.7155 0.0000 0.0000
# 5 0.0000 0.0000 0.0000 0.0000 -5.3812 0.0000
# 6 0.0000 0.0000 0.0000 0.0000 0.0000 14.6136
#
#
#
# Elastic Compliance Matrix: (Units=1/GPa)
#
#
# Indices 1 2 3 4 5 6 
#
# 1 0.010747 0.000018 0.000436 0.000000 0.000000 0.000000
# 2 0.000018 0.005799 -0.002805 0.000000 0.000000 0.000000
# 3 0.000436 -0.002805 0.010297 0.000000 0.000000 0.000000
# 4 0.000000 0.000000 0.000000 0.027999 0.000000 0.000000
# 5 0.000000 0.000000 0.000000 0.000000 -0.185834 0.000000
# 6 0.000000 0.000000 0.000000 0.000000 0.000000 0.068429
#
#
# Mechanical properties :
#
#
# Convention : Reuss Voigt Hill
#
# Bulk Modulus (GPa) = 45.16370 55.34255 50.25313
# Shear Modulus (GPa) = -99.04837 32.78605 -33.13116
#
# Velocity S-wave (km/s) = -6.54795 3.76726 -3.78704
# Velocity P-wave (km/s) = 6.13329 6.54824 1.62207
#
# Compressibility (1/GPa) = 0.02214168
#
# Stress axis : x y z
#
# Youngs Moduli (GPa) = 93.05267 172.44417 97.11186
#
# Poissons Ratio (x) = -0.00317 -0.04229
# Poissons Ratio (y) = -0.00171 0.27236
# Poissons Ratio (z) = -0.04053 0.48363
#
# Static dielectric constant tensor:
#      x y z
#    x 1.943090 0.000000 0.000000 
#    y 0.000000 1.817060 0.000000 
#    z 0.000000 0.000000 1.831680 
# 
# From -- ./inp_files/29760.got.cif
#   From: 2010.05.17/outbox.cif.g08.bks.cpg/sg63_15_cif.got.tgz:29760.got - 2010.06.03 15:47:04.
