data_PCOD9471301
_publ_section_title
;
Structure prediction by ZEFSAII (Michael W. Deem and Ramdas Pophale) SiO2 
 PCOD9471301
Probable space group: C M C M
;
_chemical_formula_sum "Si O2"
_cell_formula_units_Z 80
_cell_length_a 8.534023
_cell_length_b 15.765598
_cell_length_c 29.617573
_cell_angle_alpha 90.000000
_cell_angle_beta 90.000000
_cell_angle_gamma 90.000000
_cell_volume 3984.866029
_symmetry_space_group_name_H-M "C M C M"
_symmetry_group_IT_number 63
_symmetry_cell_setting 'orthorhombic'
loop_
_space_group_symop_operation_xyz
x,y,z
-x,-y,1/2+z
x,-y,-z
-x,y,1/2-z
-x,-y,-z
x,y,1/2-z
-x,y,z
x,-y,1/2+z
1/2+x,1/2+y,z
1/2-x,1/2-y,1/2+z
1/2+x,1/2-y,-z
1/2-x,1/2+y,1/2-z
1/2-x,1/2-y,-z
1/2+x,1/2+y,1/2-z
1/2-x,1/2+y,z
1/2+x,1/2-y,1/2+z
loop_
_atom_site_type_symbol
_atom_site_label
_atom_site_fract_x
_atom_site_fract_y
_atom_site_fract_z
Si Si1 0.186416 0.337042 0.134212
Si Si2 0.191141 0.510212 0.801236
Si Si3 0.684038 0.391938 0.040902
Si Si4 0.685665 0.080751 0.052144
Si Si5 0.311557 0.159692 0.148602
O O1 0.242232 0.416605 0.164238
O O2 0.262240 0.340787 0.084691
O O3 0.231132 0.248988 0.157586
O O4 0.000000 0.344173 0.128919
O O5 0.243026 0.525030 0.750000
O O6 0.237344 0.417689 0.819291
O O7 0.000000 0.511672 0.801571
O O8 0.500000 0.382781 0.033975
O O9 0.726654 0.490463 0.051090
O O10 0.771308 0.371644 0.994083
O O11 0.500000 0.062721 0.052961
O O12 0.725653 0.130887 0.097390
O O13 0.500000 0.169382 0.151814
#
# Coordination Sequence:
#
# PCOD9471301 Si02
#       5
#    16  16  16  16  16
#     4  11  22  38  60  88 119 157 197 239 291 348
#     4   9  19  39  64  86 114 153 194 239 296 354
#     4  11  21  34  56  86 119 156 198 242 288 341
#     4  10  19  35  58  84 118 158 198 238 289 350
#     4  10  21  38  60  88 118 153 194 239 290 347
#
# _framework density 20.075956999999999
#
# number of rings (size 3 to 8) (size 9 to 14) (size 15 to 20)
#    0.000    1.800    2.000    4.200    0.000    3.200 
#    0.000    0.000    0.000    4.200    0.000    0.000 
#    0.000    0.000    0.000    0.000    0.000    0.000 
#
# Total GULP energy -223526.103335 kJ/mol
# GULP energy per Si atom -5588.152583 kJ/mol
# Density = 2.003026 g / cm^3
# Si number density = 20.075957 Si / 1000 Ang^3
#
#
#
# Elastic Constant Matrix: (Units=GPa)
#
#
# Indices 1 2 3 4 5 6 
#
# 1 23.9336 -2.5123 1.1863 0.0000 0.0000 0.0000
# 2 -2.5123 41.6709 -6.9069 0.0000 0.0000 0.0000
# 3 1.1863 -6.9069 68.3790 0.0000 0.0000 0.0000
# 4 0.0000 0.0000 0.0000 7.0453 0.0000 0.0000
# 5 0.0000 0.0000 0.0000 0.0000 4.7037 0.0000
# 6 0.0000 0.0000 0.0000 0.0000 0.0000 26.6921
#
#
#
# Elastic Compliance Matrix: (Units=1/GPa)
#
#
# Indices 1 2 3 4 5 6 
#
# 1 0.042064 0.002456 -0.000482 0.000000 0.000000 0.000000
# 2 0.002456 0.024550 0.002437 0.000000 0.000000 0.000000
# 3 -0.000482 0.002437 0.014879 0.000000 0.000000 0.000000
# 4 0.000000 0.000000 0.000000 0.141938 0.000000 0.000000
# 5 0.000000 0.000000 0.000000 0.000000 0.212598 0.000000
# 6 0.000000 0.000000 0.000000 0.000000 0.000000 0.037464
#
#
# Mechanical properties :
#
#
# Convention : Reuss Voigt Hill
#
# Bulk Modulus (GPa) = 11.07230 13.05754 12.06492
# Shear Modulus (GPa) = 10.10561 17.16931 13.63746
#
# Velocity S-wave (km/s) = 2.24602 2.92758 2.60915
# Velocity P-wave (km/s) = 3.50048 4.23625 3.88582
#
# Compressibility (1/GPa) = 0.09031547
#
# Stress axis : x y z
#
# Youngs Moduli (GPa) = 23.77335 40.73391 67.20923
#
# Poissons Ratio (x) = -0.10005 0.03237
# Poissons Ratio (y) = -0.05839 -0.16380
# Poissons Ratio (z) = 0.01145 -0.09927
#
# Static dielectric constant tensor:
#      x y z
#    x 1.682960 0.000000 0.000000 
#    y 0.000000 1.719260 0.000000 
#    z 0.000000 0.000000 1.710200 
# 
# From -- ./inp_files/71561.got.cif
#   From: 2010.05.17/outbox.cif.g08.bks.cpg/sg63_36_cif.got.tgz:71561.got - 2010.06.03 15:47:04.
