data_PCOD9471577
_publ_section_title
;
Structure prediction by ZEFSAII (Michael W. Deem and Ramdas Pophale) SiO2 
 PCOD9471577
Probable space group: C M C M
;
_chemical_formula_sum "Si O2"
_cell_formula_units_Z 112
_cell_length_a 14.424917
_cell_length_b 27.579575
_cell_length_c 13.892546
_cell_angle_alpha 90.000000
_cell_angle_beta 90.000000
_cell_angle_gamma 90.000000
_cell_volume 5526.914368
_symmetry_space_group_name_H-M "C M C M"
_symmetry_group_IT_number 63
_symmetry_cell_setting 'orthorhombic'
loop_
_space_group_symop_operation_xyz
x,y,z
-x,-y,1/2+z
x,-y,-z
-x,y,1/2-z
-x,-y,-z
x,y,1/2-z
-x,y,z
x,-y,1/2+z
1/2+x,1/2+y,z
1/2-x,1/2-y,1/2+z
1/2+x,1/2-y,-z
1/2-x,1/2+y,1/2-z
1/2-x,1/2-y,-z
1/2+x,1/2+y,1/2-z
1/2-x,1/2+y,z
1/2+x,1/2-y,1/2+z
loop_
_atom_site_type_symbol
_atom_site_label
_atom_site_fract_x
_atom_site_fract_y
_atom_site_fract_z
Si Si1 0.605744 0.151792 0.860185
Si Si2 0.169865 0.285332 0.963705
Si Si3 0.757486 0.618504 0.135600
Si Si4 0.393717 0.967963 0.632778
Si Si5 0.235142 0.441965 0.363405
Si Si6 0.388607 0.397948 0.482443
Si Si7 0.607313 0.694578 0.644286
O O1 0.616991 0.170284 0.750000
O O2 0.500000 0.133490 0.867930
O O3 0.676711 0.107667 0.873987
O O4 0.621722 0.191794 0.942262
O O5 0.209062 0.329404 0.901260
O O6 0.112540 0.248535 0.897389
O O7 0.250000 0.250000 0.000000
O O8 0.749815 0.617656 0.250000
O O9 0.835853 0.579620 0.104792
O O10 0.660511 0.604827 0.085729
O O11 0.397927 0.968159 0.750000
O O12 0.500000 0.968096 0.598264
O O13 0.333027 0.014756 0.606284
O O14 0.256207 0.447971 0.250000
O O15 0.330578 0.437574 0.422029
O O16 0.500000 0.403989 0.484398
O O17 0.361780 0.346911 0.429619
O O18 0.652998 0.690996 0.750000
O O19 0.500000 0.682860 0.655731
#
# Coordination Sequence:
#
# PCOD9471577 Si02
#       7
#    16  16  16  16  16  16  16
#     4  10  21  37  61  95 133 167 202 254 318 382
#     4  12  22  39  60  88 127 166 210 259 310 377
#     4  11  24  43  63  90 127 168 215 263 316 377
#     4   9  20  40  67  98 132 167 202 246 310 389
#     4  10  19  38  66  96 130 165 205 254 312 378
#     4  11  23  42  63  90 124 163 218 272 318 370
#     4  10  21  38  61  88 119 158 204 257 317 377
#
# _framework density 20.264472000000001
#
# number of rings (size 3 to 8) (size 9 to 14) (size 15 to 20)
#    0.000    1.571    2.857    1.714    0.000    6.857 
#    0.000    3.571    0.000    2.571    0.000    0.000 
#    0.000    0.000    0.000    0.000    0.000    0.000 
#
# Total GULP energy -312750.414042 kJ/mol
# GULP energy per Si atom -5584.828822 kJ/mol
# Density = 2.021835 g / cm^3
# Si number density = 20.264472 Si / 1000 Ang^3
#
#
#
# Elastic Constant Matrix: (Units=GPa)
#
#
# Indices 1 2 3 4 5 6 
#
# 1 155.9138 60.3433 52.6103 0.0000 0.0000 0.0000
# 2 60.3433 98.8440 32.9681 0.0000 0.0000 0.0000
# 3 52.6103 32.9681 123.5327 0.0000 0.0000 0.0000
# 4 0.0000 0.0000 0.0000 29.6726 0.0000 0.0000
# 5 0.0000 0.0000 0.0000 0.0000 32.4310 0.0000
# 6 0.0000 0.0000 0.0000 0.0000 0.0000 29.3987
#
#
#
# Elastic Compliance Matrix: (Units=1/GPa)
#
#
# Indices 1 2 3 4 5 6 
#
# 1 0.009116 -0.004688 -0.002631 0.000000 0.000000 0.000000
# 2 -0.004688 0.013516 -0.001611 0.000000 0.000000 0.000000
# 3 -0.002631 -0.001611 0.009646 0.000000 0.000000 0.000000
# 4 0.000000 0.000000 0.000000 0.033701 0.000000 0.000000
# 5 0.000000 0.000000 0.000000 0.000000 0.030835 0.000000
# 6 0.000000 0.000000 0.000000 0.000000 0.000000 0.034015
#
#
# Mechanical properties :
#
#
# Convention : Reuss Voigt Hill
#
# Bulk Modulus (GPa) = 69.35708 74.45933 71.90820
# Shear Modulus (GPa) = 32.57469 33.79172 33.18320
#
# Velocity S-wave (km/s) = 4.01369 4.08798 4.05100
# Velocity P-wave (km/s) = 7.46859 7.68802 7.57910
#
# Compressibility (1/GPa) = 0.01441814
#
# Stress axis : x y z
#
# Youngs Moduli (GPa) = 109.69853 73.98699 103.67511
#
# Poissons Ratio (x) = 0.34682 0.27280
# Poissons Ratio (y) = 0.51421 0.16700
# Poissons Ratio (z) = 0.28865 0.11918
#
# Static dielectric constant tensor:
#      x y z
#    x 1.758660 0.000000 0.000000 
#    y 0.000000 1.709710 0.000000 
#    z 0.000000 0.000000 1.791640 
# 
# From -- ./inp_files/32351.got.cif
#   From: 2010.05.17/outbox.cif.g08.bks.cpg/sg63_17_cif.got.tgz:32351.got - 2010.06.03 15:47:04.
