data_PCOD9471870
_publ_section_title
;
Structure prediction by ZEFSAII (Michael W. Deem and Ramdas Pophale) SiO2 
 PCOD9471870
Probable space group: C M C M
;
_chemical_formula_sum "Si O2"
_cell_formula_units_Z 96
_cell_length_a 19.165860
_cell_length_b 28.379498
_cell_length_c 9.501098
_cell_angle_alpha 90.000000
_cell_angle_beta 90.000000
_cell_angle_gamma 90.000000
_cell_volume 5167.813334
_symmetry_space_group_name_H-M "C M C M"
_symmetry_group_IT_number 63
_symmetry_cell_setting 'orthorhombic'
loop_
_space_group_symop_operation_xyz
x,y,z
-x,-y,1/2+z
x,-y,-z
-x,y,1/2-z
-x,-y,-z
x,y,1/2-z
-x,y,z
x,-y,1/2+z
1/2+x,1/2+y,z
1/2-x,1/2-y,1/2+z
1/2+x,1/2-y,-z
1/2-x,1/2+y,1/2-z
1/2-x,1/2-y,-z
1/2+x,1/2+y,1/2-z
1/2-x,1/2+y,z
1/2+x,1/2-y,1/2+z
loop_
_atom_site_type_symbol
_atom_site_label
_atom_site_fract_x
_atom_site_fract_y
_atom_site_fract_z
Si Si1 0.386234 0.956298 0.091361
Si Si2 0.074933 0.374924 0.900143
Si Si3 0.816669 0.291931 0.909382
Si Si4 0.186426 0.855207 0.581355
Si Si5 0.081493 0.223340 0.082435
Si Si6 0.782490 0.047947 0.916185
O O1 0.406374 0.963465 0.250000
O O2 0.302101 0.951997 0.081288
O O3 0.417602 0.909484 0.027930
O O4 0.409201 0.000000 0.000000
O O5 0.079160 0.401555 0.750000
O O6 0.135498 0.337868 0.900025
O O7 0.000000 0.350449 0.905267
O O8 0.805472 0.272881 0.750000
O O9 0.743926 0.314995 0.961401
O O10 0.863955 0.257216 0.002194
O O11 0.197554 0.863829 0.750000
O O12 0.112084 0.829446 0.562576
O O13 0.194431 0.903790 0.495167
O O14 0.085383 0.233458 0.250000
O O15 0.000000 0.227908 0.039454
O O16 0.803096 0.046945 0.750000
O O17 0.804232 0.000000 0.000000
#
# Coordination Sequence:
#
# PCOD9471870 Si02
#       6
#    16  16  16  16  16  16
#     4  10  20  33  50  71  98 134 175 221 271 323
#     4  10  20  33  49  70 100 138 179 224 272 319
#     4  10  20  35  56  80 107 144 189 231 271 319
#     4  10  20  36  59  84 112 147 186 230 276 325
#     4  10  22  38  56  82 116 150 183 225 280 335
#     4  10  20  34  56  85 114 143 179 226 277 329
#
# _framework density 18.576521
#
# number of rings (size 3 to 8) (size 9 to 14) (size 15 to 20)
#    0.000    2.000    1.667    2.000    0.000    5.000 
#    0.000    0.000    0.000    0.500    0.000    0.000 
#    0.000    0.000    0.000    0.000    0.000    0.000 
#
# Total GULP energy -267453.486144 kJ/mol
# GULP energy per Si atom -5571.947628 kJ/mol
# Density = 1.853424 g / cm^3
# Si number density = 18.576521 Si / 1000 Ang^3
#
#
#
# Elastic Constant Matrix: (Units=GPa)
#
#
# Indices 1 2 3 4 5 6 
#
# 1 64.1435 53.8460 35.8428 0.0000 0.0000 0.0000
# 2 53.8460 94.3063 64.6953 0.0000 0.0000 0.0000
# 3 35.8428 64.6953 107.4886 0.0000 0.0000 0.0000
# 4 0.0000 0.0000 0.0000 34.2405 0.0000 0.0000
# 5 0.0000 0.0000 0.0000 0.0000 17.3942 0.0000
# 6 0.0000 0.0000 0.0000 0.0000 0.0000 193.2921
#
#
#
# Elastic Compliance Matrix: (Units=1/GPa)
#
#
# Indices 1 2 3 4 5 6 
#
# 1 0.029958 -0.017462 0.000520 0.000000 0.000000 0.000000
# 2 -0.017462 0.028240 -0.011174 0.000000 0.000000 0.000000
# 3 0.000520 -0.011174 0.015855 0.000000 0.000000 0.000000
# 4 0.000000 0.000000 0.000000 0.029205 0.000000 0.000000
# 5 0.000000 0.000000 0.000000 0.000000 0.057490 0.000000
# 6 0.000000 0.000000 0.000000 0.000000 0.000000 0.005174
#
#
# Mechanical properties :
#
#
# Convention : Reuss Voigt Hill
#
# Bulk Modulus (GPa) = 56.11237 63.85627 59.98432
# Shear Modulus (GPa) = 21.92080 56.42231 39.17155
#
# Velocity S-wave (km/s) = 3.43888 5.51714 4.59700
# Velocity P-wave (km/s) = 6.78524 8.66224 7.78055
#
# Compressibility (1/GPa) = 0.01782138
#
# Stress axis : x y z
#
# Youngs Moduli (GPa) = 33.38005 35.41125 63.07078
#
# Poissons Ratio (x) = 0.61836 -0.03282
# Poissons Ratio (y) = 0.58289 0.70475
# Poissons Ratio (z) = -0.01737 0.39569
#
# Static dielectric constant tensor:
#      x y z
#    x 1.647810 0.000000 0.000000 
#    y 0.000000 1.626200 0.000000 
#    z 0.000000 0.000000 1.679810 
# 
# From -- ./inp_files/8593.got.cif
#   From: 2010.05.17/outbox.cif.g08.bks.cpg/sg63_5_cif.got.tgz:8593.got - 2010.06.03 15:47:04.
