data_PCOD9471073
_publ_section_title
;
Structure prediction by ZEFSAII (Michael W. Deem and Ramdas Pophale) SiO2 
 PCOD9471073
Probable space group: C M C M
;
_chemical_formula_sum "Si O2"
_cell_formula_units_Z 88
_cell_length_a 20.233849
_cell_length_b 25.177038
_cell_length_c 7.715329
_cell_angle_alpha 90.000000
_cell_angle_beta 90.000000
_cell_angle_gamma 90.000000
_cell_volume 3930.407593
_symmetry_space_group_name_H-M "C M C M"
_symmetry_group_IT_number 63
_symmetry_cell_setting 'orthorhombic'
loop_
_space_group_symop_operation_xyz
x,y,z
-x,-y,1/2+z
x,-y,-z
-x,y,1/2-z
-x,-y,-z
x,y,1/2-z
-x,y,z
x,-y,1/2+z
1/2+x,1/2+y,z
1/2-x,1/2-y,1/2+z
1/2+x,1/2-y,-z
1/2-x,1/2+y,1/2-z
1/2-x,1/2-y,-z
1/2+x,1/2+y,1/2-z
1/2-x,1/2+y,z
1/2+x,1/2-y,1/2+z
loop_
_atom_site_type_symbol
_atom_site_label
_atom_site_fract_x
_atom_site_fract_y
_atom_site_fract_z
Si Si1 0.227265 0.848465 0.461923
Si Si2 0.000000 0.194088 0.557050
Si Si3 0.633902 0.256716 0.039252
Si Si4 0.873086 0.366451 0.045220
Si Si5 0.500000 0.936119 0.459503
Si Si6 0.500000 0.415121 0.566204
Si Si7 0.136777 0.054192 0.544931
O O1 0.231369 0.845844 0.250000
O O2 0.197584 0.791475 0.520427
O O3 0.298065 0.869914 0.526331
O O4 0.174373 0.893031 0.508689
O O5 0.930870 0.211430 0.479557
O O6 0.000000 0.131249 0.571154
O O7 0.000000 0.218423 0.750000
O O8 0.638265 0.255591 0.250000
O O9 0.619343 0.197106 0.977348
O O10 0.870100 0.378433 0.250000
O O11 0.933802 0.403377 0.978673
O O12 0.500000 0.932391 0.250000
O O13 0.500000 0.000000 0.500000
O O14 0.500000 0.386585 0.750000
O O15 0.566656 0.447151 0.548854
O O16 0.126646 0.056983 0.750000
O O17 0.174181 0.000000 0.500000
#
# Coordination Sequence:
#
# PCOD9471073 Si02
#       7
#    16   8  16  16   8   8  16
#     4   9  19  36  58  81 115 157 194 234 291 346
#     4  10  19  34  56  80 114 154 191 227 275 328
#     4  10  19  34  57  86 116 155 194 231 283 349
#     4  10  21  38  59  87 118 151 188 239 296 349
#     4  10  23  42  64  87 117 151 193 245 306 356
#     4  12  23  36  55  81 109 145 191 232 275 328
#     4  11  22  39  58  79 111 151 195 242 285 334
#
# _framework density 22.389536
#
# number of rings (size 3 to 8) (size 9 to 14) (size 15 to 20)
#    0.000    1.818    1.818    2.727    0.000    2.182 
#    0.000    1.818    0.000    0.000    0.000    0.000 
#    0.000    0.000    0.000    0.000    0.000    0.000 
#
# Total GULP energy -245191.474543 kJ/mol
# GULP energy per Si atom -5572.533512 kJ/mol
# Density = 2.233858 g / cm^3
# Si number density = 22.389536 Si / 1000 Ang^3
#
#
#
# Elastic Constant Matrix: (Units=GPa)
#
#
# Indices 1 2 3 4 5 6 
#
# 1 168.0954 81.3073 11.4068 0.0000 0.0000 0.0000
# 2 81.3073 148.0162 -4.8415 0.0000 0.0000 0.0000
# 3 11.4068 -4.8415 45.6216 0.0000 0.0000 0.0000
# 4 0.0000 0.0000 0.0000 24.9072 0.0000 0.0000
# 5 0.0000 0.0000 0.0000 0.0000 -485.4764 0.0000
# 6 0.0000 0.0000 0.0000 0.0000 0.0000 -70.1944
#
#
#
# Elastic Compliance Matrix: (Units=1/GPa)
#
#
# Indices 1 2 3 4 5 6 
#
# 1 0.008398 -0.004698 -0.002598 0.000000 0.000000 0.000000
# 2 -0.004698 0.009408 0.002173 0.000000 0.000000 0.000000
# 3 -0.002598 0.002173 0.022800 0.000000 0.000000 0.000000
# 4 0.000000 0.000000 0.000000 0.040149 0.000000 0.000000
# 5 0.000000 0.000000 0.000000 0.000000 -0.002060 0.000000
# 6 0.000000 0.000000 0.000000 0.000000 0.000000 -0.014246
#
#
# Mechanical properties :
#
#
# Convention : Reuss Voigt Hill
#
# Bulk Modulus (GPa) = 32.93942 59.71982 46.32962
# Shear Modulus (GPa) = 58.95243 -87.89533 -14.47145
#
# Velocity S-wave (km/s) = 5.13688 -6.27236 -2.54510
# Velocity P-wave (km/s) = 7.06592 5.07205 3.47862
#
# Compressibility (1/GPa) = 0.03035876
#
# Stress axis : x y z
#
# Youngs Moduli (GPa) = 119.08012 106.29537 43.86025
#
# Poissons Ratio (x) = 0.49937 0.11396
# Poissons Ratio (y) = 0.55943 -0.09531
# Poissons Ratio (z) = 0.30940 -0.23098
#
# Static dielectric constant tensor:
#      x y z
#    x 1.894150 0.000000 0.000000 
#    y 0.000000 1.818970 0.000000 
#    z 0.000000 0.000000 1.809870 
# 
# From -- ./inp_files/8311.got.cif
#   From: 2010.05.17/outbox.cif.g08.bks.cpg/sg63_5_cif.got.tgz:8311.got - 2010.06.03 15:47:04.
