data_PCOD9471793
_publ_section_title
;
Structure prediction by ZEFSAII (Michael W. Deem and Ramdas Pophale) SiO2 
 PCOD9471793
Probable space group: C M C M
;
_chemical_formula_sum "Si O2"
_cell_formula_units_Z 96
_cell_length_a 24.724817
_cell_length_b 9.521978
_cell_length_c 25.342030
_cell_angle_alpha 90.000000
_cell_angle_beta 90.000000
_cell_angle_gamma 90.000000
_cell_volume 5966.252925
_symmetry_space_group_name_H-M "C M C M"
_symmetry_group_IT_number 63
_symmetry_cell_setting 'orthorhombic'
loop_
_space_group_symop_operation_xyz
x,y,z
-x,-y,1/2+z
x,-y,-z
-x,y,1/2-z
-x,-y,-z
x,y,1/2-z
-x,y,z
x,-y,1/2+z
1/2+x,1/2+y,z
1/2-x,1/2-y,1/2+z
1/2+x,1/2-y,-z
1/2-x,1/2+y,1/2-z
1/2-x,1/2-y,-z
1/2+x,1/2+y,1/2-z
1/2-x,1/2+y,z
1/2+x,1/2-y,1/2+z
loop_
_atom_site_type_symbol
_atom_site_label
_atom_site_fract_x
_atom_site_fract_y
_atom_site_fract_z
Si Si1 0.779271 0.452506 0.811149
Si Si2 0.176276 0.944526 0.625958
Si Si3 0.563978 0.924440 0.688435
Si Si4 0.768380 0.372101 0.961502
Si Si5 0.363277 0.189256 0.687108
Si Si6 0.651051 0.239755 0.122613
O O1 0.788340 0.447107 0.750000
O O2 0.717540 0.467212 0.825715
O O3 0.813234 0.587974 0.830007
O O4 0.803527 0.310482 0.835347
O O5 0.218289 0.905927 0.578576
O O6 0.138060 0.820050 0.647209
O O7 0.148117 0.093378 0.615517
O O8 0.576168 0.884453 0.750000
O O9 0.500000 0.915611 0.680832
O O10 0.597169 0.829253 0.647022
O O11 0.585862 0.084024 0.682752
O O12 0.822153 0.328622 0.929432
O O13 0.779744 0.500000 0.000000
O O14 0.750000 0.250000 0.000000
O O15 0.357644 0.226642 0.750000
#
# Coordination Sequence:
#
# PCOD9471793 Si02
#       6
#    16  16  16  16  16  16
#     4   9  17  28  43  67 104 140 164 192 240 313
#     4  11  20  29  46  75 106 134 168 208 257 307
#     4   9  19  37  57  75 100 137 179 220 262 311
#     4  11  22  36  51  77 109 143 175 208 255 312
#     4   9  18  30  47  72 101 136 171 205 251 308
#     4  10  20  32  50  76 101 134 174 214 257 306
#
# _framework density 16.090501
#
# number of rings (size 3 to 8) (size 9 to 14) (size 15 to 20)
#    0.000    2.167    1.667    4.000    4.667    4.000 
#    0.000    0.833    0.000    2.500    0.000    1.167 
#    0.000    0.000    0.000    0.000    0.000    0.000 
#
# Total GULP energy -267222.975480 kJ/mol
# GULP energy per Si atom -5567.145322 kJ/mol
# Density = 1.605388 g / cm^3
# Si number density = 16.090501 Si / 1000 Ang^3
#
#
#
# Elastic Constant Matrix: (Units=GPa)
#
#
# Indices 1 2 3 4 5 6 
#
# 1 86.5597 35.4510 35.5289 0.0000 0.0000 0.0000
# 2 35.4510 115.4375 55.3760 0.0000 0.0000 0.0000
# 3 35.5289 55.3760 64.1036 0.0000 0.0000 0.0000
# 4 0.0000 0.0000 0.0000 26.9983 0.0000 0.0000
# 5 0.0000 0.0000 0.0000 0.0000 21.5848 0.0000
# 6 0.0000 0.0000 0.0000 0.0000 0.0000 7.2781
#
#
#
# Elastic Compliance Matrix: (Units=1/GPa)
#
#
# Indices 1 2 3 4 5 6 
#
# 1 0.015030 -0.001058 -0.007416 0.000000 0.000000 0.000000
# 2 -0.001058 0.014867 -0.012257 0.000000 0.000000 0.000000
# 3 -0.007416 -0.012257 0.030298 0.000000 0.000000 0.000000
# 4 0.000000 0.000000 0.000000 0.037039 0.000000 0.000000
# 5 0.000000 0.000000 0.000000 0.000000 0.046329 0.000000
# 6 0.000000 0.000000 0.000000 0.000000 0.000000 0.137399
#
#
# Mechanical properties :
#
#
# Convention : Reuss Voigt Hill
#
# Bulk Modulus (GPa) = 53.38064 57.64584 55.51324
# Shear Modulus (GPa) = 15.21287 20.48855 17.85071
#
# Velocity S-wave (km/s) = 3.07816 3.57225 3.33437
# Velocity P-wave (km/s) = 6.77353 7.27450 7.02848
#
# Compressibility (1/GPa) = 0.01873338
#
# Stress axis : x y z
#
# Youngs Moduli (GPa) = 66.53299 67.26214 33.00547
#
# Poissons Ratio (x) = 0.07117 0.24478
# Poissons Ratio (y) = 0.07040 0.40453
# Poissons Ratio (z) = 0.49343 0.82440
#
# Static dielectric constant tensor:
#      x y z
#    x 1.533350 0.000000 0.000000 
#    y 0.000000 1.566150 0.000000 
#    z 0.000000 0.000000 1.554030 
# 
# From -- ./inp_files/64959.got.cif
#   From: 2010.05.17/outbox.cif.g08.bks.cpg/sg63_33_cif.got.tgz:64959.got - 2010.06.03 15:47:04.
