data_PCOD9471265
_publ_section_title
;
Structure prediction by ZEFSAII (Michael W. Deem and Ramdas Pophale) SiO2 
 PCOD9471265
Probable space group: C M C M
;
_chemical_formula_sum "Si O2"
_cell_formula_units_Z 80
_cell_length_a 7.586285
_cell_length_b 21.253892
_cell_length_c 23.711038
_cell_angle_alpha 90.000000
_cell_angle_beta 90.000000
_cell_angle_gamma 90.000000
_cell_volume 3823.122291
_symmetry_space_group_name_H-M "C M C M"
_symmetry_group_IT_number 63
_symmetry_cell_setting 'orthorhombic'
loop_
_space_group_symop_operation_xyz
x,y,z
-x,-y,1/2+z
x,-y,-z
-x,y,1/2-z
-x,-y,-z
x,y,1/2-z
-x,y,z
x,-y,1/2+z
1/2+x,1/2+y,z
1/2-x,1/2-y,1/2+z
1/2+x,1/2-y,-z
1/2-x,1/2+y,1/2-z
1/2-x,1/2-y,-z
1/2+x,1/2+y,1/2-z
1/2-x,1/2+y,z
1/2+x,1/2-y,1/2+z
loop_
_atom_site_type_symbol
_atom_site_label
_atom_site_fract_x
_atom_site_fract_y
_atom_site_fract_z
Si Si1 0.214871 0.500642 0.566021
Si Si2 0.300661 0.121912 0.131401
Si Si3 0.200109 0.075620 0.250000
Si Si4 0.207372 0.253378 0.683686
Si Si5 0.302146 0.878193 0.132508
Si Si6 0.299966 0.427580 0.250000
O O1 0.253874 0.500000 0.500000
O O2 0.278941 0.435515 0.594885
O O3 0.279372 0.566127 0.594179
O O4 0.000000 0.500970 0.573606
O O5 0.500000 0.131797 0.109288
O O6 0.301186 0.095045 0.194505
O O7 0.216483 0.190010 0.144990
O O8 0.000000 0.102319 0.250000
O O9 0.183308 0.001515 0.250000
O O10 0.273288 0.248559 0.750000
O O11 0.222797 0.189688 0.647356
O O12 0.000000 0.267261 0.689574
O O13 0.500000 0.867067 0.111396
O O14 0.300134 0.908197 0.194435
O O15 0.500000 0.399448 0.250000
#
# Coordination Sequence:
#
# PCOD9471265 Si02
#       6
#    16  16   8  16  16   8
#     4   9  19  36  58  81 102 134 185 236 268 300
#     4  10  19  35  57  78 107 145 183 216 258 326
#     4  11  21  30  49  82 115 139 167 222 279 318
#     4  10  20  33  51  78 115 149 172 207 266 330
#     4  11  21  33  55  81 108 140 178 223 264 316
#     4  11  21  32  49  78 115 143 169 214 275 332
#
# _framework density 20.925304000000001
#
# number of rings (size 3 to 8) (size 9 to 14) (size 15 to 20)
#    0.000    1.800    4.000    1.200    0.000    1.600 
#    0.000    1.000    0.000    5.400    0.000    0.000 
#    0.000    0.000    0.000    0.000    0.000    0.000 
#
# Total GULP energy -222718.999172 kJ/mol
# GULP energy per Si atom -5567.974979 kJ/mol
# Density = 2.087768 g / cm^3
# Si number density = 20.925304 Si / 1000 Ang^3
#
#
#
# Elastic Constant Matrix: (Units=GPa)
#
#
# Indices 1 2 3 4 5 6 
#
# 1 60.1051 5.9825 -6.2949 0.0000 0.0000 0.0000
# 2 5.9825 198.1661 75.9412 0.0000 0.0000 0.0000
# 3 -6.2949 75.9412 114.5361 0.0000 0.0000 0.0000
# 4 0.0000 0.0000 0.0000 1.7690 0.0000 0.0000
# 5 0.0000 0.0000 0.0000 0.0000 -3.0398 0.0000
# 6 0.0000 0.0000 0.0000 0.0000 0.0000 15.3442
#
#
#
# Elastic Compliance Matrix: (Units=1/GPa)
#
#
# Indices 1 2 3 4 5 6 
#
# 1 0.016932 -0.001163 0.001702 0.000000 0.000000 0.000000
# 2 -0.001163 0.006845 -0.004603 0.000000 0.000000 0.000000
# 3 0.001702 -0.004603 0.011876 0.000000 0.000000 0.000000
# 4 0.000000 0.000000 0.000000 0.565289 0.000000 0.000000
# 5 0.000000 0.000000 0.000000 0.000000 -0.328966 0.000000
# 6 0.000000 0.000000 0.000000 0.000000 0.000000 0.065171
#
#
# Mechanical properties :
#
#
# Convention : Reuss Voigt Hill
#
# Bulk Modulus (GPa) = 36.33086 58.22945 47.28016
# Shear Modulus (GPa) = 14.10636 22.62657 18.36647
#
# Velocity S-wave (km/s) = 2.59922 3.29188 2.96584
# Velocity P-wave (km/s) = 5.13885 6.50664 5.86277
#
# Compressibility (1/GPa) = 0.02752481
#
# Stress axis : x y z
#
# Youngs Moduli (GPa) = 59.06132 146.08848 84.20329
#
# Poissons Ratio (x) = 0.16995 -0.14331
# Poissons Ratio (y) = 0.06871 0.38755
# Poissons Ratio (z) = -0.10052 0.67237
#
# Static dielectric constant tensor:
#      x y z
#    x 1.875350 0.000000 0.000000 
#    y 0.000000 1.849590 0.000000 
#    z 0.000000 0.000000 1.690160 
# 
# From -- ./inp_files/59562.got.cif
#   From: 2010.05.17/outbox.cif.g08.bks.cpg/sg63_30_cif.got.tgz:59562.got - 2010.06.03 15:47:04.
