data_PCOD9471341
_publ_section_title
;
Structure prediction by ZEFSAII (Michael W. Deem and Ramdas Pophale) SiO2 
 PCOD9471341
Probable space group: C M C M
;
_chemical_formula_sum "Si O2"
_cell_formula_units_Z 104
_cell_length_a 20.832435
_cell_length_b 14.680496
_cell_length_c 14.366146
_cell_angle_alpha 90.000000
_cell_angle_beta 90.000000
_cell_angle_gamma 90.000000
_cell_volume 4393.605308
_symmetry_space_group_name_H-M "C M C M"
_symmetry_group_IT_number 63
_symmetry_cell_setting 'orthorhombic'
loop_
_space_group_symop_operation_xyz
x,y,z
-x,-y,1/2+z
x,-y,-z
-x,y,1/2-z
-x,-y,-z
x,y,1/2-z
-x,y,z
x,-y,1/2+z
1/2+x,1/2+y,z
1/2-x,1/2-y,1/2+z
1/2+x,1/2-y,-z
1/2-x,1/2+y,1/2-z
1/2-x,1/2-y,-z
1/2+x,1/2+y,1/2-z
1/2-x,1/2+y,z
1/2+x,1/2-y,1/2+z
loop_
_atom_site_type_symbol
_atom_site_label
_atom_site_fract_x
_atom_site_fract_y
_atom_site_fract_z
Si Si1 0.886187 0.156098 0.354527
Si Si2 0.071926 0.038990 0.603585
Si Si3 0.824265 0.186766 0.862908
Si Si4 0.258437 0.134637 0.136262
Si Si5 0.571320 0.898529 0.038447
Si Si6 0.500000 0.242459 0.969931
Si Si7 0.798660 0.432506 0.361932
O O1 0.887587 0.196778 0.250000
O O2 0.813680 0.161466 0.393482
O O3 0.942415 0.200354 0.415018
O O4 0.898337 0.047759 0.345384
O O5 0.115633 0.127298 0.606571
O O6 0.000000 0.060193 0.635320
O O7 0.068456 0.000000 0.500000
O O8 0.826952 0.188075 0.750000
O O9 0.808388 0.288735 0.893281
O O10 0.760845 0.129340 0.889603
O O11 0.255084 0.132086 0.250000
O O12 0.283077 0.035572 0.106189
O O13 0.500000 0.873239 0.089663
O O14 0.557772 0.815976 0.969935
O O15 0.634216 0.895783 0.098870
O O16 0.566967 0.000000 0.000000
O O17 0.802936 0.433123 0.250000
#
# Coordination Sequence:
#
# PCOD9471341 Si02
#       7
#    16  16  16  16  16   8  16
#     4  11  20  36  62  89 118 148 195 264 312 346
#     4  11  24  41  56  83 123 160 200 243 302 366
#     4  10  20  38  62  86 116 154 196 246 301 360
#     4   9  19  35  56  88 115 143 192 242 298 352
#     4   9  21  40  55  83 122 163 190 226 299 368
#     4  10  20  34  59  88 110 140 205 247 290 353
#     4  10  19  35  60  86 118 150 191 252 295 344
#
# _framework density 23.670763999999998
#
# number of rings (size 3 to 8) (size 9 to 14) (size 15 to 20)
#    0.462    1.538    2.308    1.615    0.000    4.308 
#    2.769    1.538    0.000    2.769    0.000    0.000 
#    0.000    0.000    0.000    0.000    0.000    0.000 
#
# Total GULP energy -289646.476905 kJ/mol
# GULP energy per Si atom -5570.124556 kJ/mol
# Density = 2.361689 g / cm^3
# Si number density = 23.670764 Si / 1000 Ang^3
#
#
#
# Elastic Constant Matrix: (Units=GPa)
#
#
# Indices 1 2 3 4 5 6 
#
# 1 187.3719 44.4234 24.4197 0.0000 0.0000 0.0000
# 2 44.4234 109.6804 23.4818 0.0000 0.0000 0.0000
# 3 24.4197 23.4818 48.2755 0.0000 0.0000 0.0000
# 4 0.0000 0.0000 0.0000 -45.7254 0.0000 0.0000
# 5 0.0000 0.0000 0.0000 0.0000 282.0098 0.0000
# 6 0.0000 0.0000 0.0000 0.0000 0.0000 43.9437
#
#
#
# Elastic Compliance Matrix: (Units=1/GPa)
#
#
# Indices 1 2 3 4 5 6 
#
# 1 0.006089 -0.002017 -0.002099 0.000000 0.000000 0.000000
# 2 -0.002017 0.010845 -0.004255 0.000000 0.000000 0.000000
# 3 -0.002099 -0.004255 0.023846 0.000000 0.000000 0.000000
# 4 0.000000 0.000000 0.000000 -0.021870 0.000000 0.000000
# 5 0.000000 0.000000 0.000000 0.000000 0.003546 0.000000
# 6 0.000000 0.000000 0.000000 0.000000 0.000000 0.022756
#
#
# Mechanical properties :
#
#
# Convention : Reuss Voigt Hill
#
# Bulk Modulus (GPa) = 41.60032 58.88638 50.24335
# Shear Modulus (GPa) = 71.46259 72.91249 72.18754
#
# Velocity S-wave (km/s) = 5.50052 5.55604 5.52835
# Velocity P-wave (km/s) = 7.61274 8.12962 7.87542
#
# Compressibility (1/GPa) = 0.02403828
#
# Stress axis : x y z
#
# Youngs Moduli (GPa) = 164.23979 92.20674 41.93592
#
# Poissons Ratio (x) = 0.18595 0.08802
# Poissons Ratio (y) = 0.33122 0.17844
# Poissons Ratio (z) = 0.34473 0.39235
#
# Static dielectric constant tensor:
#      x y z
#    x 1.896990 0.000000 0.000000 
#    y 0.000000 1.954910 0.000000 
#    z 0.000000 0.000000 1.959350 
# 
# From -- ./inp_files/47150.got.cif
#   From: 2010.05.17/outbox.cif.g08.bks.cpg/sg63_24_cif.got.tgz:47150.got - 2010.06.03 15:47:04.
