data_PCOD9471794
_publ_section_title
;
Structure prediction by ZEFSAII (Michael W. Deem and Ramdas Pophale) SiO2 
 PCOD9471794
Probable space group: C M C M
;
_chemical_formula_sum "Si O2"
_cell_formula_units_Z 112
_cell_length_a 12.961181
_cell_length_b 30.767912
_cell_length_c 13.869905
_cell_angle_alpha 90.000000
_cell_angle_beta 90.000000
_cell_angle_gamma 90.000000
_cell_volume 5531.158283
_symmetry_space_group_name_H-M "C M C M"
_symmetry_group_IT_number 63
_symmetry_cell_setting 'orthorhombic'
loop_
_space_group_symop_operation_xyz
x,y,z
-x,-y,1/2+z
x,-y,-z
-x,y,1/2-z
-x,-y,-z
x,y,1/2-z
-x,y,z
x,-y,1/2+z
1/2+x,1/2+y,z
1/2-x,1/2-y,1/2+z
1/2+x,1/2-y,-z
1/2-x,1/2+y,1/2-z
1/2-x,1/2-y,-z
1/2+x,1/2+y,1/2-z
1/2-x,1/2+y,z
1/2+x,1/2-y,1/2+z
loop_
_atom_site_type_symbol
_atom_site_label
_atom_site_fract_x
_atom_site_fract_y
_atom_site_fract_z
Si Si1 0.119768 0.604261 0.366351
Si Si2 0.726845 0.472002 0.631653
Si Si3 0.500000 0.576446 0.640602
Si Si4 0.617556 0.194456 0.051978
Si Si5 0.617676 0.716226 0.863083
Si Si6 0.500000 0.471106 0.640765
Si Si7 0.815494 0.659026 0.861630
Si Si8 0.773636 0.071420 0.867633
O O1 0.119060 0.604551 0.250000
O O2 0.190121 0.563787 0.397574
O O3 0.163387 0.650761 0.401392
O O4 0.000000 0.599857 0.398652
O O5 0.723528 0.472243 0.750000
O O6 0.610935 0.460006 0.597507
O O7 0.748830 0.521916 0.602799
O O8 0.500000 0.594781 0.750000
O O9 0.500000 0.523671 0.646385
O O10 0.612167 0.586134 0.598230
O O11 0.500000 0.195990 0.088612
O O12 0.659284 0.241224 0.081856
O O13 0.620099 0.185999 0.938271
O O14 0.613739 0.727519 0.750000
O O15 0.500000 0.705305 0.893798
O O16 0.699262 0.677660 0.871770
O O17 0.500000 0.453796 0.750000
O O18 0.846646 0.663519 0.750000
O O19 0.810004 0.608210 0.889147
O O20 0.781048 0.070674 0.750000
#
# Coordination Sequence:
#
# PCOD9471794 Si02
#       8
#    16  16   8  16  16   8  16  16
#     4   9  17  30  51  75  96 128 175 221 260 291
#     4   8  13  24  43  68  97 130 167 207 250 298
#     4   7  10  18  36  61  89 123 156 191 239 290
#     4  10  20  35  52  71 101 135 167 208 249 288
#     4   9  18  33  56  83 103 121 154 204 257 303
#     4   7  10  18  36  63  91 123 158 191 241 302
#     4  10  20  32  50  76 102 132 165 197 242 303
#     4   8  14  24  41  67  99 129 161 202 246 292
#
# _framework density 20.248923000000001
#
# number of rings (size 3 to 8) (size 9 to 14) (size 15 to 20)
#    0.000    3.286    0.000    2.571    1.000    2.000 
#    0.000    1.429    1.571    4.286    0.000    3.000 
#    0.000    0.000    0.000    0.000    0.000    0.000 
#
# Total GULP energy -312036.701945 kJ/mol
# GULP energy per Si atom -5572.083963 kJ/mol
# Density = 2.020284 g / cm^3
# Si number density = 20.248923 Si / 1000 Ang^3
#
#
#
# Elastic Constant Matrix: (Units=GPa)
#
#
# Indices 1 2 3 4 5 6 
#
# 1 42.0309 15.8878 4.7665 0.0000 0.0000 0.0000
# 2 15.8878 82.9159 29.9967 0.0000 0.0000 0.0000
# 3 4.7665 29.9967 49.0861 0.0000 0.0000 0.0000
# 4 0.0000 0.0000 0.0000 25.4158 0.0000 0.0000
# 5 0.0000 0.0000 0.0000 0.0000 8.0295 0.0000
# 6 0.0000 0.0000 0.0000 0.0000 0.0000 9.7959
#
#
#
# Elastic Compliance Matrix: (Units=1/GPa)
#
#
# Indices 1 2 3 4 5 6 
#
# 1 0.025666 -0.005156 0.000659 0.000000 0.000000 0.000000
# 2 -0.005156 0.016519 -0.009594 0.000000 0.000000 0.000000
# 3 0.000659 -0.009594 0.026172 0.000000 0.000000 0.000000
# 4 0.000000 0.000000 0.000000 0.039346 0.000000 0.000000
# 5 0.000000 0.000000 0.000000 0.000000 0.124540 0.000000
# 6 0.000000 0.000000 0.000000 0.000000 0.000000 0.102084
#
#
# Mechanical properties :
#
#
# Convention : Reuss Voigt Hill
#
# Bulk Modulus (GPa) = 24.89211 30.59278 27.74245
# Shear Modulus (GPa) = 13.30134 16.87371 15.08753
#
# Velocity S-wave (km/s) = 2.56577 2.88985 2.73262
# Velocity P-wave (km/s) = 4.59318 5.12602 4.86690
#
# Compressibility (1/GPa) = 0.04017337
#
# Stress axis : x y z
#
# Youngs Moduli (GPa) = 38.96143 60.53487 38.20949
#
# Poissons Ratio (x) = 0.31214 -0.02517
# Poissons Ratio (y) = 0.20090 0.36659
# Poissons Ratio (z) = -0.02566 0.58079
#
# Static dielectric constant tensor:
#      x y z
#    x 1.738980 0.000000 0.000000 
#    y 0.000000 1.718160 0.000000 
#    z 0.000000 0.000000 1.770670 
# 
# From -- ./inp_files/32622.got.cif
#   From: 2010.05.17/outbox.cif.g08.bks.cpg/sg63_17_cif.got.tgz:32622.got - 2010.06.03 15:47:04.
