data_PCOD9471281
_publ_section_title
;
Structure prediction by ZEFSAII (Michael W. Deem and Ramdas Pophale) SiO2 
 PCOD9471281
Probable space group: C M C M
;
_chemical_formula_sum "Si O2"
_cell_formula_units_Z 88
_cell_length_a 17.457719
_cell_length_b 28.955308
_cell_length_c 8.950382
_cell_angle_alpha 90.000000
_cell_angle_beta 90.000000
_cell_angle_gamma 90.000000
_cell_volume 4524.361093
_symmetry_space_group_name_H-M "C M C M"
_symmetry_group_IT_number 63
_symmetry_cell_setting 'orthorhombic'
loop_
_space_group_symop_operation_xyz
x,y,z
-x,-y,1/2+z
x,-y,-z
-x,y,1/2-z
-x,-y,-z
x,y,1/2-z
-x,y,z
x,-y,1/2+z
1/2+x,1/2+y,z
1/2-x,1/2-y,1/2+z
1/2+x,1/2-y,-z
1/2-x,1/2+y,1/2-z
1/2-x,1/2-y,-z
1/2+x,1/2+y,1/2-z
1/2-x,1/2+y,z
1/2+x,1/2-y,1/2+z
loop_
_atom_site_type_symbol
_atom_site_label
_atom_site_fract_x
_atom_site_fract_y
_atom_site_fract_z
Si Si1 0.000000 0.550724 0.070935
Si Si2 0.091095 0.093935 0.075377
Si Si3 0.773861 0.047762 0.926430
Si Si4 0.093141 0.189285 0.922123
Si Si5 0.350137 0.111436 0.069634
Si Si6 0.911238 0.290407 0.931922
O O1 0.924940 0.580674 0.031719
O O2 0.000000 0.545494 0.250000
O O3 0.000000 0.500000 0.000000
O O4 0.108335 0.087514 0.250000
O O5 0.000000 0.088783 0.053109
O O6 0.139991 0.058729 0.978036
O O7 0.112852 0.145749 0.023339
O O8 0.768014 0.044817 0.750000
O O9 0.721742 0.088530 0.990953
O O10 0.747609 0.000000 0.000000
O O11 0.117977 0.181604 0.750000
O O12 0.118691 0.239849 0.977400
O O13 0.000000 0.192024 0.918972
O O14 0.341111 0.110188 0.250000
O O15 0.364895 0.164340 0.023318
O O16 0.912496 0.289468 0.750000
O O17 0.000000 0.295794 0.979820
#
# Coordination Sequence:
#
# PCOD9471281 Si02
#       6
#     8  16  16  16  16  16
#     4  10  20  32  52  78 108 148 194 240 283 330
#     4  10  21  39  63  89 115 144 181 227 281 342
#     4  12  26  43  61  82 111 147 187 233 288 341
#     4   8  14  27  52  85 117 149 185 226 273 329
#     4  10  19  35  57  83 115 152 194 237 282 331
#     4   8  13  26  52  84 116 152 193 232 275 326
#
# _framework density 19.45026
#
# number of rings (size 3 to 8) (size 9 to 14) (size 15 to 20)
#    0.000    2.364    0.909    3.818    0.000    3.636 
#    0.000    1.818    0.000    1.091    0.000    0.000 
#    0.000    0.000    0.000    0.000    0.000    0.000 
#
# Total GULP energy -245588.935451 kJ/mol
# GULP energy per Si atom -5581.566715 kJ/mol
# Density = 1.940599 g / cm^3
# Si number density = 19.450260 Si / 1000 Ang^3
#
#
#
# Elastic Constant Matrix: (Units=GPa)
#
#
# Indices 1 2 3 4 5 6 
#
# 1 36.9252 8.2726 25.0760 0.0000 0.0000 0.0000
# 2 8.2726 35.3207 5.3092 0.0000 0.0000 0.0000
# 3 25.0760 5.3092 49.9115 0.0000 0.0000 0.0000
# 4 0.0000 0.0000 0.0000 19.5975 0.0000 0.0000
# 5 0.0000 0.0000 0.0000 0.0000 19.8871 0.0000
# 6 0.0000 0.0000 0.0000 0.0000 0.0000 14.7087
#
#
#
# Elastic Compliance Matrix: (Units=1/GPa)
#
#
# Indices 1 2 3 4 5 6 
#
# 1 0.042693 -0.006885 -0.020717 0.000000 0.000000 0.000000
# 2 -0.006885 0.029882 0.000281 0.000000 0.000000 0.000000
# 3 -0.020717 0.000281 0.030414 0.000000 0.000000 0.000000
# 4 0.000000 0.000000 0.000000 0.051027 0.000000 0.000000
# 5 0.000000 0.000000 0.000000 0.000000 0.050284 0.000000
# 6 0.000000 0.000000 0.000000 0.000000 0.000000 0.067987
#
#
# Mechanical properties :
#
#
# Convention : Reuss Voigt Hill
#
# Bulk Modulus (GPa) = 20.68413 22.16364 21.42389
# Shear Modulus (GPa) = 14.57528 16.40531 15.49029
#
# Velocity S-wave (km/s) = 2.74042 2.90737 2.82513
# Velocity P-wave (km/s) = 4.54650 4.76342 4.65622
#
# Compressibility (1/GPa) = 0.04834625
#
# Stress axis : x y z
#
# Youngs Moduli (GPa) = 23.42284 33.46447 32.87949
#
# Poissons Ratio (x) = 0.23041 0.68117
# Poissons Ratio (y) = 0.16127 -0.00922
# Poissons Ratio (z) = 0.48525 -0.00939
#
# Static dielectric constant tensor:
#      x y z
#    x 1.692920 0.000000 0.000000 
#    y 0.000000 1.696120 0.000000 
#    z 0.000000 0.000000 1.642020 
# 
# From -- ./inp_files/6882.got.cif
#   From: 2010.05.17/outbox.cif.g08.bks.cpg/sg63_4_cif.got.tgz:6882.got - 2010.06.03 15:47:04.
