data_PCOD9471406
_publ_section_title
;
Structure prediction by ZEFSAII (Michael W. Deem and Ramdas Pophale) SiO2 
 PCOD9471406
Probable space group: C M C M
;
_chemical_formula_sum "Si O2"
_cell_formula_units_Z 88
_cell_length_a 15.219691
_cell_length_b 19.791376
_cell_length_c 15.647143
_cell_angle_alpha 90.000000
_cell_angle_beta 90.000000
_cell_angle_gamma 90.000000
_cell_volume 4713.210934
_symmetry_space_group_name_H-M "C M C M"
_symmetry_group_IT_number 63
_symmetry_cell_setting 'orthorhombic'
loop_
_space_group_symop_operation_xyz
x,y,z
-x,-y,1/2+z
x,-y,-z
-x,y,1/2-z
-x,-y,-z
x,y,1/2-z
-x,y,z
x,-y,1/2+z
1/2+x,1/2+y,z
1/2-x,1/2-y,1/2+z
1/2+x,1/2-y,-z
1/2-x,1/2+y,1/2-z
1/2-x,1/2-y,-z
1/2+x,1/2+y,1/2-z
1/2-x,1/2+y,z
1/2+x,1/2-y,1/2+z
loop_
_atom_site_type_symbol
_atom_site_label
_atom_site_fract_x
_atom_site_fract_y
_atom_site_fract_z
Si Si1 0.605282 0.358065 0.844716
Si Si2 0.896682 0.223175 0.986069
Si Si3 0.717467 0.509243 0.348253
Si Si4 0.285091 0.354327 0.347602
Si Si5 0.596682 0.139842 0.927399
Si Si6 0.850849 0.500000 0.500000
O O1 0.633283 0.333419 0.750000
O O2 0.500000 0.361562 0.844940
O O3 0.644968 0.432679 0.856344
O O4 0.630720 0.310707 0.923539
O O5 0.835636 0.193548 0.912817
O O6 0.000000 0.207062 0.970683
O O7 0.889819 0.303176 0.000427
O O8 0.751246 0.511513 0.250000
O O9 0.684977 0.432377 0.361813
O O10 0.789959 0.521736 0.420248
O O11 0.302423 0.335762 0.250000
O O12 0.180494 0.354894 0.365761
O O13 0.500000 0.153220 0.888434
O O14 0.598283 0.065561 0.967909
#
# Coordination Sequence:
#
# PCOD9471406 Si02
#       6
#    16  16  16  16  16   8
#     4   9  17  30  50  77 108 141 176 216 264 315
#     4  10  21  36  54  80 112 141 175 219 264 317
#     4   9  18  32  51  77 107 140 180 220 258 311
#     4  10  21  36  55  80 110 145 179 213 260 314
#     4  10  21  37  57  79 103 136 180 227 271 314
#     4  10  19  36  57  74 100 138 177 224 276 318
#
# _framework density 18.670922000000001
#
# number of rings (size 3 to 8) (size 9 to 14) (size 15 to 20)
#    0.000    2.364    0.000    3.000    0.000    2.182 
#    0.000    8.636    0.000    2.727    0.000    0.000 
#    0.000    0.000    0.000    0.000    0.000    0.000 
#
# Total GULP energy -245393.314394 kJ/mol
# GULP energy per Si atom -5577.120782 kJ/mol
# Density = 1.862843 g / cm^3
# Si number density = 18.670922 Si / 1000 Ang^3
#
#
#
# Elastic Constant Matrix: (Units=GPa)
#
#
# Indices 1 2 3 4 5 6 
#
# 1 44.3750 31.7764 41.4723 0.0000 0.0000 0.0000
# 2 31.7764 75.8996 37.0456 0.0000 0.0000 0.0000
# 3 41.4723 37.0456 91.0589 0.0000 0.0000 0.0000
# 4 0.0000 0.0000 0.0000 11.2114 0.0000 0.0000
# 5 0.0000 0.0000 0.0000 0.0000 -2.6300 0.0000
# 6 0.0000 0.0000 0.0000 0.0000 0.0000 27.9562
#
#
#
# Elastic Compliance Matrix: (Units=1/GPa)
#
#
# Indices 1 2 3 4 5 6 
#
# 1 0.045798 -0.011222 -0.016293 0.000000 0.000000 0.000000
# 2 -0.011222 0.019189 -0.002696 0.000000 0.000000 0.000000
# 3 -0.016293 -0.002696 0.019499 0.000000 0.000000 0.000000
# 4 0.000000 0.000000 0.000000 0.089195 0.000000 0.000000
# 5 0.000000 0.000000 0.000000 0.000000 -0.380235 0.000000
# 6 0.000000 0.000000 0.000000 0.000000 0.000000 0.035770
#
#
# Mechanical properties :
#
#
# Convention : Reuss Voigt Hill
#
# Bulk Modulus (GPa) = 41.55367 47.99137 44.77252
# Shear Modulus (GPa) = -48.85692 14.04348 -17.40672
#
# Velocity S-wave (km/s) = -5.12096 2.74553 -3.05666
# Velocity P-wave (km/s) = 3.55829 5.98416 3.40211
#
# Compressibility (1/GPa) = 0.02406526
#
# Stress axis : x y z
#
# Youngs Moduli (GPa) = 21.83484 52.11255 51.28354
#
# Poissons Ratio (x) = 0.58478 0.83558
# Poissons Ratio (y) = 0.24502 0.13826
# Poissons Ratio (z) = 0.35576 0.14049
#
# Static dielectric constant tensor:
#      x y z
#    x 1.641890 0.000000 0.000000 
#    y 0.000000 1.648510 0.000000 
#    z 0.000000 0.000000 1.628890 
# 
# From -- ./inp_files/31778.got.cif
#   From: 2010.05.17/outbox.cif.g08.bks.cpg/sg63_16_cif.got.tgz:31778.got - 2010.06.03 15:47:04.
