data_PCOD9471022
_publ_section_title
;
Structure prediction by ZEFSAII (Michael W. Deem and Ramdas Pophale) SiO2 
 PCOD9471022
Probable space group: C M C M
;
_chemical_formula_sum "Si O2"
_cell_formula_units_Z 104
_cell_length_a 23.212951
_cell_length_b 10.047730
_cell_length_c 27.711262
_cell_angle_alpha 90.000000
_cell_angle_beta 90.000000
_cell_angle_gamma 90.000000
_cell_volume 6463.304477
_symmetry_space_group_name_H-M "C M C M"
_symmetry_group_IT_number 63
_symmetry_cell_setting 'orthorhombic'
loop_
_space_group_symop_operation_xyz
x,y,z
-x,-y,1/2+z
x,-y,-z
-x,y,1/2-z
-x,-y,-z
x,y,1/2-z
-x,y,z
x,-y,1/2+z
1/2+x,1/2+y,z
1/2-x,1/2-y,1/2+z
1/2+x,1/2-y,-z
1/2-x,1/2+y,1/2-z
1/2-x,1/2-y,-z
1/2+x,1/2+y,1/2-z
1/2-x,1/2+y,z
1/2+x,1/2-y,1/2+z
loop_
_atom_site_type_symbol
_atom_site_label
_atom_site_fract_x
_atom_site_fract_y
_atom_site_fract_z
Si Si1 0.327140 0.160302 0.693723
Si Si2 0.881987 0.414894 0.857148
Si Si3 0.500000 0.831008 0.692521
Si Si4 0.565480 0.892065 0.539965
Si Si5 0.890823 0.940991 0.805569
Si Si6 0.308236 0.306853 0.306166
Si Si7 0.500000 0.544728 0.857249
Si Si8 0.000000 0.135403 0.968932
O O1 0.332980 0.116390 0.750000
O O2 0.359479 0.300433 0.688941
O O3 0.259220 0.175668 0.684059
O O4 0.355353 0.054472 0.658371
O O5 0.894825 0.398639 0.913521
O O6 0.838391 0.302123 0.839009
O O7 0.942406 0.394774 0.829277
O O8 0.500000 0.839251 0.750000
O O9 0.500000 0.678100 0.675137
O O10 0.500000 0.932989 0.555210
O O11 0.553711 0.738941 0.522887
O O12 0.583187 0.000000 0.500000
O O13 0.912541 0.950792 0.750000
O O14 0.843378 0.056409 0.811754
O O15 0.943034 0.964432 0.842219
O O16 0.313888 0.264969 0.250000
O O17 0.500000 0.592157 0.912713
O O18 0.000000 0.000000 0.000000
#
# Coordination Sequence:
#
# PCOD9471022 Si02
#       8
#    16  16   8  16  16  16   8   8
#     4  10  22  35  49  79 114 151 193 224 263 325
#     4  12  20  35  58  82 111 147 193 235 276 343
#     4  12  20  30  53  84 113 144 178 223 281 342
#     4   9  19  38  56  80 112 141 177 236 297 344
#     4  10  20  33  49  72 110 145 175 218 272 323
#     4  10  19  34  55  76 108 153 193 228 262 320
#     4  12  20  34  51  79 109 139 173 218 274 343
#     4  10  19  34  55  77 103 135 180 225 267 341
#
# _framework density 16.090838999999999
#
# number of rings (size 3 to 8) (size 9 to 14) (size 15 to 20)
#    0.462    1.077    3.846    3.000    0.000    4.308 
#    0.000    0.769    0.000    0.923    0.000    2.154 
#    0.000    0.000    0.000    0.000    0.000    0.000 
#
# Total GULP energy -289989.178953 kJ/mol
# GULP energy per Si atom -5576.714980 kJ/mol
# Density = 1.605422 g / cm^3
# Si number density = 16.090839 Si / 1000 Ang^3
#
#
#
# Elastic Constant Matrix: (Units=GPa)
#
#
# Indices 1 2 3 4 5 6 
#
# 1 82.6473 36.5148 39.6326 0.0000 0.0000 0.0000
# 2 36.5148 110.2025 62.6086 0.0000 0.0000 0.0000
# 3 39.6326 62.6086 88.3539 0.0000 0.0000 0.0000
# 4 0.0000 0.0000 0.0000 18.1103 0.0000 0.0000
# 5 0.0000 0.0000 0.0000 0.0000 23.3543 0.0000
# 6 0.0000 0.0000 0.0000 0.0000 0.0000 -41.8794
#
#
#
# Elastic Compliance Matrix: (Units=1/GPa)
#
#
# Indices 1 2 3 4 5 6 
#
# 1 0.015676 -0.002007 -0.005609 0.000000 0.000000 0.000000
# 2 -0.002007 0.015446 -0.010045 0.000000 0.000000 0.000000
# 3 -0.005609 -0.010045 0.020952 0.000000 0.000000 0.000000
# 4 0.000000 0.000000 0.000000 0.055217 0.000000 0.000000
# 5 0.000000 0.000000 0.000000 0.000000 0.042819 0.000000
# 6 0.000000 0.000000 0.000000 0.000000 0.000000 -0.023878
#
#
# Mechanical properties :
#
#
# Convention : Reuss Voigt Hill
#
# Bulk Modulus (GPa) = 59.69659 62.07951 60.88805
# Shear Modulus (GPa) = 29.91514 9.41355 19.66435
#
# Velocity S-wave (km/s) = 4.31645 2.42135 3.49962
# Velocity P-wave (km/s) = 7.87545 6.81775 7.36561
#
# Compressibility (1/GPa) = 0.01675138
#
# Stress axis : x y z
#
# Youngs Moduli (GPa) = 63.78986 64.74164 47.72777
#
# Poissons Ratio (x) = 0.12996 0.26773
# Poissons Ratio (y) = 0.12805 0.47941
# Poissons Ratio (z) = 0.35783 0.65031
#
# Static dielectric constant tensor:
#      x y z
#    x 1.525510 0.000000 0.000000 
#    y 0.000000 1.551940 0.000000 
#    z 0.000000 0.000000 1.492360 
# 
# From -- ./inp_files/74308.got.cif
#   From: 2010.05.17/outbox.cif.g08.bks.cpg/sg63_38_cif.got.tgz:74308.got - 2010.06.03 15:47:04.
