data_PCOD9471087
_publ_section_title
;
Structure prediction by ZEFSAII (Michael W. Deem and Ramdas Pophale) SiO2 
 PCOD9471087
Probable space group: C M C M
;
_chemical_formula_sum "Si O2"
_cell_formula_units_Z 80
_cell_length_a 19.339133
_cell_length_b 9.299151
_cell_length_c 23.583352
_cell_angle_alpha 90.000000
_cell_angle_beta 90.000000
_cell_angle_gamma 90.000000
_cell_volume 4241.171489
_symmetry_space_group_name_H-M "C M C M"
_symmetry_group_IT_number 63
_symmetry_cell_setting 'orthorhombic'
loop_
_space_group_symop_operation_xyz
x,y,z
-x,-y,1/2+z
x,-y,-z
-x,y,1/2-z
-x,-y,-z
x,y,1/2-z
-x,y,z
x,-y,1/2+z
1/2+x,1/2+y,z
1/2-x,1/2-y,1/2+z
1/2+x,1/2-y,-z
1/2-x,1/2+y,1/2-z
1/2-x,1/2-y,-z
1/2+x,1/2+y,1/2-z
1/2-x,1/2+y,z
1/2+x,1/2-y,1/2+z
loop_
_atom_site_type_symbol
_atom_site_label
_atom_site_fract_x
_atom_site_fract_y
_atom_site_fract_z
Si Si1 0.582215 0.298942 0.132864
Si Si2 0.208556 0.270698 0.059469
Si Si3 0.345017 0.640089 0.750000
Si Si4 0.922060 0.074240 0.439277
Si Si5 0.191333 0.566409 0.376959
Si Si6 0.230991 0.573054 0.250000
O O1 0.500000 0.285358 0.128234
O O2 0.608540 0.327246 0.196006
O O3 0.603750 0.443398 0.099874
O O4 0.620763 0.154860 0.112768
O O5 0.132698 0.201236 0.056440
O O6 0.202183 0.433307 0.081067
O O7 0.249880 0.181943 0.107295
O O8 0.250000 0.250000 0.000000
O O9 0.309022 0.485221 0.750000
O O10 0.282296 0.755813 0.750000
O O11 0.000000 0.118268 0.421558
O O12 0.927011 0.000000 0.500000
O O13 0.198010 0.524041 0.310435
#
# Coordination Sequence:
#
# PCOD9471087 Si02
#       6
#    16  16   8  16  16   8
#     4  10  21  37  57  82 113 151 192 232 281 338
#     4  12  23  37  58  86 115 147 188 234 285 338
#     4  10  19  34  56  82 113 148 186 234 283 334
#     4  10  21  38  58  80 111 148 186 230 280 336
#     4  11  22  36  58  83 114 149 187 238 282 333
#     4  10  20  34  54  82 110 142 186 230 278 328
#
# _framework density 18.862714
#
# number of rings (size 3 to 8) (size 9 to 14) (size 15 to 20)
#    0.000    1.400    0.000    8.100    0.000    0.800 
#    0.000    0.000    0.000    6.000    0.000    1.400 
#    0.000    0.000    0.000    0.000    0.000    0.000 
#
# Total GULP energy -223242.040258 kJ/mol
# GULP energy per Si atom -5581.051006 kJ/mol
# Density = 1.881978 g / cm^3
# Si number density = 18.862714 Si / 1000 Ang^3
#
#
#
# Elastic Constant Matrix: (Units=GPa)
#
#
# Indices 1 2 3 4 5 6 
#
# 1 71.1815 37.4698 6.3548 0.0000 0.0000 0.0000
# 2 37.4698 87.9775 34.6002 0.0000 0.0000 0.0000
# 3 6.3548 34.6002 93.1240 0.0000 0.0000 0.0000
# 4 0.0000 0.0000 0.0000 28.7166 0.0000 0.0000
# 5 0.0000 0.0000 0.0000 0.0000 25.5539 0.0000
# 6 0.0000 0.0000 0.0000 0.0000 0.0000 31.9390
#
#
#
# Elastic Compliance Matrix: (Units=1/GPa)
#
#
# Indices 1 2 3 4 5 6 
#
# 1 0.018403 -0.008601 0.001940 0.000000 0.000000 0.000000
# 2 -0.008601 0.017331 -0.005853 0.000000 0.000000 0.000000
# 3 0.001940 -0.005853 0.012781 0.000000 0.000000 0.000000
# 4 0.000000 0.000000 0.000000 0.034823 0.000000 0.000000
# 5 0.000000 0.000000 0.000000 0.000000 0.039133 0.000000
# 6 0.000000 0.000000 0.000000 0.000000 0.000000 0.031310
#
#
# Mechanical properties :
#
#
# Convention : Reuss Voigt Hill
#
# Bulk Modulus (GPa) = 42.57541 45.45917 44.01729
# Shear Modulus (GPa) = 26.79005 28.83243 27.81124
#
# Velocity S-wave (km/s) = 3.77273 3.91390 3.84396
# Velocity P-wave (km/s) = 6.44966 6.67661 6.56412
#
# Compressibility (1/GPa) = 0.02348774
#
# Stress axis : x y z
#
# Youngs Moduli (GPa) = 54.33957 57.69909 78.24414
#
# Poissons Ratio (x) = 0.49625 -0.15178
# Poissons Ratio (y) = 0.46736 0.45793
# Poissons Ratio (z) = -0.10541 0.33769
#
# Static dielectric constant tensor:
#      x y z
#    x 1.673680 0.000000 0.000000 
#    y 0.000000 1.648800 0.000000 
#    z 0.000000 0.000000 1.651470 
# 
# From -- ./inp_files/64309.got.cif
#   From: 2010.05.17/outbox.cif.g08.bks.cpg/sg63_33_cif.got.tgz:64309.got - 2010.06.03 15:47:04.
