data_PCOD9471630
_publ_section_title
;
Structure prediction by ZEFSAII (Michael W. Deem and Ramdas Pophale) SiO2 
 PCOD9471630
Probable space group: C M C M
;
_chemical_formula_sum "Si O2"
_cell_formula_units_Z 88
_cell_length_a 20.350597
_cell_length_b 31.681448
_cell_length_c 7.891936
_cell_angle_alpha 90.000000
_cell_angle_beta 90.000000
_cell_angle_gamma 90.000000
_cell_volume 5088.218253
_symmetry_space_group_name_H-M "C M C M"
_symmetry_group_IT_number 63
_symmetry_cell_setting 'orthorhombic'
loop_
_space_group_symop_operation_xyz
x,y,z
-x,-y,1/2+z
x,-y,-z
-x,y,1/2-z
-x,-y,-z
x,y,1/2-z
-x,y,z
x,-y,1/2+z
1/2+x,1/2+y,z
1/2-x,1/2-y,1/2+z
1/2+x,1/2-y,-z
1/2-x,1/2+y,1/2-z
1/2-x,1/2-y,-z
1/2+x,1/2+y,1/2-z
1/2-x,1/2+y,z
1/2+x,1/2-y,1/2+z
loop_
_atom_site_type_symbol
_atom_site_label
_atom_site_fract_x
_atom_site_fract_y
_atom_site_fract_z
Si Si1 0.426806 0.835576 0.552210
Si Si2 0.500000 0.950476 0.453477
Si Si3 0.208825 0.371297 0.445161
Si Si4 0.927811 0.239106 0.451326
Si Si5 0.788874 0.207327 0.548103
Si Si6 0.355501 0.951095 0.044748
O O1 0.420939 0.846960 0.750000
O O2 0.500000 0.847943 0.490105
O O3 0.365315 0.853108 0.450510
O O4 0.422889 0.784762 0.538577
O O5 0.500000 0.945448 0.250000
O O6 0.571647 0.936505 0.517674
O O7 0.500000 0.000000 0.500000
O O8 0.229866 0.376549 0.250000
O O9 0.254174 0.334844 0.523780
O O10 0.198966 0.418124 0.519655
O O11 0.925993 0.246830 0.250000
O O12 0.864584 0.211958 0.497556
O O13 0.000000 0.221107 0.493982
O O14 0.784444 0.204979 0.750000
O O15 0.750000 0.250000 0.500000
O O16 0.356680 0.948609 0.250000
O O17 0.345452 0.000000 0.000000
#
# Coordination Sequence:
#
# PCOD9471630 Si02
#       6
#    16   8  16  16  16  16
#     4  10  20  31  44  66  93 123 162 204 241 280
#     4   8  14  26  44  62  82 112 150 192 234 272
#     4  10  21  33  48  68  92 126 161 196 242 290
#     4  10  20  34  51  69  92 126 163 199 241 286
#     4  11  21  33  49  71  99 129 162 199 238 282
#     4   9  18  32  47  65  88 118 157 197 240 283
#
# _framework density 17.294857
#
# number of rings (size 3 to 8) (size 9 to 14) (size 15 to 20)
#    0.000    2.182    1.818    1.636    1.273    3.636 
#    0.000    0.000    0.000    0.000    0.000    0.000 
#    0.000    0.727    0.000    1.636    0.000    2.909 
#
# Total GULP energy -245340.163005 kJ/mol
# GULP energy per Si atom -5575.912796 kJ/mol
# Density = 1.725549 g / cm^3
# Si number density = 17.294857 Si / 1000 Ang^3
#
#
#
# Elastic Constant Matrix: (Units=GPa)
#
#
# Indices 1 2 3 4 5 6 
#
# 1 92.4467 58.5628 2.0609 0.0000 0.0000 0.0000
# 2 58.5628 108.3891 5.6196 0.0000 0.0000 0.0000
# 3 2.0609 5.6196 38.8474 0.0000 0.0000 0.0000
# 4 0.0000 0.0000 0.0000 16.3471 0.0000 0.0000
# 5 0.0000 0.0000 0.0000 0.0000 18.1336 0.0000
# 6 0.0000 0.0000 0.0000 0.0000 0.0000 32.6912
#
#
#
# Elastic Compliance Matrix: (Units=1/GPa)
#
#
# Indices 1 2 3 4 5 6 
#
# 1 0.016453 -0.008911 0.000416 0.000000 0.000000 0.000000
# 2 -0.008911 0.014122 -0.001570 0.000000 0.000000 0.000000
# 3 0.000416 -0.001570 0.025947 0.000000 0.000000 0.000000
# 4 0.000000 0.000000 0.000000 0.061173 0.000000 0.000000
# 5 0.000000 0.000000 0.000000 0.000000 0.055146 0.000000
# 6 0.000000 0.000000 0.000000 0.000000 0.000000 0.030589
#
#
# Mechanical properties :
#
#
# Convention : Reuss Voigt Hill
#
# Bulk Modulus (GPa) = 27.47880 41.35220 34.41550
# Shear Modulus (GPa) = 21.21429 24.99705 23.10567
#
# Velocity S-wave (km/s) = 3.50612 3.80590 3.65908
# Velocity P-wave (km/s) = 5.68449 6.57838 6.14770
#
# Compressibility (1/GPa) = 0.03639169
#
# Stress axis : x y z
#
# Youngs Moduli (GPa) = 60.78050 70.81138 38.54044
#
# Poissons Ratio (x) = 0.63100 -0.01604
# Poissons Ratio (y) = 0.54161 0.06051
# Poissons Ratio (z) = -0.02530 0.11118
#
# Static dielectric constant tensor:
#      x y z
#    x 1.595120 0.000000 0.000000 
#    y 0.000000 1.624460 0.000000 
#    z 0.000000 0.000000 1.629870 
# 
# From -- ./inp_files/8971.got.cif
#   From: 2010.05.17/outbox.cif.g08.bks.cpg/sg63_5_cif.got.tgz:8971.got - 2010.06.03 15:47:04.
