data_PCOD9471242
_publ_section_title
;
Structure prediction by ZEFSAII (Michael W. Deem and Ramdas Pophale) SiO2 
 PCOD9471242
Probable space group: C M C M
;
_chemical_formula_sum "Si O2"
_cell_formula_units_Z 56
_cell_length_a 7.747340
_cell_length_b 36.859147
_cell_length_c 10.609058
_cell_angle_alpha 90.000000
_cell_angle_beta 90.000000
_cell_angle_gamma 90.000000
_cell_volume 3029.526251
_symmetry_space_group_name_H-M "C M C M"
_symmetry_group_IT_number 63
_symmetry_cell_setting 'orthorhombic'
loop_
_space_group_symop_operation_xyz
x,y,z
-x,-y,1/2+z
x,-y,-z
-x,y,1/2-z
-x,-y,-z
x,y,1/2-z
-x,y,z
x,-y,1/2+z
1/2+x,1/2+y,z
1/2-x,1/2-y,1/2+z
1/2+x,1/2-y,-z
1/2-x,1/2+y,1/2-z
1/2-x,1/2-y,-z
1/2+x,1/2+y,1/2-z
1/2-x,1/2+y,z
1/2+x,1/2-y,1/2+z
loop_
_atom_site_type_symbol
_atom_site_label
_atom_site_fract_x
_atom_site_fract_y
_atom_site_fract_z
Si Si1 0.709779 0.666496 0.995725
Si Si2 0.000000 0.032328 0.600447
Si Si3 0.292723 0.710068 0.750000
Si Si4 0.697056 0.910495 0.102875
Si Si5 0.207567 0.205214 0.250000
O O1 0.500000 0.666364 0.994929
O O2 0.770425 0.689886 0.875584
O O3 0.768907 0.625236 0.978846
O O4 0.770201 0.685355 0.123903
O O5 0.166587 0.057839 0.578643
O O6 0.000000 0.021451 0.750000
O O7 0.000000 0.000000 0.500000
O O8 0.500000 0.706792 0.750000
O O9 0.250317 0.752394 0.750000
O O10 0.721804 0.899565 0.250000
O O11 0.500000 0.922715 0.087119
O O12 0.000000 0.202335 0.250000
#
# Coordination Sequence:
#
# PCOD9471242 Si02
#       5
#    16   8   8  16   8
#     4  10  19  35  55  78 111 153 197 244 290 345
#     4  10  22  42  66  92 124 154 188 236 292 348
#     4  10  20  32  54  74 106 155 202 243 291 347
#     4  10  20  36  63  91 114 153 200 235 278 344
#     4  10  22  34  48  78 116 153 190 245 307 345
#
# _framework density 18.484738
#
# number of rings (size 3 to 8) (size 9 to 14) (size 15 to 20)
#    0.000    2.000    2.857    0.857    0.000    2.857 
#    2.571    0.000    0.000    0.000    0.000    0.000 
#    0.000    0.000    0.000    0.000    0.000    0.000 
#
# Total GULP energy -156359.369528 kJ/mol
# GULP energy per Si atom -5584.263197 kJ/mol
# Density = 1.844267 g / cm^3
# Si number density = 18.484738 Si / 1000 Ang^3
#
#
#
# Elastic Constant Matrix: (Units=GPa)
#
#
# Indices 1 2 3 4 5 6 
#
# 1 65.6932 42.7603 42.2006 0.0000 0.0000 0.0000
# 2 42.7603 144.6455 92.6109 0.0000 0.0000 0.0000
# 3 42.2006 92.6109 150.3261 0.0000 0.0000 0.0000
# 4 0.0000 0.0000 0.0000 36.5255 0.0000 0.0000
# 5 0.0000 0.0000 0.0000 0.0000 7.1244 0.0000
# 6 0.0000 0.0000 0.0000 0.0000 0.0000 19.1601
#
#
#
# Elastic Compliance Matrix: (Units=1/GPa)
#
#
# Indices 1 2 3 4 5 6 
#
# 1 0.019748 -0.003779 -0.003216 0.000000 0.000000 0.000000
# 2 -0.003779 0.012140 -0.006418 0.000000 0.000000 0.000000
# 3 -0.003216 -0.006418 0.011509 0.000000 0.000000 0.000000
# 4 0.000000 0.000000 0.000000 0.027378 0.000000 0.000000
# 5 0.000000 0.000000 0.000000 0.000000 0.140363 0.000000
# 6 0.000000 0.000000 0.000000 0.000000 0.000000 0.052192
#
#
# Mechanical properties :
#
#
# Convention : Reuss Voigt Hill
#
# Bulk Modulus (GPa) = 60.34618 79.53426 69.94022
# Shear Modulus (GPa) = 16.91028 24.76820 20.83924
#
# Velocity S-wave (km/s) = 3.02789 3.66447 3.36128
# Velocity P-wave (km/s) = 6.70384 7.81184 7.27895
#
# Compressibility (1/GPa) = 0.01657106
#
# Stress axis : x y z
#
# Youngs Moduli (GPa) = 50.63872 82.37309 86.88941
#
# Poissons Ratio (x) = 0.31129 0.27940
# Poissons Ratio (y) = 0.19137 0.55766
# Poissons Ratio (z) = 0.16283 0.52868
#
# Static dielectric constant tensor:
#      x y z
#    x 1.655500 0.000000 0.000000 
#    y 0.000000 1.586150 0.000000 
#    z 0.000000 0.000000 1.639330 
# 
# From -- ./inp_files/15977.got.cif
#   From: 2010.05.17/outbox.cif.g08.bks.cpg/sg63_8_cif.got.tgz:15977.got - 2010.06.03 15:47:04.
