data_PCOD9471656
_publ_section_title
;
Structure prediction by ZEFSAII (Michael W. Deem and Ramdas Pophale) SiO2 
 PCOD9471656
Probable space group: C M C M
;
_chemical_formula_sum "Si O2"
_cell_formula_units_Z 96
_cell_length_a 7.790772
_cell_length_b 29.120630
_cell_length_c 23.563362
_cell_angle_alpha 90.000000
_cell_angle_beta 90.000000
_cell_angle_gamma 90.000000
_cell_volume 5345.871513
_symmetry_space_group_name_H-M "C M C M"
_symmetry_group_IT_number 63
_symmetry_cell_setting 'orthorhombic'
loop_
_space_group_symop_operation_xyz
x,y,z
-x,-y,1/2+z
x,-y,-z
-x,y,1/2-z
-x,-y,-z
x,y,1/2-z
-x,y,z
x,-y,1/2+z
1/2+x,1/2+y,z
1/2-x,1/2-y,1/2+z
1/2+x,1/2-y,-z
1/2-x,1/2+y,1/2-z
1/2-x,1/2-y,-z
1/2+x,1/2+y,1/2-z
1/2-x,1/2+y,z
1/2+x,1/2-y,1/2+z
loop_
_atom_site_type_symbol
_atom_site_label
_atom_site_fract_x
_atom_site_fract_y
_atom_site_fract_z
Si Si1 0.202478 0.303270 0.001666
Si Si2 0.000000 0.746928 0.181508
Si Si3 0.301554 0.050081 0.991255
Si Si4 0.797515 0.178727 0.182494
Si Si5 0.803824 0.118932 0.083013
Si Si6 0.500000 0.353715 0.182172
Si Si7 0.793735 0.374627 0.400615
O O1 0.293347 0.334483 0.954374
O O2 0.000000 0.307799 0.990546
O O3 0.250000 0.250000 0.000000
O O4 0.235156 0.328576 0.061663
O O5 0.170881 0.719588 0.163828
O O6 0.000000 0.799760 0.166047
O O7 0.000000 0.745887 0.250000
O O8 0.500000 0.042748 0.975642
O O9 0.294564 0.080004 0.048626
O O10 0.235529 0.083499 0.941689
O O11 0.221180 0.000000 0.000000
O O12 0.777777 0.171748 0.250000
O O13 0.747929 0.134363 0.145475
O O14 0.000000 0.188540 0.171788
O O15 0.000000 0.103479 0.085696
O O16 0.500000 0.358383 0.250000
O O17 0.327826 0.373741 0.153768
O O18 0.000000 0.377487 0.389591
#
# Coordination Sequence:
#
# PCOD9471656 Si02
#       7
#    16   8  16  16  16   8  16
#     4  10  21  32  48  74 107 146 176 221 279 321
#     4   9  20  34  50  73 100 146 192 220 261 304
#     4   9  19  37  59  83 109 136 172 223 280 338
#     4   9  19  34  50  72 106 144 183 225 263 311
#     4  10  20  31  49  78 105 137 177 212 265 326
#     4  11  24  38  57  81 109 150 196 236 268 314
#     4   9  21  38  55  81 112 143 182 229 281 333
#
# _framework density 17.957782999999999
#
# number of rings (size 3 to 8) (size 9 to 14) (size 15 to 20)
#    0.000    2.500    0.000    2.000   10.500    1.333 
#    0.000    1.667    0.000    1.000    0.000    2.333 
#    0.000    0.000    0.000    0.000    0.000    0.000 
#
# Total GULP energy -267537.684170 kJ/mol
# GULP energy per Si atom -5573.701754 kJ/mol
# Density = 1.791691 g / cm^3
# Si number density = 17.957783 Si / 1000 Ang^3
#
#
#
# Elastic Constant Matrix: (Units=GPa)
#
#
# Indices 1 2 3 4 5 6 
#
# 1 61.3309 24.6685 45.8556 0.0000 0.0000 0.0000
# 2 24.6685 119.5840 42.1899 0.0000 0.0000 0.0000
# 3 45.8556 42.1899 87.8169 0.0000 0.0000 0.0000
# 4 0.0000 0.0000 0.0000 12.8603 0.0000 0.0000
# 5 0.0000 0.0000 0.0000 0.0000 20.8859 0.0000
# 6 0.0000 0.0000 0.0000 0.0000 0.0000 12.4230
#
#
#
# Elastic Compliance Matrix: (Units=1/GPa)
#
#
# Indices 1 2 3 4 5 6 
#
# 1 0.026798 -0.000712 -0.013651 0.000000 0.000000 0.000000
# 2 -0.000712 0.010088 -0.004475 0.000000 0.000000 0.000000
# 3 -0.013651 -0.004475 0.020665 0.000000 0.000000 0.000000
# 4 0.000000 0.000000 0.000000 0.077759 0.000000 0.000000
# 5 0.000000 0.000000 0.000000 0.000000 0.047879 0.000000
# 6 0.000000 0.000000 0.000000 0.000000 0.000000 0.080496
#
#
# Mechanical properties :
#
#
# Convention : Reuss Voigt Hill
#
# Bulk Modulus (GPa) = 50.31291 54.90667 52.60979
# Shear Modulus (GPa) = 16.23451 19.63504 17.93477
#
# Velocity S-wave (km/s) = 3.00998 3.31025 3.16368
# Velocity P-wave (km/s) = 6.33705 6.72697 6.53492
#
# Compressibility (1/GPa) = 0.01987561
#
# Stress axis : x y z
#
# Youngs Moduli (GPa) = 37.31631 99.12856 48.38994
#
# Poissons Ratio (x) = 0.07056 0.66058
# Poissons Ratio (y) = 0.02656 0.21654
# Poissons Ratio (z) = 0.50941 0.44359
#
# Static dielectric constant tensor:
#      x y z
#    x 1.648930 0.000000 0.000000 
#    y 0.000000 1.626550 0.000000 
#    z 0.000000 0.000000 1.626720 
# 
# From -- ./inp_files/60341.got.cif
#   From: 2010.05.17/outbox.cif.g08.bks.cpg/sg63_31_cif.got.tgz:60341.got - 2010.06.03 15:47:04.
