data_PCOD9471312
_publ_section_title
;
Structure prediction by ZEFSAII (Michael W. Deem and Ramdas Pophale) SiO2 
 PCOD9471312
Probable space group: C M C M
;
_chemical_formula_sum "Si O2"
_cell_formula_units_Z 80
_cell_length_a 22.659892
_cell_length_b 11.192772
_cell_length_c 17.577494
_cell_angle_alpha 90.000000
_cell_angle_beta 90.000000
_cell_angle_gamma 90.000000
_cell_volume 4458.127153
_symmetry_space_group_name_H-M "C M C M"
_symmetry_group_IT_number 63
_symmetry_cell_setting 'orthorhombic'
loop_
_space_group_symop_operation_xyz
x,y,z
-x,-y,1/2+z
x,-y,-z
-x,y,1/2-z
-x,-y,-z
x,y,1/2-z
-x,y,z
x,-y,1/2+z
1/2+x,1/2+y,z
1/2-x,1/2-y,1/2+z
1/2+x,1/2-y,-z
1/2-x,1/2+y,1/2-z
1/2-x,1/2-y,-z
1/2+x,1/2+y,1/2-z
1/2-x,1/2+y,z
1/2+x,1/2-y,1/2+z
loop_
_atom_site_type_symbol
_atom_site_label
_atom_site_fract_x
_atom_site_fract_y
_atom_site_fract_z
Si Si1 0.500000 0.750656 0.836573
Si Si2 0.625504 0.350173 0.159038
Si Si3 0.000000 0.479520 0.118412
Si Si4 0.893066 0.500000 0.000000
Si Si5 0.500000 0.711052 0.337300
Si Si6 0.100494 0.079020 0.069573
Si Si7 0.317858 0.759620 0.977197
O O1 0.500000 0.707690 0.750000
O O2 0.561240 0.700345 0.868382
O O3 0.500000 0.893588 0.839289
O O4 0.630589 0.339252 0.250000
O O5 0.627559 0.485768 0.129820
O O6 0.672886 0.276221 0.111008
O O7 0.000000 0.354618 0.162034
O O8 0.060222 0.481721 0.068722
O O9 0.850948 0.385433 0.990110
O O10 0.500000 0.667580 0.250000
O O11 0.445022 0.659891 0.384493
O O12 0.147861 0.161970 0.028002
O O13 0.073850 0.000000 0.000000
O O14 0.250000 0.750000 0.000000
#
# Coordination Sequence:
#
# PCOD9471312 Si02
#       7
#     8  16   8   8   8  16  16
#     4  10  19  35  58  87 121 154 190 239 306 369
#     4  10  21  39  62  90 120 155 198 250 304 359
#     4  11  21  37  58  92 124 155 195 251 307 371
#     4  11  22  38  66  88 122 157 206 254 298 353
#     4  12  22  36  57  90 128 157 189 247 317 366
#     4  10  22  38  60  88 116 155 202 247 297 362
#     4  11  24  41  65  87 116 162 211 248 295 359
#
# _framework density 17.944756000000002
#
# number of rings (size 3 to 8) (size 9 to 14) (size 15 to 20)
#    0.000    1.400    4.000    1.800    4.200    3.200 
#    0.000    2.000    0.000    0.000    0.000    0.000 
#    0.000    0.000    0.000    0.000    0.000    0.000 
#
# Total GULP energy -223078.367582 kJ/mol
# GULP energy per Si atom -5576.959190 kJ/mol
# Density = 1.790391 g / cm^3
# Si number density = 17.944756 Si / 1000 Ang^3
#
#
#
# Elastic Constant Matrix: (Units=GPa)
#
#
# Indices 1 2 3 4 5 6 
#
# 1 117.1340 50.0337 64.0802 0.0000 0.0000 0.0000
# 2 50.0337 125.3681 41.7957 0.0000 0.0000 0.0000
# 3 64.0802 41.7957 115.5588 0.0000 0.0000 0.0000
# 4 0.0000 0.0000 0.0000 25.7633 0.0000 0.0000
# 5 0.0000 0.0000 0.0000 0.0000 22.8520 0.0000
# 6 0.0000 0.0000 0.0000 0.0000 0.0000 9.6242
#
#
#
# Elastic Compliance Matrix: (Units=1/GPa)
#
#
# Indices 1 2 3 4 5 6 
#
# 1 0.013323 -0.003245 -0.006214 0.000000 0.000000 0.000000
# 2 -0.003245 0.009861 -0.001767 0.000000 0.000000 0.000000
# 3 -0.006214 -0.001767 0.012739 0.000000 0.000000 0.000000
# 4 0.000000 0.000000 0.000000 0.038815 0.000000 0.000000
# 5 0.000000 0.000000 0.000000 0.000000 0.043760 0.000000
# 6 0.000000 0.000000 0.000000 0.000000 0.000000 0.103904
#
#
# Mechanical properties :
#
#
# Convention : Reuss Voigt Hill
#
# Bulk Modulus (GPa) = 74.24140 74.43112 74.33626
# Shear Modulus (GPa) = 20.05260 25.12465 22.58863
#
# Velocity S-wave (km/s) = 3.34647 3.74587 3.55179
# Velocity P-wave (km/s) = 7.50958 7.76380 7.63775
#
# Compressibility (1/GPa) = 0.01346957
#
# Stress axis : x y z
#
# Youngs Moduli (GPa) = 75.05771 101.41183 78.50207
#
# Poissons Ratio (x) = 0.32913 0.48782
# Poissons Ratio (y) = 0.24360 0.13870
# Poissons Ratio (z) = 0.46642 0.17917
#
# Static dielectric constant tensor:
#      x y z
#    x 1.601800 0.000000 0.000000 
#    y 0.000000 1.620100 0.000000 
#    z 0.000000 0.000000 1.623070 
# 
# From -- ./inp_files/46872.got.cif
#   From: 2010.05.17/outbox.cif.g08.bks.cpg/sg63_24_cif.got.tgz:46872.got - 2010.06.03 15:47:04.
