data_PCOD9471118
_publ_section_title
;
Structure prediction by ZEFSAII (Michael W. Deem and Ramdas Pophale) SiO2 
 PCOD9471118
Probable space group: C M C M
;
_chemical_formula_sum "Si O2"
_cell_formula_units_Z 88
_cell_length_a 28.869702
_cell_length_b 20.048805
_cell_length_c 7.791994
_cell_angle_alpha 90.000000
_cell_angle_beta 90.000000
_cell_angle_gamma 90.000000
_cell_volume 4510.029704
_symmetry_space_group_name_H-M "C M C M"
_symmetry_group_IT_number 63
_symmetry_cell_setting 'orthorhombic'
loop_
_space_group_symop_operation_xyz
x,y,z
-x,-y,1/2+z
x,-y,-z
-x,y,1/2-z
-x,-y,-z
x,y,1/2-z
-x,y,z
x,-y,1/2+z
1/2+x,1/2+y,z
1/2-x,1/2-y,1/2+z
1/2+x,1/2-y,-z
1/2-x,1/2+y,1/2-z
1/2-x,1/2-y,-z
1/2+x,1/2+y,1/2-z
1/2-x,1/2+y,z
1/2+x,1/2-y,1/2+z
loop_
_atom_site_type_symbol
_atom_site_label
_atom_site_fract_x
_atom_site_fract_y
_atom_site_fract_z
Si Si1 0.914364 0.668017 0.539569
Si Si2 0.372855 0.423845 0.453320
Si Si3 0.051942 0.185984 0.455808
Si Si4 0.687534 0.187203 0.956166
Si Si5 0.211071 0.161018 0.957526
Si Si6 0.500000 0.077708 0.956408
O O1 0.914169 0.667081 0.750000
O O2 0.929250 0.742398 0.483858
O O3 0.861308 0.657868 0.481557
O O4 0.953538 0.615828 0.482452
O O5 0.381282 0.500000 0.500000
O O6 0.369399 0.420548 0.250000
O O7 0.413695 0.374010 0.504709
O O8 0.324431 0.394410 0.523939
O O9 0.049539 0.191210 0.250000
O O10 0.000000 0.174526 0.521679
O O11 0.687491 0.180584 0.750000
O O12 0.736001 0.156887 0.021755
O O13 0.691007 0.266116 0.995907
O O14 0.212911 0.157996 0.750000
O O15 0.500000 0.083845 0.750000
O O16 0.500000 0.000000 0.000000
#
# Coordination Sequence:
#
# PCOD9471118 Si02
#       6
#    16  16  16  16  16   8
#     4   9  16  30  55  80 103 135 173 211 254 312
#     4  11  23  37  52  73 107 145 179 218 265 316
#     4  10  19  34  57  82 103 131 177 222 262 314
#     4   9  16  29  53  78 100 131 170 212 260 310
#     4   9  18  31  48  76 106 130 166 217 262 304
#     4  10  20  36  54  78 109 140 173 208 255 312
#
# _framework density 19.512065
#
# number of rings (size 3 to 8) (size 9 to 14) (size 15 to 20)
#    0.000    2.364    2.727    0.545    0.000    1.455 
#    0.000    2.727    0.000    0.000    0.000    0.000 
#    0.000    0.000    0.000    0.000    0.000    0.000 
#
# Total GULP energy -245438.047660 kJ/mol
# GULP energy per Si atom -5578.137447 kJ/mol
# Density = 1.946765 g / cm^3
# Si number density = 19.512065 Si / 1000 Ang^3
#
#
#
# Elastic Constant Matrix: (Units=GPa)
#
#
# Indices 1 2 3 4 5 6 
#
# 1 210.0170 92.4378 9.3081 0.0000 0.0000 0.0000
# 2 92.4378 118.3010 -3.7849 0.0000 0.0000 0.0000
# 3 9.3081 -3.7849 23.2334 0.0000 0.0000 0.0000
# 4 0.0000 0.0000 0.0000 15.9335 0.0000 0.0000
# 5 0.0000 0.0000 0.0000 0.0000 12.8000 0.0000
# 6 0.0000 0.0000 0.0000 0.0000 0.0000 29.9204
#
#
#
# Elastic Compliance Matrix: (Units=1/GPa)
#
#
# Indices 1 2 3 4 5 6 
#
# 1 0.007617 -0.006081 -0.004042 0.000000 0.000000 0.000000
# 2 -0.006081 0.013352 0.004612 0.000000 0.000000 0.000000
# 3 -0.004042 0.004612 0.045412 0.000000 0.000000 0.000000
# 4 0.000000 0.000000 0.000000 0.062761 0.000000 0.000000
# 5 0.000000 0.000000 0.000000 0.000000 0.078125 0.000000
# 6 0.000000 0.000000 0.000000 0.000000 0.000000 0.033422
#
#
# Mechanical properties :
#
#
# Convention : Reuss Voigt Hill
#
# Bulk Modulus (GPa) = 18.06440 60.83038 39.44739
# Shear Modulus (GPa) = 18.50707 28.63679 23.57193
#
# Velocity S-wave (km/s) = 3.08310 3.83514 3.47950
# Velocity P-wave (km/s) = 4.68532 7.13124 6.03352
#
# Compressibility (1/GPa) = 0.05535751
#
# Stress axis : x y z
#
# Youngs Moduli (GPa) = 131.27889 74.89284 22.02050
#
# Poissons Ratio (x) = 0.45545 0.08902
# Poissons Ratio (y) = 0.79836 -0.10155
# Poissons Ratio (z) = 0.53069 -0.34537
#
# Static dielectric constant tensor:
#      x y z
#    x 1.738330 0.000000 0.000000 
#    y 0.000000 1.587920 0.000000 
#    z 0.000000 0.000000 1.715460 
# 
# From -- ./inp_files/14196.got.cif
#   From: 2010.05.17/outbox.cif.g08.bks.cpg/sg63_8_cif.got.tgz:14196.got - 2010.06.03 15:47:04.
