data_PCOD9471818
_publ_section_title
;
Structure prediction by ZEFSAII (Michael W. Deem and Ramdas Pophale) SiO2 
 PCOD9471818
Probable space group: C M C M
;
_chemical_formula_sum "Si O2"
_cell_formula_units_Z 96
_cell_length_a 24.082240
_cell_length_b 10.154346
_cell_length_c 22.117665
_cell_angle_alpha 90.000000
_cell_angle_beta 90.000000
_cell_angle_gamma 90.000000
_cell_volume 5408.640471
_symmetry_space_group_name_H-M "C M C M"
_symmetry_group_IT_number 63
_symmetry_cell_setting 'orthorhombic'
loop_
_space_group_symop_operation_xyz
x,y,z
-x,-y,1/2+z
x,-y,-z
-x,y,1/2-z
-x,-y,-z
x,y,1/2-z
-x,y,z
x,-y,1/2+z
1/2+x,1/2+y,z
1/2-x,1/2-y,1/2+z
1/2+x,1/2-y,-z
1/2-x,1/2+y,1/2-z
1/2-x,1/2-y,-z
1/2+x,1/2+y,1/2-z
1/2-x,1/2+y,z
1/2+x,1/2-y,1/2+z
loop_
_atom_site_type_symbol
_atom_site_label
_atom_site_fract_x
_atom_site_fract_y
_atom_site_fract_z
Si Si1 0.803044 0.214187 0.750000
Si Si2 0.724304 0.018194 0.250000
Si Si3 0.642035 0.269555 0.377854
Si Si4 0.742317 0.624037 0.542273
Si Si5 0.066141 0.723454 0.822342
Si Si6 0.156465 0.470486 0.373960
Si Si7 0.066371 0.028154 0.679315
O O1 0.777270 0.072587 0.750000
O O2 0.757211 0.329701 0.750000
O O3 0.837327 0.239294 0.809289
O O4 0.688814 0.987556 0.309951
O O5 0.690765 0.340563 0.414742
O O6 0.590508 0.368090 0.368834
O O7 0.636749 0.116017 0.396544
O O8 0.729754 0.500000 0.500000
O O9 0.750000 0.750000 0.500000
O O10 0.797839 0.590098 0.580493
O O11 0.073474 0.700106 0.750000
O O12 0.104765 0.625009 0.860136
O O13 0.000000 0.707909 0.834724
O O14 0.082099 0.876284 0.834016
O O15 0.082631 0.054213 0.750000
O O16 0.000000 0.034347 0.678175
#
# Coordination Sequence:
#
# PCOD9471818 Si02
#       7
#     8   8  16  16  16  16  16
#     4  10  20  32  51  84 115 145 182 230 296 347
#     4  10  20  32  51  84 115 145 182 232 294 349
#     4  11  22  37  58  85 119 152 192 241 291 350
#     4  12  26  43  58  83 116 158 205 245 290 340
#     4   9  19  35  57  89 124 155 187 229 291 357
#     4  11  22  37  58  85 119 152 193 240 292 353
#     4   9  19  35  57  89 124 155 188 230 289 356
#
# _framework density 17.749376999999999
#
# number of rings (size 3 to 8) (size 9 to 14) (size 15 to 20)
#    0.000    1.667    5.000    1.000    2.333    2.000 
#    0.000    1.667    0.000    2.000    0.000    0.000 
#    0.000    0.000    0.000    0.000    0.000    0.000 
#
# Total GULP energy -267459.867933 kJ/mol
# GULP energy per Si atom -5572.080582 kJ/mol
# Density = 1.770898 g / cm^3
# Si number density = 17.749377 Si / 1000 Ang^3
#
#
#
# Elastic Constant Matrix: (Units=GPa)
#
#
# Indices 1 2 3 4 5 6 
#
# 1 71.4756 62.4901 29.6950 0.0000 0.0000 0.0000
# 2 62.4901 143.3602 44.2559 0.0000 0.0000 0.0000
# 3 29.6950 44.2559 70.4964 0.0000 0.0000 0.0000
# 4 0.0000 0.0000 0.0000 52.9206 0.0000 0.0000
# 5 0.0000 0.0000 0.0000 0.0000 22.6857 0.0000
# 6 0.0000 0.0000 0.0000 0.0000 0.0000 36.2089
#
#
#
# Elastic Compliance Matrix: (Units=1/GPa)
#
#
# Indices 1 2 3 4 5 6 
#
# 1 0.023623 -0.008962 -0.004324 0.000000 0.000000 0.000000
# 2 -0.008962 0.012052 -0.003791 0.000000 0.000000 0.000000
# 3 -0.004324 -0.003791 0.018387 0.000000 0.000000 0.000000
# 4 0.000000 0.000000 0.000000 0.018896 0.000000 0.000000
# 5 0.000000 0.000000 0.000000 0.000000 0.044081 0.000000
# 6 0.000000 0.000000 0.000000 0.000000 0.000000 0.027618
#
#
# Mechanical properties :
#
#
# Convention : Reuss Voigt Hill
#
# Bulk Modulus (GPa) = 50.23452 62.02380 56.12916
# Shear Modulus (GPa) = 26.96192 32.28913 29.62553
#
# Velocity S-wave (km/s) = 3.90171 4.26980 4.08990
# Velocity P-wave (km/s) = 6.97577 7.70249 7.34812
#
# Compressibility (1/GPa) = 0.01990663
#
# Stress axis : x y z
#
# Youngs Moduli (GPa) = 42.33186 82.97162 54.38749
#
# Poissons Ratio (x) = 0.74360 0.23519
# Poissons Ratio (y) = 0.37938 0.20619
# Poissons Ratio (z) = 0.18306 0.31455
#
# Static dielectric constant tensor:
#      x y z
#    x 1.600560 0.000000 0.000000 
#    y 0.000000 1.653040 0.000000 
#    z 0.000000 0.000000 1.598800 
# 
# From -- ./inp_files/65000.got.cif
#   From: 2010.05.17/outbox.cif.g08.bks.cpg/sg63_33_cif.got.tgz:65000.got - 2010.06.03 15:47:04.
