data_PCOD9471147
_publ_section_title
;
Structure prediction by ZEFSAII (Michael W. Deem and Ramdas Pophale) SiO2 
 PCOD9471147
Probable space group: C M C M
;
_chemical_formula_sum "Si O2"
_cell_formula_units_Z 96
_cell_length_a 30.551445
_cell_length_b 10.769998
_cell_length_c 15.573518
_cell_angle_alpha 90.000000
_cell_angle_beta 90.000000
_cell_angle_gamma 90.000000
_cell_volume 5124.294813
_symmetry_space_group_name_H-M "C M C M"
_symmetry_group_IT_number 63
_symmetry_cell_setting 'orthorhombic'
loop_
_space_group_symop_operation_xyz
x,y,z
-x,-y,1/2+z
x,-y,-z
-x,y,1/2-z
-x,-y,-z
x,y,1/2-z
-x,y,z
x,-y,1/2+z
1/2+x,1/2+y,z
1/2-x,1/2-y,1/2+z
1/2+x,1/2-y,-z
1/2-x,1/2+y,1/2-z
1/2-x,1/2-y,-z
1/2+x,1/2+y,1/2-z
1/2-x,1/2+y,z
1/2+x,1/2-y,1/2+z
loop_
_atom_site_type_symbol
_atom_site_label
_atom_site_fract_x
_atom_site_fract_y
_atom_site_fract_z
Si Si1 0.275786 0.512531 0.099029
Si Si2 0.774369 0.260820 0.907039
Si Si3 0.629849 0.770175 0.850733
Si Si4 0.950303 0.372516 0.553156
Si Si5 0.628841 0.479159 0.650838
Si Si6 0.048199 0.122691 0.439535
O O1 0.248936 0.624457 0.138994
O O2 0.270597 0.374636 0.136469
O O3 0.326979 0.545766 0.098888
O O4 0.261281 0.500000 0.000000
O O5 0.826320 0.288069 0.907501
O O6 0.750000 0.250000 0.000000
O O7 0.640227 0.789579 0.750000
O O8 0.589136 0.853122 0.880372
O O9 0.617184 0.624627 0.861067
O O10 0.944958 0.500000 0.500000
O O11 0.947993 0.250422 0.492317
O O12 0.000000 0.373577 0.589997
O O13 0.639867 0.461399 0.750000
O O14 0.588742 0.394718 0.623151
O O15 0.000000 0.121839 0.397807
O O16 0.049874 0.000000 0.500000
#
# Coordination Sequence:
#
# PCOD9471147 Si02
#       6
#    16  16  16  16  16  16
#     4   9  18  33  53  75 104 141 185 226 275 327
#     4   9  19  33  54  80 106 146 188 230 278 333
#     4  10  21  37  58  85 118 151 192 240 285 345
#     4  10  22  39  60  86 115 150 191 237 290 351
#     4  10  20  33  54  83 114 147 182 234 291 332
#     4  10  19  34  58  83 108 141 186 231 273 337
#
# _framework density 18.734286000000001
#
# number of rings (size 3 to 8) (size 9 to 14) (size 15 to 20)
#    0.000    2.333    1.667    0.500    4.667    3.333 
#    0.000    2.500    0.000    3.000    0.000    0.000 
#    0.000    0.000    0.000    0.000    0.000    0.000 
#
# Total GULP energy -267340.929996 kJ/mol
# GULP energy per Si atom -5569.602708 kJ/mol
# Density = 1.869165 g / cm^3
# Si number density = 18.734286 Si / 1000 Ang^3
#
#
#
# Elastic Constant Matrix: (Units=GPa)
#
#
# Indices 1 2 3 4 5 6 
#
# 1 113.5141 47.8451 33.5458 0.0000 0.0000 0.0000
# 2 47.8451 105.3030 7.9210 0.0000 0.0000 0.0000
# 3 33.5458 7.9210 37.4691 0.0000 0.0000 0.0000
# 4 0.0000 0.0000 0.0000 10.2504 0.0000 0.0000
# 5 0.0000 0.0000 0.0000 0.0000 -18.3366 0.0000
# 6 0.0000 0.0000 0.0000 0.0000 0.0000 33.7454
#
#
#
# Elastic Compliance Matrix: (Units=1/GPa)
#
#
# Indices 1 2 3 4 5 6 
#
# 1 0.014825 -0.005830 -0.012040 0.000000 0.000000 0.000000
# 2 -0.005830 0.011943 0.002695 0.000000 0.000000 0.000000
# 3 -0.012040 0.002695 0.036898 0.000000 0.000000 0.000000
# 4 0.000000 0.000000 0.000000 0.097557 0.000000 0.000000
# 5 0.000000 0.000000 0.000000 0.000000 -0.054536 0.000000
# 6 0.000000 0.000000 0.000000 0.000000 0.000000 0.029634
#
#
# Mechanical properties :
#
#
# Convention : Reuss Voigt Hill
#
# Bulk Modulus (GPa) = 30.01617 48.32331 39.16974
# Shear Modulus (GPa) = 28.12519 16.26348 22.19433
#
# Velocity S-wave (km/s) = 3.87882 2.94957 3.44567
# Velocity P-wave (km/s) = 6.00976 6.11964 6.06495
#
# Compressibility (1/GPa) = 0.03331538
#
# Stress axis : x y z
#
# Youngs Moduli (GPa) = 67.45393 83.73356 27.10148
#
# Poissons Ratio (x) = 0.48818 0.32631
# Poissons Ratio (y) = 0.39327 -0.07304
# Poissons Ratio (z) = 0.81215 -0.22566
#
# Static dielectric constant tensor:
#      x y z
#    x 1.657600 0.000000 0.000000 
#    y 0.000000 1.688790 0.000000 
#    z 0.000000 0.000000 1.653940 
# 
# From -- ./inp_files/48980.got.cif
#   From: 2010.05.17/outbox.cif.g08.bks.cpg/sg63_25_cif.got.tgz:48980.got - 2010.06.03 15:47:04.
