data_PCOD9471881
_publ_section_title
;
Structure prediction by ZEFSAII (Michael W. Deem and Ramdas Pophale) SiO2 
 PCOD9471881
Probable space group: C M C M
;
_chemical_formula_sum "Si O2"
_cell_formula_units_Z 96
_cell_length_a 29.410042
_cell_length_b 18.822073
_cell_length_c 9.134726
_cell_angle_alpha 90.000000
_cell_angle_beta 90.000000
_cell_angle_gamma 90.000000
_cell_volume 5056.600266
_symmetry_space_group_name_H-M "C M C M"
_symmetry_group_IT_number 63
_symmetry_cell_setting 'orthorhombic'
loop_
_space_group_symop_operation_xyz
x,y,z
-x,-y,1/2+z
x,-y,-z
-x,y,1/2-z
-x,-y,-z
x,y,1/2-z
-x,y,z
x,-y,1/2+z
1/2+x,1/2+y,z
1/2-x,1/2-y,1/2+z
1/2+x,1/2-y,-z
1/2-x,1/2+y,1/2-z
1/2-x,1/2-y,-z
1/2+x,1/2+y,1/2-z
1/2-x,1/2+y,z
1/2+x,1/2-y,1/2+z
loop_
_atom_site_type_symbol
_atom_site_label
_atom_site_fract_x
_atom_site_fract_y
_atom_site_fract_z
Si Si1 0.628509 0.938479 0.913711
Si Si2 0.447901 0.135685 0.918001
Si Si3 0.799272 0.684693 0.417802
Si Si4 0.731659 0.423804 0.425521
Si Si5 0.550949 0.711722 0.573115
Si Si6 0.349152 0.672551 0.926998
O O1 0.618459 0.961915 0.750000
O O2 0.657786 0.867632 0.908399
O O3 0.583931 0.920097 0.003539
O O4 0.654381 0.000000 0.000000
O O5 0.433803 0.147157 0.750000
O O6 0.500000 0.112105 0.919641
O O7 0.445523 0.209723 0.005375
O O8 0.782067 0.695526 0.250000
O O9 0.763635 0.639753 0.513139
O O10 0.819840 0.758511 0.478012
O O11 0.739958 0.500000 0.500000
O O12 0.737374 0.429279 0.250000
O O13 0.680415 0.396814 0.460360
O O14 0.551593 0.716210 0.750000
O O15 0.500000 0.683886 0.532110
O O16 0.597945 0.673282 0.526053
O O17 0.349851 0.679863 0.750000
#
# Coordination Sequence:
#
# PCOD9471881 Si02
#       6
#    16  16  16  16  16  16
#     4  11  22  35  52  72 101 140 180 226 272 320
#     4  10  20  33  49  72 103 137 176 222 270 322
#     4  10  20  37  58  81 109 138 181 230 273 321
#     4  11  23  38  57  80 113 149 184 224 274 328
#     4   9  16  31  57  84 109 139 176 220 273 325
#     4   9  18  35  58  86 113 141 180 228 270 321
#
# _framework density 18.985088000000001
#
# number of rings (size 3 to 8) (size 9 to 14) (size 15 to 20)
#    0.000    2.000    1.667    2.500    0.000    4.000 
#    0.000    2.500    0.000    0.500    0.000    0.000 
#    0.000    0.000    0.000    0.000    0.000    0.167 
#
# Total GULP energy -267567.978427 kJ/mol
# GULP energy per Si atom -5574.332884 kJ/mol
# Density = 1.894188 g / cm^3
# Si number density = 18.985088 Si / 1000 Ang^3
#
#
#
# Elastic Constant Matrix: (Units=GPa)
#
#
# Indices 1 2 3 4 5 6 
#
# 1 124.9872 36.3162 37.3109 0.0000 0.0000 0.0000
# 2 36.3162 38.1918 13.1927 0.0000 0.0000 0.0000
# 3 37.3109 13.1927 52.3326 0.0000 0.0000 0.0000
# 4 0.0000 0.0000 0.0000 8.6457 0.0000 0.0000
# 5 0.0000 0.0000 0.0000 0.0000 5.5647 0.0000
# 6 0.0000 0.0000 0.0000 0.0000 0.0000 -31.8484
#
#
#
# Elastic Compliance Matrix: (Units=1/GPa)
#
#
# Indices 1 2 3 4 5 6 
#
# 1 0.012884 -0.009944 -0.006679 0.000000 0.000000 0.000000
# 2 -0.009944 0.036356 -0.002075 0.000000 0.000000 0.000000
# 3 -0.006679 -0.002075 0.024394 0.000000 0.000000 0.000000
# 4 0.000000 0.000000 0.000000 0.115664 0.000000 0.000000
# 5 0.000000 0.000000 0.000000 0.000000 0.179705 0.000000
# 6 0.000000 0.000000 0.000000 0.000000 0.000000 -0.031399
#
#
# Mechanical properties :
#
#
# Convention : Reuss Voigt Hill
#
# Bulk Modulus (GPa) = 27.59620 43.23901 35.41761
# Shear Modulus (GPa) = 12.91723 5.05184 8.98454
#
# Velocity S-wave (km/s) = 2.61125 1.63301 2.17777
# Velocity P-wave (km/s) = 4.86403 5.13618 5.00196
#
# Compressibility (1/GPa) = 0.03623687
#
# Stress axis : x y z
#
# Youngs Moduli (GPa) = 77.61614 27.50558 40.99451
#
# Poissons Ratio (x) = 0.27352 0.27380
# Poissons Ratio (y) = 0.77182 0.08508
# Poissons Ratio (z) = 0.51839 0.05709
#
# Static dielectric constant tensor:
#      x y z
#    x 1.709890 0.000000 0.000000 
#    y 0.000000 1.621770 0.000000 
#    z 0.000000 0.000000 -0.335070 
# 
# From -- ./inp_files/12324.got.cif
#   From: 2010.05.17/outbox.cif.g08.bks.cpg/sg63_7_cif.got.tgz:12324.got - 2010.06.03 15:47:04.
