data_PCOD9471641
_publ_section_title
;
Structure prediction by ZEFSAII (Michael W. Deem and Ramdas Pophale) SiO2 
 PCOD9471641
Probable space group: C M C M
;
_chemical_formula_sum "Si O2"
_cell_formula_units_Z 96
_cell_length_a 14.421417
_cell_length_b 11.828938
_cell_length_c 27.652416
_cell_angle_alpha 90.000000
_cell_angle_beta 90.000000
_cell_angle_gamma 90.000000
_cell_volume 4717.226961
_symmetry_space_group_name_H-M "C M C M"
_symmetry_group_IT_number 63
_symmetry_cell_setting 'orthorhombic'
loop_
_space_group_symop_operation_xyz
x,y,z
-x,-y,1/2+z
x,-y,-z
-x,y,1/2-z
-x,-y,-z
x,y,1/2-z
-x,y,z
x,-y,1/2+z
1/2+x,1/2+y,z
1/2-x,1/2-y,1/2+z
1/2+x,1/2-y,-z
1/2-x,1/2+y,1/2-z
1/2-x,1/2-y,-z
1/2+x,1/2+y,1/2-z
1/2-x,1/2+y,z
1/2+x,1/2-y,1/2+z
loop_
_atom_site_type_symbol
_atom_site_label
_atom_site_fract_x
_atom_site_fract_y
_atom_site_fract_z
Si Si1 0.894003 0.097059 0.958332
Si Si2 0.609139 0.894825 0.302292
Si Si3 0.790920 0.077339 0.397469
Si Si4 0.893803 0.123385 0.195048
Si Si5 0.890725 0.488154 0.091401
Si Si6 0.888616 0.261423 0.037363
O O1 0.829606 0.041250 0.918375
O O2 0.000000 0.112940 0.941133
O O3 0.859457 0.209007 0.985896
O O4 0.896658 0.000000 0.000000
O O5 0.650438 0.932379 0.250000
O O6 0.500000 0.922703 0.299804
O O7 0.615633 0.759202 0.303914
O O8 0.635109 0.939815 0.355164
O O9 0.684045 0.086383 0.412758
O O10 0.817375 0.078977 0.341445
O O11 0.845882 0.180552 0.421905
O O12 0.884292 0.082292 0.250000
O O13 0.000000 0.098441 0.178505
O O14 0.872901 0.391249 0.051284
O O15 0.000000 0.516984 0.089452
O O16 0.000000 0.245630 0.039086
#
# Coordination Sequence:
#
# PCOD9471641 Si02
#       6
#    16  16  16  16  16  16
#     4   8  15  27  47  72  94 120 152 192 236 279
#     4   8  14  27  46  65  88 119 152 187 228 272
#     4  11  18  27  49  73  97 121 157 194 234 277
#     4   9  16  27  47  74  98 118 147 194 242 277
#     4  10  20  31  46  69  96 126 158 195 233 270
#     4   9  17  33  52  70  95 122 154 197 238 275
#
# _framework density 20.350937999999999
#
# number of rings (size 3 to 8) (size 9 to 14) (size 15 to 20)
#    0.000    2.833    1.667    3.500    0.000    1.333 
#    0.000    0.000    0.000    7.500    0.000    0.000 
#    0.000    0.000    0.000    0.000    0.000    0.000 
#
# Total GULP energy -267509.228784 kJ/mol
# GULP energy per Si atom -5573.108933 kJ/mol
# Density = 2.030462 g / cm^3
# Si number density = 20.350938 Si / 1000 Ang^3
#
#
#
# Elastic Constant Matrix: (Units=GPa)
#
#
# Indices 1 2 3 4 5 6 
#
# 1 54.5493 22.1061 -1.7559 0.0000 0.0000 0.0000
# 2 22.1061 22.6376 17.7710 0.0000 0.0000 0.0000
# 3 -1.7559 17.7710 39.4639 0.0000 0.0000 0.0000
# 4 0.0000 0.0000 0.0000 17.1856 0.0000 0.0000
# 5 0.0000 0.0000 0.0000 0.0000 10.4801 0.0000
# 6 0.0000 0.0000 0.0000 0.0000 0.0000 19.1259
#
#
#
# Elastic Compliance Matrix: (Units=1/GPa)
#
#
# Indices 1 2 3 4 5 6 
#
# 1 0.053623 -0.083894 0.040164 0.000000 0.000000 0.000000
# 2 -0.083894 0.199582 -0.093607 0.000000 0.000000 0.000000
# 3 0.040164 -0.093607 0.069279 0.000000 0.000000 0.000000
# 4 0.000000 0.000000 0.000000 0.058188 0.000000 0.000000
# 5 0.000000 0.000000 0.000000 0.000000 0.095419 0.000000
# 6 0.000000 0.000000 0.000000 0.000000 0.000000 0.052285
#
#
# Mechanical properties :
#
#
# Convention : Reuss Voigt Hill
#
# Bulk Modulus (GPa) = 20.91568 21.43259 21.17414
# Shear Modulus (GPa) = 6.10510 14.59362 10.34936
#
# Velocity S-wave (km/s) = 1.73390 2.68077 2.25754
# Velocity P-wave (km/s) = 3.78264 4.48736 4.14999
#
# Compressibility (1/GPa) = 0.04781101
#
# Stress axis : x y z
#
# Youngs Moduli (GPa) = 18.64874 5.01046 14.43441
#
# Poissons Ratio (x) = 0.42035 -0.57975
# Poissons Ratio (y) = 1.56452 1.35116
# Poissons Ratio (z) = -0.74901 0.46901
#
# Static dielectric constant tensor:
#      x y z
#    x 1.758290 0.000000 0.000000 
#    y 0.000000 1.735680 0.000000 
#    z 0.000000 0.000000 1.594480 
# 
# From -- ./inp_files/73481.got.cif
#   From: 2010.05.17/outbox.cif.g08.bks.cpg/sg63_37_cif.got.tgz:73481.got - 2010.06.03 15:47:04.
