data_PCOD9471246
_publ_section_title
;
Structure prediction by ZEFSAII (Michael W. Deem and Ramdas Pophale) SiO2 
 PCOD9471246
Probable space group: C M C M
;
_chemical_formula_sum "Si O2"
_cell_formula_units_Z 96
_cell_length_a 13.858388
_cell_length_b 22.099159
_cell_length_c 14.763708
_cell_angle_alpha 90.000000
_cell_angle_beta 90.000000
_cell_angle_gamma 90.000000
_cell_volume 4521.514313
_symmetry_space_group_name_H-M "C M C M"
_symmetry_group_IT_number 63
_symmetry_cell_setting 'orthorhombic'
loop_
_space_group_symop_operation_xyz
x,y,z
-x,-y,1/2+z
x,-y,-z
-x,y,1/2-z
-x,-y,-z
x,y,1/2-z
-x,y,z
x,-y,1/2+z
1/2+x,1/2+y,z
1/2-x,1/2-y,1/2+z
1/2+x,1/2-y,-z
1/2-x,1/2+y,1/2-z
1/2-x,1/2-y,-z
1/2+x,1/2+y,1/2-z
1/2-x,1/2+y,z
1/2+x,1/2-y,1/2+z
loop_
_atom_site_type_symbol
_atom_site_label
_atom_site_fract_x
_atom_site_fract_y
_atom_site_fract_z
Si Si1 0.285840 0.934122 0.892785
Si Si2 0.500000 0.925697 0.857830
Si Si3 0.104826 0.143245 0.151693
Si Si4 0.608996 0.248572 0.511075
Si Si5 0.712534 0.072632 0.604153
Si Si6 0.000000 0.436450 0.357946
Si Si7 0.729771 0.301237 0.144183
O O1 0.392327 0.903959 0.882897
O O2 0.198459 0.897986 0.849820
O O3 0.285701 0.003755 0.858284
O O4 0.264724 0.933657 0.999061
O O5 0.500000 0.926503 0.750000
O O6 0.500000 0.994775 0.894475
O O7 0.104703 0.175618 0.250000
O O8 0.109000 0.188850 0.068167
O O9 0.000000 0.111193 0.145821
O O10 0.500000 0.224587 0.508426
O O11 0.647225 0.264409 0.410343
O O12 0.681627 0.210147 0.573592
O O13 0.600529 0.091813 0.613800
O O14 0.778468 0.125567 0.644202
O O15 0.000000 0.438635 0.250000
O O16 0.740934 0.282835 0.250000
#
# Coordination Sequence:
#
# PCOD9471246 Si02
#       7
#    16   8  16  16  16   8  16
#     4  10  19  35  55  85 125 165 204 248 306 374
#     4   9  17  29  49  77 115 161 199 242 298 360
#     4  10  20  37  62  87 117 163 215 260 299 353
#     4  10  23  44  65  90 123 162 206 257 315 372
#     4  10  20  34  55  86 122 162 198 250 307 367
#     4   9  17  29  47  77 117 157 199 240 291 361
#     4  11  23  40  65  95 123 157 207 263 316 370
#
# _framework density 21.231824
#
# number of rings (size 3 to 8) (size 9 to 14) (size 15 to 20)
#    0.000    2.000    1.667    2.000    1.167    5.333 
#    0.000    2.500    0.000    0.000    0.000    0.000 
#    0.000    0.000    0.000    0.000    0.000    0.000 
#
# Total GULP energy -267418.109329 kJ/mol
# GULP energy per Si atom -5571.210611 kJ/mol
# Density = 2.118350 g / cm^3
# Si number density = 21.231824 Si / 1000 Ang^3
#
#
#
# Elastic Constant Matrix: (Units=GPa)
#
#
# Indices 1 2 3 4 5 6 
#
# 1 98.0361 24.2054 10.0004 0.0000 0.0000 0.0000
# 2 24.2054 44.1784 8.9811 0.0000 0.0000 0.0000
# 3 10.0004 8.9811 129.8568 0.0000 0.0000 0.0000
# 4 0.0000 0.0000 0.0000 10.7313 0.0000 0.0000
# 5 0.0000 0.0000 0.0000 0.0000 36.3478 0.0000
# 6 0.0000 0.0000 0.0000 0.0000 0.0000 24.3180
#
#
#
# Elastic Compliance Matrix: (Units=1/GPa)
#
#
# Indices 1 2 3 4 5 6 
#
# 1 0.011824 -0.006383 -0.000469 0.000000 0.000000 0.000000
# 2 -0.006383 0.026404 -0.001335 0.000000 0.000000 0.000000
# 3 -0.000469 -0.001335 0.007829 0.000000 0.000000 0.000000
# 4 0.000000 0.000000 0.000000 0.093185 0.000000 0.000000
# 5 0.000000 0.000000 0.000000 0.000000 0.027512 0.000000
# 6 0.000000 0.000000 0.000000 0.000000 0.000000 0.041122
#
#
# Mechanical properties :
#
#
# Convention : Reuss Voigt Hill
#
# Bulk Modulus (GPa) = 33.68832 39.82722 36.75777
# Shear Modulus (GPa) = 21.35430 29.53838 25.44634
#
# Velocity S-wave (km/s) = 3.17483 3.73397 3.46569
# Velocity P-wave (km/s) = 5.41671 6.11466 5.77623
#
# Compressibility (1/GPa) = 0.02968388
#
# Stress axis : x y z
#
# Youngs Moduli (GPa) = 84.57237 37.87290 127.72666
#
# Poissons Ratio (x) = 0.24175 0.05992
# Poissons Ratio (y) = 0.53984 0.17046
# Poissons Ratio (z) = 0.03967 0.05054
#
# Static dielectric constant tensor:
#      x y z
#    x 1.791530 0.000000 0.000000 
#    y 0.000000 1.814660 0.000000 
#    z 0.000000 0.000000 1.747590 
# 
# From -- ./inp_files/31976.got.cif
#   From: 2010.05.17/outbox.cif.g08.bks.cpg/sg63_16_cif.got.tgz:31976.got - 2010.06.03 15:47:04.
