data_PCOD9471611
_publ_section_title
;
Structure prediction by ZEFSAII (Michael W. Deem and Ramdas Pophale) SiO2 
 PCOD9471611
Probable space group: C M C M
;
_chemical_formula_sum "Si O2"
_cell_formula_units_Z 116
_cell_length_a 7.699068
_cell_length_b 29.870162
_cell_length_c 22.990801
_cell_angle_alpha 90.000000
_cell_angle_beta 90.000000
_cell_angle_gamma 90.000000
_cell_volume 5287.249877
_symmetry_space_group_name_H-M "C M C M"
_symmetry_group_IT_number 63
_symmetry_cell_setting 'orthorhombic'
loop_
_space_group_symop_operation_xyz
x,y,z
-x,-y,1/2+z
x,-y,-z
-x,y,1/2-z
-x,-y,-z
x,y,1/2-z
-x,y,z
x,-y,1/2+z
1/2+x,1/2+y,z
1/2-x,1/2-y,1/2+z
1/2+x,1/2-y,-z
1/2-x,1/2+y,1/2-z
1/2-x,1/2-y,-z
1/2+x,1/2+y,1/2-z
1/2-x,1/2+y,z
1/2+x,1/2-y,1/2+z
loop_
_atom_site_type_symbol
_atom_site_label
_atom_site_fract_x
_atom_site_fract_y
_atom_site_fract_z
Si Si1 0.295098 0.375761 0.981890
Si Si2 0.693301 0.547095 0.865279
Si Si3 0.000000 0.021253 0.750000
Si Si4 0.213022 0.728394 0.816959
Si Si5 0.299255 0.856142 0.388327
Si Si6 0.705111 0.911055 0.686617
Si Si7 0.300380 0.537470 0.427011
Si Si8 0.210369 0.178526 0.129217
O O1 0.500000 0.380238 0.970106
O O2 0.221083 0.425978 0.970854
O O3 0.228169 0.341155 0.933004
O O4 0.273910 0.359097 0.046826
O O5 0.500000 0.558265 0.889778
O O6 0.649466 0.525939 0.802404
O O7 0.783667 0.594666 0.860579
O O8 0.776193 0.510499 0.908623
O O9 0.269241 0.731042 0.750000
O O10 0.274870 0.682913 0.847830
O O11 0.268506 0.772138 0.853000
O O12 0.000000 0.728217 0.815987
O O13 0.500000 0.845301 0.396034
O O14 0.774399 0.923886 0.750000
O O15 0.500000 0.921242 0.683677
O O16 0.798504 0.935400 0.633844
O O17 0.730534 0.858314 0.676004
O O18 0.500000 0.528671 0.443778
O O19 0.000000 0.179153 0.129047
#
# Coordination Sequence:
#
# PCOD9471611 Si02
#       8
#    16  16   4  16  16  16  16  16
#     4   9  19  36  56  82 110 140 182 232 280 326
#     4   9  20  37  58  82 108 144 186 233 277 321
#     4   8  20  36  62  82 112 144 182 244 282 328
#     4   9  19  35  57  82 109 139 184 235 279 326
#     4  11  23  37  55  82 112 153 190 227 276 334
#     4  10  20  30  46  77 117 146 172 218 282 338
#     4   9  19  35  58  80 104 144 191 233 271 325
#     4   9  18  36  59  80 101 139 188 231 272 326
#
# _framework density 21.939574
#
# number of rings (size 3 to 8) (size 9 to 14) (size 15 to 20)
#    0.414    2.207    0.000    2.069    1.931    5.517 
#    0.000    4.138    0.000    1.655    0.000    0.000 
#    0.000    0.000    0.000    0.000    0.000    0.000 
#
# Total GULP energy -322922.467124 kJ/mol
# GULP energy per Si atom -5567.628744 kJ/mol
# Density = 2.188964 g / cm^3
# Si number density = 21.939574 Si / 1000 Ang^3
#
#
#
# Elastic Constant Matrix: (Units=GPa)
#
#
# Indices 1 2 3 4 5 6 
#
# 1 38.2372 -0.7761 4.6279 0.0000 0.0000 0.0000
# 2 -0.7761 144.8986 60.0515 0.0000 0.0000 0.0000
# 3 4.6279 60.0515 107.6939 0.0000 0.0000 0.0000
# 4 0.0000 0.0000 0.0000 32.7618 0.0000 0.0000
# 5 0.0000 0.0000 0.0000 0.0000 18.1010 0.0000
# 6 0.0000 0.0000 0.0000 0.0000 0.0000 11.6412
#
#
#
# Elastic Compliance Matrix: (Units=1/GPa)
#
#
# Indices 1 2 3 4 5 6 
#
# 1 0.026359 0.000794 -0.001576 0.000000 0.000000 0.000000
# 2 0.000794 0.009000 -0.005052 0.000000 0.000000 0.000000
# 3 -0.001576 -0.005052 0.012171 0.000000 0.000000 0.000000
# 4 0.000000 0.000000 0.000000 0.030523 0.000000 0.000000
# 5 0.000000 0.000000 0.000000 0.000000 0.055245 0.000000
# 6 0.000000 0.000000 0.000000 0.000000 0.000000 0.085902
#
#
# Mechanical properties :
#
#
# Convention : Reuss Voigt Hill
#
# Bulk Modulus (GPa) = 27.88474 46.51513 37.19994
# Shear Modulus (GPa) = 20.59127 27.62925 24.11026
#
# Velocity S-wave (km/s) = 3.06689 3.55256 3.31862
# Velocity P-wave (km/s) = 5.02777 6.17050 5.62821
#
# Compressibility (1/GPa) = 0.03586190
#
# Stress axis : x y z
#
# Youngs Moduli (GPa) = 37.93716 111.11690 82.16547
#
# Poissons Ratio (x) = -0.08825 0.12946
# Poissons Ratio (y) = -0.03013 0.41513
# Poissons Ratio (z) = 0.05977 0.56141
#
# Static dielectric constant tensor:
#      x y z
#    x 1.841050 0.000000 0.000000 
#    y 0.000000 1.840460 0.000000 
#    z 0.000000 0.000000 1.790870 
# 
# From -- ./inp_files/60439.got.cif
#   From: 2010.05.17/outbox.cif.g08.bks.cpg/sg63_31_cif.got.tgz:60439.got - 2010.06.03 15:47:04.
