data_PCOD9471722
_publ_section_title
;
Structure prediction by ZEFSAII (Michael W. Deem and Ramdas Pophale) SiO2 
 PCOD9471722
Probable space group: C M C M
;
_chemical_formula_sum "Si O2"
_cell_formula_units_Z 96
_cell_length_a 8.727438
_cell_length_b 28.248378
_cell_length_c 24.511827
_cell_angle_alpha 90.000000
_cell_angle_beta 90.000000
_cell_angle_gamma 90.000000
_cell_volume 6043.046987
_symmetry_space_group_name_H-M "C M C M"
_symmetry_group_IT_number 63
_symmetry_cell_setting 'orthorhombic'
loop_
_space_group_symop_operation_xyz
x,y,z
-x,-y,1/2+z
x,-y,-z
-x,y,1/2-z
-x,-y,-z
x,y,1/2-z
-x,y,z
x,-y,1/2+z
1/2+x,1/2+y,z
1/2-x,1/2-y,1/2+z
1/2+x,1/2-y,-z
1/2-x,1/2+y,1/2-z
1/2-x,1/2-y,-z
1/2+x,1/2+y,1/2-z
1/2-x,1/2+y,z
1/2+x,1/2-y,1/2+z
loop_
_atom_site_type_symbol
_atom_site_label
_atom_site_fract_x
_atom_site_fract_y
_atom_site_fract_z
Si Si1 0.186062 0.019439 0.415525
Si Si2 0.683193 0.269784 0.915803
Si Si3 0.816790 0.323214 0.481970
Si Si4 0.814672 0.077792 0.312147
Si Si5 0.816703 0.682288 0.312507
Si Si6 0.814787 0.925719 0.025572
O O1 0.237876 0.041004 0.358240
O O2 0.228423 0.053784 0.465823
O O3 0.000000 0.018599 0.414843
O O4 0.234002 0.966352 0.431573
O O5 0.500000 0.273167 0.913985
O O6 0.725799 0.217951 0.938858
O O7 0.751308 0.282202 0.857262
O O8 0.745486 0.307033 0.960396
O O9 0.756601 0.374588 0.465812
O O10 0.000000 0.323656 0.487017
O O11 0.771468 0.064893 0.250000
O O12 0.749010 0.129858 0.323758
O O13 0.000000 0.080546 0.314412
O O14 0.773880 0.694373 0.250000
O O15 0.000000 0.680837 0.316108
O O16 0.000000 0.922093 0.026949
#
# Coordination Sequence:
#
# PCOD9471722 Si02
#       6
#    16  16  16  16  16  16
#     4   8  15  27  43  65  89 116 152 187 218 259
#     4  10  20  33  49  68  92 124 157 187 225 276
#     4  10  20  32  47  70  96 119 150 193 235 274
#     4   9  16  27  45  67  91 120 152 184 221 269
#     4  10  20  32  47  70  98 123 150 189 233 272
#     4   9  16  28  46  64  87 120 153 185 222 266
#
# _framework density 15.886025999999999
#
# number of rings (size 3 to 8) (size 9 to 14) (size 15 to 20)
#    0.000    2.667    0.000    3.500    0.000    4.333 
#    0.000    2.500    0.000    1.000    0.000    2.333 
#    0.000    0.000    0.000    0.000    0.000    0.000 
#
# Total GULP energy -267600.698462 kJ/mol
# GULP energy per Si atom -5575.014551 kJ/mol
# Density = 1.584987 g / cm^3
# Si number density = 15.886026 Si / 1000 Ang^3
#
#
#
# Elastic Constant Matrix: (Units=GPa)
#
#
# Indices 1 2 3 4 5 6 
#
# 1 21.7986 28.0666 29.6203 0.0000 0.0000 0.0000
# 2 28.0666 110.3199 72.2170 0.0000 0.0000 0.0000
# 3 29.6203 72.2170 116.6305 0.0000 0.0000 0.0000
# 4 0.0000 0.0000 0.0000 23.2221 0.0000 0.0000
# 5 0.0000 0.0000 0.0000 0.0000 18.6038 0.0000
# 6 0.0000 0.0000 0.0000 0.0000 0.0000 23.3718
#
#
#
# Elastic Compliance Matrix: (Units=1/GPa)
#
#
# Indices 1 2 3 4 5 6 
#
# 1 0.077917 -0.011551 -0.012636 0.000000 0.000000 0.000000
# 2 -0.011551 0.016956 -0.007565 0.000000 0.000000 0.000000
# 3 -0.012636 -0.007565 0.016468 0.000000 0.000000 0.000000
# 4 0.000000 0.000000 0.000000 0.043062 0.000000 0.000000
# 5 0.000000 0.000000 0.000000 0.000000 0.053753 0.000000
# 6 0.000000 0.000000 0.000000 0.000000 0.000000 0.042787
#
#
# Mechanical properties :
#
#
# Convention : Reuss Voigt Hill
#
# Bulk Modulus (GPa) = 20.90492 56.50630 38.70561
# Shear Modulus (GPa) = 15.13353 20.96253 18.04803
#
# Velocity S-wave (km/s) = 3.08982 3.63651 3.37426
# Velocity P-wave (km/s) = 5.09089 7.29927 6.29272
#
# Compressibility (1/GPa) = 0.04783564
#
# Stress axis : x y z
#
# Youngs Moduli (GPa) = 12.83410 58.97748 60.72565
#
# Poissons Ratio (x) = 0.68127 0.76732
# Poissons Ratio (y) = 0.14825 0.45940
# Poissons Ratio (z) = 0.16217 0.44617
#
# Static dielectric constant tensor:
#      x y z
#    x 1.532910 0.000000 0.000000 
#    y 0.000000 1.514620 0.000000 
#    z 0.000000 0.000000 1.533000 
# 
# From -- ./inp_files/59907.got.cif
#   From: 2010.05.17/outbox.cif.g08.bks.cpg/sg63_30_cif.got.tgz:59907.got - 2010.06.03 15:47:04.
