data_PCOD9471941
_publ_section_title
;
Structure prediction by ZEFSAII (Michael W. Deem and Ramdas Pophale) SiO2 
 PCOD9471941
Probable space group: C M C M
;
_chemical_formula_sum "Si O2"
_cell_formula_units_Z 104
_cell_length_a 29.047266
_cell_length_b 24.513577
_cell_length_c 8.746337
_cell_angle_alpha 90.000000
_cell_angle_beta 90.000000
_cell_angle_gamma 90.000000
_cell_volume 6227.850180
_symmetry_space_group_name_H-M "C M C M"
_symmetry_group_IT_number 63
_symmetry_cell_setting 'orthorhombic'
loop_
_space_group_symop_operation_xyz
x,y,z
-x,-y,1/2+z
x,-y,-z
-x,y,1/2-z
-x,-y,-z
x,y,1/2-z
-x,y,z
x,-y,1/2+z
1/2+x,1/2+y,z
1/2-x,1/2-y,1/2+z
1/2+x,1/2-y,-z
1/2-x,1/2+y,1/2-z
1/2-x,1/2-y,-z
1/2+x,1/2+y,1/2-z
1/2-x,1/2+y,z
1/2+x,1/2-y,1/2+z
loop_
_atom_site_type_symbol
_atom_site_label
_atom_site_fract_x
_atom_site_fract_y
_atom_site_fract_z
Si Si1 0.500000 0.439434 0.434081
Si Si2 0.222507 0.438859 0.932864
Si Si3 0.053942 0.642734 0.067123
Si Si4 0.590527 0.371159 0.433674
Si Si5 0.054151 0.761339 0.932669
Si Si6 0.871904 0.438842 0.432263
Si Si7 0.825206 0.938668 0.566749
O O1 0.500000 0.500000 0.500000
O O2 0.500000 0.442575 0.250000
O O3 0.545749 0.406691 0.480914
O O4 0.216792 0.440694 0.750000
O O5 0.273521 0.416666 0.967205
O O6 0.223971 0.500000 0.000000
O O7 0.176719 0.414385 0.007432
O O8 0.059157 0.640890 0.250000
O O9 0.000000 0.633032 0.030484
O O10 0.065722 0.703036 0.005941
O O11 0.086498 0.598271 0.990134
O O12 0.591778 0.369261 0.250000
O O13 0.583319 0.310839 0.499585
O O14 0.635650 0.400771 0.496809
O O15 0.059124 0.758610 0.750000
O O16 0.000000 0.771953 0.967861
O O17 0.876340 0.500000 0.500000
O O18 0.870990 0.442161 0.250000
O O19 0.829965 0.941853 0.750000
O O20 0.829410 0.000000 0.500000
#
# Coordination Sequence:
#
# PCOD9471941 Si02
#       7
#     8  16  16  16  16  16  16
#     4  10  22  34  46  68 100 136 173 214 265 316
#     4   9  17  31  51  74 103 136 173 214 256 309
#     4  10  21  37  57  80 108 141 175 213 255 304
#     4  11  21  34  51  72 101 138 178 220 264 315
#     4  10  20  35  55  77 101 134 177 221 261 307
#     4  11  21  34  55  82 112 142 174 210 254 309
#     4  10  20  33  50  75 104 136 175 219 267 316
#
# _framework density 16.699180999999999
#
# number of rings (size 3 to 8) (size 9 to 14) (size 15 to 20)
#    0.000    1.846    0.769    5.077    0.000    6.154 
#    0.000    0.000    0.000    0.923    0.000    0.000 
#    0.000    0.000    0.000    0.000    0.000    0.000 
#
# Total GULP energy -290214.440441 kJ/mol
# GULP energy per Si atom -5581.046932 kJ/mol
# Density = 1.666117 g / cm^3
# Si number density = 16.699181 Si / 1000 Ang^3
#
#
#
# Elastic Constant Matrix: (Units=GPa)
#
#
# Indices 1 2 3 4 5 6 
#
# 1 141.3422 81.4654 68.6960 0.0000 0.0000 0.0000
# 2 81.4654 98.6813 50.8179 0.0000 0.0000 0.0000
# 3 68.6960 50.8179 89.9369 0.0000 0.0000 0.0000
# 4 0.0000 0.0000 0.0000 30.9895 0.0000 0.0000
# 5 0.0000 0.0000 0.0000 0.0000 27.7426 0.0000
# 6 0.0000 0.0000 0.0000 0.0000 0.0000 5.1347
#
#
#
# Elastic Compliance Matrix: (Units=1/GPa)
#
#
# Indices 1 2 3 4 5 6 
#
# 1 0.015905 -0.009695 -0.006671 0.000000 0.000000 0.000000
# 2 -0.009695 0.020202 -0.004010 0.000000 0.000000 0.000000
# 3 -0.006671 -0.004010 0.018480 0.000000 0.000000 0.000000
# 4 0.000000 0.000000 0.000000 0.032269 0.000000 0.000000
# 5 0.000000 0.000000 0.000000 0.000000 0.036046 0.000000
# 6 0.000000 0.000000 0.000000 0.000000 0.000000 0.194753
#
#
# Mechanical properties :
#
#
# Convention : Reuss Voigt Hill
#
# Bulk Modulus (GPa) = 72.27395 81.32432 76.79914
# Shear Modulus (GPa) = 13.77346 21.37212 17.57279
#
# Velocity S-wave (km/s) = 2.87505 3.58135 3.24746
# Velocity P-wave (km/s) = 7.37530 8.11830 7.75570
#
# Compressibility (1/GPa) = 0.01383624
#
# Stress axis : x y z
#
# Youngs Moduli (GPa) = 62.87295 49.49951 54.11357
#
# Poissons Ratio (x) = 0.47991 0.36097
# Poissons Ratio (y) = 0.60956 0.21698
# Poissons Ratio (z) = 0.41940 0.19848
#
# Static dielectric constant tensor:
#      x y z
#    x 1.583960 0.000000 0.000000 
#    y 0.000000 1.520910 0.000000 
#    z 0.000000 0.000000 1.555050 
# 
# From -- ./inp_files/12529.got.cif
#   From: 2010.05.17/outbox.cif.g08.bks.cpg/sg63_7_cif.got.tgz:12529.got - 2010.06.03 15:47:04.
