data_PCOD9471386
_publ_section_title
;
Structure prediction by ZEFSAII (Michael W. Deem and Ramdas Pophale) SiO2 
 PCOD9471386
Probable space group: C M C M
;
_chemical_formula_sum "Si O2"
_cell_formula_units_Z 88
_cell_length_a 15.685361
_cell_length_b 19.805877
_cell_length_c 15.519094
_cell_angle_alpha 90.000000
_cell_angle_beta 90.000000
_cell_angle_gamma 90.000000
_cell_volume 4821.197912
_symmetry_space_group_name_H-M "C M C M"
_symmetry_group_IT_number 63
_symmetry_cell_setting 'orthorhombic'
loop_
_space_group_symop_operation_xyz
x,y,z
-x,-y,1/2+z
x,-y,-z
-x,y,1/2-z
-x,-y,-z
x,y,1/2-z
-x,y,z
x,-y,1/2+z
1/2+x,1/2+y,z
1/2-x,1/2-y,1/2+z
1/2+x,1/2-y,-z
1/2-x,1/2+y,1/2-z
1/2-x,1/2-y,-z
1/2+x,1/2+y,1/2-z
1/2-x,1/2+y,z
1/2+x,1/2-y,1/2+z
loop_
_atom_site_type_symbol
_atom_site_label
_atom_site_fract_x
_atom_site_fract_y
_atom_site_fract_z
Si Si1 0.600302 0.361989 0.847196
Si Si2 0.848784 0.231256 0.993061
Si Si3 0.727965 0.514795 0.348356
Si Si4 0.282319 0.357907 0.349023
Si Si5 0.592494 0.141272 0.928410
Si Si6 0.857029 0.500000 0.500000
O O1 0.618889 0.335650 0.750000
O O2 0.500000 0.375899 0.851885
O O3 0.624368 0.310599 0.922570
O O4 0.654091 0.430326 0.858312
O O5 0.899291 0.301451 0.997723
O O6 0.750000 0.250000 0.000000
O O7 0.846258 0.184386 0.909050
O O8 0.761628 0.520342 0.250000
O O9 0.698060 0.437522 0.359032
O O10 0.797946 0.525821 0.421554
O O11 0.291081 0.338140 0.250000
O O12 0.181295 0.351101 0.375114
O O13 0.500000 0.151766 0.884275
O O14 0.594768 0.065582 0.965433
#
# Coordination Sequence:
#
# PCOD9471386 Si02
#       6
#    16  16  16  16  16   8
#     4  10  20  34  54  81 110 137 170 218 268 306
#     4  10  20  34  51  75 106 137 172 213 257 312
#     4   9  17  32  54  78 104 137 178 214 249 306
#     4   9  19  35  55  78 105 140 177 211 251 306
#     4  10  20  34  54  78 103 133 172 221 269 308
#     4  10  19  36  55  74 104 142 176 214 263 314
#
# _framework density 18.252725999999999
#
# number of rings (size 3 to 8) (size 9 to 14) (size 15 to 20)
#    0.000    2.364    0.000    4.091    0.000    3.273 
#    0.000    5.909    0.000    7.091    0.000    0.000 
#    0.000    0.000    0.000    0.000    0.000    0.000 
#
# Total GULP energy -245052.801049 kJ/mol
# GULP energy per Si atom -5569.381842 kJ/mol
# Density = 1.821118 g / cm^3
# Si number density = 18.252726 Si / 1000 Ang^3
#
#
#
# Elastic Constant Matrix: (Units=GPa)
#
#
# Indices 1 2 3 4 5 6 
#
# 1 73.9714 35.3448 36.9979 0.0000 0.0000 0.0000
# 2 35.3448 74.1721 39.9884 0.0000 0.0000 0.0000
# 3 36.9979 39.9884 95.1827 0.0000 0.0000 0.0000
# 4 0.0000 0.0000 0.0000 17.8526 0.0000 0.0000
# 5 0.0000 0.0000 0.0000 0.0000 0.7936 0.0000
# 6 0.0000 0.0000 0.0000 0.0000 0.0000 -285.5500
#
#
#
# Elastic Compliance Matrix: (Units=1/GPa)
#
#
# Indices 1 2 3 4 5 6 
#
# 1 0.018955 -0.006542 -0.004619 0.000000 0.000000 0.000000
# 2 -0.006542 0.019688 -0.005728 0.000000 0.000000 0.000000
# 3 -0.004619 -0.005728 0.014708 0.000000 0.000000 0.000000
# 4 0.000000 0.000000 0.000000 0.056014 0.000000 0.000000
# 5 0.000000 0.000000 0.000000 0.000000 1.260036 0.000000
# 6 0.000000 0.000000 0.000000 0.000000 0.000000 -0.003502
#
#
# Mechanical properties :
#
#
# Convention : Reuss Voigt Hill
#
# Bulk Modulus (GPa) = 51.09465 51.99872 51.54669
# Shear Modulus (GPa) = 3.55567 -44.64775 -20.54604
#
# Velocity S-wave (km/s) = 1.39723 -4.95116 -3.35870
# Velocity P-wave (km/s) = 5.53685 2.03353 3.64152
#
# Compressibility (1/GPa) = 0.01957152
#
# Stress axis : x y z
#
# Youngs Moduli (GPa) = 52.75609 50.79235 67.98846
#
# Poissons Ratio (x) = 0.33229 0.31407
# Poissons Ratio (y) = 0.34514 0.38947
# Poissons Ratio (z) = 0.24371 0.29096
#
# Static dielectric constant tensor:
#      x y z
#    x 1.658200 0.000000 0.000000 
#    y 0.000000 1.647640 0.000000 
#    z 0.000000 0.000000 1.640860 
# 
# From -- ./inp_files/31777.got.cif
#   From: 2010.05.17/outbox.cif.g08.bks.cpg/sg63_16_cif.got.tgz:31777.got - 2010.06.03 15:47:04.
