data_PCOD9471241
_publ_section_title
;
Structure prediction by ZEFSAII (Michael W. Deem and Ramdas Pophale) SiO2 
 PCOD9471241
Probable space group: C M C M
;
_chemical_formula_sum "Si O2"
_cell_formula_units_Z 88
_cell_length_a 22.861069
_cell_length_b 23.988279
_cell_length_c 7.742066
_cell_angle_alpha 90.000000
_cell_angle_beta 90.000000
_cell_angle_gamma 90.000000
_cell_volume 4245.731199
_symmetry_space_group_name_H-M "C M C M"
_symmetry_group_IT_number 63
_symmetry_cell_setting 'orthorhombic'
loop_
_space_group_symop_operation_xyz
x,y,z
-x,-y,1/2+z
x,-y,-z
-x,y,1/2-z
-x,-y,-z
x,y,1/2-z
-x,y,z
x,-y,1/2+z
1/2+x,1/2+y,z
1/2-x,1/2-y,1/2+z
1/2+x,1/2-y,-z
1/2-x,1/2+y,1/2-z
1/2-x,1/2-y,-z
1/2+x,1/2+y,1/2-z
1/2-x,1/2+y,z
1/2+x,1/2-y,1/2+z
loop_
_atom_site_type_symbol
_atom_site_label
_atom_site_fract_x
_atom_site_fract_y
_atom_site_fract_z
Si Si1 0.000000 0.933690 0.458172
Si Si2 0.656681 0.853580 0.956244
Si Si3 0.741114 0.562637 0.545019
Si Si4 0.624220 0.617715 0.538626
Si Si5 0.434149 0.939999 0.957610
Si Si6 0.682468 0.265289 0.458192
O O1 0.059906 0.902785 0.518948
O O2 0.000000 0.929815 0.250000
O O3 0.000000 0.000000 0.500000
O O4 0.649438 0.849227 0.750000
O O5 0.605971 0.891991 0.029352
O O6 0.652503 0.791174 0.024088
O O7 0.716635 0.887822 0.982208
O O8 0.760049 0.500000 0.500000
O O9 0.741349 0.567208 0.750000
O O10 0.674917 0.574358 0.484132
O O11 0.622274 0.618863 0.750000
O O12 0.650460 0.678127 0.481481
O O13 0.436482 0.935427 0.750000
O O14 0.500000 0.938195 0.025708
O O15 0.408208 0.000000 0.000000
O O16 0.680058 0.268526 0.250000
O O17 0.750000 0.250000 0.500000
#
# Coordination Sequence:
#
# PCOD9471241 Si02
#       6
#     8  16  16  16  16  16
#     4  10  20  38  60  82 110 146 187 232 279 330
#     4  10  20  33  52  77 104 135 174 215 259 316
#     4  11  21  33  51  77 108 137 172 217 266 317
#     4   9  19  35  55  79 108 141 179 222 271 324
#     4   9  18  33  50  71 100 132 167 207 252 302
#     4  10  19  35  55  78 106 138 174 214 263 319
#
# _framework density 20.726700000000001
#
# number of rings (size 3 to 8) (size 9 to 14) (size 15 to 20)
#    0.000    2.182    1.818    1.636    0.000    2.182 
#    1.636    1.818    0.000    0.000    0.000    0.000 
#    0.000    0.000    0.000    0.000    0.000    0.000 
#
# Total GULP energy -245305.018054 kJ/mol
# GULP energy per Si atom -5575.114047 kJ/mol
# Density = 2.067953 g / cm^3
# Si number density = 20.726700 Si / 1000 Ang^3
#
#
#
# Elastic Constant Matrix: (Units=GPa)
#
#
# Indices 1 2 3 4 5 6 
#
# 1 119.0793 71.6401 -2.5526 0.0000 0.0000 0.0000
# 2 71.6401 162.6683 1.4974 0.0000 0.0000 0.0000
# 3 -2.5526 1.4974 28.9596 0.0000 0.0000 0.0000
# 4 0.0000 0.0000 0.0000 14.9622 0.0000 0.0000
# 5 0.0000 0.0000 0.0000 0.0000 16.8638 0.0000
# 6 0.0000 0.0000 0.0000 0.0000 0.0000 117.2322
#
#
#
# Elastic Compliance Matrix: (Units=1/GPa)
#
#
# Indices 1 2 3 4 5 6 
#
# 1 0.011472 -0.005064 0.001273 0.000000 0.000000 0.000000
# 2 -0.005064 0.008386 -0.000880 0.000000 0.000000 0.000000
# 3 0.001273 -0.000880 0.034689 0.000000 0.000000 0.000000
# 4 0.000000 0.000000 0.000000 0.066835 0.000000 0.000000
# 5 0.000000 0.000000 0.000000 0.000000 0.059299 0.000000
# 6 0.000000 0.000000 0.000000 0.000000 0.000000 0.008530
#
#
# Mechanical properties :
#
#
# Convention : Reuss Voigt Hill
#
# Bulk Modulus (GPa) = 22.12186 50.20857 36.16522
# Shear Modulus (GPa) = 23.40611 45.81979 34.61295
#
# Velocity S-wave (km/s) = 3.36411 4.70687 4.09096
# Velocity P-wave (km/s) = 5.07799 7.33595 6.30881
#
# Compressibility (1/GPa) = 0.04520415
#
# Stress axis : x y z
#
# Youngs Moduli (GPa) = 87.17213 119.25009 28.82798
#
# Poissons Ratio (x) = 0.60387 -0.03670
# Poissons Ratio (y) = 0.44143 0.02537
# Poissons Ratio (z) = -0.11097 0.10493
#
# Static dielectric constant tensor:
#      x y z
#    x 1.774050 0.000000 0.000000 
#    y 0.000000 1.741750 0.000000 
#    z 0.000000 0.000000 1.763870 
# 
# From -- ./inp_files/8150.got.cif
#   From: 2010.05.17/outbox.cif.g08.bks.cpg/sg63_5_cif.got.tgz:8150.got - 2010.06.03 15:47:04.
