data_PCOD9471888
_publ_section_title
;
Structure prediction by ZEFSAII (Michael W. Deem and Ramdas Pophale) SiO2 
 PCOD9471888
Probable space group: C M C M
;
_chemical_formula_sum "Si O2"
_cell_formula_units_Z 80
_cell_length_a 14.181264
_cell_length_b 22.617086
_cell_length_c 13.154693
_cell_angle_alpha 90.000000
_cell_angle_beta 90.000000
_cell_angle_gamma 90.000000
_cell_volume 4219.221335
_symmetry_space_group_name_H-M "C M C M"
_symmetry_group_IT_number 63
_symmetry_cell_setting 'orthorhombic'
loop_
_space_group_symop_operation_xyz
x,y,z
-x,-y,1/2+z
x,-y,-z
-x,y,1/2-z
-x,-y,-z
x,y,1/2-z
-x,y,z
x,-y,1/2+z
1/2+x,1/2+y,z
1/2-x,1/2-y,1/2+z
1/2+x,1/2-y,-z
1/2-x,1/2+y,1/2-z
1/2-x,1/2-y,-z
1/2+x,1/2+y,1/2-z
1/2-x,1/2+y,z
1/2+x,1/2-y,1/2+z
loop_
_atom_site_type_symbol
_atom_site_label
_atom_site_fract_x
_atom_site_fract_y
_atom_site_fract_z
Si Si1 0.610721 0.463579 0.635288
Si Si2 0.807777 0.083327 0.929761
Si Si3 0.105233 0.567249 0.538437
Si Si4 0.608835 0.707420 0.627109
Si Si5 0.613176 0.836432 0.864238
O O1 0.631942 0.444045 0.750000
O O2 0.500000 0.452466 0.614162
O O3 0.673693 0.433462 0.548239
O O4 0.629619 0.533976 0.626862
O O5 0.699499 0.074172 0.896416
O O6 0.837320 0.150158 0.911124
O O7 0.103818 0.500000 0.500000
O O8 0.123743 0.611448 0.444236
O O9 0.000000 0.580210 0.580298
O O10 0.608928 0.706734 0.750000
O O11 0.500000 0.702482 0.592551
O O12 0.648659 0.772228 0.598907
O O13 0.648434 0.849609 0.750000
O O14 0.500000 0.828286 0.855456
#
# Coordination Sequence:
#
# PCOD9471888 Si02
#       5
#    16  16  16  16  16
#     4  10  20  33  49  74 107 137 169 211 260 317
#     4  11  19  32  52  76 103 138 173 215 260 312
#     4  10  20  35  50  70 101 137 177 221 259 296
#     4   9  17  31  54  82 107 132 167 212 262 317
#     4   8  16  32  53  76 101 131 171 218 262 304
#
# _framework density 18.960844999999999
#
# number of rings (size 3 to 8) (size 9 to 14) (size 15 to 20)
#    0.000    2.400    2.000    4.200    0.000    3.200 
#    0.000    0.000    0.000    2.400    0.000    1.400 
#    0.000   16.000    0.000    0.000    0.000    0.000 
#
# Total GULP energy -222835.032792 kJ/mol
# GULP energy per Si atom -5570.875820 kJ/mol
# Density = 1.891769 g / cm^3
# Si number density = 18.960845 Si / 1000 Ang^3
#
#
#
# Elastic Constant Matrix: (Units=GPa)
#
#
# Indices 1 2 3 4 5 6 
#
# 1 89.6560 14.3158 5.0839 0.0000 0.0000 0.0000
# 2 14.3158 125.9703 12.3053 0.0000 0.0000 0.0000
# 3 5.0839 12.3053 37.1972 0.0000 0.0000 0.0000
# 4 0.0000 0.0000 0.0000 -0.2631 0.0000 0.0000
# 5 0.0000 0.0000 0.0000 0.0000 5.0272 0.0000
# 6 0.0000 0.0000 0.0000 0.0000 0.0000 -100.1233
#
#
#
# Elastic Compliance Matrix: (Units=1/GPa)
#
#
# Indices 1 2 3 4 5 6 
#
# 1 0.011409 -0.001182 -0.001168 0.000000 0.000000 0.000000
# 2 -0.001182 0.008326 -0.002593 0.000000 0.000000 0.000000
# 3 -0.001168 -0.002593 0.027901 0.000000 0.000000 0.000000
# 4 0.000000 0.000000 0.000000 -3.800956 0.000000 0.000000
# 5 0.000000 0.000000 0.000000 0.000000 0.198918 0.000000
# 6 0.000000 0.000000 0.000000 0.000000 0.000000 -0.009988
#
#
# Mechanical properties :
#
#
# Convention : Reuss Voigt Hill
#
# Bulk Modulus (GPa) = 26.49057 35.13707 30.81382
# Shear Modulus (GPa) = -1.41166 -4.33060 -2.87113
#
# Velocity S-wave (km/s) = -0.86379 -1.51292 -1.23188
# Velocity P-wave (km/s) = 3.60648 3.93951 3.77666
#
# Compressibility (1/GPa) = 0.03774928
#
# Stress axis : x y z
#
# Youngs Moduli (GPa) = 87.65170 120.10533 35.84089
#
# Poissons Ratio (x) = 0.14202 0.04187
# Poissons Ratio (y) = 0.10364 0.09293
# Poissons Ratio (z) = 0.10239 0.31140
#
# Static dielectric constant tensor:
#      x y z
#    x 1.681200 0.000000 0.000000 
#    y 0.000000 1.664350 0.000000 
#    z 0.000000 0.000000 1.683550 
# 
# From -- ./inp_files/31676.got.cif
#   From: 2010.05.17/outbox.cif.g08.bks.cpg/sg63_16_cif.got.tgz:31676.got - 2010.06.03 15:47:04.
