data_PCOD9471476
_publ_section_title
;
Structure prediction by ZEFSAII (Michael W. Deem and Ramdas Pophale) SiO2 
 PCOD9471476
Probable space group: C M C M
;
_chemical_formula_sum "Si O2"
_cell_formula_units_Z 96
_cell_length_a 20.952876
_cell_length_b 14.848178
_cell_length_c 16.331484
_cell_angle_alpha 90.000000
_cell_angle_beta 90.000000
_cell_angle_gamma 90.000000
_cell_volume 5080.921180
_symmetry_space_group_name_H-M "C M C M"
_symmetry_group_IT_number 63
_symmetry_cell_setting 'orthorhombic'
loop_
_space_group_symop_operation_xyz
x,y,z
-x,-y,1/2+z
x,-y,-z
-x,y,1/2-z
-x,-y,-z
x,y,1/2-z
-x,y,z
x,-y,1/2+z
1/2+x,1/2+y,z
1/2-x,1/2-y,1/2+z
1/2+x,1/2-y,-z
1/2-x,1/2+y,1/2-z
1/2-x,1/2-y,-z
1/2+x,1/2+y,1/2-z
1/2-x,1/2+y,z
1/2+x,1/2-y,1/2+z
loop_
_atom_site_type_symbol
_atom_site_label
_atom_site_fract_x
_atom_site_fract_y
_atom_site_fract_z
Si Si1 0.724106 0.466493 0.849886
Si Si2 0.871520 0.482959 0.844127
Si Si3 0.427581 0.795817 0.892552
Si Si4 0.182309 0.839897 0.150753
Si Si5 0.190420 0.232115 0.151235
Si Si6 0.928381 0.342125 0.083977
O O1 0.723509 0.464755 0.750000
O O2 0.798403 0.475736 0.873358
O O3 0.687360 0.556341 0.876148
O O4 0.696756 0.370922 0.878164
O O5 0.870490 0.515997 0.750000
O O6 0.901778 0.384227 0.846702
O O7 0.910326 0.554817 0.896618
O O8 0.500000 0.774571 0.867413
O O9 0.379080 0.714195 0.878883
O O10 0.427634 0.823236 0.987643
O O11 0.181544 0.838446 0.250000
O O12 0.246909 0.787946 0.124451
O O13 0.191480 0.231440 0.250000
O O14 0.126396 0.280720 0.123121
O O15 0.000000 0.323655 0.115161
#
# Coordination Sequence:
#
# PCOD9471476 Si02
#       6
#    16  16  16  16  16  16
#     4   9  18  34  57  88 116 138 179 241 288 325
#     4  11  20  36  61  87 115 147 187 235 288 342
#     4  11  24  39  54  81 121 156 189 233 284 340
#     4  10  19  36  61  85 112 147 190 237 283 336
#     4  10  19  36  61  85 112 147 190 237 283 336
#     4  11  24  39  54  81 121 156 189 233 284 340
#
# _framework density 18.894213000000001
#
# number of rings (size 3 to 8) (size 9 to 14) (size 15 to 20)
#    0.000    1.667    3.333    2.000    0.000    5.333 
#    0.000    1.667    0.000    5.000    0.000    0.000 
#    0.000    0.000    0.000    0.000    0.000    0.000 
#
# Total GULP energy -268162.354316 kJ/mol
# GULP energy per Si atom -5586.715715 kJ/mol
# Density = 1.885121 g / cm^3
# Si number density = 18.894213 Si / 1000 Ang^3
#
#
#
# Elastic Constant Matrix: (Units=GPa)
#
#
# Indices 1 2 3 4 5 6 
#
# 1 137.9096 58.7137 6.6314 0.0000 0.0000 0.0000
# 2 58.7137 126.5926 7.2493 0.0000 0.0000 0.0000
# 3 6.6314 7.2493 10.3860 0.0000 0.0000 0.0000
# 4 0.0000 0.0000 0.0000 16.2582 0.0000 0.0000
# 5 0.0000 0.0000 0.0000 0.0000 18.6418 0.0000
# 6 0.0000 0.0000 0.0000 0.0000 0.0000 8.2589
#
#
#
# Elastic Compliance Matrix: (Units=1/GPa)
#
#
# Indices 1 2 3 4 5 6 
#
# 1 0.009124 -0.004060 -0.002991 0.000000 0.000000 0.000000
# 2 -0.004060 0.010035 -0.004412 0.000000 0.000000 0.000000
# 3 -0.002991 -0.004412 0.101273 0.000000 0.000000 0.000000
# 4 0.000000 0.000000 0.000000 0.061507 0.000000 0.000000
# 5 0.000000 0.000000 0.000000 0.000000 0.053643 0.000000
# 6 0.000000 0.000000 0.000000 0.000000 0.000000 0.121081
#
#
# Mechanical properties :
#
#
# Convention : Reuss Voigt Hill
#
# Bulk Modulus (GPa) = 10.25598 46.67524 28.46561
# Shear Modulus (GPa) = 12.13324 22.11805 17.12565
#
# Velocity S-wave (km/s) = 2.53685 3.42515 3.01391
# Velocity P-wave (km/s) = 3.74442 6.35605 5.21632
#
# Compressibility (1/GPa) = 0.09750410
#
# Stress axis : x y z
#
# Youngs Moduli (GPa) = 109.60638 99.64990 9.87435
#
# Poissons Ratio (x) = 0.40460 0.02954
# Poissons Ratio (y) = 0.44502 0.04357
# Poissons Ratio (z) = 0.32787 0.43966
#
# Static dielectric constant tensor:
#      x y z
#    x 1.629410 0.000000 0.000000 
#    y 0.000000 1.643720 0.000000 
#    z 0.000000 0.000000 1.680770 
# 
# From -- ./inp_files/35303.got.cif
#   From: 2010.05.17/outbox.cif.g08.bks.cpg/sg63_18_cif.got.tgz:35303.got - 2010.06.03 15:47:04.
