data_PCOD9471532
_publ_section_title
;
Structure prediction by ZEFSAII (Michael W. Deem and Ramdas Pophale) SiO2 
 PCOD9471532
Probable space group: C M C M
;
_chemical_formula_sum "Si O2"
_cell_formula_units_Z 100
_cell_length_a 7.658006
_cell_length_b 23.254178
_cell_length_c 27.858923
_cell_angle_alpha 90.000000
_cell_angle_beta 90.000000
_cell_angle_gamma 90.000000
_cell_volume 4961.134688
_symmetry_space_group_name_H-M "C M C M"
_symmetry_group_IT_number 63
_symmetry_cell_setting 'orthorhombic'
loop_
_space_group_symop_operation_xyz
x,y,z
-x,-y,1/2+z
x,-y,-z
-x,y,1/2-z
-x,-y,-z
x,y,1/2-z
-x,y,z
x,-y,1/2+z
1/2+x,1/2+y,z
1/2-x,1/2-y,1/2+z
1/2+x,1/2-y,-z
1/2-x,1/2+y,1/2-z
1/2-x,1/2-y,-z
1/2+x,1/2+y,1/2-z
1/2-x,1/2+y,z
1/2+x,1/2-y,1/2+z
loop_
_atom_site_type_symbol
_atom_site_label
_atom_site_fract_x
_atom_site_fract_y
_atom_site_fract_z
Si Si1 0.791926 0.314357 0.516009
Si Si2 0.500000 0.856445 0.250000
Si Si3 0.804751 0.823391 0.176815
Si Si4 0.790131 0.994345 0.554698
Si Si5 0.287138 0.308715 0.695081
Si Si6 0.297462 0.381485 0.607385
Si Si7 0.291976 0.879110 0.078248
O O1 0.750000 0.250000 0.500000
O O2 0.711265 0.332732 0.566446
O O3 0.728416 0.356222 0.473440
O O4 0.000000 0.320544 0.520920
O O5 0.653641 0.852009 0.208361
O O6 0.778644 0.754813 0.182032
O O7 0.785428 0.843147 0.121878
O O8 0.000000 0.838155 0.192971
O O9 0.720420 0.938814 0.583133
O O10 0.000000 0.987710 0.551211
O O11 0.722285 0.000000 0.500000
O O12 0.750224 0.053641 0.581447
O O13 0.238823 0.321834 0.750000
O O14 0.500000 0.305758 0.693075
O O15 0.223537 0.355053 0.656300
O O16 0.500000 0.394564 0.617851
O O17 0.500000 0.871029 0.079218
#
# Coordination Sequence:
#
# PCOD9471532 Si02
#       7
#    16   4  16  16  16  16  16
#     4  11  23  36  54  83 122 157 195 249 315 380
#     4  12  22  44  64  94 138 156 212 268 310 376
#     4  12  23  39  67  97 125 169 210 255 318 380
#     4  10  20  37  60  87 119 161 215 264 311 381
#     4  10  19  37  60  86 123 161 203 260 318 377
#     4  10  21  36  59  85 117 161 206 259 321 374
#     4  11  23  39  59  86 124 164 206 260 317 379
#
# _framework density 20.156677999999999
#
# number of rings (size 3 to 8) (size 9 to 14) (size 15 to 20)
#    0.000    1.280    4.000    2.160    0.000    7.360 
#    0.000    0.000    1.760    0.000    0.000    0.000 
#    0.000    0.000    0.000    0.000    0.000    0.000 
#
# Total GULP energy -278896.203782 kJ/mol
# GULP energy per Si atom -5577.924076 kJ/mol
# Density = 2.011080 g / cm^3
# Si number density = 20.156678 Si / 1000 Ang^3
#
#
#
# Elastic Constant Matrix: (Units=GPa)
#
#
# Indices 1 2 3 4 5 6 
#
# 1 85.1709 -3.9047 16.4900 0.0000 0.0000 0.0000
# 2 -3.9047 96.5607 58.0940 0.0000 0.0000 0.0000
# 3 16.4900 58.0940 163.1242 0.0000 0.0000 0.0000
# 4 0.0000 0.0000 0.0000 11.1896 0.0000 0.0000
# 5 0.0000 0.0000 0.0000 0.0000 9.4777 0.0000
# 6 0.0000 0.0000 0.0000 0.0000 0.0000 14.5944
#
#
#
# Elastic Compliance Matrix: (Units=1/GPa)
#
#
# Indices 1 2 3 4 5 6 
#
# 1 0.012159 0.001567 -0.001787 0.000000 0.000000 0.000000
# 2 0.001567 0.013382 -0.004924 0.000000 0.000000 0.000000
# 3 -0.001787 -0.004924 0.008065 0.000000 0.000000 0.000000
# 4 0.000000 0.000000 0.000000 0.089369 0.000000 0.000000
# 5 0.000000 0.000000 0.000000 0.000000 0.105510 0.000000
# 6 0.000000 0.000000 0.000000 0.000000 0.000000 0.068519
#
#
# Mechanical properties :
#
#
# Convention : Reuss Voigt Hill
#
# Bulk Modulus (GPa) = 42.88767 54.02382 48.45574
# Shear Modulus (GPa) = 15.86972 25.33079 20.60025
#
# Velocity S-wave (km/s) = 2.80896 3.54883 3.20035
# Velocity P-wave (km/s) = 5.64302 6.60700 6.14395
#
# Compressibility (1/GPa) = 0.02331673
#
# Stress axis : x y z
#
# Youngs Moduli (GPa) = 82.24402 74.72670 123.99824
#
# Poissons Ratio (x) = -0.11709 0.22160
# Poissons Ratio (y) = -0.12887 0.61059
# Poissons Ratio (z) = 0.14698 0.36797
#
# Static dielectric constant tensor:
#      x y z
#    x 1.747090 0.000000 0.000000 
#    y 0.000000 1.698600 0.000000 
#    z 0.000000 0.000000 1.823680 
# 
# From -- ./inp_files/71898.got.cif
#   From: 2010.05.17/outbox.cif.g08.bks.cpg/sg63_36_cif.got.tgz:71898.got - 2010.06.03 15:47:04.
