data_PCOD9471886
_publ_section_title
;
Structure prediction by ZEFSAII (Michael W. Deem and Ramdas Pophale) SiO2 
 PCOD9471886
Probable space group: C M C M
;
_chemical_formula_sum "Si O2"
_cell_formula_units_Z 96
_cell_length_a 12.771068
_cell_length_b 20.523931
_cell_length_c 21.040075
_cell_angle_alpha 90.000000
_cell_angle_beta 90.000000
_cell_angle_gamma 90.000000
_cell_volume 5514.867046
_symmetry_space_group_name_H-M "C M C M"
_symmetry_group_IT_number 63
_symmetry_cell_setting 'orthorhombic'
loop_
_space_group_symop_operation_xyz
x,y,z
-x,-y,1/2+z
x,-y,-z
-x,y,1/2-z
-x,-y,-z
x,y,1/2-z
-x,y,z
x,-y,1/2+z
1/2+x,1/2+y,z
1/2-x,1/2-y,1/2+z
1/2+x,1/2-y,-z
1/2-x,1/2+y,1/2-z
1/2-x,1/2-y,-z
1/2+x,1/2+y,1/2-z
1/2-x,1/2+y,z
1/2+x,1/2-y,1/2+z
loop_
_atom_site_type_symbol
_atom_site_label
_atom_site_fract_x
_atom_site_fract_y
_atom_site_fract_z
Si Si1 0.728332 0.295318 0.674913
Si Si2 0.623315 0.752118 0.569222
Si Si3 0.251228 0.359975 0.491658
Si Si4 0.285077 0.563514 0.117552
Si Si5 0.500000 0.706844 0.175635
Si Si6 0.880209 0.533056 0.929642
Si Si7 0.500000 0.451418 0.675885
O O1 0.732116 0.284636 0.750000
O O2 0.818754 0.260074 0.636475
O O3 0.735531 0.372834 0.660889
O O4 0.613060 0.273350 0.648875
O O5 0.500000 0.758050 0.573908
O O6 0.659224 0.684479 0.538203
O O7 0.671225 0.810593 0.526671
O O8 0.296458 0.407451 0.546259
O O9 0.186395 0.401724 0.440898
O O10 0.186567 0.515348 0.114463
O O11 0.391936 0.530066 0.141360
O O12 0.500000 0.725511 0.250000
O O13 0.500000 0.628003 0.173642
O O14 0.000000 0.543502 0.909047
O O15 0.884782 0.500000 0.000000
O O16 0.500000 0.470389 0.750000
#
# Coordination Sequence:
#
# PCOD9471886 Si02
#       7
#    16  16  16  16   8  16   8
#     4   9  17  31  51  76 101 130 171 214 256 300
#     4  10  20  33  49  74 105 135 168 211 258 307
#     4   9  19  34  48  74 102 137 170 205 252 306
#     4   9  17  29  51  78  99 130 166 208 259 305
#     4   7  12  26  46  67  93 121 158 206 245 287
#     4   9  17  32  51  72 101 132 161 198 247 309
#     4   9  16  28  47  73 103 129 161 208 255 303
#
# _framework density 17.407491
#
# number of rings (size 3 to 8) (size 9 to 14) (size 15 to 20)
#    0.000    3.000    0.000    2.000    1.167    4.333 
#   12.000    1.250    0.000    3.500    0.000    0.000 
#    0.000    0.000    0.000    0.000    0.000    0.000 
#
# Total GULP energy -267352.523430 kJ/mol
# GULP energy per Si atom -5569.844238 kJ/mol
# Density = 1.736787 g / cm^3
# Si number density = 17.407491 Si / 1000 Ang^3
#
#
#
# Elastic Constant Matrix: (Units=GPa)
#
#
# Indices 1 2 3 4 5 6 
#
# 1 143.3084 16.7857 48.8699 0.0000 0.0000 0.0000
# 2 16.7857 28.1242 13.4997 0.0000 0.0000 0.0000
# 3 48.8699 13.4997 52.2669 0.0000 0.0000 0.0000
# 4 0.0000 0.0000 0.0000 13.9483 0.0000 0.0000
# 5 0.0000 0.0000 0.0000 0.0000 23.0735 0.0000
# 6 0.0000 0.0000 0.0000 0.0000 0.0000 14.0515
#
#
#
# Elastic Compliance Matrix: (Units=1/GPa)
#
#
# Indices 1 2 3 4 5 6 
#
# 1 0.010319 -0.001744 -0.009198 0.000000 0.000000 0.000000
# 2 -0.001744 0.040883 -0.008929 0.000000 0.000000 0.000000
# 3 -0.009198 -0.008929 0.030039 0.000000 0.000000 0.000000
# 4 0.000000 0.000000 0.000000 0.071693 0.000000 0.000000
# 5 0.000000 0.000000 0.000000 0.000000 0.043340 0.000000
# 6 0.000000 0.000000 0.000000 0.000000 0.000000 0.071167
#
#
# Mechanical properties :
#
#
# Convention : Reuss Voigt Hill
#
# Bulk Modulus (GPa) = 24.09658 42.44556 33.27107
# Shear Modulus (GPa) = 15.57562 19.85096 17.71329
#
# Velocity S-wave (km/s) = 2.99451 3.38060 3.19339
# Velocity P-wave (km/s) = 5.08220 6.29876 5.72290
#
# Compressibility (1/GPa) = 0.04149967
#
# Stress axis : x y z
#
# Youngs Moduli (GPa) = 96.91123 24.45990 33.29036
#
# Poissons Ratio (x) = 0.04265 0.30619
# Poissons Ratio (y) = 0.16899 0.29725
# Poissons Ratio (z) = 0.89136 0.21840
#
# Static dielectric constant tensor:
#      x y z
#    x 1.602530 0.000000 0.000000 
#    y 0.000000 1.597240 0.000000 
#    z 0.000000 0.000000 1.599870 
# 
# From -- ./inp_files/61729.got.cif
#   From: 2010.05.17/outbox.cif.g08.bks.cpg/sg63_31_cif.got.tgz:61729.got - 2010.06.03 15:47:04.
