data_PCOD9471525
_publ_section_title
;
Structure prediction by ZEFSAII (Michael W. Deem and Ramdas Pophale) SiO2 
 PCOD9471525
Probable space group: C M C M
;
_chemical_formula_sum "Si O2"
_cell_formula_units_Z 116
_cell_length_a 30.122677
_cell_length_b 11.962995
_cell_length_c 18.293031
_cell_angle_alpha 90.000000
_cell_angle_beta 90.000000
_cell_angle_gamma 90.000000
_cell_volume 6592.029717
_symmetry_space_group_name_H-M "C M C M"
_symmetry_group_IT_number 63
_symmetry_cell_setting 'orthorhombic'
loop_
_space_group_symop_operation_xyz
x,y,z
-x,-y,1/2+z
x,-y,-z
-x,y,1/2-z
-x,-y,-z
x,y,1/2-z
-x,y,z
x,-y,1/2+z
1/2+x,1/2+y,z
1/2-x,1/2-y,1/2+z
1/2+x,1/2-y,-z
1/2-x,1/2+y,1/2-z
1/2-x,1/2-y,-z
1/2+x,1/2+y,1/2-z
1/2-x,1/2+y,z
1/2+x,1/2-y,1/2+z
loop_
_atom_site_type_symbol
_atom_site_label
_atom_site_fract_x
_atom_site_fract_y
_atom_site_fract_z
Si Si1 0.143141 0.743493 0.948968
Si Si2 0.420189 0.855970 0.930989
Si Si3 0.691387 0.347229 0.412182
Si Si4 0.000000 0.500000 0.500000
Si Si5 0.163555 0.377086 0.664836
Si Si6 0.789448 0.557346 0.580360
Si Si7 0.384441 0.477415 0.586122
Si Si8 0.947447 0.857924 0.165865
O O1 0.171933 0.649011 0.910613
O O2 0.123527 0.846279 0.903408
O O3 0.103684 0.687454 0.995306
O O4 0.176361 0.799695 0.008735
O O5 0.380221 0.907010 0.882606
O O6 0.435520 0.747360 0.885106
O O7 0.460677 0.935018 0.952064
O O8 0.678178 0.248355 0.357047
O O9 0.742202 0.382892 0.412235
O O10 0.660677 0.454598 0.398597
O O11 0.154678 0.385861 0.750000
O O12 0.202184 0.459865 0.638394
O O13 0.792842 0.500000 0.500000
O O14 0.395099 0.500000 0.500000
O O15 0.421834 0.534935 0.634737
O O16 0.934355 0.835511 0.250000
O O17 0.000000 0.875681 0.163394
#
# Coordination Sequence:
#
# PCOD9471525 Si02
#       8
#    16  16  16   4  16  16  16  16
#     4  10  20  37  60  90 120 153 199 253 314 361
#     4  11  20  39  59  90 121 152 198 257 311 368
#     4  10  21  33  61  88 119 155 207 260 298 355
#     4  12  24  36  66  98 120 144 208 268 306 358
#     4  11  24  41  59  83 126 171 204 250 314 377
#     4  12  21  36  62  90 121 164 214 257 306 359
#     4  10  19  37  58  90 119 149 200 253 310 355
#     4  11  22  38  61  89 117 156 201 248 314 386
#
# _framework density 17.597007999999999
#
# number of rings (size 3 to 8) (size 9 to 14) (size 15 to 20)
#    0.000    1.241    7.586    2.897    1.931    0.828 
#    1.241    0.690    0.000    0.000    0.000    0.000 
#    0.000    0.000    0.000    0.000    0.000    0.000 
#
# Total GULP energy -323242.886453 kJ/mol
# GULP energy per Si atom -5573.153215 kJ/mol
# Density = 1.755696 g / cm^3
# Si number density = 17.597008 Si / 1000 Ang^3
#
#
#
# Elastic Constant Matrix: (Units=GPa)
#
#
# Indices 1 2 3 4 5 6 
#
# 1 90.2838 31.6271 27.3867 0.0000 0.0000 0.0000
# 2 31.6271 46.8645 24.8033 0.0000 0.0000 0.0000
# 3 27.3867 24.8033 42.8953 0.0000 0.0000 0.0000
# 4 0.0000 0.0000 0.0000 12.2077 0.0000 0.0000
# 5 0.0000 0.0000 0.0000 0.0000 9.6106 0.0000
# 6 0.0000 0.0000 0.0000 0.0000 0.0000 30.1577
#
#
#
# Elastic Compliance Matrix: (Units=1/GPa)
#
#
# Indices 1 2 3 4 5 6 
#
# 1 0.015354 -0.007455 -0.005492 0.000000 0.000000 0.000000
# 2 -0.007455 0.034368 -0.015113 0.000000 0.000000 0.000000
# 3 -0.005492 -0.015113 0.035557 0.000000 0.000000 0.000000
# 4 0.000000 0.000000 0.000000 0.081915 0.000000 0.000000
# 5 0.000000 0.000000 0.000000 0.000000 0.104052 0.000000
# 6 0.000000 0.000000 0.000000 0.000000 0.000000 0.033159
#
#
# Mechanical properties :
#
#
# Convention : Reuss Voigt Hill
#
# Bulk Modulus (GPa) = 34.29400 38.63086 36.46243
# Shear Modulus (GPa) = 13.50460 16.81030 15.15745
#
# Velocity S-wave (km/s) = 2.77327 3.09414 2.93809
# Velocity P-wave (km/s) = 5.45761 5.89624 5.68116
#
# Compressibility (1/GPa) = 0.02915962
#
# Stress axis : x y z
#
# Youngs Moduli (GPa) = 65.13125 29.09716 28.12347
#
# Poissons Ratio (x) = 0.21692 0.15445
# Poissons Ratio (y) = 0.48555 0.42502
# Poissons Ratio (z) = 0.35770 0.43974
#
# Static dielectric constant tensor:
#      x y z
#    x 1.596690 0.000000 0.000000 
#    y 0.000000 1.615360 0.000000 
#    z 0.000000 0.000000 1.590190 
# 
# From -- ./inp_files/49599.got.cif
#   From: 2010.05.17/outbox.cif.g08.bks.cpg/sg63_25_cif.got.tgz:49599.got - 2010.06.03 15:47:04.
