data_PCOD9471913
_publ_section_title
;
Structure prediction by ZEFSAII (Michael W. Deem and Ramdas Pophale) SiO2 
 PCOD9471913
Probable space group: C M C M
;
_chemical_formula_sum "Si O2"
_cell_formula_units_Z 80
_cell_length_a 28.974924
_cell_length_b 18.019057
_cell_length_c 8.962425
_cell_angle_alpha 90.000000
_cell_angle_beta 90.000000
_cell_angle_gamma 90.000000
_cell_volume 4679.289326
_symmetry_space_group_name_H-M "C M C M"
_symmetry_group_IT_number 63
_symmetry_cell_setting 'orthorhombic'
loop_
_space_group_symop_operation_xyz
x,y,z
-x,-y,1/2+z
x,-y,-z
-x,y,1/2-z
-x,-y,-z
x,y,1/2-z
-x,y,z
x,-y,1/2+z
1/2+x,1/2+y,z
1/2-x,1/2-y,1/2+z
1/2+x,1/2-y,-z
1/2-x,1/2+y,1/2-z
1/2-x,1/2-y,-z
1/2+x,1/2+y,1/2-z
1/2-x,1/2+y,z
1/2+x,1/2-y,1/2+z
loop_
_atom_site_type_symbol
_atom_site_label
_atom_site_fract_x
_atom_site_fract_y
_atom_site_fract_z
Si Si1 0.858832 0.714316 0.071261
Si Si2 0.214949 0.809739 0.570628
Si Si3 0.709217 0.920592 0.928575
Si Si4 0.444112 0.574570 0.920005
Si Si5 0.946214 0.768179 0.927854
O O1 0.858317 0.719865 0.250000
O O2 0.828821 0.641673 0.027881
O O3 0.833289 0.786148 0.000784
O O4 0.910349 0.713980 0.008093
O O5 0.213180 0.802295 0.750000
O O6 0.250000 0.750000 0.500000
O O7 0.239995 0.887333 0.534368
O O8 0.706893 0.926771 0.750000
O O9 0.701247 0.000000 0.000000
O O10 0.427144 0.581080 0.750000
O O11 0.500000 0.568134 0.912684
O O12 0.426804 0.500000 0.000000
O O13 0.435487 0.648987 0.012705
O O14 0.940522 0.765471 0.750000
O O15 0.000000 0.752894 0.963054
#
# Coordination Sequence:
#
# PCOD9471913 Si02
#       5
#    16  16  16  16  16
#     4  10  20  34  52  76 103 134 172 211 255 305
#     4   9  17  31  50  74 101 129 162 200 245 299
#     4   9  19  33  52  78 105 132 164 203 250 305
#     4   9  16  27  44  65  90 121 157 200 248 295
#     4  10  20  33  50  73 100 134 177 220 261 306
#
# _framework density 17.096613000000001
#
# number of rings (size 3 to 8) (size 9 to 14) (size 15 to 20)
#    0.000    2.600    0.000    3.600    0.000    8.400 
#    0.000    1.000    0.000    3.000    0.000    0.000 
#    0.000    0.000    0.000    0.000    0.000    0.000 
#
# Total GULP energy -222847.946413 kJ/mol
# GULP energy per Si atom -5571.198660 kJ/mol
# Density = 1.705770 g / cm^3
# Si number density = 17.096613 Si / 1000 Ang^3
#
#
#
# Elastic Constant Matrix: (Units=GPa)
#
#
# Indices 1 2 3 4 5 6 
#
# 1 93.1564 48.7763 45.5781 0.0000 0.0000 0.0000
# 2 48.7763 96.4241 39.3348 0.0000 0.0000 0.0000
# 3 45.5781 39.3348 70.1413 0.0000 0.0000 0.0000
# 4 0.0000 0.0000 0.0000 28.9561 0.0000 0.0000
# 5 0.0000 0.0000 0.0000 0.0000 27.7979 0.0000
# 6 0.0000 0.0000 0.0000 0.0000 0.0000 16.2170
#
#
#
# Elastic Compliance Matrix: (Units=1/GPa)
#
#
# Indices 1 2 3 4 5 6 
#
# 1 0.017765 -0.005546 -0.008433 0.000000 0.000000 0.000000
# 2 -0.005546 0.015179 -0.004908 0.000000 0.000000 0.000000
# 3 -0.008433 -0.004908 0.022489 0.000000 0.000000 0.000000
# 4 0.000000 0.000000 0.000000 0.034535 0.000000 0.000000
# 5 0.000000 0.000000 0.000000 0.000000 0.035974 0.000000
# 6 0.000000 0.000000 0.000000 0.000000 0.000000 0.061663
#
#
# Mechanical properties :
#
#
# Convention : Reuss Voigt Hill
#
# Bulk Modulus (GPa) = 56.63325 58.56670 57.59997
# Shear Modulus (GPa) = 21.62012 22.99639 22.30825
#
# Velocity S-wave (km/s) = 3.55996 3.67152 3.61617
# Velocity P-wave (km/s) = 7.07779 7.23216 7.15539
#
# Compressibility (1/GPa) = 0.01765747
#
# Stress axis : x y z
#
# Youngs Moduli (GPa) = 56.29159 65.88242 44.46524
#
# Poissons Ratio (x) = 0.36538 0.37499
# Poissons Ratio (y) = 0.31219 0.21825
# Poissons Ratio (z) = 0.47473 0.32337
#
# Static dielectric constant tensor:
#      x y z
#    x 1.662100 0.000000 0.000000 
#    y 0.000000 1.570750 0.000000 
#    z 0.000000 0.000000 1.570740 
# 
# From -- ./inp_files/14032.got.cif
#   From: 2010.05.17/outbox.cif.g08.bks.cpg/sg63_8_cif.got.tgz:14032.got - 2010.06.03 15:47:04.
