data_PCOD9471200
_publ_section_title
;
Structure prediction by ZEFSAII (Michael W. Deem and Ramdas Pophale) SiO2 
 PCOD9471200
Probable space group: C M C M
;
_chemical_formula_sum "Si O2"
_cell_formula_units_Z 64
_cell_length_a 19.811305
_cell_length_b 12.563675
_cell_length_c 10.018343
_cell_angle_alpha 90.000000
_cell_angle_beta 90.000000
_cell_angle_gamma 90.000000
_cell_volume 2493.593597
_symmetry_space_group_name_H-M "C M C M"
_symmetry_group_IT_number 63
_symmetry_cell_setting 'orthorhombic'
loop_
_space_group_symop_operation_xyz
x,y,z
-x,-y,1/2+z
x,-y,-z
-x,y,1/2-z
-x,-y,-z
x,y,1/2-z
-x,y,z
x,-y,1/2+z
1/2+x,1/2+y,z
1/2-x,1/2-y,1/2+z
1/2+x,1/2-y,-z
1/2-x,1/2+y,1/2-z
1/2-x,1/2-y,-z
1/2+x,1/2+y,1/2-z
1/2-x,1/2+y,z
1/2+x,1/2-y,1/2+z
loop_
_atom_site_type_symbol
_atom_site_label
_atom_site_fract_x
_atom_site_fract_y
_atom_site_fract_z
Si Si1 0.077927 0.409172 0.579003
Si Si2 0.735396 0.885794 0.250000
Si Si3 0.323832 0.599137 0.250000
Si Si4 0.421292 0.076033 0.750000
Si Si5 0.834309 0.204777 0.537608
Si Si6 0.921679 0.916463 0.250000
O O1 0.084362 0.433067 0.750000
O O2 0.078762 0.451294 0.414295
O O3 0.138776 0.324052 0.561544
O O4 0.000000 0.366208 0.581213
O O5 0.655446 0.878114 0.250000
O O6 0.768299 0.829050 0.378389
O O7 0.764165 0.008290 0.250000
O O8 0.325112 0.663816 0.387599
O O9 0.393586 0.534815 0.250000
O O10 0.500000 0.122655 0.750000
O O11 0.890967 0.137561 0.617857
O O12 0.000000 0.907868 0.250000
#
# Coordination Sequence:
#
# PCOD9471200 Si02
#       6
#    16   8   8   8  16   8
#     4  10  22  41  66  99 143 194 247 302 358 425
#     4  10  21  42  71 102 141 188 243 307 372 448
#     4  10  22  38  61  99 147 193 240 304 370 436
#     4  10  22  44  72  99 134 182 236 301 377 451
#     4  10  21  40  66 100 142 194 247 299 367 441
#     4  10  19  34  60  94 138 195 253 308 365 429
#
# _framework density 25.665769000000001
#
# number of rings (size 3 to 8) (size 9 to 14) (size 15 to 20)
#    0.000    2.250    0.000    5.250    0.000    7.000 
#    0.000    8.750    0.000    1.500    0.000    1.750 
#    0.000    9.000    0.000    2.250    0.000    0.000 
#
# Total GULP energy -178876.019880 kJ/mol
# GULP energy per Si atom -5589.875621 kJ/mol
# Density = 2.560735 g / cm^3
# Si number density = 25.665769 Si / 1000 Ang^3
#
#
#
# Elastic Constant Matrix: (Units=GPa)
#
#
# Indices 1 2 3 4 5 6 
#
# 1 257.7595 83.3905 77.8662 0.0000 0.0000 0.0000
# 2 83.3905 122.6096 85.0804 0.0000 0.0000 0.0000
# 3 77.8662 85.0804 299.7117 0.0000 0.0000 0.0000
# 4 0.0000 0.0000 0.0000 44.0464 0.0000 0.0000
# 5 0.0000 0.0000 0.0000 0.0000 25.0138 0.0000
# 6 0.0000 0.0000 0.0000 0.0000 0.0000 25.7660
#
#
#
# Elastic Compliance Matrix: (Units=1/GPa)
#
#
# Indices 1 2 3 4 5 6 
#
# 1 0.005016 -0.003122 -0.000417 0.000000 0.000000 0.000000
# 2 -0.003122 0.012100 -0.002624 0.000000 0.000000 0.000000
# 3 -0.000417 -0.002624 0.004190 0.000000 0.000000 0.000000
# 4 0.000000 0.000000 0.000000 0.022703 0.000000 0.000000
# 5 0.000000 0.000000 0.000000 0.000000 0.039978 0.000000
# 6 0.000000 0.000000 0.000000 0.000000 0.000000 0.038811
#
#
# Mechanical properties :
#
#
# Convention : Reuss Voigt Hill
#
# Bulk Modulus (GPa) = 111.35797 130.30610 120.83203
# Shear Modulus (GPa) = 36.20152 47.88149 42.04151
#
# Velocity S-wave (km/s) = 3.75973 4.32392 4.05166
# Velocity P-wave (km/s) = 7.89490 8.70683 8.31079
#
# Compressibility (1/GPa) = 0.00898005
#
# Stress axis : x y z
#
# Youngs Moduli (GPa) = 199.38098 82.64463 238.68358
#
# Poissons Ratio (x) = 0.25802 0.09948
# Poissons Ratio (y) = 0.62247 0.62625
# Poissons Ratio (z) = 0.08310 0.21684
#
# Static dielectric constant tensor:
#      x y z
#    x 1.919690 0.000000 0.000000 
#    y 0.000000 2.078600 0.000000 
#    z 0.000000 0.000000 2.102400 
# 
# From -- ./inp_files/7774.got.cif
#   From: 2010.05.17/outbox.cif.g08.bks.cpg/sg63_4_cif.got.tgz:7774.got - 2010.06.03 15:47:04.
