data_PCOD9471588
_publ_section_title
;
Structure prediction by ZEFSAII (Michael W. Deem and Ramdas Pophale) SiO2 
 PCOD9471588
Probable space group: C M C M
;
_chemical_formula_sum "Si O2"
_cell_formula_units_Z 64
_cell_length_a 13.922293
_cell_length_b 10.301918
_cell_length_c 22.695895
_cell_angle_alpha 90.000000
_cell_angle_beta 90.000000
_cell_angle_gamma 90.000000
_cell_volume 3255.188718
_symmetry_space_group_name_H-M "C M C M"
_symmetry_group_IT_number 63
_symmetry_cell_setting 'orthorhombic'
loop_
_space_group_symop_operation_xyz
x,y,z
-x,-y,1/2+z
x,-y,-z
-x,y,1/2-z
-x,-y,-z
x,y,1/2-z
-x,y,z
x,-y,1/2+z
1/2+x,1/2+y,z
1/2-x,1/2-y,1/2+z
1/2+x,1/2-y,-z
1/2-x,1/2+y,1/2-z
1/2-x,1/2-y,-z
1/2+x,1/2+y,1/2-z
1/2-x,1/2+y,z
1/2+x,1/2-y,1/2+z
loop_
_atom_site_type_symbol
_atom_site_label
_atom_site_fract_x
_atom_site_fract_y
_atom_site_fract_z
Si Si1 0.500000 0.038463 0.931679
Si Si2 0.166173 0.000000 0.000000
Si Si3 0.000000 0.846296 0.943374
Si Si4 0.787852 0.255278 0.316230
Si Si5 0.791855 0.486824 0.614593
Si Si6 0.500000 0.356270 0.685375
O O1 0.500000 0.194765 0.929757
O O2 0.596099 0.986947 0.901180
O O3 0.500000 0.000000 0.000000
O O4 0.233288 0.024593 0.944102
O O5 0.093731 0.885665 0.980369
O O6 0.000000 0.921594 0.879844
O O7 0.750779 0.236282 0.250000
O O8 0.771836 0.400759 0.338060
O O9 0.742487 0.150602 0.360298
O O10 0.902096 0.226203 0.315154
O O11 0.500000 0.426492 0.750000
#
# Coordination Sequence:
#
# PCOD9471588 Si02
#       6
#     8   8   8  16  16   8
#     4  12  25  37  60  93 133 164 198 250 318 387
#     4  11  24  37  68  92 128 161 208 265 310 376
#     4  11  22  44  58  94 125 165 206 247 318 379
#     4  11  24  42  66  91 123 165 216 261 309 372
#     4  12  23  42  64  94 128 167 209 257 319 374
#     4  10  19  39  64  85 116 165 210 247 299 376
#
# _framework density 19.660919
#
# number of rings (size 3 to 8) (size 9 to 14) (size 15 to 20)
#    0.000    0.750    6.250    0.750    3.500    2.000 
#    0.000    3.125    0.000    0.000    0.000    0.000 
#    0.000    0.000    0.000    0.000    0.000    0.000 
#
# Total GULP energy -178708.708554 kJ/mol
# GULP energy per Si atom -5584.647142 kJ/mol
# Density = 1.961617 g / cm^3
# Si number density = 19.660919 Si / 1000 Ang^3
#
#
#
# Elastic Constant Matrix: (Units=GPa)
#
#
# Indices 1 2 3 4 5 6 
#
# 1 110.3186 18.1827 21.8032 0.0000 0.0000 0.0000
# 2 18.1827 48.1201 7.0636 0.0000 0.0000 0.0000
# 3 21.8032 7.0636 119.8068 0.0000 0.0000 0.0000
# 4 0.0000 0.0000 0.0000 32.0599 0.0000 0.0000
# 5 0.0000 0.0000 0.0000 0.0000 6.8271 0.0000
# 6 0.0000 0.0000 0.0000 0.0000 0.0000 3.8453
#
#
#
# Elastic Compliance Matrix: (Units=1/GPa)
#
#
# Indices 1 2 3 4 5 6 
#
# 1 0.009964 -0.003529 -0.001605 0.000000 0.000000 0.000000
# 2 -0.003529 0.022213 -0.000667 0.000000 0.000000 0.000000
# 3 -0.001605 -0.000667 0.008678 0.000000 0.000000 0.000000
# 4 0.000000 0.000000 0.000000 0.031192 0.000000 0.000000
# 5 0.000000 0.000000 0.000000 0.000000 0.146474 0.000000
# 6 0.000000 0.000000 0.000000 0.000000 0.000000 0.260057
#
#
# Mechanical properties :
#
#
# Convention : Reuss Voigt Hill
#
# Bulk Modulus (GPa) = 34.18665 41.37161 37.77913
# Shear Modulus (GPa) = 10.00138 23.95953 16.98045
#
# Velocity S-wave (km/s) = 2.25787 3.49469 2.94201
# Velocity P-wave (km/s) = 4.92170 6.11327 5.54956
#
# Compressibility (1/GPa) = 0.02925119
#
# Stress axis : x y z
#
# Youngs Moduli (GPa) = 100.36543 45.01897 115.23082
#
# Poissons Ratio (x) = 0.15888 0.18496
# Poissons Ratio (y) = 0.35421 0.07690
# Poissons Ratio (z) = 0.16110 0.03004
#
# Static dielectric constant tensor:
#      x y z
#    x 1.677440 0.000000 0.000000 
#    y 0.000000 1.655750 0.000000 
#    z 0.000000 0.000000 1.740670 
# 
# From -- ./inp_files/62413.got.cif
#   From: 2010.05.17/outbox.cif.g08.bks.cpg/sg63_32_cif.got.tgz:62413.got - 2010.06.03 15:47:04.
