data_PCOD9471305
_publ_section_title
;
Structure prediction by ZEFSAII (Michael W. Deem and Ramdas Pophale) SiO2 
 PCOD9471305
Probable space group: C M C M
;
_chemical_formula_sum "Si O2"
_cell_formula_units_Z 100
_cell_length_a 22.113432
_cell_length_b 25.760236
_cell_length_c 7.499676
_cell_angle_alpha 90.000000
_cell_angle_beta 90.000000
_cell_angle_gamma 90.000000
_cell_volume 4272.169637
_symmetry_space_group_name_H-M "C M C M"
_symmetry_group_IT_number 63
_symmetry_cell_setting 'orthorhombic'
loop_
_space_group_symop_operation_xyz
x,y,z
-x,-y,1/2+z
x,-y,-z
-x,y,1/2-z
-x,-y,-z
x,y,1/2-z
-x,y,z
x,-y,1/2+z
1/2+x,1/2+y,z
1/2-x,1/2-y,1/2+z
1/2+x,1/2-y,-z
1/2-x,1/2+y,1/2-z
1/2-x,1/2-y,-z
1/2+x,1/2+y,1/2-z
1/2-x,1/2+y,z
1/2+x,1/2-y,1/2+z
loop_
_atom_site_type_symbol
_atom_site_label
_atom_site_fract_x
_atom_site_fract_y
_atom_site_fract_z
Si Si1 0.568031 0.768129 0.967745
Si Si2 0.434465 0.648399 0.537066
Si Si3 0.276124 0.088213 0.467129
Si Si4 0.702420 0.796404 0.963573
Si Si5 0.151300 0.945730 0.957710
Si Si6 0.911021 0.440476 0.537597
Si Si7 0.500000 0.896450 0.250000
O O1 0.566467 0.771564 0.750000
O O2 0.500000 0.785894 0.028949
O O3 0.573943 0.707556 0.022557
O O4 0.632462 0.791400 0.027427
O O5 0.436609 0.652028 0.750000
O O6 0.500000 0.630260 0.471122
O O7 0.384655 0.606400 0.495339
O O8 0.275184 0.088472 0.250000
O O9 0.272599 0.148226 0.525471
O O10 0.218064 0.058312 0.540069
O O11 0.340681 0.064600 0.512696
O O12 0.697610 0.798101 0.750000
O O13 0.750000 0.750000 0.000000
O O14 0.160200 0.947282 0.750000
O O15 0.119595 0.000000 0.000000
O O16 0.930235 0.500000 0.500000
O O17 0.918800 0.429290 0.750000
O O18 0.948123 0.403217 0.408479
#
# Coordination Sequence:
#
# PCOD9471305 Si02
#       7
#    16  16  16  16  16  16   4
#     4   8  15  30  55  82 110 144 185 223 265 326
#     4   9  18  34  55  83 113 144 182 226 273 336
#     4   9  21  39  56  82 116 152 193 240 293 343
#     4  10  19  35  58  85 113 146 188 235 285 343
#     4  11  22  37  56  79 109 146 187 233 284 341
#     4  11  22  39  62  87 122 159 201 253 299 357
#     4  12  24  40  62  94 116 158 208 244 306 366
#
# _framework density 23.407309000000001
#
# number of rings (size 3 to 8) (size 9 to 14) (size 15 to 20)
#    0.000    2.240    0.800    3.360    0.000    0.640 
#    5.760    0.000    0.000    1.440    0.000    0.000 
#    0.000    0.000    0.000    0.000    0.000    0.000 
#
# Total GULP energy -278689.320121 kJ/mol
# GULP energy per Si atom -5573.786402 kJ/mol
# Density = 2.335403 g / cm^3
# Si number density = 23.407309 Si / 1000 Ang^3
#
#
#
# Elastic Constant Matrix: (Units=GPa)
#
#
# Indices 1 2 3 4 5 6 
#
# 1 96.9471 23.1716 3.9834 0.0000 0.0000 0.0000
# 2 23.1716 76.4472 -11.8175 0.0000 0.0000 0.0000
# 3 3.9834 -11.8175 91.7599 0.0000 0.0000 0.0000
# 4 0.0000 0.0000 0.0000 2.0642 0.0000 0.0000
# 5 0.0000 0.0000 0.0000 0.0000 18.2262 0.0000
# 6 0.0000 0.0000 0.0000 0.0000 0.0000 -104.4532
#
#
#
# Elastic Compliance Matrix: (Units=1/GPa)
#
#
# Indices 1 2 3 4 5 6 
#
# 1 0.011200 -0.003540 -0.000942 0.000000 0.000000 0.000000
# 2 -0.003540 0.014466 0.002017 0.000000 0.000000 0.000000
# 3 -0.000942 0.002017 0.011199 0.000000 0.000000 0.000000
# 4 0.000000 0.000000 0.000000 0.484460 0.000000 0.000000
# 5 0.000000 0.000000 0.000000 0.000000 0.054866 0.000000
# 6 0.000000 0.000000 0.000000 0.000000 0.000000 -0.009574
#
#
# Mechanical properties :
#
#
# Convention : Reuss Voigt Hill
#
# Bulk Modulus (GPa) = 31.31602 32.86994 32.09298
# Shear Modulus (GPa) = 8.58822 -0.17812 4.20505
#
# Velocity S-wave (km/s) = 1.91755 -0.27615 1.34178
# Velocity P-wave (km/s) = 4.27907 3.73783 4.01758
#
# Compressibility (1/GPa) = 0.03193254
#
# Stress axis : x y z
#
# Youngs Moduli (GPa) = 89.28726 69.12871 89.29669
#
# Poissons Ratio (x) = 0.24474 0.08413
# Poissons Ratio (y) = 0.31611 -0.18008
# Poissons Ratio (z) = 0.08412 -0.13941
#
# Static dielectric constant tensor:
#      x y z
#    x 1.698180 0.000000 0.000000 
#    y 0.000000 1.876520 0.000000 
#    z 0.000000 0.000000 1.876390 
# 
# From -- ./inp_files/8791.got.cif
#   From: 2010.05.17/outbox.cif.g08.bks.cpg/sg63_5_cif.got.tgz:8791.got - 2010.06.03 15:47:04.
