data_PCOD9471809
_publ_section_title
;
Structure prediction by ZEFSAII (Michael W. Deem and Ramdas Pophale) SiO2 
 PCOD9471809
Probable space group: C M C M
;
_chemical_formula_sum "Si O2"
_cell_formula_units_Z 116
_cell_length_a 27.325691
_cell_length_b 28.273262
_cell_length_c 9.074027
_cell_angle_alpha 90.000000
_cell_angle_beta 90.000000
_cell_angle_gamma 90.000000
_cell_volume 7010.470044
_symmetry_space_group_name_H-M "C M C M"
_symmetry_group_IT_number 63
_symmetry_cell_setting 'orthorhombic'
loop_
_space_group_symop_operation_xyz
x,y,z
-x,-y,1/2+z
x,-y,-z
-x,y,1/2-z
-x,-y,-z
x,y,1/2-z
-x,y,z
x,-y,1/2+z
1/2+x,1/2+y,z
1/2-x,1/2-y,1/2+z
1/2+x,1/2-y,-z
1/2-x,1/2+y,1/2-z
1/2-x,1/2-y,-z
1/2+x,1/2+y,1/2-z
1/2-x,1/2+y,z
1/2+x,1/2-y,1/2+z
loop_
_atom_site_type_symbol
_atom_site_label
_atom_site_fract_x
_atom_site_fract_y
_atom_site_fract_z
Si Si1 0.391133 0.857147 0.418091
Si Si2 0.500000 0.237300 0.250000
Si Si3 0.804752 0.302132 0.573546
Si Si4 0.946709 0.738254 0.548547
Si Si5 0.217040 0.141465 0.927096
Si Si6 0.881507 0.550059 0.424818
Si Si7 0.236240 0.449842 0.925558
Si Si8 0.346553 0.290525 0.579902
O O1 0.373248 0.865182 0.250000
O O2 0.348625 0.836427 0.522146
O O3 0.430381 0.814907 0.410826
O O4 0.406905 0.906346 0.491147
O O5 0.457530 0.237309 0.376454
O O6 0.799321 0.301805 0.750000
O O7 0.757287 0.322200 0.492010
O O8 0.819573 0.251407 0.508919
O O9 0.903041 0.774135 0.582552
O O10 0.000000 0.751049 0.608276
O O11 0.216650 0.141385 0.750000
O O12 0.234163 0.091339 0.992591
O O13 0.166590 0.161199 0.996082
O O14 0.893720 0.500000 0.500000
O O15 0.891694 0.549794 0.250000
O O16 0.822555 0.556999 0.443771
O O17 0.245920 0.449549 0.750000
O O18 0.247996 0.500000 0.000000
O O19 0.329602 0.292409 0.750000
#
# Coordination Sequence:
#
# PCOD9471809 Si02
#       8
#    16   4  16  16  16  16  16  16
#     4  11  21  32  52  76 103 132 173 214 257 310
#     4   8  20  36  58  80 102 128 166 216 252 320
#     4  11  21  33  49  70 102 138 175 212 254 303
#     4   9  21  36  58  76 103 130 168 208 261 306
#     4  12  23  34  51  73 104 141 176 213 256 304
#     4  10  20  32  51  72 100 133 171 218 262 307
#     4  10  20  35  52  73 102 139 179 219 258 302
#     4  11  23  36  52  74 105 136 172 213 256 307
#
# _framework density 16.546679000000001
#
# number of rings (size 3 to 8) (size 9 to 14) (size 15 to 20)
#    0.414    1.103    1.379    5.793    5.793    2.207 
#    0.000    0.000    0.000    0.414    0.000    0.000 
#    0.000    0.552    0.000    1.793    0.000    2.207 
#
# Total GULP energy -322908.037487 kJ/mol
# GULP energy per Si atom -5567.379957 kJ/mol
# Density = 1.650902 g / cm^3
# Si number density = 16.546679 Si / 1000 Ang^3
#
#
#
# Elastic Constant Matrix: (Units=GPa)
#
#
# Indices 1 2 3 4 5 6 
#
# 1 61.5044 25.0317 20.6572 0.0000 0.0000 0.0000
# 2 25.0317 30.0108 18.6275 0.0000 0.0000 0.0000
# 3 20.6572 18.6275 168.0446 0.0000 0.0000 0.0000
# 4 0.0000 0.0000 0.0000 31.5455 0.0000 0.0000
# 5 0.0000 0.0000 0.0000 0.0000 22.3917 0.0000
# 6 0.0000 0.0000 0.0000 0.0000 0.0000 6.2830
#
#
#
# Elastic Compliance Matrix: (Units=1/GPa)
#
#
# Indices 1 2 3 4 5 6 
#
# 1 0.024717 -0.020114 -0.000809 0.000000 0.000000 0.000000
# 2 -0.020114 0.052152 -0.003308 0.000000 0.000000 0.000000
# 3 -0.000809 -0.003308 0.006417 0.000000 0.000000 0.000000
# 4 0.000000 0.000000 0.000000 0.031700 0.000000 0.000000
# 5 0.000000 0.000000 0.000000 0.000000 0.044659 0.000000
# 6 0.000000 0.000000 0.000000 0.000000 0.000000 0.159159
#
#
# Mechanical properties :
#
#
# Convention : Reuss Voigt Hill
#
# Bulk Modulus (GPa) = 28.71655 43.13251 35.92453
# Shear Modulus (GPa) = 13.19697 25.06026 19.12862
#
# Velocity S-wave (km/s) = 2.82717 3.89590 3.40375
# Velocity P-wave (km/s) = 5.29620 6.80890 6.09963
#
# Compressibility (1/GPa) = 0.03482312
#
# Stress axis : x y z
#
# Youngs Moduli (GPa) = 40.45824 19.17481 155.83727
#
# Poissons Ratio (x) = 0.38568 0.12603
# Poissons Ratio (y) = 0.81378 0.51557
# Poissons Ratio (z) = 0.03272 0.06344
#
# Static dielectric constant tensor:
#      x y z
#    x 1.586370 0.000000 0.000000 
#    y 0.000000 1.577120 0.000000 
#    z 0.000000 0.000000 1.566140 
# 
# From -- ./inp_files/14936.got.cif
#   From: 2010.05.17/outbox.cif.g08.bks.cpg/sg63_8_cif.got.tgz:14936.got - 2010.06.03 15:47:04.
