data_PCOD9471599
_publ_section_title
;
Structure prediction by ZEFSAII (Michael W. Deem and Ramdas Pophale) SiO2 
 PCOD9471599
Probable space group: C M C M
;
_chemical_formula_sum "Si O2"
_cell_formula_units_Z 96
_cell_length_a 30.040181
_cell_length_b 27.669612
_cell_length_c 7.448428
_cell_angle_alpha 90.000000
_cell_angle_beta 90.000000
_cell_angle_gamma 90.000000
_cell_volume 6191.134491
_symmetry_space_group_name_H-M "C M C M"
_symmetry_group_IT_number 63
_symmetry_cell_setting 'orthorhombic'
loop_
_space_group_symop_operation_xyz
x,y,z
-x,-y,1/2+z
x,-y,-z
-x,y,1/2-z
-x,-y,-z
x,y,1/2-z
-x,y,z
x,-y,1/2+z
1/2+x,1/2+y,z
1/2-x,1/2-y,1/2+z
1/2+x,1/2-y,-z
1/2-x,1/2+y,1/2-z
1/2-x,1/2-y,-z
1/2+x,1/2+y,1/2-z
1/2-x,1/2+y,z
1/2+x,1/2-y,1/2+z
loop_
_atom_site_type_symbol
_atom_site_label
_atom_site_fract_x
_atom_site_fract_y
_atom_site_fract_z
Si Si1 0.950542 0.302969 0.532377
Si Si2 0.801254 0.354427 0.467277
Si Si3 0.951000 0.583178 0.960777
Si Si4 0.860661 0.259683 0.962340
Si Si5 0.644224 0.946192 0.464762
Si Si6 0.220047 0.202478 0.964763
O O1 0.949344 0.303126 0.750000
O O2 0.944894 0.358841 0.475789
O O3 0.909813 0.270403 0.465464
O O4 0.000000 0.287505 0.475939
O O5 0.799579 0.355765 0.250000
O O6 0.833483 0.309833 0.516300
O O7 0.823566 0.403812 0.532282
O O8 0.751387 0.340999 0.531372
O O9 0.952841 0.570914 0.750000
O O10 0.906248 0.559698 0.037260
O O11 0.000000 0.571244 0.037729
O O12 0.865407 0.250612 0.750000
O O13 0.828666 0.217263 0.035815
O O14 0.641343 0.939442 0.250000
O O15 0.660602 0.000000 0.500000
O O16 0.215849 0.196839 0.750000
O O17 0.250000 0.250000 0.000000
#
# Coordination Sequence:
#
# PCOD9471599 Si02
#       6
#    16  16  16  16  16  16
#     4   9  16  24  35  52  72  92 113 137 166 199
#     4   9  16  27  39  51  68  87 108 137 171 204
#     4   9  17  29  41  50  62  83 113 146 178 209
#     4   9  15  23  37  55  71  88 110 135 164 197
#     4  10  20  30  39  51  65  85 112 143 179 212
#     4   8  14  23  36  53  70  86 105 131 163 199
#
# _framework density 15.506043
#
# number of rings (size 3 to 8) (size 9 to 14) (size 15 to 20)
#    0.000    3.000    1.667    0.000    0.000    1.667 
#    0.000    0.000    0.000    0.000    0.000    0.000 
#    0.000    0.000    0.000    0.000    0.000    0.833 
#
# Total GULP energy -267269.868488 kJ/mol
# GULP energy per Si atom -5568.122260 kJ/mol
# Density = 1.547075 g / cm^3
# Si number density = 15.506043 Si / 1000 Ang^3
#
#
#
# Elastic Constant Matrix: (Units=GPa)
#
#
# Indices 1 2 3 4 5 6 
#
# 1 91.2411 47.1518 -5.3896 0.0000 0.0000 0.0000
# 2 47.1518 55.6251 -2.1827 0.0000 0.0000 0.0000
# 3 -5.3896 -2.1827 47.5714 0.0000 0.0000 0.0000
# 4 0.0000 0.0000 0.0000 10.0125 0.0000 0.0000
# 5 0.0000 0.0000 0.0000 0.0000 2.1275 0.0000
# 6 0.0000 0.0000 0.0000 0.0000 0.0000 16.1772
#
#
#
# Elastic Compliance Matrix: (Units=1/GPa)
#
#
# Indices 1 2 3 4 5 6 
#
# 1 0.019605 -0.016561 0.001461 0.000000 0.000000 0.000000
# 2 -0.016561 0.032000 -0.000408 0.000000 0.000000 0.000000
# 3 0.001461 -0.000408 0.021168 0.000000 0.000000 0.000000
# 4 0.000000 0.000000 0.000000 0.099876 0.000000 0.000000
# 5 0.000000 0.000000 0.000000 0.000000 0.470035 0.000000
# 6 0.000000 0.000000 0.000000 0.000000 0.000000 0.061815
#
#
# Mechanical properties :
#
#
# Convention : Reuss Voigt Hill
#
# Bulk Modulus (GPa) = 23.94823 30.39962 27.17392
# Shear Modulus (GPa) = 6.67171 15.98731 11.32951
#
# Velocity S-wave (km/s) = 2.07653 3.21446 2.70599
# Velocity P-wave (km/s) = 4.60731 5.78140 5.22742
#
# Compressibility (1/GPa) = 0.04175675
#
# Stress axis : x y z
#
# Youngs Moduli (GPa) = 51.00812 31.25025 47.24138
#
# Poissons Ratio (x) = 0.51754 -0.06903
# Poissons Ratio (y) = 0.84475 0.01928
# Poissons Ratio (z) = -0.07454 0.01275
#
# Static dielectric constant tensor:
#      x y z
#    x 1.578790 0.000000 0.000000 
#    y 0.000000 1.494260 0.000000 
#    z 0.000000 0.000000 1.566680 
# 
# From -- ./inp_files/25245.got.cif
#   From: 2010.05.17/outbox.cif.g08.bks.cpg/sg63_13_cif.got.tgz:25245.got - 2010.06.03 15:47:04.
