data_PCOD9471254
_publ_section_title
;
Structure prediction by ZEFSAII (Michael W. Deem and Ramdas Pophale) SiO2 
 PCOD9471254
Probable space group: C M C M
;
_chemical_formula_sum "Si O2"
_cell_formula_units_Z 80
_cell_length_a 26.785309
_cell_length_b 9.361531
_cell_length_c 15.060015
_cell_angle_alpha 90.000000
_cell_angle_beta 90.000000
_cell_angle_gamma 90.000000
_cell_volume 3776.321360
_symmetry_space_group_name_H-M "C M C M"
_symmetry_group_IT_number 63
_symmetry_cell_setting 'orthorhombic'
loop_
_space_group_symop_operation_xyz
x,y,z
-x,-y,1/2+z
x,-y,-z
-x,y,1/2-z
-x,-y,-z
x,y,1/2-z
-x,y,z
x,-y,1/2+z
1/2+x,1/2+y,z
1/2-x,1/2-y,1/2+z
1/2+x,1/2-y,-z
1/2-x,1/2+y,1/2-z
1/2-x,1/2-y,-z
1/2+x,1/2+y,1/2-z
1/2-x,1/2+y,z
1/2+x,1/2-y,1/2+z
loop_
_atom_site_type_symbol
_atom_site_label
_atom_site_fract_x
_atom_site_fract_y
_atom_site_fract_z
Si Si1 0.500000 0.916697 0.091862
Si Si2 0.207605 0.915923 0.147146
Si Si3 0.500000 0.424886 0.904521
Si Si4 0.609225 0.892328 0.353466
Si Si5 0.801786 0.403844 0.859158
Si Si6 0.108576 0.929029 0.596976
O O1 0.500000 0.745347 0.080352
O O2 0.447521 0.947903 0.139187
O O3 0.500000 0.000000 0.000000
O O4 0.221129 0.893078 0.250000
O O5 0.200540 0.758534 0.107338
O O6 0.253044 0.009326 0.110428
O O7 0.156103 0.002067 0.143442
O O8 0.446391 0.458837 0.861291
O O9 0.500000 0.500000 0.000000
O O10 0.619610 0.859002 0.250000
O O11 0.614180 0.742289 0.404621
O O12 0.648657 0.009880 0.384751
O O13 0.802417 0.399018 0.750000
O O14 0.108098 0.000000 0.500000
#
# Coordination Sequence:
#
# PCOD9471254 Si02
#       6
#     8  16   8  16  16  16
#     4  10  21  35  56  85 113 146 183 228 284 329
#     4  10  19  35  56  79 107 143 186 237 292 347
#     4   8  18  35  52  73 106 144 179 214 265 333
#     4  10  20  37  58  82 112 152 196 235 278 345
#     4   9  19  34  56  81 106 141 188 235 285 342
#     4  10  20  35  55  81 110 145 188 236 287 341
#
# _framework density 21.184636999999999
#
# number of rings (size 3 to 8) (size 9 to 14) (size 15 to 20)
#    0.000    2.400    0.000    2.100    0.000    8.000 
#    0.000    6.500    0.000    2.400    0.000    1.400 
#    0.000    0.000    0.000    0.000    0.000    0.000 
#
# Total GULP energy -223179.205696 kJ/mol
# GULP energy per Si atom -5579.480142 kJ/mol
# Density = 2.113642 g / cm^3
# Si number density = 21.184637 Si / 1000 Ang^3
#
#
#
# Elastic Constant Matrix: (Units=GPa)
#
#
# Indices 1 2 3 4 5 6 
#
# 1 192.0417 94.6431 -10.6274 0.0000 0.0000 0.0000
# 2 94.6431 106.2435 -3.3443 0.0000 0.0000 0.0000
# 3 -10.6274 -3.3443 33.4030 0.0000 0.0000 0.0000
# 4 0.0000 0.0000 0.0000 25.9740 0.0000 0.0000
# 5 0.0000 0.0000 0.0000 0.0000 58.6306 0.0000
# 6 0.0000 0.0000 0.0000 0.0000 0.0000 24.1614
#
#
#
# Elastic Compliance Matrix: (Units=1/GPa)
#
#
# Indices 1 2 3 4 5 6 
#
# 1 0.009436 -0.008338 0.002167 0.000000 0.000000 0.000000
# 2 -0.008338 0.016809 -0.000970 0.000000 0.000000 0.000000
# 3 0.002167 -0.000970 0.030530 0.000000 0.000000 0.000000
# 4 0.000000 0.000000 0.000000 0.038500 0.000000 0.000000
# 5 0.000000 0.000000 0.000000 0.000000 0.017056 0.000000
# 6 0.000000 0.000000 0.000000 0.000000 0.000000 0.041388
#
#
# Mechanical properties :
#
#
# Convention : Reuss Voigt Hill
#
# Bulk Modulus (GPa) = 23.53206 54.78124 39.15665
# Shear Modulus (GPa) = 27.44773 38.48765 32.96769
#
# Velocity S-wave (km/s) = 3.60341 4.26698 3.94916
# Velocity P-wave (km/s) = 5.33338 7.08458 6.27042
#
# Compressibility (1/GPa) = 0.04249522
#
# Stress axis : x y z
#
# Youngs Moduli (GPa) = 105.97558 59.49171 32.75475
#
# Poissons Ratio (x) = 0.49602 -0.07099
# Poissons Ratio (y) = 0.88358 0.03176
# Poissons Ratio (z) = -0.22969 0.05769
#
# Static dielectric constant tensor:
#      x y z
#    x 1.785070 0.000000 0.000000 
#    y 0.000000 1.729170 0.000000 
#    z 0.000000 0.000000 1.807020 
# 
# From -- ./inp_files/48864.got.cif
#   From: 2010.05.17/outbox.cif.g08.bks.cpg/sg63_25_cif.got.tgz:48864.got - 2010.06.03 15:47:04.
