data_PCOD9471019
_publ_section_title
;
Structure prediction by ZEFSAII (Michael W. Deem and Ramdas Pophale) SiO2 
 PCOD9471019
Probable space group: C M C M
;
_chemical_formula_sum "Si O2"
_cell_formula_units_Z 80
_cell_length_a 14.569975
_cell_length_b 19.588964
_cell_length_c 14.253770
_cell_angle_alpha 90.000000
_cell_angle_beta 90.000000
_cell_angle_gamma 90.000000
_cell_volume 4068.178698
_symmetry_space_group_name_H-M "C M C M"
_symmetry_group_IT_number 63
_symmetry_cell_setting 'orthorhombic'
loop_
_space_group_symop_operation_xyz
x,y,z
-x,-y,1/2+z
x,-y,-z
-x,y,1/2-z
-x,-y,-z
x,y,1/2-z
-x,y,z
x,-y,1/2+z
1/2+x,1/2+y,z
1/2-x,1/2-y,1/2+z
1/2+x,1/2-y,-z
1/2-x,1/2+y,1/2-z
1/2-x,1/2-y,-z
1/2+x,1/2+y,1/2-z
1/2-x,1/2+y,z
1/2+x,1/2-y,1/2+z
loop_
_atom_site_type_symbol
_atom_site_label
_atom_site_fract_x
_atom_site_fract_y
_atom_site_fract_z
Si Si1 0.701369 0.670903 0.454467
Si Si2 0.601874 0.202729 0.485420
Si Si3 0.706416 0.409301 0.356084
Si Si4 0.599815 0.055036 0.916566
Si Si5 0.103394 0.954639 0.637193
O O1 0.630485 0.733643 0.448400
O O2 0.804431 0.693018 0.425605
O O3 0.703620 0.648500 0.564523
O O4 0.668619 0.604340 0.400680
O O5 0.500000 0.215205 0.443909
O O6 0.595499 0.130846 0.539405
O O7 0.685180 0.386573 0.250000
O O8 0.807866 0.443139 0.357013
O O9 0.638246 0.469760 0.386763
O O10 0.500000 0.041376 0.871547
O O11 0.610917 0.000000 0.000000
O O12 0.103729 0.951672 0.750000
O O13 0.000000 0.943368 0.603012
#
# Coordination Sequence:
#
# PCOD9471019 Si02
#       5
#    16  16  16  16  16
#     4  10  19  34  55  75 105 143 171 211 265 306
#     4   9  18  32  52  79 105 134 176 216 256 312
#     4  10  20  33  51  78 108 139 176 210 248 305
#     4   9  17  32  55  78 102 135 173 215 262 308
#     4  10  21  36  55  79 103 131 173 219 261 311
#
# _framework density 19.664819000000001
#
# number of rings (size 3 to 8) (size 9 to 14) (size 15 to 20)
#    0.000    2.400    0.000    3.600    0.000    2.800 
#    0.000    9.000    0.000    9.000    0.000    2.800 
#    0.000    0.000    0.000    0.000    0.000    0.000 
#
# Total GULP energy -222744.409880 kJ/mol
# GULP energy per Si atom -5568.610247 kJ/mol
# Density = 1.962006 g / cm^3
# Si number density = 19.664819 Si / 1000 Ang^3
#
#
#
# Elastic Constant Matrix: (Units=GPa)
#
#
# Indices 1 2 3 4 5 6 
#
# 1 119.1859 28.9275 7.2695 0.0000 0.0000 0.0000
# 2 28.9275 88.2979 22.7606 0.0000 0.0000 0.0000
# 3 7.2695 22.7606 32.1609 0.0000 0.0000 0.0000
# 4 0.0000 0.0000 0.0000 8.0601 0.0000 0.0000
# 5 0.0000 0.0000 0.0000 0.0000 21.8081 0.0000
# 6 0.0000 0.0000 0.0000 0.0000 0.0000 49.8699
#
#
#
# Elastic Compliance Matrix: (Units=1/GPa)
#
#
# Indices 1 2 3 4 5 6 
#
# 1 0.009115 -0.003003 0.000065 0.000000 0.000000 0.000000
# 2 -0.003003 0.014842 -0.009825 0.000000 0.000000 0.000000
# 3 0.000065 -0.009825 0.038032 0.000000 0.000000 0.000000
# 4 0.000000 0.000000 0.000000 0.124067 0.000000 0.000000
# 5 0.000000 0.000000 0.000000 0.000000 0.045855 0.000000
# 6 0.000000 0.000000 0.000000 0.000000 0.000000 0.020052
#
#
# Mechanical properties :
#
#
# Convention : Reuss Voigt Hill
#
# Bulk Modulus (GPa) = 27.42499 39.72888 33.57694
# Shear Modulus (GPa) = 17.26262 27.99343 22.62803
#
# Velocity S-wave (km/s) = 2.96606 3.77706 3.39586
# Velocity P-wave (km/s) = 5.07016 6.26646 5.69978
#
# Compressibility (1/GPa) = 0.03646310
#
# Stress axis : x y z
#
# Youngs Moduli (GPa) = 109.70758 67.37796 26.29361
#
# Poissons Ratio (x) = 0.20233 -0.00171
# Poissons Ratio (y) = 0.32945 0.25833
# Poissons Ratio (z) = -0.00712 0.66197
#
# Static dielectric constant tensor:
#      x y z
#    x 1.763710 0.000000 0.000000 
#    y 0.000000 1.680470 0.000000 
#    z 0.000000 0.000000 1.698170 
# 
# From -- ./inp_files/31680.got.cif
#   From: 2010.05.17/outbox.cif.g08.bks.cpg/sg63_16_cif.got.tgz:31680.got - 2010.06.03 15:47:04.
