data_PCOD9471021
_publ_section_title
;
Structure prediction by ZEFSAII (Michael W. Deem and Ramdas Pophale) SiO2 
 PCOD9471021
Probable space group: C M C M
;
_chemical_formula_sum "Si O2"
_cell_formula_units_Z 116
_cell_length_a 7.464294
_cell_length_b 26.456653
_cell_length_c 29.770885
_cell_angle_alpha 90.000000
_cell_angle_beta 90.000000
_cell_angle_gamma 90.000000
_cell_volume 5879.161403
_symmetry_space_group_name_H-M "C M C M"
_symmetry_group_IT_number 63
_symmetry_cell_setting 'orthorhombic'
loop_
_space_group_symop_operation_xyz
x,y,z
-x,-y,1/2+z
x,-y,-z
-x,y,1/2-z
-x,-y,-z
x,y,1/2-z
-x,y,z
x,-y,1/2+z
1/2+x,1/2+y,z
1/2-x,1/2-y,1/2+z
1/2+x,1/2-y,-z
1/2-x,1/2+y,1/2-z
1/2-x,1/2-y,-z
1/2+x,1/2+y,1/2-z
1/2-x,1/2+y,z
1/2+x,1/2-y,1/2+z
loop_
_atom_site_type_symbol
_atom_site_label
_atom_site_fract_x
_atom_site_fract_y
_atom_site_fract_z
Si Si1 0.218481 0.713893 0.200086
Si Si2 0.206631 0.546677 0.389625
Si Si3 0.281309 0.096345 0.199857
Si Si4 0.714783 0.248613 0.105677
Si Si5 0.716451 0.344064 0.049120
Si Si6 0.208409 0.453531 0.447709
Si Si7 0.000000 0.000000 0.000000
Si Si8 0.712537 0.644803 0.446693
O O1 0.275961 0.730091 0.250000
O O2 0.270795 0.655028 0.193939
O O3 0.280771 0.745019 0.156980
O O4 0.000000 0.714486 0.200047
O O5 0.284775 0.563080 0.341683
O O6 0.282774 0.497977 0.415288
O O7 0.211321 0.596079 0.421081
O O8 0.000000 0.532840 0.381643
O O9 0.227757 0.080180 0.250000
O O10 0.500000 0.095889 0.198439
O O11 0.500000 0.254035 0.107957
O O12 0.782765 0.295302 0.076095
O O13 0.751221 0.195393 0.081641
O O14 0.500000 0.341659 0.048131
O O15 0.772459 0.397218 0.070984
O O16 0.780140 0.346326 0.997390
O O17 0.341298 0.458111 0.489669
O O18 0.000000 0.462679 0.458463
O O19 0.500000 0.637388 0.448076
#
# Coordination Sequence:
#
# PCOD9471021 Si02
#       8
#    16  16  16  16  16  16   4  16
#     4   8  13  24  47  78 103 127 169 221 271 325
#     4  10  20  34  54  81 107 136 184 226 273 335
#     4   8  13  25  49  79 108 133 164 219 281 333
#     4  10  19  34  55  76 104 143 181 222 274 327
#     4  10  22  38  53  73 107 150 189 227 274 323
#     4  11  24  38  58  83 108 149 190 232 281 322
#     4  12  22  40  60  78 114 136 190 240 276 316
#     4  11  22  32  48  75 106 143 179 220 273 324
#
# _framework density 19.730706000000001
#
# number of rings (size 3 to 8) (size 9 to 14) (size 15 to 20)
#    0.000    2.207    2.069    2.690    2.897    2.759 
#    0.000    0.000    0.000    2.483    0.000    0.000 
#    0.000    0.000    0.000    0.000    0.000    0.138 
#
# Total GULP energy -323285.704290 kJ/mol
# GULP energy per Si atom -5573.891453 kJ/mol
# Density = 1.968580 g / cm^3
# Si number density = 19.730706 Si / 1000 Ang^3
#
#
#
# Elastic Constant Matrix: (Units=GPa)
#
#
# Indices 1 2 3 4 5 6 
#
# 1 80.9283 -7.4010 2.8245 0.0000 0.0000 0.0000
# 2 -7.4010 111.6298 67.9756 0.0000 0.0000 0.0000
# 3 2.8245 67.9756 156.3038 0.0000 0.0000 0.0000
# 4 0.0000 0.0000 0.0000 19.5098 0.0000 0.0000
# 5 0.0000 0.0000 0.0000 0.0000 -17.9460 0.0000
# 6 0.0000 0.0000 0.0000 0.0000 0.0000 15.4608
#
#
#
# Elastic Compliance Matrix: (Units=1/GPa)
#
#
# Indices 1 2 3 4 5 6 
#
# 1 0.012505 0.001315 -0.000798 0.000000 0.000000 0.000000
# 2 0.001315 0.012323 -0.005383 0.000000 0.000000 0.000000
# 3 -0.000798 -0.005383 0.008753 0.000000 0.000000 0.000000
# 4 0.000000 0.000000 0.000000 0.051256 0.000000 0.000000
# 5 0.000000 0.000000 0.000000 0.000000 -0.055723 0.000000
# 6 0.000000 0.000000 0.000000 0.000000 0.000000 0.064680
#
#
# Mechanical properties :
#
#
# Convention : Reuss Voigt Hill
#
# Bulk Modulus (GPa) = 41.93001 52.85112 47.39056
# Shear Modulus (GPa) = 44.85244 22.43576 33.64410
#
# Velocity S-wave (km/s) = 4.77301 3.37575 4.13384
# Velocity P-wave (km/s) = 7.18838 6.48372 6.84512
#
# Compressibility (1/GPa) = 0.02384927
#
# Stress axis : x y z
#
# Youngs Moduli (GPa) = 79.96984 81.14693 114.24274
#
# Poissons Ratio (x) = -0.10670 0.09114
# Poissons Ratio (y) = -0.10515 0.61498
# Poissons Ratio (z) = 0.06380 0.43682
#
# Static dielectric constant tensor:
#      x y z
#    x 1.775050 0.000000 0.000000 
#    y 0.000000 1.704490 0.000000 
#    z 0.000000 0.000000 1.762150 
# 
# From -- ./inp_files/72256.got.cif
#   From: 2010.05.17/outbox.cif.g08.bks.cpg/sg63_37_cif.got.tgz:72256.got - 2010.06.03 15:47:04.
