data_PCOD9471579
_publ_section_title
;
Structure prediction by ZEFSAII (Michael W. Deem and Ramdas Pophale) SiO2 
 PCOD9471579
Probable space group: C M C M
;
_chemical_formula_sum "Si O2"
_cell_formula_units_Z 80
_cell_length_a 25.983772
_cell_length_b 5.373903
_cell_length_c 25.511294
_cell_angle_alpha 90.000000
_cell_angle_beta 90.000000
_cell_angle_gamma 90.000000
_cell_volume 3562.250922
_symmetry_space_group_name_H-M "C M C M"
_symmetry_group_IT_number 63
_symmetry_cell_setting 'orthorhombic'
loop_
_space_group_symop_operation_xyz
x,y,z
-x,-y,1/2+z
x,-y,-z
-x,y,1/2-z
-x,-y,-z
x,y,1/2-z
-x,y,z
x,-y,1/2+z
1/2+x,1/2+y,z
1/2-x,1/2-y,1/2+z
1/2+x,1/2-y,-z
1/2-x,1/2+y,1/2-z
1/2-x,1/2-y,-z
1/2+x,1/2+y,1/2-z
1/2-x,1/2+y,z
1/2+x,1/2-y,1/2+z
loop_
_atom_site_type_symbol
_atom_site_label
_atom_site_fract_x
_atom_site_fract_y
_atom_site_fract_z
Si Si1 0.188639 0.510974 0.896417
Si Si2 0.697471 0.516850 0.560439
Si Si3 0.939271 0.753894 0.974761
Si Si4 0.614108 0.860432 0.811472
Si Si5 0.440577 0.645733 0.350666
O O1 0.249940 0.528496 0.905260
O O2 0.170403 0.277437 0.930521
O O3 0.167283 0.444002 0.839628
O O4 0.169312 0.772529 0.919022
O O5 0.712783 0.500000 0.500000
O O6 0.939044 0.783592 0.912241
O O7 0.000000 0.755051 0.990384
O O8 0.918695 0.500000 0.000000
O O9 0.914614 0.000000 0.000000
O O10 0.620255 0.817923 0.750000
O O11 0.591582 0.604716 0.836706
O O12 0.578594 0.103597 0.821664
O O13 0.500000 0.593098 0.336799
#
# Coordination Sequence:
#
# PCOD9471579 Si02
#       5
#    16  16  16  16  16
#     4  10  20  37  60  91 126 161 196 243 309 370
#     4  10  19  38  67  96 131 161 193 241 297 379
#     4   9  17  33  57  83 112 143 179 233 304 375
#     4  12  26  43  61  87 125 163 215 279 319 357
#     4  11  24  43  66  89 118 164 219 269 320 376
#
# _framework density 22.457709000000001
#
# number of rings (size 3 to 8) (size 9 to 14) (size 15 to 20)
#    0.000    1.600    0.000    6.600    0.000    5.600 
#    0.000   17.000    0.000    0.000    0.000    0.000 
#    0.000    0.000    0.000    0.000    0.000    0.000 
#
# Total GULP energy -223461.407310 kJ/mol
# GULP energy per Si atom -5586.535183 kJ/mol
# Density = 2.240659 g / cm^3
# Si number density = 22.457709 Si / 1000 Ang^3
#
#
#
# Elastic Constant Matrix: (Units=GPa)
#
#
# Indices 1 2 3 4 5 6 
#
# 1 75.7051 22.1099 15.7805 0.0000 0.0000 0.0000
# 2 22.1099 192.6386 28.6114 0.0000 0.0000 0.0000
# 3 15.7805 28.6114 93.1269 0.0000 0.0000 0.0000
# 4 0.0000 0.0000 0.0000 35.0901 0.0000 0.0000
# 5 0.0000 0.0000 0.0000 0.0000 20.2074 0.0000
# 6 0.0000 0.0000 0.0000 0.0000 0.0000 23.9539
#
#
#
# Elastic Compliance Matrix: (Units=1/GPa)
#
#
# Indices 1 2 3 4 5 6 
#
# 1 0.014004 -0.001315 -0.001969 0.000000 0.000000 0.000000
# 2 -0.001315 0.005563 -0.001486 0.000000 0.000000 0.000000
# 3 -0.001969 -0.001486 0.011528 0.000000 0.000000 0.000000
# 4 0.000000 0.000000 0.000000 0.028498 0.000000 0.000000
# 5 0.000000 0.000000 0.000000 0.000000 0.049487 0.000000
# 6 0.000000 0.000000 0.000000 0.000000 0.000000 0.041747
#
#
# Mechanical properties :
#
#
# Convention : Reuss Voigt Hill
#
# Bulk Modulus (GPa) = 46.39395 54.94159 50.66777
# Shear Modulus (GPa) = 29.84164 35.51488 32.67826
#
# Velocity S-wave (km/s) = 3.64922 3.98101 3.81872
# Velocity P-wave (km/s) = 6.20152 6.75639 6.48490
#
# Compressibility (1/GPa) = 0.02155453
#
# Stress axis : x y z
#
# Youngs Moduli (GPa) = 71.41036 179.76833 86.74303
#
# Poissons Ratio (x) = 0.23636 0.17080
# Poissons Ratio (y) = 0.09389 0.12892
# Poissons Ratio (z) = 0.14061 0.26718
#
# Static dielectric constant tensor:
#      x y z
#    x 1.937870 0.000000 0.000000 
#    y 0.000000 1.905820 0.000000 
#    z 0.000000 0.000000 1.782650 
# 
# From -- ./inp_files/65632.got.cif
#   From: 2010.05.17/outbox.cif.g08.bks.cpg/sg63_33_cif.got.tgz:65632.got - 2010.06.03 15:47:04.
