data_PCOD9471238
_publ_section_title
;
Structure prediction by ZEFSAII (Michael W. Deem and Ramdas Pophale) SiO2 
 PCOD9471238
Probable space group: C M C M
;
_chemical_formula_sum "Si O2"
_cell_formula_units_Z 116
_cell_length_a 7.565293
_cell_length_b 24.710915
_cell_length_c 31.480893
_cell_angle_alpha 90.000000
_cell_angle_beta 90.000000
_cell_angle_gamma 90.000000
_cell_volume 5885.205373
_symmetry_space_group_name_H-M "C M C M"
_symmetry_group_IT_number 63
_symmetry_cell_setting 'orthorhombic'
loop_
_space_group_symop_operation_xyz
x,y,z
-x,-y,1/2+z
x,-y,-z
-x,y,1/2-z
-x,-y,-z
x,y,1/2-z
-x,y,z
x,-y,1/2+z
1/2+x,1/2+y,z
1/2-x,1/2-y,1/2+z
1/2+x,1/2-y,-z
1/2-x,1/2+y,1/2-z
1/2-x,1/2-y,-z
1/2+x,1/2+y,1/2-z
1/2-x,1/2+y,z
1/2+x,1/2-y,1/2+z
loop_
_atom_site_type_symbol
_atom_site_label
_atom_site_fract_x
_atom_site_fract_y
_atom_site_fract_z
Si Si1 0.291021 0.241495 0.887769
Si Si2 0.704544 0.320383 0.960410
Si Si3 0.286695 0.525505 0.544368
Si Si4 0.286089 0.275532 0.703703
Si Si5 0.785792 0.148897 0.551052
Si Si6 0.706569 0.920902 0.592842
Si Si7 0.203031 0.901869 0.689160
Si Si8 0.000000 0.442779 0.750000
O O1 0.500000 0.254248 0.884571
O O2 0.215742 0.282674 0.923487
O O3 0.219760 0.249063 0.840107
O O4 0.268256 0.182595 0.907843
O O5 0.500000 0.303918 0.964788
O O6 0.710726 0.381596 0.942636
O O7 0.780393 0.321585 0.007914
O O8 0.222710 0.500000 0.500000
O O9 0.500000 0.527076 0.542768
O O10 0.224916 0.586804 0.550809
O O11 0.234337 0.483020 0.580349
O O12 0.220661 0.256309 0.750000
O O13 0.500000 0.269501 0.704376
O O14 0.250050 0.339635 0.700285
O O15 0.000000 0.148524 0.549157
O O16 0.500000 0.908501 0.593812
O O17 0.785048 0.907983 0.638606
O O18 0.344175 0.938408 0.713149
O O19 0.000000 0.911343 0.701727
#
# Coordination Sequence:
#
# PCOD9471238 Si02
#       8
#    16  16  16  16  16  16  16   4
#     4  10  20  33  53  79 113 148 186 235 288 352
#     4  10  19  35  55  76 113 156 191 223 286 359
#     4  10  20  38  60  77 105 152 198 239 292 356
#     4   9  17  32  55  80 107 151 190 224 288 353
#     4  10  21  36  54  78 108 150 199 237 282 354
#     4  12  23  34  54  89 119 147 195 248 290 350
#     4  11  21  37  58  83 125 157 187 243 294 354
#     4  12  22  36  56  94 118 152 202 232 298 382
#
# _framework density 19.710440999999999
#
# number of rings (size 3 to 8) (size 9 to 14) (size 15 to 20)
#    0.000    1.655    4.138    1.862    0.000    1.931 
#    1.241    0.000    0.000    0.000    1.793    0.000 
#    0.000    0.000    0.000    0.000    0.000    0.000 
#
# Total GULP energy -323375.397368 kJ/mol
# GULP energy per Si atom -5575.437886 kJ/mol
# Density = 1.966558 g / cm^3
# Si number density = 19.710441 Si / 1000 Ang^3
#
#
#
# Elastic Constant Matrix: (Units=GPa)
#
#
# Indices 1 2 3 4 5 6 
#
# 1 68.1391 -1.5281 5.5143 0.0000 0.0000 0.0000
# 2 -1.5281 84.1674 45.9994 0.0000 0.0000 0.0000
# 3 5.5143 45.9994 156.9788 0.0000 0.0000 0.0000
# 4 0.0000 0.0000 0.0000 200.1149 0.0000 0.0000
# 5 0.0000 0.0000 0.0000 0.0000 65.9196 0.0000
# 6 0.0000 0.0000 0.0000 0.0000 0.0000 47.2238
#
#
#
# Elastic Compliance Matrix: (Units=1/GPa)
#
#
# Indices 1 2 3 4 5 6 
#
# 1 0.014748 0.000656 -0.000710 0.000000 0.000000 0.000000
# 2 0.000656 0.014176 -0.004177 0.000000 0.000000 0.000000
# 3 -0.000710 -0.004177 0.007619 0.000000 0.000000 0.000000
# 4 0.000000 0.000000 0.000000 0.004997 0.000000 0.000000
# 5 0.000000 0.000000 0.000000 0.000000 0.015170 0.000000
# 6 0.000000 0.000000 0.000000 0.000000 0.000000 0.021176
#
#
# Mechanical properties :
#
#
# Convention : Reuss Voigt Hill
#
# Bulk Modulus (GPa) = 35.61194 45.47294 40.54244
# Shear Modulus (GPa) = 52.24182 79.93829 66.09006
#
# Velocity S-wave (km/s) = 5.15385 6.37529 5.79683
# Velocity P-wave (km/s) = 7.31594 8.79278 8.08814
#
# Compressibility (1/GPa) = 0.02808047
#
# Stress axis : x y z
#
# Youngs Moduli (GPa) = 67.80553 70.54270 131.24714
#
# Poissons Ratio (x) = -0.04627 0.09322
# Poissons Ratio (y) = -0.04448 0.54822
# Poissons Ratio (z) = 0.04816 0.29465
#
# Static dielectric constant tensor:
#      x y z
#    x 1.748300 0.000000 0.000000 
#    y 0.000000 1.680090 0.000000 
#    z 0.000000 0.000000 1.754660 
# 
# From -- ./inp_files/72107.got.cif
#   From: 2010.05.17/outbox.cif.g08.bks.cpg/sg63_37_cif.got.tgz:72107.got - 2010.06.03 15:47:04.
