data_PCOD9471912
_publ_section_title
;
Structure prediction by ZEFSAII (Michael W. Deem and Ramdas Pophale) SiO2 
 PCOD9471912
Probable space group: C M C M
;
_chemical_formula_sum "Si O2"
_cell_formula_units_Z 96
_cell_length_a 9.459635
_cell_length_b 31.706448
_cell_length_c 14.590877
_cell_angle_alpha 90.000000
_cell_angle_beta 90.000000
_cell_angle_gamma 90.000000
_cell_volume 4376.262534
_symmetry_space_group_name_H-M "C M C M"
_symmetry_group_IT_number 63
_symmetry_cell_setting 'orthorhombic'
loop_
_space_group_symop_operation_xyz
x,y,z
-x,-y,1/2+z
x,-y,-z
-x,y,1/2-z
-x,-y,-z
x,y,1/2-z
-x,y,z
x,-y,1/2+z
1/2+x,1/2+y,z
1/2-x,1/2-y,1/2+z
1/2+x,1/2-y,-z
1/2-x,1/2+y,1/2-z
1/2-x,1/2-y,-z
1/2+x,1/2+y,1/2-z
1/2-x,1/2+y,z
1/2+x,1/2-y,1/2+z
loop_
_atom_site_type_symbol
_atom_site_label
_atom_site_fract_x
_atom_site_fract_y
_atom_site_fract_z
Si Si1 0.838261 0.747795 0.861905
Si Si2 0.160254 0.493906 0.608018
Si Si3 0.660541 0.665875 0.637711
Si Si4 0.837963 0.330126 0.862194
Si Si5 0.659488 0.589262 0.140670
Si Si6 0.841352 0.588158 0.856638
O O1 0.842339 0.748025 0.750000
O O2 0.757893 0.705213 0.888953
O O3 0.749224 0.788745 0.889580
O O4 0.000000 0.749063 0.894204
O O5 0.151819 0.500000 0.500000
O O6 0.262095 0.455136 0.627425
O O7 0.208563 0.539846 0.641642
O O8 0.000000 0.485884 0.642887
O O9 0.654682 0.665951 0.750000
O O10 0.500000 0.670183 0.604998
O O11 0.732775 0.622357 0.606326
O O12 0.841789 0.330229 0.750000
O O13 0.756297 0.372176 0.892316
O O14 0.000000 0.329201 0.893945
O O15 0.647811 0.595326 0.250000
O O16 0.500000 0.589439 0.102524
O O17 0.857106 0.599419 0.750000
O O18 0.000000 0.589607 0.898583
#
# Coordination Sequence:
#
# PCOD9471912 Si02
#       6
#    16  16  16  16  16  16
#     4   9  15  23  37  60  93 128 158 191 234 282
#     4  10  21  36  53  73  97 127 164 205 250 299
#     4   9  16  25  39  62  92 124 158 195 235 280
#     4   9  16  26  42  65  94 127 161 197 238 283
#     4  10  20  33  50  73 100 130 165 204 246 292
#     4   9  17  30  48  69  94 125 160 198 241 287
#
# _framework density 21.936527999999999
#
# number of rings (size 3 to 8) (size 9 to 14) (size 15 to 20)
#    0.000    2.667    0.000    2.500    0.000    8.667 
#    0.000    1.667    0.000    0.000    0.000    1.167 
#    0.000    0.000    0.000    0.000    0.000    0.000 
#
# Total GULP energy -268144.354612 kJ/mol
# GULP energy per Si atom -5586.340721 kJ/mol
# Density = 2.188660 g / cm^3
# Si number density = 21.936528 Si / 1000 Ang^3
#
#
#
# Elastic Constant Matrix: (Units=GPa)
#
#
# Indices 1 2 3 4 5 6 
#
# 1 234.1012 164.9698 8.9930 0.0000 0.0000 0.0000
# 2 164.9698 214.5708 -7.5986 0.0000 0.0000 0.0000
# 3 8.9930 -7.5986 52.7995 0.0000 0.0000 0.0000
# 4 0.0000 0.0000 0.0000 -78.4619 0.0000 0.0000
# 5 0.0000 0.0000 0.0000 0.0000 4.0152 0.0000
# 6 0.0000 0.0000 0.0000 0.0000 0.0000 2.4478
#
#
#
# Elastic Compliance Matrix: (Units=1/GPa)
#
#
# Indices 1 2 3 4 5 6 
#
# 1 0.009702 -0.007556 -0.002740 0.000000 0.000000 0.000000
# 2 -0.007556 0.010569 0.002808 0.000000 0.000000 0.000000
# 3 -0.002740 0.002808 0.019810 0.000000 0.000000 0.000000
# 4 0.000000 0.000000 0.000000 -0.012745 0.000000 0.000000
# 5 0.000000 0.000000 0.000000 0.000000 0.249054 0.000000
# 6 0.000000 0.000000 0.000000 0.000000 0.000000 0.408532
#
#
# Mechanical properties :
#
#
# Convention : Reuss Voigt Hill
#
# Bulk Modulus (GPa) = 39.83172 92.68888 66.26030
# Shear Modulus (GPa) = 7.05949 7.94070 7.50010
#
# Velocity S-wave (km/s) = 1.79586 1.90466 1.85106
# Velocity P-wave (km/s) = 4.74313 6.86891 5.90251
#
# Compressibility (1/GPa) = 0.02510562
#
# Stress axis : x y z
#
# Youngs Moduli (GPa) = 103.07684 94.61497 50.47868
#
# Poissons Ratio (x) = 0.71490 0.13830
# Poissons Ratio (y) = 0.77884 -0.14174
# Poissons Ratio (z) = 0.28241 -0.26568
#
# Static dielectric constant tensor:
#      x y z
#    x 1.783250 0.000000 0.000000 
#    y 0.000000 1.767280 0.000000 
#    z 0.000000 0.000000 1.818000 
# 
# From -- ./inp_files/51365.got.cif
#   From: 2010.05.17/outbox.cif.g08.bks.cpg/sg63_26_cif.got.tgz:51365.got - 2010.06.03 15:47:04.
