data_PCOD9471685
_publ_section_title
;
Structure prediction by ZEFSAII (Michael W. Deem and Ramdas Pophale) SiO2 
 PCOD9471685
Probable space group: C M C M
;
_chemical_formula_sum "Si O2"
_cell_formula_units_Z 80
_cell_length_a 19.505283
_cell_length_b 24.941764
_cell_length_c 9.155521
_cell_angle_alpha 90.000000
_cell_angle_beta 90.000000
_cell_angle_gamma 90.000000
_cell_volume 4454.125858
_symmetry_space_group_name_H-M "C M C M"
_symmetry_group_IT_number 63
_symmetry_cell_setting 'orthorhombic'
loop_
_space_group_symop_operation_xyz
x,y,z
-x,-y,1/2+z
x,-y,-z
-x,y,1/2-z
-x,-y,-z
x,y,1/2-z
-x,y,z
x,-y,1/2+z
1/2+x,1/2+y,z
1/2-x,1/2-y,1/2+z
1/2+x,1/2-y,-z
1/2-x,1/2+y,1/2-z
1/2-x,1/2-y,-z
1/2+x,1/2+y,1/2-z
1/2-x,1/2+y,z
1/2+x,1/2-y,1/2+z
loop_
_atom_site_type_symbol
_atom_site_label
_atom_site_fract_x
_atom_site_fract_y
_atom_site_fract_z
Si Si1 0.500000 0.251628 0.915709
Si Si2 0.641101 0.259739 0.080477
Si Si3 0.764262 0.445047 0.419152
Si Si4 0.500000 0.378653 0.587937
Si Si5 0.752723 0.835487 0.580599
Si Si6 0.900410 0.946989 0.083644
O O1 0.500000 0.228998 0.750000
O O2 0.500000 0.315649 0.902638
O O3 0.570874 0.241460 0.001981
O O4 0.627827 0.274364 0.250000
O O5 0.693996 0.209959 0.077728
O O6 0.681974 0.308345 0.000707
O O7 0.787420 0.500000 0.500000
O O8 0.787621 0.443605 0.250000
O O9 0.776141 0.389241 0.504150
O O10 0.681441 0.446672 0.417847
O O11 0.500000 0.402335 0.750000
O O12 0.566022 0.398257 0.500877
O O13 0.770688 0.846983 0.750000
O O14 0.922732 0.947273 0.250000
O O15 0.923057 0.000000 0.000000
#
# Coordination Sequence:
#
# PCOD9471685 Si02
#       6
#     8  16  16   8  16  16
#     4  11  23  36  52  75 102 133 170 214 261 310
#     4  10  21  36  55  78 106 140 176 217 264 314
#     4  10  20  33  51  74 100 131 167 210 258 307
#     4  11  22  32  43  61  88 123 161 202 245 288
#     4  10  20  35  55  79 107 139 176 217 262 313
#     4  10  20  32  45  62  87 122 162 202 243 286
#
# _framework density 17.960875000000001
#
# number of rings (size 3 to 8) (size 9 to 14) (size 15 to 20)
#    0.000    1.800    0.000    4.500    0.000    9.600 
#    0.000    0.000    0.000    0.000    0.000    0.700 
#    0.000    0.000    0.000    0.000    0.000    0.000 
#
# Total GULP energy -223193.071294 kJ/mol
# GULP energy per Si atom -5579.826782 kJ/mol
# Density = 1.791999 g / cm^3
# Si number density = 17.960875 Si / 1000 Ang^3
#
#
#
# Elastic Constant Matrix: (Units=GPa)
#
#
# Indices 1 2 3 4 5 6 
#
# 1 61.0116 -3.6302 29.8856 0.0000 0.0000 0.0000
# 2 -3.6302 85.2023 44.0373 0.0000 0.0000 0.0000
# 3 29.8856 44.0373 168.9590 0.0000 0.0000 0.0000
# 4 0.0000 0.0000 0.0000 29.2081 0.0000 0.0000
# 5 0.0000 0.0000 0.0000 0.0000 26.7175 0.0000
# 6 0.0000 0.0000 0.0000 0.0000 0.0000 21.5969
#
#
#
# Elastic Compliance Matrix: (Units=1/GPa)
#
#
# Indices 1 2 3 4 5 6 
#
# 1 0.018533 0.002871 -0.004026 0.000000 0.000000 0.000000
# 2 0.002871 0.014009 -0.004159 0.000000 0.000000 0.000000
# 3 -0.004026 -0.004159 0.007715 0.000000 0.000000 0.000000
# 4 0.000000 0.000000 0.000000 0.034237 0.000000 0.000000
# 5 0.000000 0.000000 0.000000 0.000000 0.037429 0.000000
# 6 0.000000 0.000000 0.000000 0.000000 0.000000 0.046303
#
#
# Mechanical properties :
#
#
# Convention : Reuss Voigt Hill
#
# Bulk Modulus (GPa) = 33.75239 50.63981 42.19610
# Shear Modulus (GPa) = 27.97505 31.82985 29.90245
#
# Velocity S-wave (km/s) = 3.95087 4.21429 4.08470
# Velocity P-wave (km/s) = 6.29646 7.20667 6.76689
#
# Compressibility (1/GPa) = 0.02962753
#
# Stress axis : x y z
#
# Youngs Moduli (GPa) = 53.95654 71.38432 129.62119
#
# Poissons Ratio (x) = -0.20493 0.52191
# Poissons Ratio (y) = -0.15489 0.53909
# Poissons Ratio (z) = 0.21725 0.29689
#
# Static dielectric constant tensor:
#      x y z
#    x 1.606990 0.000000 0.000000 
#    y 0.000000 1.624460 0.000000 
#    z 0.000000 0.000000 1.651820 
# 
# From -- ./inp_files/6474.got.cif
#   From: 2010.05.17/outbox.cif.g08.bks.cpg/sg63_4_cif.got.tgz:6474.got - 2010.06.03 15:47:04.
