data_PCOD9471037
_publ_section_title
;
Structure prediction by ZEFSAII (Michael W. Deem and Ramdas Pophale) SiO2 
 PCOD9471037
Probable space group: C M C M
;
_chemical_formula_sum "Si O2"
_cell_formula_units_Z 88
_cell_length_a 11.571744
_cell_length_b 27.971860
_cell_length_c 15.961757
_cell_angle_alpha 90.000000
_cell_angle_beta 90.000000
_cell_angle_gamma 90.000000
_cell_volume 5166.552633
_symmetry_space_group_name_H-M "C M C M"
_symmetry_group_IT_number 63
_symmetry_cell_setting 'orthorhombic'
loop_
_space_group_symop_operation_xyz
x,y,z
-x,-y,1/2+z
x,-y,-z
-x,y,1/2-z
-x,-y,-z
x,y,1/2-z
-x,y,z
x,-y,1/2+z
1/2+x,1/2+y,z
1/2-x,1/2-y,1/2+z
1/2+x,1/2-y,-z
1/2-x,1/2+y,1/2-z
1/2-x,1/2-y,-z
1/2+x,1/2+y,1/2-z
1/2-x,1/2+y,z
1/2+x,1/2-y,1/2+z
loop_
_atom_site_type_symbol
_atom_site_label
_atom_site_fract_x
_atom_site_fract_y
_atom_site_fract_z
Si Si1 0.744619 0.217229 0.581601
Si Si2 0.694853 0.054373 0.024375
Si Si3 0.635742 0.274523 0.250000
Si Si4 0.000000 0.684231 0.653746
Si Si5 0.500000 0.923460 0.392907
Si Si6 0.864627 0.890581 0.250000
Si Si7 0.638694 0.614707 0.565637
Si Si8 0.500000 0.033526 0.155283
O O1 0.750000 0.250000 0.500000
O O2 0.802942 0.240907 0.664102
O O3 0.614766 0.202401 0.607244
O O4 0.815305 0.168692 0.563095
O O5 0.614695 0.051482 0.106598
O O6 0.609687 0.075611 0.954036
O O7 0.808712 0.085616 0.012026
O O8 0.721924 0.000000 0.000000
O O9 0.500000 0.263108 0.250000
O O10 0.646663 0.332792 0.250000
O O11 0.000000 0.626292 0.655240
O O12 0.000000 0.700984 0.750000
O O13 0.500000 0.975281 0.348618
O O14 0.820842 0.905907 0.157939
O O15 0.000000 0.902534 0.250000
O O16 0.500000 0.614362 0.565516
O O17 0.500000 0.049631 0.250000
#
# Coordination Sequence:
#
# PCOD9471037 Si02
#       8
#    16  16   8   8   8   8  16   8
#     4  11  23  36  56  82 111 146 182 226 280 331
#     4   9  18  33  52  80 111 137 177 221 270 331
#     4   9  18  37  55  75 108 140 175 220 273 332
#     4  12  22  35  58  89 117 136 181 245 283 322
#     4   9  17  33  54  82 113 136 166 228 294 337
#     4   7  14  28  49  75 100 127 164 210 265 320
#     4  10  19  34  55  79 109 144 179 219 272 329
#     4   9  18  34  57  77 108 148 181 221 274 330
#
# _framework density 17.032634000000002
#
# number of rings (size 3 to 8) (size 9 to 14) (size 15 to 20)
#    0.000    2.364    2.727    3.000    2.545    0.364 
#    6.545    0.000    2.000    0.545    0.000    0.000 
#    0.000    0.000    0.000    0.000    0.000    0.000 
#
# Total GULP energy -244992.696088 kJ/mol
# GULP energy per Si atom -5568.015820 kJ/mol
# Density = 1.699387 g / cm^3
# Si number density = 17.032634 Si / 1000 Ang^3
#
#
#
# Elastic Constant Matrix: (Units=GPa)
#
#
# Indices 1 2 3 4 5 6 
#
# 1 115.7903 36.9282 62.8756 0.0000 0.0000 0.0000
# 2 36.9282 45.0810 52.7369 0.0000 0.0000 0.0000
# 3 62.8756 52.7369 143.1777 0.0000 0.0000 0.0000
# 4 0.0000 0.0000 0.0000 18.9803 0.0000 0.0000
# 5 0.0000 0.0000 0.0000 0.0000 23.9419 0.0000
# 6 0.0000 0.0000 0.0000 0.0000 0.0000 10.0921
#
#
#
# Elastic Compliance Matrix: (Units=1/GPa)
#
#
# Indices 1 2 3 4 5 6 
#
# 1 0.012378 -0.006643 -0.002989 0.000000 0.000000 0.000000
# 2 -0.006643 0.042542 -0.012752 0.000000 0.000000 0.000000
# 3 -0.002989 -0.012752 0.012994 0.000000 0.000000 0.000000
# 4 0.000000 0.000000 0.000000 0.052686 0.000000 0.000000
# 5 0.000000 0.000000 0.000000 0.000000 0.041768 0.000000
# 6 0.000000 0.000000 0.000000 0.000000 0.000000 0.099087
#
#
# Mechanical properties :
#
#
# Convention : Reuss Voigt Hill
#
# Bulk Modulus (GPa) = 43.20502 67.68116 55.44309
# Shear Modulus (GPa) = 15.92671 20.70342 18.31506
#
# Velocity S-wave (km/s) = 3.06121 3.49021 3.28272
# Velocity P-wave (km/s) = 6.15758 7.48762 6.85493
#
# Compressibility (1/GPa) = 0.02314546
#
# Stress axis : x y z
#
# Youngs Moduli (GPa) = 80.78933 23.50632 76.95889
#
# Poissons Ratio (x) = 0.15615 0.23002
# Poissons Ratio (y) = 0.53667 0.98140
# Poissons Ratio (z) = 0.24147 0.29976
#
# Static dielectric constant tensor:
#      x y z
#    x 1.617680 0.000000 0.000000 
#    y 0.000000 1.570230 0.000000 
#    z 0.000000 0.000000 1.607170 
# 
# From -- ./inp_files/29938.got.cif
#   From: 2010.05.17/outbox.cif.g08.bks.cpg/sg63_15_cif.got.tgz:29938.got - 2010.06.03 15:47:04.
