data_PCOD9471831
_publ_section_title
;
Structure prediction by ZEFSAII (Michael W. Deem and Ramdas Pophale) SiO2 
 PCOD9471831
Probable space group: C M C M
;
_chemical_formula_sum "Si O2"
_cell_formula_units_Z 72
_cell_length_a 7.904136
_cell_length_b 19.360878
_cell_length_c 24.258525
_cell_angle_alpha 90.000000
_cell_angle_beta 90.000000
_cell_angle_gamma 90.000000
_cell_volume 3712.306650
_symmetry_space_group_name_H-M "C M C M"
_symmetry_group_IT_number 63
_symmetry_cell_setting 'orthorhombic'
loop_
_space_group_symop_operation_xyz
x,y,z
-x,-y,1/2+z
x,-y,-z
-x,y,1/2-z
-x,-y,-z
x,y,1/2-z
-x,y,z
x,-y,1/2+z
1/2+x,1/2+y,z
1/2-x,1/2-y,1/2+z
1/2+x,1/2-y,-z
1/2-x,1/2+y,1/2-z
1/2-x,1/2-y,-z
1/2+x,1/2+y,1/2-z
1/2-x,1/2+y,z
1/2+x,1/2-y,1/2+z
loop_
_atom_site_type_symbol
_atom_site_label
_atom_site_fract_x
_atom_site_fract_y
_atom_site_fract_z
Si Si1 0.299316 0.099964 0.408139
Si Si2 0.750978 0.500000 0.500000
Si Si3 0.694116 0.403209 0.091657
Si Si4 0.200870 0.748208 0.935823
Si Si5 0.296242 0.997871 0.312632
O O1 0.500000 0.087690 0.420258
O O2 0.266762 0.180962 0.409638
O O3 0.196122 0.059442 0.455784
O O4 0.257430 0.065048 0.349801
O O5 0.809111 0.445560 0.452134
O O6 0.500000 0.417981 0.074535
O O7 0.725983 0.322232 0.088875
O O8 0.725574 0.434443 0.151751
O O9 0.000000 0.746084 0.930848
O O10 0.250000 0.750000 0.000000
O O11 0.234771 0.001267 0.250000
O O12 0.500000 0.991647 0.311428
#
# Coordination Sequence:
#
# PCOD9471831 Si02
#       5
#    16   8  16  16  16
#     4  10  20  35  58  85 115 151 191 232 285 344
#     4  10  20  32  56  82 118 146 188 230 290 338
#     4  11  22  36  57  85 117 151 191 236 284 340
#     4  12  24  37  55  82 119 156 190 233 287 346
#     4   9  20  40  63  86 114 149 191 238 285 335
#
# _framework density 19.394947999999999
#
# number of rings (size 3 to 8) (size 9 to 14) (size 15 to 20)
#    0.000    1.556    2.222    3.333    0.000    5.778 
#    0.000    1.111    0.000    4.000    0.000    0.000 
#    0.000    0.000    0.000    0.000    0.000    0.000 
#
# Total GULP energy -200490.996557 kJ/mol
# GULP energy per Si atom -5569.194349 kJ/mol
# Density = 1.935080 g / cm^3
# Si number density = 19.394948 Si / 1000 Ang^3
#
#
#
# Elastic Constant Matrix: (Units=GPa)
#
#
# Indices 1 2 3 4 5 6 
#
# 1 81.7433 24.9745 25.9786 0.0000 0.0000 0.0000
# 2 24.9745 204.1224 82.0350 0.0000 0.0000 0.0000
# 3 25.9786 82.0350 175.0267 0.0000 0.0000 0.0000
# 4 0.0000 0.0000 0.0000 14.9663 0.0000 0.0000
# 5 0.0000 0.0000 0.0000 0.0000 12.9457 0.0000
# 6 0.0000 0.0000 0.0000 0.0000 0.0000 18.8856
#
#
#
# Elastic Compliance Matrix: (Units=1/GPa)
#
#
# Indices 1 2 3 4 5 6 
#
# 1 0.013004 -0.001005 -0.001459 0.000000 0.000000 0.000000
# 2 -0.001005 0.006114 -0.002716 0.000000 0.000000 0.000000
# 3 -0.001459 -0.002716 0.007203 0.000000 0.000000 0.000000
# 4 0.000000 0.000000 0.000000 0.066817 0.000000 0.000000
# 5 0.000000 0.000000 0.000000 0.000000 0.077246 0.000000
# 6 0.000000 0.000000 0.000000 0.000000 0.000000 0.052950
#
#
# Mechanical properties :
#
#
# Convention : Reuss Voigt Hill
#
# Bulk Modulus (GPa) = 62.65495 80.76319 71.70907
# Shear Modulus (GPa) = 20.91924 31.21980 26.06952
#
# Velocity S-wave (km/s) = 3.28776 4.01644 3.67023
# Velocity P-wave (km/s) = 6.84013 7.95241 7.41715
#
# Compressibility (1/GPa) = 0.01596043
#
# Stress axis : x y z
#
# Youngs Moduli (GPa) = 76.89867 163.56963 138.82790
#
# Poissons Ratio (x) = 0.16432 0.20259
# Poissons Ratio (y) = 0.07725 0.37710
# Poissons Ratio (z) = 0.11222 0.44431
#
# Static dielectric constant tensor:
#      x y z
#    x 1.852500 0.000000 0.000000 
#    y 0.000000 1.658550 0.000000 
#    z 0.000000 0.000000 1.645070 
# 
# From -- ./inp_files/59276.got.cif
#   From: 2010.05.17/outbox.cif.g08.bks.cpg/sg63_30_cif.got.tgz:59276.got - 2010.06.03 15:47:04.
