data_PCOD9471169
_publ_section_title
;
Structure prediction by ZEFSAII (Michael W. Deem and Ramdas Pophale) SiO2 
 PCOD9471169
Probable space group: C M C M
;
_chemical_formula_sum "Si O2"
_cell_formula_units_Z 56
_cell_length_a 7.763079
_cell_length_b 24.313762
_cell_length_c 16.524617
_cell_angle_alpha 90.000000
_cell_angle_beta 90.000000
_cell_angle_gamma 90.000000
_cell_volume 3119.015761
_symmetry_space_group_name_H-M "C M C M"
_symmetry_group_IT_number 63
_symmetry_cell_setting 'orthorhombic'
loop_
_space_group_symop_operation_xyz
x,y,z
-x,-y,1/2+z
x,-y,-z
-x,y,1/2-z
-x,-y,-z
x,y,1/2-z
-x,y,z
x,-y,1/2+z
1/2+x,1/2+y,z
1/2-x,1/2-y,1/2+z
1/2+x,1/2-y,-z
1/2-x,1/2+y,1/2-z
1/2-x,1/2-y,-z
1/2+x,1/2+y,1/2-z
1/2-x,1/2+y,z
1/2+x,1/2-y,1/2+z
loop_
_atom_site_type_symbol
_atom_site_label
_atom_site_fract_x
_atom_site_fract_y
_atom_site_fract_z
Si Si1 0.696839 0.974570 0.847807
Si Si2 0.500000 0.667395 0.550193
Si Si3 0.500000 0.557322 0.652570
Si Si4 0.692807 0.646910 0.394466
Si Si5 0.000000 0.275228 0.841827
O O1 0.706235 0.968476 0.750000
O O2 0.500000 0.988155 0.869198
O O3 0.832735 0.021406 0.870951
O O4 0.749520 0.916000 0.884651
O O5 0.500000 0.615867 0.609937
O O6 0.661248 0.661972 0.488533
O O7 0.500000 0.724290 0.597278
O O8 0.500000 0.563384 0.750000
O O9 0.500000 0.652578 0.357860
O O10 0.833578 0.686521 0.356284
O O11 0.000000 0.254808 0.750000
#
# Coordination Sequence:
#
# PCOD9471169 Si02
#       5
#    16   8   8  16   8
#     4  10  19  34  58  89 118 151 199 246 285 331
#     4  10  24  42  56  85 127 156 188 234 297 354
#     4  10  20  39  60  82 120 162 194 232 284 355
#     4  10  22  37  62  86 119 148 192 247 298 331
#     4  12  23  41  65  86 113 154 200 241 288 351
#
# _framework density 17.95438
#
# number of rings (size 3 to 8) (size 9 to 14) (size 15 to 20)
#    0.857    0.857    2.857    2.143    0.000    4.000 
#    2.571    1.429    0.000    3.429    0.000    0.000 
#    0.000    0.000    0.000    0.000    0.000    0.000 
#
# Total GULP energy -156205.856663 kJ/mol
# GULP energy per Si atom -5578.780595 kJ/mol
# Density = 1.791352 g / cm^3
# Si number density = 17.954380 Si / 1000 Ang^3
#
#
#
# Elastic Constant Matrix: (Units=GPa)
#
#
# Indices 1 2 3 4 5 6 
#
# 1 136.1876 28.0811 15.5942 0.0000 0.0000 0.0000
# 2 28.0811 60.6393 5.0850 0.0000 0.0000 0.0000
# 3 15.5942 5.0850 34.8144 0.0000 0.0000 0.0000
# 4 0.0000 0.0000 0.0000 35.5688 0.0000 0.0000
# 5 0.0000 0.0000 0.0000 0.0000 27.7206 0.0000
# 6 0.0000 0.0000 0.0000 0.0000 0.0000 1.5632
#
#
#
# Elastic Compliance Matrix: (Units=1/GPa)
#
#
# Indices 1 2 3 4 5 6 
#
# 1 0.008468 -0.003648 -0.003260 0.000000 0.000000 0.000000
# 2 -0.003648 0.018267 -0.001034 0.000000 0.000000 0.000000
# 3 -0.003260 -0.001034 0.030335 0.000000 0.000000 0.000000
# 4 0.000000 0.000000 0.000000 0.028115 0.000000 0.000000
# 5 0.000000 0.000000 0.000000 0.000000 0.036074 0.000000
# 6 0.000000 0.000000 0.000000 0.000000 0.000000 0.639721
#
#
# Mechanical properties :
#
#
# Convention : Reuss Voigt Hill
#
# Bulk Modulus (GPa) = 24.28034 36.57355 30.42695
# Shear Modulus (GPa) = 6.32436 25.16259 15.74347
#
# Velocity S-wave (km/s) = 1.87886 3.74769 2.96439
# Velocity P-wave (km/s) = 4.27312 6.25631 5.35728
#
# Compressibility (1/GPa) = 0.04118558
#
# Stress axis : x y z
#
# Youngs Moduli (GPa) = 118.08649 54.74329 32.96510
#
# Poissons Ratio (x) = 0.19971 0.10748
# Poissons Ratio (y) = 0.43080 0.03409
# Poissons Ratio (z) = 0.38500 0.05660
#
# Static dielectric constant tensor:
#      x y z
#    x 1.618500 0.000000 0.000000 
#    y 0.000000 1.550920 0.000000 
#    z 0.000000 0.000000 1.628770 
# 
# From -- ./inp_files/27259.got.cif
#   From: 2010.05.17/outbox.cif.g08.bks.cpg/sg63_14_cif.got.tgz:27259.got - 2010.06.03 15:47:04.
