data_PCOD9471170
_publ_section_title
;
Structure prediction by ZEFSAII (Michael W. Deem and Ramdas Pophale) SiO2 
 PCOD9471170
Probable space group: C M C M
;
_chemical_formula_sum "Si O2"
_cell_formula_units_Z 112
_cell_length_a 23.735036
_cell_length_b 17.078262
_cell_length_c 14.005743
_cell_angle_alpha 90.000000
_cell_angle_beta 90.000000
_cell_angle_gamma 90.000000
_cell_volume 5677.272231
_symmetry_space_group_name_H-M "C M C M"
_symmetry_group_IT_number 63
_symmetry_cell_setting 'orthorhombic'
loop_
_space_group_symop_operation_xyz
x,y,z
-x,-y,1/2+z
x,-y,-z
-x,y,1/2-z
-x,-y,-z
x,y,1/2-z
-x,y,z
x,-y,1/2+z
1/2+x,1/2+y,z
1/2-x,1/2-y,1/2+z
1/2+x,1/2-y,-z
1/2-x,1/2+y,1/2-z
1/2-x,1/2-y,-z
1/2+x,1/2+y,1/2-z
1/2-x,1/2+y,z
1/2+x,1/2-y,1/2+z
loop_
_atom_site_type_symbol
_atom_site_label
_atom_site_fract_x
_atom_site_fract_y
_atom_site_fract_z
Si Si1 0.567019 0.090220 0.480848
Si Si2 0.436969 0.457099 0.366350
Si Si3 0.666002 0.653377 0.861137
Si Si4 0.260965 0.590574 0.021938
Si Si5 0.876183 0.115604 0.134843
Si Si6 0.659424 0.838243 0.640409
Si Si7 0.067290 0.279754 0.138022
O O1 0.500000 0.094705 0.465514
O O2 0.601694 0.121736 0.391541
O O3 0.581025 0.147073 0.570201
O O4 0.581763 0.000000 0.500000
O O5 0.438405 0.454307 0.250000
O O6 0.500000 0.438517 0.400093
O O7 0.387763 0.397268 0.395126
O O8 0.417929 0.544781 0.393008
O O9 0.675843 0.634195 0.750000
O O10 0.653751 0.744968 0.868949
O O11 0.719561 0.631639 0.924366
O O12 0.315421 0.598772 0.090335
O O13 0.208169 0.630905 0.071307
O O14 0.249758 0.500000 0.000000
O O15 0.872238 0.114105 0.250000
O O16 0.899872 0.201058 0.108558
O O17 0.673690 0.856324 0.750000
O O18 0.079432 0.295829 0.250000
O O19 0.000000 0.264998 0.130763
#
# Coordination Sequence:
#
# PCOD9471170 Si02
#       7
#    16  16  16  16  16  16  16
#     4  10  22  42  65  90 121 155 196 255 318 377
#     4   9  17  32  56  87 125 166 204 244 298 365
#     4  10  22  40  59  85 123 165 208 257 309 364
#     4  12  23  39  62  87 120 161 207 261 309 364
#     4  10  19  34  58  89 127 167 206 250 303 360
#     4  11  25  43  63  87 117 157 207 257 312 378
#     4   9  18  34  60  93 127 164 206 253 305 364
#
# _framework density 19.727784
#
# number of rings (size 3 to 8) (size 9 to 14) (size 15 to 20)
#    0.000    1.857    1.429    2.571    0.000    3.714 
#    0.000    7.143    0.000    0.000    0.000    0.000 
#    0.000    0.000    0.000    0.000    0.000    0.000 
#
# Total GULP energy -313058.623918 kJ/mol
# GULP energy per Si atom -5590.332570 kJ/mol
# Density = 1.968288 g / cm^3
# Si number density = 19.727784 Si / 1000 Ang^3
#
#
#
# Elastic Constant Matrix: (Units=GPa)
#
#
# Indices 1 2 3 4 5 6 
#
# 1 55.5497 51.1571 42.4133 0.0000 0.0000 0.0000
# 2 51.1571 133.2098 57.3981 0.0000 0.0000 0.0000
# 3 42.4133 57.3981 87.2390 0.0000 0.0000 0.0000
# 4 0.0000 0.0000 0.0000 29.2288 0.0000 0.0000
# 5 0.0000 0.0000 0.0000 0.0000 55.3685 0.0000
# 6 0.0000 0.0000 0.0000 0.0000 0.0000 11.3857
#
#
#
# Elastic Compliance Matrix: (Units=1/GPa)
#
#
# Indices 1 2 3 4 5 6 
#
# 1 0.034170 -0.008324 -0.011136 0.000000 0.000000 0.000000
# 2 -0.008324 0.012505 -0.004181 0.000000 0.000000 0.000000
# 3 -0.011136 -0.004181 0.019627 0.000000 0.000000 0.000000
# 4 0.000000 0.000000 0.000000 0.034213 0.000000 0.000000
# 5 0.000000 0.000000 0.000000 0.000000 0.018061 0.000000
# 6 0.000000 0.000000 0.000000 0.000000 0.000000 0.087830
#
#
# Mechanical properties :
#
#
# Convention : Reuss Voigt Hill
#
# Bulk Modulus (GPa) = 52.57252 64.21507 58.39379
# Shear Modulus (GPa) = 19.22870 27.53194 23.38032
#
# Velocity S-wave (km/s) = 3.12541 3.73981 3.44633
# Velocity P-wave (km/s) = 6.30326 7.16027 6.74539
#
# Compressibility (1/GPa) = 0.01902135
#
# Stress axis : x y z
#
# Youngs Moduli (GPa) = 29.26512 79.96712 50.94957
#
# Poissons Ratio (x) = 0.66567 0.56736
# Poissons Ratio (y) = 0.24361 0.21300
# Poissons Ratio (z) = 0.32589 0.33431
#
# Static dielectric constant tensor:
#      x y z
#    x 1.664650 0.000000 0.000000 
#    y 0.000000 1.547330 0.000000 
#    z 0.000000 0.000000 1.722670 
# 
# From -- ./inp_files/36893.got.cif
#   From: 2010.05.17/outbox.cif.g08.bks.cpg/sg63_19_cif.got.tgz:36893.got - 2010.06.03 15:47:04.
