data_PCOD9471709
_publ_section_title
;
Structure prediction by ZEFSAII (Michael W. Deem and Ramdas Pophale) SiO2 
 PCOD9471709
Probable space group: C M C M
;
_chemical_formula_sum "Si O2"
_cell_formula_units_Z 100
_cell_length_a 20.857597
_cell_length_b 30.668162
_cell_length_c 9.306307
_cell_angle_alpha 90.000000
_cell_angle_beta 90.000000
_cell_angle_gamma 90.000000
_cell_volume 5952.911085
_symmetry_space_group_name_H-M "C M C M"
_symmetry_group_IT_number 63
_symmetry_cell_setting 'orthorhombic'
loop_
_space_group_symop_operation_xyz
x,y,z
-x,-y,1/2+z
x,-y,-z
-x,y,1/2-z
-x,-y,-z
x,y,1/2-z
-x,y,z
x,-y,1/2+z
1/2+x,1/2+y,z
1/2-x,1/2-y,1/2+z
1/2+x,1/2-y,-z
1/2-x,1/2+y,1/2-z
1/2-x,1/2-y,-z
1/2+x,1/2+y,1/2-z
1/2-x,1/2+y,z
1/2+x,1/2-y,1/2+z
loop_
_atom_site_type_symbol
_atom_site_label
_atom_site_fract_x
_atom_site_fract_y
_atom_site_fract_z
Si Si1 0.000000 0.157923 0.750000
Si Si2 0.072606 0.938551 0.911593
Si Si3 0.426097 0.755000 0.411249
Si Si4 0.198443 0.717509 0.077207
Si Si5 0.096582 0.158155 0.015614
Si Si6 0.298419 0.457668 0.420579
Si Si7 0.240481 0.139789 0.921545
O O1 0.055001 0.157748 0.626687
O O2 0.082243 0.956267 0.750000
O O3 0.079087 0.886281 0.904425
O O4 0.000000 0.948938 0.959614
O O5 0.129063 0.952247 0.018463
O O6 0.413000 0.772272 0.250000
O O7 0.500000 0.765208 0.450233
O O8 0.372786 0.769902 0.524556
O O9 0.419114 0.702766 0.405740
O O10 0.205246 0.720109 0.250000
O O11 0.250000 0.750000 0.000000
O O12 0.212209 0.669213 0.015290
O O13 0.170522 0.156254 0.970265
O O14 0.270876 0.500000 0.500000
O O15 0.300278 0.463779 0.250000
O O16 0.261468 0.412245 0.449691
O O17 0.249161 0.146607 0.750000
#
# Coordination Sequence:
#
# PCOD9471709 Si02
#       7
#     4  16  16  16  16  16  16
#     4  12  20  28  46  80 102 140 182 236 276 328
#     4  10  20  32  47  67  95 130 174 222 271 320
#     4  11  23  37  54  77 108 143 184 228 272 318
#     4  12  25  37  56  80 110 148 186 227 271 321
#     4  11  20  29  51  71 104 139 181 225 272 318
#     4  10  22  37  56  75  97 128 167 218 273 326
#     4  10  21  37  55  77 104 140 178 223 271 321
#
# _framework density 16.798503
#
# number of rings (size 3 to 8) (size 9 to 14) (size 15 to 20)
#    0.000    1.280    4.000    2.400    2.240    5.440 
#    0.000    0.000    0.000    0.000    0.000    0.000 
#    0.000    0.640    0.000    2.080    0.000    2.560 
#
# Total GULP energy -278540.657034 kJ/mol
# GULP energy per Si atom -5570.813141 kJ/mol
# Density = 1.676027 g / cm^3
# Si number density = 16.798503 Si / 1000 Ang^3
#
#
#
# Elastic Constant Matrix: (Units=GPa)
#
#
# Indices 1 2 3 4 5 6 
#
# 1 66.3445 35.5869 38.8065 0.0000 0.0000 0.0000
# 2 35.5869 93.2912 48.6314 0.0000 0.0000 0.0000
# 3 38.8065 48.6314 126.7726 0.0000 0.0000 0.0000
# 4 0.0000 0.0000 0.0000 34.8745 0.0000 0.0000
# 5 0.0000 0.0000 0.0000 0.0000 22.9947 0.0000
# 6 0.0000 0.0000 0.0000 0.0000 0.0000 -36.6592
#
#
#
# Elastic Compliance Matrix: (Units=1/GPa)
#
#
# Indices 1 2 3 4 5 6 
#
# 1 0.020524 -0.005692 -0.004099 0.000000 0.000000 0.000000
# 2 -0.005692 0.014977 -0.004003 0.000000 0.000000 0.000000
# 3 -0.004099 -0.004003 0.010678 0.000000 0.000000 0.000000
# 4 0.000000 0.000000 0.000000 0.028674 0.000000 0.000000
# 5 0.000000 0.000000 0.000000 0.000000 0.043488 0.000000
# 6 0.000000 0.000000 0.000000 0.000000 0.000000 -0.027278
#
#
# Mechanical properties :
#
#
# Convention : Reuss Voigt Hill
#
# Bulk Modulus (GPa) = 53.78933 59.16199 56.47566
# Shear Modulus (GPa) = 40.04843 15.13424 27.59133
#
# Velocity S-wave (km/s) = 4.88797 3.00480 4.05716
# Velocity P-wave (km/s) = 7.99663 6.87994 7.45921
#
# Compressibility (1/GPa) = 0.01859105
#
# Stress axis : x y z
#
# Youngs Moduli (GPa) = 48.72419 66.76822 93.64670
#
# Poissons Ratio (x) = 0.38006 0.38385
# Poissons Ratio (y) = 0.27735 0.37486
# Poissons Ratio (z) = 0.19972 0.26727
#
# Static dielectric constant tensor:
#      x y z
#    x 1.610360 0.000000 0.000000 
#    y 0.000000 1.614490 0.000000 
#    z 0.000000 0.000000 1.590430 
# 
# From -- ./inp_files/9101.got.cif
#   From: 2010.05.17/outbox.cif.g08.bks.cpg/sg63_5_cif.got.tgz:9101.got - 2010.06.03 15:47:04.
