data_PCOD9471981
_publ_section_title
;
Structure prediction by ZEFSAII (Michael W. Deem and Ramdas Pophale) SiO2 
 PCOD9471981
Probable space group: C M C M
;
_chemical_formula_sum "Si O2"
_cell_formula_units_Z 80
_cell_length_a 9.061525
_cell_length_b 26.783059
_cell_length_c 19.105938
_cell_angle_alpha 90.000000
_cell_angle_beta 90.000000
_cell_angle_gamma 90.000000
_cell_volume 4636.922476
_symmetry_space_group_name_H-M "C M C M"
_symmetry_group_IT_number 63
_symmetry_cell_setting 'orthorhombic'
loop_
_space_group_symop_operation_xyz
x,y,z
-x,-y,1/2+z
x,-y,-z
-x,y,1/2-z
-x,-y,-z
x,y,1/2-z
-x,y,z
x,-y,1/2+z
1/2+x,1/2+y,z
1/2-x,1/2-y,1/2+z
1/2+x,1/2-y,-z
1/2-x,1/2+y,1/2-z
1/2-x,1/2-y,-z
1/2+x,1/2+y,1/2-z
1/2-x,1/2+y,z
1/2+x,1/2-y,1/2+z
loop_
_atom_site_type_symbol
_atom_site_label
_atom_site_fract_x
_atom_site_fract_y
_atom_site_fract_z
Si Si1 0.677817 0.445387 0.831053
Si Si2 0.324137 0.148064 0.914137
Si Si3 0.826117 0.058289 0.834043
Si Si4 0.677101 0.251565 0.076909
Si Si5 0.324114 0.859085 0.920349
O O1 0.723284 0.438326 0.750000
O O2 0.500000 0.443726 0.832902
O O3 0.720285 0.501744 0.853119
O O4 0.743117 0.402618 0.879374
O O5 0.500000 0.153966 0.908484
O O6 0.266815 0.100613 0.871882
O O7 0.244571 0.198940 0.888972
O O8 0.288416 0.140424 0.996691
O O9 0.812880 0.062306 0.750000
O O10 0.000000 0.064223 0.851320
O O11 0.500000 0.255749 0.071175
O O12 0.711197 0.196784 0.107755
O O13 0.750000 0.250000 0.000000
O O14 0.500000 0.865855 0.914146
#
# Coordination Sequence:
#
# PCOD9471981 Si02
#       5
#    16  16  16  16  16
#     4   9  19  35  53  73  98 130 168 207 247 294
#     4  10  20  33  51  77 104 130 166 208 248 295
#     4   9  19  36  54  72  98 132 168 206 250 298
#     4   9  17  31  50  73 102 134 166 202 248 297
#     4   9  19  33  50  75 103 130 162 202 246 293
#
# _framework density 17.252821999999998
#
# number of rings (size 3 to 8) (size 9 to 14) (size 15 to 20)
#    0.000    2.800    0.000    3.600    0.000    7.200 
#    0.000    7.000    0.000    1.200    0.000    0.000 
#    0.000    0.000    0.000    0.000    0.000    0.000 
#
# Total GULP energy -222893.447994 kJ/mol
# GULP energy per Si atom -5572.336200 kJ/mol
# Density = 1.721355 g / cm^3
# Si number density = 17.252822 Si / 1000 Ang^3
#
#
#
# Elastic Constant Matrix: (Units=GPa)
#
#
# Indices 1 2 3 4 5 6 
#
# 1 50.6102 67.5174 27.5014 0.0000 0.0000 0.0000
# 2 67.5174 182.8964 53.8920 0.0000 0.0000 0.0000
# 3 27.5014 53.8920 25.8305 0.0000 0.0000 0.0000
# 4 0.0000 0.0000 0.0000 -381.8110 0.0000 0.0000
# 5 0.0000 0.0000 0.0000 0.0000 27.2749 0.0000
# 6 0.0000 0.0000 0.0000 0.0000 0.0000 36.1967
#
#
#
# Elastic Compliance Matrix: (Units=1/GPa)
#
#
# Indices 1 2 3 4 5 6 
#
# 1 0.050325 -0.007242 -0.038471 0.000000 0.000000 0.000000
# 2 -0.007242 0.015235 -0.024075 0.000000 0.000000 0.000000
# 3 -0.038471 -0.024075 0.129904 0.000000 0.000000 0.000000
# 4 0.000000 0.000000 0.000000 -0.002619 0.000000 0.000000
# 5 0.000000 0.000000 0.000000 0.000000 0.036664 0.000000
# 6 0.000000 0.000000 0.000000 0.000000 0.000000 0.027627
#
#
# Mechanical properties :
#
#
# Convention : Reuss Voigt Hill
#
# Bulk Modulus (GPa) = 17.89322 61.90654 39.89988
# Shear Modulus (GPa) = 12.03828 -56.30613 -22.13393
#
# Velocity S-wave (km/s) = 2.64437 -5.71898 -3.58567
# Velocity P-wave (km/s) = 4.44042 2.76570 2.45644
#
# Compressibility (1/GPa) = 0.05588708
#
# Stress axis : x y z
#
# Youngs Moduli (GPa) = 19.87070 65.63788 7.69801
#
# Poissons Ratio (x) = 0.47536 0.29615
# Poissons Ratio (y) = 0.14391 0.18533
# Poissons Ratio (z) = 0.76444 1.58026
#
# Static dielectric constant tensor:
#      x y z
#    x 1.573650 0.000000 0.000000 
#    y 0.000000 1.606240 0.000000 
#    z 0.000000 0.000000 1.570100 
# 
# From -- ./inp_files/40433.got.cif
#   From: 2010.05.17/outbox.cif.g08.bks.cpg/sg63_21_cif.got.tgz:40433.got - 2010.06.03 15:47:04.
