data_PCOD9471547
_publ_section_title
;
Structure prediction by ZEFSAII (Michael W. Deem and Ramdas Pophale) SiO2 
 PCOD9471547
Probable space group: C M C M
;
_chemical_formula_sum "Si O2"
_cell_formula_units_Z 80
_cell_length_a 8.456673
_cell_length_b 28.372058
_cell_length_c 16.471470
_cell_angle_alpha 90.000000
_cell_angle_beta 90.000000
_cell_angle_gamma 90.000000
_cell_volume 3952.052783
_symmetry_space_group_name_H-M "C M C M"
_symmetry_group_IT_number 63
_symmetry_cell_setting 'orthorhombic'
loop_
_space_group_symop_operation_xyz
x,y,z
-x,-y,1/2+z
x,-y,-z
-x,y,1/2-z
-x,-y,-z
x,y,1/2-z
-x,y,z
x,-y,1/2+z
1/2+x,1/2+y,z
1/2-x,1/2-y,1/2+z
1/2+x,1/2-y,-z
1/2-x,1/2+y,1/2-z
1/2-x,1/2-y,-z
1/2+x,1/2+y,1/2-z
1/2-x,1/2+y,z
1/2+x,1/2-y,1/2+z
loop_
_atom_site_type_symbol
_atom_site_label
_atom_site_fract_x
_atom_site_fract_y
_atom_site_fract_z
Si Si1 0.311496 0.971945 0.659768
Si Si2 0.809654 0.771783 0.250000
Si Si3 0.190389 0.224931 0.082580
Si Si4 0.190992 0.883925 0.573746
Si Si5 0.690516 0.564069 0.589591
Si Si6 0.692826 0.381042 0.250000
O O1 0.256550 0.985892 0.750000
O O2 0.500000 0.973258 0.656936
O O3 0.253654 0.919472 0.641323
O O4 0.245014 0.010337 0.597496
O O5 0.749723 0.748217 0.166433
O O6 0.759501 0.826594 0.250000
O O7 0.000000 0.769870 0.250000
O O8 0.241751 0.170079 0.081184
O O9 0.000000 0.226467 0.081917
O O10 0.250000 0.250000 0.000000
O O11 0.244626 0.907676 0.489366
O O12 0.000000 0.884402 0.575488
O O13 0.500000 0.564118 0.588796
O O14 0.746219 0.591963 0.669474
O O15 0.500000 0.381835 0.250000
#
# Coordination Sequence:
#
# PCOD9471547 Si02
#       6
#    16   8  16  16  16   8
#     4  11  24  39  56  86 125 159 197 247 308 368
#     4  11  23  41  66  95 130 169 214 269 324 381
#     4  11  24  44  67  96 130 168 216 269 323 382
#     4  10  23  40  62  88 119 159 209 252 296 366
#     4  10  19  37  63  88 113 154 204 248 297 360
#     4   9  18  35  62  89 116 155 202 249 302 363
#
# _framework density 20.242646000000001
#
# number of rings (size 3 to 8) (size 9 to 14) (size 15 to 20)
#    0.000    1.600    1.000    3.300    1.400    9.200 
#    0.000    4.000    0.000    0.000    0.000    0.000 
#    0.000    0.000    0.000    0.000    0.000    0.000 
#
# Total GULP energy -223541.839259 kJ/mol
# GULP energy per Si atom -5588.545981 kJ/mol
# Density = 2.019657 g / cm^3
# Si number density = 20.242646 Si / 1000 Ang^3
#
#
#
# Elastic Constant Matrix: (Units=GPa)
#
#
# Indices 1 2 3 4 5 6 
#
# 1 23.3595 21.7085 20.5006 0.0000 0.0000 0.0000
# 2 21.7085 162.0642 52.7938 0.0000 0.0000 0.0000
# 3 20.5006 52.7938 119.9125 0.0000 0.0000 0.0000
# 4 0.0000 0.0000 0.0000 37.7190 0.0000 0.0000
# 5 0.0000 0.0000 0.0000 0.0000 21.9944 0.0000
# 6 0.0000 0.0000 0.0000 0.0000 0.0000 31.0470
#
#
#
# Elastic Compliance Matrix: (Units=1/GPa)
#
#
# Indices 1 2 3 4 5 6 
#
# 1 0.053487 -0.004887 -0.006993 0.000000 0.000000 0.000000
# 2 -0.004887 0.007650 -0.002533 0.000000 0.000000 0.000000
# 3 -0.006993 -0.002533 0.010650 0.000000 0.000000 0.000000
# 4 0.000000 0.000000 0.000000 0.026512 0.000000 0.000000
# 5 0.000000 0.000000 0.000000 0.000000 0.045466 0.000000
# 6 0.000000 0.000000 0.000000 0.000000 0.000000 0.032209
#
#
# Mechanical properties :
#
#
# Convention : Reuss Voigt Hill
#
# Bulk Modulus (GPa) = 23.27585 55.03799 39.15692
# Shear Modulus (GPa) = 22.81855 32.17430 27.49642
#
# Velocity S-wave (km/s) = 3.36110 3.99109 3.68957
# Velocity P-wave (km/s) = 5.15616 6.96323 6.12669
#
# Compressibility (1/GPa) = 0.04296299
#
# Stress axis : x y z
#
# Youngs Moduli (GPa) = 18.69601 130.71924 93.89695
#
# Poissons Ratio (x) = 0.63878 0.65661
# Poissons Ratio (y) = 0.09136 0.23781
# Poissons Ratio (z) = 0.13074 0.33106
#
# Static dielectric constant tensor:
#      x y z
#    x 1.695130 0.000000 0.000000 
#    y 0.000000 1.689630 0.000000 
#    z 0.000000 0.000000 1.726200 
# 
# From -- ./inp_files/40742.got.cif
#   From: 2010.05.17/outbox.cif.g08.bks.cpg/sg63_21_cif.got.tgz:40742.got - 2010.06.03 15:47:04.
