data_PCOD9471458
_publ_section_title
;
Structure prediction by ZEFSAII (Michael W. Deem and Ramdas Pophale) SiO2 
 PCOD9471458
Probable space group: C M C M
;
_chemical_formula_sum "Si O2"
_cell_formula_units_Z 116
_cell_length_a 24.256290
_cell_length_b 14.632018
_cell_length_c 16.054484
_cell_angle_alpha 90.000000
_cell_angle_beta 90.000000
_cell_angle_gamma 90.000000
_cell_volume 5698.032928
_symmetry_space_group_name_H-M "C M C M"
_symmetry_group_IT_number 63
_symmetry_cell_setting 'orthorhombic'
loop_
_space_group_symop_operation_xyz
x,y,z
-x,-y,1/2+z
x,-y,-z
-x,y,1/2-z
-x,-y,-z
x,y,1/2-z
-x,y,z
x,-y,1/2+z
1/2+x,1/2+y,z
1/2-x,1/2-y,1/2+z
1/2+x,1/2-y,-z
1/2-x,1/2+y,1/2-z
1/2-x,1/2-y,-z
1/2+x,1/2+y,1/2-z
1/2-x,1/2+y,z
1/2+x,1/2-y,1/2+z
loop_
_atom_site_type_symbol
_atom_site_label
_atom_site_fract_x
_atom_site_fract_y
_atom_site_fract_z
Si Si1 0.219506 0.160385 0.156339
Si Si2 0.933687 0.396579 0.154320
Si Si3 0.500000 0.662935 0.750000
Si Si4 0.062810 0.402036 0.850275
Si Si5 0.871804 0.755133 0.552013
Si Si6 0.599231 0.297165 0.378646
Si Si7 0.287741 0.901803 0.501935
Si Si8 0.221535 0.142297 0.659659
O O1 0.216952 0.122904 0.250000
O O2 0.159717 0.179095 0.116075
O O3 0.248517 0.259453 0.161832
O O4 0.255495 0.107608 0.088509
O O5 0.914280 0.385853 0.250000
O O6 0.917365 0.497985 0.123320
O O7 0.911142 0.314989 0.099613
O O8 0.000000 0.396982 0.154864
O O9 0.451432 0.669313 0.822969
O O10 0.058811 0.406917 0.750000
O O11 0.098528 0.313737 0.869005
O O12 0.000000 0.386631 0.881924
O O13 0.902155 0.808795 0.478307
O O14 0.825144 0.687900 0.511963
O O15 0.656551 0.339940 0.348731
O O16 0.245367 0.902486 0.423815
O O17 0.316961 0.000000 0.500000
O O18 0.233518 0.098028 0.750000
#
# Coordination Sequence:
#
# PCOD9471458 Si02
#       8
#    16  16   4  16  16  16  16  16
#     4  10  20  39  60  79 108 153 196 233 294 339
#     4   9  20  34  49  72 112 156 196 232 274 322
#     4  12  24  32  52  94 112 156 188 238 276 358
#     4   9  16  30  45  68 109 151 185 225 265 321
#     4  11  22  35  55  80 110 155 192 240 278 342
#     4  12  19  32  54  77 118 140 191 221 283 335
#     4  11  23  39  55  85 116 141 196 244 292 355
#     4  10  19  36  60  80 110 152 182 238 288 337
#
# _framework density 20.357901999999999
#
# number of rings (size 3 to 8) (size 9 to 14) (size 15 to 20)
#    0.000    1.655    4.828    2.069    2.897    1.103 
#    0.000    1.379    0.000    0.000    0.000    0.483 
#    0.000    0.276    0.000    0.000    0.000    0.000 
#
# Total GULP energy -323122.103572 kJ/mol
# GULP energy per Si atom -5571.070751 kJ/mol
# Density = 2.031157 g / cm^3
# Si number density = 20.357902 Si / 1000 Ang^3
#
#
#
# Elastic Constant Matrix: (Units=GPa)
#
#
# Indices 1 2 3 4 5 6 
#
# 1 77.8667 -3.5741 46.7039 0.0000 0.0000 0.0000
# 2 -3.5741 23.3922 17.3993 0.0000 0.0000 0.0000
# 3 46.7039 17.3993 152.2895 0.0000 0.0000 0.0000
# 4 0.0000 0.0000 0.0000 -10.9375 0.0000 0.0000
# 5 0.0000 0.0000 0.0000 0.0000 34.2925 0.0000
# 6 0.0000 0.0000 0.0000 0.0000 0.0000 -28.7001
#
#
#
# Elastic Compliance Matrix: (Units=1/GPa)
#
#
# Indices 1 2 3 4 5 6 
#
# 1 0.016713 0.006957 -0.005920 0.000000 0.000000 0.000000
# 2 0.006957 0.049616 -0.007802 0.000000 0.000000 0.000000
# 3 -0.005920 -0.007802 0.009273 0.000000 0.000000 0.000000
# 4 0.000000 0.000000 0.000000 -0.091429 0.000000 0.000000
# 5 0.000000 0.000000 0.000000 0.000000 0.029161 0.000000
# 6 0.000000 0.000000 0.000000 0.000000 0.000000 -0.034843
#
#
# Mechanical properties :
#
#
# Convention : Reuss Voigt Hill
#
# Bulk Modulus (GPa) = 16.11063 41.62296 28.86680
# Shear Modulus (GPa) = 393.32739 11.79894 202.56317
#
# Velocity S-wave (km/s) = 13.91494 2.41005 9.98584
# Velocity P-wave (km/s) = 16.31252 5.31361 12.13122
#
# Compressibility (1/GPa) = 0.06207081
#
# Stress axis : x y z
#
# Youngs Moduli (GPa) = 59.83466 20.15499 107.83442
#
# Poissons Ratio (x) = -0.14022 0.63841
# Poissons Ratio (y) = -0.41627 0.84135
# Poissons Ratio (z) = 0.35424 0.15725
#
# Static dielectric constant tensor:
#      x y z
#    x 1.731590 0.000000 0.000000 
#    y 0.000000 1.706480 0.000000 
#    z 0.000000 0.000000 1.782460 
# 
# From -- ./inp_files/38098.got.cif
#   From: 2010.05.17/outbox.cif.g08.bks.cpg/sg63_20_cif.got.tgz:38098.got - 2010.06.03 15:47:04.
