data_PCOD9471712
_publ_section_title
;
Structure prediction by ZEFSAII (Michael W. Deem and Ramdas Pophale) SiO2 
 PCOD9471712
Probable space group: C M C M
;
_chemical_formula_sum "Si O2"
_cell_formula_units_Z 80
_cell_length_a 13.883887
_cell_length_b 21.365258
_cell_length_c 17.252991
_cell_angle_alpha 90.000000
_cell_angle_beta 90.000000
_cell_angle_gamma 90.000000
_cell_volume 5117.803508
_symmetry_space_group_name_H-M "C M C M"
_symmetry_group_IT_number 63
_symmetry_cell_setting 'orthorhombic'
loop_
_space_group_symop_operation_xyz
x,y,z
-x,-y,1/2+z
x,-y,-z
-x,y,1/2-z
-x,-y,-z
x,y,1/2-z
-x,y,z
x,-y,1/2+z
1/2+x,1/2+y,z
1/2-x,1/2-y,1/2+z
1/2+x,1/2-y,-z
1/2-x,1/2+y,1/2-z
1/2-x,1/2-y,-z
1/2+x,1/2+y,1/2-z
1/2-x,1/2+y,z
1/2+x,1/2-y,1/2+z
loop_
_atom_site_type_symbol
_atom_site_label
_atom_site_fract_x
_atom_site_fract_y
_atom_site_fract_z
Si Si1 0.389691 0.209487 0.481931
Si Si2 0.611860 0.880562 0.660385
Si Si3 0.268755 0.457367 0.927595
Si Si4 0.304029 0.654653 0.964377
Si Si5 0.385531 0.437303 0.341593
O O1 0.500000 0.199259 0.506594
O O2 0.378639 0.179395 0.396050
O O3 0.364153 0.282576 0.479016
O O4 0.308363 0.174940 0.532972
O O5 0.634896 0.867031 0.750000
O O6 0.500000 0.900259 0.656279
O O7 0.682066 0.932827 0.625345
O O8 0.341486 0.499838 0.878817
O O9 0.234043 0.500000 0.000000
O O10 0.316730 0.396549 0.967389
O O11 0.335972 0.620326 0.886266
O O12 0.367771 0.435484 0.250000
O O13 0.500000 0.434862 0.355138
#
# Coordination Sequence:
#
# PCOD9471712 Si02
#       5
#    16  16  16  16  16
#     4   9  17  30  48  70  94 120 154 191 227 270
#     4   9  17  29  46  68  93 120 150 186 227 269
#     4   9  18  31  47  67  92 121 153 188 224 267
#     4   9  18  31  48  70  92 121 154 187 230 271
#     4  10  20  32  47  68  93 120 151 189 231 274
#
# _framework density 15.631707
#
# number of rings (size 3 to 8) (size 9 to 14) (size 15 to 20)
#    0.000    2.800    0.000    1.200    0.000    5.600 
#    0.000    5.000    0.000    1.800    0.000    0.000 
#    0.000    0.000    0.000    0.000    0.000    0.000 
#
# Total GULP energy -222767.191325 kJ/mol
# GULP energy per Si atom -5569.179783 kJ/mol
# Density = 1.559613 g / cm^3
# Si number density = 15.631707 Si / 1000 Ang^3
#
#
#
# Elastic Constant Matrix: (Units=GPa)
#
#
# Indices 1 2 3 4 5 6 
#
# 1 92.3445 54.8263 62.0766 0.0000 0.0000 0.0000
# 2 54.8263 109.6577 52.1490 0.0000 0.0000 0.0000
# 3 62.0766 52.1490 90.3427 0.0000 0.0000 0.0000
# 4 0.0000 0.0000 0.0000 8.4905 0.0000 0.0000
# 5 0.0000 0.0000 0.0000 0.0000 25.8333 0.0000
# 6 0.0000 0.0000 0.0000 0.0000 0.0000 17.3479
#
#
#
# Elastic Compliance Matrix: (Units=1/GPa)
#
#
# Indices 1 2 3 4 5 6 
#
# 1 0.022146 -0.005287 -0.012165 0.000000 0.000000 0.000000
# 2 -0.005287 0.013832 -0.004351 0.000000 0.000000 0.000000
# 3 -0.012165 -0.004351 0.021940 0.000000 0.000000 0.000000
# 4 0.000000 0.000000 0.000000 0.117779 0.000000 0.000000
# 5 0.000000 0.000000 0.000000 0.000000 0.038710 0.000000
# 6 0.000000 0.000000 0.000000 0.000000 0.000000 0.057644
#
#
# Mechanical properties :
#
#
# Convention : Reuss Voigt Hill
#
# Bulk Modulus (GPa) = 69.87948 70.04985 69.96466
# Shear Modulus (GPa) = 15.60417 18.55388 17.07902
#
# Velocity S-wave (km/s) = 3.16292 3.44893 3.30902
# Velocity P-wave (km/s) = 7.62492 7.79552 7.71069
#
# Compressibility (1/GPa) = 0.01431035
#
# Stress axis : x y z
#
# Youngs Moduli (GPa) = 45.15561 72.29543 45.57989
#
# Poissons Ratio (x) = 0.38224 0.55447
# Poissons Ratio (y) = 0.23875 0.19834
# Poissons Ratio (z) = 0.54931 0.31459
#
# Static dielectric constant tensor:
#      x y z
#    x 1.515740 0.000000 0.000000 
#    y 0.000000 1.515570 0.000000 
#    z 0.000000 0.000000 1.506590 
# 
# From -- ./inp_files/31661.got.cif
#   From: 2010.05.17/outbox.cif.g08.bks.cpg/sg63_16_cif.got.tgz:31661.got - 2010.06.03 15:47:04.
