data_PCOD9471250
_publ_section_title
;
Structure prediction by ZEFSAII (Michael W. Deem and Ramdas Pophale) SiO2 
 PCOD9471250
Probable space group: C M C M
;
_chemical_formula_sum "Si O2"
_cell_formula_units_Z 100
_cell_length_a 19.208910
_cell_length_b 34.077309
_cell_length_c 7.458602
_cell_angle_alpha 90.000000
_cell_angle_beta 90.000000
_cell_angle_gamma 90.000000
_cell_volume 4882.311080
_symmetry_space_group_name_H-M "C M C M"
_symmetry_group_IT_number 63
_symmetry_cell_setting 'orthorhombic'
loop_
_space_group_symop_operation_xyz
x,y,z
-x,-y,1/2+z
x,-y,-z
-x,y,1/2-z
-x,-y,-z
x,y,1/2-z
-x,y,z
x,-y,1/2+z
1/2+x,1/2+y,z
1/2-x,1/2-y,1/2+z
1/2+x,1/2-y,-z
1/2-x,1/2+y,1/2-z
1/2-x,1/2-y,-z
1/2+x,1/2+y,1/2-z
1/2-x,1/2+y,z
1/2+x,1/2-y,1/2+z
loop_
_atom_site_type_symbol
_atom_site_label
_atom_site_fract_x
_atom_site_fract_y
_atom_site_fract_z
Si Si1 0.500000 0.534912 0.250000
Si Si2 0.919413 0.221798 0.531581
Si Si3 0.681823 0.876381 0.957328
Si Si4 0.419255 0.809310 0.531076
Si Si5 0.390462 0.439776 0.454888
Si Si6 0.232776 0.457126 0.536615
Si Si7 0.338841 0.354897 0.466451
O O1 0.439309 0.538792 0.406114
O O2 0.917971 0.221241 0.750000
O O3 0.896867 0.265429 0.474578
O O4 0.873584 0.185294 0.470280
O O5 0.000000 0.216548 0.479218
O O6 0.660623 0.880805 0.750000
O O7 0.629867 0.844134 0.035619
O O8 0.688303 0.920309 0.033751
O O9 0.760759 0.860416 0.964597
O O10 0.416886 0.809028 0.750000
O O11 0.500000 0.814725 0.480925
O O12 0.416023 0.442931 0.250000
O O13 0.310770 0.454476 0.459345
O O14 0.384057 0.393634 0.509323
O O15 0.203214 0.500000 0.500000
O O16 0.240501 0.452026 0.750000
O O17 0.334603 0.354296 0.250000
#
# Coordination Sequence:
#
# PCOD9471250 Si02
#       7
#     4  16  16  16  16  16  16
#     4  12  22  36  54  78 110 148 186 228 272 332
#     4   8  14  25  42  67  98 135 177 218 255 304
#     4   9  18  31  50  76 100 127 165 214 267 314
#     4   8  14  27  48  73 102 133 168 209 259 318
#     4  10  21  36  54  77 107 144 185 229 276 317
#     4  10  19  35  56  76 102 132 171 222 266 321
#     4   9  18  30  46  71 100 136 180 220 259 308
#
# _framework density 20.482102999999999
#
# number of rings (size 3 to 8) (size 9 to 14) (size 15 to 20)
#    0.000    2.880    0.800    1.680    2.240    1.280 
#    0.000    0.400    0.000    0.960    0.000    2.240 
#    0.000    0.000    0.000    0.000    0.000    0.480 
#
# Total GULP energy -278617.680861 kJ/mol
# GULP energy per Si atom -5572.353617 kJ/mol
# Density = 2.043548 g / cm^3
# Si number density = 20.482103 Si / 1000 Ang^3
#
#
#
# Elastic Constant Matrix: (Units=GPa)
#
#
# Indices 1 2 3 4 5 6 
#
# 1 42.0542 67.2318 10.6518 0.0000 0.0000 0.0000
# 2 67.2318 199.8027 15.1789 0.0000 0.0000 0.0000
# 3 10.6518 15.1789 86.3740 0.0000 0.0000 0.0000
# 4 0.0000 0.0000 0.0000 5.1314 0.0000 0.0000
# 5 0.0000 0.0000 0.0000 0.0000 21.5940 0.0000
# 6 0.0000 0.0000 0.0000 0.0000 0.0000 84.1352
#
#
#
# Elastic Compliance Matrix: (Units=1/GPa)
#
#
# Indices 1 2 3 4 5 6 
#
# 1 0.052437 -0.017385 -0.003411 0.000000 0.000000 0.000000
# 2 -0.017385 0.010837 0.000240 0.000000 0.000000 0.000000
# 3 -0.003411 0.000240 0.011956 0.000000 0.000000 0.000000
# 4 0.000000 0.000000 0.000000 0.194878 0.000000 0.000000
# 5 0.000000 0.000000 0.000000 0.000000 0.046309 0.000000
# 6 0.000000 0.000000 0.000000 0.000000 0.000000 0.011886
#
#
# Mechanical properties :
#
#
# Convention : Reuss Voigt Hill
#
# Bulk Modulus (GPa) = 29.31226 57.15064 43.23145
# Shear Modulus (GPa) = 13.13066 37.85001 25.49033
#
# Velocity S-wave (km/s) = 2.53470 4.30345 3.53160
# Velocity P-wave (km/s) = 4.78628 7.25646 6.14673
#
# Compressibility (1/GPa) = 0.03411541
#
# Stress axis : x y z
#
# Youngs Moduli (GPa) = 19.07061 92.27871 83.63896
#
# Poissons Ratio (x) = 1.60429 0.28532
# Poissons Ratio (y) = 0.33155 -0.02004
# Poissons Ratio (z) = 0.06506 -0.02211
#
# Static dielectric constant tensor:
#      x y z
#    x 1.665040 0.000000 0.000000 
#    y 0.000000 1.787190 0.000000 
#    z 0.000000 0.000000 1.796170 
# 
# From -- ./inp_files/9179.got.cif
#   From: 2010.05.17/outbox.cif.g08.bks.cpg/sg63_5_cif.got.tgz:9179.got - 2010.06.03 15:47:04.
