data_PCOD9471640
_publ_section_title
;
Structure prediction by ZEFSAII (Michael W. Deem and Ramdas Pophale) SiO2 
 PCOD9471640
Probable space group: C M C M
;
_chemical_formula_sum "Si O2"
_cell_formula_units_Z 76
_cell_length_a 7.817521
_cell_length_b 22.111587
_cell_length_c 19.934054
_cell_angle_alpha 90.000000
_cell_angle_beta 90.000000
_cell_angle_gamma 90.000000
_cell_volume 3445.756634
_symmetry_space_group_name_H-M "C M C M"
_symmetry_group_IT_number 63
_symmetry_cell_setting 'orthorhombic'
loop_
_space_group_symop_operation_xyz
x,y,z
-x,-y,1/2+z
x,-y,-z
-x,y,1/2-z
-x,-y,-z
x,y,1/2-z
-x,y,z
x,-y,1/2+z
1/2+x,1/2+y,z
1/2-x,1/2-y,1/2+z
1/2+x,1/2-y,-z
1/2-x,1/2+y,1/2-z
1/2-x,1/2-y,-z
1/2+x,1/2+y,1/2-z
1/2-x,1/2+y,z
1/2+x,1/2-y,1/2+z
loop_
_atom_site_type_symbol
_atom_site_label
_atom_site_fract_x
_atom_site_fract_y
_atom_site_fract_z
Si Si1 0.193233 0.960694 0.394887
Si Si2 0.500000 0.084458 0.822890
Si Si3 0.706685 0.406131 0.601830
Si Si4 0.196290 0.110646 0.250000
Si Si5 0.500000 0.727364 0.250000
Si Si6 0.000000 0.708250 0.895689
Si Si7 0.200014 0.834469 0.021906
O O1 0.329875 0.952499 0.336399
O O2 0.198574 0.900709 0.440652
O O3 0.000000 0.965071 0.369070
O O4 0.233293 0.026207 0.426530
O O5 0.500000 0.111863 0.750000
O O6 0.500000 0.138165 0.875190
O O7 0.500000 0.396570 0.605198
O O8 0.774045 0.404728 0.677937
O O9 0.766633 0.353971 0.551686
O O10 0.000000 0.084586 0.250000
O O11 0.162855 0.182699 0.250000
O O12 0.500000 0.758322 0.323750
O O13 0.173487 0.711438 0.939693
O O14 0.000000 0.815583 0.020748
#
# Coordination Sequence:
#
# PCOD9471640 Si02
#       7
#    16   8  16   8   4   8  16
#     4   9  18  30  50  79 114 152 179 209 265 322
#     4  10  20  31  45  78 115 137 182 225 256 322
#     4   9  16  31  53  80 114 147 184 220 263 328
#     4   8  18  32  55  78 103 145 186 225 275 327
#     4  10  20  40  58  78 108 144 190 226 302 334
#     4  10  20  37  58  81 106 146 184 230 282 334
#     4   9  18  33  56  86 116 142 183 225 270 327
#
# _framework density 22.056114000000001
#
# number of rings (size 3 to 8) (size 9 to 14) (size 15 to 20)
#    0.316    2.526    0.526    0.632    1.474    3.789 
#    0.000    4.737    0.000    0.000    8.211    0.000 
#    0.000    0.000    0.000    0.000    0.000    0.000 
#
# Total GULP energy -211601.851690 kJ/mol
# GULP energy per Si atom -5568.469781 kJ/mol
# Density = 2.200591 g / cm^3
# Si number density = 22.056114 Si / 1000 Ang^3
#
#
#
# Elastic Constant Matrix: (Units=GPa)
#
#
# Indices 1 2 3 4 5 6 
#
# 1 69.7424 27.3438 42.8231 0.0000 0.0000 0.0000
# 2 27.3438 82.4595 27.3169 0.0000 0.0000 0.0000
# 3 42.8231 27.3169 124.4255 0.0000 0.0000 0.0000
# 4 0.0000 0.0000 0.0000 35.9639 0.0000 0.0000
# 5 0.0000 0.0000 0.0000 0.0000 -11.6290 0.0000
# 6 0.0000 0.0000 0.0000 0.0000 0.0000 2.1264
#
#
#
# Elastic Compliance Matrix: (Units=1/GPa)
#
#
# Indices 1 2 3 4 5 6 
#
# 1 0.019687 -0.004620 -0.005762 0.000000 0.000000 0.000000
# 2 -0.004620 0.014162 -0.001519 0.000000 0.000000 0.000000
# 3 -0.005762 -0.001519 0.010353 0.000000 0.000000 0.000000
# 4 0.000000 0.000000 0.000000 0.027806 0.000000 0.000000
# 5 0.000000 0.000000 0.000000 0.000000 -0.085992 0.000000
# 6 0.000000 0.000000 0.000000 0.000000 0.000000 0.470285
#
#
# Mechanical properties :
#
#
# Convention : Reuss Voigt Hill
#
# Bulk Modulus (GPa) = 49.01462 52.39946 50.70704
# Shear Modulus (GPa) = 10.26897 17.23516 13.75206
#
# Velocity S-wave (km/s) = 2.16008 2.79843 2.49971
# Velocity P-wave (km/s) = 5.33781 5.85239 5.60101
#
# Compressibility (1/GPa) = 0.02040208
#
# Stress axis : x y z
#
# Youngs Moduli (GPa) = 50.79387 70.60950 96.58650
#
# Poissons Ratio (x) = 0.32620 0.55648
# Poissons Ratio (y) = 0.23466 0.14674
# Poissons Ratio (z) = 0.29265 0.10728
#
# Static dielectric constant tensor:
#      x y z
#    x 1.824470 0.000000 0.000000 
#    y 0.000000 1.855800 0.000000 
#    z 0.000000 0.000000 1.847450 
# 
# From -- ./inp_files/40652.got.cif
#   From: 2010.05.17/outbox.cif.g08.bks.cpg/sg63_21_cif.got.tgz:40652.got - 2010.06.03 15:47:04.
