data_PCOD9471875
_publ_section_title
;
Structure prediction by ZEFSAII (Michael W. Deem and Ramdas Pophale) SiO2 
 PCOD9471875
Probable space group: C M C M
;
_chemical_formula_sum "Si O2"
_cell_formula_units_Z 80
_cell_length_a 7.649206
_cell_length_b 28.287840
_cell_length_c 18.701394
_cell_angle_alpha 90.000000
_cell_angle_beta 90.000000
_cell_angle_gamma 90.000000
_cell_volume 4046.598572
_symmetry_space_group_name_H-M "C M C M"
_symmetry_group_IT_number 63
_symmetry_cell_setting 'orthorhombic'
loop_
_space_group_symop_operation_xyz
x,y,z
-x,-y,1/2+z
x,-y,-z
-x,y,1/2-z
-x,-y,-z
x,y,1/2-z
-x,y,z
x,-y,1/2+z
1/2+x,1/2+y,z
1/2-x,1/2-y,1/2+z
1/2+x,1/2-y,-z
1/2-x,1/2+y,1/2-z
1/2-x,1/2-y,-z
1/2+x,1/2+y,1/2-z
1/2-x,1/2+y,z
1/2+x,1/2-y,1/2+z
loop_
_atom_site_type_symbol
_atom_site_label
_atom_site_fract_x
_atom_site_fract_y
_atom_site_fract_z
Si Si1 0.793391 0.199516 0.091152
Si Si2 0.712171 0.896475 0.830517
Si Si3 0.708338 0.642518 0.956564
Si Si4 0.210205 0.292735 0.168768
Si Si5 0.294976 0.952201 0.966926
O O1 0.768644 0.155885 0.145411
O O2 0.719457 0.247207 0.125296
O O3 0.000000 0.207341 0.080788
O O4 0.722195 0.180544 0.015333
O O5 0.769490 0.907037 0.750000
O O6 0.500000 0.896846 0.831863
O O7 0.777334 0.932404 0.891720
O O8 0.500000 0.639725 0.965198
O O9 0.749935 0.661405 0.878332
O O10 0.780298 0.591502 0.978293
O O11 0.275982 0.294236 0.250000
O O12 0.000000 0.288015 0.172551
O O13 0.500000 0.961464 0.953513
O O14 0.217999 0.000000 0.000000
#
# Coordination Sequence:
#
# PCOD9471875 Si02
#       5
#    16  16  16  16  16
#     4   9  18  32  50  72  98 130 164 196 237 290
#     4   9  17  29  47  73 100 123 154 201 250 290
#     4  10  20  33  51  74  99 127 161 204 249 293
#     4  10  20  33  49  70  99 135 170 200 233 282
#     4   9  18  34  54  72  94 128 167 204 245 295
#
# _framework density 19.769691999999999
#
# number of rings (size 3 to 8) (size 9 to 14) (size 15 to 20)
#    0.000    2.600    0.000    1.800    0.000    3.600 
#    0.000    1.000    0.000    3.600    0.000    0.000 
#    0.000    0.000    0.000    0.000    0.000    0.000 
#
# Total GULP energy -223176.696788 kJ/mol
# GULP energy per Si atom -5579.417420 kJ/mol
# Density = 1.972470 g / cm^3
# Si number density = 19.769692 Si / 1000 Ang^3
#
#
#
# Elastic Constant Matrix: (Units=GPa)
#
#
# Indices 1 2 3 4 5 6 
#
# 1 31.7919 -19.8285 -15.4146 0.0000 0.0000 0.0000
# 2 -19.8285 92.2876 65.3759 0.0000 0.0000 0.0000
# 3 -15.4146 65.3759 100.0544 0.0000 0.0000 0.0000
# 4 0.0000 0.0000 0.0000 17.0791 0.0000 0.0000
# 5 0.0000 0.0000 0.0000 0.0000 3.8841 0.0000
# 6 0.0000 0.0000 0.0000 0.0000 0.0000 9.7793
#
#
#
# Elastic Compliance Matrix: (Units=1/GPa)
#
#
# Indices 1 2 3 4 5 6 
#
# 1 0.036368 0.007158 0.000926 0.000000 0.000000 0.000000
# 2 0.007158 0.021582 -0.012999 0.000000 0.000000 0.000000
# 3 0.000926 -0.012999 0.018631 0.000000 0.000000 0.000000
# 4 0.000000 0.000000 0.000000 0.058551 0.000000 0.000000
# 5 0.000000 0.000000 0.000000 0.000000 0.257460 0.000000
# 6 0.000000 0.000000 0.000000 0.000000 0.000000 0.102257
#
#
# Mechanical properties :
#
#
# Convention : Reuss Voigt Hill
#
# Bulk Modulus (GPa) = 14.98121 31.59996 23.29059
# Shear Modulus (GPa) = 9.48894 19.08189 14.28542
#
# Velocity S-wave (km/s) = 2.19321 3.11015 2.69102
# Velocity P-wave (km/s) = 3.74271 5.37737 4.63271
#
# Compressibility (1/GPa) = 0.06675029
#
# Stress axis : x y z
#
# Youngs Moduli (GPa) = 27.49681 46.33482 53.67452
#
# Poissons Ratio (x) = -0.33166 -0.04970
# Poissons Ratio (y) = -0.19682 0.69772
# Poissons Ratio (z) = -0.02546 0.60231
#
# Static dielectric constant tensor:
#      x y z
#    x 1.722030 0.000000 0.000000 
#    y 0.000000 1.674980 0.000000 
#    z 0.000000 0.000000 1.712510 
# 
# From -- ./inp_files/40424.got.cif
#   From: 2010.05.17/outbox.cif.g08.bks.cpg/sg63_21_cif.got.tgz:40424.got - 2010.06.03 15:47:04.
