data_PCOD9471924
_publ_section_title
;
Structure prediction by ZEFSAII (Michael W. Deem and Ramdas Pophale) SiO2 
 PCOD9471924
Probable space group: C M C M
;
_chemical_formula_sum "Si O2"
_cell_formula_units_Z 96
_cell_length_a 19.231353
_cell_length_b 33.843983
_cell_length_c 8.351697
_cell_angle_alpha 90.000000
_cell_angle_beta 90.000000
_cell_angle_gamma 90.000000
_cell_volume 5435.832145
_symmetry_space_group_name_H-M "C M C M"
_symmetry_group_IT_number 63
_symmetry_cell_setting 'orthorhombic'
loop_
_space_group_symop_operation_xyz
x,y,z
-x,-y,1/2+z
x,-y,-z
-x,y,1/2-z
-x,-y,-z
x,y,1/2-z
-x,y,z
x,-y,1/2+z
1/2+x,1/2+y,z
1/2-x,1/2-y,1/2+z
1/2+x,1/2-y,-z
1/2-x,1/2+y,1/2-z
1/2-x,1/2-y,-z
1/2+x,1/2+y,1/2-z
1/2-x,1/2+y,z
1/2+x,1/2-y,1/2+z
loop_
_atom_site_type_symbol
_atom_site_label
_atom_site_fract_x
_atom_site_fract_y
_atom_site_fract_z
Si Si1 0.290800 0.879832 0.558860
Si Si2 0.079615 0.332404 0.443227
Si Si3 0.580344 0.743198 0.055007
Si Si4 0.653293 0.664732 0.443673
Si Si5 0.215638 0.043820 0.941119
Si Si6 0.077667 0.912352 0.056476
O O1 0.288866 0.880453 0.750000
O O2 0.364427 0.863473 0.503037
O O3 0.229012 0.850303 0.501626
O O4 0.270030 0.923105 0.497562
O O5 0.080227 0.332439 0.250000
O O6 0.098454 0.287673 0.497076
O O7 0.000000 0.340202 0.494155
O O8 0.582024 0.743259 0.250000
O O9 0.500000 0.735363 0.009452
O O10 0.629735 0.707880 0.999084
O O11 0.653253 0.665164 0.250000
O O12 0.599134 0.631350 0.499661
O O13 0.214406 0.043885 0.750000
O O14 0.139383 0.058678 0.999644
O O15 0.230713 0.000000 0.000000
O O16 0.077954 0.912671 0.250000
O O17 0.000000 0.922694 0.001330
#
# Coordination Sequence:
#
# PCOD9471924 Si02
#       6
#    16  16  16  16  16  16
#     4  10  20  33  50  74 101 127 159 200 245 292
#     4   9  18  33  52  72  95 127 165 201 242 294
#     4   8  14  26  45  68  95 130 171 209 241 276
#     4   9  17  29  46  69  97 132 173 209 239 278
#     4  10  20  35  54  74  98 128 161 198 241 290
#     4   9  18  31  46  68 100 135 168 203 243 282
#
# _framework density 17.660589000000002
#
# number of rings (size 3 to 8) (size 9 to 14) (size 15 to 20)
#    0.000    2.833    0.000    2.500    0.000    3.667 
#    0.000    0.833    0.000    1.500    0.000    0.000 
#    0.000    0.000    0.000    0.000    0.000    0.000 
#
# Total GULP energy -267610.686562 kJ/mol
# GULP energy per Si atom -5575.222637 kJ/mol
# Density = 1.762039 g / cm^3
# Si number density = 17.660589 Si / 1000 Ang^3
#
#
#
# Elastic Constant Matrix: (Units=GPa)
#
#
# Indices 1 2 3 4 5 6 
#
# 1 103.2712 103.1675 21.1883 0.0000 0.0000 0.0000
# 2 103.1675 155.3546 24.3829 0.0000 0.0000 0.0000
# 3 21.1883 24.3829 14.7507 0.0000 0.0000 0.0000
# 4 0.0000 0.0000 0.0000 20.4431 0.0000 0.0000
# 5 0.0000 0.0000 0.0000 0.0000 17.9738 0.0000
# 6 0.0000 0.0000 0.0000 0.0000 0.0000 8.8052
#
#
#
# Elastic Compliance Matrix: (Units=1/GPa)
#
#
# Indices 1 2 3 4 5 6 
#
# 1 0.030793 -0.018238 -0.014084 0.000000 0.000000 0.000000
# 2 -0.018238 0.019494 -0.006026 0.000000 0.000000 0.000000
# 3 -0.014084 -0.006026 0.097984 0.000000 0.000000 0.000000
# 4 0.000000 0.000000 0.000000 0.048916 0.000000 0.000000
# 5 0.000000 0.000000 0.000000 0.000000 0.055637 0.000000
# 6 0.000000 0.000000 0.000000 0.000000 0.000000 0.113569
#
#
# Mechanical properties :
#
#
# Convention : Reuss Voigt Hill
#
# Bulk Modulus (GPa) = 13.97129 63.42823 38.69976
# Shear Modulus (GPa) = 10.70783 17.75362 14.23073
#
# Velocity S-wave (km/s) = 2.46501 3.17404 2.84172
# Velocity P-wave (km/s) = 4.00373 7.03035 5.72082
#
# Compressibility (1/GPa) = 0.07157536
#
# Stress axis : x y z
#
# Youngs Moduli (GPa) = 32.47501 51.29675 10.20573
#
# Poissons Ratio (x) = 0.93557 0.14373
# Poissons Ratio (y) = 0.59229 0.06150
# Poissons Ratio (z) = 0.45736 0.30912
#
# Static dielectric constant tensor:
#      x y z
#    x 1.602280 0.000000 0.000000 
#    y 0.000000 1.587440 0.000000 
#    z 0.000000 0.000000 1.602860 
# 
# From -- ./inp_files/8564.got.cif
#   From: 2010.05.17/outbox.cif.g08.bks.cpg/sg63_5_cif.got.tgz:8564.got - 2010.06.03 15:47:04.
