data_PCOD9471033
_publ_section_title
;
Structure prediction by ZEFSAII (Michael W. Deem and Ramdas Pophale) SiO2 
 PCOD9471033
Probable space group: C M C M
;
_chemical_formula_sum "Si O2"
_cell_formula_units_Z 72
_cell_length_a 16.542540
_cell_length_b 8.809846
_cell_length_c 23.483816
_cell_angle_alpha 90.000000
_cell_angle_beta 90.000000
_cell_angle_gamma 90.000000
_cell_volume 3422.466290
_symmetry_space_group_name_H-M "C M C M"
_symmetry_group_IT_number 63
_symmetry_cell_setting 'orthorhombic'
loop_
_space_group_symop_operation_xyz
x,y,z
-x,-y,1/2+z
x,-y,-z
-x,y,1/2-z
-x,-y,-z
x,y,1/2-z
-x,y,z
x,-y,1/2+z
1/2+x,1/2+y,z
1/2-x,1/2-y,1/2+z
1/2+x,1/2-y,-z
1/2-x,1/2+y,1/2-z
1/2-x,1/2-y,-z
1/2+x,1/2+y,1/2-z
1/2-x,1/2+y,z
1/2+x,1/2-y,1/2+z
loop_
_atom_site_type_symbol
_atom_site_label
_atom_site_fract_x
_atom_site_fract_y
_atom_site_fract_z
Si Si1 0.500000 0.329649 0.022688
Si Si2 0.667630 0.828306 0.979173
Si Si3 0.328412 0.738477 0.849155
Si Si4 0.500000 0.336101 0.814218
Si Si5 0.500000 0.308003 0.161547
Si Si6 0.832063 0.102957 0.183255
O O1 0.583195 0.250661 0.002788
O O2 0.500000 0.324292 0.092196
O O3 0.500000 0.500000 0.000000
O O4 0.670221 0.811884 0.911198
O O5 0.750000 0.750000 0.000000
O O6 0.667034 0.000000 0.000000
O O7 0.416159 0.770039 0.821845
O O8 0.323532 0.554879 0.850546
O O9 0.249316 0.801774 0.819458
O O10 0.500000 0.274405 0.750000
O O11 0.500000 0.520843 0.814936
O O12 0.411049 0.304985 0.839089
O O13 0.846799 0.065497 0.250000
#
# Coordination Sequence:
#
# PCOD9471033 Si02
#       6
#     8  16  16   8   8  16
#     4  10  21  37  58  82 111 148 193 238 289 343
#     4  11  22  37  56  82 115 153 194 238 285 339
#     4  10  20  36  55  78 108 142 182 228 274 330
#     4   8  16  30  50  73 100 133 170 209 258 319
#     4   8  18  35  54  75 106 143 179 217 269 332
#     4  10  19  34  55  79 105 139 179 224 275 330
#
# _framework density 21.037458999999998
#
# number of rings (size 3 to 8) (size 9 to 14) (size 15 to 20)
#    0.000    2.222    0.000    3.000    0.000    4.444 
#    0.000    1.111    0.000    0.000    0.000    0.000 
#    0.000    0.000    0.000    0.000    0.000    0.000 
#
# Total GULP energy -200778.827284 kJ/mol
# GULP energy per Si atom -5577.189647 kJ/mol
# Density = 2.098958 g / cm^3
# Si number density = 21.037459 Si / 1000 Ang^3
#
#
#
# Elastic Constant Matrix: (Units=GPa)
#
#
# Indices 1 2 3 4 5 6 
#
# 1 251.9711 68.3168 22.7413 0.0000 0.0000 0.0000
# 2 68.3168 76.0903 5.7082 0.0000 0.0000 0.0000
# 3 22.7413 5.7082 37.9933 0.0000 0.0000 0.0000
# 4 0.0000 0.0000 0.0000 17.2420 0.0000 0.0000
# 5 0.0000 0.0000 0.0000 0.0000 27.5829 0.0000
# 6 0.0000 0.0000 0.0000 0.0000 0.0000 43.6695
#
#
#
# Elastic Compliance Matrix: (Units=1/GPa)
#
#
# Indices 1 2 3 4 5 6 
#
# 1 0.005483 -0.004730 -0.002571 0.000000 0.000000 0.000000
# 2 -0.004730 0.017373 0.000221 0.000000 0.000000 0.000000
# 3 -0.002571 0.000221 0.027826 0.000000 0.000000 0.000000
# 4 0.000000 0.000000 0.000000 0.057998 0.000000 0.000000
# 5 0.000000 0.000000 0.000000 0.000000 0.036254 0.000000
# 6 0.000000 0.000000 0.000000 0.000000 0.000000 0.022899
#
#
# Mechanical properties :
#
#
# Convention : Reuss Voigt Hill
#
# Bulk Modulus (GPa) = 27.38113 62.17637 44.77875
# Shear Modulus (GPa) = 25.75086 35.65145 30.70116
#
# Velocity S-wave (km/s) = 3.50244 4.12110 3.82430
# Velocity P-wave (km/s) = 5.42215 7.22937 6.38998
#
# Compressibility (1/GPa) = 0.03652150
#
# Stress axis : x y z
#
# Youngs Moduli (GPa) = 182.37242 57.56180 35.93713
#
# Poissons Ratio (x) = 0.27228 0.09241
# Poissons Ratio (y) = 0.86266 -0.00795
# Poissons Ratio (z) = 0.46895 -0.01273
#
# Static dielectric constant tensor:
#      x y z
#    x 1.860710 0.000000 0.000000 
#    y 0.000000 1.704530 0.000000 
#    z 0.000000 0.000000 1.802110 
# 
# From -- ./inp_files/69084.got.cif
#   From: 2010.05.17/outbox.cif.g08.bks.cpg/sg63_35_cif.got.tgz:69084.got - 2010.06.03 15:47:04.
