data_PCOD9471800
_publ_section_title
;
Structure prediction by ZEFSAII (Michael W. Deem and Ramdas Pophale) SiO2 
 PCOD9471800
Probable space group: C M C M
;
_chemical_formula_sum "Si O2"
_cell_formula_units_Z 88
_cell_length_a 19.733820
_cell_length_b 28.025800
_cell_length_c 8.823988
_cell_angle_alpha 90.000000
_cell_angle_beta 90.000000
_cell_angle_gamma 90.000000
_cell_volume 4880.160324
_symmetry_space_group_name_H-M "C M C M"
_symmetry_group_IT_number 63
_symmetry_cell_setting 'orthorhombic'
loop_
_space_group_symop_operation_xyz
x,y,z
-x,-y,1/2+z
x,-y,-z
-x,y,1/2-z
-x,-y,-z
x,y,1/2-z
-x,y,z
x,-y,1/2+z
1/2+x,1/2+y,z
1/2-x,1/2-y,1/2+z
1/2+x,1/2-y,-z
1/2-x,1/2+y,1/2-z
1/2-x,1/2-y,-z
1/2+x,1/2+y,1/2-z
1/2-x,1/2+y,z
1/2+x,1/2-y,1/2+z
loop_
_atom_site_type_symbol
_atom_site_label
_atom_site_fract_x
_atom_site_fract_y
_atom_site_fract_z
Si Si1 0.577669 0.770981 0.433769
Si Si2 0.187040 0.805332 0.926344
Si Si3 0.171628 0.654757 0.434181
Si Si4 0.000000 0.051866 0.927355
Si Si5 0.279242 0.049897 0.432769
Si Si6 0.865607 0.086752 0.074718
O O1 0.578658 0.770902 0.250000
O O2 0.500000 0.761422 0.480119
O O3 0.632186 0.731538 0.490529
O O4 0.605685 0.820921 0.496607
O O5 0.196950 0.791688 0.750000
O O6 0.262600 0.814325 0.989822
O O7 0.154397 0.857825 0.928459
O O8 0.170909 0.656815 0.250000
O O9 0.182935 0.599204 0.475882
O O10 0.000000 0.047144 0.750000
O O11 0.932352 0.077843 0.981097
O O12 0.000000 0.000000 0.000000
O O13 0.280442 0.047564 0.250000
O O14 0.200665 0.058086 0.479248
O O15 0.304405 0.000000 0.500000
O O16 0.878436 0.073359 0.250000
#
# Coordination Sequence:
#
# PCOD9471800 Si02
#       6
#    16  16  16   8  16  16
#     4  10  20  32  50  78 106 135 173 209 245 298
#     4   8  16  32  54  76  99 133 173 207 244 299
#     4   9  18  34  53  75 103 134 169 207 251 303
#     4  12  24  34  44  64  96 134 174 214 255 300
#     4   9  18  32  52  77  99 124 164 209 254 307
#     4   9  18  33  52  71  95 130 169 208 252 300
#
# _framework density 18.032194
#
# number of rings (size 3 to 8) (size 9 to 14) (size 15 to 20)
#    0.000    2.727    0.000    4.091    1.273    3.273 
#    0.000    3.636    0.000    0.545    0.000    0.000 
#    0.000    0.000    0.000    0.000    0.000    0.000 
#
# Total GULP energy -245183.954124 kJ/mol
# GULP energy per Si atom -5572.362594 kJ/mol
# Density = 1.799115 g / cm^3
# Si number density = 18.032194 Si / 1000 Ang^3
#
#
#
# Elastic Constant Matrix: (Units=GPa)
#
#
# Indices 1 2 3 4 5 6 
#
# 1 61.1900 37.3522 11.0004 0.0000 0.0000 0.0000
# 2 37.3522 85.2290 3.2717 0.0000 0.0000 0.0000
# 3 11.0004 3.2717 13.3196 0.0000 0.0000 0.0000
# 4 0.0000 0.0000 0.0000 24.5837 0.0000 0.0000
# 5 0.0000 0.0000 0.0000 0.0000 18.5932 0.0000
# 6 0.0000 0.0000 0.0000 0.0000 0.0000 8.1463
#
#
#
# Elastic Compliance Matrix: (Units=1/GPa)
#
#
# Indices 1 2 3 4 5 6 
#
# 1 0.026397 -0.010834 -0.019139 0.000000 0.000000 0.000000
# 2 -0.010834 0.016291 0.004946 0.000000 0.000000 0.000000
# 3 -0.019139 0.004946 0.089669 0.000000 0.000000 0.000000
# 4 0.000000 0.000000 0.000000 0.040677 0.000000 0.000000
# 5 0.000000 0.000000 0.000000 0.000000 0.053783 0.000000
# 6 0.000000 0.000000 0.000000 0.000000 0.000000 0.122755
#
#
# Mechanical properties :
#
#
# Convention : Reuss Voigt Hill
#
# Bulk Modulus (GPa) = 12.15028 29.22078 20.68553
# Shear Modulus (GPa) = 11.70791 17.47226 14.59008
#
# Velocity S-wave (km/s) = 2.55086 3.11617 2.84758
# Velocity P-wave (km/s) = 3.92792 5.40253 4.72313
#
# Compressibility (1/GPa) = 0.08230266
#
# Stress axis : x y z
#
# Youngs Moduli (GPa) = 37.88379 61.38281 11.15208
#
# Poissons Ratio (x) = 0.66501 0.21344
# Poissons Ratio (y) = 0.41042 -0.05516
# Poissons Ratio (z) = 0.72507 -0.30359
#
# Static dielectric constant tensor:
#      x y z
#    x 1.604590 0.000000 0.000000 
#    y 0.000000 1.709110 0.000000 
#    z 0.000000 0.000000 1.612350 
# 
# From -- ./inp_files/6775.got.cif
#   From: 2010.05.17/outbox.cif.g08.bks.cpg/sg63_4_cif.got.tgz:6775.got - 2010.06.03 15:47:04.
