data_PCOD9471452
_publ_section_title
;
Structure prediction by ZEFSAII (Michael W. Deem and Ramdas Pophale) SiO2 
 PCOD9471452
Probable space group: C M C M
;
_chemical_formula_sum "Si O2"
_cell_formula_units_Z 116
_cell_length_a 7.575878
_cell_length_b 25.172208
_cell_length_c 30.503322
_cell_angle_alpha 90.000000
_cell_angle_beta 90.000000
_cell_angle_gamma 90.000000
_cell_volume 5817.031603
_symmetry_space_group_name_H-M "C M C M"
_symmetry_group_IT_number 63
_symmetry_cell_setting 'orthorhombic'
loop_
_space_group_symop_operation_xyz
x,y,z
-x,-y,1/2+z
x,-y,-z
-x,y,1/2-z
-x,-y,-z
x,y,1/2-z
-x,y,z
x,-y,1/2+z
1/2+x,1/2+y,z
1/2-x,1/2-y,1/2+z
1/2+x,1/2-y,-z
1/2-x,1/2+y,1/2-z
1/2-x,1/2-y,-z
1/2+x,1/2+y,1/2-z
1/2-x,1/2+y,z
1/2+x,1/2-y,1/2+z
loop_
_atom_site_type_symbol
_atom_site_label
_atom_site_fract_x
_atom_site_fract_y
_atom_site_fract_z
Si Si1 0.208298 0.111560 0.677776
Si Si2 0.000000 0.360094 0.250000
Si Si3 0.700977 0.832339 0.004366
Si Si4 0.702832 0.312672 0.102373
Si Si5 0.209013 0.948211 0.525740
Si Si6 0.282619 0.801288 0.909872
Si Si7 0.212778 0.583734 0.121809
Si Si8 0.785666 0.490805 0.800610
O O1 0.343856 0.135816 0.712395
O O2 0.262649 0.137670 0.631240
O O3 0.230821 0.048069 0.680841
O O4 0.000000 0.122061 0.686957
O O5 0.500000 0.814635 0.009701
O O6 0.790141 0.823459 0.050703
O O7 0.704813 0.894542 0.992138
O O8 0.775073 0.804431 0.960806
O O9 0.500000 0.306369 0.114993
O O10 0.782012 0.254109 0.110104
O O11 0.237979 0.948912 0.578023
O O12 0.000000 0.943256 0.517633
O O13 0.273111 0.000000 0.500000
O O14 0.500000 0.802085 0.910672
O O15 0.226446 0.855574 0.886047
O O16 0.274474 0.554904 0.165950
O O17 0.000000 0.585222 0.123464
O O18 0.726547 0.485326 0.750000
O O19 0.000000 0.490542 0.799603
#
# Coordination Sequence:
#
# PCOD9471452 Si02
#       8
#    16   4  16  16  16  16  16  16
#     4  11  23  38  62  92 118 156 192 239 301 359
#     4  12  22  44  64  82 128 150 198 244 302 352
#     4  10  20  33  55  81 111 150 196 236 285 342
#     4  10  21  35  56  84 118 150 194 241 288 349
#     4  10  21  35  49  72 112 152 186 231 285 341
#     4   8  16  35  55  80 114 152 194 240 282 342
#     4   9  19  34  58  82 108 148 193 233 285 344
#     4  10  19  36  59  86 118 151 190 241 292 353
#
# _framework density 19.941443
#
# number of rings (size 3 to 8) (size 9 to 14) (size 15 to 20)
#    0.000    2.207    1.379    2.276    2.897    1.655 
#    0.000    2.759    1.517    0.000    0.000    0.000 
#    0.000    0.000    0.000    0.000    0.000    0.000 
#
# Total GULP energy -322966.282471 kJ/mol
# GULP energy per Si atom -5568.384181 kJ/mol
# Density = 1.989606 g / cm^3
# Si number density = 19.941443 Si / 1000 Ang^3
#
#
#
# Elastic Constant Matrix: (Units=GPa)
#
#
# Indices 1 2 3 4 5 6 
#
# 1 70.5260 5.2722 11.1566 0.0000 0.0000 0.0000
# 2 5.2722 93.4995 92.4184 0.0000 0.0000 0.0000
# 3 11.1566 92.4184 133.1314 0.0000 0.0000 0.0000
# 4 0.0000 0.0000 0.0000 -41.5571 0.0000 0.0000
# 5 0.0000 0.0000 0.0000 0.0000 -411.2418 0.0000
# 6 0.0000 0.0000 0.0000 0.0000 0.0000 394.5505
#
#
#
# Elastic Compliance Matrix: (Units=1/GPa)
#
#
# Indices 1 2 3 4 5 6 
#
# 1 0.014413 0.001214 -0.002051 0.000000 0.000000 0.000000
# 2 0.001214 0.034181 -0.023830 0.000000 0.000000 0.000000
# 3 -0.002051 -0.023830 0.024226 0.000000 0.000000 0.000000
# 4 0.000000 0.000000 0.000000 -0.024063 0.000000 0.000000
# 5 0.000000 0.000000 0.000000 0.000000 -0.002432 0.000000
# 6 0.000000 0.000000 0.000000 0.000000 0.000000 0.002535
#
#
# Mechanical properties :
#
#
# Convention : Reuss Voigt Hill
#
# Bulk Modulus (GPa) = 42.57680 57.20569 49.89125
# Shear Modulus (GPa) = 47.16008 0.90429 24.03219
#
# Velocity S-wave (km/s) = 4.86833 0.67413 3.47528
# Velocity P-wave (km/s) = 7.27998 5.41803 6.41690
#
# Compressibility (1/GPa) = 0.02348697
#
# Stress axis : x y z
#
# Youngs Moduli (GPa) = 69.38270 29.25567 41.27814
#
# Poissons Ratio (x) = -0.03553 0.08466
# Poissons Ratio (y) = -0.08426 0.98366
# Poissons Ratio (z) = 0.14230 0.69717
#
# Static dielectric constant tensor:
#      x y z
#    x 1.747230 0.000000 0.000000 
#    y 0.000000 1.724800 0.000000 
#    z 0.000000 0.000000 1.684090 
# 
# From -- ./inp_files/67605.got.cif
#   From: 2010.05.17/outbox.cif.g08.bks.cpg/sg63_34_cif.got.tgz:67605.got - 2010.06.03 15:47:04.
