data_PCOD9471833
_publ_section_title
;
Structure prediction by ZEFSAII (Michael W. Deem and Ramdas Pophale) SiO2 
 PCOD9471833
Probable space group: C M C M
;
_chemical_formula_sum "Si O2"
_cell_formula_units_Z 72
_cell_length_a 9.271670
_cell_length_b 30.246149
_cell_length_c 14.238111
_cell_angle_alpha 90.000000
_cell_angle_beta 90.000000
_cell_angle_gamma 90.000000
_cell_volume 3992.826390
_symmetry_space_group_name_H-M "C M C M"
_symmetry_group_IT_number 63
_symmetry_cell_setting 'orthorhombic'
loop_
_space_group_symop_operation_xyz
x,y,z
-x,-y,1/2+z
x,-y,-z
-x,y,1/2-z
-x,-y,-z
x,y,1/2-z
-x,y,z
x,-y,1/2+z
1/2+x,1/2+y,z
1/2-x,1/2-y,1/2+z
1/2+x,1/2-y,-z
1/2-x,1/2+y,1/2-z
1/2-x,1/2-y,-z
1/2+x,1/2+y,1/2-z
1/2-x,1/2+y,z
1/2+x,1/2-y,1/2+z
loop_
_atom_site_type_symbol
_atom_site_label
_atom_site_fract_x
_atom_site_fract_y
_atom_site_fract_z
Si Si1 0.662869 0.192559 0.250000
Si Si2 0.174365 0.003096 0.750000
Si Si3 0.841453 0.887864 0.965079
Si Si4 0.169717 0.786619 0.560715
Si Si5 0.166072 0.459293 0.072593
Si Si6 0.768655 0.097212 0.250000
O O1 0.500000 0.209208 0.250000
O O2 0.750041 0.208658 0.159768
O O3 0.659180 0.138680 0.250000
O O4 0.228827 0.029117 0.658506
O O5 0.000000 0.996050 0.750000
O O6 0.256796 0.955424 0.750000
O O7 0.820802 0.835890 0.982891
O O8 0.841300 0.895098 0.851960
O O9 0.000000 0.901682 0.999418
O O10 0.721400 0.916923 0.015285
O O11 0.250000 0.750000 0.500000
O O12 0.000000 0.776605 0.572210
O O13 0.000000 0.454151 0.104008
O O14 0.171847 0.500000 0.000000
#
# Coordination Sequence:
#
# PCOD9471833 Si02
#       6
#     8   8  16  16  16   8
#     4  10  21  36  58  87 119 151 188 237 293 346
#     4  12  23  38  60  81 111 155 200 241 283 338
#     4  10  20  37  59  85 115 151 195 236 281 341
#     4  10  21  38  61  89 119 151 192 240 291 349
#     4  11  24  38  54  82 118 152 188 234 288 341
#     4  10  20  32  56  88 114 144 188 240 286 330
#
# _framework density 18.032337999999999
#
# number of rings (size 3 to 8) (size 9 to 14) (size 15 to 20)
#    0.000    1.556    2.222    3.000    0.000    9.778 
#    0.000    1.111    0.000    6.667    0.000    0.000 
#    0.000    0.000    0.000    0.000    0.000    0.000 
#
# Total GULP energy -200690.481576 kJ/mol
# GULP energy per Si atom -5574.735599 kJ/mol
# Density = 1.799130 g / cm^3
# Si number density = 18.032338 Si / 1000 Ang^3
#
#
#
# Elastic Constant Matrix: (Units=GPa)
#
#
# Indices 1 2 3 4 5 6 
#
# 1 132.2214 55.2657 53.7877 0.0000 0.0000 0.0000
# 2 55.2657 88.3903 45.6449 0.0000 0.0000 0.0000
# 3 53.7877 45.6449 84.2152 0.0000 0.0000 0.0000
# 4 0.0000 0.0000 0.0000 30.1270 0.0000 0.0000
# 5 0.0000 0.0000 0.0000 0.0000 7.6908 0.0000
# 6 0.0000 0.0000 0.0000 0.0000 0.0000 17.0972
#
#
#
# Elastic Compliance Matrix: (Units=1/GPa)
#
#
# Indices 1 2 3 4 5 6 
#
# 1 0.011474 -0.004707 -0.004777 0.000000 0.000000 0.000000
# 2 -0.004707 0.017642 -0.006556 0.000000 0.000000 0.000000
# 3 -0.004777 -0.006556 0.018478 0.000000 0.000000 0.000000
# 4 0.000000 0.000000 0.000000 0.033193 0.000000 0.000000
# 5 0.000000 0.000000 0.000000 0.000000 0.130026 0.000000
# 6 0.000000 0.000000 0.000000 0.000000 0.000000 0.058489
#
#
# Mechanical properties :
#
#
# Convention : Reuss Voigt Hill
#
# Bulk Modulus (GPa) = 64.45417 68.24704 66.35061
# Shear Modulus (GPa) = 16.31038 20.99156 18.65097
#
# Velocity S-wave (km/s) = 3.01077 3.41560 3.21955
# Velocity P-wave (km/s) = 6.92153 7.31330 7.12011
#
# Compressibility (1/GPa) = 0.01551490
#
# Stress axis : x y z
#
# Youngs Moduli (GPa) = 87.15491 56.68342 54.11702
#
# Poissons Ratio (x) = 0.26682 0.25852
# Poissons Ratio (y) = 0.41025 0.35477
# Poissons Ratio (z) = 0.41634 0.37159
#
# Static dielectric constant tensor:
#      x y z
#    x 1.627220 0.000000 0.000000 
#    y 0.000000 1.604110 0.000000 
#    z 0.000000 0.000000 1.626180 
# 
# From -- ./inp_files/27935.got.cif
#   From: 2010.05.17/outbox.cif.g08.bks.cpg/sg63_14_cif.got.tgz:27935.got - 2010.06.03 15:47:04.
