data_PCOD9471227
_publ_section_title
;
Structure prediction by ZEFSAII (Michael W. Deem and Ramdas Pophale) SiO2 
 PCOD9471227
Probable space group: C M C M
;
_chemical_formula_sum "Si O2"
_cell_formula_units_Z 80
_cell_length_a 24.722451
_cell_length_b 5.412316
_cell_length_c 31.574358
_cell_angle_alpha 90.000000
_cell_angle_beta 90.000000
_cell_angle_gamma 90.000000
_cell_volume 4224.829614
_symmetry_space_group_name_H-M "C M C M"
_symmetry_group_IT_number 63
_symmetry_cell_setting 'orthorhombic'
loop_
_space_group_symop_operation_xyz
x,y,z
-x,-y,1/2+z
x,-y,-z
-x,y,1/2-z
-x,-y,-z
x,y,1/2-z
-x,y,z
x,-y,1/2+z
1/2+x,1/2+y,z
1/2-x,1/2-y,1/2+z
1/2+x,1/2-y,-z
1/2-x,1/2+y,1/2-z
1/2-x,1/2-y,-z
1/2+x,1/2+y,1/2-z
1/2-x,1/2+y,z
1/2+x,1/2-y,1/2+z
loop_
_atom_site_type_symbol
_atom_site_label
_atom_site_fract_x
_atom_site_fract_y
_atom_site_fract_z
Si Si1 0.270141 0.208140 0.547557
Si Si2 0.319461 0.980649 0.168086
Si Si3 0.699167 0.519592 0.798791
Si Si4 0.620279 0.949222 0.421666
Si Si5 0.935579 0.959906 0.450126
O O1 0.250000 0.250000 0.500000
O O2 0.263415 0.480399 0.567902
O O3 0.331137 0.119146 0.546733
O O4 0.333086 0.729908 0.192605
O O5 0.253484 0.983937 0.172192
O O6 0.347633 0.968033 0.122739
O O7 0.334214 0.237339 0.190133
O O8 0.717209 0.529486 0.750000
O O9 0.581591 0.710057 0.425377
O O10 0.593216 0.210156 0.433492
O O11 0.000000 0.925643 0.446997
O O12 0.922284 0.000000 0.500000
#
# Coordination Sequence:
#
# PCOD9471227 Si02
#       5
#    16  16  16  16  16
#     4  10  23  35  51  79 115 160 189 215 281 355
#     4  10  20  31  52  84 114 155 194 228 285 323
#     4  10  19  35  54  80 128 169 196 221 257 344
#     4  12  24  38  62  87 120 147 201 256 296 359
#     4  11  26  46  65  82 106 153 211 271 317 348
#
# _framework density 18.935675
#
# number of rings (size 3 to 8) (size 9 to 14) (size 15 to 20)
#    0.000    1.400    0.000    6.600   14.000    1.600 
#    0.000    0.000    0.000    0.000    0.000    0.000 
#    0.000   92.800    0.000    0.000    0.000    0.000 
#
# Total GULP energy -223028.431017 kJ/mol
# GULP energy per Si atom -5575.710775 kJ/mol
# Density = 1.889258 g / cm^3
# Si number density = 18.935675 Si / 1000 Ang^3
#
#
#
# Elastic Constant Matrix: (Units=GPa)
#
#
# Indices 1 2 3 4 5 6 
#
# 1 72.2665 47.1678 48.3515 0.0000 0.0000 0.0000
# 2 47.1678 215.8925 47.5437 0.0000 0.0000 0.0000
# 3 48.3515 47.5437 114.2142 0.0000 0.0000 0.0000
# 4 0.0000 0.0000 0.0000 24.6874 0.0000 0.0000
# 5 0.0000 0.0000 0.0000 0.0000 -4.4195 0.0000
# 6 0.0000 0.0000 0.0000 0.0000 0.0000 30.5378
#
#
#
# Elastic Compliance Matrix: (Units=1/GPa)
#
#
# Indices 1 2 3 4 5 6 
#
# 1 0.020804 -0.002869 -0.007613 0.000000 0.000000 0.000000
# 2 -0.002869 0.005495 -0.001073 0.000000 0.000000 0.000000
# 3 -0.007613 -0.001073 0.012425 0.000000 0.000000 0.000000
# 4 0.000000 0.000000 0.000000 0.040507 0.000000 0.000000
# 5 0.000000 0.000000 0.000000 0.000000 -0.226270 0.000000
# 6 0.000000 0.000000 0.000000 0.000000 0.000000 0.032746
#
#
# Mechanical properties :
#
#
# Convention : Reuss Voigt Hill
#
# Bulk Modulus (GPa) = 64.04288 76.49991 70.27139
# Shear Modulus (GPa) = -58.15298 27.44848 -15.35225
#
# Velocity S-wave (km/s) = -5.54775 3.81144 -2.85047
# Velocity P-wave (km/s) = 2.67244 7.73674 5.13396
#
# Compressibility (1/GPa) = 0.01561454
#
# Stress axis : x y z
#
# Youngs Moduli (GPa) = 48.06875 181.98514 80.48318
#
# Poissons Ratio (x) = 0.52205 0.61271
# Poissons Ratio (y) = 0.13789 0.08636
# Poissons Ratio (z) = 0.36594 0.19526
#
# Static dielectric constant tensor:
#      x y z
#    x 1.638950 0.000000 0.000000 
#    y 0.000000 1.541350 0.000000 
#    z 0.000000 0.000000 1.715170 
# 
# From -- ./inp_files/74192.got.cif
#   From: 2010.05.17/outbox.cif.g08.bks.cpg/sg63_38_cif.got.tgz:74192.got - 2010.06.03 15:47:04.
