data_PCOD9471508
_publ_section_title
;
Structure prediction by ZEFSAII (Michael W. Deem and Ramdas Pophale) SiO2 
 PCOD9471508
Probable space group: C M C M
;
_chemical_formula_sum "Si O2"
_cell_formula_units_Z 56
_cell_length_a 8.562052
_cell_length_b 18.191660
_cell_length_c 18.695940
_cell_angle_alpha 90.000000
_cell_angle_beta 90.000000
_cell_angle_gamma 90.000000
_cell_volume 2912.041080
_symmetry_space_group_name_H-M "C M C M"
_symmetry_group_IT_number 63
_symmetry_cell_setting 'orthorhombic'
loop_
_space_group_symop_operation_xyz
x,y,z
-x,-y,1/2+z
x,-y,-z
-x,y,1/2-z
-x,-y,-z
x,y,1/2-z
-x,y,z
x,-y,1/2+z
1/2+x,1/2+y,z
1/2-x,1/2-y,1/2+z
1/2+x,1/2-y,-z
1/2-x,1/2+y,1/2-z
1/2-x,1/2-y,-z
1/2+x,1/2+y,1/2-z
1/2-x,1/2+y,z
1/2+x,1/2-y,1/2+z
loop_
_atom_site_type_symbol
_atom_site_label
_atom_site_fract_x
_atom_site_fract_y
_atom_site_fract_z
Si Si1 0.000000 0.839196 0.594372
Si Si2 0.500000 0.191690 0.671753
Si Si3 0.500000 0.425564 0.454142
Si Si4 0.824893 0.396495 0.833690
Si Si5 0.245947 0.934466 0.170085
O O1 0.000000 0.860456 0.511279
O O2 0.163927 0.870875 0.627688
O O3 0.000000 0.753255 0.612000
O O4 0.500000 0.229532 0.750000
O O5 0.643077 0.135748 0.668914
O O6 0.500000 0.500000 0.500000
O O7 0.358124 0.426264 0.399409
O O8 0.812882 0.374661 0.750000
O O9 0.824298 0.485375 0.836026
O O10 0.000000 0.372003 0.859401
O O11 0.172430 0.935145 0.250000
#
# Coordination Sequence:
#
# PCOD9471508 Si02
#       5
#     8   8   8  16  16
#     4  12  24  40  61  97 138 163 202 276 330 373
#     4  10  22  42  66  90 123 168 212 264 327 378
#     4  12  23  38  61  97 130 167 218 261 329 385
#     4  10  19  36  64  93 122 166 218 262 310 375
#     4  10  20  40  65  89 122 169 221 261 306 390
#
# _framework density 19.230498000000001
#
# number of rings (size 3 to 8) (size 9 to 14) (size 15 to 20)
#    0.000    1.429    4.286    1.714    0.000    3.429 
#    5.143    2.143    0.000    0.000    0.000    0.000 
#    0.000    0.000    0.000    0.000    0.000    0.000 
#
# Total GULP energy -155941.874598 kJ/mol
# GULP energy per Si atom -5569.352664 kJ/mol
# Density = 1.918673 g / cm^3
# Si number density = 19.230498 Si / 1000 Ang^3
#
#
#
# Elastic Constant Matrix: (Units=GPa)
#
#
# Indices 1 2 3 4 5 6 
#
# 1 148.0428 29.1923 70.5489 0.0000 0.0000 0.0000
# 2 29.1923 75.7140 22.6279 0.0000 0.0000 0.0000
# 3 70.5489 22.6279 135.3751 0.0000 0.0000 0.0000
# 4 0.0000 0.0000 0.0000 33.2060 0.0000 0.0000
# 5 0.0000 0.0000 0.0000 0.0000 -95.5983 0.0000
# 6 0.0000 0.0000 0.0000 0.0000 0.0000 15.4236
#
#
#
# Elastic Compliance Matrix: (Units=1/GPa)
#
#
# Indices 1 2 3 4 5 6 
#
# 1 0.009340 -0.002259 -0.004490 0.000000 0.000000 0.000000
# 2 -0.002259 0.014449 -0.001238 0.000000 0.000000 0.000000
# 3 -0.004490 -0.001238 0.009934 0.000000 0.000000 0.000000
# 4 0.000000 0.000000 0.000000 0.030115 0.000000 0.000000
# 5 0.000000 0.000000 0.000000 0.000000 -0.010460 0.000000
# 6 0.000000 0.000000 0.000000 0.000000 0.000000 0.064836
#
#
# Mechanical properties :
#
#
# Convention : Reuss Voigt Hill
#
# Bulk Modulus (GPa) = 56.34246 67.09669 61.71957
# Shear Modulus (GPa) = 35.68834 6.39044 21.03939
#
# Velocity S-wave (km/s) = 4.31260 1.82491 3.31125
# Velocity P-wave (km/s) = 7.35935 6.27749 6.83985
#
# Compressibility (1/GPa) = 0.01774860
#
# Stress axis : x y z
#
# Youngs Moduli (GPa) = 107.06821 69.21099 100.66943
#
# Poissons Ratio (x) = 0.15637 0.45197
# Poissons Ratio (y) = 0.24190 0.12460
# Poissons Ratio (z) = 0.48070 0.08566
#
# Static dielectric constant tensor:
#      x y z
#    x 1.761230 0.000000 0.000000 
#    y 0.000000 1.642710 0.000000 
#    z 0.000000 0.000000 1.680940 
# 
# From -- ./inp_files/39644.got.cif
#   From: 2010.05.17/outbox.cif.g08.bks.cpg/sg63_20_cif.got.tgz:39644.got - 2010.06.03 15:47:04.
