data_PCOD9471748
_publ_section_title
;
Structure prediction by ZEFSAII (Michael W. Deem and Ramdas Pophale) SiO2 
 PCOD9471748
Probable space group: C M C M
;
_chemical_formula_sum "Si O2"
_cell_formula_units_Z 96
_cell_length_a 24.181599
_cell_length_b 13.894828
_cell_length_c 18.084882
_cell_angle_alpha 90.000000
_cell_angle_beta 90.000000
_cell_angle_gamma 90.000000
_cell_volume 6076.505140
_symmetry_space_group_name_H-M "C M C M"
_symmetry_group_IT_number 63
_symmetry_cell_setting 'orthorhombic'
loop_
_space_group_symop_operation_xyz
x,y,z
-x,-y,1/2+z
x,-y,-z
-x,y,1/2-z
-x,-y,-z
x,y,1/2-z
-x,y,z
x,-y,1/2+z
1/2+x,1/2+y,z
1/2-x,1/2-y,1/2+z
1/2+x,1/2-y,-z
1/2-x,1/2+y,1/2-z
1/2-x,1/2-y,-z
1/2+x,1/2+y,1/2-z
1/2-x,1/2+y,z
1/2+x,1/2-y,1/2+z
loop_
_atom_site_type_symbol
_atom_site_label
_atom_site_fract_x
_atom_site_fract_y
_atom_site_fract_z
Si Si1 0.273256 0.208061 0.662906
Si Si2 0.768948 0.494300 0.087837
Si Si3 0.064037 0.790742 0.161960
Si Si4 0.835279 0.097222 0.338196
Si Si5 0.166241 0.338542 0.837912
Si Si6 0.435390 0.496384 0.087929
O O1 0.276270 0.182910 0.750000
O O2 0.317297 0.292625 0.647588
O O3 0.213604 0.257829 0.649827
O O4 0.280252 0.113621 0.614596
O O5 0.711913 0.530824 0.125103
O O6 0.815573 0.567761 0.117319
O O7 0.764288 0.500000 0.000000
O O8 0.070532 0.809830 0.250000
O O9 0.107528 0.707911 0.142438
O O10 0.000000 0.764076 0.148860
O O11 0.075820 0.889112 0.118519
O O12 0.834271 0.082255 0.250000
O O13 0.893846 0.068309 0.371712
O O14 0.167257 0.360845 0.750000
O O15 0.500000 0.517652 0.103125
O O16 0.426793 0.500000 0.000000
#
# Coordination Sequence:
#
# PCOD9471748 Si02
#       6
#    16  16  16  16  16  16
#     4   9  18  32  48  67  93 125 159 194 234 281
#     4  11  21  31  48  73  99 126 156 195 243 291
#     4   9  17  30  50  73  94 122 162 203 239 276
#     4  10  20  33  50  70  94 128 164 197 234 278
#     4   9  18  32  50  70  93 123 158 196 237 281
#     4  10  20  32  48  73 103 130 155 191 239 285
#
# _framework density 15.798555
#
# number of rings (size 3 to 8) (size 9 to 14) (size 15 to 20)
#    0.000    2.333    0.000    4.500    0.000    6.333 
#    0.000    0.000    0.000    1.500    0.000    2.333 
#    0.000    0.000    0.000    0.000    0.000    0.000 
#
# Total GULP energy -267810.728161 kJ/mol
# GULP energy per Si atom -5579.390170 kJ/mol
# Density = 1.576260 g / cm^3
# Si number density = 15.798555 Si / 1000 Ang^3
#
#
#
# Elastic Constant Matrix: (Units=GPa)
#
#
# Indices 1 2 3 4 5 6 
#
# 1 85.9960 63.7966 58.5033 0.0000 0.0000 0.0000
# 2 63.7966 104.7424 75.9492 0.0000 0.0000 0.0000
# 3 58.5033 75.9492 89.5789 0.0000 0.0000 0.0000
# 4 0.0000 0.0000 0.0000 -18.7356 0.0000 0.0000
# 5 0.0000 0.0000 0.0000 0.0000 23.3151 0.0000
# 6 0.0000 0.0000 0.0000 0.0000 0.0000 18.5443
#
#
#
# Elastic Compliance Matrix: (Units=1/GPa)
#
#
# Indices 1 2 3 4 5 6 
#
# 1 0.023368 -0.008221 -0.008291 0.000000 0.000000 0.000000
# 2 -0.008221 0.027676 -0.018096 0.000000 0.000000 0.000000
# 3 -0.008291 -0.018096 0.031921 0.000000 0.000000 0.000000
# 4 0.000000 0.000000 0.000000 -0.053374 0.000000 0.000000
# 5 0.000000 0.000000 0.000000 0.000000 0.042891 0.000000
# 6 0.000000 0.000000 0.000000 0.000000 0.000000 0.053925
#
#
# Mechanical properties :
#
#
# Convention : Reuss Voigt Hill
#
# Bulk Modulus (GPa) = 72.73575 75.20172 73.96873
# Shear Modulus (GPa) = 24.97450 10.09597 17.53524
#
# Velocity S-wave (km/s) = 3.98025 2.53067 3.33517
# Velocity P-wave (km/s) = 8.20138 7.49952 7.85829
#
# Compressibility (1/GPa) = 0.01374840
#
# Stress axis : x y z
#
# Youngs Moduli (GPa) = 42.79423 36.13275 31.32746
#
# Poissons Ratio (x) = 0.29704 0.25975
# Poissons Ratio (y) = 0.35180 0.56690
# Poissons Ratio (z) = 0.35482 0.65385
#
# Static dielectric constant tensor:
#      x y z
#    x 1.527110 0.000000 0.000000 
#    y 0.000000 1.504480 0.000000 
#    z 0.000000 0.000000 1.520810 
# 
# From -- ./inp_files/48006.got.cif
#   From: 2010.05.17/outbox.cif.g08.bks.cpg/sg63_25_cif.got.tgz:48006.got - 2010.06.03 15:47:04.
