data_PCOD9471718
_publ_section_title
;
Structure prediction by ZEFSAII (Michael W. Deem and Ramdas Pophale) SiO2 
 PCOD9471718
Probable space group: C M C M
;
_chemical_formula_sum "Si O2"
_cell_formula_units_Z 96
_cell_length_a 8.703339
_cell_length_b 33.750018
_cell_length_c 18.997275
_cell_angle_alpha 90.000000
_cell_angle_beta 90.000000
_cell_angle_gamma 90.000000
_cell_volume 5580.218675
_symmetry_space_group_name_H-M "C M C M"
_symmetry_group_IT_number 63
_symmetry_cell_setting 'orthorhombic'
loop_
_space_group_symop_operation_xyz
x,y,z
-x,-y,1/2+z
x,-y,-z
-x,y,1/2-z
-x,-y,-z
x,y,1/2-z
-x,y,z
x,-y,1/2+z
1/2+x,1/2+y,z
1/2-x,1/2-y,1/2+z
1/2+x,1/2-y,-z
1/2-x,1/2+y,1/2-z
1/2-x,1/2-y,-z
1/2+x,1/2+y,1/2-z
1/2-x,1/2+y,z
1/2+x,1/2-y,1/2+z
loop_
_atom_site_type_symbol
_atom_site_label
_atom_site_fract_x
_atom_site_fract_y
_atom_site_fract_z
Si Si1 0.187187 0.916769 0.828985
Si Si2 0.183502 0.672487 0.669005
Si Si3 0.315093 0.665030 0.098106
Si Si4 0.812471 0.042263 0.028810
Si Si5 0.316628 0.242507 0.168029
Si Si6 0.815060 0.122828 0.954088
O O1 0.240349 0.925923 0.750000
O O2 0.229986 0.872073 0.852071
O O3 0.236723 0.946005 0.891915
O O4 0.000000 0.917674 0.828588
O O5 0.234207 0.666279 0.750000
O O6 0.247491 0.715309 0.645827
O O7 0.243361 0.638870 0.617077
O O8 0.000000 0.673730 0.667672
O O9 0.500000 0.668407 0.101612
O O10 0.242075 0.705744 0.122923
O O11 0.273756 0.651800 0.019075
O O12 0.000000 0.041632 0.029785
O O13 0.768117 0.078787 0.978332
O O14 0.759375 0.000000 0.000000
O O15 0.271071 0.236139 0.250000
O O16 0.500000 0.244850 0.164570
O O17 0.000000 0.123128 0.948207
#
# Coordination Sequence:
#
# PCOD9471718 Si02
#       6
#    16  16  16  16  16  16
#     4   8  13  22  39  63  90 121 156 191 226 269
#     4  10  21  36  52  68  89 123 164 200 234 276
#     4   9  17  29  46  68  94 125 158 191 232 284
#     4   8  14  26  44  67  97 127 153 188 234 281
#     4  10  20  32  47  69  96 125 158 198 240 277
#     4   9  18  32  50  72  96 123 155 193 240 286
#
# _framework density 17.203627000000001
#
# number of rings (size 3 to 8) (size 9 to 14) (size 15 to 20)
#    0.000    3.000    0.000    3.500    0.000    4.000 
#    0.000    0.833    0.000    3.500    0.000    0.000 
#    0.000   10.667    0.000    0.000    0.000    0.000 
#
# Total GULP energy -267529.839372 kJ/mol
# GULP energy per Si atom -5573.538320 kJ/mol
# Density = 1.716447 g / cm^3
# Si number density = 17.203627 Si / 1000 Ang^3
#
#
#
# Elastic Constant Matrix: (Units=GPa)
#
#
# Indices 1 2 3 4 5 6 
#
# 1 9.5823 23.1522 22.4789 0.0000 0.0000 0.0000
# 2 23.1522 130.9429 94.5048 0.0000 0.0000 0.0000
# 3 22.4789 94.5048 117.1839 0.0000 0.0000 0.0000
# 4 0.0000 0.0000 0.0000 21.3069 0.0000 0.0000
# 5 0.0000 0.0000 0.0000 0.0000 20.1234 0.0000
# 6 0.0000 0.0000 0.0000 0.0000 0.0000 15.1212
#
#
#
# Elastic Compliance Matrix: (Units=1/GPa)
#
#
# Indices 1 2 3 4 5 6 
#
# 1 0.207940 -0.019088 -0.024495 0.000000 0.000000 0.000000
# 2 -0.019088 0.020024 -0.012487 0.000000 0.000000 0.000000
# 3 -0.024495 -0.012487 0.023303 0.000000 0.000000 0.000000
# 4 0.000000 0.000000 0.000000 0.046933 0.000000 0.000000
# 5 0.000000 0.000000 0.000000 0.000000 0.049693 0.000000
# 6 0.000000 0.000000 0.000000 0.000000 0.000000 0.066132
#
#
# Mechanical properties :
#
#
# Convention : Reuss Voigt Hill
#
# Bulk Modulus (GPa) = 7.18764 59.77566 33.48165
# Shear Modulus (GPa) = 8.73298 19.14851 13.94074
#
# Velocity S-wave (km/s) = 2.25550 3.33986 2.84973
# Velocity P-wave (km/s) = 3.31211 7.04942 5.50747
#
# Compressibility (1/GPa) = 0.13912777
#
# Stress axis : x y z
#
# Youngs Moduli (GPa) = 4.80907 49.93921 42.91292
#
# Poissons Ratio (x) = 0.95323 1.05114
# Poissons Ratio (y) = 0.09179 0.53587
# Poissons Ratio (z) = 0.11780 0.62361
#
# Static dielectric constant tensor:
#      x y z
#    x 1.584920 0.000000 0.000000 
#    y 0.000000 1.559040 0.000000 
#    z 0.000000 0.000000 1.592760 
# 
# From -- ./inp_files/51384.got.cif
#   From: 2010.05.17/outbox.cif.g08.bks.cpg/sg63_26_cif.got.tgz:51384.got - 2010.06.03 15:47:04.
