data_PCOD9471490
_publ_section_title
;
Structure prediction by ZEFSAII (Michael W. Deem and Ramdas Pophale) SiO2 
 PCOD9471490
Probable space group: C M C M
;
_chemical_formula_sum "Si O2"
_cell_formula_units_Z 128
_cell_length_a 18.972548
_cell_length_b 15.734897
_cell_length_c 22.472911
_cell_angle_alpha 90.000000
_cell_angle_beta 90.000000
_cell_angle_gamma 90.000000
_cell_volume 6708.862585
_symmetry_space_group_name_H-M "C M C M"
_symmetry_group_IT_number 63
_symmetry_cell_setting 'orthorhombic'
loop_
_space_group_symop_operation_xyz
x,y,z
-x,-y,1/2+z
x,-y,-z
-x,y,1/2-z
-x,-y,-z
x,y,1/2-z
-x,y,z
x,-y,1/2+z
1/2+x,1/2+y,z
1/2-x,1/2-y,1/2+z
1/2+x,1/2-y,-z
1/2-x,1/2+y,1/2-z
1/2-x,1/2-y,-z
1/2+x,1/2+y,1/2-z
1/2-x,1/2+y,z
1/2+x,1/2-y,1/2+z
loop_
_atom_site_type_symbol
_atom_site_label
_atom_site_fract_x
_atom_site_fract_y
_atom_site_fract_z
Si Si1 0.207038 0.878269 0.395998
Si Si2 0.922865 0.390641 0.933243
Si Si3 0.706494 0.579469 0.370147
Si Si4 0.171567 0.341539 0.319721
Si Si5 0.849728 0.455423 0.816345
Si Si6 0.722068 0.093680 0.489179
Si Si7 0.584660 0.701737 0.110171
Si Si8 0.577566 0.305520 0.467132
O O1 0.246905 0.832825 0.341478
O O2 0.261458 0.859718 0.450358
O O3 0.134446 0.849981 0.425458
O O4 0.199095 0.978157 0.380679
O O5 0.897970 0.416397 0.867556
O O6 0.859675 0.416030 0.976308
O O7 0.925796 0.289971 0.942704
O O8 0.000000 0.426381 0.946056
O O9 0.770610 0.582840 0.323306
O O10 0.740508 0.623511 0.429221
O O11 0.632046 0.625458 0.361854
O O12 0.164351 0.320172 0.250000
O O13 0.155576 0.442570 0.326833
O O14 0.118979 0.285401 0.359741
O O15 0.876231 0.440789 0.750000
O O16 0.752785 0.000000 0.500000
O O17 0.500000 0.697090 0.120941
O O18 0.593990 0.698302 0.037980
O O19 0.500000 0.345535 0.461797
#
# Coordination Sequence:
#
# PCOD9471490 Si02
#       8
#    16  16  16  16  16  16  16  16
#     4  10  19  36  62  82 112 157 193 237 287 337
#     4  10  21  34  50  80 116 147 187 236 288 341
#     4   9  19  35  56  87 115 144 193 241 281 344
#     4  10  23  40  59  86 113 148 199 244 287 348
#     4   9  20  40  61  80 107 149 201 246 287 342
#     4   9  17  31  53  81 106 141 187 230 280 334
#     4  11  23  38  58  88 125 159 189 235 301 357
#     4  10  22  36  54  87 123 152 188 234 289 351
#
# _framework density 19.079241
#
# number of rings (size 3 to 8) (size 9 to 14) (size 15 to 20)
#    0.000    2.250    1.250    1.500    3.500    3.250 
#    0.000    3.750    0.000    1.125    0.000    3.500 
#    0.000    0.000    0.000    0.000    0.000    0.000 
#
# Total GULP energy -356375.023340 kJ/mol
# GULP energy per Si atom -5568.359740 kJ/mol
# Density = 1.903582 g / cm^3
# Si number density = 19.079241 Si / 1000 Ang^3
#
#
#
# Elastic Constant Matrix: (Units=GPa)
#
#
# Indices 1 2 3 4 5 6 
#
# 1 125.9134 26.1025 26.9414 0.0000 0.0000 0.0000
# 2 26.1025 35.3479 11.5721 0.0000 0.0000 0.0000
# 3 26.9414 11.5721 27.5349 0.0000 0.0000 0.0000
# 4 0.0000 0.0000 0.0000 21.6998 0.0000 0.0000
# 5 0.0000 0.0000 0.0000 0.0000 18.4422 0.0000
# 6 0.0000 0.0000 0.0000 0.0000 0.0000 -32.7342
#
#
#
# Elastic Compliance Matrix: (Units=1/GPa)
#
#
# Indices 1 2 3 4 5 6 
#
# 1 0.010824 -0.005248 -0.008385 0.000000 0.000000 0.000000
# 2 -0.005248 0.035348 -0.009721 0.000000 0.000000 0.000000
# 3 -0.008385 -0.009721 0.048607 0.000000 0.000000 0.000000
# 4 0.000000 0.000000 0.000000 0.046083 0.000000 0.000000
# 5 0.000000 0.000000 0.000000 0.000000 0.054224 0.000000
# 6 0.000000 0.000000 0.000000 0.000000 0.000000 -0.030549
#
#
# Mechanical properties :
#
#
# Convention : Reuss Voigt Hill
#
# Bulk Modulus (GPa) = 20.80239 35.33647 28.06943
# Shear Modulus (GPa) = 22.00038 9.76023 15.88031
#
# Velocity S-wave (km/s) = 3.39942 2.26423 2.88815
# Velocity P-wave (km/s) = 5.13176 5.03952 5.08585
#
# Compressibility (1/GPa) = 0.04807140
#
# Stress axis : x y z
#
# Youngs Moduli (GPa) = 92.38698 28.29025 20.57301
#
# Poissons Ratio (x) = 0.14846 0.17251
# Poissons Ratio (y) = 0.48483 0.19999
# Poissons Ratio (z) = 0.77468 0.27501
#
# Static dielectric constant tensor:
#      x y z
#    x 1.708240 0.000000 0.000000 
#    y 0.000000 1.692060 0.000000 
#    z 0.000000 0.000000 1.701650 
# 
# From -- ./inp_files/64076.got.cif
#   From: 2010.05.17/outbox.cif.g08.bks.cpg/sg63_33_cif.got.tgz:64076.got - 2010.06.03 15:47:04.
