data_PCOD9471553
_publ_section_title
;
Structure prediction by ZEFSAII (Michael W. Deem and Ramdas Pophale) SiO2 
 PCOD9471553
Probable space group: C M C M
;
_chemical_formula_sum "Si O2"
_cell_formula_units_Z 64
_cell_length_a 25.198364
_cell_length_b 14.961928
_cell_length_c 8.009031
_cell_angle_alpha 90.000000
_cell_angle_beta 90.000000
_cell_angle_gamma 90.000000
_cell_volume 3019.533696
_symmetry_space_group_name_H-M "C M C M"
_symmetry_group_IT_number 63
_symmetry_cell_setting 'orthorhombic'
loop_
_space_group_symop_operation_xyz
x,y,z
-x,-y,1/2+z
x,-y,-z
-x,y,1/2-z
-x,-y,-z
x,y,1/2-z
-x,y,z
x,-y,1/2+z
1/2+x,1/2+y,z
1/2-x,1/2-y,1/2+z
1/2+x,1/2-y,-z
1/2-x,1/2+y,1/2-z
1/2-x,1/2-y,-z
1/2+x,1/2+y,1/2-z
1/2-x,1/2+y,z
1/2+x,1/2-y,1/2+z
loop_
_atom_site_type_symbol
_atom_site_label
_atom_site_fract_x
_atom_site_fract_y
_atom_site_fract_z
Si Si1 0.113755 0.595354 0.443504
Si Si2 0.310725 0.248247 0.555489
Si Si3 0.500000 0.315739 0.439879
Si Si4 0.000000 0.609417 0.981586
Si Si5 0.889807 0.896688 0.049020
O O1 0.136300 0.500000 0.500000
O O2 0.093922 0.590317 0.250000
O O3 0.156089 0.673201 0.457821
O O4 0.062891 0.614020 0.561195
O O5 0.313471 0.225726 0.750000
O O6 0.250000 0.250000 0.500000
O O7 0.340648 0.341458 0.523559
O O8 0.500000 0.349895 0.250000
O O9 0.500000 0.208510 0.433624
O O10 0.554843 0.352556 0.514510
O O11 0.000000 0.500000 0.000000
O O12 0.887729 0.887475 0.250000
O O13 0.888619 0.000000 0.000000
#
# Coordination Sequence:
#
# PCOD9471553 Si02
#       5
#    16  16   8   8  16
#     4  11  22  40  65  96 133 171 211 258 316 381
#     4  12  26  45  67  94 125 166 218 269 324 383
#     4  10  19  37  66  96 133 175 213 259 320 383
#     4  10  20  35  64 100 137 175 212 256 319 387
#     4  11  23  42  68  97 132 173 216 267 322 382
#
# _framework density 21.195325
#
# number of rings (size 3 to 8) (size 9 to 14) (size 15 to 20)
#    0.000    1.000    2.500    5.250    0.000    1.000 
#    0.000   10.000    0.000    0.000    0.000    0.000 
#    0.000    0.000    0.000    0.000    0.000    0.000 
#
# Total GULP energy -178188.483680 kJ/mol
# GULP energy per Si atom -5568.390115 kJ/mol
# Density = 2.114708 g / cm^3
# Si number density = 21.195325 Si / 1000 Ang^3
#
#
#
# Elastic Constant Matrix: (Units=GPa)
#
#
# Indices 1 2 3 4 5 6 
#
# 1 172.1586 71.3388 10.2242 0.0000 0.0000 0.0000
# 2 71.3388 148.0270 3.2955 0.0000 0.0000 0.0000
# 3 10.2242 3.2955 86.5750 0.0000 0.0000 0.0000
# 4 0.0000 0.0000 0.0000 23.0562 0.0000 0.0000
# 5 0.0000 0.0000 0.0000 0.0000 -31.9951 0.0000
# 6 0.0000 0.0000 0.0000 0.0000 0.0000 15.6077
#
#
#
# Elastic Compliance Matrix: (Units=1/GPa)
#
#
# Indices 1 2 3 4 5 6 
#
# 1 0.007304 -0.003504 -0.000729 0.000000 0.000000 0.000000
# 2 -0.003504 0.008442 0.000092 0.000000 0.000000 0.000000
# 3 -0.000729 0.000092 0.011633 0.000000 0.000000 0.000000
# 4 0.000000 0.000000 0.000000 0.043372 0.000000 0.000000
# 5 0.000000 0.000000 0.000000 0.000000 -0.031255 0.000000
# 6 0.000000 0.000000 0.000000 0.000000 0.000000 0.064071
#
#
# Mechanical properties :
#
#
# Convention : Reuss Voigt Hill
#
# Bulk Modulus (GPa) = 52.36105 64.05308 58.20706
# Shear Modulus (GPa) = 42.29615 22.79392 32.54503
#
# Velocity S-wave (km/s) = 4.47199 3.28292 3.92277
# Velocity P-wave (km/s) = 7.17096 6.68252 6.93104
#
# Compressibility (1/GPa) = 0.01909817
#
# Stress axis : x y z
#
# Youngs Moduli (GPa) = 136.91598 118.45536 85.96030
#
# Poissons Ratio (x) = 0.41503 0.06268
# Poissons Ratio (y) = 0.47971 -0.00794
# Poissons Ratio (z) = 0.09984 -0.01095
#
# Static dielectric constant tensor:
#      x y z
#    x 1.735430 0.000000 0.000000 
#    y 0.000000 1.717680 0.000000 
#    z 0.000000 0.000000 1.841900 
# 
# From -- ./inp_files/9650.got.cif
#   From: 2010.05.17/outbox.cif.g08.bks.cpg/sg63_5_cif.got.tgz:9650.got - 2010.06.03 15:47:04.
