data_PCOD9471509
_publ_section_title
;
Structure prediction by ZEFSAII (Michael W. Deem and Ramdas Pophale) SiO2 
 PCOD9471509
Probable space group: C M C M
;
_chemical_formula_sum "Si O2"
_cell_formula_units_Z 68
_cell_length_a 20.481404
_cell_length_b 18.743562
_cell_length_c 9.294615
_cell_angle_alpha 90.000000
_cell_angle_beta 90.000000
_cell_angle_gamma 90.000000
_cell_volume 3568.151260
_symmetry_space_group_name_H-M "C M C M"
_symmetry_group_IT_number 63
_symmetry_cell_setting 'orthorhombic'
loop_
_space_group_symop_operation_xyz
x,y,z
-x,-y,1/2+z
x,-y,-z
-x,y,1/2-z
-x,-y,-z
x,y,1/2-z
-x,y,z
x,-y,1/2+z
1/2+x,1/2+y,z
1/2-x,1/2-y,1/2+z
1/2+x,1/2-y,-z
1/2-x,1/2+y,1/2-z
1/2-x,1/2-y,-z
1/2+x,1/2+y,1/2-z
1/2-x,1/2+y,z
1/2+x,1/2-y,1/2+z
loop_
_atom_site_type_symbol
_atom_site_label
_atom_site_fract_x
_atom_site_fract_y
_atom_site_fract_z
Si Si1 0.365924 0.848144 0.923776
Si Si2 0.500000 0.923417 0.925130
Si Si3 0.232140 0.925039 0.576859
Si Si4 0.361402 0.684929 0.918834
Si Si5 0.000000 0.112444 0.536950
Si Si6 0.500000 0.523885 0.250000
O O1 0.367713 0.845431 0.750000
O O2 0.434842 0.880945 0.969466
O O3 0.304819 0.897878 0.962046
O O4 0.355833 0.766608 0.970313
O O5 0.500000 0.930545 0.750000
O O6 0.500000 0.000000 0.000000
O O7 0.226466 0.931542 0.750000
O O8 0.182275 0.866912 0.515271
O O9 0.218546 0.000000 0.500000
O O10 0.341373 0.680531 0.750000
O O11 0.435733 0.658423 0.929344
O O12 0.000000 0.085186 0.374965
O O13 0.000000 0.040763 0.630149
#
# Coordination Sequence:
#
# PCOD9471509 Si02
#       6
#    16   8  16  16   8   4
#     4   9  20  39  61  88 117 152 196 241 293 351
#     4  10  19  36  65  89 116 152 195 242 290 345
#     4  11  24  39  59  86 119 155 197 242 291 348
#     4  11  22  39  63  87 116 156 196 241 295 349
#     4  11  23  38  60  86 118 150 197 234 291 338
#     4  10  24  38  58  84 124 150 186 246 284 338
#
# _framework density 19.057487999999999
#
# number of rings (size 3 to 8) (size 9 to 14) (size 15 to 20)
#    0.000    1.647    1.176    2.824    4.941    1.882 
#    0.000    3.529    2.588    0.000    0.000    0.000 
#    0.000    0.000    0.000    0.000    0.000    0.000 
#
# Total GULP energy -189368.461939 kJ/mol
# GULP energy per Si atom -5569.660645 kJ/mol
# Density = 1.901411 g / cm^3
# Si number density = 19.057488 Si / 1000 Ang^3
#
#
#
# Elastic Constant Matrix: (Units=GPa)
#
#
# Indices 1 2 3 4 5 6 
#
# 1 112.9273 44.2140 19.1613 0.0000 0.0000 0.0000
# 2 44.2140 149.6250 38.8880 0.0000 0.0000 0.0000
# 3 19.1613 38.8880 100.7907 0.0000 0.0000 0.0000
# 4 0.0000 0.0000 0.0000 26.6260 0.0000 0.0000
# 5 0.0000 0.0000 0.0000 0.0000 44.0346 0.0000
# 6 0.0000 0.0000 0.0000 0.0000 0.0000 125.4729
#
#
#
# Elastic Compliance Matrix: (Units=1/GPa)
#
#
# Indices 1 2 3 4 5 6 
#
# 1 0.010079 -0.002757 -0.000852 0.000000 0.000000 0.000000
# 2 -0.002757 0.008182 -0.002633 0.000000 0.000000 0.000000
# 3 -0.000852 -0.002633 0.011099 0.000000 0.000000 0.000000
# 4 0.000000 0.000000 0.000000 0.037557 0.000000 0.000000
# 5 0.000000 0.000000 0.000000 0.000000 0.022709 0.000000
# 6 0.000000 0.000000 0.000000 0.000000 0.000000 0.007970
#
#
# Mechanical properties :
#
#
# Convention : Reuss Voigt Hill
#
# Bulk Modulus (GPa) = 59.25357 63.09661 61.17509
# Shear Modulus (GPa) = 43.21238 56.63202 49.92220
#
# Velocity S-wave (km/s) = 4.76697 5.45719 5.12371
# Velocity P-wave (km/s) = 7.83952 8.53747 8.19593
#
# Compressibility (1/GPa) = 0.01687662
#
# Stress axis : x y z
#
# Youngs Moduli (GPa) = 99.21337 122.21487 90.09454
#
# Poissons Ratio (x) = 0.33693 0.07681
# Poissons Ratio (y) = 0.27352 0.23721
# Poissons Ratio (z) = 0.08458 0.32178
#
# Static dielectric constant tensor:
#      x y z
#    x 1.672290 0.000000 0.000000 
#    y 0.000000 1.633250 0.000000 
#    z 0.000000 0.000000 1.639640 
# 
# From -- ./inp_files/7650.got.cif
#   From: 2010.05.17/outbox.cif.g08.bks.cpg/sg63_4_cif.got.tgz:7650.got - 2010.06.03 15:47:04.
