data_PCOD9471421
_publ_section_title
;
Structure prediction by ZEFSAII (Michael W. Deem and Ramdas Pophale) SiO2 
 PCOD9471421
Probable space group: C M C M
;
_chemical_formula_sum "Si O2"
_cell_formula_units_Z 64
_cell_length_a 12.692139
_cell_length_b 12.703435
_cell_length_c 15.912619
_cell_angle_alpha 90.000000
_cell_angle_beta 90.000000
_cell_angle_gamma 90.000000
_cell_volume 2565.651437
_symmetry_space_group_name_H-M "C M C M"
_symmetry_group_IT_number 63
_symmetry_cell_setting 'orthorhombic'
loop_
_space_group_symop_operation_xyz
x,y,z
-x,-y,1/2+z
x,-y,-z
-x,y,1/2-z
-x,-y,-z
x,y,1/2-z
-x,y,z
x,-y,1/2+z
1/2+x,1/2+y,z
1/2-x,1/2-y,1/2+z
1/2+x,1/2-y,-z
1/2-x,1/2+y,1/2-z
1/2-x,1/2-y,-z
1/2+x,1/2+y,1/2-z
1/2-x,1/2+y,z
1/2+x,1/2-y,1/2+z
loop_
_atom_site_type_symbol
_atom_site_label
_atom_site_fract_x
_atom_site_fract_y
_atom_site_fract_z
Si Si1 0.655445 0.851601 0.343365
Si Si2 0.664408 0.359874 0.927131
Si Si3 0.882047 0.593212 0.148901
Si Si4 0.384219 0.587038 0.619971
O O1 0.616732 0.830928 0.250000
O O2 0.625420 0.754164 0.400651
O O3 0.619504 0.967712 0.369510
O O4 0.782567 0.861475 0.339252
O O5 0.790234 0.360101 0.908978
O O6 0.625081 0.460032 0.873216
O O7 0.631939 0.385671 0.021636
O O8 0.859287 0.604802 0.250000
O O9 0.000000 0.633054 0.133072
O O10 0.500000 0.619429 0.648227
#
# Coordination Sequence:
#
# PCOD9471421 Si02
#       4
#    16  16  16  16
#     4  10  21  37  57  82 112 146 186 231 279 332
#     4  10  19  36  58  82 112 149 187 226 277 331
#     4   9  19  35  54  80 113 146 186 235 280 327
#     4  10  22  39  58  84 116 147 185 232 278 329
#
# _framework density 24.944932000000001
#
# number of rings (size 3 to 8) (size 9 to 14) (size 15 to 20)
#    0.000    2.250    0.000    3.000    0.000    4.500 
#    0.000   10.000    0.000    6.750    0.000    0.000 
#    0.000    0.000    0.000    0.000    0.000    0.000 
#
# Total GULP energy -179100.236144 kJ/mol
# GULP energy per Si atom -5596.882380 kJ/mol
# Density = 2.488816 g / cm^3
# Si number density = 24.944932 Si / 1000 Ang^3
#
#
#
# Elastic Constant Matrix: (Units=GPa)
#
#
# Indices 1 2 3 4 5 6 
#
# 1 199.2511 -5.4772 13.2746 0.0000 0.0000 0.0000
# 2 -5.4772 108.7863 20.9661 0.0000 0.0000 0.0000
# 3 13.2746 20.9661 45.2043 0.0000 0.0000 0.0000
# 4 0.0000 0.0000 0.0000 -11.2894 0.0000 0.0000
# 5 0.0000 0.0000 0.0000 0.0000 -117.6082 0.0000
# 6 0.0000 0.0000 0.0000 0.0000 0.0000 -25.8420
#
#
#
# Elastic Compliance Matrix: (Units=1/GPa)
#
#
# Indices 1 2 3 4 5 6 
#
# 1 0.005155 0.000605 -0.001795 0.000000 0.000000 0.000000
# 2 0.000605 0.010166 -0.004893 0.000000 0.000000 0.000000
# 3 -0.001795 -0.004893 0.024918 0.000000 0.000000 0.000000
# 4 0.000000 0.000000 0.000000 -0.088579 0.000000 0.000000
# 5 0.000000 0.000000 0.000000 0.000000 -0.008503 0.000000
# 6 0.000000 0.000000 0.000000 0.000000 0.000000 -0.038697
#
#
# Mechanical properties :
#
#
# Convention : Reuss Voigt Hill
#
# Bulk Modulus (GPa) = 35.61893 45.64099 40.62996
# Shear Modulus (GPa) = -67.55169 -9.31604 -38.43387
#
# Velocity S-wave (km/s) = -5.20952 -1.93462 -3.92950
# Velocity P-wave (km/s) = 4.67712 3.65323 2.06511
#
# Compressibility (1/GPa) = 0.02807496
#
# Stress axis : x y z
#
# Youngs Moduli (GPa) = 193.98665 98.36922 40.13154
#
# Poissons Ratio (x) = -0.05955 0.07202
# Poissons Ratio (y) = -0.11744 0.19635
# Poissons Ratio (z) = 0.34813 0.48130
#
# Static dielectric constant tensor:
#      x y z
#    x 1.995320 0.000000 0.000000 
#    y 0.000000 1.962060 0.000000 
#    z 0.000000 0.000000 1.917300 
# 
# From -- ./inp_files/41492.got.cif
#   From: 2010.05.17/outbox.cif.g08.bks.cpg/sg63_21_cif.got.tgz:41492.got - 2010.06.03 15:47:04.
