data_PCOD9471787
_publ_section_title
;
Structure prediction by ZEFSAII (Michael W. Deem and Ramdas Pophale) SiO2 
 PCOD9471787
Probable space group: C M C M
;
_chemical_formula_sum "Si O2"
_cell_formula_units_Z 64
_cell_length_a 17.035364
_cell_length_b 18.282139
_cell_length_c 9.816800
_cell_angle_alpha 90.000000
_cell_angle_beta 90.000000
_cell_angle_gamma 90.000000
_cell_volume 3057.372588
_symmetry_space_group_name_H-M "C M C M"
_symmetry_group_IT_number 63
_symmetry_cell_setting 'orthorhombic'
loop_
_space_group_symop_operation_xyz
x,y,z
-x,-y,1/2+z
x,-y,-z
-x,y,1/2-z
-x,-y,-z
x,y,1/2-z
-x,y,z
x,-y,1/2+z
1/2+x,1/2+y,z
1/2-x,1/2-y,1/2+z
1/2+x,1/2-y,-z
1/2-x,1/2+y,1/2-z
1/2-x,1/2-y,-z
1/2+x,1/2+y,1/2-z
1/2-x,1/2+y,z
1/2+x,1/2-y,1/2+z
loop_
_atom_site_type_symbol
_atom_site_label
_atom_site_fract_x
_atom_site_fract_y
_atom_site_fract_z
Si Si1 0.408464 0.670130 0.595375
Si Si2 0.092545 0.437890 0.399611
Si Si3 0.189764 0.928029 0.909466
Si Si4 0.155129 0.328581 0.597616
O O1 0.399286 0.640468 0.750000
O O2 0.500000 0.691970 0.580509
O O3 0.382794 0.612692 0.481992
O O4 0.352686 0.741607 0.587244
O O5 0.123557 0.500000 0.500000
O O6 0.129162 0.440725 0.250000
O O7 0.105124 0.362317 0.475953
O O8 0.000000 0.450601 0.386006
O O9 0.177429 0.945512 0.750000
O O10 0.261168 0.868850 0.914623
O O11 0.205410 0.000000 0.000000
O O12 0.124293 0.348100 0.750000
#
# Coordination Sequence:
#
# PCOD9471787 Si02
#       4
#    16  16  16  16
#     4  10  22  41  65  92 123 160 201 248 304 363
#     4  10  20  32  49  77 114 157 202 246 294 351
#     4  11  24  41  63  91 123 161 205 252 302 358
#     4  10  21  38  61  89 120 155 195 243 302 363
#
# _framework density 20.933005999999999
#
# number of rings (size 3 to 8) (size 9 to 14) (size 15 to 20)
#    0.000    1.750    0.000    3.750    0.000    8.500 
#    0.000    0.000    0.000    0.000    0.000    0.000 
#    0.000    0.000    0.000    0.000    0.000    0.000 
#
# Total GULP energy -178570.145005 kJ/mol
# GULP energy per Si atom -5580.317031 kJ/mol
# Density = 2.088536 g / cm^3
# Si number density = 20.933006 Si / 1000 Ang^3
#
#
#
# Elastic Constant Matrix: (Units=GPa)
#
#
# Indices 1 2 3 4 5 6 
#
# 1 45.8664 31.7955 39.0066 0.0000 0.0000 0.0000
# 2 31.7955 73.2896 69.8866 0.0000 0.0000 0.0000
# 3 39.0066 69.8866 198.3999 0.0000 0.0000 0.0000
# 4 0.0000 0.0000 0.0000 32.6523 0.0000 0.0000
# 5 0.0000 0.0000 0.0000 0.0000 11.4621 0.0000
# 6 0.0000 0.0000 0.0000 0.0000 0.0000 30.9680
#
#
#
# Elastic Compliance Matrix: (Units=1/GPa)
#
#
# Indices 1 2 3 4 5 6 
#
# 1 0.031746 -0.011777 -0.002093 0.000000 0.000000 0.000000
# 2 -0.011777 0.024914 -0.006461 0.000000 0.000000 0.000000
# 3 -0.002093 -0.006461 0.007728 0.000000 0.000000 0.000000
# 4 0.000000 0.000000 0.000000 0.030626 0.000000 0.000000
# 5 0.000000 0.000000 0.000000 0.000000 0.087244 0.000000
# 6 0.000000 0.000000 0.000000 0.000000 0.000000 0.032291
#
#
# Mechanical properties :
#
#
# Convention : Reuss Voigt Hill
#
# Bulk Modulus (GPa) = 42.14568 66.54813 54.34690
# Shear Modulus (GPa) = 19.00276 26.80764 22.90520
#
# Velocity S-wave (km/s) = 3.01622 3.58249 3.31148
# Velocity P-wave (km/s) = 5.68396 6.99802 6.37494
#
# Compressibility (1/GPa) = 0.02372722
#
# Stress axis : x y z
#
# Youngs Moduli (GPa) = 31.49968 40.13753 129.40526
#
# Poissons Ratio (x) = 0.47269 0.27087
# Poissons Ratio (y) = 0.37096 0.83605
# Poissons Ratio (z) = 0.06593 0.25932
#
# Static dielectric constant tensor:
#      x y z
#    x 1.767430 0.000000 0.000000 
#    y 0.000000 1.767750 0.000000 
#    z 0.000000 0.000000 1.731720 
# 
# From -- ./inp_files/5706.got.cif
#   From: 2010.05.17/outbox.cif.g08.bks.cpg/sg63_3_cif.got.tgz:5706.got - 2010.06.03 15:47:04.
