data_PCOD9471492
_publ_section_title
;
Structure prediction by ZEFSAII (Michael W. Deem and Ramdas Pophale) SiO2 
 PCOD9471492
Probable space group: C M C M
;
_chemical_formula_sum "Si O2"
_cell_formula_units_Z 96
_cell_length_a 8.157317
_cell_length_b 25.169533
_cell_length_c 22.525451
_cell_angle_alpha 90.000000
_cell_angle_beta 90.000000
_cell_angle_gamma 90.000000
_cell_volume 4624.832331
_symmetry_space_group_name_H-M "C M C M"
_symmetry_group_IT_number 63
_symmetry_cell_setting 'orthorhombic'
loop_
_space_group_symop_operation_xyz
x,y,z
-x,-y,1/2+z
x,-y,-z
-x,y,1/2-z
-x,-y,-z
x,y,1/2-z
-x,y,z
x,-y,1/2+z
1/2+x,1/2+y,z
1/2-x,1/2-y,1/2+z
1/2+x,1/2-y,-z
1/2-x,1/2+y,1/2-z
1/2-x,1/2-y,-z
1/2+x,1/2+y,1/2-z
1/2-x,1/2+y,z
1/2+x,1/2-y,1/2+z
loop_
_atom_site_type_symbol
_atom_site_label
_atom_site_fract_x
_atom_site_fract_y
_atom_site_fract_z
Si Si1 0.801932 0.686040 0.315413
Si Si2 0.696633 0.245976 0.930136
Si Si3 0.198069 0.432366 0.842563
Si Si4 0.804087 0.371703 0.416510
Si Si5 0.199987 0.557897 0.478274
Si Si6 0.194819 0.949807 0.185948
O O1 0.749281 0.708386 0.250000
O O2 0.750313 0.713478 0.377697
O O3 0.749655 0.624050 0.316537
O O4 0.000000 0.687037 0.315868
O O5 0.500000 0.247958 0.931191
O O6 0.757507 0.187838 0.908231
O O7 0.750000 0.250000 0.000000
O O8 0.247340 0.431928 0.911372
O O9 0.263737 0.487889 0.818238
O O10 0.000000 0.434918 0.837809
O O11 0.739940 0.396931 0.477531
O O12 0.769061 0.414487 0.365899
O O13 0.000000 0.367517 0.421802
O O14 0.254603 0.500000 0.500000
O O15 0.000000 0.557575 0.480028
O O16 0.253978 0.930174 0.250000
O O17 0.000000 0.944205 0.182663
#
# Coordination Sequence:
#
# PCOD9471492 Si02
#       6
#    16  16  16  16  16  16
#     4  10  22  40  63  91 123 165 216 265 314 372
#     4  11  24  42  66  93 124 162 206 260 318 374
#     4  10  19  36  62  87 116 156 201 244 293 361
#     4  10  21  39  61  85 112 149 197 240 286 357
#     4   9  15  28  55  86 111 138 178 234 288 335
#     4  11  24  38  53  81 121 158 191 238 300 355
#
# _framework density 20.757508999999999
#
# number of rings (size 3 to 8) (size 9 to 14) (size 15 to 20)
#    0.000    1.833    1.667    2.500    0.000    7.667 
#    0.000    5.000    0.000    0.000    0.000    0.000 
#    0.000    0.000    0.000    0.000    0.000    0.000 
#
# Total GULP energy -267745.745838 kJ/mol
# GULP energy per Si atom -5578.036372 kJ/mol
# Density = 2.071026 g / cm^3
# Si number density = 20.757509 Si / 1000 Ang^3
#
#
#
# Elastic Constant Matrix: (Units=GPa)
#
#
# Indices 1 2 3 4 5 6 
#
# 1 18.6281 6.3905 12.7690 0.0000 0.0000 0.0000
# 2 6.3905 109.6313 46.6085 0.0000 0.0000 0.0000
# 3 12.7690 46.6085 155.3413 0.0000 0.0000 0.0000
# 4 0.0000 0.0000 0.0000 13.1052 0.0000 0.0000
# 5 0.0000 0.0000 0.0000 0.0000 23.7615 0.0000
# 6 0.0000 0.0000 0.0000 0.0000 0.0000 21.2401
#
#
#
# Elastic Compliance Matrix: (Units=1/GPa)
#
#
# Indices 1 2 3 4 5 6 
#
# 1 0.057110 -0.001528 -0.004236 0.000000 0.000000 0.000000
# 2 -0.001528 0.010496 -0.003024 0.000000 0.000000 0.000000
# 3 -0.004236 -0.003024 0.007693 0.000000 0.000000 0.000000
# 4 0.000000 0.000000 0.000000 0.076306 0.000000 0.000000
# 5 0.000000 0.000000 0.000000 0.000000 0.042085 0.000000
# 6 0.000000 0.000000 0.000000 0.000000 0.000000 0.047081
#
#
# Mechanical properties :
#
#
# Convention : Reuss Voigt Hill
#
# Bulk Modulus (GPa) = 17.32390 46.12630 31.72510
# Shear Modulus (GPa) = 18.01237 26.14353 22.07795
#
# Velocity S-wave (km/s) = 2.94896 3.55276 3.26485
# Velocity P-wave (km/s) = 4.46756 6.25293 5.43407
#
# Compressibility (1/GPa) = 0.05772374
#
# Stress axis : x y z
#
# Youngs Moduli (GPa) = 17.50999 95.27428 129.99115
#
# Poissons Ratio (x) = 0.14559 0.55063
# Poissons Ratio (y) = 0.02676 0.39304
# Poissons Ratio (z) = 0.07417 0.28807
#
# Static dielectric constant tensor:
#      x y z
#    x 1.736270 0.000000 0.000000 
#    y 0.000000 1.749860 0.000000 
#    z 0.000000 0.000000 1.765310 
# 
# From -- ./inp_files/51337.got.cif
#   From: 2010.05.17/outbox.cif.g08.bks.cpg/sg63_26_cif.got.tgz:51337.got - 2010.06.03 15:47:04.
