data_PCOD9471504
_publ_section_title
;
Structure prediction by ZEFSAII (Michael W. Deem and Ramdas Pophale) SiO2 
 PCOD9471504
Probable space group: C M C M
;
_chemical_formula_sum "Si O2"
_cell_formula_units_Z 68
_cell_length_a 7.314661
_cell_length_b 19.569144
_cell_length_c 19.311292
_cell_angle_alpha 90.000000
_cell_angle_beta 90.000000
_cell_angle_gamma 90.000000
_cell_volume 2764.250286
_symmetry_space_group_name_H-M "C M C M"
_symmetry_group_IT_number 63
_symmetry_cell_setting 'orthorhombic'
loop_
_space_group_symop_operation_xyz
x,y,z
-x,-y,1/2+z
x,-y,-z
-x,y,1/2-z
-x,-y,-z
x,y,1/2-z
-x,y,z
x,-y,1/2+z
1/2+x,1/2+y,z
1/2-x,1/2-y,1/2+z
1/2+x,1/2-y,-z
1/2-x,1/2+y,1/2-z
1/2-x,1/2-y,-z
1/2+x,1/2+y,1/2-z
1/2-x,1/2+y,z
1/2+x,1/2-y,1/2+z
loop_
_atom_site_type_symbol
_atom_site_label
_atom_site_fract_x
_atom_site_fract_y
_atom_site_fract_z
Si Si1 0.779373 0.375451 0.955572
Si Si2 0.000000 0.687373 0.250000
Si Si3 0.777830 0.388493 0.111947
Si Si4 0.209954 0.763851 0.641781
Si Si5 0.776515 0.531436 0.327322
O O1 0.720446 0.299824 0.932932
O O2 0.715523 0.424926 0.893551
O O3 0.000000 0.378327 0.956949
O O4 0.717802 0.395563 0.032208
O O5 0.723729 0.314333 0.139896
O O6 0.724158 0.453118 0.157513
O O7 0.000000 0.388069 0.111416
O O8 0.000000 0.764689 0.664716
O O9 0.341811 0.806704 0.690246
O O10 0.717006 0.551662 0.250000
O O11 0.000000 0.535802 0.326001
#
# Coordination Sequence:
#
# PCOD9471504 Si02
#       5
#    16   4  16  16  16
#     4  10  19  36  63  92 130 174 219 265 319 382
#     4  12  26  44  64  98 132 168 212 266 328 386
#     4   9  19  36  60  93 127 174 221 265 318 384
#     4  11  24  41  67  95 130 167 211 267 324 382
#     4   9  18  31  56  90 129 174 222 266 317 379
#
# _framework density 24.599799000000001
#
# number of rings (size 3 to 8) (size 9 to 14) (size 15 to 20)
#    0.000    2.118    1.176    1.765    3.294    2.824 
#    2.118    0.000    2.588    1.412    0.000    0.000 
#    0.000    0.000    0.000    0.000    0.000    0.000 
#
# Total GULP energy -189790.195546 kJ/mol
# GULP energy per Si atom -5582.064575 kJ/mol
# Density = 2.454381 g / cm^3
# Si number density = 24.599799 Si / 1000 Ang^3
#
#
#
# Elastic Constant Matrix: (Units=GPa)
#
#
# Indices 1 2 3 4 5 6 
#
# 1 120.5591 2.0957 23.4333 0.0000 0.0000 0.0000
# 2 2.0957 105.2902 12.5739 0.0000 0.0000 0.0000
# 3 23.4333 12.5739 104.2991 0.0000 0.0000 0.0000
# 4 0.0000 0.0000 0.0000 11.2787 0.0000 0.0000
# 5 0.0000 0.0000 0.0000 0.0000 -15.5386 0.0000
# 6 0.0000 0.0000 0.0000 0.0000 0.0000 -7.1759
#
#
#
# Elastic Compliance Matrix: (Units=1/GPa)
#
#
# Indices 1 2 3 4 5 6 
#
# 1 0.008674 0.000061 -0.001956 0.000000 0.000000 0.000000
# 2 0.000061 0.009637 -0.001175 0.000000 0.000000 0.000000
# 3 -0.001956 -0.001175 0.010169 0.000000 0.000000 0.000000
# 4 0.000000 0.000000 0.000000 0.088663 0.000000 0.000000
# 5 0.000000 0.000000 0.000000 0.000000 -0.064356 0.000000
# 6 0.000000 0.000000 0.000000 0.000000 0.000000 -0.139355
#
#
# Mechanical properties :
#
#
# Convention : Reuss Voigt Hill
#
# Bulk Modulus (GPa) = 44.76616 45.15047 44.95831
# Shear Modulus (GPa) = -68.51029 17.18255 -25.66387
#
# Velocity S-wave (km/s) = -5.28303 2.64575 -3.23345
# Velocity P-wave (km/s) = 4.35621 5.26566 2.09172
#
# Compressibility (1/GPa) = 0.02233830
#
# Stress axis : x y z
#
# Youngs Moduli (GPa) = 115.28912 103.76975 98.33797
#
# Poissons Ratio (x) = -0.00633 0.19236
# Poissons Ratio (y) = -0.00703 0.11559
# Poissons Ratio (z) = 0.22552 0.12198
#
# Static dielectric constant tensor:
#      x y z
#    x 1.950380 0.000000 0.000000 
#    y 0.000000 1.978210 0.000000 
#    z 0.000000 0.000000 1.944240 
# 
# From -- ./inp_files/50460.got.cif
#   From: 2010.05.17/outbox.cif.g08.bks.cpg/sg63_26_cif.got.tgz:50460.got - 2010.06.03 15:47:04.
