data_PCOD9471340
_publ_section_title
;
Structure prediction by ZEFSAII (Michael W. Deem and Ramdas Pophale) SiO2 
 PCOD9471340
Probable space group: C M C M
;
_chemical_formula_sum "Si O2"
_cell_formula_units_Z 96
_cell_length_a 11.932954
_cell_length_b 24.896414
_cell_length_c 16.982844
_cell_angle_alpha 90.000000
_cell_angle_beta 90.000000
_cell_angle_gamma 90.000000
_cell_volume 5045.395134
_symmetry_space_group_name_H-M "C M C M"
_symmetry_group_IT_number 63
_symmetry_cell_setting 'orthorhombic'
loop_
_space_group_symop_operation_xyz
x,y,z
-x,-y,1/2+z
x,-y,-z
-x,y,1/2-z
-x,-y,-z
x,y,1/2-z
-x,y,z
x,-y,1/2+z
1/2+x,1/2+y,z
1/2-x,1/2-y,1/2+z
1/2+x,1/2-y,-z
1/2-x,1/2+y,1/2-z
1/2-x,1/2-y,-z
1/2+x,1/2+y,1/2-z
1/2-x,1/2+y,z
1/2+x,1/2-y,1/2+z
loop_
_atom_site_type_symbol
_atom_site_label
_atom_site_fract_x
_atom_site_fract_y
_atom_site_fract_z
Si Si1 0.720201 0.476113 0.845073
Si Si2 0.500000 0.541401 0.654626
Si Si3 0.865438 0.133791 0.088358
Si Si4 0.130235 0.574076 0.844976
Si Si5 0.000000 0.164217 0.843488
Si Si6 0.632186 0.746509 0.162561
Si Si7 0.727424 0.329391 0.420926
O O1 0.718564 0.469761 0.750000
O O2 0.611168 0.510574 0.869393
O O3 0.702103 0.418474 0.883732
O O4 0.825015 0.514298 0.865483
O O5 0.500000 0.542757 0.750000
O O6 0.500000 0.602307 0.627225
O O7 0.853975 0.183101 0.149123
O O8 0.000000 0.122484 0.080897
O O9 0.812788 0.154876 0.007332
O O10 0.139593 0.579167 0.750000
O O11 0.210796 0.618954 0.882410
O O12 0.000000 0.581619 0.866605
O O13 0.114773 0.187525 0.875235
O O14 0.000000 0.164625 0.750000
O O15 0.673828 0.762493 0.250000
O O16 0.500000 0.757953 0.160544
O O17 0.689195 0.780102 0.093333
#
# Coordination Sequence:
#
# PCOD9471340 Si02
#       7
#    16   8  16  16   8  16  16
#     4  10  19  35  60  86 116 152 195 239 282 339
#     4   9  16  29  53  85 113 145 187 234 279 324
#     4  11  23  38  57  88 121 152 188 235 297 347
#     4  10  21  38  61  86 114 155 202 241 279 334
#     4  11  20  33  55  85 118 153 193 235 282 336
#     4  10  22  41  65  86 108 147 198 241 280 342
#     4  12  22  37  56  88 120 148 187 240 297 343
#
# _framework density 19.027251
#
# number of rings (size 3 to 8) (size 9 to 14) (size 15 to 20)
#    0.000    1.500    3.333    3.000    0.000    2.667 
#    0.000    4.167    1.833    0.000    0.000    0.000 
#    0.000    0.000    0.000    0.000    0.000    0.000 
#
# Total GULP energy -267957.055318 kJ/mol
# GULP energy per Si atom -5582.438652 kJ/mol
# Density = 1.898394 g / cm^3
# Si number density = 19.027251 Si / 1000 Ang^3
#
#
#
# Elastic Constant Matrix: (Units=GPa)
#
#
# Indices 1 2 3 4 5 6 
#
# 1 88.0742 19.5557 21.6255 0.0000 0.0000 0.0000
# 2 19.5557 59.4699 -1.8120 0.0000 0.0000 0.0000
# 3 21.6255 -1.8120 40.1431 0.0000 0.0000 0.0000
# 4 0.0000 0.0000 0.0000 19.5816 0.0000 0.0000
# 5 0.0000 0.0000 0.0000 0.0000 18.5731 0.0000
# 6 0.0000 0.0000 0.0000 0.0000 0.0000 28.8796
#
#
#
# Elastic Compliance Matrix: (Units=1/GPa)
#
#
# Indices 1 2 3 4 5 6 
#
# 1 0.014425 -0.004987 -0.007996 0.000000 0.000000 0.000000
# 2 -0.004987 0.018562 0.003524 0.000000 0.000000 0.000000
# 3 -0.007996 0.003524 0.029377 0.000000 0.000000 0.000000
# 4 0.000000 0.000000 0.000000 0.051068 0.000000 0.000000
# 5 0.000000 0.000000 0.000000 0.000000 0.053841 0.000000
# 6 0.000000 0.000000 0.000000 0.000000 0.000000 0.034626
#
#
# Mechanical properties :
#
#
# Convention : Reuss Voigt Hill
#
# Bulk Modulus (GPa) = 23.01610 29.60285 26.30947
# Shear Modulus (GPa) = 21.24949 23.29474 22.27211
#
# Velocity S-wave (km/s) = 3.34547 3.50277 3.42502
# Velocity P-wave (km/s) = 5.20053 5.65253 5.43124
#
# Compressibility (1/GPa) = 0.04344785
#
# Stress axis : x y z
#
# Youngs Moduli (GPa) = 69.32594 53.87208 34.03976
#
# Poissons Ratio (x) = 0.26866 0.27218
# Poissons Ratio (y) = 0.34572 -0.11997
# Poissons Ratio (z) = 0.55432 -0.18987
#
# Static dielectric constant tensor:
#      x y z
#    x 1.648450 0.000000 0.000000 
#    y 0.000000 1.659520 0.000000 
#    z 0.000000 0.000000 1.673050 
# 
# From -- ./inp_files/42545.got.cif
#   From: 2010.05.17/outbox.cif.g08.bks.cpg/sg63_22_cif.got.tgz:42545.got - 2010.06.03 15:47:04.
