data_PCOD9471958
_publ_section_title
;
Structure prediction by ZEFSAII (Michael W. Deem and Ramdas Pophale) SiO2 
 PCOD9471958
Probable space group: C M C M
;
_chemical_formula_sum "Si O2"
_cell_formula_units_Z 96
_cell_length_a 25.477621
_cell_length_b 24.213590
_cell_length_c 8.946987
_cell_angle_alpha 90.000000
_cell_angle_beta 90.000000
_cell_angle_gamma 90.000000
_cell_volume 5519.438054
_symmetry_space_group_name_H-M "C M C M"
_symmetry_group_IT_number 63
_symmetry_cell_setting 'orthorhombic'
loop_
_space_group_symop_operation_xyz
x,y,z
-x,-y,1/2+z
x,-y,-z
-x,y,1/2-z
-x,-y,-z
x,y,1/2-z
-x,y,z
x,-y,1/2+z
1/2+x,1/2+y,z
1/2-x,1/2-y,1/2+z
1/2+x,1/2-y,-z
1/2-x,1/2+y,1/2-z
1/2-x,1/2-y,-z
1/2+x,1/2+y,1/2-z
1/2-x,1/2+y,z
1/2+x,1/2-y,1/2+z
loop_
_atom_site_type_symbol
_atom_site_label
_atom_site_fract_x
_atom_site_fract_y
_atom_site_fract_z
Si Si1 0.812196 0.059036 0.428326
Si Si2 0.500000 0.560273 0.570710
Si Si3 0.811478 0.558860 0.427769
Si Si4 0.062009 0.246179 0.429968
Si Si5 0.101556 0.367485 0.430082
Si Si6 0.601052 0.633819 0.929330
Si Si7 0.000000 0.560298 0.929864
O O1 0.819697 0.056710 0.250000
O O2 0.750325 0.067756 0.458958
O O3 0.847636 0.106426 0.499521
O O4 0.827093 0.000000 0.500000
O O5 0.500000 0.500000 0.500000
O O6 0.500000 0.554829 0.750000
O O7 0.448464 0.595032 0.528119
O O8 0.826618 0.500000 0.500000
O O9 0.818469 0.555510 0.250000
O O10 0.847275 0.606741 0.495190
O O11 0.065650 0.240040 0.250000
O O12 0.088444 0.304452 0.470833
O O13 0.089008 0.194518 0.508985
O O14 0.000000 0.247771 0.467829
O O15 0.106647 0.369903 0.250000
O O16 0.051683 0.405282 0.472779
O O17 0.604981 0.634679 0.750000
O O18 0.000000 0.555725 0.750000
O O19 0.000000 0.500000 0.000000
#
# Coordination Sequence:
#
# PCOD9471958 Si02
#       7
#    16   8  16  16  16  16   8
#     4  10  21  38  59  84 113 147 187 230 279 335
#     4  10  22  35  50  78 112 141 173 220 273 326
#     4  10  21  37  58  84 114 147 186 231 281 333
#     4  10  20  37  59  81 109 151 191 228 278 332
#     4  10  20  36  57  81 112 146 188 231 276 333
#     4  11  22  37  56  82 114 146 186 231 277 331
#     4  10  20  33  50  78 112 143 177 224 275 330
#
# _framework density 17.393075
#
# number of rings (size 3 to 8) (size 9 to 14) (size 15 to 20)
#    0.000    1.833    1.667    2.500    0.000    7.333 
#    0.000    0.833    0.000    0.000    0.000    0.000 
#    0.000    0.000    0.000    0.000    0.000    0.000 
#
# Total GULP energy -268140.545942 kJ/mol
# GULP energy per Si atom -5586.261374 kJ/mol
# Density = 1.735349 g / cm^3
# Si number density = 17.393075 Si / 1000 Ang^3
#
#
#
# Elastic Constant Matrix: (Units=GPa)
#
#
# Indices 1 2 3 4 5 6 
#
# 1 93.9918 87.2115 52.6546 0.0000 0.0000 0.0000
# 2 87.2115 185.9372 64.6772 0.0000 0.0000 0.0000
# 3 52.6546 64.6772 43.9263 0.0000 0.0000 0.0000
# 4 0.0000 0.0000 0.0000 35.6663 0.0000 0.0000
# 5 0.0000 0.0000 0.0000 0.0000 15.7202 0.0000
# 6 0.0000 0.0000 0.0000 0.0000 0.0000 25.8807
#
#
#
# Elastic Compliance Matrix: (Units=1/GPa)
#
#
# Indices 1 2 3 4 5 6 
#
# 1 0.033511 -0.003577 -0.034902 0.000000 0.000000 0.000000
# 2 -0.003577 0.011406 -0.012507 0.000000 0.000000 0.000000
# 3 -0.034902 -0.012507 0.083018 0.000000 0.000000 0.000000
# 4 0.000000 0.000000 0.000000 0.028038 0.000000 0.000000
# 5 0.000000 0.000000 0.000000 0.000000 0.063613 0.000000
# 6 0.000000 0.000000 0.000000 0.000000 0.000000 0.038639
#
#
# Mechanical properties :
#
#
# Convention : Reuss Voigt Hill
#
# Bulk Modulus (GPa) = 38.51720 81.43798 59.97759
# Shear Modulus (GPa) = 13.55558 23.40757 18.48158
#
# Velocity S-wave (km/s) = 2.79474 3.67249 3.26326
# Velocity P-wave (km/s) = 5.71028 8.05647 6.98262
#
# Compressibility (1/GPa) = 0.02596243
#
# Stress axis : x y z
#
# Youngs Moduli (GPa) = 29.84100 87.66970 12.04557
#
# Poissons Ratio (x) = 0.31362 0.42042
# Poissons Ratio (y) = 0.10675 0.15065
# Poissons Ratio (z) = 1.04152 1.09647
#
# Static dielectric constant tensor:
#      x y z
#    x 1.582330 0.000000 0.000000 
#    y 0.000000 1.555950 0.000000 
#    z 0.000000 0.000000 1.579220 
# 
# From -- ./inp_files/10511.got.cif
#   From: 2010.05.17/outbox.cif.g08.bks.cpg/sg63_6_cif.got.tgz:10511.got - 2010.06.03 15:47:04.
