data_PCOD9471220
_publ_section_title
;
Structure prediction by ZEFSAII (Michael W. Deem and Ramdas Pophale) SiO2 
 PCOD9471220
Probable space group: C M C M
;
_chemical_formula_sum "Si O2"
_cell_formula_units_Z 104
_cell_length_a 32.626957
_cell_length_b 21.171420
_cell_length_c 8.850276
_cell_angle_alpha 90.000000
_cell_angle_beta 90.000000
_cell_angle_gamma 90.000000
_cell_volume 6113.407888
_symmetry_space_group_name_H-M "C M C M"
_symmetry_group_IT_number 63
_symmetry_cell_setting 'orthorhombic'
loop_
_space_group_symop_operation_xyz
x,y,z
-x,-y,1/2+z
x,-y,-z
-x,y,1/2-z
-x,-y,-z
x,y,1/2-z
-x,y,z
x,-y,1/2+z
1/2+x,1/2+y,z
1/2-x,1/2-y,1/2+z
1/2+x,1/2-y,-z
1/2-x,1/2+y,1/2-z
1/2-x,1/2-y,-z
1/2+x,1/2+y,1/2-z
1/2-x,1/2+y,z
1/2+x,1/2-y,1/2+z
loop_
_atom_site_type_symbol
_atom_site_label
_atom_site_fract_x
_atom_site_fract_y
_atom_site_fract_z
Si Si1 0.070308 0.150113 0.927084
Si Si2 0.157027 0.825957 0.931229
Si Si3 0.866362 0.315424 0.067806
Si Si4 0.046014 0.296234 0.927365
Si Si5 0.784706 0.931826 0.068535
Si Si6 0.188535 0.566707 0.568436
Si Si7 0.000000 0.931743 0.570628
O O1 0.075478 0.135195 0.750000
O O2 0.051398 0.220459 0.936952
O O3 0.113303 0.148904 0.012170
O O4 0.039378 0.103990 0.007753
O O5 0.160584 0.828428 0.750000
O O6 0.154611 0.751578 0.977929
O O7 0.190747 0.871847 0.003962
O O8 0.867897 0.314661 0.250000
O O9 0.838895 0.374398 0.017390
O O10 0.913011 0.320947 0.008623
O O11 0.047885 0.313286 0.750000
O O12 0.000000 0.313008 0.983712
O O13 0.789007 0.934077 0.250000
O O14 0.736493 0.924216 0.029855
O O15 0.797962 0.000000 0.000000
O O16 0.174988 0.500000 0.500000
O O17 0.185979 0.563181 0.750000
O O18 0.000000 0.933071 0.750000
O O19 0.000000 0.000000 0.500000
#
# Coordination Sequence:
#
# PCOD9471220 Si02
#       7
#    16  16  16  16  16  16   8
#     4  10  19  35  53  71  98 132 168 212 260 305
#     4  10  20  34  52  78 108 137 172 217 264 313
#     4   9  19  34  52  79 110 138 171 215 263 313
#     4   9  17  31  52  77 104 133 166 207 252 304
#     4  10  20  35  54  75 101 139 180 219 263 314
#     4   9  19  36  56  78 106 138 175 215 260 314
#     4  12  24  36  50  70  96 130 173 216 261 310
#
# _framework density 17.011789
#
# number of rings (size 3 to 8) (size 9 to 14) (size 15 to 20)
#    0.000    2.308    0.769    2.077    0.000    4.000 
#    0.000    3.077    0.000    0.462    0.000    0.000 
#    0.000    0.000    0.000    0.000    0.000    0.000 
#
# Total GULP energy -289901.466403 kJ/mol
# GULP energy per Si atom -5575.028200 kJ/mol
# Density = 1.697307 g / cm^3
# Si number density = 17.011789 Si / 1000 Ang^3
#
#
#
# Elastic Constant Matrix: (Units=GPa)
#
#
# Indices 1 2 3 4 5 6 
#
# 1 109.1949 89.1057 34.0061 0.0000 0.0000 0.0000
# 2 89.1057 128.4779 43.5296 0.0000 0.0000 0.0000
# 3 34.0061 43.5296 37.3669 0.0000 0.0000 0.0000
# 4 0.0000 0.0000 0.0000 25.2712 0.0000 0.0000
# 5 0.0000 0.0000 0.0000 0.0000 28.6367 0.0000
# 6 0.0000 0.0000 0.0000 0.0000 0.0000 36.6232
#
#
#
# Elastic Compliance Matrix: (Units=1/GPa)
#
#
# Indices 1 2 3 4 5 6 
#
# 1 0.021390 -0.013612 -0.003609 0.000000 0.000000 0.000000
# 2 -0.013612 0.021521 -0.012683 0.000000 0.000000 0.000000
# 3 -0.003609 -0.012683 0.044820 0.000000 0.000000 0.000000
# 4 0.000000 0.000000 0.000000 0.039571 0.000000 0.000000
# 5 0.000000 0.000000 0.000000 0.000000 0.034920 0.000000
# 6 0.000000 0.000000 0.000000 0.000000 0.000000 0.027305
#
#
# Mechanical properties :
#
#
# Convention : Reuss Voigt Hill
#
# Bulk Modulus (GPa) = 35.81161 67.59138 51.70150
# Shear Modulus (GPa) = 19.33176 25.33279 22.33227
#
# Velocity S-wave (km/s) = 3.37467 3.86311 3.62712
# Velocity P-wave (km/s) = 6.02340 7.72765 6.92813
#
# Compressibility (1/GPa) = 0.02792390
#
# Stress axis : x y z
#
# Youngs Moduli (GPa) = 46.75187 46.46611 22.31135
#
# Poissons Ratio (x) = 0.63250 0.08052
# Poissons Ratio (y) = 0.63639 0.28297
# Poissons Ratio (z) = 0.16872 0.58932
#
# Static dielectric constant tensor:
#      x y z
#    x 1.558700 0.000000 0.000000 
#    y 0.000000 1.561510 0.000000 
#    z 0.000000 0.000000 1.571630 
# 
# From -- ./inp_files/12531.got.cif
#   From: 2010.05.17/outbox.cif.g08.bks.cpg/sg63_7_cif.got.tgz:12531.got - 2010.06.03 15:47:04.
