data_PCOD9471270
_publ_section_title
;
Structure prediction by ZEFSAII (Michael W. Deem and Ramdas Pophale) SiO2 
 PCOD9471270
Probable space group: C M C M
;
_chemical_formula_sum "Si O2"
_cell_formula_units_Z 96
_cell_length_a 22.875668
_cell_length_b 7.467116
_cell_length_c 26.565635
_cell_angle_alpha 90.000000
_cell_angle_beta 90.000000
_cell_angle_gamma 90.000000
_cell_volume 4537.816023
_symmetry_space_group_name_H-M "C M C M"
_symmetry_group_IT_number 63
_symmetry_cell_setting 'orthorhombic'
loop_
_space_group_symop_operation_xyz
x,y,z
-x,-y,1/2+z
x,-y,-z
-x,y,1/2-z
-x,-y,-z
x,y,1/2-z
-x,y,z
x,-y,1/2+z
1/2+x,1/2+y,z
1/2-x,1/2-y,1/2+z
1/2+x,1/2-y,-z
1/2-x,1/2+y,1/2-z
1/2-x,1/2-y,-z
1/2+x,1/2+y,1/2-z
1/2-x,1/2+y,z
1/2+x,1/2-y,1/2+z
loop_
_atom_site_type_symbol
_atom_site_label
_atom_site_fract_x
_atom_site_fract_y
_atom_site_fract_z
Si Si1 0.787241 0.454464 0.445894
Si Si2 0.630615 0.339065 0.907612
Si Si3 0.000000 0.249821 0.958100
Si Si4 0.500000 0.329677 0.573970
Si Si5 0.381665 0.233518 0.412368
Si Si6 0.777739 0.022882 0.343521
Si Si7 0.659925 0.188549 0.194895
O O1 0.759668 0.500000 0.500000
O O2 0.832125 0.285671 0.445638
O O3 0.827440 0.625998 0.434290
O O4 0.743714 0.444888 0.398114
O O5 0.562883 0.281835 0.901644
O O6 0.625222 0.551855 0.920177
O O7 0.673088 0.331564 0.858798
O O8 0.059510 0.331933 0.938244
O O9 0.000000 0.045632 0.935897
O O10 0.000000 0.247736 0.017833
O O11 0.382562 0.184705 0.353048
O O12 0.718225 0.075700 0.316739
O O13 0.812824 0.886052 0.309561
O O14 0.635900 0.150412 0.250000
#
# Coordination Sequence:
#
# PCOD9471270 Si02
#       7
#    16  16   8   8  16  16  16
#     4  11  22  35  53  83 114 152 186 219 280 334
#     4  10  20  38  53  77 117 144 191 228 266 327
#     4   9  16  35  52  79 109 145 192 225 270 323
#     4   9  18  31  57  79 103 159 191 217 268 323
#     4   9  21  36  56  79 113 145 184 240 274 328
#     4  10  20  37  52  81 114 141 182 233 279 337
#     4  10  19  35  57  80 104 140 183 234 291 333
#
# _framework density 21.155550000000002
#
# number of rings (size 3 to 8) (size 9 to 14) (size 15 to 20)
#    0.000    2.167    1.667    1.500    0.000    3.333 
#    9.000    2.083    0.000    0.000    0.000    1.750 
#    0.000    0.000    0.000    0.000    0.000    0.000 
#
# Total GULP energy -267554.679818 kJ/mol
# GULP energy per Si atom -5574.055830 kJ/mol
# Density = 2.110740 g / cm^3
# Si number density = 21.155550 Si / 1000 Ang^3
#
#
#
# Elastic Constant Matrix: (Units=GPa)
#
#
# Indices 1 2 3 4 5 6 
#
# 1 101.7692 13.2226 3.9754 0.0000 0.0000 0.0000
# 2 13.2226 36.6277 12.4314 0.0000 0.0000 0.0000
# 3 3.9754 12.4314 82.6604 0.0000 0.0000 0.0000
# 4 0.0000 0.0000 0.0000 14.9325 0.0000 0.0000
# 5 0.0000 0.0000 0.0000 0.0000 -17.6897 0.0000
# 6 0.0000 0.0000 0.0000 0.0000 0.0000 -25.6224
#
#
#
# Elastic Compliance Matrix: (Units=1/GPa)
#
#
# Indices 1 2 3 4 5 6 
#
# 1 0.010310 -0.003745 0.000067 0.000000 0.000000 0.000000
# 2 -0.003745 0.030130 -0.004351 0.000000 0.000000 0.000000
# 3 0.000067 -0.004351 0.012749 0.000000 0.000000 0.000000
# 4 0.000000 0.000000 0.000000 0.066968 0.000000 0.000000
# 5 0.000000 0.000000 0.000000 0.000000 -0.056530 0.000000
# 6 0.000000 0.000000 0.000000 0.000000 0.000000 -0.039028
#
#
# Mechanical properties :
#
#
# Convention : Reuss Voigt Hill
#
# Bulk Modulus (GPa) = 26.93098 31.14623 29.03861
# Shear Modulus (GPa) = 94.27941 7.08593 50.68267
#
# Velocity S-wave (km/s) = 6.68293 1.83213 4.89991
# Velocity P-wave (km/s) = 8.50332 4.38521 6.76522
#
# Compressibility (1/GPa) = 0.03713195
#
# Stress axis : x y z
#
# Youngs Moduli (GPa) = 96.99248 33.18902 78.43845
#
# Poissons Ratio (x) = 0.12429 -0.00528
# Poissons Ratio (y) = 0.36322 0.34131
# Poissons Ratio (z) = -0.00653 0.14441
#
# Static dielectric constant tensor:
#      x y z
#    x 1.782800 0.000000 0.000000 
#    y 0.000000 1.894550 0.000000 
#    z 0.000000 0.000000 1.761840 
# 
# From -- ./inp_files/70640.got.cif
#   From: 2010.05.17/outbox.cif.g08.bks.cpg/sg63_36_cif.got.tgz:70640.got - 2010.06.03 15:47:04.
