data_PCOD9471084
_publ_section_title
;
Structure prediction by ZEFSAII (Michael W. Deem and Ramdas Pophale) SiO2 
 PCOD9471084
Probable space group: C M C M
;
_chemical_formula_sum "Si O2"
_cell_formula_units_Z 64
_cell_length_a 19.232483
_cell_length_b 15.248999
_cell_length_c 10.460114
_cell_angle_alpha 90.000000
_cell_angle_beta 90.000000
_cell_angle_gamma 90.000000
_cell_volume 3067.701586
_symmetry_space_group_name_H-M "C M C M"
_symmetry_group_IT_number 63
_symmetry_cell_setting 'orthorhombic'
loop_
_space_group_symop_operation_xyz
x,y,z
-x,-y,1/2+z
x,-y,-z
-x,y,1/2-z
-x,-y,-z
x,y,1/2-z
-x,y,z
x,-y,1/2+z
1/2+x,1/2+y,z
1/2-x,1/2-y,1/2+z
1/2+x,1/2-y,-z
1/2-x,1/2+y,1/2-z
1/2-x,1/2-y,-z
1/2+x,1/2+y,1/2-z
1/2-x,1/2+y,z
1/2+x,1/2-y,1/2+z
loop_
_atom_site_type_symbol
_atom_site_label
_atom_site_fract_x
_atom_site_fract_y
_atom_site_fract_z
Si Si1 0.082571 0.395960 0.250000
Si Si2 0.781508 0.821712 0.597817
Si Si3 0.153063 0.400116 0.994133
Si Si4 0.579276 0.110880 0.250000
Si Si5 0.579599 0.579401 0.100438
O O1 0.126328 0.362913 0.372077
O O2 0.084521 0.503458 0.250000
O O3 0.000000 0.372557 0.250000
O O4 0.771031 0.804675 0.750000
O O5 0.750000 0.750000 0.500000
O O6 0.732628 0.901934 0.551083
O O7 0.861139 0.848329 0.577378
O O8 0.114987 0.354361 0.876794
O O9 0.127961 0.500000 0.000000
O O10 0.500000 0.134046 0.250000
O O11 0.588178 0.550841 0.250000
O O12 0.500000 0.611705 0.087354
O O13 0.588499 0.500000 0.000000
#
# Coordination Sequence:
#
# PCOD9471084 Si02
#       5
#     8  16  16   8  16
#     4   9  18  30  51  82 111 143 185 228 276 330
#     4  11  24  40  58  83 121 159 195 241 302 364
#     4  10  19  34  56  82 110 147 193 242 290 344
#     4   9  16  30  51  76 111 145 179 228 274 320
#     4   9  19  39  67  95 121 153 200 257 310 361
#
# _framework density 20.862527
#
# number of rings (size 3 to 8) (size 9 to 14) (size 15 to 20)
#    0.000    2.250    1.250    1.500    1.750    4.000 
#    0.000    2.500    0.000    0.000    0.000    0.000 
#    0.000    0.000    0.000    0.000    0.000    0.000 
#
# Total GULP energy -178168.447623 kJ/mol
# GULP energy per Si atom -5567.763988 kJ/mol
# Density = 2.081504 g / cm^3
# Si number density = 20.862527 Si / 1000 Ang^3
#
#
#
# Elastic Constant Matrix: (Units=GPa)
#
#
# Indices 1 2 3 4 5 6 
#
# 1 150.7067 30.7748 97.2051 0.0000 0.0000 0.0000
# 2 30.7748 34.8752 52.1674 0.0000 0.0000 0.0000
# 3 97.2051 52.1674 193.9473 0.0000 0.0000 0.0000
# 4 0.0000 0.0000 0.0000 21.1652 0.0000 0.0000
# 5 0.0000 0.0000 0.0000 0.0000 -3.5752 0.0000
# 6 0.0000 0.0000 0.0000 0.0000 0.0000 16.7969
#
#
#
# Elastic Compliance Matrix: (Units=1/GPa)
#
#
# Indices 1 2 3 4 5 6 
#
# 1 0.009905 -0.002200 -0.004373 0.000000 0.000000 0.000000
# 2 -0.002200 0.048465 -0.011934 0.000000 0.000000 0.000000
# 3 -0.004373 -0.011934 0.010557 0.000000 0.000000 0.000000
# 4 0.000000 0.000000 0.000000 0.047247 0.000000 0.000000
# 5 0.000000 0.000000 0.000000 0.000000 -0.279705 0.000000
# 6 0.000000 0.000000 0.000000 0.000000 0.000000 0.059535
#
#
# Mechanical properties :
#
#
# Convention : Reuss Voigt Hill
#
# Bulk Modulus (GPa) = 31.33238 82.20264 56.76751
# Shear Modulus (GPa) = -88.73840 20.16952 -34.28444
#
# Velocity S-wave (km/s) = -6.52895 3.11269 -4.05822
# Velocity P-wave (km/s) = 6.46414 7.23920 2.30444
#
# Compressibility (1/GPa) = 0.03191586
#
# Stress axis : x y z
#
# Youngs Moduli (GPa) = 100.96011 20.63333 94.72009
#
# Poissons Ratio (x) = 0.04539 0.41417
# Poissons Ratio (y) = 0.22208 1.13035
# Poissons Ratio (z) = 0.44146 0.24623
#
# Static dielectric constant tensor:
#      x y z
#    x 1.847740 0.000000 0.000000 
#    y 0.000000 1.865260 0.000000 
#    z 0.000000 0.000000 1.777720 
# 
# From -- ./inp_files/7530.got.cif
#   From: 2010.05.17/outbox.cif.g08.bks.cpg/sg63_4_cif.got.tgz:7530.got - 2010.06.03 15:47:04.
