data_PCOD9471859
_publ_section_title
;
Structure prediction by ZEFSAII (Michael W. Deem and Ramdas Pophale) SiO2 
 PCOD9471859
Probable space group: C M C M
;
_chemical_formula_sum "Si O2"
_cell_formula_units_Z 96
_cell_length_a 14.384629
_cell_length_b 10.053159
_cell_length_c 27.192750
_cell_angle_alpha 90.000000
_cell_angle_beta 90.000000
_cell_angle_gamma 90.000000
_cell_volume 3932.369750
_symmetry_space_group_name_H-M "C M C M"
_symmetry_group_IT_number 63
_symmetry_cell_setting 'orthorhombic'
loop_
_space_group_symop_operation_xyz
x,y,z
-x,-y,1/2+z
x,-y,-z
-x,y,1/2-z
-x,-y,-z
x,y,1/2-z
-x,y,z
x,-y,1/2+z
1/2+x,1/2+y,z
1/2-x,1/2-y,1/2+z
1/2+x,1/2-y,-z
1/2-x,1/2+y,1/2-z
1/2-x,1/2-y,-z
1/2+x,1/2+y,1/2-z
1/2-x,1/2+y,z
1/2+x,1/2-y,1/2+z
loop_
_atom_site_type_symbol
_atom_site_label
_atom_site_fract_x
_atom_site_fract_y
_atom_site_fract_z
Si Si1 0.194131 0.809773 0.646878
Si Si2 0.110107 0.592549 0.576214
Si Si3 0.612379 0.290353 0.750000
Si Si4 0.891531 0.007077 0.576696
Si Si5 0.607919 0.151811 0.354323
Si Si6 0.893252 0.226611 0.505591
Si Si7 0.608997 0.995030 0.750000
O O1 0.136759 0.694674 0.619469
O O2 0.153359 0.844978 0.699851
O O3 0.176771 0.944218 0.616058
O O4 0.300107 0.760069 0.646866
O O5 0.121460 0.446054 0.598629
O O6 0.150031 0.648379 0.523952
O O7 0.000000 0.606357 0.569150
O O8 0.500000 0.300187 0.750000
O O9 0.652316 0.139608 0.750000
O O10 0.858976 0.146757 0.553292
O O11 0.000000 0.019094 0.593084
O O12 0.894101 0.891841 0.534846
O O13 0.500000 0.197968 0.354680
O O14 0.623101 0.076965 0.301864
O O15 0.000000 0.260325 0.518422
O O16 0.500000 0.023369 0.750000
#
# Coordination Sequence:
#
# PCOD9471859 Si02
#       7
#    16  16   8  16  16  16   8
#     4  11  19  28  48  75  95 124 155 195 235 278
#     4   9  16  30  51  74  96 120 158 199 236 275
#     4  11  19  30  51  78  98 116 149 197 242 277
#     4   8  13  23  40  68  99 121 148 187 238 284
#     4  10  20  33  48  69  95 125 160 197 230 271
#     4   7  11  21  41  66  94 123 147 186 235 278
#     4   9  17  32  50  66  88 120 152 189 231 273
#
# _framework density 24.412759999999999
#
# number of rings (size 3 to 8) (size 9 to 14) (size 15 to 20)
#    0.000    2.833    1.667    4.000    0.000    0.000 
#    0.000    0.833    0.000    3.000    0.000    9.333 
#    0.000    0.000    0.000    0.000    0.000    0.000 
#
# Total GULP energy -267734.200721 kJ/mol
# GULP energy per Si atom -5577.795848 kJ/mol
# Density = 2.435720 g / cm^3
# Si number density = 24.412760 Si / 1000 Ang^3
#
#
#
# Elastic Constant Matrix: (Units=GPa)
#
#
# Indices 1 2 3 4 5 6 
#
# 1 122.3754 9.9019 22.6524 0.0000 0.0000 0.0000
# 2 9.9019 51.9324 17.9621 0.0000 0.0000 0.0000
# 3 22.6524 17.9621 113.2286 0.0000 0.0000 0.0000
# 4 0.0000 0.0000 0.0000 19.9632 0.0000 0.0000
# 5 0.0000 0.0000 0.0000 0.0000 -2.5119 0.0000
# 6 0.0000 0.0000 0.0000 0.0000 0.0000 8.4181
#
#
#
# Elastic Compliance Matrix: (Units=1/GPa)
#
#
# Indices 1 2 3 4 5 6 
#
# 1 0.008545 -0.001098 -0.001535 0.000000 0.000000 0.000000
# 2 -0.001098 0.020515 -0.003035 0.000000 0.000000 0.000000
# 3 -0.001535 -0.003035 0.009620 0.000000 0.000000 0.000000
# 4 0.000000 0.000000 0.000000 0.050092 0.000000 0.000000
# 5 0.000000 0.000000 0.000000 0.000000 -0.398108 0.000000
# 6 0.000000 0.000000 0.000000 0.000000 0.000000 0.118792
#
#
# Mechanical properties :
#
#
# Convention : Reuss Voigt Hill
#
# Bulk Modulus (GPa) = 36.57180 43.17437 39.87309
# Shear Modulus (GPa) = -29.39553 20.97521 -4.21016
#
# Velocity S-wave (km/s) = -3.47379 2.93438 -1.31465
# Velocity P-wave (km/s) = 1.03752 5.40410 3.75019
#
# Compressibility (1/GPa) = 0.02734347
#
# Stress axis : x y z
#
# Youngs Moduli (GPa) = 117.03279 48.74522 103.94761
#
# Poissons Ratio (x) = 0.05353 0.15958
# Poissons Ratio (y) = 0.12853 0.31545
# Poissons Ratio (z) = 0.17967 0.14793
#
# Static dielectric constant tensor:
#      x y z
#    x 1.912940 0.000000 0.000000 
#    y 0.000000 2.011670 0.000000 
#    z 0.000000 0.000000 1.812660 
# 
# From -- ./inp_files/73357.got.cif
#   From: 2010.05.17/outbox.cif.g08.bks.cpg/sg63_37_cif.got.tgz:73357.got - 2010.06.03 15:47:04.
