data_PCOD9471639
_publ_section_title
;
Structure prediction by ZEFSAII (Michael W. Deem and Ramdas Pophale) SiO2 
 PCOD9471639
Probable space group: C M C M
;
_chemical_formula_sum "Si O2"
_cell_formula_units_Z 112
_cell_length_a 23.693428
_cell_length_b 13.081492
_cell_length_c 22.183292
_cell_angle_alpha 90.000000
_cell_angle_beta 90.000000
_cell_angle_gamma 90.000000
_cell_volume 6875.609065
_symmetry_space_group_name_H-M "C M C M"
_symmetry_group_IT_number 63
_symmetry_cell_setting 'orthorhombic'
loop_
_space_group_symop_operation_xyz
x,y,z
-x,-y,1/2+z
x,-y,-z
-x,y,1/2-z
-x,-y,-z
x,y,1/2-z
-x,y,z
x,-y,1/2+z
1/2+x,1/2+y,z
1/2-x,1/2-y,1/2+z
1/2+x,1/2-y,-z
1/2-x,1/2+y,1/2-z
1/2-x,1/2-y,-z
1/2+x,1/2+y,1/2-z
1/2-x,1/2+y,z
1/2+x,1/2-y,1/2+z
loop_
_atom_site_type_symbol
_atom_site_label
_atom_site_fract_x
_atom_site_fract_y
_atom_site_fract_z
Si Si1 0.671730 0.814403 0.388168
Si Si2 0.432849 0.482758 0.819759
Si Si3 0.760246 0.517086 0.105080
Si Si4 0.657459 0.612019 0.881721
Si Si5 0.700934 0.331809 0.513357
Si Si6 0.220219 0.712922 0.321592
Si Si7 0.435429 0.242666 0.677927
O O1 0.697544 0.923389 0.409125
O O2 0.661746 0.733281 0.441849
O O3 0.721478 0.762193 0.347855
O O4 0.613615 0.823117 0.352300
O O5 0.415142 0.501345 0.750000
O O6 0.500000 0.497581 0.822902
O O7 0.400052 0.557135 0.864569
O O8 0.422294 0.362981 0.833302
O O9 0.706950 0.465771 0.138123
O O10 0.732228 0.577462 0.049134
O O11 0.786369 0.602470 0.148018
O O12 0.670052 0.715149 0.845538
O O13 0.670190 0.633678 0.952336
O O14 0.750000 0.250000 0.500000
O O15 0.222482 0.708591 0.250000
O O16 0.434010 0.229476 0.750000
O O17 0.500000 0.222462 0.657902
#
# Coordination Sequence:
#
# PCOD9471639 Si02
#       7
#    16  16  16  16  16  16  16
#     4  10  20  32  51  72 101 136 170 207 261 310
#     4   9  18  33  53  76 102 136 174 212 260 311
#     4  10  20  31  49  74 102 135 169 208 254 314
#     4  11  20  31  52  72 103 135 173 207 255 307
#     4  11  19  34  49  74 103 135 170 207 254 307
#     4  10  20  31  45  74 107 129 162 210 258 311
#     4   9  18  34  54  76 103 135 175 219 259 302
#
# _framework density 16.289466000000001
#
# number of rings (size 3 to 8) (size 9 to 14) (size 15 to 20)
#    0.000    2.000    4.286    3.857    0.000    4.571 
#    0.000    0.714    0.000    4.286    0.000    3.000 
#    0.000    0.000    0.000    0.000    0.000    0.000 
#
# Total GULP energy -312059.486566 kJ/mol
# GULP energy per Si atom -5572.490832 kJ/mol
# Density = 1.625239 g / cm^3
# Si number density = 16.289466 Si / 1000 Ang^3
#
#
#
# Elastic Constant Matrix: (Units=GPa)
#
#
# Indices 1 2 3 4 5 6 
#
# 1 45.7220 23.7208 7.2996 0.0000 0.0000 0.0000
# 2 23.7208 97.6804 32.7091 0.0000 0.0000 0.0000
# 3 7.2996 32.7091 63.1637 0.0000 0.0000 0.0000
# 4 0.0000 0.0000 0.0000 21.8684 0.0000 0.0000
# 5 0.0000 0.0000 0.0000 0.0000 25.0566 0.0000
# 6 0.0000 0.0000 0.0000 0.0000 0.0000 22.8377
#
#
#
# Elastic Compliance Matrix: (Units=1/GPa)
#
#
# Indices 1 2 3 4 5 6 
#
# 1 0.025029 -0.006181 0.000308 0.000000 0.000000 0.000000
# 2 -0.006181 0.013912 -0.006490 0.000000 0.000000 0.000000
# 3 0.000308 -0.006490 0.019157 0.000000 0.000000 0.000000
# 4 0.000000 0.000000 0.000000 0.045728 0.000000 0.000000
# 5 0.000000 0.000000 0.000000 0.000000 0.039910 0.000000
# 6 0.000000 0.000000 0.000000 0.000000 0.000000 0.043787
#
#
# Mechanical properties :
#
#
# Convention : Reuss Voigt Hill
#
# Bulk Modulus (GPa) = 29.96496 37.11391 33.53944
# Shear Modulus (GPa) = 22.38420 23.47499 22.92959
#
# Velocity S-wave (km/s) = 3.71098 3.80032 3.75591
# Velocity P-wave (km/s) = 6.06606 6.48768 6.28041
#
# Compressibility (1/GPa) = 0.03337231
#
# Stress axis : x y z
#
# Youngs Moduli (GPa) = 39.95372 71.88190 52.20041
#
# Poissons Ratio (x) = 0.44433 -0.01610
# Poissons Ratio (y) = 0.24697 0.33877
# Poissons Ratio (z) = -0.01232 0.46650
#
# Static dielectric constant tensor:
#      x y z
#    x 1.537910 0.000000 0.000000 
#    y 0.000000 1.582570 0.000000 
#    z 0.000000 0.000000 1.593600 
# 
# From -- ./inp_files/65110.got.cif
#   From: 2010.05.17/outbox.cif.g08.bks.cpg/sg63_33_cif.got.tgz:65110.got - 2010.06.03 15:47:04.
