data_PCOD9471889
_publ_section_title
;
Structure prediction by ZEFSAII (Michael W. Deem and Ramdas Pophale) SiO2 
 PCOD9471889
Probable space group: C M C M
;
_chemical_formula_sum "Si O2"
_cell_formula_units_Z 80
_cell_length_a 12.857829
_cell_length_b 22.520566
_cell_length_c 12.457643
_cell_angle_alpha 90.000000
_cell_angle_beta 90.000000
_cell_angle_gamma 90.000000
_cell_volume 3607.304703
_symmetry_space_group_name_H-M "C M C M"
_symmetry_group_IT_number 63
_symmetry_cell_setting 'orthorhombic'
loop_
_space_group_symop_operation_xyz
x,y,z
-x,-y,1/2+z
x,-y,-z
-x,y,1/2-z
-x,-y,-z
x,y,1/2-z
-x,y,z
x,-y,1/2+z
1/2+x,1/2+y,z
1/2-x,1/2-y,1/2+z
1/2+x,1/2-y,-z
1/2-x,1/2+y,1/2-z
1/2-x,1/2-y,-z
1/2+x,1/2+y,1/2-z
1/2-x,1/2+y,z
1/2+x,1/2-y,1/2+z
loop_
_atom_site_type_symbol
_atom_site_label
_atom_site_fract_x
_atom_site_fract_y
_atom_site_fract_z
Si Si1 0.314742 0.534494 0.365399
Si Si2 0.886865 0.908638 0.414611
Si Si3 0.711032 0.162488 0.956002
Si Si4 0.882340 0.453508 0.124810
Si Si5 0.122634 0.215529 0.121991
O O1 0.319942 0.564827 0.250000
O O2 0.377664 0.472799 0.361480
O O3 0.360302 0.572657 0.461931
O O4 0.199612 0.507439 0.384925
O O5 0.803814 0.860503 0.378783
O O6 0.000000 0.884363 0.402004
O O7 0.643833 0.101740 0.953471
O O8 0.642227 0.216180 0.913588
O O9 0.780324 0.183509 0.059149
O O10 0.872731 0.433175 0.250000
O O11 0.000000 0.473280 0.110066
O O12 0.133966 0.209606 0.250000
O O13 0.000000 0.199715 0.096544
#
# Coordination Sequence:
#
# PCOD9471889 Si02
#       5
#    16  16  16  16  16
#     4   9  18  32  50  75 106 140 178 216 252 301
#     4  10  20  33  49  75 108 139 173 213 262 314
#     4  10  20  34  55  81 106 134 177 226 264 314
#     4   9  17  32  56  83 111 146 183 216 256 308
#     4  10  21  38  59  80 104 138 177 218 270 328
#
# _framework density 22.177223000000001
#
# number of rings (size 3 to 8) (size 9 to 14) (size 15 to 20)
#    0.000    2.400    0.000    3.000    0.000    4.800 
#    0.000    9.000    0.000   34.800    0.000    0.000 
#    0.000    0.000    0.000    0.000    0.000    0.000 
#
# Total GULP energy -222776.058336 kJ/mol
# GULP energy per Si atom -5569.401458 kJ/mol
# Density = 2.212675 g / cm^3
# Si number density = 22.177223 Si / 1000 Ang^3
#
#
#
# Elastic Constant Matrix: (Units=GPa)
#
#
# Indices 1 2 3 4 5 6 
#
# 1 130.0338 -20.6155 15.6802 0.0000 0.0000 0.0000
# 2 -20.6155 43.2441 21.8315 0.0000 0.0000 0.0000
# 3 15.6802 21.8315 128.8745 0.0000 0.0000 0.0000
# 4 0.0000 0.0000 0.0000 -2.3133 0.0000 0.0000
# 5 0.0000 0.0000 0.0000 0.0000 26.0095 0.0000
# 6 0.0000 0.0000 0.0000 0.0000 0.0000 -14.7418
#
#
#
# Elastic Compliance Matrix: (Units=1/GPa)
#
#
# Indices 1 2 3 4 5 6 
#
# 1 0.008739 0.005143 -0.001934 0.000000 0.000000 0.000000
# 2 0.005143 0.028313 -0.005422 0.000000 0.000000 0.000000
# 3 -0.001934 -0.005422 0.008913 0.000000 0.000000 0.000000
# 4 0.000000 0.000000 0.000000 -0.432287 0.000000 0.000000
# 5 0.000000 0.000000 0.000000 0.000000 0.038447 0.000000
# 6 0.000000 0.000000 0.000000 0.000000 0.000000 -0.067834
#
#
# Mechanical properties :
#
#
# Convention : Reuss Voigt Hill
#
# Bulk Modulus (GPa) = 24.07436 37.32719 30.70078
# Shear Modulus (GPa) = -12.58069 20.80796 4.11363
#
# Velocity S-wave (km/s) = -2.38435 3.06642 1.36342
# Velocity P-wave (km/s) = 1.81628 5.42265 4.04376
#
# Compressibility (1/GPa) = 0.04153797
#
# Stress axis : x y z
#
# Youngs Moduli (GPa) = 114.43117 35.31893 112.19125
#
# Poissons Ratio (x) = -0.18163 0.21703
# Poissons Ratio (y) = -0.58848 0.60830
# Poissons Ratio (z) = 0.22136 0.19150
#
# Static dielectric constant tensor:
#      x y z
#    x 1.838670 0.000000 0.000000 
#    y 0.000000 1.859210 0.000000 
#    z 0.000000 0.000000 1.904060 
# 
# From -- ./inp_files/17874.got.cif
#   From: 2010.05.17/outbox.cif.g08.bks.cpg/sg63_9_cif.got.tgz:17874.got - 2010.06.03 15:47:04.
