data_PCOD9471756
_publ_section_title
;
Structure prediction by ZEFSAII (Michael W. Deem and Ramdas Pophale) SiO2 
 PCOD9471756
Probable space group: C M C M
;
_chemical_formula_sum "Si O2"
_cell_formula_units_Z 96
_cell_length_a 7.969228
_cell_length_b 28.859507
_cell_length_c 22.946505
_cell_angle_alpha 90.000000
_cell_angle_beta 90.000000
_cell_angle_gamma 90.000000
_cell_volume 5277.420591
_symmetry_space_group_name_H-M "C M C M"
_symmetry_group_IT_number 63
_symmetry_cell_setting 'orthorhombic'
loop_
_space_group_symop_operation_xyz
x,y,z
-x,-y,1/2+z
x,-y,-z
-x,y,1/2-z
-x,-y,-z
x,y,1/2-z
-x,y,z
x,-y,1/2+z
1/2+x,1/2+y,z
1/2-x,1/2-y,1/2+z
1/2+x,1/2-y,-z
1/2-x,1/2+y,1/2-z
1/2-x,1/2-y,-z
1/2+x,1/2+y,1/2-z
1/2-x,1/2+y,z
1/2+x,1/2-y,1/2+z
loop_
_atom_site_type_symbol
_atom_site_label
_atom_site_fract_x
_atom_site_fract_y
_atom_site_fract_z
Si Si1 0.700677 0.626181 0.750000
Si Si2 0.799782 0.359670 0.376206
Si Si3 0.303624 0.446496 0.442824
Si Si4 0.301730 0.197792 0.987288
Si Si5 0.702663 0.610048 0.446109
Si Si6 0.294467 0.469319 0.631095
Si Si7 0.705232 0.518452 0.750000
O O1 0.500000 0.625157 0.750000
O O2 0.760111 0.650540 0.690716
O O3 0.761250 0.572190 0.750000
O O4 0.715128 0.408797 0.391694
O O5 0.736953 0.323762 0.425793
O O6 0.000000 0.364952 0.382549
O O7 0.500000 0.454201 0.455106
O O8 0.232303 0.421074 0.499482
O O9 0.236279 0.494757 0.418990
O O10 0.500000 0.197491 0.982309
O O11 0.250000 0.250000 0.000000
O O12 0.254241 0.162083 0.038758
O O13 0.500000 0.609759 0.447574
O O14 0.755319 0.582388 0.388204
O O15 0.500000 0.470538 0.631509
O O16 0.240191 0.490372 0.692581
O O17 0.500000 0.519492 0.750000
#
# Coordination Sequence:
#
# PCOD9471756 Si02
#       7
#     8  16  16  16  16  16   8
#     4  11  19  31  51  74 103 140 175 204 235 288
#     4  10  20  32  48  74 105 133 162 206 259 303
#     4   9  15  26  44  68  97 131 169 203 237 288
#     4  10  21  37  56  76  99 126 163 213 268 317
#     4   9  17  28  47  72  97 127 164 206 252 298
#     4   9  15  25  42  68 100 133 171 208 238 277
#     4   9  16  25  43  70  99 134 175 210 233 270
#
# _framework density 18.190702999999999
#
# number of rings (size 3 to 8) (size 9 to 14) (size 15 to 20)
#    0.000    2.500    1.667    1.750    0.000    4.000 
#    0.000    0.833    0.000    5.000    0.000    5.833 
#    0.000    0.000    0.000    0.000    0.000    0.000 
#
# Total GULP energy -267482.072818 kJ/mol
# GULP energy per Si atom -5572.543184 kJ/mol
# Density = 1.814930 g / cm^3
# Si number density = 18.190703 Si / 1000 Ang^3
#
#
#
# Elastic Constant Matrix: (Units=GPa)
#
#
# Indices 1 2 3 4 5 6 
#
# 1 22.8129 12.1686 4.7365 0.0000 0.0000 0.0000
# 2 12.1686 135.8106 49.3357 0.0000 0.0000 0.0000
# 3 4.7365 49.3357 57.8444 0.0000 0.0000 0.0000
# 4 0.0000 0.0000 0.0000 17.1922 0.0000 0.0000
# 5 0.0000 0.0000 0.0000 0.0000 15.0809 0.0000
# 6 0.0000 0.0000 0.0000 0.0000 0.0000 11.4598
#
#
#
# Elastic Compliance Matrix: (Units=1/GPa)
#
#
# Indices 1 2 3 4 5 6 
#
# 1 0.046040 -0.003993 -0.000364 0.000000 0.000000 0.000000
# 2 -0.003993 0.011015 -0.009068 0.000000 0.000000 0.000000
# 3 -0.000364 -0.009068 0.025052 0.000000 0.000000 0.000000
# 4 0.000000 0.000000 0.000000 0.058166 0.000000 0.000000
# 5 0.000000 0.000000 0.000000 0.000000 0.066309 0.000000
# 6 0.000000 0.000000 0.000000 0.000000 0.000000 0.087262
#
#
# Mechanical properties :
#
#
# Convention : Reuss Voigt Hill
#
# Bulk Modulus (GPa) = 18.09735 38.77217 28.43476
# Shear Modulus (GPa) = 14.74438 18.76172 16.75305
#
# Velocity S-wave (km/s) = 2.85010 3.21501 3.03804
# Velocity P-wave (km/s) = 4.56081 5.92809 5.28882
#
# Compressibility (1/GPa) = 0.05525672
#
# Stress axis : x y z
#
# Youngs Moduli (GPa) = 21.72014 90.78532 39.91765
#
# Poissons Ratio (x) = 0.36249 0.01455
# Poissons Ratio (y) = 0.08672 0.36197
# Poissons Ratio (z) = 0.00792 0.82322
#
# Static dielectric constant tensor:
#      x y z
#    x 1.659050 0.000000 0.000000 
#    y 0.000000 1.638240 0.000000 
#    z 0.000000 0.000000 1.677090 
# 
# From -- ./inp_files/60067.got.cif
#   From: 2010.05.17/outbox.cif.g08.bks.cpg/sg63_31_cif.got.tgz:60067.got - 2010.06.03 15:47:04.
