data_PCOD9471455
_publ_section_title
;
Structure prediction by ZEFSAII (Michael W. Deem and Ramdas Pophale) SiO2 
 PCOD9471455
Probable space group: C M C M
;
_chemical_formula_sum "Si O2"
_cell_formula_units_Z 80
_cell_length_a 25.917770
_cell_length_b 9.238430
_cell_length_c 13.669707
_cell_angle_alpha 90.000000
_cell_angle_beta 90.000000
_cell_angle_gamma 90.000000
_cell_volume 3273.067863
_symmetry_space_group_name_H-M "C M C M"
_symmetry_group_IT_number 63
_symmetry_cell_setting 'orthorhombic'
loop_
_space_group_symop_operation_xyz
x,y,z
-x,-y,1/2+z
x,-y,-z
-x,y,1/2-z
-x,-y,-z
x,y,1/2-z
-x,y,z
x,-y,1/2+z
1/2+x,1/2+y,z
1/2-x,1/2-y,1/2+z
1/2+x,1/2-y,-z
1/2-x,1/2+y,1/2-z
1/2-x,1/2-y,-z
1/2+x,1/2+y,1/2-z
1/2-x,1/2+y,z
1/2+x,1/2-y,1/2+z
loop_
_atom_site_type_symbol
_atom_site_label
_atom_site_fract_x
_atom_site_fract_y
_atom_site_fract_z
Si Si1 0.000000 0.072209 0.864455
Si Si2 0.000000 0.277670 0.362451
Si Si3 0.178560 0.044598 0.750000
Si Si4 0.611317 0.758850 0.138618
Si Si5 0.612027 0.324978 0.072538
Si Si6 0.746850 0.806889 0.750000
Si Si7 0.671418 0.958291 0.605277
O O1 0.947280 0.131110 0.911021
O O2 0.000000 0.111110 0.750000
O O3 0.000000 0.897795 0.870935
O O4 0.056017 0.322786 0.398841
O O5 0.000000 0.324865 0.250000
O O6 0.146149 0.091449 0.845435
O O7 0.197129 0.878237 0.750000
O O8 0.231703 0.139087 0.750000
O O9 0.600316 0.699453 0.250000
O O10 0.626091 0.661814 0.043422
O O11 0.650475 0.891605 0.146970
O O12 0.624907 0.157091 0.096817
O O13 0.716384 0.874975 0.659428
O O14 0.691680 0.000000 0.500000
#
# Coordination Sequence:
#
# PCOD9471455 Si02
#       7
#     8   8   8  16  16   8  16
#     4  11  21  38  60  85 127 174 204 247 312 358
#     4   9  21  36  55  86 130 167 203 249 293 371
#     4  10  22  43  66  95 123 160 215 268 318 379
#     4  10  19  36  59  88 122 165 200 248 313 361
#     4  10  21  37  62  92 120 160 210 251 300 380
#     4  10  20  42  66  89 123 161 203 270 322 375
#     4   9  19  37  63  88 117 155 200 260 310 362
#
# _framework density 24.441901000000001
#
# number of rings (size 3 to 8) (size 9 to 14) (size 15 to 20)
#    0.000    2.200    2.000    0.600    0.000    2.400 
#    3.600   13.000    0.000    0.000    0.000    0.000 
#    0.000    0.000    0.000    0.000    0.000    0.000 
#
# Total GULP energy -223413.299096 kJ/mol
# GULP energy per Si atom -5585.332477 kJ/mol
# Density = 2.438627 g / cm^3
# Si number density = 24.441901 Si / 1000 Ang^3
#
#
#
# Elastic Constant Matrix: (Units=GPa)
#
#
# Indices 1 2 3 4 5 6 
#
# 1 99.4846 20.6416 13.9224 0.0000 0.0000 0.0000
# 2 20.6416 95.8134 42.4912 0.0000 0.0000 0.0000
# 3 13.9224 42.4912 169.8164 0.0000 0.0000 0.0000
# 4 0.0000 0.0000 0.0000 31.5583 0.0000 0.0000
# 5 0.0000 0.0000 0.0000 0.0000 3.6063 0.0000
# 6 0.0000 0.0000 0.0000 0.0000 0.0000 38.2712
#
#
#
# Elastic Compliance Matrix: (Units=1/GPa)
#
#
# Indices 1 2 3 4 5 6 
#
# 1 0.010539 -0.002123 -0.000333 0.000000 0.000000 0.000000
# 2 -0.002123 0.012167 -0.002870 0.000000 0.000000 0.000000
# 3 -0.000333 -0.002870 0.006634 0.000000 0.000000 0.000000
# 4 0.000000 0.000000 0.000000 0.031687 0.000000 0.000000
# 5 0.000000 0.000000 0.000000 0.000000 0.277294 0.000000
# 6 0.000000 0.000000 0.000000 0.000000 0.000000 0.026129
#
#
# Mechanical properties :
#
#
# Convention : Reuss Voigt Hill
#
# Bulk Modulus (GPa) = 53.50994 57.69163 55.60079
# Shear Modulus (GPa) = 13.11190 33.89111 23.50151
#
# Velocity S-wave (km/s) = 2.31866 3.72775 3.10421
# Velocity P-wave (km/s) = 5.39522 6.49484 5.97040
#
# Compressibility (1/GPa) = 0.01868812
#
# Stress axis : x y z
#
# Youngs Moduli (GPa) = 94.88705 82.18783 150.73326
#
# Poissons Ratio (x) = 0.17447 0.05017
# Poissons Ratio (y) = 0.20143 0.43267
# Poissons Ratio (z) = 0.03158 0.23591
#
# Static dielectric constant tensor:
#      x y z
#    x 1.951750 0.000000 0.000000 
#    y 0.000000 1.936370 0.000000 
#    z 0.000000 0.000000 1.960010 
# 
# From -- ./inp_files/48887.got.cif
#   From: 2010.05.17/outbox.cif.g08.bks.cpg/sg63_25_cif.got.tgz:48887.got - 2010.06.03 15:47:04.
