data_PCOD9471851
_publ_section_title
;
Structure prediction by ZEFSAII (Michael W. Deem and Ramdas Pophale) SiO2 
 PCOD9471851
Probable space group: C M C M
;
_chemical_formula_sum "Si O2"
_cell_formula_units_Z 112
_cell_length_a 28.149777
_cell_length_b 26.412819
_cell_length_c 7.533811
_cell_angle_alpha 90.000000
_cell_angle_beta 90.000000
_cell_angle_gamma 90.000000
_cell_volume 5601.501220
_symmetry_space_group_name_H-M "C M C M"
_symmetry_group_IT_number 63
_symmetry_cell_setting 'orthorhombic'
loop_
_space_group_symop_operation_xyz
x,y,z
-x,-y,1/2+z
x,-y,-z
-x,y,1/2-z
-x,-y,-z
x,y,1/2-z
-x,y,z
x,-y,1/2+z
1/2+x,1/2+y,z
1/2-x,1/2-y,1/2+z
1/2+x,1/2-y,-z
1/2-x,1/2+y,1/2-z
1/2-x,1/2-y,-z
1/2+x,1/2+y,1/2-z
1/2-x,1/2+y,z
1/2+x,1/2-y,1/2+z
loop_
_atom_site_type_symbol
_atom_site_label
_atom_site_fract_x
_atom_site_fract_y
_atom_site_fract_z
Si Si1 0.053946 0.242605 0.463305
Si Si2 0.629354 0.338763 0.967262
Si Si3 0.054361 0.356716 0.962548
Si Si4 0.873979 0.442895 0.537213
Si Si5 0.833398 0.056237 0.461751
Si Si6 0.266928 0.305885 0.538627
Si Si7 0.729277 0.088832 0.466827
O O1 0.052227 0.238588 0.250000
O O2 0.087144 0.197321 0.529597
O O3 0.071694 0.299429 0.502895
O O4 0.000000 0.239094 0.531479
O O5 0.627470 0.338260 0.750000
O O6 0.633637 0.397381 0.024309
O O7 0.679575 0.315003 0.024986
O O8 0.051879 0.362492 0.750000
O O9 0.089939 0.399891 0.030465
O O10 0.000000 0.360967 0.031191
O O11 0.889951 0.500000 0.500000
O O12 0.871992 0.436953 0.750000
O O13 0.820005 0.434936 0.469819
O O14 0.830565 0.061789 0.250000
O O15 0.778863 0.063436 0.527242
O O16 0.850479 0.000000 0.500000
O O17 0.268864 0.311439 0.750000
O O18 0.250000 0.250000 0.500000
O O19 0.233891 0.352267 0.477837
O O20 0.728841 0.086151 0.250000
#
# Coordination Sequence:
#
# PCOD9471851 Si02
#       7
#    16  16  16  16  16  16  16
#     4   9  17  31  52  73  91 117 156 193 225 273
#     4   8  16  30  46  67  95 123 148 184 234 272
#     4   9  19  34  49  67  92 120 148 186 239 283
#     4  10  20  33  48  66  89 119 154 190 228 272
#     4   9  16  29  48  66  90 122 153 186 222 264
#     4   9  17  29  44  64  92 123 151 181 223 272
#     4   8  16  30  45  62  88 122 152 180 223 271
#
# _framework density 19.99464
#
# number of rings (size 3 to 8) (size 9 to 14) (size 15 to 20)
#    0.000    3.143    0.000    2.143    2.000    0.857 
#    0.000    4.286    0.000    0.429    0.000    0.000 
#    0.000    0.000    0.000    0.000    0.000    0.000 
#
# Total GULP energy -312215.642350 kJ/mol
# GULP energy per Si atom -5575.279328 kJ/mol
# Density = 1.994913 g / cm^3
# Si number density = 19.994640 Si / 1000 Ang^3
#
#
#
# Elastic Constant Matrix: (Units=GPa)
#
#
# Indices 1 2 3 4 5 6 
#
# 1 85.5668 89.2965 5.0057 0.0000 0.0000 0.0000
# 2 89.2965 202.1208 -4.7681 0.0000 0.0000 0.0000
# 3 5.0057 -4.7681 46.5708 0.0000 0.0000 0.0000
# 4 0.0000 0.0000 0.0000 21.3171 0.0000 0.0000
# 5 0.0000 0.0000 0.0000 0.0000 -0.9619 0.0000
# 6 0.0000 0.0000 0.0000 0.0000 0.0000 25.4003
#
#
#
# Elastic Compliance Matrix: (Units=1/GPa)
#
#
# Indices 1 2 3 4 5 6 
#
# 1 0.022209 -0.009892 -0.003400 0.000000 0.000000 0.000000
# 2 -0.009892 0.009366 0.002022 0.000000 0.000000 0.000000
# 3 -0.003400 0.002022 0.022045 0.000000 0.000000 0.000000
# 4 0.000000 0.000000 0.000000 0.046911 0.000000 0.000000
# 5 0.000000 0.000000 0.000000 0.000000 -1.039631 0.000000
# 6 0.000000 0.000000 0.000000 0.000000 0.000000 0.039370
#
#
# Mechanical properties :
#
#
# Convention : Reuss Voigt Hill
#
# Bulk Modulus (GPa) = 32.17514 57.03630 44.60572
# Shear Modulus (GPa) = -5.76813 25.46605 9.84896
#
# Velocity S-wave (km/s) = -1.70032 3.57269 2.22182
# Velocity P-wave (km/s) = 3.50314 6.75326 5.37952
#
# Compressibility (1/GPa) = 0.03107989
#
# Stress axis : x y z
#
# Youngs Moduli (GPa) = 45.02702 106.77464 45.36139
#
# Poissons Ratio (x) = 1.05622 0.15423
# Poissons Ratio (y) = 0.44541 -0.09173
# Poissons Ratio (z) = 0.15309 -0.21591
#
# Static dielectric constant tensor:
#      x y z
#    x 1.702270 0.000000 0.000000 
#    y 0.000000 1.723970 0.000000 
#    z 0.000000 0.000000 1.761630 
# 
# From -- ./inp_files/25190.got.cif
#   From: 2010.05.17/outbox.cif.g08.bks.cpg/sg63_13_cif.got.tgz:25190.got - 2010.06.03 15:47:04.
