data_PCOD9471982
_publ_section_title
;
Structure prediction by ZEFSAII (Michael W. Deem and Ramdas Pophale) SiO2 
 PCOD9471982
Probable space group: C M C M
;
_chemical_formula_sum "Si O2"
_cell_formula_units_Z 64
_cell_length_a 7.524863
_cell_length_b 42.421225
_cell_length_c 9.283765
_cell_angle_alpha 90.000000
_cell_angle_beta 90.000000
_cell_angle_gamma 90.000000
_cell_volume 2963.506892
_symmetry_space_group_name_H-M "C M C M"
_symmetry_group_IT_number 63
_symmetry_cell_setting 'orthorhombic'
loop_
_space_group_symop_operation_xyz
x,y,z
-x,-y,1/2+z
x,-y,-z
-x,y,1/2-z
-x,-y,-z
x,y,1/2-z
-x,y,z
x,-y,1/2+z
1/2+x,1/2+y,z
1/2-x,1/2-y,1/2+z
1/2+x,1/2-y,-z
1/2-x,1/2+y,1/2-z
1/2-x,1/2-y,-z
1/2+x,1/2+y,1/2-z
1/2-x,1/2+y,z
1/2+x,1/2-y,1/2+z
loop_
_atom_site_type_symbol
_atom_site_label
_atom_site_fract_x
_atom_site_fract_y
_atom_site_fract_z
Si Si1 0.282658 0.031480 0.916172
Si Si2 0.786728 0.781901 0.913731
Si Si3 0.213118 0.157183 0.586349
Si Si4 0.213240 0.593377 0.086134
O O1 0.225926 0.031350 0.750000
O O2 0.500000 0.031676 0.915739
O O3 0.222195 0.062780 0.999394
O O4 0.227595 0.000000 0.000000
O O5 0.718547 0.780501 0.750000
O O6 0.000000 0.785041 0.905292
O O7 0.750000 0.750000 0.000000
O O8 0.718542 0.812366 0.000045
O O9 0.281637 0.155689 0.750000
O O10 0.248904 0.125285 0.499746
O O11 0.000000 0.160451 0.595096
O O12 0.281171 0.594639 0.250000
O O13 0.000000 0.590379 0.094168
#
# Coordination Sequence:
#
# PCOD9471982 Si02
#       4
#    16  16  16  16
#     4   9  16  27  45  70 101 135 170 211 258 305
#     4  10  21  37  57  80 105 135 171 210 254 304
#     4  10  21  37  56  77 103 137 174 211 255 307
#     4  10  20  33  51  77 106 136 173 215 257 303
#
# _framework density 21.596038
#
# number of rings (size 3 to 8) (size 9 to 14) (size 15 to 20)
#    0.000    2.250    0.000    3.000    0.000    8.500 
#    0.000    0.000    0.000    0.750    0.000    0.000 
#    0.000    0.000    0.000    0.000    0.000    0.000 
#
# Total GULP energy -178892.818818 kJ/mol
# GULP energy per Si atom -5590.400588 kJ/mol
# Density = 2.154688 g / cm^3
# Si number density = 21.596038 Si / 1000 Ang^3
#
#
#
# Elastic Constant Matrix: (Units=GPa)
#
#
# Indices 1 2 3 4 5 6 
#
# 1 55.8990 -2.2201 9.0436 0.0000 0.0000 0.0000
# 2 -2.2201 260.7508 170.5458 0.0000 0.0000 0.0000
# 3 9.0436 170.5458 285.4284 0.0000 0.0000 0.0000
# 4 0.0000 0.0000 0.0000 48.0963 0.0000 0.0000
# 5 0.0000 0.0000 0.0000 0.0000 13.2367 0.0000
# 6 0.0000 0.0000 0.0000 0.0000 0.0000 13.6192
#
#
#
# Elastic Compliance Matrix: (Units=1/GPa)
#
#
# Indices 1 2 3 4 5 6 
#
# 1 0.018101 0.000869 -0.001093 0.000000 0.000000 0.000000
# 2 0.000869 0.006337 -0.003814 0.000000 0.000000 0.000000
# 3 -0.001093 -0.003814 0.005817 0.000000 0.000000 0.000000
# 4 0.000000 0.000000 0.000000 0.020792 0.000000 0.000000
# 5 0.000000 0.000000 0.000000 0.000000 0.075547 0.000000
# 6 0.000000 0.000000 0.000000 0.000000 0.000000 0.073426
#
#
# Mechanical properties :
#
#
# Convention : Reuss Voigt Hill
#
# Bulk Modulus (GPa) = 45.08756 106.31300 75.70028
# Shear Modulus (GPa) = 23.20314 43.30438 33.25376
#
# Velocity S-wave (km/s) = 3.28139 4.48280 3.92830
# Velocity P-wave (km/s) = 5.93967 8.72519 7.46353
#
# Compressibility (1/GPa) = 0.02217907
#
# Stress axis : x y z
#
# Youngs Moduli (GPa) = 55.24658 157.80323 171.91049
#
# Poissons Ratio (x) = -0.13709 0.18782
# Poissons Ratio (y) = -0.04799 0.65566
# Poissons Ratio (z) = 0.06036 0.60185
#
# Static dielectric constant tensor:
#      x y z
#    x 1.868900 0.000000 0.000000 
#    y 0.000000 1.716460 0.000000 
#    z 0.000000 0.000000 1.755990 
# 
# From -- ./inp_files/3116.got.cif
#   From: 2010.05.17/outbox.cif.g08.bks.cpg/sg63_2_cif.got.tgz:3116.got - 2010.06.03 15:47:04.
