data_PCOD9471494
_publ_section_title
;
Structure prediction by ZEFSAII (Michael W. Deem and Ramdas Pophale) SiO2 
 PCOD9471494
Probable space group: C M C M
;
_chemical_formula_sum "Si O2"
_cell_formula_units_Z 64
_cell_length_a 8.678067
_cell_length_b 24.662931
_cell_length_c 15.685831
_cell_angle_alpha 90.000000
_cell_angle_beta 90.000000
_cell_angle_gamma 90.000000
_cell_volume 3357.184569
_symmetry_space_group_name_H-M "C M C M"
_symmetry_group_IT_number 63
_symmetry_cell_setting 'orthorhombic'
loop_
_space_group_symop_operation_xyz
x,y,z
-x,-y,1/2+z
x,-y,-z
-x,y,1/2-z
-x,-y,-z
x,y,1/2-z
-x,y,z
x,-y,1/2+z
1/2+x,1/2+y,z
1/2-x,1/2-y,1/2+z
1/2+x,1/2-y,-z
1/2-x,1/2+y,1/2-z
1/2-x,1/2-y,-z
1/2+x,1/2+y,1/2-z
1/2-x,1/2+y,z
1/2+x,1/2-y,1/2+z
loop_
_atom_site_type_symbol
_atom_site_label
_atom_site_fract_x
_atom_site_fract_y
_atom_site_fract_z
Si Si1 0.812685 0.427466 0.250000
Si Si2 0.818790 0.762467 0.592152
Si Si3 0.177653 0.627891 0.148523
Si Si4 0.683911 0.694355 0.750000
Si Si5 0.187580 0.493001 0.902678
O O1 0.747357 0.366951 0.250000
O O2 0.764063 0.461662 0.334085
O O3 0.000000 0.424761 0.250000
O O4 0.750000 0.750000 0.500000
O O5 0.781821 0.825159 0.610941
O O6 0.742208 0.726488 0.666515
O O7 0.000000 0.752150 0.593133
O O8 0.175357 0.634085 0.250000
O O9 0.230023 0.567212 0.127460
O O10 0.000000 0.634422 0.117652
O O11 0.500000 0.693932 0.750000
O O12 0.000000 0.494922 0.902599
O O13 0.239945 0.500000 0.000000
#
# Coordination Sequence:
#
# PCOD9471494 Si02
#       5
#     8  16  16   8  16
#     4  10  20  37  60  89 123 162 210 254 303 370
#     4  12  26  44  66  94 126 166 213 262 320 379
#     4  10  19  36  62  90 124 164 210 260 307 363
#     4  12  26  45  64  91 131 170 212 262 317 374
#     4   9  18  33  57  90 123 161 206 251 302 368
#
# _framework density 19.063592
#
# number of rings (size 3 to 8) (size 9 to 14) (size 15 to 20)
#    0.000    1.500    2.500    3.375    3.500    0.000 
#    0.000    1.250    0.000    1.500    0.000    0.000 
#    0.000    0.000    0.000    0.000    0.000    0.000 
#
# Total GULP energy -178781.095425 kJ/mol
# GULP energy per Si atom -5586.909232 kJ/mol
# Density = 1.902020 g / cm^3
# Si number density = 19.063592 Si / 1000 Ang^3
#
#
#
# Elastic Constant Matrix: (Units=GPa)
#
#
# Indices 1 2 3 4 5 6 
#
# 1 88.4381 48.1716 50.7400 0.0000 0.0000 0.0000
# 2 48.1716 117.5883 53.4599 0.0000 0.0000 0.0000
# 3 50.7400 53.4599 137.6920 0.0000 0.0000 0.0000
# 4 0.0000 0.0000 0.0000 32.6717 0.0000 0.0000
# 5 0.0000 0.0000 0.0000 0.0000 19.9361 0.0000
# 6 0.0000 0.0000 0.0000 0.0000 0.0000 34.4006
#
#
#
# Elastic Compliance Matrix: (Units=1/GPa)
#
#
# Indices 1 2 3 4 5 6 
#
# 1 0.016295 -0.004791 -0.004145 0.000000 0.000000 0.000000
# 2 -0.004791 0.011736 -0.002791 0.000000 0.000000 0.000000
# 3 -0.004145 -0.002791 0.009873 0.000000 0.000000 0.000000
# 4 0.000000 0.000000 0.000000 0.030607 0.000000 0.000000
# 5 0.000000 0.000000 0.000000 0.000000 0.050160 0.000000
# 6 0.000000 0.000000 0.000000 0.000000 0.000000 0.029069
#
#
# Mechanical properties :
#
#
# Convention : Reuss Voigt Hill
#
# Bulk Modulus (GPa) = 69.19972 72.05127 70.62550
# Shear Modulus (GPa) = 28.40722 30.15816 29.28269
#
# Velocity S-wave (km/s) = 3.86441 3.98172 3.92350
# Velocity P-wave (km/s) = 7.50265 7.68219 7.59295
#
# Compressibility (1/GPa) = 0.01445093
#
# Stress axis : x y z
#
# Youngs Moduli (GPa) = 61.36883 85.20868 101.28138
#
# Poissons Ratio (x) = 0.40825 0.41976
# Poissons Ratio (y) = 0.29403 0.28267
# Poissons Ratio (z) = 0.25435 0.23782
#
# Static dielectric constant tensor:
#      x y z
#    x 1.656200 0.000000 0.000000 
#    y 0.000000 1.655440 0.000000 
#    z 0.000000 0.000000 1.676110 
# 
# From -- ./inp_files/27551.got.cif
#   From: 2010.05.17/outbox.cif.g08.bks.cpg/sg63_14_cif.got.tgz:27551.got - 2010.06.03 15:47:04.
