data_PCOD9471575
_publ_section_title
;
Structure prediction by ZEFSAII (Michael W. Deem and Ramdas Pophale) SiO2 
 PCOD9471575
Probable space group: C M C M
;
_chemical_formula_sum "Si O2"
_cell_formula_units_Z 96
_cell_length_a 14.237711
_cell_length_b 13.971702
_cell_length_c 26.847749
_cell_angle_alpha 90.000000
_cell_angle_beta 90.000000
_cell_angle_gamma 90.000000
_cell_volume 5340.689953
_symmetry_space_group_name_H-M "C M C M"
_symmetry_group_IT_number 63
_symmetry_cell_setting 'orthorhombic'
loop_
_space_group_symop_operation_xyz
x,y,z
-x,-y,1/2+z
x,-y,-z
-x,y,1/2-z
-x,-y,-z
x,y,1/2-z
-x,y,z
x,-y,1/2+z
1/2+x,1/2+y,z
1/2-x,1/2-y,1/2+z
1/2+x,1/2-y,-z
1/2-x,1/2+y,1/2-z
1/2-x,1/2-y,-z
1/2+x,1/2+y,1/2-z
1/2-x,1/2+y,z
1/2+x,1/2-y,1/2+z
loop_
_atom_site_type_symbol
_atom_site_label
_atom_site_fract_x
_atom_site_fract_y
_atom_site_fract_z
Si Si1 0.500000 0.306925 0.531568
Si Si2 0.831776 0.945350 0.545285
Si Si3 0.500000 0.653588 0.351738
Si Si4 0.818309 0.635000 0.122718
Si Si5 0.000000 0.953077 0.399666
Si Si6 0.184663 0.250707 0.308719
Si Si7 0.500000 0.768372 0.575580
Si Si8 0.888050 0.463202 0.191684
O O1 0.404009 0.366406 0.524255
O O2 0.500000 0.297568 0.592396
O O3 0.500000 0.235128 0.485012
O O4 0.759795 0.900149 0.583581
O O5 0.783069 0.000000 0.500000
O O6 0.904530 0.017677 0.571735
O O7 0.500000 0.537439 0.357336
O O8 0.592722 0.689630 0.324006
O O9 0.770092 0.713321 0.158287
O O10 0.907709 0.677871 0.094790
O O11 0.849191 0.545711 0.156595
O O12 0.000000 0.838321 0.399313
O O13 0.202618 0.239266 0.250000
O O14 0.160516 0.361499 0.318547
O O15 0.872331 0.486843 0.250000
O O16 0.000000 0.452110 0.184598
#
# Coordination Sequence:
#
# PCOD9471575 Si02
#       8
#     8  16   8  16   8  16   8  16
#     4  10  19  39  62  89 123 161 207 250 319 372
#     4  10  19  39  65  87 120 167 208 246 308 375
#     4  10  19  38  65  97 122 156 209 266 306 358
#     4  12  25  41  60  97 128 161 211 266 309 370
#     4  10  19  39  64  86 124 159 197 252 312 360
#     4  11  22  39  69  99 121 162 215 261 317 377
#     4  12  26  40  59  90 132 171 205 257 317 377
#     4  10  22  43  65  85 123 170 203 250 319 385
#
# _framework density 17.975206
#
# number of rings (size 3 to 8) (size 9 to 14) (size 15 to 20)
#    0.000    1.500    6.667    1.250    2.333    0.667 
#    3.000    0.417    0.000    3.000    0.000    0.000 
#    0.000    0.000    0.000    0.000    0.000    0.000 
#
# Total GULP energy -267588.308403 kJ/mol
# GULP energy per Si atom -5574.756425 kJ/mol
# Density = 1.793429 g / cm^3
# Si number density = 17.975206 Si / 1000 Ang^3
#
#
#
# Elastic Constant Matrix: (Units=GPa)
#
#
# Indices 1 2 3 4 5 6 
#
# 1 112.4882 50.5348 65.6918 0.0000 0.0000 0.0000
# 2 50.5348 92.5070 59.9744 0.0000 0.0000 0.0000
# 3 65.6918 59.9744 103.6388 0.0000 0.0000 0.0000
# 4 0.0000 0.0000 0.0000 18.1184 0.0000 0.0000
# 5 0.0000 0.0000 0.0000 0.0000 22.3245 0.0000
# 6 0.0000 0.0000 0.0000 0.0000 0.0000 14.0174
#
#
#
# Elastic Compliance Matrix: (Units=1/GPa)
#
#
# Indices 1 2 3 4 5 6 
#
# 1 0.014676 -0.003179 -0.007463 0.000000 0.000000 0.000000
# 2 -0.003179 0.017989 -0.008395 0.000000 0.000000 0.000000
# 3 -0.007463 -0.008395 0.019238 0.000000 0.000000 0.000000
# 4 0.000000 0.000000 0.000000 0.055192 0.000000 0.000000
# 5 0.000000 0.000000 0.000000 0.000000 0.044794 0.000000
# 6 0.000000 0.000000 0.000000 0.000000 0.000000 0.071340
#
#
# Mechanical properties :
#
#
# Convention : Reuss Voigt Hill
#
# Bulk Modulus (GPa) = 72.31246 73.44844 72.88045
# Shear Modulus (GPa) = 18.80313 19.72093 19.26203
#
# Velocity S-wave (km/s) = 3.23779 3.31587 3.27706
# Velocity P-wave (km/s) = 7.36845 7.45719 7.41295
#
# Compressibility (1/GPa) = 0.01382888
#
# Stress axis : x y z
#
# Youngs Moduli (GPa) = 68.13731 55.58822 51.98157
#
# Poissons Ratio (x) = 0.17671 0.38794
# Poissons Ratio (y) = 0.21660 0.43640
# Poissons Ratio (z) = 0.50851 0.46668
#
# Static dielectric constant tensor:
#      x y z
#    x 1.576400 0.000000 0.000000 
#    y 0.000000 1.612130 0.000000 
#    z 0.000000 0.000000 1.628680 
# 
# From -- ./inp_files/72815.got.cif
#   From: 2010.05.17/outbox.cif.g08.bks.cpg/sg63_37_cif.got.tgz:72815.got - 2010.06.03 15:47:04.
