data_PCOD9471263
_publ_section_title
;
Structure prediction by ZEFSAII (Michael W. Deem and Ramdas Pophale) SiO2 
 PCOD9471263
Probable space group: C M C M
;
_chemical_formula_sum "Si O2"
_cell_formula_units_Z 72
_cell_length_a 24.273299
_cell_length_b 5.051538
_cell_length_c 30.992786
_cell_angle_alpha 90.000000
_cell_angle_beta 90.000000
_cell_angle_gamma 90.000000
_cell_volume 3800.257698
_symmetry_space_group_name_H-M "C M C M"
_symmetry_group_IT_number 63
_symmetry_cell_setting 'orthorhombic'
loop_
_space_group_symop_operation_xyz
x,y,z
-x,-y,1/2+z
x,-y,-z
-x,y,1/2-z
-x,-y,-z
x,y,1/2-z
-x,y,z
x,-y,1/2+z
1/2+x,1/2+y,z
1/2-x,1/2-y,1/2+z
1/2+x,1/2-y,-z
1/2-x,1/2+y,1/2-z
1/2-x,1/2-y,-z
1/2+x,1/2+y,1/2-z
1/2-x,1/2+y,z
1/2+x,1/2-y,1/2+z
loop_
_atom_site_type_symbol
_atom_site_label
_atom_site_fract_x
_atom_site_fract_y
_atom_site_fract_z
Si Si1 0.500000 0.556060 0.426395
Si Si2 0.500000 0.055705 0.368786
Si Si3 0.881444 0.557421 0.633850
Si Si4 0.209830 0.000000 0.500000
Si Si5 0.713877 0.913244 0.699618
Si Si6 0.619923 0.556847 0.573859
O O1 0.500000 0.358394 0.384710
O O2 0.559165 0.490863 0.446927
O O3 0.500000 0.859705 0.410724
O O4 0.442481 0.986910 0.346649
O O5 0.835035 0.491865 0.668175
O O6 0.876582 0.846972 0.613102
O O7 0.877407 0.348416 0.594306
O O8 0.250000 0.250000 0.500000
O O9 0.169281 0.991662 0.458959
O O10 0.698236 0.939377 0.750000
O O11 0.736041 0.618115 0.692033
#
# Coordination Sequence:
#
# PCOD9471263 Si02
#       6
#     8   8  16   8  16  16
#     4   8  16  33  54  76  97 126 172 214 251 296
#     4   8  16  30  51  79 104 124 162 216 252 297
#     4  10  19  35  57  78 102 136 172 206 259 313
#     4  12  26  39  50  75 112 138 170 218 256 296
#     4  10  21  35  52  77 106 135 173 217 250 292
#     4  10  21  36  56  77 102 137 172 212 256 304
#
# _framework density 18.946082000000001
#
# number of rings (size 3 to 8) (size 9 to 14) (size 15 to 20)
#    0.000    2.222    0.000    2.667    0.000    5.778 
#    0.000    0.556    0.000    9.333    0.000   14.000 
#    0.000    0.000    0.000    0.000    0.000    0.000 
#
# Total GULP energy -200839.407530 kJ/mol
# GULP energy per Si atom -5578.872431 kJ/mol
# Density = 1.890296 g / cm^3
# Si number density = 18.946082 Si / 1000 Ang^3
#
#
#
# Elastic Constant Matrix: (Units=GPa)
#
#
# Indices 1 2 3 4 5 6 
#
# 1 146.4248 0.4991 46.0451 0.0000 0.0000 0.0000
# 2 0.4991 78.6264 -5.8581 0.0000 0.0000 0.0000
# 3 46.0451 -5.8581 35.5858 0.0000 0.0000 0.0000
# 4 0.0000 0.0000 0.0000 15.2111 0.0000 0.0000
# 5 0.0000 0.0000 0.0000 0.0000 -47.5372 0.0000
# 6 0.0000 0.0000 0.0000 0.0000 0.0000 27.2392
#
#
#
# Elastic Compliance Matrix: (Units=1/GPa)
#
#
# Indices 1 2 3 4 5 6 
#
# 1 0.011627 -0.001210 -0.015244 0.000000 0.000000 0.000000
# 2 -0.001210 0.013002 0.003705 0.000000 0.000000 0.000000
# 3 -0.015244 0.003705 0.048435 0.000000 0.000000 0.000000
# 4 0.000000 0.000000 0.000000 0.065741 0.000000 0.000000
# 5 0.000000 0.000000 0.000000 0.000000 -0.021036 0.000000
# 6 0.000000 0.000000 0.000000 0.000000 0.000000 0.036712
#
#
# Mechanical properties :
#
#
# Convention : Reuss Voigt Hill
#
# Bulk Modulus (GPa) = 21.02220 38.00104 29.51162
# Shear Modulus (GPa) = 25.53196 13.64603 19.58899
#
# Velocity S-wave (km/s) = 3.67497 2.68667 3.21897
# Velocity P-wave (km/s) = 5.39695 5.45209 5.42459
#
# Compressibility (1/GPa) = 0.04756877
#
# Stress axis : x y z
#
# Youngs Moduli (GPa) = 86.00582 76.91055 20.64620
#
# Poissons Ratio (x) = 0.09303 0.31472
# Poissons Ratio (y) = 0.10403 -0.07650
# Poissons Ratio (z) = 1.31104 -0.28498
#
# Static dielectric constant tensor:
#      x y z
#    x 1.688030 0.000000 0.000000 
#    y 0.000000 1.633090 0.000000 
#    z 0.000000 0.000000 1.617970 
# 
# From -- ./inp_files/70594.got.cif
#   From: 2010.05.17/outbox.cif.g08.bks.cpg/sg63_36_cif.got.tgz:70594.got - 2010.06.03 15:47:04.
