data_PCOD9471570
_publ_section_title
;
Structure prediction by ZEFSAII (Michael W. Deem and Ramdas Pophale) SiO2 
 PCOD9471570
Probable space group: C M C M
;
_chemical_formula_sum "Si O2"
_cell_formula_units_Z 80
_cell_length_a 26.114220
_cell_length_b 5.216815
_cell_length_c 25.678856
_cell_angle_alpha 90.000000
_cell_angle_beta 90.000000
_cell_angle_gamma 90.000000
_cell_volume 3498.308992
_symmetry_space_group_name_H-M "C M C M"
_symmetry_group_IT_number 63
_symmetry_cell_setting 'orthorhombic'
loop_
_space_group_symop_operation_xyz
x,y,z
-x,-y,1/2+z
x,-y,-z
-x,y,1/2-z
-x,-y,-z
x,y,1/2-z
-x,y,z
x,-y,1/2+z
1/2+x,1/2+y,z
1/2-x,1/2-y,1/2+z
1/2+x,1/2-y,-z
1/2-x,1/2+y,1/2-z
1/2-x,1/2-y,-z
1/2+x,1/2+y,1/2-z
1/2-x,1/2+y,z
1/2+x,1/2-y,1/2+z
loop_
_atom_site_type_symbol
_atom_site_label
_atom_site_fract_x
_atom_site_fract_y
_atom_site_fract_z
Si Si1 0.216938 0.389255 0.562944
Si Si2 0.652595 0.771717 0.250000
Si Si3 0.913202 0.217775 0.750000
Si Si4 0.160919 0.698115 0.862177
Si Si5 0.879414 0.099827 0.944579
Si Si6 0.942992 0.394577 0.860961
O O1 0.247103 0.648921 0.551108
O O2 0.197610 0.463132 0.621307
O O3 0.161909 0.316403 0.540061
O O4 0.605703 0.572531 0.250000
O O5 0.678651 0.713179 0.194613
O O6 0.632807 0.067598 0.250000
O O7 0.942026 0.264463 0.804150
O O8 0.154636 0.906132 0.908355
O O9 0.102363 0.601728 0.857601
O O10 0.923317 0.207427 0.906849
O O11 0.898877 0.000000 0.000000
O O12 0.000000 0.492270 0.871721
#
# Coordination Sequence:
#
# PCOD9471570 Si02
#       6
#    16   8   8  16  16  16
#     4  11  23  43  70  96 130 167 219 278 331 389
#     4  10  20  38  69  91 130 168 211 268 335 390
#     4  10  19  38  64  99 124 168 219 272 328 394
#     4  10  22  43  65  96 132 172 220 272 339 406
#     4  11  24  42  65  96 134 179 229 280 334 400
#     4  10  22  39  63  97 135 175 222 277 335 404
#
# _framework density 22.868190999999999
#
# number of rings (size 3 to 8) (size 9 to 14) (size 15 to 20)
#    0.000    1.600    4.000    0.300    0.000    5.200 
#    0.000    3.000    0.000    0.000    0.000    0.000 
#    0.000    0.000    0.000    0.000    0.000    0.000 
#
# Total GULP energy -222906.940080 kJ/mol
# GULP energy per Si atom -5572.673502 kJ/mol
# Density = 2.281614 g / cm^3
# Si number density = 22.868191 Si / 1000 Ang^3
#
#
#
# Elastic Constant Matrix: (Units=GPa)
#
#
# Indices 1 2 3 4 5 6 
#
# 1 77.5109 27.0236 35.3067 0.0000 0.0000 0.0000
# 2 27.0236 97.7278 49.1808 0.0000 0.0000 0.0000
# 3 35.3067 49.1808 167.9861 0.0000 0.0000 0.0000
# 4 0.0000 0.0000 0.0000 42.1373 0.0000 0.0000
# 5 0.0000 0.0000 0.0000 0.0000 6.8260 0.0000
# 6 0.0000 0.0000 0.0000 0.0000 0.0000 18.7996
#
#
#
# Elastic Compliance Matrix: (Units=1/GPa)
#
#
# Indices 1 2 3 4 5 6 
#
# 1 0.014982 -0.003000 -0.002270 0.000000 0.000000 0.000000
# 2 -0.003000 0.012601 -0.003059 0.000000 0.000000 0.000000
# 3 -0.002270 -0.003059 0.007326 0.000000 0.000000 0.000000
# 4 0.000000 0.000000 0.000000 0.023732 0.000000 0.000000
# 5 0.000000 0.000000 0.000000 0.000000 0.146499 0.000000
# 6 0.000000 0.000000 0.000000 0.000000 0.000000 0.053193
#
#
# Mechanical properties :
#
#
# Convention : Reuss Voigt Hill
#
# Bulk Modulus (GPa) = 54.79460 62.91635 58.85548
# Shear Modulus (GPa) = 17.78894 29.00017 23.39455
#
# Velocity S-wave (km/s) = 2.79209 3.56496 3.20193
# Velocity P-wave (km/s) = 5.86579 6.67215 6.28192
#
# Compressibility (1/GPa) = 0.01824997
#
# Stress axis : x y z
#
# Youngs Moduli (GPa) = 66.74867 79.35650 136.50835
#
# Poissons Ratio (x) = 0.23808 0.30993
# Poissons Ratio (y) = 0.20025 0.41754
# Poissons Ratio (z) = 0.15155 0.24273
#
# Static dielectric constant tensor:
#      x y z
#    x 1.800590 0.000000 0.000000 
#    y 0.000000 1.970770 0.000000 
#    z 0.000000 0.000000 2.035570 
# 
# From -- ./inp_files/70900.got.cif
#   From: 2010.05.17/outbox.cif.g08.bks.cpg/sg63_36_cif.got.tgz:70900.got - 2010.06.03 15:47:04.
