data_PCOD9471860
_publ_section_title
;
Structure prediction by ZEFSAII (Michael W. Deem and Ramdas Pophale) SiO2 
 PCOD9471860
Probable space group: C M C M
;
_chemical_formula_sum "Si O2"
_cell_formula_units_Z 116
_cell_length_a 32.004056
_cell_length_b 26.730807
_cell_length_c 7.645942
_cell_angle_alpha 90.000000
_cell_angle_beta 90.000000
_cell_angle_gamma 90.000000
_cell_volume 6541.059372
_symmetry_space_group_name_H-M "C M C M"
_symmetry_group_IT_number 63
_symmetry_cell_setting 'orthorhombic'
loop_
_space_group_symop_operation_xyz
x,y,z
-x,-y,1/2+z
x,-y,-z
-x,y,1/2-z
-x,-y,-z
x,y,1/2-z
-x,y,z
x,-y,1/2+z
1/2+x,1/2+y,z
1/2-x,1/2-y,1/2+z
1/2+x,1/2-y,-z
1/2-x,1/2+y,1/2-z
1/2-x,1/2-y,-z
1/2+x,1/2+y,1/2-z
1/2-x,1/2+y,z
1/2+x,1/2-y,1/2+z
loop_
_atom_site_type_symbol
_atom_site_label
_atom_site_fract_x
_atom_site_fract_y
_atom_site_fract_z
Si Si1 0.843074 0.182194 0.452517
Si Si2 0.000000 0.164500 0.250000
Si Si3 0.377337 0.872137 0.545433
Si Si4 0.065093 0.806040 0.048397
Si Si5 0.952284 0.690855 0.037509
Si Si6 0.193767 0.441921 0.958363
Si Si7 0.261416 0.640188 0.545152
Si Si8 0.809904 0.288446 0.037249
O O1 0.853064 0.190859 0.250000
O O2 0.887328 0.174848 0.542821
O O3 0.807421 0.140255 0.465434
O O4 0.820763 0.232790 0.520991
O O5 0.963742 0.167591 0.405543
O O6 0.384747 0.883285 0.750000
O O7 0.421045 0.852064 0.470698
O O8 0.349468 0.917428 0.470688
O O9 0.346398 0.824834 0.528483
O O10 0.050094 0.809434 0.250000
O O11 0.064085 0.746732 0.997805
O O12 0.952566 0.687742 0.250000
O O13 0.000000 0.686635 0.976081
O O14 0.192933 0.435728 0.750000
O O15 0.197405 0.500000 0.000000
O O16 0.232756 0.408693 0.021575
O O17 0.267371 0.647935 0.750000
O O18 0.233168 0.686350 0.474289
O O19 0.809401 0.290030 0.250000
#
# Coordination Sequence:
#
# PCOD9471860 Si02
#       8
#    16   4  16  16  16  16  16  16
#     4  11  20  31  46  71 104 139 174 208 254 301
#     4  12  22  36  48  70 100 140 190 220 252 302
#     4   9  17  29  47  69  91 121 164 211 257 308
#     4  11  21  33  50  71  99 141 182 220 260 302
#     4   9  16  28  46  67  93 124 166 212 259 307
#     4  10  20  35  54  72  92 122 163 210 264 319
#     4  10  20  33  48  71  98 131 170 208 254 306
#     4   9  18  29  44  65  97 134 169 208 247 297
#
# _framework density 17.73413
#
# number of rings (size 3 to 8) (size 9 to 14) (size 15 to 20)
#    0.000    2.069    2.759    1.862    0.000    1.655 
#    0.000    0.000    0.000    0.414    0.000    0.000 
#    0.000    0.000    0.000    0.621    3.586    1.517 
#
# Total GULP energy -322883.780795 kJ/mol
# GULP energy per Si atom -5566.961738 kJ/mol
# Density = 1.769377 g / cm^3
# Si number density = 17.734130 Si / 1000 Ang^3
#
#
#
# Elastic Constant Matrix: (Units=GPa)
#
#
# Indices 1 2 3 4 5 6 
#
# 1 132.7716 14.8130 8.8074 0.0000 0.0000 0.0000
# 2 14.8130 24.4752 -6.9775 0.0000 0.0000 0.0000
# 3 8.8074 -6.9775 66.8767 0.0000 0.0000 0.0000
# 4 0.0000 0.0000 0.0000 11.8850 0.0000 0.0000
# 5 0.0000 0.0000 0.0000 0.0000 20.3209 0.0000
# 6 0.0000 0.0000 0.0000 0.0000 0.0000 5.4807
#
#
#
# Elastic Compliance Matrix: (Units=1/GPa)
#
#
# Indices 1 2 3 4 5 6 
#
# 1 0.008252 -0.005466 -0.001657 0.000000 0.000000 0.000000
# 2 -0.005466 0.045732 0.005491 0.000000 0.000000 0.000000
# 3 -0.001657 0.005491 0.015744 0.000000 0.000000 0.000000
# 4 0.000000 0.000000 0.000000 0.084140 0.000000 0.000000
# 5 0.000000 0.000000 0.000000 0.000000 0.049210 0.000000
# 6 0.000000 0.000000 0.000000 0.000000 0.000000 0.182458
#
#
# Mechanical properties :
#
#
# Convention : Reuss Voigt Hill
#
# Bulk Modulus (GPa) = 15.04601 28.60104 21.82353
# Shear Modulus (GPa) = 12.16679 21.36935 16.76807
#
# Velocity S-wave (km/s) = 2.62213 3.47505 3.07828
# Velocity P-wave (km/s) = 4.20358 5.68014 4.99670
#
# Compressibility (1/GPa) = 0.06646280
#
# Stress axis : x y z
#
# Youngs Moduli (GPa) = 121.18961 21.86669 63.51613
#
# Poissons Ratio (x) = 0.11953 0.10525
# Poissons Ratio (y) = 0.66248 -0.34878
# Poissons Ratio (z) = 0.20081 -0.12008
#
# Static dielectric constant tensor:
#      x y z
#    x 1.644110 0.000000 0.000000 
#    y 0.000000 1.588690 0.000000 
#    z 0.000000 0.000000 1.647840 
# 
# From -- ./inp_files/14919.got.cif
#   From: 2010.05.17/outbox.cif.g08.bks.cpg/sg63_8_cif.got.tgz:14919.got - 2010.06.03 15:47:04.
