data_PCOD9471151
_publ_section_title
;
Structure prediction by ZEFSAII (Michael W. Deem and Ramdas Pophale) SiO2 
 PCOD9471151
Probable space group: C M C M
;
_chemical_formula_sum "Si O2"
_cell_formula_units_Z 72
_cell_length_a 18.309104
_cell_length_b 24.642750
_cell_length_c 7.807259
_cell_angle_alpha 90.000000
_cell_angle_beta 90.000000
_cell_angle_gamma 90.000000
_cell_volume 3522.531210
_symmetry_space_group_name_H-M "C M C M"
_symmetry_group_IT_number 63
_symmetry_cell_setting 'orthorhombic'
loop_
_space_group_symop_operation_xyz
x,y,z
-x,-y,1/2+z
x,-y,-z
-x,y,1/2-z
-x,-y,-z
x,y,1/2-z
-x,y,z
x,-y,1/2+z
1/2+x,1/2+y,z
1/2-x,1/2-y,1/2+z
1/2+x,1/2-y,-z
1/2-x,1/2+y,1/2-z
1/2-x,1/2-y,-z
1/2+x,1/2+y,1/2-z
1/2-x,1/2+y,z
1/2+x,1/2-y,1/2+z
loop_
_atom_site_type_symbol
_atom_site_label
_atom_site_fract_x
_atom_site_fract_y
_atom_site_fract_z
Si Si1 0.207210 0.063350 0.546329
Si Si2 0.142752 0.375969 0.544141
Si Si3 0.835039 0.255248 0.956181
Si Si4 0.000000 0.562649 0.456434
Si Si5 0.916020 0.145948 0.539984
O O1 0.204753 0.066444 0.750000
O O2 0.281458 0.093610 0.492274
O O3 0.137387 0.097516 0.481171
O O4 0.206965 0.000000 0.500000
O O5 0.136898 0.373054 0.750000
O O6 0.141204 0.314283 0.478437
O O7 0.073523 0.409195 0.477955
O O8 0.841838 0.255413 0.750000
O O9 0.880901 0.203288 0.016779
O O10 0.750000 0.250000 0.000000
O O11 0.000000 0.500000 0.500000
O O12 0.000000 0.567652 0.250000
O O13 0.915927 0.145940 0.750000
O O14 0.000000 0.140242 0.485548
#
# Coordination Sequence:
#
# PCOD9471151 Si02
#       5
#    16  16  16   8  16
#     4  11  22  37  58  82 109 145 188 231 277 331
#     4  10  21  36  57  84 113 145 184 228 276 330
#     4  10  19  34  58  84 111 142 179 225 273 326
#     4  10  22  38  54  80 112 148 187 226 272 323
#     4   9  19  35  56  83 113 147 186 226 273 330
#
# _framework density 20.439848000000001
#
# number of rings (size 3 to 8) (size 9 to 14) (size 15 to 20)
#    0.000    2.000    2.222    1.333    1.556    3.111 
#    0.000    0.000    0.000    5.333    0.000    0.000 
#    0.000    0.000    0.000    0.000    0.000    0.000 
#
# Total GULP energy -201064.978658 kJ/mol
# GULP energy per Si atom -5585.138296 kJ/mol
# Density = 2.039333 g / cm^3
# Si number density = 20.439848 Si / 1000 Ang^3
#
#
#
# Elastic Constant Matrix: (Units=GPa)
#
#
# Indices 1 2 3 4 5 6 
#
# 1 176.5513 89.2155 3.3759 0.0000 0.0000 0.0000
# 2 89.2155 183.4675 6.6602 0.0000 0.0000 0.0000
# 3 3.3759 6.6602 25.8272 0.0000 0.0000 0.0000
# 4 0.0000 0.0000 0.0000 1.4239 0.0000 0.0000
# 5 0.0000 0.0000 0.0000 0.0000 22.2132 0.0000
# 6 0.0000 0.0000 0.0000 0.0000 0.0000 36.8910
#
#
#
# Elastic Compliance Matrix: (Units=1/GPa)
#
#
# Indices 1 2 3 4 5 6 
#
# 1 0.007509 -0.003650 -0.000040 0.000000 0.000000 0.000000
# 2 -0.003650 0.007276 -0.001399 0.000000 0.000000 0.000000
# 3 -0.000040 -0.001399 0.039085 0.000000 0.000000 0.000000
# 4 0.000000 0.000000 0.000000 0.702307 0.000000 0.000000
# 5 0.000000 0.000000 0.000000 0.000000 0.045018 0.000000
# 6 0.000000 0.000000 0.000000 0.000000 0.000000 0.027107
#
#
# Mechanical properties :
#
#
# Convention : Reuss Voigt Hill
#
# Bulk Modulus (GPa) = 22.88783 64.92769 43.90776
# Shear Modulus (GPa) = 5.86135 31.21190 18.53662
#
# Velocity S-wave (km/s) = 1.69524 3.91194 3.01472
# Velocity P-wave (km/s) = 3.87991 7.22763 5.80053
#
# Compressibility (1/GPa) = 0.04369135
#
# Stress axis : x y z
#
# Youngs Moduli (GPa) = 133.16739 137.43212 25.58524
#
# Poissons Ratio (x) = 0.50165 0.00103
# Poissons Ratio (y) = 0.48608 0.03580
# Poissons Ratio (z) = 0.00536 0.19230
#
# Static dielectric constant tensor:
#      x y z
#    x 1.686430 0.000000 0.000000 
#    y 0.000000 1.826190 0.000000 
#    z 0.000000 0.000000 1.731790 
# 
# From -- ./inp_files/4664.got.cif
#   From: 2010.05.17/outbox.cif.g08.bks.cpg/sg63_3_cif.got.tgz:4664.got - 2010.06.03 15:47:04.
