data_PCOD9471274
_publ_section_title
;
Structure prediction by ZEFSAII (Michael W. Deem and Ramdas Pophale) SiO2 
 PCOD9471274
Probable space group: C M C M
;
_chemical_formula_sum "Si O2"
_cell_formula_units_Z 96
_cell_length_a 7.645125
_cell_length_b 25.579493
_cell_length_c 24.451048
_cell_angle_alpha 90.000000
_cell_angle_beta 90.000000
_cell_angle_gamma 90.000000
_cell_volume 4781.608349
_symmetry_space_group_name_H-M "C M C M"
_symmetry_group_IT_number 63
_symmetry_cell_setting 'orthorhombic'
loop_
_space_group_symop_operation_xyz
x,y,z
-x,-y,1/2+z
x,-y,-z
-x,y,1/2-z
-x,-y,-z
x,y,1/2-z
-x,y,z
x,-y,1/2+z
1/2+x,1/2+y,z
1/2-x,1/2-y,1/2+z
1/2+x,1/2-y,-z
1/2-x,1/2+y,1/2-z
1/2-x,1/2-y,-z
1/2+x,1/2+y,1/2-z
1/2-x,1/2+y,z
1/2+x,1/2-y,1/2+z
loop_
_atom_site_type_symbol
_atom_site_label
_atom_site_fract_x
_atom_site_fract_y
_atom_site_fract_z
Si Si1 0.789845 0.733764 0.633006
Si Si2 0.212650 0.226477 0.250000
Si Si3 0.705812 0.104136 0.250000
Si Si4 0.296668 0.324365 0.554508
Si Si5 0.294288 0.079871 0.130734
Si Si6 0.289904 0.637502 0.561568
Si Si7 0.711774 0.518993 0.939737
O O1 0.726595 0.746386 0.694024
O O2 0.719792 0.776642 0.589571
O O3 0.749496 0.676563 0.610673
O O4 0.000000 0.739856 0.634590
O O5 0.272004 0.166507 0.250000
O O6 0.000000 0.226453 0.250000
O O7 0.500000 0.090625 0.250000
O O8 0.778167 0.083548 0.307658
O O9 0.500000 0.310989 0.545071
O O10 0.288834 0.376455 0.591438
O O11 0.219559 0.337628 0.495152
O O12 0.500000 0.092940 0.132530
O O13 0.271910 0.023154 0.104390
O O14 0.500000 0.633755 0.555685
O O15 0.226654 0.578263 0.569217
O O16 0.500000 0.518426 0.939042
O O17 0.767439 0.500000 0.000000
#
# Coordination Sequence:
#
# PCOD9471274 Si02
#       7
#    16   8   8  16  16  16  16
#     4  10  21  35  55  83 113 145 186 231 276 329
#     4  10  20  36  59  82 107 147 192 228 272 331
#     4  10  22  38  55  82 117 147 180 230 284 325
#     4  10  19  35  57  82 113 148 182 224 278 334
#     4  11  22  35  56  86 115 144 183 231 281 327
#     4  10  21  36  56  81 112 150 184 222 278 335
#     4  10  20  38  60  80 109 147 186 230 278 331
#
# _framework density 20.076926
#
# number of rings (size 3 to 8) (size 9 to 14) (size 15 to 20)
#    0.000    1.833    3.333    1.000    0.000    3.667 
#    0.000    0.833    0.000    5.000    0.000    0.000 
#    0.000    0.000    0.000    0.000    0.000    0.000 
#
# Total GULP energy -268113.605234 kJ/mol
# GULP energy per Si atom -5585.700109 kJ/mol
# Density = 2.003123 g / cm^3
# Si number density = 20.076926 Si / 1000 Ang^3
#
#
#
# Elastic Constant Matrix: (Units=GPa)
#
#
# Indices 1 2 3 4 5 6 
#
# 1 33.3244 -17.0948 -11.9929 0.0000 0.0000 0.0000
# 2 -17.0948 139.9635 64.6425 0.0000 0.0000 0.0000
# 3 -11.9929 64.6425 136.2622 0.0000 0.0000 0.0000
# 4 0.0000 0.0000 0.0000 36.7913 0.0000 0.0000
# 5 0.0000 0.0000 0.0000 0.0000 10.0329 0.0000
# 6 0.0000 0.0000 0.0000 0.0000 0.0000 29.3387
#
#
#
# Elastic Compliance Matrix: (Units=1/GPa)
#
#
# Indices 1 2 3 4 5 6 
#
# 1 0.032176 0.003358 0.001239 0.000000 0.000000 0.000000
# 2 0.003358 0.009500 -0.004211 0.000000 0.000000 0.000000
# 3 0.001239 -0.004211 0.009446 0.000000 0.000000 0.000000
# 4 0.000000 0.000000 0.000000 0.027180 0.000000 0.000000
# 5 0.000000 0.000000 0.000000 0.000000 0.099672 0.000000
# 6 0.000000 0.000000 0.000000 0.000000 0.000000 0.034085
#
#
# Mechanical properties :
#
#
# Convention : Reuss Voigt Hill
#
# Bulk Modulus (GPa) = 19.27045 42.29552 30.78299
# Shear Modulus (GPa) = 21.87368 33.49893 27.68630
#
# Velocity S-wave (km/s) = 3.30433 4.08919 3.71753
# Velocity P-wave (km/s) = 4.91704 6.58846 5.81313
#
# Compressibility (1/GPa) = 0.05189292
#
# Stress axis : x y z
#
# Youngs Moduli (GPa) = 31.07872 105.26599 105.86939
#
# Poissons Ratio (x) = -0.35345 -0.13118
# Poissons Ratio (y) = -0.10435 0.44583
# Poissons Ratio (z) = -0.03851 0.44329
#
# Static dielectric constant tensor:
#      x y z
#    x 1.765850 0.000000 0.000000 
#    y 0.000000 1.672570 0.000000 
#    z 0.000000 0.000000 1.712880 
# 
# From -- ./inp_files/59984.got.cif
#   From: 2010.05.17/outbox.cif.g08.bks.cpg/sg63_30_cif.got.tgz:59984.got - 2010.06.03 15:47:04.
