data_PCOD9471692
_publ_section_title
;
Structure prediction by ZEFSAII (Michael W. Deem and Ramdas Pophale) SiO2 
 PCOD9471692
Probable space group: C M C M
;
_chemical_formula_sum "Si O2"
_cell_formula_units_Z 88
_cell_length_a 28.040131
_cell_length_b 18.899873
_cell_length_c 8.721659
_cell_angle_alpha 90.000000
_cell_angle_beta 90.000000
_cell_angle_gamma 90.000000
_cell_volume 4622.086052
_symmetry_space_group_name_H-M "C M C M"
_symmetry_group_IT_number 63
_symmetry_cell_setting 'orthorhombic'
loop_
_space_group_symop_operation_xyz
x,y,z
-x,-y,1/2+z
x,-y,-z
-x,y,1/2-z
-x,-y,-z
x,y,1/2-z
-x,y,z
x,-y,1/2+z
1/2+x,1/2+y,z
1/2-x,1/2-y,1/2+z
1/2+x,1/2-y,-z
1/2-x,1/2+y,1/2-z
1/2-x,1/2-y,-z
1/2+x,1/2+y,1/2-z
1/2-x,1/2+y,z
1/2+x,1/2-y,1/2+z
loop_
_atom_site_type_symbol
_atom_site_label
_atom_site_fract_x
_atom_site_fract_y
_atom_site_fract_z
Si Si1 0.500000 0.576665 0.066444
Si Si2 0.251314 0.425047 0.566791
Si Si3 0.915517 0.177422 0.432335
Si Si4 0.683687 0.302073 0.069581
Si Si5 0.946452 0.339155 0.068011
Si Si6 0.844295 0.356163 0.565422
O O1 0.500000 0.574983 0.250000
O O2 0.546448 0.619709 0.020623
O O3 0.500000 0.500000 0.000000
O O4 0.268543 0.500000 0.500000
O O5 0.254375 0.427549 0.750000
O O6 0.280067 0.355820 0.510687
O O7 0.195961 0.412508 0.521796
O O8 0.903923 0.171253 0.250000
O O9 0.868855 0.169222 0.533444
O O10 0.939087 0.254682 0.452780
O O11 0.694516 0.300129 0.250000
O O12 0.677340 0.220508 0.013492
O O13 0.945677 0.353353 0.250000
O O14 0.000000 0.358789 0.011047
O O15 0.897590 0.369538 0.996414
O O16 0.847465 0.352459 0.750000
#
# Coordination Sequence:
#
# PCOD9471692 Si02
#       6
#     8  16  16  16  16  16
#     4  10  20  32  46  64  94 136 177 214 255 304
#     4  11  23  39  57  78 107 143 181 222 271 324
#     4   9  17  32  50  70 100 136 174 216 260 306
#     4  10  20  35  56  82 108 137 177 221 267 320
#     4   9  16  29  53  81 106 134 172 216 263 314
#     4   9  20  36  55  82 112 141 176 221 271 320
#
# _framework density 19.039023
#
# number of rings (size 3 to 8) (size 9 to 14) (size 15 to 20)
#    0.000    2.364    0.909    1.636    0.000    4.000 
#    0.000    1.818    0.000    0.545    0.000    0.000 
#    0.000    0.000    0.000    0.000    0.000    0.000 
#
# Total GULP energy -245250.904235 kJ/mol
# GULP energy per Si atom -5573.884187 kJ/mol
# Density = 1.899569 g / cm^3
# Si number density = 19.039023 Si / 1000 Ang^3
#
#
#
# Elastic Constant Matrix: (Units=GPa)
#
#
# Indices 1 2 3 4 5 6 
#
# 1 99.5991 20.6491 20.7792 0.0000 0.0000 0.0000
# 2 20.6491 23.8858 7.2523 0.0000 0.0000 0.0000
# 3 20.7792 7.2523 20.4561 0.0000 0.0000 0.0000
# 4 0.0000 0.0000 0.0000 15.3917 0.0000 0.0000
# 5 0.0000 0.0000 0.0000 0.0000 32.9081 0.0000
# 6 0.0000 0.0000 0.0000 0.0000 0.0000 12.0629
#
#
#
# Elastic Compliance Matrix: (Units=1/GPa)
#
#
# Indices 1 2 3 4 5 6 
#
# 1 0.014242 -0.008875 -0.011321 0.000000 0.000000 0.000000
# 2 -0.008875 0.052446 -0.009579 0.000000 0.000000 0.000000
# 3 -0.011321 -0.009579 0.063781 0.000000 0.000000 0.000000
# 4 0.000000 0.000000 0.000000 0.064970 0.000000 0.000000
# 5 0.000000 0.000000 0.000000 0.000000 0.030388 0.000000
# 6 0.000000 0.000000 0.000000 0.000000 0.000000 0.082899
#
#
# Mechanical properties :
#
#
# Convention : Reuss Voigt Hill
#
# Bulk Modulus (GPa) = 14.10028 26.81136 20.45582
# Shear Modulus (GPa) = 12.75790 18.42324 15.59057
#
# Velocity S-wave (km/s) = 2.59142 3.11409 2.86470
# Velocity P-wave (km/s) = 4.04673 5.20029 4.65935
#
# Compressibility (1/GPa) = 0.07092059
#
# Stress axis : x y z
#
# Youngs Moduli (GPa) = 70.21486 19.06706 15.67876
#
# Poissons Ratio (x) = 0.16922 0.17749
# Poissons Ratio (y) = 0.62315 0.15018
# Poissons Ratio (z) = 0.79487 0.18264
#
# Static dielectric constant tensor:
#      x y z
#    x 1.683160 0.000000 0.000000 
#    y 0.000000 1.647560 0.000000 
#    z 0.000000 0.000000 1.657460 
# 
# From -- ./inp_files/12337.got.cif
#   From: 2010.05.17/outbox.cif.g08.bks.cpg/sg63_7_cif.got.tgz:12337.got - 2010.06.03 15:47:04.
