data_PCOD9471587
_publ_section_title
;
Structure prediction by ZEFSAII (Michael W. Deem and Ramdas Pophale) SiO2 
 PCOD9471587
Probable space group: C M C M
;
_chemical_formula_sum "Si O2"
_cell_formula_units_Z 120
_cell_length_a 22.933929
_cell_length_b 14.944997
_cell_length_c 16.906900
_cell_angle_alpha 90.000000
_cell_angle_beta 90.000000
_cell_angle_gamma 90.000000
_cell_volume 5794.797709
_symmetry_space_group_name_H-M "C M C M"
_symmetry_group_IT_number 63
_symmetry_cell_setting 'orthorhombic'
loop_
_space_group_symop_operation_xyz
x,y,z
-x,-y,1/2+z
x,-y,-z
-x,y,1/2-z
-x,-y,-z
x,y,1/2-z
-x,y,z
x,-y,1/2+z
1/2+x,1/2+y,z
1/2-x,1/2-y,1/2+z
1/2+x,1/2-y,-z
1/2-x,1/2+y,1/2-z
1/2-x,1/2-y,-z
1/2+x,1/2+y,1/2-z
1/2-x,1/2+y,z
1/2+x,1/2-y,1/2+z
loop_
_atom_site_type_symbol
_atom_site_label
_atom_site_fract_x
_atom_site_fract_y
_atom_site_fract_z
Si Si1 0.383928 0.324182 0.156730
Si Si2 0.064247 0.206901 0.371706
Si Si3 0.248905 0.836800 0.120903
Si Si4 0.186875 0.601430 0.030387
Si Si5 0.831746 0.251323 0.250000
Si Si6 0.767510 0.956242 0.659178
Si Si7 0.605775 0.517775 0.407254
Si Si8 0.935091 0.307923 0.538007
O O1 0.378770 0.310056 0.250000
O O2 0.319610 0.314627 0.117722
O O3 0.403473 0.425668 0.139216
O O4 0.426082 0.255370 0.113652
O O5 0.117075 0.238175 0.318007
O O6 0.070508 0.246801 0.459829
O O7 0.000000 0.234314 0.343147
O O8 0.067567 0.099777 0.378235
O O9 0.283726 0.774968 0.180560
O O10 0.250982 0.939118 0.156111
O O11 0.279331 0.840600 0.035285
O O12 0.219137 0.601518 0.114708
O O13 0.119356 0.625511 0.036532
O O14 0.193146 0.500000 0.000000
O O15 0.779113 0.927670 0.750000
O O16 0.827428 0.952806 0.610415
O O17 0.598179 0.500000 0.500000
O O18 0.000000 0.348189 0.538278
#
# Coordination Sequence:
#
# PCOD9471587 Si02
#       8
#    16  16  16  16   8  16  16  16
#     4  11  23  40  64  92 127 168 213 258 312 380
#     4  11  26  42  60  92 128 169 222 265 313 381
#     4  10  19  39  63  95 127 159 204 262 327 393
#     4  10  22  40  67  93 126 165 207 264 337 389
#     4  12  21  40  66  90 129 164 202 278 324 372
#     4  10  20  36  62  97 129 162 204 263 327 387
#     4  11  21  40  65  92 130 170 205 261 326 386
#     4  11  25  44  61  85 125 170 217 265 307 375
#
# _framework density 20.708228999999999
#
# number of rings (size 3 to 8) (size 9 to 14) (size 15 to 20)
#    0.000    1.333    4.000    3.400    1.867    3.467 
#    0.000    0.000    0.000    0.000    0.000    0.000 
#    0.000    0.000    0.000    0.000    0.000    0.000 
#
# Total GULP energy -334605.449688 kJ/mol
# GULP energy per Si atom -5576.757495 kJ/mol
# Density = 2.066110 g / cm^3
# Si number density = 20.708229 Si / 1000 Ang^3
#
#
#
# Elastic Constant Matrix: (Units=GPa)
#
#
# Indices 1 2 3 4 5 6 
#
# 1 65.9645 14.5645 25.6342 0.0000 0.0000 0.0000
# 2 14.5645 30.1119 3.3334 0.0000 0.0000 0.0000
# 3 25.6342 3.3334 68.7892 0.0000 0.0000 0.0000
# 4 0.0000 0.0000 0.0000 24.8998 0.0000 0.0000
# 5 0.0000 0.0000 0.0000 0.0000 -15.8675 0.0000
# 6 0.0000 0.0000 0.0000 0.0000 0.0000 30.8282
#
#
#
# Elastic Compliance Matrix: (Units=1/GPa)
#
#
# Indices 1 2 3 4 5 6 
#
# 1 0.019807 -0.008811 -0.006954 0.000000 0.000000 0.000000
# 2 -0.008811 0.037308 0.001475 0.000000 0.000000 0.000000
# 3 -0.006954 0.001475 0.017057 0.000000 0.000000 0.000000
# 4 0.000000 0.000000 0.000000 0.040161 0.000000 0.000000
# 5 0.000000 0.000000 0.000000 0.000000 -0.063022 0.000000
# 6 0.000000 0.000000 0.000000 0.000000 0.000000 0.032438
#
#
# Mechanical properties :
#
#
# Convention : Reuss Voigt Hill
#
# Bulk Modulus (GPa) = 21.93304 27.99220 24.96262
# Shear Modulus (GPa) = 39.20772 16.06100 27.63436
#
# Velocity S-wave (km/s) = 4.35597 2.78795 3.65699
# Velocity P-wave (km/s) = 5.99281 4.88982 5.46919
#
# Compressibility (1/GPa) = 0.04559331
#
# Stress axis : x y z
#
# Youngs Moduli (GPa) = 50.48605 26.80417 58.62630
#
# Poissons Ratio (x) = 0.23616 0.40770
# Poissons Ratio (y) = 0.44481 -0.08650
# Poissons Ratio (z) = 0.35109 -0.03955
#
# Static dielectric constant tensor:
#      x y z
#    x 1.732460 0.000000 0.000000 
#    y 0.000000 1.784310 0.000000 
#    z 0.000000 0.000000 1.715980 
# 
# From -- ./inp_files/47396.got.cif
#   From: 2010.05.17/outbox.cif.g08.bks.cpg/sg63_24_cif.got.tgz:47396.got - 2010.06.03 15:47:04.
