data_PCOD9471474
_publ_section_title
;
Structure prediction by ZEFSAII (Michael W. Deem and Ramdas Pophale) SiO2 
 PCOD9471474
Probable space group: C M C M
;
_chemical_formula_sum "Si O2"
_cell_formula_units_Z 100
_cell_length_a 7.568073
_cell_length_b 29.832502
_cell_length_c 19.374085
_cell_angle_alpha 90.000000
_cell_angle_beta 90.000000
_cell_angle_gamma 90.000000
_cell_volume 4374.175379
_symmetry_space_group_name_H-M "C M C M"
_symmetry_group_IT_number 63
_symmetry_cell_setting 'orthorhombic'
loop_
_space_group_symop_operation_xyz
x,y,z
-x,-y,1/2+z
x,-y,-z
-x,y,1/2-z
-x,-y,-z
x,y,1/2-z
-x,y,z
x,-y,1/2+z
1/2+x,1/2+y,z
1/2-x,1/2-y,1/2+z
1/2+x,1/2-y,-z
1/2-x,1/2+y,1/2-z
1/2-x,1/2-y,-z
1/2+x,1/2+y,1/2-z
1/2-x,1/2+y,z
1/2+x,1/2-y,1/2+z
loop_
_atom_site_type_symbol
_atom_site_label
_atom_site_fract_x
_atom_site_fract_y
_atom_site_fract_z
Si Si1 0.212438 0.829953 0.627078
Si Si2 0.797186 0.734325 0.844484
Si Si3 0.793192 0.813800 0.026952
Si Si4 0.709706 0.071428 0.391930
Si Si5 0.283634 0.978812 0.327943
Si Si6 0.286282 0.913495 0.451132
Si Si7 0.500000 0.301605 0.250000
O O1 0.263781 0.785648 0.668742
O O2 0.281539 0.821544 0.549501
O O3 0.261581 0.880672 0.644743
O O4 0.000000 0.828942 0.625602
O O5 0.793248 0.723628 0.925844
O O6 0.656311 0.702556 0.808990
O O7 0.000000 0.728753 0.822958
O O8 0.767536 0.862419 0.061774
O O9 0.000000 0.804056 0.021404
O O10 0.500000 0.065372 0.398269
O O11 0.778307 0.073632 0.471314
O O12 0.775278 0.028767 0.349603
O O13 0.226622 0.967365 0.250000
O O14 0.500000 0.978084 0.327297
O O15 0.226656 0.945498 0.389116
O O16 0.500000 0.915613 0.452821
#
# Coordination Sequence:
#
# PCOD9471474 Si02
#       7
#    16  16  16  16  16  16   4
#     4   9  20  36  59  88 117 148 191 250 307 358
#     4  11  23  42  62  87 122 163 205 245 296 355
#     4  10  19  36  60  89 118 148 195 253 305 357
#     4   9  17  30  53  80 108 143 188 240 298 359
#     4   9  17  31  49  76 107 143 191 243 294 358
#     4   9  17  31  52  79 110 145 187 240 301 360
#     4  12  26  44  60  86 124 168 206 246 288 370
#
# _framework density 22.861450999999999
#
# number of rings (size 3 to 8) (size 9 to 14) (size 15 to 20)
#    0.000    2.400    0.800    1.680    1.120    2.560 
#    2.880    0.800    0.000    4.800    0.000    0.000 
#    0.000    0.000    0.000    0.000    0.000    0.000 
#
# Total GULP energy -278667.457237 kJ/mol
# GULP energy per Si atom -5573.349145 kJ/mol
# Density = 2.280942 g / cm^3
# Si number density = 22.861451 Si / 1000 Ang^3
#
#
#
# Elastic Constant Matrix: (Units=GPa)
#
#
# Indices 1 2 3 4 5 6 
#
# 1 81.8372 -9.3636 5.2079 0.0000 0.0000 0.0000
# 2 -9.3636 63.5262 -2.6383 0.0000 0.0000 0.0000
# 3 5.2079 -2.6383 45.1321 0.0000 0.0000 0.0000
# 4 0.0000 0.0000 0.0000 -325.9645 0.0000 0.0000
# 5 0.0000 0.0000 0.0000 0.0000 -32.8559 0.0000
# 6 0.0000 0.0000 0.0000 0.0000 0.0000 18.8850
#
#
#
# Elastic Compliance Matrix: (Units=1/GPa)
#
#
# Indices 1 2 3 4 5 6 
#
# 1 0.012509 0.001788 -0.001339 0.000000 0.000000 0.000000
# 2 0.001788 0.016035 0.000731 0.000000 0.000000 0.000000
# 3 -0.001339 0.000731 0.022354 0.000000 0.000000 0.000000
# 4 0.000000 0.000000 0.000000 -0.003068 0.000000 0.000000
# 5 0.000000 0.000000 0.000000 0.000000 -0.030436 0.000000
# 6 0.000000 0.000000 0.000000 0.000000 0.000000 0.052952
#
#
# Mechanical properties :
#
#
# Convention : Reuss Voigt Hill
#
# Bulk Modulus (GPa) = 18.77589 19.65637 19.21613
# Shear Modulus (GPa) = 58.31592 -54.83444 1.74074
#
# Velocity S-wave (km/s) = 5.05606 -4.90282 0.87355
# Velocity P-wave (km/s) = 6.50506 4.84081 3.07265
#
# Compressibility (1/GPa) = 0.05325979
#
# Stress axis : x y z
#
# Youngs Moduli (GPa) = 79.94119 62.36174 44.73386
#
# Poissons Ratio (x) = -0.11152 0.05990
# Poissons Ratio (y) = -0.14295 -0.03270
# Poissons Ratio (z) = 0.10704 -0.04559
#
# Static dielectric constant tensor:
#      x y z
#    x 1.834850 0.000000 0.000000 
#    y 0.000000 1.864450 0.000000 
#    z 0.000000 0.000000 -4.033970 
# 
# From -- ./inp_files/51524.got.cif
#   From: 2010.05.17/outbox.cif.g08.bks.cpg/sg63_26_cif.got.tgz:51524.got - 2010.06.03 15:47:04.
