data_PCOD9471152
_publ_section_title
;
Structure prediction by ZEFSAII (Michael W. Deem and Ramdas Pophale) SiO2 
 PCOD9471152
Probable space group: C M C M
;
_chemical_formula_sum "Si O2"
_cell_formula_units_Z 96
_cell_length_a 19.480382
_cell_length_b 15.170380
_cell_length_c 17.624445
_cell_angle_alpha 90.000000
_cell_angle_beta 90.000000
_cell_angle_gamma 90.000000
_cell_volume 5208.460539
_symmetry_space_group_name_H-M "C M C M"
_symmetry_group_IT_number 63
_symmetry_cell_setting 'orthorhombic'
loop_
_space_group_symop_operation_xyz
x,y,z
-x,-y,1/2+z
x,-y,-z
-x,y,1/2-z
-x,-y,-z
x,y,1/2-z
-x,y,z
x,-y,1/2+z
1/2+x,1/2+y,z
1/2-x,1/2-y,1/2+z
1/2+x,1/2-y,-z
1/2-x,1/2+y,1/2-z
1/2-x,1/2-y,-z
1/2+x,1/2+y,1/2-z
1/2-x,1/2+y,z
1/2+x,1/2-y,1/2+z
loop_
_atom_site_type_symbol
_atom_site_label
_atom_site_fract_x
_atom_site_fract_y
_atom_site_fract_z
Si Si1 0.786654 0.964142 0.338306
Si Si2 0.715117 0.707482 0.925288
Si Si3 0.078725 0.038116 0.086058
Si Si4 0.081009 0.405342 0.970255
Si Si5 0.684670 0.128350 0.336423
Si Si6 0.420584 0.716232 0.488078
O O1 0.786721 0.936106 0.250000
O O2 0.761182 0.886239 0.393789
O O3 0.862694 0.994716 0.363381
O O4 0.737366 0.048172 0.346048
O O5 0.720396 0.780594 0.860398
O O6 0.750000 0.750000 0.000000
O O7 0.635291 0.694501 0.948144
O O8 0.089853 0.143969 0.077455
O O9 0.000000 0.022448 0.110922
O O10 0.084628 0.000000 0.000000
O O11 0.122769 0.384089 0.894841
O O12 0.000000 0.588182 0.045275
O O13 0.104611 0.500000 0.000000
O O14 0.089929 0.320845 0.026153
O O15 0.661287 0.131098 0.250000
O O16 0.500000 0.705276 0.512843
#
# Coordination Sequence:
#
# PCOD9471152 Si02
#       6
#    16  16  16  16  16  16
#     4  11  24  39  55  82 118 152 187 235 290 345
#     4  11  22  35  60  84 107 151 192 233 280 342
#     4  10  19  34  58  84 111 144 186 229 275 339
#     4   9  19  35  58  84 110 144 192 240 279 331
#     4  10  23  38  54  81 116 149 184 234 290 342
#     4   9  18  33  54  84 111 136 180 233 279 323
#
# _framework density 18.431549
#
# number of rings (size 3 to 8) (size 9 to 14) (size 15 to 20)
#    0.000    2.000    1.667    1.500    4.667    0.667 
#    0.000    0.000    0.000    3.000    0.000    4.667 
#    0.000    0.000    0.000    0.000    0.000    0.000 
#
# Total GULP energy -267548.263310 kJ/mol
# GULP energy per Si atom -5573.922152 kJ/mol
# Density = 1.838960 g / cm^3
# Si number density = 18.431549 Si / 1000 Ang^3
#
#
#
# Elastic Constant Matrix: (Units=GPa)
#
#
# Indices 1 2 3 4 5 6 
#
# 1 43.3208 20.0926 25.5899 0.0000 0.0000 0.0000
# 2 20.0926 119.3873 31.9125 0.0000 0.0000 0.0000
# 3 25.5899 31.9125 50.8741 0.0000 0.0000 0.0000
# 4 0.0000 0.0000 0.0000 26.7713 0.0000 0.0000
# 5 0.0000 0.0000 0.0000 0.0000 17.4548 0.0000
# 6 0.0000 0.0000 0.0000 0.0000 0.0000 24.4716
#
#
#
# Elastic Compliance Matrix: (Units=1/GPa)
#
#
# Indices 1 2 3 4 5 6 
#
# 1 0.033020 -0.001343 -0.015767 0.000000 0.000000 0.000000
# 2 -0.001343 0.010118 -0.005672 0.000000 0.000000 0.000000
# 3 -0.015767 -0.005672 0.031145 0.000000 0.000000 0.000000
# 4 0.000000 0.000000 0.000000 0.037353 0.000000 0.000000
# 5 0.000000 0.000000 0.000000 0.000000 0.057291 0.000000
# 6 0.000000 0.000000 0.000000 0.000000 0.000000 0.040864
#
#
# Mechanical properties :
#
#
# Convention : Reuss Voigt Hill
#
# Bulk Modulus (GPa) = 34.81816 40.97467 37.89642
# Shear Modulus (GPa) = 18.87314 22.80536 20.83925
#
# Velocity S-wave (km/s) = 3.20341 3.52134 3.36613
# Velocity P-wave (km/s) = 5.71086 6.22994 5.97604
#
# Compressibility (1/GPa) = 0.02872064
#
# Stress axis : x y z
#
# Youngs Moduli (GPa) = 30.28468 98.83296 32.10796
#
# Poissons Ratio (x) = 0.13270 0.50625
# Poissons Ratio (y) = 0.04066 0.18210
# Poissons Ratio (z) = 0.47750 0.56054
#
# Static dielectric constant tensor:
#      x y z
#    x 1.639420 0.000000 0.000000 
#    y 0.000000 1.698030 0.000000 
#    z 0.000000 0.000000 1.598060 
# 
# From -- ./inp_files/35340.got.cif
#   From: 2010.05.17/outbox.cif.g08.bks.cpg/sg63_18_cif.got.tgz:35340.got - 2010.06.03 15:47:04.
