data_PCOD9471844
_publ_section_title
;
Structure prediction by ZEFSAII (Michael W. Deem and Ramdas Pophale) SiO2 
 PCOD9471844
Probable space group: C M C M
;
_chemical_formula_sum "Si O2"
_cell_formula_units_Z 96
_cell_length_a 24.519507
_cell_length_b 30.422516
_cell_length_c 8.168665
_cell_angle_alpha 90.000000
_cell_angle_beta 90.000000
_cell_angle_gamma 90.000000
_cell_volume 6093.375581
_symmetry_space_group_name_H-M "C M C M"
_symmetry_group_IT_number 63
_symmetry_cell_setting 'orthorhombic'
loop_
_space_group_symop_operation_xyz
x,y,z
-x,-y,1/2+z
x,-y,-z
-x,y,1/2-z
-x,-y,-z
x,y,1/2-z
-x,y,z
x,-y,1/2+z
1/2+x,1/2+y,z
1/2-x,1/2-y,1/2+z
1/2+x,1/2-y,-z
1/2-x,1/2+y,1/2-z
1/2-x,1/2-y,-z
1/2+x,1/2+y,1/2-z
1/2-x,1/2+y,z
1/2+x,1/2-y,1/2+z
loop_
_atom_site_type_symbol
_atom_site_label
_atom_site_fract_x
_atom_site_fract_y
_atom_site_fract_z
Si Si1 0.920517 0.452621 0.938587
Si Si2 0.622036 0.210464 0.444926
Si Si3 0.798807 0.218259 0.054352
Si Si4 0.000000 0.703562 0.065679
Si Si5 0.298715 0.046185 0.943561
Si Si6 0.500000 0.884999 0.429002
Si Si7 0.719663 0.856615 0.948600
O O1 0.934900 0.445993 0.750000
O O2 0.939283 0.500000 0.000000
O O3 0.855958 0.452203 0.960567
O O4 0.947898 0.415608 0.047329
O O5 0.617511 0.202948 0.250000
O O6 0.649314 0.257901 0.476687
O O7 0.559945 0.212143 0.511260
O O8 0.665261 0.172034 0.502624
O O9 0.804982 0.219093 0.250000
O O10 0.774086 0.171042 0.007332
O O11 0.750000 0.250000 0.000000
O O12 0.000000 0.722560 0.250000
O O13 0.000000 0.650937 0.068094
O O14 0.308733 0.042780 0.750000
O O15 0.275069 0.094307 0.982169
O O16 0.271246 0.000000 0.000000
O O17 0.500000 0.864291 0.250000
O O18 0.716393 0.858649 0.750000
#
# Coordination Sequence:
#
# PCOD9471844 Si02
#       7
#    16  16  16   8  16   8  16
#     4  11  21  34  47  58  76 103 136 177 220 261
#     4   9  18  31  47  66  90 117 148 182 220 264
#     4   9  17  29  47  67  88 112 142 181 223 262
#     4  10  20  33  47  64  88 120 146 175 220 262
#     4  11  21  32  46  64  85 111 141 176 216 261
#     4  12  23  33  44  60  77 100 140 183 219 258
#     4   9  17  30  46  65  88 116 148 185 223 262
#
# _framework density 15.754813
#
# number of rings (size 3 to 8) (size 9 to 14) (size 15 to 20)
#    0.000    2.000    0.000    7.500    0.000    5.333 
#    0.000    0.000    0.000    0.000    0.000    0.000 
#    0.000    0.000    0.000    0.750    0.000    9.667 
#
# Total GULP energy -267224.106634 kJ/mol
# GULP energy per Si atom -5567.168888 kJ/mol
# Density = 1.571895 g / cm^3
# Si number density = 15.754813 Si / 1000 Ang^3
#
#
#
# Elastic Constant Matrix: (Units=GPa)
#
#
# Indices 1 2 3 4 5 6 
#
# 1 66.5647 43.6064 3.4554 0.0000 0.0000 0.0000
# 2 43.6064 104.4225 10.1412 0.0000 0.0000 0.0000
# 3 3.4554 10.1412 45.6278 0.0000 0.0000 0.0000
# 4 0.0000 0.0000 0.0000 23.3005 0.0000 0.0000
# 5 0.0000 0.0000 0.0000 0.0000 9.2587 0.0000
# 6 0.0000 0.0000 0.0000 0.0000 0.0000 164.6740
#
#
#
# Elastic Compliance Matrix: (Units=1/GPa)
#
#
# Indices 1 2 3 4 5 6 
#
# 1 0.020686 -0.008674 0.000361 0.000000 0.000000 0.000000
# 2 -0.008674 0.013425 -0.002327 0.000000 0.000000 0.000000
# 3 0.000361 -0.002327 0.022406 0.000000 0.000000 0.000000
# 4 0.000000 0.000000 0.000000 0.042917 0.000000 0.000000
# 5 0.000000 0.000000 0.000000 0.000000 0.108006 0.000000
# 6 0.000000 0.000000 0.000000 0.000000 0.000000 0.006073
#
#
# Mechanical properties :
#
#
# Convention : Reuss Voigt Hill
#
# Bulk Modulus (GPa) = 28.37798 36.78011 32.57904
# Shear Modulus (GPa) = 20.28087 50.07413 35.17750
#
# Velocity S-wave (km/s) = 3.59176 5.64379 4.73039
# Velocity P-wave (km/s) = 5.93737 8.11578 7.11049
#
# Compressibility (1/GPa) = 0.03523859
#
# Stress axis : x y z
#
# Youngs Moduli (GPa) = 48.34120 74.49057 44.63037
#
# Poissons Ratio (x) = 0.64610 -0.01612
# Poissons Ratio (y) = 0.41929 0.10385
# Poissons Ratio (z) = -0.01746 0.17333
#
# Static dielectric constant tensor:
#      x y z
#    x 1.551690 0.000000 0.000000 
#    y 0.000000 1.562310 0.000000 
#    z 0.000000 0.000000 1.564480 
# 
# From -- ./inp_files/10762.got.cif
#   From: 2010.05.17/outbox.cif.g08.bks.cpg/sg63_6_cif.got.tgz:10762.got - 2010.06.03 15:47:04.
