data_PCOD9471221
_publ_section_title
;
Structure prediction by ZEFSAII (Michael W. Deem and Ramdas Pophale) SiO2 
 PCOD9471221
Probable space group: C M C M
;
_chemical_formula_sum "Si O2"
_cell_formula_units_Z 60
_cell_length_a 5.387442
_cell_length_b 16.503887
_cell_length_c 27.032234
_cell_angle_alpha 90.000000
_cell_angle_beta 90.000000
_cell_angle_gamma 90.000000
_cell_volume 2403.536863
_symmetry_space_group_name_H-M "C M C M"
_symmetry_group_IT_number 63
_symmetry_cell_setting 'orthorhombic'
loop_
_space_group_symop_operation_xyz
x,y,z
-x,-y,1/2+z
x,-y,-z
-x,y,1/2-z
-x,-y,-z
x,y,1/2-z
-x,y,z
x,-y,1/2+z
1/2+x,1/2+y,z
1/2-x,1/2-y,1/2+z
1/2+x,1/2-y,-z
1/2-x,1/2+y,1/2-z
1/2-x,1/2-y,-z
1/2+x,1/2+y,1/2-z
1/2-x,1/2+y,z
1/2+x,1/2-y,1/2+z
loop_
_atom_site_type_symbol
_atom_site_label
_atom_site_fract_x
_atom_site_fract_y
_atom_site_fract_z
Si Si1 0.500000 0.162135 0.442431
Si Si2 0.500000 0.117876 0.750000
Si Si3 0.500000 0.531367 0.907545
Si Si4 0.500000 0.158932 0.174671
Si Si5 0.500000 0.620219 0.165280
Si Si6 0.000000 0.853144 0.182906
Si Si7 0.000000 0.753735 0.579387
Si Si8 0.000000 0.574758 0.955249
O O1 0.500000 0.136412 0.384305
O O2 0.248321 0.213486 0.446180
O O3 0.500000 0.100438 0.487588
O O4 0.733620 0.121336 0.707975
O O5 0.500000 0.453081 0.872739
O O6 0.500000 0.608922 0.871529
O O7 0.746532 0.531919 0.939901
O O8 0.251282 0.120870 0.195167
O O9 0.500000 0.255183 0.181973
O O10 0.500000 0.704578 0.133686
O O11 0.000000 0.658393 0.576051
#
# Coordination Sequence:
#
# PCOD9471221 Si02
#       8
#     8   4   8   8   8   8   8   8
#     4  10  20  34  56  86 118 160 210 259 295 339
#     4  10  24  42  70 100 120 138 186 252 302 354
#     4  12  24  38  60  89 121 162 205 244 293 353
#     4  10  20  39  63  85 119 164 202 241 298 354
#     4  10  21  37  56  87 122 161 201 245 295 349
#     4  11  22  43  70  94 118 151 192 239 298 366
#     4  10  19  35  53  74 111 158 206 251 302 338
#     4  12  22  36  57  87 121 163 217 258 286 341
#
# _framework density 24.963211999999999
#
# number of rings (size 3 to 8) (size 9 to 14) (size 15 to 20)
#    0.000    1.333    0.000    8.000    0.000    0.000 
#    0.000   16.000    0.000   16.000    0.000    0.000 
#    0.000    0.000    0.000    0.000    0.000    0.000 
#
# Total GULP energy -167369.050847 kJ/mol
# GULP energy per Si atom -5578.968362 kJ/mol
# Density = 2.490639 g / cm^3
# Si number density = 24.963212 Si / 1000 Ang^3
#
#
#
# Elastic Constant Matrix: (Units=GPa)
#
#
# Indices 1 2 3 4 5 6 
#
# 1 306.8506 35.8881 34.1451 0.0000 0.0000 0.0000
# 2 35.8881 59.7460 5.0624 0.0000 0.0000 0.0000
# 3 34.1451 5.0624 101.0769 0.0000 0.0000 0.0000
# 4 0.0000 0.0000 0.0000 -72.2873 0.0000 0.0000
# 5 0.0000 0.0000 0.0000 0.0000 -22.4527 0.0000
# 6 0.0000 0.0000 0.0000 0.0000 0.0000 16.5135
#
#
#
# Elastic Compliance Matrix: (Units=1/GPa)
#
#
# Indices 1 2 3 4 5 6 
#
# 1 0.003627 -0.002084 -0.001121 0.000000 0.000000 0.000000
# 2 -0.002084 0.018006 -0.000198 0.000000 0.000000 0.000000
# 3 -0.001121 -0.000198 0.010282 0.000000 0.000000 0.000000
# 4 0.000000 0.000000 0.000000 -0.013834 0.000000 0.000000
# 5 0.000000 0.000000 0.000000 0.000000 -0.044538 0.000000
# 6 0.000000 0.000000 0.000000 0.000000 0.000000 0.060557
#
#
# Mechanical properties :
#
#
# Convention : Reuss Voigt Hill
#
# Bulk Modulus (GPa) = 39.82486 68.65164 54.23825
# Shear Modulus (GPa) = 101.46987 10.52657 55.99822
#
# Velocity S-wave (km/s) = 6.38248 2.05572 4.74141
# Velocity P-wave (km/s) = 8.38467 5.76155 7.19368
#
# Compressibility (1/GPa) = 0.02510994
#
# Stress axis : x y z
#
# Youngs Moduli (GPa) = 275.68100 55.53697 97.25675
#
# Poissons Ratio (x) = 0.11573 0.10903
# Poissons Ratio (y) = 0.57449 0.01924
# Poissons Ratio (z) = 0.30904 0.01099
#
# Static dielectric constant tensor:
#      x y z
#    x 2.023640 0.000000 0.000000 
#    y 0.000000 1.980160 0.000000 
#    z 0.000000 0.000000 1.969370 
# 
# From -- ./inp_files/65946.got.cif
#   From: 2010.05.17/outbox.cif.g08.bks.cpg/sg63_33_cif.got.tgz:65946.got - 2010.06.03 15:47:04.
