data_PCOD9471149
_publ_section_title
;
Structure prediction by ZEFSAII (Michael W. Deem and Ramdas Pophale) SiO2 
 PCOD9471149
Probable space group: C M C M
;
_chemical_formula_sum "Si O2"
_cell_formula_units_Z 104
_cell_length_a 26.739671
_cell_length_b 18.674638
_cell_length_c 11.524423
_cell_angle_alpha 90.000000
_cell_angle_beta 90.000000
_cell_angle_gamma 90.000000
_cell_volume 5754.762991
_symmetry_space_group_name_H-M "C M C M"
_symmetry_group_IT_number 63
_symmetry_cell_setting 'orthorhombic'
loop_
_space_group_symop_operation_xyz
x,y,z
-x,-y,1/2+z
x,-y,-z
-x,y,1/2-z
-x,-y,-z
x,y,1/2-z
-x,y,z
x,-y,1/2+z
1/2+x,1/2+y,z
1/2-x,1/2-y,1/2+z
1/2+x,1/2-y,-z
1/2-x,1/2+y,1/2-z
1/2-x,1/2-y,-z
1/2+x,1/2+y,1/2-z
1/2-x,1/2+y,z
1/2+x,1/2-y,1/2+z
loop_
_atom_site_type_symbol
_atom_site_label
_atom_site_fract_x
_atom_site_fract_y
_atom_site_fract_z
Si Si1 0.359479 0.580022 0.528687
Si Si2 0.803757 0.661904 0.504986
Si Si3 0.254479 0.455778 0.121766
Si Si4 0.702001 0.684733 0.382795
Si Si5 0.905447 0.654584 0.114293
Si Si6 0.500000 0.049283 0.384856
Si Si7 0.943489 0.188607 0.610388
O O1 0.376422 0.500000 0.500000
O O2 0.311807 0.571703 0.614270
O O3 0.334290 0.620514 0.419850
O O4 0.404011 0.629033 0.573168
O O5 0.782362 0.611699 0.606563
O O6 0.758849 0.662279 0.411452
O O7 0.809517 0.744340 0.543059
O O8 0.856014 0.634381 0.456009
O O9 0.246833 0.489593 0.250000
O O10 0.247640 0.500000 0.000000
O O11 0.696319 0.702540 0.250000
O O12 0.891538 0.661158 0.250000
O O13 0.925111 0.732412 0.074208
O O14 0.950729 0.598871 0.106573
O O15 0.500000 0.019128 0.250000
O O16 0.500000 0.000000 0.500000
O O17 0.945108 0.189697 0.750000
O O18 0.000000 0.175511 0.567931
#
# Coordination Sequence:
#
# PCOD9471149 Si02
#       7
#    16  16  16  16  16   8  16
#     4  10  21  35  56  82 114 153 191 234 289 348
#     4  10  20  34  55  83 112 151 193 242 284 338
#     4  10  22  38  57  84 121 159 196 237 287 348
#     4  10  20  34  52  80 116 153 192 233 289 347
#     4  10  19  35  60  87 114 148 193 242 291 346
#     4  10  22  42  66  92 119 152 196 242 297 354
#     4  10  19  34  58  84 109 142 189 246 295 340
#
# _framework density 18.071985999999999
#
# number of rings (size 3 to 8) (size 9 to 14) (size 15 to 20)
#    0.000    2.000    2.308    1.385    0.000    7.692 
#    0.000    3.077    0.000    0.462    0.000    0.000 
#    0.000    0.000    0.000    0.000    0.000    0.000 
#
# Total GULP energy -289869.020541 kJ/mol
# GULP energy per Si atom -5574.404241 kJ/mol
# Density = 1.803085 g / cm^3
# Si number density = 18.071986 Si / 1000 Ang^3
#
#
#
# Elastic Constant Matrix: (Units=GPa)
#
#
# Indices 1 2 3 4 5 6 
#
# 1 99.2037 27.6333 33.6108 0.0000 0.0000 0.0000
# 2 27.6333 82.6308 29.3895 0.0000 0.0000 0.0000
# 3 33.6108 29.3895 65.3348 0.0000 0.0000 0.0000
# 4 0.0000 0.0000 0.0000 22.0031 0.0000 0.0000
# 5 0.0000 0.0000 0.0000 0.0000 -5.2378 0.0000
# 6 0.0000 0.0000 0.0000 0.0000 0.0000 17.5794
#
#
#
# Elastic Compliance Matrix: (Units=1/GPa)
#
#
# Indices 1 2 3 4 5 6 
#
# 1 0.012554 -0.002263 -0.005440 0.000000 0.000000 0.000000
# 2 -0.002263 0.014815 -0.005500 0.000000 0.000000 0.000000
# 3 -0.005440 -0.005500 0.020578 0.000000 0.000000 0.000000
# 4 0.000000 0.000000 0.000000 0.045448 0.000000 0.000000
# 5 0.000000 0.000000 0.000000 0.000000 -0.190921 0.000000
# 6 0.000000 0.000000 0.000000 0.000000 0.000000 0.056885
#
#
# Mechanical properties :
#
#
# Convention : Reuss Voigt Hill
#
# Bulk Modulus (GPa) = 46.42383 47.60407 47.01395
# Shear Modulus (GPa) = -708.83794 17.30466 -345.76664
#
# Velocity S-wave (km/s) = -19.82629 3.09777 -13.84712
# Velocity P-wave (km/s) = 22.32409 6.26047 15.15209
#
# Compressibility (1/GPa) = 0.02154066
#
# Stress axis : x y z
#
# Youngs Moduli (GPa) = 79.65673 67.49872 48.59474
#
# Poissons Ratio (x) = 0.15277 0.26436
# Poissons Ratio (y) = 0.18029 0.26727
# Poissons Ratio (z) = 0.43334 0.37124
#
# Static dielectric constant tensor:
#      x y z
#    x 1.600240 0.000000 0.000000 
#    y 0.000000 1.651210 0.000000 
#    z 0.000000 0.000000 1.628870 
# 
# From -- ./inp_files/25071.got.cif
#   From: 2010.05.17/outbox.cif.g08.bks.cpg/sg63_13_cif.got.tgz:25071.got - 2010.06.03 15:47:04.
