data_PCOD9471781
_publ_section_title
;
Structure prediction by ZEFSAII (Michael W. Deem and Ramdas Pophale) SiO2 
 PCOD9471781
Probable space group: C M C M
;
_chemical_formula_sum "Si O2"
_cell_formula_units_Z 96
_cell_length_a 7.451972
_cell_length_b 22.982873
_cell_length_c 24.007451
_cell_angle_alpha 90.000000
_cell_angle_beta 90.000000
_cell_angle_gamma 90.000000
_cell_volume 4111.701542
_symmetry_space_group_name_H-M "C M C M"
_symmetry_group_IT_number 63
_symmetry_cell_setting 'orthorhombic'
loop_
_space_group_symop_operation_xyz
x,y,z
-x,-y,1/2+z
x,-y,-z
-x,y,1/2-z
-x,-y,-z
x,y,1/2-z
-x,y,z
x,-y,1/2+z
1/2+x,1/2+y,z
1/2-x,1/2-y,1/2+z
1/2+x,1/2-y,-z
1/2-x,1/2+y,1/2-z
1/2-x,1/2-y,-z
1/2+x,1/2+y,1/2-z
1/2-x,1/2+y,z
1/2+x,1/2-y,1/2+z
loop_
_atom_site_type_symbol
_atom_site_label
_atom_site_fract_x
_atom_site_fract_y
_atom_site_fract_z
Si Si1 0.706936 0.726769 0.388470
Si Si2 0.711359 0.462485 0.586453
Si Si3 0.283939 0.591754 0.907173
Si Si4 0.280158 0.649280 0.483717
Si Si5 0.787512 0.671829 0.687499
Si Si6 0.784836 0.615458 0.313874
O O1 0.500000 0.742024 0.399657
O O2 0.785284 0.703589 0.446889
O O3 0.791488 0.778757 0.353163
O O4 0.710391 0.670751 0.347565
O O5 0.500000 0.465645 0.573734
O O6 0.784010 0.527217 0.578623
O O7 0.779445 0.409733 0.548294
O O8 0.734954 0.440834 0.649775
O O9 0.500000 0.589926 0.910091
O O10 0.234203 0.611990 0.845640
O O11 0.223780 0.639267 0.952891
O O12 0.500000 0.651184 0.481932
O O13 0.714386 0.672215 0.750000
O O14 0.000000 0.683767 0.691972
O O15 0.723533 0.613906 0.250000
O O16 0.000000 0.620660 0.314055
#
# Coordination Sequence:
#
# PCOD9471781 Si02
#       6
#    16  16  16  16  16  16
#     4   9  18  35  58  78  98 132 175 212 253 310
#     4   9  18  33  53  75 102 138 174 206 248 308
#     4  10  20  34  54  79 105 135 171 210 253 303
#     4   8  15  31  56  82 103 125 162 214 263 303
#     4  10  22  38  53  72 103 142 178 211 250 298
#     4  10  20  32  49  76 106 133 166 216 270 305
#
# _framework density 23.347998
#
# number of rings (size 3 to 8) (size 9 to 14) (size 15 to 20)
#    0.000    2.667    0.000    2.500    0.000    7.000 
#    0.000    6.667    0.000    5.000    0.000    0.000 
#    0.000    0.000    0.000    0.000    0.000    0.000 
#
# Total GULP energy -268074.870338 kJ/mol
# GULP energy per Si atom -5584.893132 kJ/mol
# Density = 2.329486 g / cm^3
# Si number density = 23.347998 Si / 1000 Ang^3
#
#
#
# Elastic Constant Matrix: (Units=GPa)
#
#
# Indices 1 2 3 4 5 6 
#
# 1 77.6232 4.7814 -6.0558 0.0000 0.0000 0.0000
# 2 4.7814 38.8089 41.8893 0.0000 0.0000 0.0000
# 3 -6.0558 41.8893 139.5847 0.0000 0.0000 0.0000
# 4 0.0000 0.0000 0.0000 24.3686 0.0000 0.0000
# 5 0.0000 0.0000 0.0000 0.0000 6.7641 0.0000
# 6 0.0000 0.0000 0.0000 0.0000 0.0000 43.0330
#
#
#
# Elastic Compliance Matrix: (Units=1/GPa)
#
#
# Indices 1 2 3 4 5 6 
#
# 1 0.013210 -0.003322 0.001570 0.000000 0.000000 0.000000
# 2 -0.003322 0.038948 -0.011833 0.000000 0.000000 0.000000
# 3 0.001570 -0.011833 0.010783 0.000000 0.000000 0.000000
# 4 0.000000 0.000000 0.000000 0.041036 0.000000 0.000000
# 5 0.000000 0.000000 0.000000 0.000000 0.147838 0.000000
# 6 0.000000 0.000000 0.000000 0.000000 0.000000 0.023238
#
#
# Mechanical properties :
#
#
# Convention : Reuss Voigt Hill
#
# Bulk Modulus (GPa) = 27.95474 37.47184 32.71329
# Shear Modulus (GPa) = 15.91610 29.19328 22.55469
#
# Velocity S-wave (km/s) = 2.61375 3.53987 3.11146
# Velocity P-wave (km/s) = 4.59434 5.72640 5.19132
#
# Compressibility (1/GPa) = 0.03577211
#
# Stress axis : x y z
#
# Youngs Moduli (GPa) = 75.70095 25.67504 92.73721
#
# Poissons Ratio (x) = 0.08530 -0.14561
# Poissons Ratio (y) = 0.25149 1.09731
# Poissons Ratio (z) = -0.11886 0.30380
#
# Static dielectric constant tensor:
#      x y z
#    x 1.937590 0.000000 0.000000 
#    y 0.000000 1.874530 0.000000 
#    z 0.000000 0.000000 1.872100 
# 
# From -- ./inp_files/59827.got.cif
#   From: 2010.05.17/outbox.cif.g08.bks.cpg/sg63_30_cif.got.tgz:59827.got - 2010.06.03 15:47:04.
