data_PCOD9471027
_publ_section_title
;
Structure prediction by ZEFSAII (Michael W. Deem and Ramdas Pophale) SiO2 
 PCOD9471027
Probable space group: C M C M
;
_chemical_formula_sum "Si O2"
_cell_formula_units_Z 96
_cell_length_a 8.547516
_cell_length_b 24.263152
_cell_length_c 26.095681
_cell_angle_alpha 90.000000
_cell_angle_beta 90.000000
_cell_angle_gamma 90.000000
_cell_volume 5411.974930
_symmetry_space_group_name_H-M "C M C M"
_symmetry_group_IT_number 63
_symmetry_cell_setting 'orthorhombic'
loop_
_space_group_symop_operation_xyz
x,y,z
-x,-y,1/2+z
x,-y,-z
-x,y,1/2-z
-x,-y,-z
x,y,1/2-z
-x,y,z
x,-y,1/2+z
1/2+x,1/2+y,z
1/2-x,1/2-y,1/2+z
1/2+x,1/2-y,-z
1/2-x,1/2+y,1/2-z
1/2-x,1/2-y,-z
1/2+x,1/2+y,1/2-z
1/2-x,1/2+y,z
1/2+x,1/2-y,1/2+z
loop_
_atom_site_type_symbol
_atom_site_label
_atom_site_fract_x
_atom_site_fract_y
_atom_site_fract_z
Si Si1 0.312762 0.499894 0.059535
Si Si2 0.810641 0.384161 0.096817
Si Si3 0.690653 0.188805 0.691656
Si Si4 0.688654 0.685060 0.309309
Si Si5 0.688627 0.811839 0.998782
Si Si6 0.187153 0.615306 0.401989
O O1 0.500000 0.499278 0.059159
O O2 0.251699 0.445167 0.087230
O O3 0.254583 0.555046 0.087074
O O4 0.257541 0.500000 0.000000
O O5 0.757508 0.354737 0.149178
O O6 0.000000 0.386147 0.097219
O O7 0.761862 0.346019 0.048893
O O8 0.740884 0.176856 0.750000
O O9 0.500000 0.188554 0.691713
O O10 0.736907 0.251719 0.678487
O O11 0.730925 0.674446 0.250000
O O12 0.500000 0.682821 0.312926
O O13 0.760075 0.642310 0.348897
O O14 0.500000 0.810271 0.998649
O O15 0.740990 0.844481 0.948123
O O16 0.750000 0.750000 0.000000
O O17 0.000000 0.612136 0.403778
#
# Coordination Sequence:
#
# PCOD9471027 Si02
#       6
#    16  16  16  16  16  16
#     4  11  23  38  56  77 103 143 188 230 276 329
#     4  10  19  34  55  78 108 142 179 225 272 323
#     4   8  15  30  55  84 110 141 179 217 265 322
#     4   9  18  35  59  84 112 146 182 221 266 320
#     4  10  21  33  50  78 109 141 176 219 275 330
#     4  11  22  36  55  80 110 143 182 227 274 328
#
# _framework density 17.738440000000001
#
# number of rings (size 3 to 8) (size 9 to 14) (size 15 to 20)
#    0.000    2.167    1.667    3.000    0.000    4.333 
#    0.000    1.667    0.000    4.500    0.000    0.000 
#    0.000    0.000    0.000    0.000    0.000    0.000 
#
# Total GULP energy -267948.293028 kJ/mol
# GULP energy per Si atom -5582.256105 kJ/mol
# Density = 1.769807 g / cm^3
# Si number density = 17.738440 Si / 1000 Ang^3
#
#
#
# Elastic Constant Matrix: (Units=GPa)
#
#
# Indices 1 2 3 4 5 6 
#
# 1 16.8139 32.0527 30.3050 0.0000 0.0000 0.0000
# 2 32.0527 191.5665 108.5564 0.0000 0.0000 0.0000
# 3 30.3050 108.5564 134.8045 0.0000 0.0000 0.0000
# 4 0.0000 0.0000 0.0000 22.7521 0.0000 0.0000
# 5 0.0000 0.0000 0.0000 0.0000 16.5535 0.0000
# 6 0.0000 0.0000 0.0000 0.0000 0.0000 27.6464
#
#
#
# Elastic Compliance Matrix: (Units=1/GPa)
#
#
# Indices 1 2 3 4 5 6 
#
# 1 0.105939 -0.007780 -0.017551 0.000000 0.000000 0.000000
# 2 -0.007780 0.010173 -0.006443 0.000000 0.000000 0.000000
# 3 -0.017551 -0.006443 0.016552 0.000000 0.000000 0.000000
# 4 0.000000 0.000000 0.000000 0.043952 0.000000 0.000000
# 5 0.000000 0.000000 0.000000 0.000000 0.060410 0.000000
# 6 0.000000 0.000000 0.000000 0.000000 0.000000 0.036171
#
#
# Mechanical properties :
#
#
# Convention : Reuss Voigt Hill
#
# Bulk Modulus (GPa) = 14.46832 76.11255 45.29044
# Shear Modulus (GPa) = 13.89721 24.87513 19.38617
#
# Velocity S-wave (km/s) = 2.80206 3.74883 3.30948
# Velocity P-wave (km/s) = 4.31774 7.85746 6.33966
#
# Compressibility (1/GPa) = 0.06911651
#
# Stress axis : x y z
#
# Youngs Moduli (GPa) = 9.43940 98.29802 60.41445
#
# Poissons Ratio (x) = 0.76477 1.06031
# Poissons Ratio (y) = 0.07344 0.38927
# Poissons Ratio (z) = 0.16567 0.63336
#
# Static dielectric constant tensor:
#      x y z
#    x 1.607100 0.000000 0.000000 
#    y 0.000000 1.567190 0.000000 
#    z 0.000000 0.000000 1.603330 
# 
# From -- ./inp_files/59873.got.cif
#   From: 2010.05.17/outbox.cif.g08.bks.cpg/sg63_30_cif.got.tgz:59873.got - 2010.06.03 15:47:04.
