data_PCOD9471873
_publ_section_title
;
Structure prediction by ZEFSAII (Michael W. Deem and Ramdas Pophale) SiO2 
 PCOD9471873
Probable space group: C M C M
;
_chemical_formula_sum "Si O2"
_cell_formula_units_Z 80
_cell_length_a 9.187090
_cell_length_b 28.628449
_cell_length_c 18.209769
_cell_angle_alpha 90.000000
_cell_angle_beta 90.000000
_cell_angle_gamma 90.000000
_cell_volume 4789.390268
_symmetry_space_group_name_H-M "C M C M"
_symmetry_group_IT_number 63
_symmetry_cell_setting 'orthorhombic'
loop_
_space_group_symop_operation_xyz
x,y,z
-x,-y,1/2+z
x,-y,-z
-x,y,1/2-z
-x,-y,-z
x,y,1/2-z
-x,y,z
x,-y,1/2+z
1/2+x,1/2+y,z
1/2-x,1/2-y,1/2+z
1/2+x,1/2-y,-z
1/2-x,1/2+y,1/2-z
1/2-x,1/2-y,-z
1/2+x,1/2+y,1/2-z
1/2-x,1/2+y,z
1/2+x,1/2-y,1/2+z
loop_
_atom_site_type_symbol
_atom_site_label
_atom_site_fract_x
_atom_site_fract_y
_atom_site_fract_z
Si Si1 0.166615 0.981463 0.415068
Si Si2 0.828071 0.160721 0.167472
Si Si3 0.165244 0.394515 0.460231
Si Si4 0.675548 0.202696 0.026469
Si Si5 0.165732 0.569064 0.128968
O O1 0.231173 0.929384 0.416378
O O2 0.000000 0.982556 0.390427
O O3 0.168410 0.000000 0.500000
O O4 0.265094 0.017812 0.370282
O O5 0.808520 0.179332 0.250000
O O6 0.739441 0.188565 0.105819
O O7 0.767039 0.107900 0.165521
O O8 0.000000 0.160781 0.149918
O O9 0.210628 0.340852 0.472007
O O10 0.160617 0.415063 0.543315
O O11 0.000000 0.396307 0.431487
O O12 0.500000 0.206150 0.029680
O O13 0.750000 0.250000 0.000000
O O14 0.000000 0.570159 0.156438
#
# Coordination Sequence:
#
# PCOD9471873 Si02
#       5
#    16  16  16  16  16
#     4   9  15  22  36  59  86 116 147 179 216 261
#     4  10  20  33  49  70  97 127 160 200 245 295
#     4   8  15  26  39  59  87 118 150 186 230 276
#     4  10  20  33  50  71  97 128 163 207 254 299
#     4   9  16  26  41  61  88 120 151 185 225 274
#
# _framework density 16.703588
#
# number of rings (size 3 to 8) (size 9 to 14) (size 15 to 20)
#    0.000    2.800    0.000    3.600    0.000    9.600 
#    0.000    0.000    0.000    0.000    0.000    1.400 
#    0.000    1.600    0.000    0.000    0.000    0.000 
#
# Total GULP energy -222818.156192 kJ/mol
# GULP energy per Si atom -5570.453905 kJ/mol
# Density = 1.666557 g / cm^3
# Si number density = 16.703588 Si / 1000 Ang^3
#
#
#
# Elastic Constant Matrix: (Units=GPa)
#
#
# Indices 1 2 3 4 5 6 
#
# 1 98.6381 69.5763 25.1207 0.0000 0.0000 0.0000
# 2 69.5763 144.5182 28.1736 0.0000 0.0000 0.0000
# 3 25.1207 28.1736 32.9416 0.0000 0.0000 0.0000
# 4 0.0000 0.0000 0.0000 7.5272 0.0000 0.0000
# 5 0.0000 0.0000 0.0000 0.0000 11.2707 0.0000
# 6 0.0000 0.0000 0.0000 0.0000 0.0000 31.6418
#
#
#
# Elastic Compliance Matrix: (Units=1/GPa)
#
#
# Indices 1 2 3 4 5 6 
#
# 1 0.016590 -0.006626 -0.006985 0.000000 0.000000 0.000000
# 2 -0.006626 0.010950 -0.004313 0.000000 0.000000 0.000000
# 3 -0.006985 -0.004313 0.039372 0.000000 0.000000 0.000000
# 4 0.000000 0.000000 0.000000 0.132852 0.000000 0.000000
# 5 0.000000 0.000000 0.000000 0.000000 0.088725 0.000000
# 6 0.000000 0.000000 0.000000 0.000000 0.000000 0.031604
#
#
# Mechanical properties :
#
#
# Convention : Reuss Voigt Hill
#
# Bulk Modulus (GPa) = 32.18955 57.98212 45.08584
# Shear Modulus (GPa) = 13.65019 20.30310 16.97664
#
# Velocity S-wave (km/s) = 2.86177 3.49018 3.19148
# Velocity P-wave (km/s) = 5.49841 7.14349 6.37425
#
# Compressibility (1/GPa) = 0.03106598
#
# Stress axis : x y z
#
# Youngs Moduli (GPa) = 60.27577 91.32390 25.39883
#
# Poissons Ratio (x) = 0.60507 0.17741
# Poissons Ratio (y) = 0.39936 0.10954
# Poissons Ratio (z) = 0.42103 0.39385
#
# Static dielectric constant tensor:
#      x y z
#    x 1.561480 0.000000 0.000000 
#    y 0.000000 1.561510 0.000000 
#    z 0.000000 0.000000 1.567380 
# 
# From -- ./inp_files/40690.got.cif
#   From: 2010.05.17/outbox.cif.g08.bks.cpg/sg63_21_cif.got.tgz:40690.got - 2010.06.03 15:47:04.
