data_PCOD9471688
_publ_section_title
;
Structure prediction by ZEFSAII (Michael W. Deem and Ramdas Pophale) SiO2 
 PCOD9471688
Probable space group: C M C M
;
_chemical_formula_sum "Si O2"
_cell_formula_units_Z 104
_cell_length_a 25.574133
_cell_length_b 20.645248
_cell_length_c 7.425559
_cell_angle_alpha 90.000000
_cell_angle_beta 90.000000
_cell_angle_gamma 90.000000
_cell_volume 3920.578706
_symmetry_space_group_name_H-M "C M C M"
_symmetry_group_IT_number 63
_symmetry_cell_setting 'orthorhombic'
loop_
_space_group_symop_operation_xyz
x,y,z
-x,-y,1/2+z
x,-y,-z
-x,y,1/2-z
-x,-y,-z
x,y,1/2-z
-x,y,z
x,-y,1/2+z
1/2+x,1/2+y,z
1/2-x,1/2-y,1/2+z
1/2+x,1/2-y,-z
1/2-x,1/2+y,1/2-z
1/2-x,1/2-y,-z
1/2+x,1/2+y,1/2-z
1/2-x,1/2+y,z
1/2+x,1/2-y,1/2+z
loop_
_atom_site_type_symbol
_atom_site_label
_atom_site_fract_x
_atom_site_fract_y
_atom_site_fract_z
Si Si1 0.943568 0.095083 0.959925
Si Si2 0.166597 0.892192 0.036356
Si Si3 0.557298 0.749583 0.034081
Si Si4 0.173946 0.252702 0.961170
Si Si5 0.389816 0.075759 0.464883
Si Si6 0.000000 0.577816 0.033908
Si Si7 0.778369 0.619974 0.466798
O O1 0.945398 0.076168 0.750000
O O2 0.886553 0.075657 0.036921
O O3 0.000000 0.075739 0.040528
O O4 0.941556 0.173792 0.971808
O O5 0.157355 0.887055 0.250000
O O6 0.172522 0.819135 0.958209
O O7 0.225483 0.917047 0.016407
O O8 0.557224 0.749589 0.250000
O O9 0.500000 0.774022 0.970074
O O10 0.613528 0.777674 0.974833
O O11 0.184324 0.246070 0.750000
O O12 0.214706 0.305517 0.032477
O O13 0.389095 0.087727 0.250000
O O14 0.444695 0.103857 0.538390
O O15 0.332699 0.091744 0.536310
O O16 0.394814 0.000000 0.500000
O O17 0.000000 0.585558 0.250000
O O18 0.000000 0.500000 0.000000
O O19 0.779515 0.620465 0.250000
#
# Coordination Sequence:
#
# PCOD9471688 Si02
#       7
#    16  16  16  16  16   8  16
#     4   8  14  26  43  61  83 113 150 187 218 254
#     4   9  17  28  44  65  90 122 156 186 221 263
#     4   9  16  25  38  57  81 109 145 188 230 265
#     4   9  18  31  43  59  85 120 159 189 219 266
#     4   9  18  33  52  72  92 115 147 190 237 283
#     4   8  14  28  50  70  88 110 142 184 232 280
#     4  10  20  32  45  66  92 117 151 188 225 272
#
# _framework density 26.526696999999999
#
# number of rings (size 3 to 8) (size 9 to 14) (size 15 to 20)
#    0.000    3.077    0.000    1.846    0.000    4.615 
#    1.385    0.000    0.000    0.000    0.000    0.000 
#    0.000    0.615    0.000    1.385    0.000    2.308 
#
# Total GULP energy -290172.502881 kJ/mol
# GULP energy per Si atom -5580.240440 kJ/mol
# Density = 2.646632 g / cm^3
# Si number density = 26.526697 Si / 1000 Ang^3
#
#
#
# Elastic Constant Matrix: (Units=GPa)
#
#
# Indices 1 2 3 4 5 6 
#
# 1 306.8821 33.1116 7.2995 0.0000 0.0000 0.0000
# 2 33.1116 52.1657 -5.1103 0.0000 0.0000 0.0000
# 3 7.2995 -5.1103 118.1430 0.0000 0.0000 0.0000
# 4 0.0000 0.0000 0.0000 4.0755 0.0000 0.0000
# 5 0.0000 0.0000 0.0000 0.0000 37.1225 0.0000
# 6 0.0000 0.0000 0.0000 0.0000 0.0000 20.6036
#
#
#
# Elastic Compliance Matrix: (Units=1/GPa)
#
#
# Indices 1 2 3 4 5 6 
#
# 1 0.003510 -0.002259 -0.000315 0.000000 0.000000 0.000000
# 2 -0.002259 0.020705 0.001035 0.000000 0.000000 0.000000
# 3 -0.000315 0.001035 0.008529 0.000000 0.000000 0.000000
# 4 0.000000 0.000000 0.000000 0.245368 0.000000 0.000000
# 5 0.000000 0.000000 0.000000 0.000000 0.026938 0.000000
# 6 0.000000 0.000000 0.000000 0.000000 0.000000 0.048535
#
#
# Mechanical properties :
#
#
# Convention : Reuss Voigt Hill
#
# Bulk Modulus (GPa) = 33.70753 60.86585 47.28669
# Shear Modulus (GPa) = 13.64073 41.81965 27.73019
#
# Velocity S-wave (km/s) = 2.27012 3.97484 3.23672
# Velocity P-wave (km/s) = 4.42785 6.63783 5.64210
#
# Compressibility (1/GPa) = 0.02966696
#
# Stress axis : x y z
#
# Youngs Moduli (GPa) = 284.91990 48.29819 117.25358
#
# Poissons Ratio (x) = 0.10909 0.03688
# Poissons Ratio (y) = 0.64352 -0.12137
# Poissons Ratio (z) = 0.08962 -0.04999
#
# Static dielectric constant tensor:
#      x y z
#    x 2.210270 0.000000 0.000000 
#    y 0.000000 2.143750 0.000000 
#    z 0.000000 0.000000 2.026060 
# 
# From -- ./inp_files/13071.got.cif
#   From: 2010.05.17/outbox.cif.g08.bks.cpg/sg63_7_cif.got.tgz:13071.got - 2010.06.03 15:47:04.
