data_PCOD9471378
_publ_section_title
;
Structure prediction by ZEFSAII (Michael W. Deem and Ramdas Pophale) SiO2 
 PCOD9471378
Probable space group: C M C M
;
_chemical_formula_sum "Si O2"
_cell_formula_units_Z 88
_cell_length_a 11.802266
_cell_length_b 25.004358
_cell_length_c 14.841825
_cell_angle_alpha 90.000000
_cell_angle_beta 90.000000
_cell_angle_gamma 90.000000
_cell_volume 4379.942543
_symmetry_space_group_name_H-M "C M C M"
_symmetry_group_IT_number 63
_symmetry_cell_setting 'orthorhombic'
loop_
_space_group_symop_operation_xyz
x,y,z
-x,-y,1/2+z
x,-y,-z
-x,y,1/2-z
-x,-y,-z
x,y,1/2-z
-x,y,z
x,-y,1/2+z
1/2+x,1/2+y,z
1/2-x,1/2-y,1/2+z
1/2+x,1/2-y,-z
1/2-x,1/2+y,1/2-z
1/2-x,1/2-y,-z
1/2+x,1/2+y,1/2-z
1/2-x,1/2+y,z
1/2+x,1/2-y,1/2+z
loop_
_atom_site_type_symbol
_atom_site_label
_atom_site_fract_x
_atom_site_fract_y
_atom_site_fract_z
Si Si1 0.134091 0.095818 0.569421
Si Si2 0.000000 0.408576 0.859556
Si Si3 0.500000 0.211910 0.145194
Si Si4 0.367827 0.231948 0.750000
Si Si5 0.311388 0.533742 0.750000
Si Si6 0.634171 0.360471 0.750000
Si Si7 0.246547 0.062266 0.110353
Si Si8 0.208626 0.216592 0.914971
O O1 0.167522 0.077677 0.669487
O O2 0.198421 0.064579 0.489982
O O3 0.163898 0.158320 0.558909
O O4 0.000000 0.087385 0.558433
O O5 0.117175 0.435454 0.889569
O O6 0.000000 0.410649 0.750000
O O7 0.000000 0.347500 0.896166
O O8 0.500000 0.200809 0.250000
O O9 0.607984 0.247452 0.123896
O O10 0.500000 0.217829 0.750000
O O11 0.358020 0.296646 0.750000
O O12 0.305195 0.211509 0.839229
O O13 0.294071 0.487177 0.671079
O O14 0.500000 0.375410 0.750000
O O15 0.697214 0.385838 0.836212
O O16 0.250000 0.250000 0.000000
#
# Coordination Sequence:
#
# PCOD9471378 Si02
#       8
#    16   8   8   8   8   8  16  16
#     4  12  26  46  70 103 141 177 232 294 354 421
#     4  11  20  42  73 103 140 182 248 278 331 413
#     4  11  22  38  70 102 132 188 232 289 338 405
#     4  11  24  40  60  94 143 185 227 286 348 413
#     4  11  26  44  71  98 133 176 229 288 357 405
#     4  10  19  35  63  98 136 178 229 286 345 404
#     4  11  24  44  70 101 137 182 234 291 344 414
#     4  12  25  42  68 100 144 185 230 281 350 423
#
# _framework density 20.091587000000001
#
# number of rings (size 3 to 8) (size 9 to 14) (size 15 to 20)
#    0.000    0.727    3.636    5.182    1.273    6.545 
#    1.636    2.727    4.000    0.000    0.000    0.000 
#    0.000    0.000    0.000    0.000    0.000    0.000 
#
# Total GULP energy -245008.224881 kJ/mol
# GULP energy per Si atom -5568.368747 kJ/mol
# Density = 2.004586 g / cm^3
# Si number density = 20.091587 Si / 1000 Ang^3
#
#
#
# Elastic Constant Matrix: (Units=GPa)
#
#
# Indices 1 2 3 4 5 6 
#
# 1 85.1409 3.4991 62.5994 0.0000 0.0000 0.0000
# 2 3.4991 74.6669 31.0090 0.0000 0.0000 0.0000
# 3 62.5994 31.0090 180.5253 0.0000 0.0000 0.0000
# 4 0.0000 0.0000 0.0000 35.4641 0.0000 0.0000
# 5 0.0000 0.0000 0.0000 0.0000 25.7797 0.0000
# 6 0.0000 0.0000 0.0000 0.0000 0.0000 -20.1788
#
#
#
# Elastic Compliance Matrix: (Units=1/GPa)
#
#
# Indices 1 2 3 4 5 6 
#
# 1 0.015955 0.001669 -0.005819 0.000000 0.000000 0.000000
# 2 0.001669 0.014596 -0.003086 0.000000 0.000000 0.000000
# 3 -0.005819 -0.003086 0.008087 0.000000 0.000000 0.000000
# 4 0.000000 0.000000 0.000000 0.028198 0.000000 0.000000
# 5 0.000000 0.000000 0.000000 0.000000 0.038790 0.000000
# 6 0.000000 0.000000 0.000000 0.000000 0.000000 -0.049557
#
#
# Mechanical properties :
#
#
# Convention : Reuss Voigt Hill
#
# Bulk Modulus (GPa) = 41.37988 59.39422 50.38705
# Shear Modulus (GPa) = 63.61510 24.42805 44.02157
#
# Velocity S-wave (km/s) = 5.63305 3.49066 4.68594
# Velocity P-wave (km/s) = 7.93402 6.77290 7.37635
#
# Compressibility (1/GPa) = 0.02416633
#
# Stress axis : x y z
#
# Youngs Moduli (GPa) = 62.67498 68.51104 123.64881
#
# Poissons Ratio (x) = -0.11435 0.71956
# Poissons Ratio (y) = -0.10461 0.38158
# Poissons Ratio (z) = 0.36473 0.21142
#
# Static dielectric constant tensor:
#      x y z
#    x 1.793450 0.000000 0.000000 
#    y 0.000000 1.738240 0.000000 
#    z 0.000000 0.000000 1.684100 
# 
# From -- ./inp_files/29943.got.cif
#   From: 2010.05.17/outbox.cif.g08.bks.cpg/sg63_15_cif.got.tgz:29943.got - 2010.06.03 15:47:04.
