data_PCOD9471747
_publ_section_title
;
Structure prediction by ZEFSAII (Michael W. Deem and Ramdas Pophale) SiO2 
 PCOD9471747
Probable space group: C M C M
;
_chemical_formula_sum "Si O2"
_cell_formula_units_Z 96
_cell_length_a 14.711281
_cell_length_b 32.062222
_cell_length_c 9.581620
_cell_angle_alpha 90.000000
_cell_angle_beta 90.000000
_cell_angle_gamma 90.000000
_cell_volume 4519.423619
_symmetry_space_group_name_H-M "C M C M"
_symmetry_group_IT_number 63
_symmetry_cell_setting 'orthorhombic'
loop_
_space_group_symop_operation_xyz
x,y,z
-x,-y,1/2+z
x,-y,-z
-x,y,1/2-z
-x,-y,-z
x,y,1/2-z
-x,y,z
x,-y,1/2+z
1/2+x,1/2+y,z
1/2-x,1/2-y,1/2+z
1/2+x,1/2-y,-z
1/2-x,1/2+y,1/2-z
1/2-x,1/2-y,-z
1/2+x,1/2+y,1/2-z
1/2-x,1/2+y,z
1/2+x,1/2-y,1/2+z
loop_
_atom_site_type_symbol
_atom_site_label
_atom_site_fract_x
_atom_site_fract_y
_atom_site_fract_z
Si Si1 0.388970 0.707930 0.089496
Si Si2 0.140932 0.461189 0.409281
Si Si3 0.388992 0.198578 0.588603
Si Si4 0.108970 0.620810 0.407751
Si Si5 0.857895 0.961777 0.408513
Si Si6 0.891029 0.130504 0.592254
O O1 0.361183 0.702107 0.250000
O O2 0.500000 0.707451 0.087826
O O3 0.361877 0.754617 0.044807
O O4 0.357212 0.669833 0.994820
O O5 0.105187 0.500000 0.500000
O O6 0.106218 0.459649 0.250000
O O7 0.125596 0.418847 0.494171
O O8 0.249459 0.466715 0.399349
O O9 0.361310 0.191567 0.750000
O O10 0.500000 0.197805 0.588952
O O11 0.357551 0.162376 0.485537
O O12 0.145238 0.615612 0.250000
O O13 0.000000 0.624799 0.396796
O O14 0.894221 0.962462 0.250000
O O15 0.873928 0.915505 0.468608
O O16 0.893265 0.000000 0.500000
O O17 0.853323 0.130872 0.750000
O O18 0.000000 0.134730 0.600897
#
# Coordination Sequence:
#
# PCOD9471747 Si02
#       6
#    16  16  16  16  16  16
#     4   8  14  25  42  66  95 125 157 190 225 270
#     4  10  20  35  53  69  90 122 158 194 231 276
#     4   8  14  26  44  66  94 126 156 187 226 272
#     4  10  20  32  48  73 100 122 150 190 233 277
#     4   9  19  34  50  69  92 122 159 194 231 277
#     4   9  17  29  46  70  99 126 153 190 235 277
#
# _framework density 21.241645999999999
#
# number of rings (size 3 to 8) (size 9 to 14) (size 15 to 20)
#    0.000    3.000    0.000    2.000    0.000    3.667 
#    0.000    3.333    0.000    1.000    0.000    0.000 
#    0.000    0.000    0.000    0.000    0.000    0.000 
#
# Total GULP energy -267844.323388 kJ/mol
# GULP energy per Si atom -5580.090071 kJ/mol
# Density = 2.119330 g / cm^3
# Si number density = 21.241646 Si / 1000 Ang^3
#
#
#
# Elastic Constant Matrix: (Units=GPa)
#
#
# Indices 1 2 3 4 5 6 
#
# 1 53.0300 -2.2697 5.8866 0.0000 0.0000 0.0000
# 2 -2.2697 235.9347 134.8002 0.0000 0.0000 0.0000
# 3 5.8866 134.8002 147.1058 0.0000 0.0000 0.0000
# 4 0.0000 0.0000 0.0000 38.2945 0.0000 0.0000
# 5 0.0000 0.0000 0.0000 0.0000 -67.9765 0.0000
# 6 0.0000 0.0000 0.0000 0.0000 0.0000 28.6603
#
#
#
# Elastic Compliance Matrix: (Units=1/GPa)
#
#
# Indices 1 2 3 4 5 6 
#
# 1 0.019131 0.001304 -0.001961 0.000000 0.000000 0.000000
# 2 0.001304 0.008985 -0.008285 0.000000 0.000000 0.000000
# 3 -0.001961 -0.008285 0.014469 0.000000 0.000000 0.000000
# 4 0.000000 0.000000 0.000000 0.026113 0.000000 0.000000
# 5 0.000000 0.000000 0.000000 0.000000 -0.014711 0.000000
# 6 0.000000 0.000000 0.000000 0.000000 0.000000 0.034892
#
#
# Mechanical properties :
#
#
# Convention : Reuss Voigt Hill
#
# Bulk Modulus (GPa) = 40.48510 79.21164 59.84837
# Shear Modulus (GPa) = 43.47995 19.63922 31.55958
#
# Velocity S-wave (km/s) = 4.52920 3.04396 3.85871
# Velocity P-wave (km/s) = 6.81558 7.05166 6.93463
#
# Compressibility (1/GPa) = 0.02470044
#
# Stress axis : x y z
#
# Youngs Moduli (GPa) = 52.27198 111.29809 69.11480
#
# Poissons Ratio (x) = -0.14516 0.13552
# Poissons Ratio (y) = -0.06818 0.57265
# Poissons Ratio (z) = 0.10249 0.92216
#
# Static dielectric constant tensor:
#      x y z
#    x 1.812810 0.000000 0.000000 
#    y 0.000000 1.748040 0.000000 
#    z 0.000000 0.000000 1.756630 
# 
# From -- ./inp_files/8632.got.cif
#   From: 2010.05.17/outbox.cif.g08.bks.cpg/sg63_5_cif.got.tgz:8632.got - 2010.06.03 15:47:04.
