data_PCOD9471429
_publ_section_title
;
Structure prediction by ZEFSAII (Michael W. Deem and Ramdas Pophale) SiO2 
 PCOD9471429
Probable space group: C M C M
;
_chemical_formula_sum "Si O2"
_cell_formula_units_Z 80
_cell_length_a 11.773288
_cell_length_b 19.579589
_cell_length_c 17.078653
_cell_angle_alpha 90.000000
_cell_angle_beta 90.000000
_cell_angle_gamma 90.000000
_cell_volume 3936.905170
_symmetry_space_group_name_H-M "C M C M"
_symmetry_group_IT_number 63
_symmetry_cell_setting 'orthorhombic'
loop_
_space_group_symop_operation_xyz
x,y,z
-x,-y,1/2+z
x,-y,-z
-x,y,1/2-z
-x,-y,-z
x,y,1/2-z
-x,y,z
x,-y,1/2+z
1/2+x,1/2+y,z
1/2-x,1/2-y,1/2+z
1/2+x,1/2-y,-z
1/2-x,1/2+y,1/2-z
1/2-x,1/2-y,-z
1/2+x,1/2+y,1/2-z
1/2-x,1/2+y,z
1/2+x,1/2-y,1/2+z
loop_
_atom_site_type_symbol
_atom_site_label
_atom_site_fract_x
_atom_site_fract_y
_atom_site_fract_z
Si Si1 0.283437 0.648974 0.595552
Si Si2 0.626207 0.408806 0.250000
Si Si3 0.367227 0.734021 0.157865
Si Si4 0.828617 0.493009 0.414685
Si Si5 0.629447 0.401184 0.931397
Si Si6 0.877327 0.518862 0.750000
O O1 0.362712 0.635002 0.670596
O O2 0.217050 0.719051 0.608054
O O3 0.191266 0.587522 0.597015
O O4 0.346289 0.637487 0.513499
O O5 0.500000 0.442817 0.250000
O O6 0.746443 0.451171 0.250000
O O7 0.348009 0.746518 0.250000
O O8 0.500000 0.749647 0.140730
O O9 0.350424 0.654960 0.135658
O O10 0.882986 0.500000 0.500000
O O11 0.711136 0.534510 0.422660
O O12 0.880511 0.518804 0.333488
O O13 0.500000 0.424207 0.929078
O O14 0.000000 0.559941 0.750000
#
# Coordination Sequence:
#
# PCOD9471429 Si02
#       6
#    16   8  16  16  16   8
#     4  10  19  36  58  87 122 156 200 255 312 371
#     4  10  20  34  57  88 119 155 201 255 311 362
#     4  10  21  37  58  86 118 161 214 262 310 370
#     4   9  21  37  59  90 123 159 201 256 314 372
#     4  10  21  37  60  89 124 162 205 257 315 377
#     4  10  22  38  59  88 125 167 207 251 309 372
#
# _framework density 20.320529000000001
#
# number of rings (size 3 to 8) (size 9 to 14) (size 15 to 20)
#    0.000    2.200    1.000    1.200    1.400   10.400 
#    0.000    3.000    0.000    3.600    0.000    0.000 
#    0.000    0.000    0.000    0.000    0.000    0.000 
#
# Total GULP energy -222675.271714 kJ/mol
# GULP energy per Si atom -5566.881793 kJ/mol
# Density = 2.027428 g / cm^3
# Si number density = 20.320529 Si / 1000 Ang^3
#
#
#
# Elastic Constant Matrix: (Units=GPa)
#
#
# Indices 1 2 3 4 5 6 
#
# 1 135.0263 34.9456 14.6680 0.0000 0.0000 0.0000
# 2 34.9456 42.6797 -2.4491 0.0000 0.0000 0.0000
# 3 14.6680 -2.4491 112.9312 0.0000 0.0000 0.0000
# 4 0.0000 0.0000 0.0000 26.5010 0.0000 0.0000
# 5 0.0000 0.0000 0.0000 0.0000 102.0466 0.0000
# 6 0.0000 0.0000 0.0000 0.0000 0.0000 12.7192
#
#
#
# Elastic Compliance Matrix: (Units=1/GPa)
#
#
# Indices 1 2 3 4 5 6 
#
# 1 0.009620 -0.007958 -0.001422 0.000000 0.000000 0.000000
# 2 -0.007958 0.030043 0.001685 0.000000 0.000000 0.000000
# 3 -0.001422 0.001685 0.009076 0.000000 0.000000 0.000000
# 4 0.000000 0.000000 0.000000 0.037734 0.000000 0.000000
# 5 0.000000 0.000000 0.000000 0.000000 0.009799 0.000000
# 6 0.000000 0.000000 0.000000 0.000000 0.000000 0.078622
#
#
# Mechanical properties :
#
#
# Convention : Reuss Voigt Hill
#
# Bulk Modulus (GPa) = 29.98591 42.77403 36.37997
# Shear Modulus (GPa) = 24.82595 44.48487 34.65541
#
# Velocity S-wave (km/s) = 3.49910 4.68392 4.13418
# Velocity P-wave (km/s) = 5.57794 7.09560 6.38204
#
# Compressibility (1/GPa) = 0.03334900
#
# Stress axis : x y z
#
# Youngs Moduli (GPa) = 103.94854 33.28523 110.17827
#
# Poissons Ratio (x) = 0.26490 0.15668
# Poissons Ratio (y) = 0.82727 -0.18567
# Poissons Ratio (z) = 0.14782 -0.05609
#
# Static dielectric constant tensor:
#      x y z
#    x 1.736420 0.000000 0.000000 
#    y 0.000000 1.685320 0.000000 
#    z 0.000000 0.000000 1.795590 
# 
# From -- ./inp_files/42171.got.cif
#   From: 2010.05.17/outbox.cif.g08.bks.cpg/sg63_22_cif.got.tgz:42171.got - 2010.06.03 15:47:04.
