data_PCOD9471104
_publ_section_title
;
Structure prediction by ZEFSAII (Michael W. Deem and Ramdas Pophale) SiO2 
 PCOD9471104
Probable space group: C M C M
;
_chemical_formula_sum "Si O2"
_cell_formula_units_Z 96
_cell_length_a 20.769173
_cell_length_b 16.428259
_cell_length_c 13.724896
_cell_angle_alpha 90.000000
_cell_angle_beta 90.000000
_cell_angle_gamma 90.000000
_cell_volume 4682.953089
_symmetry_space_group_name_H-M "C M C M"
_symmetry_group_IT_number 63
_symmetry_cell_setting 'orthorhombic'
loop_
_space_group_symop_operation_xyz
x,y,z
-x,-y,1/2+z
x,-y,-z
-x,y,1/2-z
-x,-y,-z
x,y,1/2-z
-x,y,z
x,-y,1/2+z
1/2+x,1/2+y,z
1/2-x,1/2-y,1/2+z
1/2+x,1/2-y,-z
1/2-x,1/2+y,1/2-z
1/2-x,1/2-y,-z
1/2+x,1/2+y,1/2-z
1/2-x,1/2+y,z
1/2+x,1/2-y,1/2+z
loop_
_atom_site_type_symbol
_atom_site_label
_atom_site_fract_x
_atom_site_fract_y
_atom_site_fract_z
Si Si1 0.109154 0.273668 0.637320
Si Si2 0.728681 0.834838 0.541008
Si Si3 0.683583 0.065451 0.638790
Si Si4 0.074635 0.092268 0.631311
Si Si5 0.068513 0.442996 0.867489
Si Si6 0.684268 0.535292 0.138894
O O1 0.090215 0.266181 0.750000
O O2 0.181300 0.309491 0.628789
O O3 0.098603 0.182438 0.597227
O O4 0.071377 0.350666 0.593294
O O5 0.750000 0.750000 0.500000
O O6 0.689216 0.874340 0.451642
O O7 0.787909 0.891173 0.574368
O O8 0.670507 0.096100 0.750000
O O9 0.629834 0.998606 0.612399
O O10 0.753689 0.023880 0.642427
O O11 0.076207 0.093178 0.750000
O O12 0.000000 0.080428 0.601686
O O13 0.123697 0.019290 0.605602
O O14 0.070001 0.435142 0.750000
O O15 0.000000 0.481297 0.893470
O O16 0.671583 0.563467 0.250000
#
# Coordination Sequence:
#
# PCOD9471104 Si02
#       6
#    16  16  16  16  16  16
#     4  10  19  34  56  87 124 156 192 241 294 351
#     4  12  24  36  57  84 115 155 202 247 301 358
#     4  10  21  38  58  82 114 152 198 246 300 361
#     4   9  18  34  60  93 126 162 203 246 296 355
#     4   9  17  32  57  85 115 152 190 235 294 355
#     4  10  20  37  61  87 118 154 197 248 300 357
#
# _framework density 20.499886
#
# number of rings (size 3 to 8) (size 9 to 14) (size 15 to 20)
#    0.000    2.000    1.667    2.500    0.000    4.667 
#    0.000    2.500    0.000   10.000    0.000    4.667 
#    0.000    1.333    0.000    0.000    0.000    0.000 
#
# Total GULP energy -267448.911009 kJ/mol
# GULP energy per Si atom -5571.852313 kJ/mol
# Density = 2.045323 g / cm^3
# Si number density = 20.499886 Si / 1000 Ang^3
#
#
#
# Elastic Constant Matrix: (Units=GPa)
#
#
# Indices 1 2 3 4 5 6 
#
# 1 146.9746 84.1306 21.7781 0.0000 0.0000 0.0000
# 2 84.1306 97.0461 36.8492 0.0000 0.0000 0.0000
# 3 21.7781 36.8492 84.3209 0.0000 0.0000 0.0000
# 4 0.0000 0.0000 0.0000 25.4091 0.0000 0.0000
# 5 0.0000 0.0000 0.0000 0.0000 -28.5860 0.0000
# 6 0.0000 0.0000 0.0000 0.0000 0.0000 18.3731
#
#
#
# Elastic Compliance Matrix: (Units=1/GPa)
#
#
# Indices 1 2 3 4 5 6 
#
# 1 0.013780 -0.012702 0.001992 0.000000 0.000000 0.000000
# 2 -0.012702 0.024063 -0.007235 0.000000 0.000000 0.000000
# 3 0.001992 -0.007235 0.014507 0.000000 0.000000 0.000000
# 4 0.000000 0.000000 0.000000 0.039356 0.000000 0.000000
# 5 0.000000 0.000000 0.000000 0.000000 -0.034982 0.000000
# 6 0.000000 0.000000 0.000000 0.000000 0.000000 0.054427
#
#
# Mechanical properties :
#
#
# Convention : Reuss Voigt Hill
#
# Bulk Modulus (GPa) = 60.75693 68.20639 64.48166
# Shear Modulus (GPa) = 32.78080 15.41149 24.09614
#
# Velocity S-wave (km/s) = 4.00318 2.74484 3.43217
# Velocity P-wave (km/s) = 7.14628 6.58706 6.87236
#
# Compressibility (1/GPa) = 0.01645903
#
# Stress axis : x y z
#
# Youngs Moduli (GPa) = 72.57077 41.55690 68.93282
#
# Poissons Ratio (x) = 0.52786 -0.13732
# Poissons Ratio (y) = 0.92181 0.49875
# Poissons Ratio (z) = -0.14456 0.30068
#
# Static dielectric constant tensor:
#      x y z
#    x 1.730200 0.000000 0.000000 
#    y 0.000000 1.742840 0.000000 
#    z 0.000000 0.000000 1.790690 
# 
# From -- ./inp_files/35368.got.cif
#   From: 2010.05.17/outbox.cif.g08.bks.cpg/sg63_18_cif.got.tgz:35368.got - 2010.06.03 15:47:04.
