data_PCOD9471447
_publ_section_title
;
Structure prediction by ZEFSAII (Michael W. Deem and Ramdas Pophale) SiO2 
 PCOD9471447
Probable space group: C M C M
;
_chemical_formula_sum "Si O2"
_cell_formula_units_Z 88
_cell_length_a 16.534986
_cell_length_b 14.598467
_cell_length_c 17.082263
_cell_angle_alpha 90.000000
_cell_angle_beta 90.000000
_cell_angle_gamma 90.000000
_cell_volume 4123.409698
_symmetry_space_group_name_H-M "C M C M"
_symmetry_group_IT_number 63
_symmetry_cell_setting 'orthorhombic'
loop_
_space_group_symop_operation_xyz
x,y,z
-x,-y,1/2+z
x,-y,-z
-x,y,1/2-z
-x,-y,-z
x,y,1/2-z
-x,y,z
x,-y,1/2+z
1/2+x,1/2+y,z
1/2-x,1/2-y,1/2+z
1/2+x,1/2-y,-z
1/2-x,1/2+y,1/2-z
1/2-x,1/2-y,-z
1/2+x,1/2+y,1/2-z
1/2-x,1/2+y,z
1/2+x,1/2-y,1/2+z
loop_
_atom_site_type_symbol
_atom_site_label
_atom_site_fract_x
_atom_site_fract_y
_atom_site_fract_z
Si Si1 0.097758 0.762468 0.659584
Si Si2 0.000000 0.438860 0.656356
Si Si3 0.840188 0.785420 0.500654
Si Si4 0.327599 0.536009 0.588561
Si Si5 0.346791 0.051309 0.842734
Si Si6 0.000000 0.738776 0.065929
Si Si7 0.500000 0.458975 0.410815
O O1 0.117607 0.787560 0.750000
O O2 0.138320 0.819496 0.588756
O O3 0.130947 0.658611 0.646011
O O4 0.000000 0.764333 0.652595
O O5 0.080228 0.489383 0.624847
O O6 0.000000 0.331957 0.636517
O O7 0.000000 0.451153 0.750000
O O8 0.750000 0.750000 0.500000
O O9 0.837185 0.856357 0.429336
O O10 0.917180 0.721710 0.481661
O O11 0.323232 0.500000 0.500000
O O12 0.241429 0.522453 0.627520
O O13 0.414616 0.510434 0.626006
O O14 0.345145 0.038164 0.750000
O O15 0.000000 0.848115 0.082822
O O16 0.500000 0.500000 0.500000
#
# Coordination Sequence:
#
# PCOD9471447 Si02
#       7
#    16   8  16  16  16   8   8
#     4  10  19  36  59  84 118 163 207 254 316 379
#     4  10  22  39  59  89 135 172 203 256 322 392
#     4  11  21  36  57  90 122 149 206 268 310 372
#     4  10  21  37  60  83 113 158 204 253 316 368
#     4  10  20  36  57  86 123 164 204 247 309 388
#     4  10  22  37  59  89 122 161 205 257 319 371
#     4   8  18  40  61  80 110 157 202 253 303 352
#
# _framework density 21.341560999999999
#
# number of rings (size 3 to 8) (size 9 to 14) (size 15 to 20)
#    0.000    2.000    3.636    0.000    2.545    0.000 
#    0.000    7.273    0.000    0.000    0.000    1.273 
#    0.000    0.000    0.000    0.000    0.000    0.000 
#
# Total GULP energy -245001.233452 kJ/mol
# GULP energy per Si atom -5568.209851 kJ/mol
# Density = 2.129299 g / cm^3
# Si number density = 21.341561 Si / 1000 Ang^3
#
#
#
# Elastic Constant Matrix: (Units=GPa)
#
#
# Indices 1 2 3 4 5 6 
#
# 1 229.3095 30.5423 39.4760 0.0000 0.0000 0.0000
# 2 30.5423 44.6622 1.3111 0.0000 0.0000 0.0000
# 3 39.4760 1.3111 42.1850 0.0000 0.0000 0.0000
# 4 0.0000 0.0000 0.0000 25.8664 0.0000 0.0000
# 5 0.0000 0.0000 0.0000 0.0000 39.2181 0.0000
# 6 0.0000 0.0000 0.0000 0.0000 0.0000 7.2586
#
#
#
# Elastic Compliance Matrix: (Units=1/GPa)
#
#
# Indices 1 2 3 4 5 6 
#
# 1 0.005777 -0.003795 -0.005288 0.000000 0.000000 0.000000
# 2 -0.003795 0.024904 0.002777 0.000000 0.000000 0.000000
# 3 -0.005288 0.002777 0.028567 0.000000 0.000000 0.000000
# 4 0.000000 0.000000 0.000000 0.038660 0.000000 0.000000
# 5 0.000000 0.000000 0.000000 0.000000 0.025498 0.000000
# 6 0.000000 0.000000 0.000000 0.000000 0.000000 0.137767
#
#
# Mechanical properties :
#
#
# Convention : Reuss Voigt Hill
#
# Bulk Modulus (GPa) = 21.44231 50.97949 36.21090
# Shear Modulus (GPa) = 17.28132 30.79046 24.03589
#
# Velocity S-wave (km/s) = 2.84870 3.80247 3.35960
# Velocity P-wave (km/s) = 4.57046 6.57401 5.66157
#
# Compressibility (1/GPa) = 0.04663677
#
# Stress axis : x y z
#
# Youngs Moduli (GPa) = 173.10897 40.15406 35.00540
#
# Poissons Ratio (x) = 0.15239 0.18510
# Poissons Ratio (y) = 0.65698 -0.09723
# Poissons Ratio (z) = 0.91536 -0.11153
#
# Static dielectric constant tensor:
#      x y z
#    x 1.836480 0.000000 0.000000 
#    y 0.000000 1.851780 0.000000 
#    z 0.000000 0.000000 1.769960 
# 
# From -- ./inp_files/45579.got.cif
#   From: 2010.05.17/outbox.cif.g08.bks.cpg/sg63_23_cif.got.tgz:45579.got - 2010.06.03 15:47:04.
