data_PCOD9471121
_publ_section_title
;
Structure prediction by ZEFSAII (Michael W. Deem and Ramdas Pophale) SiO2 
 PCOD9471121
Probable space group: C M C M
;
_chemical_formula_sum "Si O2"
_cell_formula_units_Z 96
_cell_length_a 17.178121
_cell_length_b 29.683174
_cell_length_c 8.727293
_cell_angle_alpha 90.000000
_cell_angle_beta 90.000000
_cell_angle_gamma 90.000000
_cell_volume 4450.056778
_symmetry_space_group_name_H-M "C M C M"
_symmetry_group_IT_number 63
_symmetry_cell_setting 'orthorhombic'
loop_
_space_group_symop_operation_xyz
x,y,z
-x,-y,1/2+z
x,-y,-z
-x,y,1/2-z
-x,-y,-z
x,y,1/2-z
-x,y,z
x,-y,1/2+z
1/2+x,1/2+y,z
1/2-x,1/2-y,1/2+z
1/2+x,1/2-y,-z
1/2-x,1/2+y,1/2-z
1/2-x,1/2-y,-z
1/2+x,1/2+y,1/2-z
1/2-x,1/2+y,z
1/2+x,1/2-y,1/2+z
loop_
_atom_site_type_symbol
_atom_site_label
_atom_site_fract_x
_atom_site_fract_y
_atom_site_fract_z
Si Si1 0.415212 0.239640 0.935528
Si Si2 0.356784 0.143555 0.931924
Si Si3 0.908906 0.115188 0.080275
Si Si4 0.643183 0.047846 0.068578
Si Si5 0.314076 0.456632 0.426633
Si Si6 0.790448 0.194348 0.074603
O O1 0.412413 0.245583 0.750000
O O2 0.500000 0.256874 0.989345
O O3 0.411611 0.186218 0.963558
O O4 0.333403 0.261195 0.993880
O O5 0.350713 0.136250 0.750000
O O6 0.384106 0.096447 0.005461
O O7 0.273805 0.163603 0.990825
O O8 0.894167 0.094370 0.250000
O O9 0.866677 0.162680 0.082054
O O10 0.000000 0.119678 0.059670
O O11 0.869263 0.085247 0.952104
O O12 0.633862 0.046437 0.250000
O O13 0.734468 0.049418 0.021086
O O14 0.613068 0.000000 0.000000
O O15 0.354438 0.500000 0.500000
O O16 0.294021 0.463431 0.250000
O O17 0.763666 0.202527 0.250000
#
# Coordination Sequence:
#
# PCOD9471121 Si02
#       6
#    16  16  16  16  16  16
#     4   9  19  36  58  85 117 154 195 236 282 337
#     4  11  21  34  57  88 119 151 189 236 285 336
#     4  10  20  33  50  73 104 145 190 233 278 328
#     4  11  21  36  58  84 114 146 185 233 286 342
#     4  11  21  34  52  73 102 139 182 231 284 337
#     4  10  19  34  57  82 111 151 195 237 278 327
#
# _framework density 21.572759000000001
#
# number of rings (size 3 to 8) (size 9 to 14) (size 15 to 20)
#    0.000    1.667    1.667    5.500    0.000    2.667 
#    0.000    0.833    0.000    6.000    0.000    0.000 
#    0.000    0.000    0.000    0.000    0.000    0.000 
#
# Total GULP energy -267709.372632 kJ/mol
# GULP energy per Si atom -5577.278597 kJ/mol
# Density = 2.152366 g / cm^3
# Si number density = 21.572759 Si / 1000 Ang^3
#
#
#
# Elastic Constant Matrix: (Units=GPa)
#
#
# Indices 1 2 3 4 5 6 
#
# 1 39.8504 -4.9596 -7.5704 0.0000 0.0000 0.0000
# 2 -4.9596 121.3862 36.4256 0.0000 0.0000 0.0000
# 3 -7.5704 36.4256 87.3540 0.0000 0.0000 0.0000
# 4 0.0000 0.0000 0.0000 30.4420 0.0000 0.0000
# 5 0.0000 0.0000 0.0000 0.0000 3.9053 0.0000
# 6 0.0000 0.0000 0.0000 0.0000 0.0000 14.4602
#
#
#
# Elastic Compliance Matrix: (Units=1/GPa)
#
#
# Indices 1 2 3 4 5 6 
#
# 1 0.025534 0.000433 0.002032 0.000000 0.000000 0.000000
# 2 0.000433 0.009424 -0.003892 0.000000 0.000000 0.000000
# 3 0.002032 -0.003892 0.013247 0.000000 0.000000 0.000000
# 4 0.000000 0.000000 0.000000 0.032849 0.000000 0.000000
# 5 0.000000 0.000000 0.000000 0.000000 0.256060 0.000000
# 6 0.000000 0.000000 0.000000 0.000000 0.000000 0.069155
#
#
# Mechanical properties :
#
#
# Convention : Reuss Voigt Hill
#
# Bulk Modulus (GPa) = 22.05004 32.93130 27.49067
# Shear Modulus (GPa) = 11.78580 24.74118 18.26349
#
# Velocity S-wave (km/s) = 2.33990 3.39022 2.91280
# Velocity P-wave (km/s) = 4.18851 5.53382 4.90748
#
# Compressibility (1/GPa) = 0.04535138
#
# Stress axis : x y z
#
# Youngs Moduli (GPa) = 39.16375 106.11426 75.49043
#
# Poissons Ratio (x) = -0.04600 -0.15340
# Poissons Ratio (y) = -0.01698 0.29381
# Poissons Ratio (z) = -0.07958 0.41300
#
# Static dielectric constant tensor:
#      x y z
#    x 1.781000 0.000000 0.000000 
#    y 0.000000 1.901870 0.000000 
#    z 0.000000 0.000000 1.775280 
# 
# From -- ./inp_files/8621.got.cif
#   From: 2010.05.17/outbox.cif.g08.bks.cpg/sg63_5_cif.got.tgz:8621.got - 2010.06.03 15:47:04.
