data_PCOD9471145
_publ_section_title
;
Structure prediction by ZEFSAII (Michael W. Deem and Ramdas Pophale) SiO2 
 PCOD9471145
Probable space group: C M C M
;
_chemical_formula_sum "Si O2"
_cell_formula_units_Z 96
_cell_length_a 29.896277
_cell_length_b 9.492966
_cell_length_c 18.684427
_cell_angle_alpha 90.000000
_cell_angle_beta 90.000000
_cell_angle_gamma 90.000000
_cell_volume 5302.721493
_symmetry_space_group_name_H-M "C M C M"
_symmetry_group_IT_number 63
_symmetry_cell_setting 'orthorhombic'
loop_
_space_group_symop_operation_xyz
x,y,z
-x,-y,1/2+z
x,-y,-z
-x,y,1/2-z
-x,-y,-z
x,y,1/2-z
-x,y,z
x,-y,1/2+z
1/2+x,1/2+y,z
1/2-x,1/2-y,1/2+z
1/2+x,1/2-y,-z
1/2-x,1/2+y,1/2-z
1/2-x,1/2-y,-z
1/2+x,1/2+y,1/2-z
1/2-x,1/2+y,z
1/2+x,1/2-y,1/2+z
loop_
_atom_site_type_symbol
_atom_site_label
_atom_site_fract_x
_atom_site_fract_y
_atom_site_fract_z
Si Si1 0.613830 0.895992 0.667250
Si Si2 0.950016 0.377153 0.545521
Si Si3 0.449023 0.613756 0.058030
Si Si4 0.117299 0.263284 0.165694
Si Si5 0.203795 0.647079 0.084940
Si Si6 0.794245 0.312385 0.419785
O O1 0.609260 0.860594 0.750000
O O2 0.576241 0.834894 0.615672
O O3 0.661212 0.841835 0.636678
O O4 0.608103 0.066991 0.660100
O O5 0.926066 0.500000 0.500000
O O6 0.953111 0.251607 0.490535
O O7 0.000000 0.426858 0.565454
O O8 0.500000 0.571504 0.080367
O O9 0.417454 0.663418 0.123133
O O10 0.431534 0.500000 0.000000
O O11 0.118207 0.229743 0.250000
O O12 0.165599 0.254301 0.128171
O O13 0.213377 0.479807 0.087851
O O14 0.248958 0.731761 0.100646
O O15 0.192740 0.698340 0.003963
#
# Coordination Sequence:
#
# PCOD9471145 Si02
#       6
#    16  16  16  16  16  16
#     4  10  20  33  55  84 113 144 179 227 283 326
#     4  10  19  34  58  82 106 139 181 224 267 321
#     4  10  21  38  58  81 108 144 184 223 271 328
#     4  10  20  35  56  83 112 144 180 226 278 328
#     4   9  18  33  54  76 107 142 183 223 265 316
#     4   9  18  34  54  79 105 141 182 224 266 316
#
# _framework density 18.103912000000001
#
# number of rings (size 3 to 8) (size 9 to 14) (size 15 to 20)
#    0.000    2.333    1.667    1.000    2.333    1.333 
#    9.000    2.500    0.000    3.000    0.000    0.000 
#    0.000    0.000    0.000    0.000    0.000    0.000 
#
# Total GULP energy -267281.299751 kJ/mol
# GULP energy per Si atom -5568.360411 kJ/mol
# Density = 1.806271 g / cm^3
# Si number density = 18.103912 Si / 1000 Ang^3
#
#
#
# Elastic Constant Matrix: (Units=GPa)
#
#
# Indices 1 2 3 4 5 6 
#
# 1 95.6508 15.7064 86.3776 0.0000 0.0000 0.0000
# 2 15.7064 29.8391 26.2576 0.0000 0.0000 0.0000
# 3 86.3776 26.2576 139.2723 0.0000 0.0000 0.0000
# 4 0.0000 0.0000 0.0000 22.6398 0.0000 0.0000
# 5 0.0000 0.0000 0.0000 0.0000 -9.0513 0.0000
# 6 0.0000 0.0000 0.0000 0.0000 0.0000 27.4649
#
#
#
# Elastic Compliance Matrix: (Units=1/GPa)
#
#
# Indices 1 2 3 4 5 6 
#
# 1 0.023773 0.000553 -0.014848 0.000000 0.000000 0.000000
# 2 0.000553 0.040192 -0.007920 0.000000 0.000000 0.000000
# 3 -0.014848 -0.007920 0.017882 0.000000 0.000000 0.000000
# 4 0.000000 0.000000 0.000000 0.044170 0.000000 0.000000
# 5 0.000000 0.000000 0.000000 0.000000 -0.110481 0.000000
# 6 0.000000 0.000000 0.000000 0.000000 0.000000 0.036410
#
#
# Mechanical properties :
#
#
# Convention : Reuss Voigt Hill
#
# Bulk Modulus (GPa) = 26.72699 57.93836 42.33267
# Shear Modulus (GPa) = 45.93523 17.30539 31.62031
#
# Velocity S-wave (km/s) = 5.04264 3.09510 4.18377
# Velocity P-wave (km/s) = 6.97849 6.69669 6.83904
#
# Compressibility (1/GPa) = 0.03741536
#
# Stress axis : x y z
#
# Youngs Moduli (GPa) = 42.06535 24.88065 55.92113
#
# Poissons Ratio (x) = -0.01375 0.83032
# Poissons Ratio (y) = -0.02325 0.44292
# Poissons Ratio (z) = 0.62459 0.19706
#
# Static dielectric constant tensor:
#      x y z
#    x 1.648570 0.000000 0.000000 
#    y 0.000000 1.714210 0.000000 
#    z 0.000000 0.000000 1.620480 
# 
# From -- ./inp_files/58042.got.cif
#   From: 2010.05.17/outbox.cif.g08.bks.cpg/sg63_30_cif.got.tgz:58042.got - 2010.06.03 15:47:04.
