data_PCOD9471586
_publ_section_title
;
Structure prediction by ZEFSAII (Michael W. Deem and Ramdas Pophale) SiO2 
 PCOD9471586
Probable space group: C M C M
;
_chemical_formula_sum "Si O2"
_cell_formula_units_Z 80
_cell_length_a 23.235444
_cell_length_b 14.624875
_cell_length_c 10.905808
_cell_angle_alpha 90.000000
_cell_angle_beta 90.000000
_cell_angle_gamma 90.000000
_cell_volume 3705.962207
_symmetry_space_group_name_H-M "C M C M"
_symmetry_group_IT_number 63
_symmetry_cell_setting 'orthorhombic'
loop_
_space_group_symop_operation_xyz
x,y,z
-x,-y,1/2+z
x,-y,-z
-x,y,1/2-z
-x,-y,-z
x,y,1/2-z
-x,y,z
x,-y,1/2+z
1/2+x,1/2+y,z
1/2-x,1/2-y,1/2+z
1/2+x,1/2-y,-z
1/2-x,1/2+y,1/2-z
1/2-x,1/2-y,-z
1/2+x,1/2+y,1/2-z
1/2-x,1/2+y,z
1/2+x,1/2-y,1/2+z
loop_
_atom_site_type_symbol
_atom_site_label
_atom_site_fract_x
_atom_site_fract_y
_atom_site_fract_z
Si Si1 0.563580 0.188491 0.897735
Si Si2 0.833758 0.818660 0.514458
Si Si3 0.838111 0.438292 0.750000
Si Si4 0.600663 0.000000 0.500000
Si Si5 0.291366 0.591851 0.250000
Si Si6 0.405060 0.540594 0.750000
Si Si7 0.590887 0.500000 0.000000
Si Si8 0.664964 0.278097 0.250000
O O1 0.569518 0.180675 0.750000
O O2 0.500000 0.230550 0.921771
O O3 0.618009 0.244240 0.949404
O O4 0.565651 0.089847 0.961759
O O5 0.795041 0.843397 0.630721
O O6 0.805968 0.797148 0.382382
O O7 0.868843 0.911876 0.497798
O O8 0.863453 0.477607 0.623432
O O9 0.769905 0.456194 0.750000
O O10 0.849935 0.328918 0.750000
O O11 0.344407 0.518936 0.250000
O O12 0.438095 0.508272 0.629982
O O13 0.388120 0.648230 0.750000
#
# Coordination Sequence:
#
# PCOD9471586 Si02
#       8
#    16  16   8   8   8   8   8   8
#     4  11  23  42  70  97 124 171 220 274 336 381
#     4  10  19  39  62  92 131 162 214 265 312 396
#     4  12  26  41  63  90 129 174 219 268 331 378
#     4  12  25  47  62  92 136 168 221 283 314 386
#     4  10  22  39  60  91 126 171 211 254 320 387
#     4   8  16  32  51  77 113 156 201 239 288 371
#     4   8  16  29  57  82 114 158 186 243 307 358
#     4  10  20  36  59  88 125 163 209 259 321 370
#
# _framework density 21.586836000000002
#
# number of rings (size 3 to 8) (size 9 to 14) (size 15 to 20)
#    0.000    1.800    4.000    0.300    0.000    5.600 
#    3.600    2.000    0.000    0.000    0.000    0.000 
#    0.000    0.000    0.000    0.000    0.000    0.000 
#
# Total GULP energy -222924.837998 kJ/mol
# GULP energy per Si atom -5573.120950 kJ/mol
# Density = 2.153770 g / cm^3
# Si number density = 21.586836 Si / 1000 Ang^3
#
#
#
# Elastic Constant Matrix: (Units=GPa)
#
#
# Indices 1 2 3 4 5 6 
#
# 1 83.2604 12.1136 25.2179 0.0000 0.0000 0.0000
# 2 12.1136 91.5866 6.3794 0.0000 0.0000 0.0000
# 3 25.2179 6.3794 199.8987 0.0000 0.0000 0.0000
# 4 0.0000 0.0000 0.0000 37.5627 0.0000 0.0000
# 5 0.0000 0.0000 0.0000 0.0000 -14.2039 0.0000
# 6 0.0000 0.0000 0.0000 0.0000 0.0000 -166.3588
#
#
#
# Elastic Compliance Matrix: (Units=1/GPa)
#
#
# Indices 1 2 3 4 5 6 
#
# 1 0.012710 -0.001573 -0.001553 0.000000 0.000000 0.000000
# 2 -0.001573 0.011138 -0.000157 0.000000 0.000000 0.000000
# 3 -0.001553 -0.000157 0.005203 0.000000 0.000000 0.000000
# 4 0.000000 0.000000 0.000000 0.026622 0.000000 0.000000
# 5 0.000000 0.000000 0.000000 0.000000 -0.070403 0.000000
# 6 0.000000 0.000000 0.000000 0.000000 0.000000 -0.006011
#
#
# Mechanical properties :
#
#
# Convention : Reuss Voigt Hill
#
# Bulk Modulus (GPa) = 44.47461 51.35195 47.91328
# Shear Modulus (GPa) = -748.45249 -6.53100 -377.49174
#
# Velocity S-wave (km/s) = -18.64054 -1.74127 -13.23824
# Velocity P-wave (km/s) = 21.03915 4.44944 14.54043
#
# Compressibility (1/GPa) = 0.02248474
#
# Stress axis : x y z
#
# Youngs Moduli (GPa) = 78.67954 89.78596 192.17893
#
# Poissons Ratio (x) = 0.14122 0.29849
# Poissons Ratio (y) = 0.12375 0.03018
# Poissons Ratio (z) = 0.12220 0.01410
#
# Static dielectric constant tensor:
#      x y z
#    x 1.735090 0.000000 0.000000 
#    y 0.000000 1.761650 0.000000 
#    z 0.000000 0.000000 1.880000 
# 
# From -- ./inp_files/23755.got.cif
#   From: 2010.05.17/outbox.cif.g08.bks.cpg/sg63_12_cif.got.tgz:23755.got - 2010.06.03 15:47:04.
