data_PCOD9471850
_publ_section_title
;
Structure prediction by ZEFSAII (Michael W. Deem and Ramdas Pophale) SiO2 
 PCOD9471850
Probable space group: C M C M
;
_chemical_formula_sum "Si O2"
_cell_formula_units_Z 64
_cell_length_a 12.907018
_cell_length_b 23.089263
_cell_length_c 9.845161
_cell_angle_alpha 90.000000
_cell_angle_beta 90.000000
_cell_angle_gamma 90.000000
_cell_volume 2933.991214
_symmetry_space_group_name_H-M "C M C M"
_symmetry_group_IT_number 63
_symmetry_cell_setting 'orthorhombic'
loop_
_space_group_symop_operation_xyz
x,y,z
-x,-y,1/2+z
x,-y,-z
-x,y,1/2-z
-x,-y,-z
x,y,1/2-z
-x,y,z
x,-y,1/2+z
1/2+x,1/2+y,z
1/2-x,1/2-y,1/2+z
1/2+x,1/2-y,-z
1/2-x,1/2+y,1/2-z
1/2-x,1/2-y,-z
1/2+x,1/2+y,1/2-z
1/2-x,1/2+y,z
1/2+x,1/2-y,1/2+z
loop_
_atom_site_type_symbol
_atom_site_label
_atom_site_fract_x
_atom_site_fract_y
_atom_site_fract_z
Si Si1 0.654380 0.181220 0.400104
Si Si2 0.387420 0.299804 0.535847
Si Si3 0.619002 0.583374 0.597920
Si Si4 0.810209 0.446540 0.914101
O O1 0.612749 0.189890 0.250000
O O2 0.616409 0.232954 0.493560
O O3 0.779354 0.187995 0.391536
O O4 0.635045 0.115158 0.442952
O O5 0.500000 0.311486 0.600039
O O6 0.381454 0.346480 0.413397
O O7 0.653753 0.566446 0.750000
O O8 0.500000 0.564521 0.579473
O O9 0.695158 0.561815 0.479794
O O10 0.808752 0.454160 0.750000
O O11 0.855413 0.500000 0.000000
#
# Coordination Sequence:
#
# PCOD9471850 Si02
#       4
#    16  16  16  16
#     4   9  18  31  48  73 101 129 164 203 245 295
#     4   9  17  30  50  76 104 131 159 196 245 300
#     4   9  17  29  47  72  99 125 154 191 239 297
#     4  10  20  33  48  65  90 127 167 206 246 286
#
# _framework density 21.813289999999999
#
# number of rings (size 3 to 8) (size 9 to 14) (size 15 to 20)
#    0.000    2.750    0.000    1.500    0.000    3.000 
#    0.000    6.250    0.000    0.750    0.000    0.000 
#    0.000    0.000    0.000    0.000    0.000    0.750 
#
# Total GULP energy -178196.028595 kJ/mol
# GULP energy per Si atom -5568.625894 kJ/mol
# Density = 2.176364 g / cm^3
# Si number density = 21.813290 Si / 1000 Ang^3
#
#
#
# Elastic Constant Matrix: (Units=GPa)
#
#
# Indices 1 2 3 4 5 6 
#
# 1 88.8193 -8.6147 5.3771 0.0000 0.0000 0.0000
# 2 -8.6147 165.0335 41.4842 0.0000 0.0000 0.0000
# 3 5.3771 41.4842 94.6181 0.0000 0.0000 0.0000
# 4 0.0000 0.0000 0.0000 5.7954 0.0000 0.0000
# 5 0.0000 0.0000 0.0000 0.0000 -69.1283 0.0000
# 6 0.0000 0.0000 0.0000 0.0000 0.0000 13.3077
#
#
#
# Elastic Compliance Matrix: (Units=1/GPa)
#
#
# Indices 1 2 3 4 5 6 
#
# 1 0.011403 0.000852 -0.001022 0.000000 0.000000 0.000000
# 2 0.000852 0.006874 -0.003062 0.000000 0.000000 0.000000
# 3 -0.001022 -0.003062 0.011969 0.000000 0.000000 0.000000
# 4 0.000000 0.000000 0.000000 0.172550 0.000000 0.000000
# 5 0.000000 0.000000 0.000000 0.000000 -0.014466 0.000000
# 6 0.000000 0.000000 0.000000 0.000000 0.000000 0.075144
#
#
# Mechanical properties :
#
#
# Convention : Reuss Voigt Hill
#
# Bulk Modulus (GPa) = 42.04682 47.21822 44.63252
# Shear Modulus (GPa) = 17.99428 10.67658 14.33543
#
# Velocity S-wave (km/s) = 2.87526 2.21476 2.56635
# Velocity P-wave (km/s) = 5.50822 5.31354 5.41176
#
# Compressibility (1/GPa) = 0.02378301
#
# Stress axis : x y z
#
# Youngs Moduli (GPa) = 87.69387 145.48516 83.54649
#
# Poissons Ratio (x) = -0.12396 0.08535
# Poissons Ratio (y) = -0.07472 0.25582
# Poissons Ratio (z) = 0.08959 0.44548
#
# Static dielectric constant tensor:
#      x y z
#    x 1.807630 0.000000 0.000000 
#    y 0.000000 1.846150 0.000000 
#    z 0.000000 0.000000 1.779600 
# 
# From -- ./inp_files/19101.got.cif
#   From: 2010.05.17/outbox.cif.g08.bks.cpg/sg63_10_cif.got.tgz:19101.got - 2010.06.03 15:47:04.
