data_PCOD9471379
_publ_section_title
;
Structure prediction by ZEFSAII (Michael W. Deem and Ramdas Pophale) SiO2 
 PCOD9471379
Probable space group: C M C M
;
_chemical_formula_sum "Si O2"
_cell_formula_units_Z 64
_cell_length_a 14.806178
_cell_length_b 9.935783
_cell_length_c 19.511606
_cell_angle_alpha 90.000000
_cell_angle_beta 90.000000
_cell_angle_gamma 90.000000
_cell_volume 2870.371317
_symmetry_space_group_name_H-M "C M C M"
_symmetry_group_IT_number 63
_symmetry_cell_setting 'orthorhombic'
loop_
_space_group_symop_operation_xyz
x,y,z
-x,-y,1/2+z
x,-y,-z
-x,y,1/2-z
-x,-y,-z
x,y,1/2-z
-x,y,z
x,-y,1/2+z
1/2+x,1/2+y,z
1/2-x,1/2-y,1/2+z
1/2+x,1/2-y,-z
1/2-x,1/2+y,1/2-z
1/2-x,1/2-y,-z
1/2+x,1/2+y,1/2-z
1/2-x,1/2+y,z
1/2+x,1/2-y,1/2+z
loop_
_atom_site_type_symbol
_atom_site_label
_atom_site_fract_x
_atom_site_fract_y
_atom_site_fract_z
Si Si1 0.000000 0.095407 0.668346
Si Si2 0.500000 0.149365 0.828905
Si Si3 0.191700 0.035073 0.171716
Si Si4 0.500000 0.883940 0.599521
Si Si5 0.152282 0.500000 0.000000
Si Si6 0.304351 0.194001 0.887397
O O1 0.000000 0.232215 0.625161
O O2 0.000000 0.126322 0.750000
O O3 0.090334 0.011012 0.654194
O O4 0.500000 0.191966 0.750000
O O5 0.500000 0.987501 0.836867
O O6 0.410062 0.197108 0.867181
O O7 0.193165 0.085410 0.250000
O O8 0.226404 0.153328 0.122345
O O9 0.253042 0.903404 0.165139
O O10 0.586072 0.923554 0.553317
O O11 0.205431 0.385085 0.041342
#
# Coordination Sequence:
#
# PCOD9471379 Si02
#       6
#     8   8  16   8   8  16
#     4  10  23  42  66  95 131 166 213 273 329 376
#     4  10  19  35  64  92 121 164 209 256 328 376
#     4  11  24  42  65  96 130 164 214 271 329 383
#     4   9  19  39  64  94 123 167 212 267 304 379
#     4   9  22  42  64  89 134 170 218 255 318 393
#     4  11  24  42  65  93 131 173 211 267 320 385
#
# _framework density 22.296766000000002
#
# number of rings (size 3 to 8) (size 9 to 14) (size 15 to 20)
#    0.000    1.750    0.000    4.125    7.000    2.000 
#    0.000    1.250    0.000    0.000    0.000    0.000 
#    0.000    0.000    0.000    0.000    0.000    0.000 
#
# Total GULP energy -178976.950417 kJ/mol
# GULP energy per Si atom -5593.029701 kJ/mol
# Density = 2.224602 g / cm^3
# Si number density = 22.296766 Si / 1000 Ang^3
#
#
#
# Elastic Constant Matrix: (Units=GPa)
#
#
# Indices 1 2 3 4 5 6 
#
# 1 84.0036 27.6469 4.8870 0.0000 0.0000 0.0000
# 2 27.6469 167.0425 40.0126 0.0000 0.0000 0.0000
# 3 4.8870 40.0126 70.4335 0.0000 0.0000 0.0000
# 4 0.0000 0.0000 0.0000 34.9342 0.0000 0.0000
# 5 0.0000 0.0000 0.0000 0.0000 25.9965 0.0000
# 6 0.0000 0.0000 0.0000 0.0000 0.0000 20.8888
#
#
#
# Elastic Compliance Matrix: (Units=1/GPa)
#
#
# Indices 1 2 3 4 5 6 
#
# 1 0.012598 -0.002171 0.000359 0.000000 0.000000 0.000000
# 2 -0.002171 0.007304 -0.003998 0.000000 0.000000 0.000000
# 3 0.000359 -0.003998 0.016444 0.000000 0.000000 0.000000
# 4 0.000000 0.000000 0.000000 0.028625 0.000000 0.000000
# 5 0.000000 0.000000 0.000000 0.000000 0.038467 0.000000
# 6 0.000000 0.000000 0.000000 0.000000 0.000000 0.047872
#
#
# Mechanical properties :
#
#
# Convention : Reuss Voigt Hill
#
# Bulk Modulus (GPa) = 40.44446 51.84139 46.14292
# Shear Modulus (GPa) = 29.21029 32.95946 31.08488
#
# Velocity S-wave (km/s) = 3.62341 3.84893 3.73787
# Velocity P-wave (km/s) = 5.97361 6.56151 6.27445
#
# Compressibility (1/GPa) = 0.02472527
#
# Stress axis : x y z
#
# Youngs Moduli (GPa) = 79.37831 136.91863 60.81115
#
# Poissons Ratio (x) = 0.29727 -0.02185
# Poissons Ratio (y) = 0.17234 0.24315
# Poissons Ratio (z) = -0.02852 0.54746
#
# Static dielectric constant tensor:
#      x y z
#    x 1.811320 0.000000 0.000000 
#    y 0.000000 1.813260 0.000000 
#    z 0.000000 0.000000 1.834930 
# 
# From -- ./inp_files/55095.got.cif
#   From: 2010.05.17/outbox.cif.g08.bks.cpg/sg63_28_cif.got.tgz:55095.got - 2010.06.03 15:47:04.
