data_PCOD9471878
_publ_section_title
;
Structure prediction by ZEFSAII (Michael W. Deem and Ramdas Pophale) SiO2 
 PCOD9471878
Probable space group: C M C M
;
_chemical_formula_sum "Si O2"
_cell_formula_units_Z 88
_cell_length_a 32.110811
_cell_length_b 18.045911
_cell_length_c 7.809907
_cell_angle_alpha 90.000000
_cell_angle_beta 90.000000
_cell_angle_gamma 90.000000
_cell_volume 4525.597730
_symmetry_space_group_name_H-M "C M C M"
_symmetry_group_IT_number 63
_symmetry_cell_setting 'orthorhombic'
loop_
_space_group_symop_operation_xyz
x,y,z
-x,-y,1/2+z
x,-y,-z
-x,y,1/2-z
-x,-y,-z
x,y,1/2-z
-x,y,z
x,-y,1/2+z
1/2+x,1/2+y,z
1/2-x,1/2-y,1/2+z
1/2+x,1/2-y,-z
1/2-x,1/2+y,1/2-z
1/2-x,1/2-y,-z
1/2+x,1/2+y,1/2-z
1/2-x,1/2+y,z
1/2+x,1/2-y,1/2+z
loop_
_atom_site_type_symbol
_atom_site_label
_atom_site_fract_x
_atom_site_fract_y
_atom_site_fract_z
Si Si1 0.878902 0.310258 0.052710
Si Si2 0.546806 0.086690 0.543341
Si Si3 0.584704 0.655962 0.549381
Si Si4 0.202462 0.764768 0.543851
Si Si5 0.334875 0.580347 0.454091
Si Si6 0.000000 0.085931 0.543723
O O1 0.872876 0.333862 0.250000
O O2 0.913711 0.365806 0.977157
O O3 0.832633 0.293670 0.977964
O O4 0.899344 0.228693 0.046286
O O5 0.546329 0.094599 0.750000
O O6 0.500000 0.109412 0.482467
O O7 0.551819 0.000000 0.500000
O O8 0.580987 0.675228 0.750000
O O9 0.619263 0.592295 0.530473
O O10 0.541265 0.626397 0.480854
O O11 0.198519 0.763906 0.750000
O O12 0.250000 0.750000 0.500000
O O13 0.190509 0.847703 0.484395
O O14 0.317598 0.500000 0.500000
O O15 0.338149 0.584656 0.250000
O O16 0.000000 0.091150 0.750000
O O17 0.000000 0.000000 0.500000
#
# Coordination Sequence:
#
# PCOD9471878 Si02
#       6
#    16  16  16  16  16   8
#     4   9  19  35  53  76 103 133 172 215 258 308
#     4   9  18  33  53  77 105 138 175 214 262 315
#     4  10  20  33  49  72 101 134 171 210 250 296
#     4   9  19  35  54  76 104 133 167 213 260 309
#     4  10  20  35  54  77 102 131 169 212 255 305
#     4  10  22  34  44  66  99 132 167 204 243 286
#
# _framework density 19.444946000000002
#
# number of rings (size 3 to 8) (size 9 to 14) (size 15 to 20)
#    0.000    2.545    0.000    2.727    1.273    7.273 
#    0.000    0.909    0.000    4.364    0.000    0.000 
#    0.000    0.000    0.000    0.000    0.000    0.000 
#
# Total GULP energy -245236.191057 kJ/mol
# GULP energy per Si atom -5573.549797 kJ/mol
# Density = 1.940069 g / cm^3
# Si number density = 19.444946 Si / 1000 Ang^3
#
#
#
# Elastic Constant Matrix: (Units=GPa)
#
#
# Indices 1 2 3 4 5 6 
#
# 1 187.4069 69.5407 3.2451 0.0000 0.0000 0.0000
# 2 69.5407 76.8332 -4.6407 0.0000 0.0000 0.0000
# 3 3.2451 -4.6407 30.9917 0.0000 0.0000 0.0000
# 4 0.0000 0.0000 0.0000 24.4916 0.0000 0.0000
# 5 0.0000 0.0000 0.0000 0.0000 17.3300 0.0000
# 6 0.0000 0.0000 0.0000 0.0000 0.0000 21.2715
#
#
#
# Elastic Compliance Matrix: (Units=1/GPa)
#
#
# Indices 1 2 3 4 5 6 
#
# 1 0.008153 -0.007498 -0.001976 0.000000 0.000000 0.000000
# 2 -0.007498 0.020030 0.003784 0.000000 0.000000 0.000000
# 3 -0.001976 0.003784 0.033040 0.000000 0.000000 0.000000
# 4 0.000000 0.000000 0.000000 0.040830 0.000000 0.000000
# 5 0.000000 0.000000 0.000000 0.000000 0.057703 0.000000
# 6 0.000000 0.000000 0.000000 0.000000 0.000000 0.047011
#
#
# Mechanical properties :
#
#
# Convention : Reuss Voigt Hill
#
# Bulk Modulus (GPa) = 20.06303 47.94688 34.00496
# Shear Modulus (GPa) = 21.29811 27.75772 24.52792
#
# Velocity S-wave (km/s) = 3.31313 3.78233 3.55548
# Velocity P-wave (km/s) = 4.99760 6.61710 5.86353
#
# Compressibility (1/GPa) = 0.04984292
#
# Stress axis : x y z
#
# Youngs Moduli (GPa) = 122.66167 49.92459 30.26602
#
# Poissons Ratio (x) = 0.37434 0.05982
# Poissons Ratio (y) = 0.91973 -0.11454
# Poissons Ratio (z) = 0.24243 -0.18894
#
# Static dielectric constant tensor:
#      x y z
#    x 1.708970 0.000000 0.000000 
#    y 0.000000 1.663210 0.000000 
#    z 0.000000 0.000000 1.737100 
# 
# From -- ./inp_files/14243.got.cif
#   From: 2010.05.17/outbox.cif.g08.bks.cpg/sg63_8_cif.got.tgz:14243.got - 2010.06.03 15:47:04.
