data_PCOD9471736
_publ_section_title
;
Structure prediction by ZEFSAII (Michael W. Deem and Ramdas Pophale) SiO2 
 PCOD9471736
Probable space group: C M C M
;
_chemical_formula_sum "Si O2"
_cell_formula_units_Z 96
_cell_length_a 9.735959
_cell_length_b 28.539033
_cell_length_c 20.377183
_cell_angle_alpha 90.000000
_cell_angle_beta 90.000000
_cell_angle_gamma 90.000000
_cell_volume 5661.899232
_symmetry_space_group_name_H-M "C M C M"
_symmetry_group_IT_number 63
_symmetry_cell_setting 'orthorhombic'
loop_
_space_group_symop_operation_xyz
x,y,z
-x,-y,1/2+z
x,-y,-z
-x,y,1/2-z
-x,-y,-z
x,y,1/2-z
-x,y,z
x,-y,1/2+z
1/2+x,1/2+y,z
1/2-x,1/2-y,1/2+z
1/2+x,1/2-y,-z
1/2-x,1/2+y,1/2-z
1/2-x,1/2-y,-z
1/2+x,1/2+y,1/2-z
1/2-x,1/2+y,z
1/2+x,1/2-y,1/2+z
loop_
_atom_site_type_symbol
_atom_site_label
_atom_site_fract_x
_atom_site_fract_y
_atom_site_fract_z
Si Si1 0.163369 0.288836 0.539311
Si Si2 0.842911 0.558789 0.884725
Si Si3 0.157954 0.977625 0.926098
Si Si4 0.345269 0.155901 0.828018
Si Si5 0.343190 0.896795 0.529943
Si Si6 0.837601 0.243594 0.674114
O O1 0.250000 0.250000 0.500000
O O2 0.197725 0.342564 0.521879
O O3 0.186563 0.281663 0.617530
O O4 0.000000 0.281946 0.526737
O O5 0.743482 0.514629 0.883122
O O6 0.795026 0.603979 0.844397
O O7 0.000000 0.546862 0.865687
O O8 0.847322 0.578229 0.959139
O O9 0.238276 0.928462 0.929044
O O10 0.000000 0.972604 0.906109
O O11 0.157715 0.000000 0.000000
O O12 0.355476 0.159665 0.750000
O O13 0.500000 0.160730 0.856525
O O14 0.246298 0.197730 0.848177
O O15 0.500000 0.897802 0.556361
O O16 0.800350 0.255748 0.750000
O O17 0.000000 0.233110 0.674208
#
# Coordination Sequence:
#
# PCOD9471736 Si02
#       6
#    16  16  16  16  16  16
#     4  10  20  32  48  71  97 124 156 196 238 278
#     4   9  16  27  44  64  88 116 144 179 224 271
#     4   9  17  28  43  64  87 112 144 180 219 267
#     4   9  17  29  46  68  92 119 153 189 223 266
#     4   9  17  29  44  63  88 118 150 183 224 270
#     4   9  18  32  48  67  94 127 159 190 229 278
#
# _framework density 16.955442000000001
#
# number of rings (size 3 to 8) (size 9 to 14) (size 15 to 20)
#    0.000    2.833    0.000    1.500    0.000    5.333 
#    0.000    3.333    0.000    1.000    0.000    4.667 
#    0.000    0.000    0.000    0.000    0.000    0.000 
#
# Total GULP energy -267253.127007 kJ/mol
# GULP energy per Si atom -5567.773479 kJ/mol
# Density = 1.691685 g / cm^3
# Si number density = 16.955442 Si / 1000 Ang^3
#
#
#
# Elastic Constant Matrix: (Units=GPa)
#
#
# Indices 1 2 3 4 5 6 
#
# 1 61.9463 56.1741 12.9373 0.0000 0.0000 0.0000
# 2 56.1741 102.3172 8.7223 0.0000 0.0000 0.0000
# 3 12.9373 8.7223 23.0295 0.0000 0.0000 0.0000
# 4 0.0000 0.0000 0.0000 25.5202 0.0000 0.0000
# 5 0.0000 0.0000 0.0000 0.0000 13.1363 0.0000
# 6 0.0000 0.0000 0.0000 0.0000 0.0000 26.5207
#
#
#
# Elastic Compliance Matrix: (Units=1/GPa)
#
#
# Indices 1 2 3 4 5 6 
#
# 1 0.035554 -0.018412 -0.013000 0.000000 0.000000 0.000000
# 2 -0.018412 0.019634 0.002907 0.000000 0.000000 0.000000
# 3 -0.013000 0.002907 0.049624 0.000000 0.000000 0.000000
# 4 0.000000 0.000000 0.000000 0.039185 0.000000 0.000000
# 5 0.000000 0.000000 0.000000 0.000000 0.076125 0.000000
# 6 0.000000 0.000000 0.000000 0.000000 0.000000 0.037706
#
#
# Mechanical properties :
#
#
# Convention : Reuss Voigt Hill
#
# Bulk Modulus (GPa) = 20.91910 38.10670 29.51290
# Shear Modulus (GPa) = 15.11614 20.33272 17.72443
#
# Velocity S-wave (km/s) = 2.98907 3.46668 3.23670
# Velocity P-wave (km/s) = 4.92719 6.20864 5.60466
#
# Compressibility (1/GPa) = 0.04780320
#
# Stress axis : x y z
#
# Youngs Moduli (GPa) = 28.12627 50.93198 20.15134
#
# Poissons Ratio (x) = 0.93774 0.26196
# Poissons Ratio (y) = 0.51785 -0.05858
# Poissons Ratio (z) = 0.36564 -0.14805
#
# Static dielectric constant tensor:
#      x y z
#    x 1.587900 0.000000 0.000000 
#    y 0.000000 1.569580 0.000000 
#    z 0.000000 0.000000 1.604890 
# 
# From -- ./inp_files/51346.got.cif
#   From: 2010.05.17/outbox.cif.g08.bks.cpg/sg63_26_cif.got.tgz:51346.got - 2010.06.03 15:47:04.
