data_PCOD9471647
_publ_section_title
;
Structure prediction by ZEFSAII (Michael W. Deem and Ramdas Pophale) SiO2 
 PCOD9471647
Probable space group: C M C M
;
_chemical_formula_sum "Si O2"
_cell_formula_units_Z 96
_cell_length_a 15.909325
_cell_length_b 19.105394
_cell_length_c 14.518364
_cell_angle_alpha 90.000000
_cell_angle_beta 90.000000
_cell_angle_gamma 90.000000
_cell_volume 4412.913685
_symmetry_space_group_name_H-M "C M C M"
_symmetry_group_IT_number 63
_symmetry_cell_setting 'orthorhombic'
loop_
_space_group_symop_operation_xyz
x,y,z
-x,-y,1/2+z
x,-y,-z
-x,y,1/2-z
-x,-y,-z
x,y,1/2-z
-x,y,z
x,-y,1/2+z
1/2+x,1/2+y,z
1/2-x,1/2-y,1/2+z
1/2+x,1/2-y,-z
1/2-x,1/2+y,1/2-z
1/2-x,1/2-y,-z
1/2+x,1/2+y,1/2-z
1/2-x,1/2+y,z
1/2+x,1/2-y,1/2+z
loop_
_atom_site_type_symbol
_atom_site_label
_atom_site_fract_x
_atom_site_fract_y
_atom_site_fract_z
Si Si1 0.130781 0.976357 0.855525
Si Si2 0.179984 0.352524 0.972071
Si Si3 0.900036 0.365429 0.350305
Si Si4 0.372153 0.613557 0.977898
Si Si5 0.906632 0.754363 0.356410
Si Si6 0.334720 0.024010 0.148444
O O1 0.101789 0.974625 0.750000
O O2 0.233087 0.973848 0.853371
O O3 0.113009 0.048543 0.908781
O O4 0.099336 0.913873 0.921655
O O5 0.166394 0.297308 0.890808
O O6 0.138932 0.423716 0.931998
O O7 0.132736 0.324333 0.061908
O O8 0.273558 0.369761 0.004920
O O9 0.871448 0.339147 0.250000
O O10 0.865085 0.444573 0.360396
O O11 0.000000 0.367831 0.351143
O O12 0.406995 0.680539 0.925882
O O13 0.893690 0.775867 0.250000
O O14 0.000000 0.720604 0.361915
O O15 0.362656 0.048885 0.250000
#
# Coordination Sequence:
#
# PCOD9471647 Si02
#       6
#    16  16  16  16  16  16
#     4   9  17  33  59  90 116 138 178 237 295 348
#     4  11  20  35  56  82 108 149 193 237 281 336
#     4  10  20  31  46  74 111 150 188 227 278 337
#     4  10  20  36  61  88 112 146 189 240 293 347
#     4  11  25  42  58  80 115 158 201 245 293 346
#     4   9  17  30  50  78 111 142 179 227 279 334
#
# _framework density 21.754332999999999
#
# number of rings (size 3 to 8) (size 9 to 14) (size 15 to 20)
#    0.000    2.000    1.667    2.500    0.000    3.333 
#    0.000    4.167    0.000    2.500    0.000    0.000 
#    0.000    0.000    0.000    0.000    0.000    0.000 
#
# Total GULP energy -267847.030549 kJ/mol
# GULP energy per Si atom -5580.146470 kJ/mol
# Density = 2.170482 g / cm^3
# Si number density = 21.754333 Si / 1000 Ang^3
#
#
#
# Elastic Constant Matrix: (Units=GPa)
#
#
# Indices 1 2 3 4 5 6 
#
# 1 51.1688 -1.2630 29.9543 0.0000 0.0000 0.0000
# 2 -1.2630 35.9179 23.0821 0.0000 0.0000 0.0000
# 3 29.9543 23.0821 166.3694 0.0000 0.0000 0.0000
# 4 0.0000 0.0000 0.0000 28.5649 0.0000 0.0000
# 5 0.0000 0.0000 0.0000 0.0000 10.2688 0.0000
# 6 0.0000 0.0000 0.0000 0.0000 0.0000 2.1098
#
#
#
# Elastic Compliance Matrix: (Units=1/GPa)
#
#
# Indices 1 2 3 4 5 6 
#
# 1 0.022283 0.003691 -0.004524 0.000000 0.000000 0.000000
# 2 0.003691 0.031178 -0.004990 0.000000 0.000000 0.000000
# 3 -0.004524 -0.004990 0.007518 0.000000 0.000000 0.000000
# 4 0.000000 0.000000 0.000000 0.035008 0.000000 0.000000
# 5 0.000000 0.000000 0.000000 0.000000 0.097382 0.000000
# 6 0.000000 0.000000 0.000000 0.000000 0.000000 0.473985
#
#
# Mechanical properties :
#
#
# Convention : Reuss Voigt Hill
#
# Bulk Modulus (GPa) = 20.27106 39.66700 29.96903
# Shear Modulus (GPa) = 7.18966 21.63421 14.41193
#
# Velocity S-wave (km/s) = 1.81992 3.15696 2.57667
# Velocity P-wave (km/s) = 3.70871 5.61802 4.76008
#
# Compressibility (1/GPa) = 0.04933141
#
# Stress axis : x y z
#
# Youngs Moduli (GPa) = 44.87804 32.07402 133.02150
#
# Poissons Ratio (x) = -0.11838 0.60179
# Poissons Ratio (y) = -0.16564 0.66380
# Poissons Ratio (z) = 0.20303 0.16005
#
# Static dielectric constant tensor:
#      x y z
#    x 1.793310 0.000000 0.000000 
#    y 0.000000 1.794060 0.000000 
#    z 0.000000 0.000000 1.819220 
# 
# From -- ./inp_files/31964.got.cif
#   From: 2010.05.17/outbox.cif.g08.bks.cpg/sg63_16_cif.got.tgz:31964.got - 2010.06.03 15:47:04.
