data_PCOD9471361
_publ_section_title
;
Structure prediction by ZEFSAII (Michael W. Deem and Ramdas Pophale) SiO2 
 PCOD9471361
Probable space group: C M C M
;
_chemical_formula_sum "Si O2"
_cell_formula_units_Z 112
_cell_length_a 15.982962
_cell_length_b 14.210028
_cell_length_c 24.911757
_cell_angle_alpha 90.000000
_cell_angle_beta 90.000000
_cell_angle_gamma 90.000000
_cell_volume 5657.916835
_symmetry_space_group_name_H-M "C M C M"
_symmetry_group_IT_number 63
_symmetry_cell_setting 'orthorhombic'
loop_
_space_group_symop_operation_xyz
x,y,z
-x,-y,1/2+z
x,-y,-z
-x,y,1/2-z
-x,-y,-z
x,y,1/2-z
-x,y,z
x,-y,1/2+z
1/2+x,1/2+y,z
1/2-x,1/2-y,1/2+z
1/2+x,1/2-y,-z
1/2-x,1/2+y,1/2-z
1/2-x,1/2-y,-z
1/2+x,1/2+y,1/2-z
1/2-x,1/2+y,z
1/2+x,1/2-y,1/2+z
loop_
_atom_site_type_symbol
_atom_site_label
_atom_site_fract_x
_atom_site_fract_y
_atom_site_fract_z
Si Si1 0.589978 0.086678 0.084566
Si Si2 0.339318 0.887375 0.409596
Si Si3 0.749208 0.139743 0.013184
Si Si4 0.905287 0.176175 0.080040
Si Si5 0.347274 0.181346 0.188879
Si Si6 0.715220 0.386240 0.188058
Si Si7 0.841315 0.097162 0.189045
O O1 0.500000 0.112414 0.060574
O O2 0.669136 0.120851 0.050471
O O3 0.599546 0.131447 0.143347
O O4 0.598453 0.974559 0.088920
O O5 0.270190 0.907704 0.456133
O O6 0.382313 0.787292 0.420614
O O7 0.291372 0.883817 0.353291
O O8 0.835605 0.122686 0.044250
O O9 0.750000 0.250000 0.000000
O O10 0.893993 0.141558 0.141244
O O11 0.000000 0.161649 0.061732
O O12 0.375951 0.165283 0.250000
O O13 0.339932 0.293111 0.178899
O O14 0.252737 0.139921 0.184745
O O15 0.744564 0.381621 0.250000
O O16 0.667335 0.484789 0.181767
O O17 0.870820 0.116148 0.250000
#
# Coordination Sequence:
#
# PCOD9471361 Si02
#       7
#    16  16  16  16  16  16  16
#     4  12  24  39  62  93 125 160 203 252 316 376
#     4  11  21  37  61  92 124 158 197 253 314 370
#     4  10  22  40  60  84 121 161 202 247 302 364
#     4  11  22  39  62  91 125 161 205 256 306 359
#     4  10  19  36  60  88 123 163 205 246 297 361
#     4  10  19  35  64  91 118 161 208 249 303 365
#     4  10  19  35  61  89 121 164 206 250 303 359
#
# _framework density 19.795272000000001
#
# number of rings (size 3 to 8) (size 9 to 14) (size 15 to 20)
#    0.000    1.429    4.286    1.714    0.000    4.000 
#    0.000    0.714    0.000   12.000    0.000    0.000 
#    0.000    0.000    0.000    0.000    0.000    0.000 
#
# Total GULP energy -312744.195896 kJ/mol
# GULP energy per Si atom -5584.717784 kJ/mol
# Density = 1.975022 g / cm^3
# Si number density = 19.795272 Si / 1000 Ang^3
#
#
#
# Elastic Constant Matrix: (Units=GPa)
#
#
# Indices 1 2 3 4 5 6 
#
# 1 126.6430 30.1213 56.1840 0.0000 0.0000 0.0000
# 2 30.1213 106.0177 32.3808 0.0000 0.0000 0.0000
# 3 56.1840 32.3808 83.2683 0.0000 0.0000 0.0000
# 4 0.0000 0.0000 0.0000 19.1857 0.0000 0.0000
# 5 0.0000 0.0000 0.0000 0.0000 1.9253 0.0000
# 6 0.0000 0.0000 0.0000 0.0000 0.0000 -29.6806
#
#
#
# Elastic Compliance Matrix: (Units=1/GPa)
#
#
# Indices 1 2 3 4 5 6 
#
# 1 0.011363 -0.001006 -0.007276 0.000000 0.000000 0.000000
# 2 -0.001006 0.010793 -0.003518 0.000000 0.000000 0.000000
# 3 -0.007276 -0.003518 0.018287 0.000000 0.000000 0.000000
# 4 0.000000 0.000000 0.000000 0.052122 0.000000 0.000000
# 5 0.000000 0.000000 0.000000 0.000000 0.519404 0.000000
# 6 0.000000 0.000000 0.000000 0.000000 0.000000 -0.033692
#
#
# Mechanical properties :
#
#
# Convention : Reuss Voigt Hill
#
# Bulk Modulus (GPa) = 59.37391 61.47792 60.42592
# Shear Modulus (GPa) = 8.23056 11.43561 9.83308
#
# Velocity S-wave (km/s) = 2.04129 2.40613 2.23118
# Velocity P-wave (km/s) = 5.96782 6.23246 6.10158
#
# Compressibility (1/GPa) = 0.01684241
#
# Stress axis : x y z
#
# Youngs Moduli (GPa) = 88.00109 92.65444 54.68408
#
# Poissons Ratio (x) = 0.09323 0.39788
# Poissons Ratio (y) = 0.08855 0.19238
# Poissons Ratio (z) = 0.64030 0.32597
#
# Static dielectric constant tensor:
#      x y z
#    x 1.690050 0.000000 0.000000 
#    y 0.000000 1.710260 0.000000 
#    z 0.000000 0.000000 1.708140 
# 
# From -- ./inp_files/63007.got.cif
#   From: 2010.05.17/outbox.cif.g08.bks.cpg/sg63_32_cif.got.tgz:63007.got - 2010.06.03 15:47:04.
