data_PCOD9471097
_publ_section_title
;
Structure prediction by ZEFSAII (Michael W. Deem and Ramdas Pophale) SiO2 
 PCOD9471097
Probable space group: C M C M
;
_chemical_formula_sum "Si O2"
_cell_formula_units_Z 104
_cell_length_a 21.024151
_cell_length_b 14.805184
_cell_length_c 18.767497
_cell_angle_alpha 90.000000
_cell_angle_beta 90.000000
_cell_angle_gamma 90.000000
_cell_volume 5841.691679
_symmetry_space_group_name_H-M "C M C M"
_symmetry_group_IT_number 63
_symmetry_cell_setting 'orthorhombic'
loop_
_space_group_symop_operation_xyz
x,y,z
-x,-y,1/2+z
x,-y,-z
-x,y,1/2-z
-x,-y,-z
x,y,1/2-z
-x,y,z
x,-y,1/2+z
1/2+x,1/2+y,z
1/2-x,1/2-y,1/2+z
1/2+x,1/2-y,-z
1/2-x,1/2+y,1/2-z
1/2-x,1/2-y,-z
1/2+x,1/2+y,1/2-z
1/2-x,1/2+y,z
1/2+x,1/2-y,1/2+z
loop_
_atom_site_type_symbol
_atom_site_label
_atom_site_fract_x
_atom_site_fract_y
_atom_site_fract_z
Si Si1 0.883075 0.388841 0.832580
Si Si2 0.500000 0.274344 0.484614
Si Si3 0.117051 0.002283 0.671538
Si Si4 0.760551 0.854611 0.020757
Si Si5 0.619826 0.311260 0.387518
Si Si6 0.000000 0.577826 0.058851
Si Si7 0.759878 0.514342 0.386195
Si Si8 0.000000 0.942353 0.926481
O O1 0.904349 0.391863 0.750000
O O2 0.864659 0.285412 0.853173
O O3 0.938400 0.418435 0.888449
O O4 0.820077 0.449211 0.842933
O O5 0.559034 0.298319 0.435663
O O6 0.500000 0.167405 0.490209
O O7 0.500000 0.336938 0.553191
O O8 0.103366 0.966148 0.750000
O O9 0.109171 0.110559 0.669250
O O10 0.191566 0.986263 0.653210
O O11 0.064562 0.965387 0.616372
O O12 0.829118 0.850424 0.057076
O O13 0.724086 0.914810 0.080884
O O14 0.750000 0.750000 0.000000
O O15 0.751726 0.915469 0.951095
O O16 0.000000 0.500000 0.000000
O O17 0.000000 0.000000 0.000000
#
# Coordination Sequence:
#
# PCOD9471097 Si02
#       8
#    16   8  16  16  16   8  16   8
#     4  11  22  39  60  86 120 154 193 247 303 354
#     4  10  20  35  58  89 111 142 194 237 288 342
#     4  11  22  36  55  85 122 159 195 233 289 355
#     4  10  19  34  56  85 112 149 191 238 283 336
#     4  10  19  34  56  85 117 153 187 238 287 347
#     4  10  25  41  64  87 112 152 201 251 298 351
#     4  10  22  34  59  84 118 152 193 239 291 345
#     4  12  21  36  60  84 121 156 192 237 289 347
#
# _framework density 17.803062000000001
#
# number of rings (size 3 to 8) (size 9 to 14) (size 15 to 20)
#    0.000    1.538    3.077    2.308    4.308    0.000 
#    0.000    2.308    0.000    3.692    0.000    0.000 
#    0.000    0.000    0.000    0.000    0.000    0.000 
#
# Total GULP energy -289553.167888 kJ/mol
# GULP energy per Si atom -5568.330152 kJ/mol
# Density = 1.776254 g / cm^3
# Si number density = 17.803062 Si / 1000 Ang^3
#
#
#
# Elastic Constant Matrix: (Units=GPa)
#
#
# Indices 1 2 3 4 5 6 
#
# 1 78.3004 38.7159 31.4042 0.0000 0.0000 0.0000
# 2 38.7159 108.2326 31.6779 0.0000 0.0000 0.0000
# 3 31.4042 31.6779 93.1509 0.0000 0.0000 0.0000
# 4 0.0000 0.0000 0.0000 16.9490 0.0000 0.0000
# 5 0.0000 0.0000 0.0000 0.0000 17.7182 0.0000
# 6 0.0000 0.0000 0.0000 0.0000 0.0000 23.4729
#
#
#
# Elastic Compliance Matrix: (Units=1/GPa)
#
#
# Indices 1 2 3 4 5 6 
#
# 1 0.016765 -0.004823 -0.004012 0.000000 0.000000 0.000000
# 2 -0.004823 0.011648 -0.002335 0.000000 0.000000 0.000000
# 3 -0.004012 -0.002335 0.012882 0.000000 0.000000 0.000000
# 4 0.000000 0.000000 0.000000 0.059001 0.000000 0.000000
# 5 0.000000 0.000000 0.000000 0.000000 0.056439 0.000000
# 6 0.000000 0.000000 0.000000 0.000000 0.000000 0.042602
#
#
# Mechanical properties :
#
#
# Convention : Reuss Voigt Hill
#
# Bulk Modulus (GPa) = 52.75631 53.69778 53.22705
# Shear Modulus (GPa) = 21.93026 23.48707 22.70866
#
# Velocity S-wave (km/s) = 3.51354 3.63612 3.57536
# Velocity P-wave (km/s) = 6.79394 6.91781 6.85615
#
# Compressibility (1/GPa) = 0.01895508
#
# Stress axis : x y z
#
# Youngs Moduli (GPa) = 59.64789 85.85166 77.62786
#
# Poissons Ratio (x) = 0.41404 0.31144
# Poissons Ratio (y) = 0.28767 0.18128
# Poissons Ratio (z) = 0.23931 0.20048
#
# Static dielectric constant tensor:
#      x y z
#    x 1.555360 0.000000 0.000000 
#    y 0.000000 1.657540 0.000000 
#    z 0.000000 0.000000 1.614240 
# 
# From -- ./inp_files/47189.got.cif
#   From: 2010.05.17/outbox.cif.g08.bks.cpg/sg63_24_cif.got.tgz:47189.got - 2010.06.03 15:47:04.
