data_PCOD9471711
_publ_section_title
;
Structure prediction by ZEFSAII (Michael W. Deem and Ramdas Pophale) SiO2 
 PCOD9471711
Probable space group: C M C M
;
_chemical_formula_sum "Si O2"
_cell_formula_units_Z 80
_cell_length_a 19.067822
_cell_length_b 30.010872
_cell_length_c 10.077189
_cell_angle_alpha 90.000000
_cell_angle_beta 90.000000
_cell_angle_gamma 90.000000
_cell_volume 5766.590439
_symmetry_space_group_name_H-M "C M C M"
_symmetry_group_IT_number 63
_symmetry_cell_setting 'orthorhombic'
loop_
_space_group_symop_operation_xyz
x,y,z
-x,-y,1/2+z
x,-y,-z
-x,y,1/2-z
-x,-y,-z
x,y,1/2-z
-x,y,z
x,-y,1/2+z
1/2+x,1/2+y,z
1/2-x,1/2-y,1/2+z
1/2+x,1/2-y,-z
1/2-x,1/2+y,1/2-z
1/2-x,1/2-y,-z
1/2+x,1/2+y,1/2-z
1/2-x,1/2+y,z
1/2+x,1/2-y,1/2+z
loop_
_atom_site_type_symbol
_atom_site_label
_atom_site_fract_x
_atom_site_fract_y
_atom_site_fract_z
Si Si1 0.371154 0.391236 0.008233
Si Si2 0.656808 0.776524 0.098045
Si Si3 0.500000 0.755170 0.097945
Si Si4 0.000000 0.828842 0.409265
Si Si5 0.913941 0.950371 0.250000
Si Si6 0.583416 0.443965 0.750000
Si Si7 0.769006 0.818410 0.592366
O O1 0.387322 0.418907 0.877012
O O2 0.303458 0.360997 0.978954
O O3 0.432608 0.356514 0.044106
O O4 0.377218 0.426968 0.125481
O O5 0.676971 0.788880 0.250000
O O6 0.573209 0.781136 0.084626
O O7 0.678143 0.724229 0.083116
O O8 0.700308 0.803169 0.988198
O O9 0.500000 0.736329 0.250000
O O10 0.500000 0.717297 0.987273
O O11 0.000000 0.823866 0.250000
O O12 0.000000 0.942417 0.250000
O O13 0.903128 0.003260 0.250000
O O14 0.500000 0.438538 0.750000
O O15 0.757558 0.826199 0.750000
#
# Coordination Sequence:
#
# PCOD9471711 Si02
#       7
#    16  16   8   8   8   8  16
#     4  12  20  33  48  67  91 126 165 204 234 280
#     4   9  19  32  48  69  94 121 154 197 235 272
#     4  10  20  34  52  69  95 125 162 198 238 281
#     4  12  22  30  43  72  93 125 168 203 237 276
#     4  11  22  36  44  69  96 121 161 208 247 281
#     4  11  22  32  52  65  90 127 163 202 247 279
#     4  10  20  32  47  68  92 124 161 193 233 278
#
# _framework density 13.873016
#
# number of rings (size 3 to 8) (size 9 to 14) (size 15 to 20)
#    0.000    1.400    6.000    0.600    2.800    2.400 
#    0.000    0.000    0.000    0.000    0.000    0.000 
#    0.000    0.000    0.000    5.400    0.000    0.100 
#
# Total GULP energy -222961.170024 kJ/mol
# GULP energy per Si atom -5574.029251 kJ/mol
# Density = 1.384144 g / cm^3
# Si number density = 13.873016 Si / 1000 Ang^3
#
#
#
# Elastic Constant Matrix: (Units=GPa)
#
#
# Indices 1 2 3 4 5 6 
#
# 1 76.3419 32.2891 46.4149 0.0000 0.0000 0.0000
# 2 32.2891 68.9204 52.7884 0.0000 0.0000 0.0000
# 3 46.4149 52.7884 128.9408 0.0000 0.0000 0.0000
# 4 0.0000 0.0000 0.0000 32.3912 0.0000 0.0000
# 5 0.0000 0.0000 0.0000 0.0000 20.0499 0.0000
# 6 0.0000 0.0000 0.0000 0.0000 0.0000 22.0008
#
#
#
# Elastic Compliance Matrix: (Units=1/GPa)
#
#
# Indices 1 2 3 4 5 6 
#
# 1 0.017888 -0.005024 -0.004382 0.000000 0.000000 0.000000
# 2 -0.005024 0.022549 -0.007423 0.000000 0.000000 0.000000
# 3 -0.004382 -0.007423 0.012372 0.000000 0.000000 0.000000
# 4 0.000000 0.000000 0.000000 0.030873 0.000000 0.000000
# 5 0.000000 0.000000 0.000000 0.000000 0.049876 0.000000
# 6 0.000000 0.000000 0.000000 0.000000 0.000000 0.045453
#
#
# Mechanical properties :
#
#
# Convention : Reuss Voigt Hill
#
# Bulk Modulus (GPa) = 52.21863 59.68754 55.95309
# Shear Modulus (GPa) = 22.82557 24.40241 23.61399
#
# Velocity S-wave (km/s) = 4.06066 4.19857 4.13019
# Velocity P-wave (km/s) = 7.72706 8.16221 7.94761
#
# Compressibility (1/GPa) = 0.01915025
#
# Stress axis : x y z
#
# Youngs Moduli (GPa) = 55.90225 44.34840 80.82759
#
# Poissons Ratio (x) = 0.22281 0.35422
# Poissons Ratio (y) = 0.28085 0.59998
# Poissons Ratio (z) = 0.24499 0.32920
#
# Static dielectric constant tensor:
#      x y z
#    x 1.446390 0.000000 0.000000 
#    y 0.000000 1.437130 0.000000 
#    z 0.000000 0.000000 1.458230 
# 
# From -- ./inp_files/6755.got.cif
#   From: 2010.05.17/outbox.cif.g08.bks.cpg/sg63_4_cif.got.tgz:6755.got - 2010.06.03 15:47:04.
