data_PCOD9471969
_publ_section_title
;
Structure prediction by ZEFSAII (Michael W. Deem and Ramdas Pophale) SiO2 
 PCOD9471969
Probable space group: C M C M
;
_chemical_formula_sum "Si O2"
_cell_formula_units_Z 96
_cell_length_a 18.072634
_cell_length_b 9.493151
_cell_length_c 25.708072
_cell_angle_alpha 90.000000
_cell_angle_beta 90.000000
_cell_angle_gamma 90.000000
_cell_volume 4410.637341
_symmetry_space_group_name_H-M "C M C M"
_symmetry_group_IT_number 63
_symmetry_cell_setting 'orthorhombic'
loop_
_space_group_symop_operation_xyz
x,y,z
-x,-y,1/2+z
x,-y,-z
-x,y,1/2-z
-x,-y,-z
x,y,1/2-z
-x,y,z
x,-y,1/2+z
1/2+x,1/2+y,z
1/2-x,1/2-y,1/2+z
1/2+x,1/2-y,-z
1/2-x,1/2+y,1/2-z
1/2-x,1/2-y,-z
1/2+x,1/2+y,1/2-z
1/2-x,1/2+y,z
1/2+x,1/2-y,1/2+z
loop_
_atom_site_type_symbol
_atom_site_label
_atom_site_fract_x
_atom_site_fract_y
_atom_site_fract_z
Si Si1 0.841731 0.054846 0.055034
Si Si2 0.203624 0.805132 0.806996
Si Si3 0.082233 0.004967 0.656423
Si Si4 0.082344 0.313313 0.610458
Si Si5 0.770554 0.231044 0.917012
Si Si6 0.916670 0.441272 0.307456
O O1 0.904236 0.061518 0.098964
O O2 0.783103 0.934973 0.075171
O O3 0.796345 0.199239 0.051844
O O4 0.869374 0.000000 0.000000
O O5 0.239950 0.805307 0.750000
O O6 0.254180 0.777779 0.857102
O O7 0.144110 0.679049 0.809571
O O8 0.152313 0.944319 0.812595
O O9 0.085694 0.171795 0.645897
O O10 0.000000 0.971166 0.676685
O O11 0.149479 0.297830 0.570707
O O12 0.092665 0.446745 0.647278
O O13 0.000000 0.317286 0.587301
O O14 0.911679 0.508800 0.250000
O O15 0.000000 0.381841 0.311858
#
# Coordination Sequence:
#
# PCOD9471969 Si02
#       6
#    16  16  16  16  16  16
#     4  10  20  35  56  78 103 136 172 217 268 311
#     4  10  20  33  51  75 105 140 174 212 257 305
#     4   9  19  34  52  77 106 136 173 213 255 309
#     4   9  18  33  50  68  96 132 167 210 258 300
#     4  10  20  35  53  77 103 132 173 215 259 315
#     4   9  17  29  46  68  94 129 170 204 240 291
#
# _framework density 21.765561000000002
#
# number of rings (size 3 to 8) (size 9 to 14) (size 15 to 20)
#    0.000    2.500    0.000    2.000    0.000    2.667 
#    0.000   11.667    0.000    0.500    0.000    0.000 
#    0.000    0.000    0.000    0.000    0.000    0.000 
#
# Total GULP energy -267796.245786 kJ/mol
# GULP energy per Si atom -5579.088454 kJ/mol
# Density = 2.171602 g / cm^3
# Si number density = 21.765561 Si / 1000 Ang^3
#
#
#
# Elastic Constant Matrix: (Units=GPa)
#
#
# Indices 1 2 3 4 5 6 
#
# 1 63.2396 -0.4886 -5.3516 0.0000 0.0000 0.0000
# 2 -0.4886 26.1192 -18.8463 0.0000 0.0000 0.0000
# 3 -5.3516 -18.8463 62.0397 0.0000 0.0000 0.0000
# 4 0.0000 0.0000 0.0000 17.2502 0.0000 0.0000
# 5 0.0000 0.0000 0.0000 0.0000 7.0155 0.0000
# 6 0.0000 0.0000 0.0000 0.0000 0.0000 18.9143
#
#
#
# Elastic Compliance Matrix: (Units=1/GPa)
#
#
# Indices 1 2 3 4 5 6 
#
# 1 0.015985 0.001657 0.001882 0.000000 0.000000 0.000000
# 2 0.001657 0.049205 0.015090 0.000000 0.000000 0.000000
# 3 0.001882 0.015090 0.020865 0.000000 0.000000 0.000000
# 4 0.000000 0.000000 0.000000 0.057970 0.000000 0.000000
# 5 0.000000 0.000000 0.000000 0.000000 0.142542 0.000000
# 6 0.000000 0.000000 0.000000 0.000000 0.000000 0.052870
#
#
# Mechanical properties :
#
#
# Convention : Reuss Voigt Hill
#
# Bulk Modulus (GPa) = 8.10927 11.33617 9.72272
# Shear Modulus (GPa) = 14.56524 20.37498 17.47011
#
# Velocity S-wave (km/s) = 2.58967 3.06291 2.83618
# Velocity P-wave (km/s) = 3.56029 4.21049 3.89897
#
# Compressibility (1/GPa) = 0.12331560
#
# Stress axis : x y z
#
# Youngs Moduli (GPa) = 62.55877 20.32293 47.92662
#
# Poissons Ratio (x) = -0.03368 -0.09021
# Poissons Ratio (y) = -0.10367 -0.72324
# Poissons Ratio (z) = -0.11775 -0.30668
#
# Static dielectric constant tensor:
#      x y z
#    x 1.819020 0.000000 0.000000 
#    y 0.000000 1.791280 0.000000 
#    z 0.000000 0.000000 1.838410 
# 
# From -- ./inp_files/70298.got.cif
#   From: 2010.05.17/outbox.cif.g08.bks.cpg/sg63_36_cif.got.tgz:70298.got - 2010.06.03 15:47:04.
