data_PCOD9471054
_publ_section_title
;
Structure prediction by ZEFSAII (Michael W. Deem and Ramdas Pophale) SiO2 
 PCOD9471054
Probable space group: C M C M
;
_chemical_formula_sum "Si O2"
_cell_formula_units_Z 80
_cell_length_a 25.658762
_cell_length_b 10.146739
_cell_length_c 17.421396
_cell_angle_alpha 90.000000
_cell_angle_beta 90.000000
_cell_angle_gamma 90.000000
_cell_volume 4535.708550
_symmetry_space_group_name_H-M "C M C M"
_symmetry_group_IT_number 63
_symmetry_cell_setting 'orthorhombic'
loop_
_space_group_symop_operation_xyz
x,y,z
-x,-y,1/2+z
x,-y,-z
-x,y,1/2-z
-x,-y,-z
x,y,1/2-z
-x,y,z
x,-y,1/2+z
1/2+x,1/2+y,z
1/2-x,1/2-y,1/2+z
1/2+x,1/2-y,-z
1/2-x,1/2+y,1/2-z
1/2-x,1/2-y,-z
1/2+x,1/2+y,1/2-z
1/2-x,1/2+y,z
1/2+x,1/2-y,1/2+z
loop_
_atom_site_type_symbol
_atom_site_label
_atom_site_fract_x
_atom_site_fract_y
_atom_site_fract_z
Si Si1 0.386406 0.158628 0.493967
Si Si2 0.216417 0.733753 0.923336
Si Si3 0.719249 0.489057 0.159524
Si Si4 0.883773 0.821001 0.160200
Si Si5 0.500000 0.695495 0.836789
Si Si6 0.500000 0.844644 0.989104
O O1 0.342480 0.215299 0.548976
O O2 0.377965 0.210135 0.406259
O O3 0.444422 0.205037 0.518601
O O4 0.384030 0.000000 0.500000
O O5 0.238983 0.607113 0.879764
O O6 0.222585 0.865121 0.873903
O O7 0.250000 0.750000 0.000000
O O8 0.728165 0.491431 0.250000
O O9 0.661742 0.426554 0.145808
O O10 0.877825 0.776605 0.250000
O O11 0.943642 0.873777 0.153102
O O12 0.500000 0.746682 0.750000
O O13 0.500000 0.810946 0.898910
O O14 0.500000 0.000000 0.000000
#
# Coordination Sequence:
#
# PCOD9471054 Si02
#       6
#    16  16  16  16   8   8
#     4  10  19  34  55  85 113 151 189 231 283 332
#     4  12  23  38  59  83 113 147 189 231 283 338
#     4  11  24  41  58  82 112 147 186 235 283 337
#     4   9  18  33  55  80 112 145 186 230 276 331
#     4   8  14  28  51  79 105 143 183 223 272 329
#     4   8  16  30  51  77 115 145 184 232 274 329
#
# _framework density 17.637817999999999
#
# number of rings (size 3 to 8) (size 9 to 14) (size 15 to 20)
#    0.000    2.000    2.000    2.400    0.000    0.000 
#    0.000    2.000    0.000    4.800    0.000    0.000 
#    0.000    0.000    0.000    0.000    0.000    0.000 
#
# Total GULP energy -222795.751178 kJ/mol
# GULP energy per Si atom -5569.893779 kJ/mol
# Density = 1.759767 g / cm^3
# Si number density = 17.637818 Si / 1000 Ang^3
#
#
#
# Elastic Constant Matrix: (Units=GPa)
#
#
# Indices 1 2 3 4 5 6 
#
# 1 137.1617 25.9878 46.5897 0.0000 0.0000 0.0000
# 2 25.9878 46.4822 16.7413 0.0000 0.0000 0.0000
# 3 46.5897 16.7413 53.1056 0.0000 0.0000 0.0000
# 4 0.0000 0.0000 0.0000 31.8702 0.0000 0.0000
# 5 0.0000 0.0000 0.0000 0.0000 30.4167 0.0000
# 6 0.0000 0.0000 0.0000 0.0000 0.0000 22.1644
#
#
#
# Elastic Compliance Matrix: (Units=1/GPa)
#
#
# Indices 1 2 3 4 5 6 
#
# 1 0.010731 -0.002943 -0.008486 0.000000 0.000000 0.000000
# 2 -0.002943 0.025076 -0.005323 0.000000 0.000000 0.000000
# 3 -0.008486 -0.005323 0.027954 0.000000 0.000000 0.000000
# 4 0.000000 0.000000 0.000000 0.031377 0.000000 0.000000
# 5 0.000000 0.000000 0.000000 0.000000 0.032877 0.000000
# 6 0.000000 0.000000 0.000000 0.000000 0.000000 0.045117
#
#
# Mechanical properties :
#
#
# Convention : Reuss Voigt Hill
#
# Bulk Modulus (GPa) = 33.05192 46.15411 39.60301
# Shear Modulus (GPa) = 23.07095 26.71898 24.89497
#
# Velocity S-wave (km/s) = 3.62061 3.89635 3.76101
# Velocity P-wave (km/s) = 6.02149 6.81664 6.43136
#
# Compressibility (1/GPa) = 0.03025543
#
# Stress axis : x y z
#
# Youngs Moduli (GPa) = 93.18916 39.87836 35.77343
#
# Poissons Ratio (x) = 0.11736 0.30359
# Poissons Ratio (y) = 0.27426 0.19043
# Poissons Ratio (z) = 0.79084 0.21228
#
# Static dielectric constant tensor:
#      x y z
#    x 1.648450 0.000000 0.000000 
#    y 0.000000 1.551140 0.000000 
#    z 0.000000 0.000000 1.577590 
# 
# From -- ./inp_files/48840.got.cif
#   From: 2010.05.17/outbox.cif.g08.bks.cpg/sg63_25_cif.got.tgz:48840.got - 2010.06.03 15:47:04.
