data_PCOD9471214
_publ_section_title
;
Structure prediction by ZEFSAII (Michael W. Deem and Ramdas Pophale) SiO2 
 PCOD9471214
Probable space group: C M C M
;
_chemical_formula_sum "Si O2"
_cell_formula_units_Z 96
_cell_length_a 22.215032
_cell_length_b 8.930267
_cell_length_c 27.944848
_cell_angle_alpha 90.000000
_cell_angle_beta 90.000000
_cell_angle_gamma 90.000000
_cell_volume 5543.871287
_symmetry_space_group_name_H-M "C M C M"
_symmetry_group_IT_number 63
_symmetry_cell_setting 'orthorhombic'
loop_
_space_group_symop_operation_xyz
x,y,z
-x,-y,1/2+z
x,-y,-z
-x,y,1/2-z
-x,-y,-z
x,y,1/2-z
-x,y,z
x,-y,1/2+z
1/2+x,1/2+y,z
1/2-x,1/2-y,1/2+z
1/2+x,1/2-y,-z
1/2-x,1/2+y,1/2-z
1/2-x,1/2-y,-z
1/2+x,1/2+y,1/2-z
1/2-x,1/2+y,z
1/2+x,1/2-y,1/2+z
loop_
_atom_site_type_symbol
_atom_site_label
_atom_site_fract_x
_atom_site_fract_y
_atom_site_fract_z
Si Si1 0.570622 0.446294 0.053973
Si Si2 0.829622 0.299168 0.305272
Si Si3 0.932080 0.160598 0.142436
Si Si4 0.662852 0.282062 0.113973
Si Si5 0.930385 0.155132 0.805941
Si Si6 0.750622 0.543243 0.351782
O O1 0.500000 0.401557 0.060038
O O2 0.580418 0.583343 0.091272
O O3 0.617538 0.319579 0.070681
O O4 0.579419 0.500000 0.000000
O O5 0.846746 0.290462 0.250000
O O6 0.886332 0.284761 0.340256
O O7 0.792209 0.446551 0.316918
O O8 0.787796 0.159846 0.320741
O O9 0.000000 0.216133 0.142399
O O10 0.927478 0.020574 0.179437
O O11 0.618829 0.268467 0.160189
O O12 0.705698 0.426966 0.122440
O O13 0.706829 0.139816 0.112996
O O14 0.917679 0.174734 0.750000
O O15 0.000000 0.201342 0.815349
#
# Coordination Sequence:
#
# PCOD9471214 Si02
#       6
#    16  16  16  16  16  16
#     4   9  17  33  60  85 101 127 172 222 268 313
#     4  11  20  33  50  73 102 140 179 215 250 301
#     4   9  17  30  49  73 100 128 162 211 260 304
#     4  10  19  35  51  73 105 136 172 213 257 307
#     4   9  16  27  47  71  94 126 168 212 256 301
#     4  10  22  33  49  70 106 140 176 205 252 304
#
# _framework density 17.316420000000001
#
# number of rings (size 3 to 8) (size 9 to 14) (size 15 to 20)
#    0.000    2.333    3.333    2.500    0.000    4.333 
#    0.000    2.500    0.000    0.000    0.000    3.500 
#    0.000    0.000    0.000    0.000    0.000    0.000 
#
# Total GULP energy -267516.689295 kJ/mol
# GULP energy per Si atom -5573.264360 kJ/mol
# Density = 1.727701 g / cm^3
# Si number density = 17.316420 Si / 1000 Ang^3
#
#
#
# Elastic Constant Matrix: (Units=GPa)
#
#
# Indices 1 2 3 4 5 6 
#
# 1 97.2320 24.0835 40.0983 0.0000 0.0000 0.0000
# 2 24.0835 45.0411 12.8486 0.0000 0.0000 0.0000
# 3 40.0983 12.8486 48.8024 0.0000 0.0000 0.0000
# 4 0.0000 0.0000 0.0000 7.7306 0.0000 0.0000
# 5 0.0000 0.0000 0.0000 0.0000 19.1258 0.0000
# 6 0.0000 0.0000 0.0000 0.0000 0.0000 5.8932
#
#
#
# Elastic Compliance Matrix: (Units=1/GPa)
#
#
# Indices 1 2 3 4 5 6 
#
# 1 0.016696 -0.005421 -0.012291 0.000000 0.000000 0.000000
# 2 -0.005421 0.025765 -0.002329 0.000000 0.000000 0.000000
# 3 -0.012291 -0.002329 0.031203 0.000000 0.000000 0.000000
# 4 0.000000 0.000000 0.000000 0.129356 0.000000 0.000000
# 5 0.000000 0.000000 0.000000 0.000000 0.052285 0.000000
# 6 0.000000 0.000000 0.000000 0.000000 0.000000 0.169687
#
#
# Mechanical properties :
#
#
# Convention : Reuss Voigt Hill
#
# Bulk Modulus (GPa) = 29.77830 38.34847 34.06338
# Shear Modulus (GPa) = 10.49824 14.15293 12.32559
#
# Velocity S-wave (km/s) = 2.46490 2.86197 2.67083
# Velocity P-wave (km/s) = 5.03338 5.75456 5.40601
#
# Compressibility (1/GPa) = 0.03358150
#
# Stress axis : x y z
#
# Youngs Moduli (GPa) = 59.89328 38.81220 32.04820
#
# Poissons Ratio (x) = 0.21041 0.39391
# Poissons Ratio (y) = 0.32470 0.07464
# Poissons Ratio (z) = 0.73616 0.09039
#
# Static dielectric constant tensor:
#      x y z
#    x 1.629260 0.000000 0.000000 
#    y 0.000000 1.583640 0.000000 
#    z 0.000000 0.000000 1.563140 
# 
# From -- ./inp_files/70262.got.cif
#   From: 2010.05.17/outbox.cif.g08.bks.cpg/sg63_36_cif.got.tgz:70262.got - 2010.06.03 15:47:04.
