data_PCOD9471106
_publ_section_title
;
Structure prediction by ZEFSAII (Michael W. Deem and Ramdas Pophale) SiO2 
 PCOD9471106
Probable space group: C M C M
;
_chemical_formula_sum "Si O2"
_cell_formula_units_Z 96
_cell_length_a 14.616699
_cell_length_b 20.014672
_cell_length_c 14.659394
_cell_angle_alpha 90.000000
_cell_angle_beta 90.000000
_cell_angle_gamma 90.000000
_cell_volume 4288.582790
_symmetry_space_group_name_H-M "C M C M"
_symmetry_group_IT_number 63
_symmetry_cell_setting 'orthorhombic'
loop_
_space_group_symop_operation_xyz
x,y,z
-x,-y,1/2+z
x,-y,-z
-x,y,1/2-z
-x,-y,-z
x,y,1/2-z
-x,y,z
x,-y,1/2+z
1/2+x,1/2+y,z
1/2-x,1/2-y,1/2+z
1/2+x,1/2-y,-z
1/2-x,1/2+y,1/2-z
1/2-x,1/2-y,-z
1/2+x,1/2+y,1/2-z
1/2-x,1/2+y,z
1/2+x,1/2-y,1/2+z
loop_
_atom_site_type_symbol
_atom_site_label
_atom_site_fract_x
_atom_site_fract_y
_atom_site_fract_z
Si Si1 0.101891 0.491583 0.391805
Si Si2 0.711730 0.671366 0.642888
Si Si3 0.103225 0.079001 0.516700
Si Si4 0.224965 0.912884 0.846226
Si Si5 0.872635 0.690777 0.146706
Si Si6 0.099418 0.661134 0.562020
O O1 0.100408 0.500000 0.500000
O O2 0.190252 0.533878 0.359810
O O3 0.107798 0.411148 0.387008
O O4 0.000000 0.512443 0.356627
O O5 0.729451 0.662224 0.750000
O O6 0.668786 0.605478 0.596714
O O7 0.637200 0.730363 0.632590
O O8 0.804761 0.693130 0.591283
O O9 0.152335 0.098368 0.424052
O O10 0.000000 0.103361 0.529769
O O11 0.100686 0.000000 0.500000
O O12 0.181133 0.930936 0.750000
O O13 0.274231 0.842039 0.843295
O O14 0.910893 0.678791 0.250000
O O15 0.904313 0.658923 0.049614
O O16 0.000000 0.689670 0.589265
#
# Coordination Sequence:
#
# PCOD9471106 Si02
#       6
#    16  16  16  16  16  16
#     4  10  19  34  56  88 128 167 206 247 303 375
#     4  11  24  45  68  92 130 172 214 264 320 386
#     4  11  25  44  66  93 122 160 219 279 329 379
#     4  11  22  39  64  93 130 170 210 263 323 380
#     4  10  22  40  64  94 129 170 215 257 309 380
#     4  11  22  37  64  97 131 169 209 258 316 379
#
# _framework density 22.385017999999999
#
# number of rings (size 3 to 8) (size 9 to 14) (size 15 to 20)
#    0.000    1.333    3.333    2.000    0.000    5.000 
#    0.000    6.667    0.000    3.000    0.000    0.000 
#    0.000    0.000    0.000    0.000    0.000    0.000 
#
# Total GULP energy -267219.304032 kJ/mol
# GULP energy per Si atom -5567.068834 kJ/mol
# Density = 2.233407 g / cm^3
# Si number density = 22.385018 Si / 1000 Ang^3
#
#
#
# Elastic Constant Matrix: (Units=GPa)
#
#
# Indices 1 2 3 4 5 6 
#
# 1 109.3604 4.8348 41.3420 0.0000 0.0000 0.0000
# 2 4.8348 56.9579 8.9802 0.0000 0.0000 0.0000
# 3 41.3420 8.9802 122.4693 0.0000 0.0000 0.0000
# 4 0.0000 0.0000 0.0000 -5.5917 0.0000 0.0000
# 5 0.0000 0.0000 0.0000 0.0000 46.0982 0.0000
# 6 0.0000 0.0000 0.0000 0.0000 0.0000 -62.7156
#
#
#
# Elastic Compliance Matrix: (Units=1/GPa)
#
#
# Indices 1 2 3 4 5 6 
#
# 1 0.010488 -0.000336 -0.003516 0.000000 0.000000 0.000000
# 2 -0.000336 0.017773 -0.001190 0.000000 0.000000 0.000000
# 3 -0.003516 -0.001190 0.009439 0.000000 0.000000 0.000000
# 4 0.000000 0.000000 0.000000 -0.178836 0.000000 0.000000
# 5 0.000000 0.000000 0.000000 0.000000 0.021693 0.000000
# 6 0.000000 0.000000 0.000000 0.000000 0.000000 -0.015945
#
#
# Mechanical properties :
#
#
# Convention : Reuss Voigt Hill
#
# Bulk Modulus (GPa) = 36.20929 44.34460 40.27695
# Shear Modulus (GPa) = -43.06670 11.13356 -15.96657
#
# Velocity S-wave (km/s) = -4.39100 2.23259 -2.67361
# Velocity P-wave (km/s) = 3.08172 5.14771 2.91564
#
# Compressibility (1/GPa) = 0.02761722
#
# Stress axis : x y z
#
# Youngs Moduli (GPa) = 95.34685 56.26529 105.93905
#
# Poissons Ratio (x) = 0.01890 0.37246
# Poissons Ratio (y) = 0.03203 0.12605
# Poissons Ratio (z) = 0.33522 0.06695
#
# Static dielectric constant tensor:
#      x y z
#    x 1.895260 0.000000 0.000000 
#    y 0.000000 1.952680 0.000000 
#    z 0.000000 0.000000 1.856060 
# 
# From -- ./inp_files/31947.got.cif
#   From: 2010.05.17/outbox.cif.g08.bks.cpg/sg63_16_cif.got.tgz:31947.got - 2010.06.03 15:47:04.
