data_PCOD9471366
_publ_section_title
;
Structure prediction by ZEFSAII (Michael W. Deem and Ramdas Pophale) SiO2 
 PCOD9471366
Probable space group: C M C M
;
_chemical_formula_sum "Si O2"
_cell_formula_units_Z 88
_cell_length_a 16.777679
_cell_length_b 10.408097
_cell_length_c 20.701865
_cell_angle_alpha 90.000000
_cell_angle_beta 90.000000
_cell_angle_gamma 90.000000
_cell_volume 3615.036480
_symmetry_space_group_name_H-M "C M C M"
_symmetry_group_IT_number 63
_symmetry_cell_setting 'orthorhombic'
loop_
_space_group_symop_operation_xyz
x,y,z
-x,-y,1/2+z
x,-y,-z
-x,y,1/2-z
-x,-y,-z
x,y,1/2-z
-x,y,z
x,-y,1/2+z
1/2+x,1/2+y,z
1/2-x,1/2-y,1/2+z
1/2+x,1/2-y,-z
1/2-x,1/2+y,1/2-z
1/2-x,1/2-y,-z
1/2+x,1/2+y,1/2-z
1/2-x,1/2+y,z
1/2+x,1/2-y,1/2+z
loop_
_atom_site_type_symbol
_atom_site_label
_atom_site_fract_x
_atom_site_fract_y
_atom_site_fract_z
Si Si1 0.409778 0.744121 0.397109
Si Si2 0.105010 0.953210 0.250000
Si Si3 0.623180 0.555922 0.889693
Si Si4 0.810158 0.722399 0.250000
Si Si5 0.406267 0.828305 0.881687
Si Si6 0.626281 0.737051 0.250000
Si Si7 0.705455 0.952249 0.432925
O O1 0.500000 0.781190 0.414933
O O2 0.402477 0.589233 0.406324
O O3 0.395499 0.788664 0.321167
O O4 0.338637 0.815907 0.433680
O O5 0.080554 0.915195 0.178684
O O6 0.189346 0.878770 0.250000
O O7 0.085542 0.100105 0.250000
O O8 0.605100 0.693804 0.921937
O O9 0.719160 0.548987 0.885422
O O10 0.857156 0.677439 0.186360
O O11 0.718155 0.691991 0.250000
O O12 0.500000 0.850896 0.871911
O O13 0.363059 0.945198 0.917269
O O14 0.742329 0.000000 0.500000
#
# Coordination Sequence:
#
# PCOD9471366 Si02
#       7
#    16   8  16   8  16   8  16
#     4  11  23  40  65  97 130 162 201 255 316 372
#     4   8  16  32  57  90 123 148 182 242 308 354
#     4  10  21  41  68  95 122 161 209 252 302 379
#     4  10  19  35  61  94 129 163 200 242 300 376
#     4  11  23  40  65  97 130 162 201 255 316 372
#     4  10  19  35  61  94 129 163 200 242 300 376
#     4  12  27  45  62  85 123 171 217 263 315 363
#
# _framework density 24.342769000000001
#
# number of rings (size 3 to 8) (size 9 to 14) (size 15 to 20)
#    0.000    1.455    0.000    7.091    0.000    5.091 
#    0.000    7.273    0.000    3.273    0.000    0.000 
#    0.000    0.000    0.000    0.000    0.000    0.000 
#
# Total GULP energy -244963.630719 kJ/mol
# GULP energy per Si atom -5567.355244 kJ/mol
# Density = 2.428736 g / cm^3
# Si number density = 24.342769 Si / 1000 Ang^3
#
#
#
# Elastic Constant Matrix: (Units=GPa)
#
#
# Indices 1 2 3 4 5 6 
#
# 1 190.5666 19.7669 10.3527 0.0000 0.0000 0.0000
# 2 19.7669 81.7888 5.3821 0.0000 0.0000 0.0000
# 3 10.3527 5.3821 46.9504 0.0000 0.0000 0.0000
# 4 0.0000 0.0000 0.0000 22.4531 0.0000 0.0000
# 5 0.0000 0.0000 0.0000 0.0000 -2.5407 0.0000
# 6 0.0000 0.0000 0.0000 0.0000 0.0000 23.9554
#
#
#
# Elastic Compliance Matrix: (Units=1/GPa)
#
#
# Indices 1 2 3 4 5 6 
#
# 1 0.005434 -0.001244 -0.001056 0.000000 0.000000 0.000000
# 2 -0.001244 0.012604 -0.001171 0.000000 0.000000 0.000000
# 3 -0.001056 -0.001171 0.021666 0.000000 0.000000 0.000000
# 4 0.000000 0.000000 0.000000 0.044537 0.000000 0.000000
# 5 0.000000 0.000000 0.000000 0.000000 -0.393587 0.000000
# 6 0.000000 0.000000 0.000000 0.000000 0.000000 0.041744
#
#
# Mechanical properties :
#
#
# Convention : Reuss Voigt Hill
#
# Bulk Modulus (GPa) = 30.52122 43.36770 36.94446
# Shear Modulus (GPa) = -20.02080 27.69382 3.83651
#
# Velocity S-wave (km/s) = -2.87096 3.37658 1.25676
# Velocity P-wave (km/s) = 1.25518 5.74942 4.16121
#
# Compressibility (1/GPa) = 0.03276409
#
# Stress axis : x y z
#
# Youngs Moduli (GPa) = 184.03081 79.33834 46.15523
#
# Poissons Ratio (x) = 0.09868 0.04872
# Poissons Ratio (y) = 0.22890 0.05403
# Poissons Ratio (z) = 0.19426 0.09287
#
# Static dielectric constant tensor:
#      x y z
#    x 1.869440 0.000000 0.000000 
#    y 0.000000 1.970450 0.000000 
#    z 0.000000 0.000000 2.140260 
# 
# From -- ./inp_files/62718.got.cif
#   From: 2010.05.17/outbox.cif.g08.bks.cpg/sg63_32_cif.got.tgz:62718.got - 2010.06.03 15:47:04.
