data_PCOD9471974
_publ_section_title
;
Structure prediction by ZEFSAII (Michael W. Deem and Ramdas Pophale) SiO2 
 PCOD9471974
Probable space group: C M C M
;
_chemical_formula_sum "Si O2"
_cell_formula_units_Z 72
_cell_length_a 13.888191
_cell_length_b 29.265140
_cell_length_c 7.439115
_cell_angle_alpha 90.000000
_cell_angle_beta 90.000000
_cell_angle_gamma 90.000000
_cell_volume 3023.552814
_symmetry_space_group_name_H-M "C M C M"
_symmetry_group_IT_number 63
_symmetry_cell_setting 'orthorhombic'
loop_
_space_group_symop_operation_xyz
x,y,z
-x,-y,1/2+z
x,-y,-z
-x,y,1/2-z
-x,-y,-z
x,y,1/2-z
-x,y,z
x,-y,1/2+z
1/2+x,1/2+y,z
1/2-x,1/2-y,1/2+z
1/2+x,1/2-y,-z
1/2-x,1/2+y,1/2-z
1/2-x,1/2-y,-z
1/2+x,1/2+y,1/2-z
1/2-x,1/2+y,z
1/2+x,1/2-y,1/2+z
loop_
_atom_site_type_symbol
_atom_site_label
_atom_site_fract_x
_atom_site_fract_y
_atom_site_fract_z
Si Si1 0.102735 0.403994 0.038945
Si Si2 0.679852 0.192719 0.466364
Si Si3 0.392042 0.294056 0.541082
Si Si4 0.703964 0.446004 0.034703
Si Si5 0.500000 0.445175 0.034861
O O1 0.101294 0.416145 0.250000
O O2 0.199077 0.425120 0.958275
O O3 0.000000 0.418174 0.961292
O O4 0.116445 0.349917 0.022975
O O5 0.683504 0.195322 0.250000
O O6 0.632457 0.239844 0.531098
O O7 0.790761 0.185989 0.533663
O O8 0.396314 0.307291 0.750000
O O9 0.500000 0.302764 0.464857
O O10 0.703303 0.438829 0.250000
O O11 0.601745 0.427129 0.964606
O O12 0.705407 0.500000 0.000000
O O13 0.500000 0.439172 0.250000
O O14 0.500000 0.500000 0.000000
#
# Coordination Sequence:
#
# PCOD9471974 Si02
#       5
#    16  16  16  16   8
#     4  10  21  36  51  70 102 140 171 202 250 306
#     4  10  20  33  51  76 102 129 169 213 248 291
#     4   9  18  34  54  73  99 134 166 202 254 307
#     4   9  18  33  53  75  99 129 166 206 250 298
#     4   8  14  28  50  72  94 120 156 200 244 292
#
# _framework density 23.813044999999999
#
# number of rings (size 3 to 8) (size 9 to 14) (size 15 to 20)
#    0.000    2.667    0.000    1.333    0.000    5.778 
#    2.000    0.000    0.000    0.000    0.000    0.000 
#    0.000    0.000    0.000    0.000    0.000    0.000 
#
# Total GULP energy -200912.705107 kJ/mol
# GULP energy per Si atom -5580.908475 kJ/mol
# Density = 2.375885 g / cm^3
# Si number density = 23.813045 Si / 1000 Ang^3
#
#
#
# Elastic Constant Matrix: (Units=GPa)
#
#
# Indices 1 2 3 4 5 6 
#
# 1 262.6200 31.3938 17.4272 0.0000 0.0000 0.0000
# 2 31.3938 12.7037 -11.7046 0.0000 0.0000 0.0000
# 3 17.4272 -11.7046 89.6974 0.0000 0.0000 0.0000
# 4 0.0000 0.0000 0.0000 12.0029 0.0000 0.0000
# 5 0.0000 0.0000 0.0000 0.0000 38.4746 0.0000
# 6 0.0000 0.0000 0.0000 0.0000 0.0000 -606.8776
#
#
#
# Elastic Compliance Matrix: (Units=1/GPa)
#
#
# Indices 1 2 3 4 5 6 
#
# 1 0.006337 -0.019089 -0.003722 0.000000 0.000000 0.000000
# 2 -0.019089 0.146977 0.022888 0.000000 0.000000 0.000000
# 3 -0.003722 0.022888 0.014858 0.000000 0.000000 0.000000
# 4 0.000000 0.000000 0.000000 0.083313 0.000000 0.000000
# 5 0.000000 0.000000 0.000000 0.000000 0.025991 0.000000
# 6 0.000000 0.000000 0.000000 0.000000 0.000000 -0.001648
#
#
# Mechanical properties :
#
#
# Convention : Reuss Voigt Hill
#
# Bulk Modulus (GPa) = 5.94084 48.80600 27.37342
# Shear Modulus (GPa) = 15.07010 -89.41969 -37.17479
#
# Velocity S-wave (km/s) = 2.51838 -6.13451 -3.95538
# Velocity P-wave (km/s) = 3.31006 5.44393 3.05613
#
# Compressibility (1/GPa) = 0.16832636
#
# Stress axis : x y z
#
# Youngs Moduli (GPa) = 157.81247 6.80378 67.30221
#
# Poissons Ratio (x) = 0.12987 0.25050
# Poissons Ratio (y) = 3.01241 -1.54039
# Poissons Ratio (z) = 0.58738 -0.15572
#
# Static dielectric constant tensor:
#      x y z
#    x 1.994160 0.000000 0.000000 
#    y 0.000000 1.854290 0.000000 
#    z 0.000000 0.000000 1.879830 
# 
# From -- ./inp_files/4903.got.cif
#   From: 2010.05.17/outbox.cif.g08.bks.cpg/sg63_3_cif.got.tgz:4903.got - 2010.06.03 15:47:04.
