data_PCOD9471279
_publ_section_title
;
Structure prediction by ZEFSAII (Michael W. Deem and Ramdas Pophale) SiO2 
 PCOD9471279
Probable space group: C M C M
;
_chemical_formula_sum "Si O2"
_cell_formula_units_Z 96
_cell_length_a 28.847712
_cell_length_b 20.752255
_cell_length_c 8.951815
_cell_angle_alpha 90.000000
_cell_angle_beta 90.000000
_cell_angle_gamma 90.000000
_cell_volume 5359.049485
_symmetry_space_group_name_H-M "C M C M"
_symmetry_group_IT_number 63
_symmetry_cell_setting 'orthorhombic'
loop_
_space_group_symop_operation_xyz
x,y,z
-x,-y,1/2+z
x,-y,-z
-x,y,1/2-z
-x,-y,-z
x,y,1/2-z
-x,y,z
x,-y,1/2+z
1/2+x,1/2+y,z
1/2-x,1/2-y,1/2+z
1/2+x,1/2-y,-z
1/2-x,1/2+y,1/2-z
1/2-x,1/2-y,-z
1/2+x,1/2+y,1/2-z
1/2-x,1/2+y,z
1/2+x,1/2-y,1/2+z
loop_
_atom_site_type_symbol
_atom_site_label
_atom_site_fract_x
_atom_site_fract_y
_atom_site_fract_z
Si Si1 0.444889 0.937687 0.417161
Si Si2 0.718968 0.654893 0.070721
Si Si3 0.806445 0.300414 0.426818
Si Si4 0.084692 0.699227 0.570961
Si Si5 0.554263 0.333931 0.071066
Si Si6 0.630339 0.429079 0.930691
O O1 0.425034 0.935252 0.250000
O O2 0.500000 0.946673 0.405907
O O3 0.437733 0.867159 0.484638
O O4 0.425540 0.000000 0.500000
O O5 0.721091 0.653668 0.250000
O O6 0.702427 0.726530 0.023066
O O7 0.679639 0.603938 0.025779
O O8 0.770722 0.651450 0.005992
O O9 0.797203 0.303266 0.250000
O O10 0.860562 0.310906 0.450593
O O11 0.075673 0.707375 0.750000
O O12 0.066836 0.762687 0.488701
O O13 0.560566 0.336792 0.250000
O O14 0.500000 0.347314 0.038215
O O15 0.589037 0.383992 0.992142
O O16 0.628069 0.431279 0.750000
O O17 0.626926 0.500000 0.000000
#
# Coordination Sequence:
#
# PCOD9471279 Si02
#       6
#    16  16  16  16  16  16
#     4   9  18  32  51  74 103 142 183 222 269 324
#     4   9  18  34  54  80 109 140 178 220 268 325
#     4   9  17  31  54  82 110 139 176 221 270 324
#     4  10  19  35  57  83 112 147 188 232 281 333
#     4  11  24  39  57  85 116 147 189 239 290 344
#     4  11  23  41  62  84 113 151 194 238 288 344
#
# _framework density 17.913626000000001
#
# number of rings (size 3 to 8) (size 9 to 14) (size 15 to 20)
#    0.000    2.167    1.667    1.500    0.000    5.000 
#    0.000    2.500    0.000    4.000    0.000    0.000 
#    0.000    0.000    0.000    0.000    0.000    0.000 
#
# Total GULP energy -267551.773746 kJ/mol
# GULP energy per Si atom -5573.995286 kJ/mol
# Density = 1.787285 g / cm^3
# Si number density = 17.913626 Si / 1000 Ang^3
#
#
#
# Elastic Constant Matrix: (Units=GPa)
#
#
# Indices 1 2 3 4 5 6 
#
# 1 60.3958 41.5458 31.3748 0.0000 0.0000 0.0000
# 2 41.5458 138.0046 45.8267 0.0000 0.0000 0.0000
# 3 31.3748 45.8267 44.4211 0.0000 0.0000 0.0000
# 4 0.0000 0.0000 0.0000 29.9161 0.0000 0.0000
# 5 0.0000 0.0000 0.0000 0.0000 24.8079 0.0000
# 6 0.0000 0.0000 0.0000 0.0000 0.0000 16.7699
#
#
#
# Elastic Compliance Matrix: (Units=1/GPa)
#
#
# Indices 1 2 3 4 5 6 
#
# 1 0.026805 -0.002712 -0.016135 0.000000 0.000000 0.000000
# 2 -0.002712 0.011296 -0.009739 0.000000 0.000000 0.000000
# 3 -0.016135 -0.009739 0.043955 0.000000 0.000000 0.000000
# 4 0.000000 0.000000 0.000000 0.033427 0.000000 0.000000
# 5 0.000000 0.000000 0.000000 0.000000 0.040310 0.000000
# 6 0.000000 0.000000 0.000000 0.000000 0.000000 0.059631
#
#
# Mechanical properties :
#
#
# Convention : Reuss Voigt Hill
#
# Bulk Modulus (GPa) = 40.18386 53.36846 46.77616
# Shear Modulus (GPa) = 17.80072 22.57039 20.18555
#
# Velocity S-wave (km/s) = 3.15572 3.55344 3.36047
# Velocity P-wave (km/s) = 5.97986 6.83320 6.42073
#
# Compressibility (1/GPa) = 0.02488562
#
# Stress axis : x y z
#
# Youngs Moduli (GPa) = 37.30713 88.52463 22.75076
#
# Poissons Ratio (x) = 0.24004 0.36708
# Poissons Ratio (y) = 0.10116 0.22156
# Poissons Ratio (z) = 0.60194 0.86210
#
# Static dielectric constant tensor:
#      x y z
#    x 1.628130 0.000000 0.000000 
#    y 0.000000 1.606840 0.000000 
#    z 0.000000 0.000000 1.625850 
# 
# From -- ./inp_files/12411.got.cif
#   From: 2010.05.17/outbox.cif.g08.bks.cpg/sg63_7_cif.got.tgz:12411.got - 2010.06.03 15:47:04.
