data_PCOD9471148
_publ_section_title
;
Structure prediction by ZEFSAII (Michael W. Deem and Ramdas Pophale) SiO2 
 PCOD9471148
Probable space group: C M C M
;
_chemical_formula_sum "Si O2"
_cell_formula_units_Z 96
_cell_length_a 21.148862
_cell_length_b 14.735399
_cell_length_c 14.655855
_cell_angle_alpha 90.000000
_cell_angle_beta 90.000000
_cell_angle_gamma 90.000000
_cell_volume 4567.305512
_symmetry_space_group_name_H-M "C M C M"
_symmetry_group_IT_number 63
_symmetry_cell_setting 'orthorhombic'
loop_
_space_group_symop_operation_xyz
x,y,z
-x,-y,1/2+z
x,-y,-z
-x,y,1/2-z
-x,-y,-z
x,y,1/2-z
-x,y,z
x,-y,1/2+z
1/2+x,1/2+y,z
1/2-x,1/2-y,1/2+z
1/2+x,1/2-y,-z
1/2-x,1/2+y,1/2-z
1/2-x,1/2-y,-z
1/2+x,1/2+y,1/2-z
1/2-x,1/2+y,z
1/2+x,1/2-y,1/2+z
loop_
_atom_site_type_symbol
_atom_site_label
_atom_site_fract_x
_atom_site_fract_y
_atom_site_fract_z
Si Si1 0.738210 0.149241 0.353373
Si Si2 0.619061 0.641283 0.138059
Si Si3 0.808432 0.461898 0.100412
Si Si4 0.928599 0.660272 0.639569
Si Si5 0.311158 0.665681 0.859586
Si Si6 0.430418 0.552637 0.862000
O O1 0.751862 0.180136 0.250000
O O2 0.807918 0.133848 0.393535
O O3 0.700896 0.233095 0.397013
O O4 0.700024 0.056301 0.346783
O O5 0.617854 0.639531 0.250000
O O6 0.590177 0.737643 0.110375
O O7 0.582214 0.551166 0.109514
O O8 0.874424 0.410079 0.110775
O O9 0.751732 0.393671 0.124982
O O10 0.799944 0.500000 0.000000
O O11 0.928334 0.660249 0.750000
O O12 0.000000 0.638249 0.609079
O O13 0.321018 0.670306 0.750000
O O14 0.373167 0.615173 0.895660
O O15 0.429164 0.553030 0.750000
O O16 0.500000 0.583062 0.890323
#
# Coordination Sequence:
#
# PCOD9471148 Si02
#       6
#    16  16  16  16  16  16
#     4  10  19  34  58  84 107 137 185 233 271 321
#     4   9  15  27  53  84 108 130 169 232 279 311
#     4  12  24  36  54  82 114 150 181 224 277 342
#     4  10  20  36  58  82 108 141 187 237 280 324
#     4  10  19  35  57  78 106 143 184 230 272 322
#     4   9  16  27  49  83 113 134 165 217 278 327
#
# _framework density 21.018957
#
# number of rings (size 3 to 8) (size 9 to 14) (size 15 to 20)
#    0.000    2.000    3.333    2.000    0.000    3.000 
#    0.000    0.833    0.000    3.500    0.000    0.000 
#    0.000    0.000    0.000    0.000    0.000    0.000 
#
# Total GULP energy -268006.652691 kJ/mol
# GULP energy per Si atom -5583.471931 kJ/mol
# Density = 2.097112 g / cm^3
# Si number density = 21.018957 Si / 1000 Ang^3
#
#
#
# Elastic Constant Matrix: (Units=GPa)
#
#
# Indices 1 2 3 4 5 6 
#
# 1 155.9109 84.0639 -14.0242 0.0000 0.0000 0.0000
# 2 84.0639 137.3000 -8.7797 0.0000 0.0000 0.0000
# 3 -14.0242 -8.7797 27.0912 0.0000 0.0000 0.0000
# 4 0.0000 0.0000 0.0000 7.5493 0.0000 0.0000
# 5 0.0000 0.0000 0.0000 0.0000 10.0510 0.0000
# 6 0.0000 0.0000 0.0000 0.0000 0.0000 30.4290
#
#
#
# Elastic Compliance Matrix: (Units=1/GPa)
#
#
# Indices 1 2 3 4 5 6 
#
# 1 0.009840 -0.005820 0.003208 0.000000 0.000000 0.000000
# 2 -0.005820 0.010879 0.000513 0.000000 0.000000 0.000000
# 3 0.003208 0.000513 0.038739 0.000000 0.000000 0.000000
# 4 0.000000 0.000000 0.000000 0.132462 0.000000 0.000000
# 5 0.000000 0.000000 0.000000 0.000000 0.099492 0.000000
# 6 0.000000 0.000000 0.000000 0.000000 0.000000 0.032863
#
#
# Mechanical properties :
#
#
# Convention : Reuss Voigt Hill
#
# Bulk Modulus (GPa) = 18.09579 49.20248 33.64914
# Shear Modulus (GPa) = 14.41360 26.87535 20.64448
#
# Velocity S-wave (km/s) = 2.62151 3.57967 3.13738
# Velocity P-wave (km/s) = 4.21794 6.36748 5.40073
#
# Compressibility (1/GPa) = 0.05526146
#
# Stress axis : x y z
#
# Youngs Moduli (GPa) = 101.62206 91.91702 25.81363
#
# Poissons Ratio (x) = 0.53494 -0.08281
# Poissons Ratio (y) = 0.59142 -0.01324
# Poissons Ratio (z) = -0.32600 -0.04716
#
# Static dielectric constant tensor:
#      x y z
#    x 1.747980 0.000000 0.000000 
#    y 0.000000 1.761900 0.000000 
#    z 0.000000 0.000000 1.807590 
# 
# From -- ./inp_files/35330.got.cif
#   From: 2010.05.17/outbox.cif.g08.bks.cpg/sg63_18_cif.got.tgz:35330.got - 2010.06.03 15:47:04.
