data_PCOD9471728
_publ_section_title
;
Structure prediction by ZEFSAII (Michael W. Deem and Ramdas Pophale) SiO2 
 PCOD9471728
Probable space group: C M C M
;
_chemical_formula_sum "Si O2"
_cell_formula_units_Z 96
_cell_length_a 19.778126
_cell_length_b 31.637813
_cell_length_c 7.757344
_cell_angle_alpha 90.000000
_cell_angle_beta 90.000000
_cell_angle_gamma 90.000000
_cell_volume 4854.054462
_symmetry_space_group_name_H-M "C M C M"
_symmetry_group_IT_number 63
_symmetry_cell_setting 'orthorhombic'
loop_
_space_group_symop_operation_xyz
x,y,z
-x,-y,1/2+z
x,-y,-z
-x,y,1/2-z
-x,-y,-z
x,y,1/2-z
-x,y,z
x,-y,1/2+z
1/2+x,1/2+y,z
1/2-x,1/2-y,1/2+z
1/2+x,1/2-y,-z
1/2-x,1/2+y,1/2-z
1/2-x,1/2-y,-z
1/2+x,1/2+y,1/2-z
1/2-x,1/2+y,z
1/2+x,1/2-y,1/2+z
loop_
_atom_site_type_symbol
_atom_site_label
_atom_site_fract_x
_atom_site_fract_y
_atom_site_fract_z
Si Si1 0.678055 0.686068 0.052784
Si Si2 0.925957 0.648323 0.542749
Si Si3 0.075905 0.254098 0.038984
Si Si4 0.781804 0.621195 0.456134
Si Si5 0.181917 0.048648 0.044392
Si Si6 0.577077 0.385732 0.452062
O O1 0.694622 0.697919 0.250000
O O2 0.637555 0.725404 0.973972
O O3 0.744041 0.663487 0.973537
O O4 0.622912 0.648241 0.050457
O O5 0.927666 0.649105 0.750000
O O6 0.917137 0.697133 0.486271
O O7 0.860828 0.622028 0.491090
O O8 0.000000 0.633687 0.481725
O O9 0.076813 0.252433 0.250000
O O10 0.000000 0.239346 0.987544
O O11 0.772541 0.622612 0.250000
O O12 0.741881 0.579799 0.519310
O O13 0.178945 0.052018 0.250000
O O14 0.113105 0.069088 0.973049
O O15 0.191642 0.000000 0.000000
O O16 0.578647 0.374284 0.250000
O O17 0.500000 0.385851 0.511831
#
# Coordination Sequence:
#
# PCOD9471728 Si02
#       6
#    16  16  16  16  16  16
#     4   9  17  30  48  69  96 133 174 209 242 283
#     4   9  18  32  50  72  96 126 165 202 239 290
#     4   8  14  26  45  68  95 130 171 209 241 276
#     4   9  19  33  49  73 100 124 154 195 244 294
#     4  10  21  37  56  76  98 125 159 197 240 293
#     4  10  20  32  47  71 103 136 170 206 241 278
#
# _framework density 19.777282
#
# number of rings (size 3 to 8) (size 9 to 14) (size 15 to 20)
#    0.000    2.833    0.000    3.500    0.000    6.667 
#    0.000    0.833    0.000    1.500    0.000    0.000 
#    0.000    0.000    0.000    0.000    0.000    0.000 
#
# Total GULP energy -267631.033193 kJ/mol
# GULP energy per Si atom -5575.646525 kJ/mol
# Density = 1.973227 g / cm^3
# Si number density = 19.777282 Si / 1000 Ang^3
#
#
#
# Elastic Constant Matrix: (Units=GPa)
#
#
# Indices 1 2 3 4 5 6 
#
# 1 110.3703 4.5549 -5.6511 0.0000 0.0000 0.0000
# 2 4.5549 14.2927 -8.7506 0.0000 0.0000 0.0000
# 3 -5.6511 -8.7506 35.3022 0.0000 0.0000 0.0000
# 4 0.0000 0.0000 0.0000 7.2762 0.0000 0.0000
# 5 0.0000 0.0000 0.0000 0.0000 14.9628 0.0000
# 6 0.0000 0.0000 0.0000 0.0000 0.0000 10.8585
#
#
#
# Elastic Compliance Matrix: (Units=1/GPa)
#
#
# Indices 1 2 3 4 5 6 
#
# 1 0.009204 -0.002395 0.000880 0.000000 0.000000 0.000000
# 2 -0.002395 0.083107 0.020217 0.000000 0.000000 0.000000
# 3 0.000880 0.020217 0.033479 0.000000 0.000000 0.000000
# 4 0.000000 0.000000 0.000000 0.137435 0.000000 0.000000
# 5 0.000000 0.000000 0.000000 0.000000 0.066832 0.000000
# 6 0.000000 0.000000 0.000000 0.000000 0.000000 0.092094
#
#
# Mechanical properties :
#
#
# Convention : Reuss Voigt Hill
#
# Bulk Modulus (GPa) = 6.12766 15.58572 10.85669
# Shear Modulus (GPa) = 11.38577 17.94031 14.66304
#
# Velocity S-wave (km/s) = 2.40198 3.01511 2.72584
# Velocity P-wave (km/s) = 3.28599 4.47425 3.92534
#
# Compressibility (1/GPa) = 0.16319451
#
# Stress axis : x y z
#
# Youngs Moduli (GPa) = 108.64509 12.03271 29.86946
#
# Poissons Ratio (x) = 0.02881 -0.02628
# Poissons Ratio (y) = 0.26016 -0.60387
# Poissons Ratio (z) = -0.09559 -0.24326
#
# Static dielectric constant tensor:
#      x y z
#    x 1.716760 0.000000 0.000000 
#    y 0.000000 1.689840 0.000000 
#    z 0.000000 0.000000 1.741250 
# 
# From -- ./inp_files/8569.got.cif
#   From: 2010.05.17/outbox.cif.g08.bks.cpg/sg63_5_cif.got.tgz:8569.got - 2010.06.03 15:47:04.
