data_PCOD9471489
_publ_section_title
;
Structure prediction by ZEFSAII (Michael W. Deem and Ramdas Pophale) SiO2 
 PCOD9471489
Probable space group: C M C M
;
_chemical_formula_sum "Si O2"
_cell_formula_units_Z 88
_cell_length_a 15.860409
_cell_length_b 15.749127
_cell_length_c 18.602814
_cell_angle_alpha 90.000000
_cell_angle_beta 90.000000
_cell_angle_gamma 90.000000
_cell_volume 4646.752181
_symmetry_space_group_name_H-M "C M C M"
_symmetry_group_IT_number 63
_symmetry_cell_setting 'orthorhombic'
loop_
_space_group_symop_operation_xyz
x,y,z
-x,-y,1/2+z
x,-y,-z
-x,y,1/2-z
-x,-y,-z
x,y,1/2-z
-x,y,z
x,-y,1/2+z
1/2+x,1/2+y,z
1/2-x,1/2-y,1/2+z
1/2+x,1/2-y,-z
1/2-x,1/2+y,1/2-z
1/2-x,1/2-y,-z
1/2+x,1/2+y,1/2-z
1/2-x,1/2+y,z
1/2+x,1/2-y,1/2+z
loop_
_atom_site_type_symbol
_atom_site_label
_atom_site_fract_x
_atom_site_fract_y
_atom_site_fract_z
Si Si1 0.356231 0.797870 0.048383
Si Si2 0.000000 0.533572 0.416570
Si Si3 0.324832 0.542421 0.885574
Si Si4 0.218068 0.875818 0.531685
Si Si5 0.500000 0.766957 0.559388
Si Si6 0.863305 0.575620 0.665774
Si Si7 0.000000 0.110036 0.832352
O O1 0.295071 0.718415 0.062534
O O2 0.387277 0.839450 0.121510
O O3 0.312050 0.872479 0.001516
O O4 0.423038 0.759081 0.995131
O O5 0.000000 0.500000 0.500000
O O6 0.082061 0.496379 0.374920
O O7 0.000000 0.635615 0.413557
O O8 0.306379 0.446550 0.911293
O O9 0.238534 0.567863 0.844426
O O10 0.413877 0.557311 0.847124
O O11 0.330648 0.598166 0.958731
O O12 0.500000 0.694461 0.618771
O O13 0.883039 0.577324 0.750000
O O14 0.000000 0.136559 0.750000
#
# Coordination Sequence:
#
# PCOD9471489 Si02
#       7
#    16   8  16  16   8  16   8
#     4  10  19  36  61  94 123 154 202 260 303 371
#     4  12  23  39  68  94 120 159 210 258 310 380
#     4  10  21  39  63  89 127 165 214 254 307 366
#     4   9  19  35  63  92 117 158 215 257 292 359
#     4  12  22  38  62  92 118 159 210 262 313 366
#     4  11  23  40  62  93 130 163 196 257 328 376
#     4  12  26  42  58  87 132 173 211 264 321 369
#
# _framework density 18.937958999999999
#
# number of rings (size 3 to 8) (size 9 to 14) (size 15 to 20)
#    0.000    1.455    3.636    1.909    2.545    2.909 
#    0.000    1.818    0.000    0.000    0.000    0.000 
#    0.000    0.000    0.000    0.000    0.000    0.000 
#
# Total GULP energy -245083.563730 kJ/mol
# GULP energy per Si atom -5570.080994 kJ/mol
# Density = 1.889486 g / cm^3
# Si number density = 18.937959 Si / 1000 Ang^3
#
#
#
# Elastic Constant Matrix: (Units=GPa)
#
#
# Indices 1 2 3 4 5 6 
#
# 1 93.0826 19.7911 37.4969 0.0000 0.0000 0.0000
# 2 19.7911 90.9256 41.5941 0.0000 0.0000 0.0000
# 3 37.4969 41.5941 135.1644 0.0000 0.0000 0.0000
# 4 0.0000 0.0000 0.0000 23.2018 0.0000 0.0000
# 5 0.0000 0.0000 0.0000 0.0000 17.5047 0.0000
# 6 0.0000 0.0000 0.0000 0.0000 0.0000 24.3728
#
#
#
# Elastic Compliance Matrix: (Units=1/GPa)
#
#
# Indices 1 2 3 4 5 6 
#
# 1 0.012224 -0.001291 -0.002994 0.000000 0.000000 0.000000
# 2 -0.001291 0.012936 -0.003623 0.000000 0.000000 0.000000
# 3 -0.002994 -0.003623 0.009344 0.000000 0.000000 0.000000
# 4 0.000000 0.000000 0.000000 0.043100 0.000000 0.000000
# 5 0.000000 0.000000 0.000000 0.000000 0.057128 0.000000
# 6 0.000000 0.000000 0.000000 0.000000 0.000000 0.041029
#
#
# Mechanical properties :
#
#
# Convention : Reuss Voigt Hill
#
# Bulk Modulus (GPa) = 53.50884 57.43743 55.47313
# Shear Modulus (GPa) = 25.27740 27.70189 26.48964
#
# Velocity S-wave (km/s) = 3.65738 3.82877 3.74406
# Velocity P-wave (km/s) = 6.79348 7.06690 6.93154
#
# Compressibility (1/GPa) = 0.01868850
#
# Stress axis : x y z
#
# Youngs Moduli (GPa) = 81.80862 77.30217 107.02379
#
# Poissons Ratio (x) = 0.09981 0.32040
# Poissons Ratio (y) = 0.10563 0.38771
# Poissons Ratio (z) = 0.24491 0.28004
#
# Static dielectric constant tensor:
#      x y z
#    x 1.828210 0.000000 0.000000 
#    y 0.000000 1.670660 0.000000 
#    z 0.000000 0.000000 1.641990 
# 
# From -- ./inp_files/45575.got.cif
#   From: 2010.05.17/outbox.cif.g08.bks.cpg/sg63_23_cif.got.tgz:45575.got - 2010.06.03 15:47:04.
