data_PCOD9471195
_publ_section_title
;
Structure prediction by ZEFSAII (Michael W. Deem and Ramdas Pophale) SiO2 
 PCOD9471195
Probable space group: C M C M
;
_chemical_formula_sum "Si O2"
_cell_formula_units_Z 104
_cell_length_a 7.826045
_cell_length_b 23.902227
_cell_length_c 26.170059
_cell_angle_alpha 90.000000
_cell_angle_beta 90.000000
_cell_angle_gamma 90.000000
_cell_volume 4895.368727
_symmetry_space_group_name_H-M "C M C M"
_symmetry_group_IT_number 63
_symmetry_cell_setting 'orthorhombic'
loop_
_space_group_symop_operation_xyz
x,y,z
-x,-y,1/2+z
x,-y,-z
-x,y,1/2-z
-x,-y,-z
x,y,1/2-z
-x,y,z
x,-y,1/2+z
1/2+x,1/2+y,z
1/2-x,1/2-y,1/2+z
1/2+x,1/2-y,-z
1/2-x,1/2+y,1/2-z
1/2-x,1/2-y,-z
1/2+x,1/2+y,1/2-z
1/2-x,1/2+y,z
1/2+x,1/2-y,1/2+z
loop_
_atom_site_type_symbol
_atom_site_label
_atom_site_fract_x
_atom_site_fract_y
_atom_site_fract_z
Si Si1 0.198353 0.385151 0.037912
Si Si2 0.807988 0.384072 0.916359
Si Si3 0.315443 0.270382 0.417878
Si Si4 0.196630 0.286904 0.191804
Si Si5 0.702536 0.509666 0.598970
Si Si6 0.204829 0.914498 0.307010
Si Si7 0.000000 0.805757 0.586087
O O1 0.295095 0.335409 0.066769
O O2 0.262961 0.446408 0.053617
O O3 0.000000 0.381397 0.052368
O O4 0.215099 0.377428 0.977542
O O5 0.789402 0.450077 0.906354
O O6 0.652869 0.348548 0.893685
O O7 0.000000 0.366932 0.901437
O O8 0.304520 0.266550 0.356045
O O9 0.151787 0.236304 0.436110
O O10 0.000000 0.248946 0.563402
O O11 0.244952 0.271140 0.250000
O O12 0.206429 0.354267 0.189578
O O13 0.000000 0.268476 0.181969
O O14 0.500000 0.500164 0.602207
O O15 0.760009 0.543226 0.649408
O O16 0.234040 0.936753 0.250000
O O17 0.000000 0.904482 0.312767
#
# Coordination Sequence:
#
# PCOD9471195 Si02
#       7
#    16  16  16  16  16  16   8
#     4  11  23  41  62  96 130 165 217 267 331 382
#     4  11  26  45  64  91 124 176 224 264 316 383
#     4  12  24  41  66  95 128 169 209 267 325 384
#     4  10  19  34  59  94 132 163 201 257 323 384
#     4  11  21  36  65  94 130 169 211 267 321 383
#     4   9  18  32  55  92 131 164 200 250 321 390
#     4  12  26  48  64  88 129 168 223 264 312 379
#
# _framework density 21.24457
#
# number of rings (size 3 to 8) (size 9 to 14) (size 15 to 20)
#    0.000    1.231    3.846    2.308    2.154    4.000 
#    0.000    0.000    0.000    1.846    0.000    0.000 
#    0.000    0.000    0.000    0.000    0.000    0.000 
#
# Total GULP energy -289692.205543 kJ/mol
# GULP energy per Si atom -5571.003953 kJ/mol
# Density = 2.119622 g / cm^3
# Si number density = 21.244570 Si / 1000 Ang^3
#
#
#
# Elastic Constant Matrix: (Units=GPa)
#
#
# Indices 1 2 3 4 5 6 
#
# 1 129.8151 26.3606 23.2255 0.0000 0.0000 0.0000
# 2 26.3606 82.3842 -19.7861 0.0000 0.0000 0.0000
# 3 23.2255 -19.7861 42.3794 0.0000 0.0000 0.0000
# 4 0.0000 0.0000 0.0000 -2.9030 0.0000 0.0000
# 5 0.0000 0.0000 0.0000 0.0000 17.4588 0.0000
# 6 0.0000 0.0000 0.0000 0.0000 0.0000 30.2872
#
#
#
# Elastic Compliance Matrix: (Units=1/GPa)
#
#
# Indices 1 2 3 4 5 6 
#
# 1 0.010187 -0.005181 -0.008002 0.000000 0.000000 0.000000
# 2 -0.005181 0.016307 0.010453 0.000000 0.000000 0.000000
# 3 -0.008002 0.010453 0.032862 0.000000 0.000000 0.000000
# 4 0.000000 0.000000 0.000000 -0.344474 0.000000 0.000000
# 5 0.000000 0.000000 0.000000 0.000000 0.057278 0.000000
# 6 0.000000 0.000000 0.000000 0.000000 0.000000 0.033017
#
#
# Mechanical properties :
#
#
# Convention : Reuss Voigt Hill
#
# Bulk Modulus (GPa) = 18.55482 34.90875 26.73179
# Shear Modulus (GPa) = -29.17195 23.95386 -2.60905
#
# Velocity S-wave (km/s) = -3.70962 3.36151 -1.10940
# Velocity P-wave (km/s) = 3.09766 5.61550 3.31197
#
# Compressibility (1/GPa) = 0.05389436
#
# Stress axis : x y z
#
# Youngs Moduli (GPa) = 98.16377 61.32502 30.43039
#
# Poissons Ratio (x) = 0.31775 0.24350
# Poissons Ratio (y) = 0.50862 -0.31808
# Poissons Ratio (z) = 0.78550 -0.64102
#
# Static dielectric constant tensor:
#      x y z
#    x 1.707960 0.000000 0.000000 
#    y 0.000000 1.782600 0.000000 
#    z 0.000000 0.000000 1.808410 
# 
# From -- ./inp_files/67564.got.cif
#   From: 2010.05.17/outbox.cif.g08.bks.cpg/sg63_34_cif.got.tgz:67564.got - 2010.06.03 15:47:04.
