data_PCOD9471002
_publ_section_title
;
Structure prediction by ZEFSAII (Michael W. Deem and Ramdas Pophale) SiO2 
 PCOD9471002
Probable space group: C M C M
;
_chemical_formula_sum "Si O2"
_cell_formula_units_Z 96
_cell_length_a 7.617405
_cell_length_b 25.396581
_cell_length_c 24.715264
_cell_angle_alpha 90.000000
_cell_angle_beta 90.000000
_cell_angle_gamma 90.000000
_cell_volume 4781.317177
_symmetry_space_group_name_H-M "C M C M"
_symmetry_group_IT_number 63
_symmetry_cell_setting 'orthorhombic'
loop_
_space_group_symop_operation_xyz
x,y,z
-x,-y,1/2+z
x,-y,-z
-x,y,1/2-z
-x,-y,-z
x,y,1/2-z
-x,y,z
x,-y,1/2+z
1/2+x,1/2+y,z
1/2-x,1/2-y,1/2+z
1/2+x,1/2-y,-z
1/2-x,1/2+y,1/2-z
1/2-x,1/2-y,-z
1/2+x,1/2+y,1/2-z
1/2-x,1/2+y,z
1/2+x,1/2-y,1/2+z
loop_
_atom_site_type_symbol
_atom_site_label
_atom_site_fract_x
_atom_site_fract_y
_atom_site_fract_z
Si Si1 0.702317 0.731141 0.637401
Si Si2 0.284125 0.225023 0.250000
Si Si3 0.713925 0.102410 0.250000
Si Si4 0.297292 0.327309 0.564272
Si Si5 0.292570 0.071213 0.132144
Si Si6 0.284117 0.644728 0.555359
Si Si7 0.711779 0.524273 0.942980
O O1 0.500000 0.716784 0.647918
O O2 0.778686 0.746855 0.695396
O O3 0.705446 0.783099 0.600044
O O4 0.778443 0.683371 0.602572
O O5 0.500000 0.224707 0.250000
O O6 0.233204 0.163701 0.250000
O O7 0.500000 0.100601 0.250000
O O8 0.772543 0.076337 0.306229
O O9 0.500000 0.310940 0.560506
O O10 0.288614 0.383387 0.594520
O O11 0.227545 0.334479 0.503583
O O12 0.500000 0.082307 0.132583
O O13 0.262805 0.014854 0.105020
O O14 0.500000 0.645468 0.554451
O O15 0.228782 0.584375 0.562807
O O16 0.500000 0.525174 0.945196
O O17 0.774619 0.500000 0.000000
#
# Coordination Sequence:
#
# PCOD9471002 Si02
#       7
#    16   8   8  16  16  16  16
#     4  10  19  34  54  77 103 136 179 217 254 311
#     4   9  16  30  53  76 100 134 172 216 261 304
#     4   9  18  34  53  76 106 136 170 220 275 306
#     4  11  20  33  52  79 111 140 167 211 274 320
#     4  11  21  35  56  81 105 136 182 224 258 311
#     4   9  19  34  53  76 107 144 173 207 264 319
#     4  10  19  36  56  76 110 145 171 213 272 320
#
# _framework density 20.078149
#
# number of rings (size 3 to 8) (size 9 to 14) (size 15 to 20)
#    0.000    2.000    3.333    1.500    0.000    0.333 
#    0.000    5.417    0.000    2.000    0.000    0.000 
#    0.000    0.000    0.000    0.000    0.000    0.000 
#
# Total GULP energy -268101.467835 kJ/mol
# GULP energy per Si atom -5585.447247 kJ/mol
# Density = 2.003245 g / cm^3
# Si number density = 20.078149 Si / 1000 Ang^3
#
#
#
# Elastic Constant Matrix: (Units=GPa)
#
#
# Indices 1 2 3 4 5 6 
#
# 1 43.0842 -5.0264 1.6839 0.0000 0.0000 0.0000
# 2 -5.0264 131.0784 103.2160 0.0000 0.0000 0.0000
# 3 1.6839 103.2160 210.4073 0.0000 0.0000 0.0000
# 4 0.0000 0.0000 0.0000 37.6252 0.0000 0.0000
# 5 0.0000 0.0000 0.0000 0.0000 11.8477 0.0000
# 6 0.0000 0.0000 0.0000 0.0000 0.0000 -1.1501
#
#
#
# Elastic Compliance Matrix: (Units=1/GPa)
#
#
# Indices 1 2 3 4 5 6 
#
# 1 0.023449 0.001706 -0.001025 0.000000 0.000000 0.000000
# 2 0.001706 0.012555 -0.006173 0.000000 0.000000 0.000000
# 3 -0.001025 -0.006173 0.007789 0.000000 0.000000 0.000000
# 4 0.000000 0.000000 0.000000 0.026578 0.000000 0.000000
# 5 0.000000 0.000000 0.000000 0.000000 0.084405 0.000000
# 6 0.000000 0.000000 0.000000 0.000000 0.000000 -0.869454
#
#
# Mechanical properties :
#
#
# Convention : Reuss Voigt Hill
#
# Bulk Modulus (GPa) = 30.47758 64.92410 47.70084
# Shear Modulus (GPa) = -7.21752 28.64429 10.71339
#
# Velocity S-wave (km/s) = -1.89803 3.78119 2.31245
# Velocity P-wave (km/s) = 3.22631 7.17419 5.56229
#
# Compressibility (1/GPa) = 0.03281101
#
# Stress axis : x y z
#
# Youngs Moduli (GPa) = 42.64498 79.65014 128.38894
#
# Poissons Ratio (x) = -0.13588 0.13154
# Poissons Ratio (y) = -0.07275 0.79248
# Poissons Ratio (z) = 0.04369 0.49164
#
# Static dielectric constant tensor:
#      x y z
#    x 1.771660 0.000000 0.000000 
#    y 0.000000 1.667380 0.000000 
#    z 0.000000 0.000000 1.702160 
# 
# From -- ./inp_files/59983.got.cif
#   From: 2010.05.17/outbox.cif.g08.bks.cpg/sg63_30_cif.got.tgz:59983.got - 2010.06.03 15:47:04.
