data_PCOD9471095
_publ_section_title
;
Structure prediction by ZEFSAII (Michael W. Deem and Ramdas Pophale) SiO2 
 PCOD9471095
Probable space group: C M C M
;
_chemical_formula_sum "Si O2"
_cell_formula_units_Z 68
_cell_length_a 24.548054
_cell_length_b 19.547622
_cell_length_c 7.871885
_cell_angle_alpha 90.000000
_cell_angle_beta 90.000000
_cell_angle_gamma 90.000000
_cell_volume 3777.371882
_symmetry_space_group_name_H-M "C M C M"
_symmetry_group_IT_number 63
_symmetry_cell_setting 'orthorhombic'
loop_
_space_group_symop_operation_xyz
x,y,z
-x,-y,1/2+z
x,-y,-z
-x,y,1/2-z
-x,-y,-z
x,y,1/2-z
-x,y,z
x,-y,1/2+z
1/2+x,1/2+y,z
1/2-x,1/2-y,1/2+z
1/2+x,1/2-y,-z
1/2-x,1/2+y,1/2-z
1/2-x,1/2-y,-z
1/2+x,1/2+y,1/2-z
1/2-x,1/2+y,z
1/2+x,1/2-y,1/2+z
loop_
_atom_site_type_symbol
_atom_site_label
_atom_site_fract_x
_atom_site_fract_y
_atom_site_fract_z
Si Si1 0.693167 0.216151 0.055080
Si Si2 0.260556 0.077114 0.547109
Si Si3 0.084212 0.216391 0.439873
Si Si4 0.000000 0.241064 0.750000
Si Si5 0.366091 0.577330 0.953454
O O1 0.683784 0.234734 0.250000
O O2 0.750000 0.250000 0.000000
O O3 0.702277 0.135284 0.033537
O O4 0.642108 0.244840 0.953573
O O5 0.262079 0.085206 0.750000
O O6 0.197271 0.086251 0.492321
O O7 0.276412 0.000000 0.500000
O O8 0.062333 0.227958 0.250000
O O9 0.046995 0.238541 0.597663
O O10 0.097537 0.135823 0.464131
O O11 0.368392 0.585113 0.750000
O O12 0.382107 0.500000 0.000000
#
# Coordination Sequence:
#
# PCOD9471095 Si02
#       5
#    16  16  16   4  16
#     4  12  22  36  59  93 128 161 201 251 308 371
#     4  10  20  33  53  87 128 165 195 241 309 374
#     4  12  24  42  65  88 119 162 209 260 306 365
#     4  12  26  48  62  86 120 160 214 260 306 364
#     4  10  19  34  56  84 121 164 205 251 306 361
#
# _framework density 18.001933000000001
#
# number of rings (size 3 to 8) (size 9 to 14) (size 15 to 20)
#    0.000    0.941    4.706    3.882    0.000    1.882 
#    0.000    0.588    0.000    0.000    0.000    0.824 
#    0.000    0.000    0.000    0.000    0.000    0.000 
#
# Total GULP energy -189458.954816 kJ/mol
# GULP energy per Si atom -5572.322200 kJ/mol
# Density = 1.796096 g / cm^3
# Si number density = 18.001933 Si / 1000 Ang^3
#
#
#
# Elastic Constant Matrix: (Units=GPa)
#
#
# Indices 1 2 3 4 5 6 
#
# 1 91.2875 22.9346 38.3017 0.0000 0.0000 0.0000
# 2 22.9346 58.3681 10.1859 0.0000 0.0000 0.0000
# 3 38.3017 10.1859 134.9600 0.0000 0.0000 0.0000
# 4 0.0000 0.0000 0.0000 26.6578 0.0000 0.0000
# 5 0.0000 0.0000 0.0000 0.0000 26.2398 0.0000
# 6 0.0000 0.0000 0.0000 0.0000 0.0000 -7.0925
#
#
#
# Elastic Compliance Matrix: (Units=1/GPa)
#
#
# Indices 1 2 3 4 5 6 
#
# 1 0.013616 -0.004738 -0.003507 0.000000 0.000000 0.000000
# 2 -0.004738 0.019010 -0.000090 0.000000 0.000000 0.000000
# 3 -0.003507 -0.000090 0.008412 0.000000 0.000000 0.000000
# 4 0.000000 0.000000 0.000000 0.037513 0.000000 0.000000
# 5 0.000000 0.000000 0.000000 0.000000 0.038110 0.000000
# 6 0.000000 0.000000 0.000000 0.000000 0.000000 -0.140994
#
#
# Mechanical properties :
#
#
# Convention : Reuss Voigt Hill
#
# Bulk Modulus (GPa) = 41.03743 47.49555 44.26649
# Shear Modulus (GPa) = 10896.48671 23.37391 5459.93031
#
# Velocity S-wave (km/s) = 77.88513 3.60726 55.13214
# Velocity P-wave (km/s) = 90.06093 6.61745 63.85437
#
# Compressibility (1/GPa) = 0.02436800
#
# Stress axis : x y z
#
# Youngs Moduli (GPa) = 73.44253 52.60343 118.88370
#
# Poissons Ratio (x) = 0.24925 0.41688
# Poissons Ratio (y) = 0.34799 0.01071
# Poissons Ratio (z) = 0.25754 0.00474
#
# Static dielectric constant tensor:
#      x y z
#    x 1.609460 0.000000 0.000000 
#    y 0.000000 1.626010 0.000000 
#    z 0.000000 0.000000 1.643940 
# 
# From -- ./inp_files/7605.got.cif
#   From: 2010.05.17/outbox.cif.g08.bks.cpg/sg63_4_cif.got.tgz:7605.got - 2010.06.03 15:47:04.
