data_PCOD9471011
_publ_section_title
;
Structure prediction by ZEFSAII (Michael W. Deem and Ramdas Pophale) SiO2 
 PCOD9471011
Probable space group: C M C M
;
_chemical_formula_sum "Si O2"
_cell_formula_units_Z 72
_cell_length_a 26.419060
_cell_length_b 17.788477
_cell_length_c 8.447975
_cell_angle_alpha 90.000000
_cell_angle_beta 90.000000
_cell_angle_gamma 90.000000
_cell_volume 3970.166749
_symmetry_space_group_name_H-M "C M C M"
_symmetry_group_IT_number 63
_symmetry_cell_setting 'orthorhombic'
loop_
_space_group_symop_operation_xyz
x,y,z
-x,-y,1/2+z
x,-y,-z
-x,y,1/2-z
-x,-y,-z
x,y,1/2-z
-x,y,z
x,-y,1/2+z
1/2+x,1/2+y,z
1/2-x,1/2-y,1/2+z
1/2+x,1/2-y,-z
1/2-x,1/2+y,1/2-z
1/2-x,1/2-y,-z
1/2+x,1/2+y,1/2-z
1/2-x,1/2+y,z
1/2+x,1/2-y,1/2+z
loop_
_atom_site_type_symbol
_atom_site_label
_atom_site_fract_x
_atom_site_fract_y
_atom_site_fract_z
Si Si1 0.193134 0.241147 0.940029
Si Si2 0.410799 0.799484 0.439970
Si Si3 0.342156 0.423812 0.439404
Si Si4 0.500000 0.086266 0.941491
Si Si5 0.945070 0.863714 0.441680
O O1 0.191539 0.245903 0.750000
O O2 0.180353 0.155667 0.989465
O O3 0.250000 0.250000 0.000000
O O4 0.147989 0.295393 0.003131
O O5 0.410565 0.799087 0.250000
O O6 0.449217 0.866660 0.490924
O O7 0.434285 0.721184 0.502226
O O8 0.317784 0.500000 0.500000
O O9 0.341216 0.425945 0.250000
O O10 0.399938 0.416502 0.497495
O O11 0.500000 0.085215 0.750000
O O12 0.500000 0.000000 0.000000
O O13 0.943978 0.862454 0.250000
O O14 0.000000 0.888051 0.496980
#
# Coordination Sequence:
#
# PCOD9471011 Si02
#       5
#    16  16  16   8  16
#     4  10  21  38  59  83 106 139 184 228 274 330
#     4  10  19  34  54  80 110 140 180 228 272 325
#     4   9  19  33  49  74 106 136 171 212 259 310
#     4  10  22  36  54  82 115 148 187 234 287 338
#     4   9  17  30  49  73 103 141 178 212 253 306
#
# _framework density 18.135256999999999
#
# number of rings (size 3 to 8) (size 9 to 14) (size 15 to 20)
#    0.000    2.444    1.111    2.667    0.000    6.667 
#    0.000    1.111    0.000    0.000    0.000    0.000 
#    0.000    0.000    0.000    0.000    0.000    0.000 
#
# Total GULP energy -200458.414862 kJ/mol
# GULP energy per Si atom -5568.289302 kJ/mol
# Density = 1.809398 g / cm^3
# Si number density = 18.135257 Si / 1000 Ang^3
#
#
#
# Elastic Constant Matrix: (Units=GPa)
#
#
# Indices 1 2 3 4 5 6 
#
# 1 145.1849 55.0695 22.0046 0.0000 0.0000 0.0000
# 2 55.0695 116.2663 10.4672 0.0000 0.0000 0.0000
# 3 22.0046 10.4672 10.9554 0.0000 0.0000 0.0000
# 4 0.0000 0.0000 0.0000 25.0341 0.0000 0.0000
# 5 0.0000 0.0000 0.0000 0.0000 26.1879 0.0000
# 6 0.0000 0.0000 0.0000 0.0000 0.0000 12.1614
#
#
#
# Elastic Compliance Matrix: (Units=1/GPa)
#
#
# Indices 1 2 3 4 5 6 
#
# 1 0.011101 -0.003557 -0.018899 0.000000 0.000000 0.000000
# 2 -0.003557 0.010550 -0.002936 0.000000 0.000000 0.000000
# 3 -0.018899 -0.002936 0.132045 0.000000 0.000000 0.000000
# 4 0.000000 0.000000 0.000000 0.039945 0.000000 0.000000
# 5 0.000000 0.000000 0.000000 0.000000 0.038186 0.000000
# 6 0.000000 0.000000 0.000000 0.000000 0.000000 0.082227
#
#
# Mechanical properties :
#
#
# Convention : Reuss Voigt Hill
#
# Bulk Modulus (GPa) = 9.71704 49.72103 29.71904
# Shear Modulus (GPa) = 12.52685 25.00106 18.76395
#
# Velocity S-wave (km/s) = 2.63106 3.71696 3.22011
# Velocity P-wave (km/s) = 3.82095 6.77476 5.49987
#
# Compressibility (1/GPa) = 0.10291197
#
# Stress axis : x y z
#
# Youngs Moduli (GPa) = 90.07988 94.78789 7.57317
#
# Poissons Ratio (x) = 0.33713 0.14313
# Poissons Ratio (y) = 0.32038 0.02224
# Poissons Ratio (z) = 1.70246 0.27830
#
# Static dielectric constant tensor:
#      x y z
#    x 1.664830 0.000000 0.000000 
#    y 0.000000 1.604490 0.000000 
#    z 0.000000 0.000000 1.616890 
# 
# From -- ./inp_files/11668.got.cif
#   From: 2010.05.17/outbox.cif.g08.bks.cpg/sg63_6_cif.got.tgz:11668.got - 2010.06.03 15:47:04.
