data_PCOD9471651
_publ_section_title
;
Structure prediction by ZEFSAII (Michael W. Deem and Ramdas Pophale) SiO2 
 PCOD9471651
Probable space group: C M C M
;
_chemical_formula_sum "Si O2"
_cell_formula_units_Z 96
_cell_length_a 24.031075
_cell_length_b 9.105778
_cell_length_c 23.692159
_cell_angle_alpha 90.000000
_cell_angle_beta 90.000000
_cell_angle_gamma 90.000000
_cell_volume 5184.356947
_symmetry_space_group_name_H-M "C M C M"
_symmetry_group_IT_number 63
_symmetry_cell_setting 'orthorhombic'
loop_
_space_group_symop_operation_xyz
x,y,z
-x,-y,1/2+z
x,-y,-z
-x,y,1/2-z
-x,-y,-z
x,y,1/2-z
-x,y,z
x,-y,1/2+z
1/2+x,1/2+y,z
1/2-x,1/2-y,1/2+z
1/2+x,1/2-y,-z
1/2-x,1/2+y,1/2-z
1/2-x,1/2-y,-z
1/2+x,1/2+y,1/2-z
1/2-x,1/2+y,z
1/2+x,1/2-y,1/2+z
loop_
_atom_site_type_symbol
_atom_site_label
_atom_site_fract_x
_atom_site_fract_y
_atom_site_fract_z
Si Si1 0.381849 0.024796 0.873262
Si Si2 0.000000 0.465004 0.904427
Si Si3 0.188562 0.642617 0.459552
Si Si4 0.290047 0.575565 0.115747
Si Si5 0.000000 0.745524 0.509661
Si Si6 0.620087 0.685145 0.046354
Si Si7 0.218734 0.642011 0.814019
O O1 0.445353 0.980405 0.866433
O O2 0.353873 0.897656 0.910065
O O3 0.380516 0.171096 0.912686
O O4 0.340154 0.058493 0.822446
O O5 0.000000 0.603679 0.948107
O O6 0.000000 0.324534 0.946644
O O7 0.191073 0.500000 0.500000
O O8 0.248338 0.649378 0.430190
O O9 0.161195 0.772562 0.495053
O O10 0.349289 0.563298 0.084534
O O11 0.261325 0.432014 0.141472
O O12 0.291791 0.691568 0.166819
O O13 0.057329 0.830528 0.523742
O O14 0.238340 0.632001 0.750000
#
# Coordination Sequence:
#
# PCOD9471651 Si02
#       7
#    16   8  16  16   8  16  16
#     4   8  15  24  41  65  93 123 155 186 227 282
#     4   9  12  22  39  64  95 127 153 173 222 287
#     4   9  15  26  43  69 101 127 151 186 230 288
#     4  10  20  31  48  71  94 125 158 196 241 287
#     4   9  14  20  40  64  96 132 149 174 217 284
#     4   9  15  24  39  67  98 123 150 181 227 280
#     4  10  20  35  49  66  91 122 162 209 247 278
#
# _framework density 18.517244000000002
#
# number of rings (size 3 to 8) (size 9 to 14) (size 15 to 20)
#    0.000    2.833    1.667    2.000    0.000    0.000 
#    0.000    0.417    0.000    0.000    0.000   11.667 
#    0.000    0.000    0.000    0.000    0.000    0.000 
#
# Total GULP energy -267356.881983 kJ/mol
# GULP energy per Si atom -5569.935041 kJ/mol
# Density = 1.847510 g / cm^3
# Si number density = 18.517244 Si / 1000 Ang^3
#
#
#
# Elastic Constant Matrix: (Units=GPa)
#
#
# Indices 1 2 3 4 5 6 
#
# 1 79.5893 7.3356 4.1196 0.0000 0.0000 0.0000
# 2 7.3356 40.3252 14.7714 0.0000 0.0000 0.0000
# 3 4.1196 14.7714 39.0051 0.0000 0.0000 0.0000
# 4 0.0000 0.0000 0.0000 13.9874 0.0000 0.0000
# 5 0.0000 0.0000 0.0000 0.0000 2.8519 0.0000
# 6 0.0000 0.0000 0.0000 0.0000 0.0000 12.3716
#
#
#
# Elastic Compliance Matrix: (Units=1/GPa)
#
#
# Indices 1 2 3 4 5 6 
#
# 1 0.012789 -0.002127 -0.000545 0.000000 0.000000 0.000000
# 2 -0.002127 0.029146 -0.010813 0.000000 0.000000 0.000000
# 3 -0.000545 -0.010813 0.029790 0.000000 0.000000 0.000000
# 4 0.000000 0.000000 0.000000 0.071493 0.000000 0.000000
# 5 0.000000 0.000000 0.000000 0.000000 0.350648 0.000000
# 6 0.000000 0.000000 0.000000 0.000000 0.000000 0.080830
#
#
# Mechanical properties :
#
#
# Convention : Reuss Voigt Hill
#
# Bulk Modulus (GPa) = 22.34394 23.48587 22.91491
# Shear Modulus (GPa) = 8.10918 14.68838 11.39878
#
# Velocity S-wave (km/s) = 2.09494 2.81948 2.48377
# Velocity P-wave (km/s) = 4.23609 4.82805 4.54173
#
# Compressibility (1/GPa) = 0.04475486
#
# Stress axis : x y z
#
# Youngs Moduli (GPa) = 78.19381 34.30983 33.56798
#
# Poissons Ratio (x) = 0.07297 0.01831
# Poissons Ratio (y) = 0.16629 0.36298
# Poissons Ratio (z) = 0.04264 0.37100
#
# Static dielectric constant tensor:
#      x y z
#    x 1.683130 0.000000 0.000000 
#    y 0.000000 1.659210 0.000000 
#    z 0.000000 0.000000 1.617320 
# 
# From -- ./inp_files/65027.got.cif
#   From: 2010.05.17/outbox.cif.g08.bks.cpg/sg63_33_cif.got.tgz:65027.got - 2010.06.03 15:47:04.
