data_PCOD9471900
_publ_section_title
;
Structure prediction by ZEFSAII (Michael W. Deem and Ramdas Pophale) SiO2 
 PCOD9471900
Probable space group: C M C M
;
_chemical_formula_sum "Si O2"
_cell_formula_units_Z 116
_cell_length_a 26.850319
_cell_length_b 28.575333
_cell_length_c 8.028193
_cell_angle_alpha 90.000000
_cell_angle_beta 90.000000
_cell_angle_gamma 90.000000
_cell_volume 6159.685724
_symmetry_space_group_name_H-M "C M C M"
_symmetry_group_IT_number 63
_symmetry_cell_setting 'orthorhombic'
loop_
_space_group_symop_operation_xyz
x,y,z
-x,-y,1/2+z
x,-y,-z
-x,y,1/2-z
-x,-y,-z
x,y,1/2-z
-x,y,z
x,-y,1/2+z
1/2+x,1/2+y,z
1/2-x,1/2-y,1/2+z
1/2+x,1/2-y,-z
1/2-x,1/2+y,1/2-z
1/2-x,1/2-y,-z
1/2+x,1/2+y,1/2-z
1/2-x,1/2+y,z
1/2+x,1/2-y,1/2+z
loop_
_atom_site_type_symbol
_atom_site_label
_atom_site_fract_x
_atom_site_fract_y
_atom_site_fract_z
Si Si1 0.351857 0.265792 0.443035
Si Si2 0.000000 0.336834 0.250000
Si Si3 0.055101 0.445489 0.450171
Si Si4 0.343582 0.897652 0.946987
Si Si5 0.757531 0.947129 0.950592
Si Si6 0.189756 0.142955 0.439969
Si Si7 0.054269 0.297680 0.941977
Si Si8 0.787331 0.686967 0.936137
O O1 0.342369 0.256591 0.250000
O O2 0.347736 0.320865 0.475070
O O3 0.403495 0.240005 0.483429
O O4 0.308292 0.238407 0.538394
O O5 0.956782 0.332135 0.401407
O O6 0.059104 0.500000 0.500000
O O7 0.054862 0.441363 0.250000
O O8 0.102997 0.419470 0.518928
O O9 0.000000 0.429433 0.508726
O O10 0.338136 0.890824 0.750000
O O11 0.298208 0.931418 0.005038
O O12 0.333440 0.848141 0.033137
O O13 0.757916 0.944222 0.750000
O O14 0.796750 0.908064 0.012815
O O15 0.767891 0.000000 0.000000
O O16 0.173692 0.137300 0.250000
O O17 0.243629 0.168787 0.446230
O O18 0.063506 0.316463 0.750000
O O19 0.000000 0.273255 0.932136
O O20 0.767691 0.681415 0.750000
#
# Coordination Sequence:
#
# PCOD9471900 Si02
#       8
#    16   4  16  16  16  16  16  16
#     4  11  21  34  52  73 101 133 167 206 250 291
#     4   8  14  28  52  66 100 124 164 200 260 274
#     4  10  20  33  50  72  96 122 159 206 259 313
#     4  10  20  35  51  69  94 123 162 205 250 298
#     4   9  19  33  50  72  96 125 156 196 238 287
#     4  10  21  35  50  72 102 131 168 204 243 293
#     4   8  17  30  47  72  97 125 166 208 243 291
#     4  11  22  34  50  70  97 131 168 205 249 299
#
# _framework density 18.832128999999998
#
# number of rings (size 3 to 8) (size 9 to 14) (size 15 to 20)
#    0.414    1.793    0.000    4.552    1.931    5.241 
#    0.000    0.690    0.000    2.483    0.000    0.000 
#    0.000    0.552    0.000    2.759    0.000    5.103 
#
# Total GULP energy -323030.837663 kJ/mol
# GULP energy per Si atom -5569.497201 kJ/mol
# Density = 1.878927 g / cm^3
# Si number density = 18.832129 Si / 1000 Ang^3
#
#
#
# Elastic Constant Matrix: (Units=GPa)
#
#
# Indices 1 2 3 4 5 6 
#
# 1 46.0233 27.4563 -0.2661 0.0000 0.0000 0.0000
# 2 27.4563 112.9665 5.6732 0.0000 0.0000 0.0000
# 3 -0.2661 5.6732 58.5330 0.0000 0.0000 0.0000
# 4 0.0000 0.0000 0.0000 23.6422 0.0000 0.0000
# 5 0.0000 0.0000 0.0000 0.0000 21.8489 0.0000
# 6 0.0000 0.0000 0.0000 0.0000 0.0000 34.1227
#
#
#
# Elastic Compliance Matrix: (Units=1/GPa)
#
#
# Indices 1 2 3 4 5 6 
#
# 1 0.025443 -0.006220 0.000719 0.000000 0.000000 0.000000
# 2 -0.006220 0.010416 -0.001038 0.000000 0.000000 0.000000
# 3 0.000719 -0.001038 0.017188 0.000000 0.000000 0.000000
# 4 0.000000 0.000000 0.000000 0.042297 0.000000 0.000000
# 5 0.000000 0.000000 0.000000 0.000000 0.045769 0.000000
# 6 0.000000 0.000000 0.000000 0.000000 0.000000 0.029306
#
#
# Mechanical properties :
#
#
# Convention : Reuss Voigt Hill
#
# Bulk Modulus (GPa) = 25.01955 31.47217 28.24586
# Shear Modulus (GPa) = 25.40380 28.23338 26.81859
#
# Velocity S-wave (km/s) = 3.67680 3.87617 3.77780
# Velocity P-wave (km/s) = 5.59818 6.06475 5.83613
#
# Compressibility (1/GPa) = 0.03996874
#
# Stress axis : x y z
#
# Youngs Moduli (GPa) = 39.30360 96.00565 58.17936
#
# Poissons Ratio (x) = 0.59715 -0.04180
# Poissons Ratio (y) = 0.24447 0.06038
# Poissons Ratio (z) = -0.02824 0.09964
#
# Static dielectric constant tensor:
#      x y z
#    x 1.672310 0.000000 0.000000 
#    y 0.000000 1.691140 0.000000 
#    z 0.000000 0.000000 1.690470 
# 
# From -- ./inp_files/14912.got.cif
#   From: 2010.05.17/outbox.cif.g08.bks.cpg/sg63_8_cif.got.tgz:14912.got - 2010.06.03 15:47:04.
