data_PCOD9471186
_publ_section_title
;
Structure prediction by ZEFSAII (Michael W. Deem and Ramdas Pophale) SiO2 
 PCOD9471186
Probable space group: C M C M
;
_chemical_formula_sum "Si O2"
_cell_formula_units_Z 112
_cell_length_a 27.350044
_cell_length_b 16.045671
_cell_length_c 13.206479
_cell_angle_alpha 90.000000
_cell_angle_beta 90.000000
_cell_angle_gamma 90.000000
_cell_volume 5795.660772
_symmetry_space_group_name_H-M "C M C M"
_symmetry_group_IT_number 63
_symmetry_cell_setting 'orthorhombic'
loop_
_space_group_symop_operation_xyz
x,y,z
-x,-y,1/2+z
x,-y,-z
-x,y,1/2-z
-x,-y,-z
x,y,1/2-z
-x,y,z
x,-y,1/2+z
1/2+x,1/2+y,z
1/2-x,1/2-y,1/2+z
1/2+x,1/2-y,-z
1/2-x,1/2+y,1/2-z
1/2-x,1/2-y,-z
1/2+x,1/2+y,1/2-z
1/2-x,1/2+y,z
1/2+x,1/2-y,1/2+z
loop_
_atom_site_type_symbol
_atom_site_label
_atom_site_fract_x
_atom_site_fract_y
_atom_site_fract_z
Si Si1 0.943605 0.293728 0.135154
Si Si2 0.286343 0.065995 0.129448
Si Si3 0.377329 0.088875 0.979489
Si Si4 0.212085 0.615880 0.635854
Si Si5 0.058486 0.948994 0.134272
Si Si6 0.799949 0.196453 0.371774
Si Si7 0.403880 0.626488 0.064537
O O1 0.926134 0.313179 0.250000
O O2 0.914617 0.338236 0.043863
O O3 0.936862 0.195676 0.118335
O O4 0.000000 0.317451 0.129896
O O5 0.297055 0.064396 0.250000
O O6 0.244600 0.133843 0.111882
O O7 0.266163 0.972965 0.101556
O O8 0.334528 0.091667 0.065042
O O9 0.344741 0.090485 0.877272
O O10 0.402009 0.000000 0.000000
O O11 0.229064 0.626080 0.750000
O O12 0.213530 0.709643 0.592834
O O13 0.065617 0.922537 0.250000
O O14 0.000000 0.959785 0.117051
O O15 0.085602 0.037059 0.115295
O O16 0.080075 0.885953 0.051647
O O17 0.809757 0.200854 0.250000
O O18 0.848655 0.159773 0.422836
#
# Coordination Sequence:
#
# PCOD9471186 Si02
#       7
#    16  16  16  16  16  16  16
#     4  11  22  37  62  92 116 144 195 258 309 356
#     4   9  20  37  56  82 115 159 204 240 295 371
#     4  10  20  36  57  81 114 153 192 238 298 357
#     4   9  17  34  57  79 110 150 196 250 302 347
#     4  10  21  38  58  83 122 168 205 245 305 369
#     4  10  19  34  59  87 117 154 203 258 302 349
#     4  11  20  36  61  90 121 156 203 252 301 355
#
# _framework density 19.324801999999998
#
# number of rings (size 3 to 8) (size 9 to 14) (size 15 to 20)
#    0.000    2.000    1.429    3.429    0.000    2.571 
#    7.714    0.714    0.000    2.143    0.000    0.000 
#    0.000    0.000    0.000    0.000    0.000    0.000 
#
# Total GULP energy -311777.701402 kJ/mol
# GULP energy per Si atom -5567.458954 kJ/mol
# Density = 1.928082 g / cm^3
# Si number density = 19.324802 Si / 1000 Ang^3
#
#
#
# Elastic Constant Matrix: (Units=GPa)
#
#
# Indices 1 2 3 4 5 6 
#
# 1 66.2215 52.6165 54.4118 0.0000 0.0000 0.0000
# 2 52.6165 136.0176 46.3323 0.0000 0.0000 0.0000
# 3 54.4118 46.3323 116.0364 0.0000 0.0000 0.0000
# 4 0.0000 0.0000 0.0000 25.1568 0.0000 0.0000
# 5 0.0000 0.0000 0.0000 0.0000 30.2859 0.0000
# 6 0.0000 0.0000 0.0000 0.0000 0.0000 9.9429
#
#
#
# Elastic Compliance Matrix: (Units=1/GPa)
#
#
# Indices 1 2 3 4 5 6 
#
# 1 0.030687 -0.008066 -0.011169 0.000000 0.000000 0.000000
# 2 -0.008066 0.010630 -0.000462 0.000000 0.000000 0.000000
# 3 -0.011169 -0.000462 0.014040 0.000000 0.000000 0.000000
# 4 0.000000 0.000000 0.000000 0.039751 0.000000 0.000000
# 5 0.000000 0.000000 0.000000 0.000000 0.033019 0.000000
# 6 0.000000 0.000000 0.000000 0.000000 0.000000 0.100574
#
#
# Mechanical properties :
#
#
# Convention : Reuss Voigt Hill
#
# Bulk Modulus (GPa) = 62.64813 69.44408 66.04610
# Shear Modulus (GPa) = 18.28723 24.07145 21.17934
#
# Velocity S-wave (km/s) = 3.07955 3.53317 3.31413
# Velocity P-wave (km/s) = 6.71816 7.25656 6.99254
#
# Compressibility (1/GPa) = 0.01596217
#
# Stress axis : x y z
#
# Youngs Moduli (GPa) = 32.58704 94.07639 71.22633
#
# Poissons Ratio (x) = 0.75885 0.79552
# Poissons Ratio (y) = 0.26286 0.03290
# Poissons Ratio (z) = 0.36396 0.04345
#
# Static dielectric constant tensor:
#      x y z
#    x 1.673390 0.000000 0.000000 
#    y 0.000000 1.712370 0.000000 
#    z 0.000000 0.000000 1.749590 
# 
# From -- ./inp_files/37929.got.cif
#   From: 2010.05.17/outbox.cif.g08.bks.cpg/sg63_19_cif.got.tgz:37929.got - 2010.06.03 15:47:04.
