data_PCOD9471358
_publ_section_title
;
Structure prediction by ZEFSAII (Michael W. Deem and Ramdas Pophale) SiO2 
 PCOD9471358
Probable space group: C M C M
;
_chemical_formula_sum "Si O2"
_cell_formula_units_Z 48
_cell_length_a 7.682758
_cell_length_b 19.577547
_cell_length_c 17.573848
_cell_angle_alpha 90.000000
_cell_angle_beta 90.000000
_cell_angle_gamma 90.000000
_cell_volume 2643.274672
_symmetry_space_group_name_H-M "C M C M"
_symmetry_group_IT_number 63
_symmetry_cell_setting 'orthorhombic'
loop_
_space_group_symop_operation_xyz
x,y,z
-x,-y,1/2+z
x,-y,-z
-x,y,1/2-z
-x,-y,-z
x,y,1/2-z
-x,y,z
x,-y,1/2+z
1/2+x,1/2+y,z
1/2-x,1/2-y,1/2+z
1/2+x,1/2-y,-z
1/2-x,1/2+y,1/2-z
1/2-x,1/2-y,-z
1/2+x,1/2+y,1/2-z
1/2-x,1/2+y,z
1/2+x,1/2-y,1/2+z
loop_
_atom_site_type_symbol
_atom_site_label
_atom_site_fract_x
_atom_site_fract_y
_atom_site_fract_z
Si Si1 0.000000 0.845645 0.158639
Si Si2 0.299359 0.894329 0.658125
Si Si3 0.202714 0.747774 0.588862
Si Si4 0.500000 0.502287 0.157425
O O1 0.168952 0.805721 0.128751
O O2 0.000000 0.844217 0.250000
O O3 0.000000 0.924138 0.131663
O O4 0.290044 0.888929 0.750000
O O5 0.500000 0.907171 0.637267
O O6 0.238852 0.822508 0.623687
O O7 0.169637 0.954648 0.633953
O O8 0.250000 0.750000 0.500000
O O9 0.000000 0.730548 0.598862
O O10 0.500000 0.500649 0.250000
#
# Coordination Sequence:
#
# PCOD9471358 Si02
#       4
#     8  16  16   8
#     4  11  24  41  63  97 128 153 203 265 307 354
#     4  10  19  35  61  88 117 158 208 250 297 368
#     4  12  23  39  62  89 124 165 207 251 307 366
#     4   9  20  37  59  89 124 157 196 251 307 358
#
# _framework density 18.159293000000002
#
# number of rings (size 3 to 8) (size 9 to 14) (size 15 to 20)
#    0.000    1.333    5.000    1.000    0.000    3.333 
#    0.000    6.667    0.000    4.000    0.000    0.000 
#    0.000    0.000    0.000    0.000    0.000    0.000 
#
# Total GULP energy -134076.602018 kJ/mol
# GULP energy per Si atom -5586.525084 kJ/mol
# Density = 1.811796 g / cm^3
# Si number density = 18.159293 Si / 1000 Ang^3
#
#
#
# Elastic Constant Matrix: (Units=GPa)
#
#
# Indices 1 2 3 4 5 6 
#
# 1 219.2765 108.6076 44.7280 0.0000 0.0000 0.0000
# 2 108.6076 190.4173 39.9722 0.0000 0.0000 0.0000
# 3 44.7280 39.9722 41.6336 0.0000 0.0000 0.0000
# 4 0.0000 0.0000 0.0000 -17.3880 0.0000 0.0000
# 5 0.0000 0.0000 0.0000 0.0000 26.2184 0.0000
# 6 0.0000 0.0000 0.0000 0.0000 0.0000 30.1243
#
#
#
# Elastic Compliance Matrix: (Units=1/GPa)
#
#
# Indices 1 2 3 4 5 6 
#
# 1 0.007000 -0.003023 -0.004617 0.000000 0.000000 0.000000
# 2 -0.003023 0.007883 -0.004321 0.000000 0.000000 0.000000
# 3 -0.004617 -0.004321 0.033128 0.000000 0.000000 0.000000
# 4 0.000000 0.000000 0.000000 -0.057511 0.000000 0.000000
# 5 0.000000 0.000000 0.000000 0.000000 0.038141 0.000000
# 6 0.000000 0.000000 0.000000 0.000000 0.000000 0.033196
#
#
# Mechanical properties :
#
#
# Convention : Reuss Voigt Hill
#
# Bulk Modulus (GPa) = 41.51410 93.10479 67.30945
# Shear Modulus (GPa) = 53.31171 24.99222 39.15196
#
# Velocity S-wave (km/s) = 5.42416 3.71385 4.64834
# Velocity P-wave (km/s) = 7.88286 8.35300 8.12133
#
# Compressibility (1/GPa) = 0.02408820
#
# Stress axis : x y z
#
# Youngs Moduli (GPa) = 142.86425 126.85786 30.18612
#
# Poissons Ratio (x) = 0.38350 0.13938
# Poissons Ratio (y) = 0.43189 0.13042
# Poissons Ratio (z) = 0.65967 0.54809
#
# Static dielectric constant tensor:
#      x y z
#    x 1.615910 0.000000 0.000000 
#    y 0.000000 1.592110 0.000000 
#    z 0.000000 0.000000 1.608820 
# 
# From -- ./inp_files/26965.got.cif
#   From: 2010.05.17/outbox.cif.g08.bks.cpg/sg63_14_cif.got.tgz:26965.got - 2010.06.03 15:47:04.
