data_PCOD9471858
_publ_section_title
;
Structure prediction by ZEFSAII (Michael W. Deem and Ramdas Pophale) SiO2 
 PCOD9471858
Probable space group: C M C M
;
_chemical_formula_sum "Si O2"
_cell_formula_units_Z 96
_cell_length_a 8.039735
_cell_length_b 24.864456
_cell_length_c 26.636958
_cell_angle_alpha 90.000000
_cell_angle_beta 90.000000
_cell_angle_gamma 90.000000
_cell_volume 5324.824787
_symmetry_space_group_name_H-M "C M C M"
_symmetry_group_IT_number 63
_symmetry_cell_setting 'orthorhombic'
loop_
_space_group_symop_operation_xyz
x,y,z
-x,-y,1/2+z
x,-y,-z
-x,y,1/2-z
-x,-y,-z
x,y,1/2-z
-x,y,z
x,-y,1/2+z
1/2+x,1/2+y,z
1/2-x,1/2-y,1/2+z
1/2+x,1/2-y,-z
1/2-x,1/2+y,1/2-z
1/2-x,1/2-y,-z
1/2+x,1/2+y,1/2-z
1/2-x,1/2+y,z
1/2+x,1/2-y,1/2+z
loop_
_atom_site_type_symbol
_atom_site_label
_atom_site_fract_x
_atom_site_fract_y
_atom_site_fract_z
Si Si1 0.304514 0.252094 0.389172
Si Si2 0.809929 0.360724 0.423805
Si Si3 0.702911 0.020148 0.944559
Si Si4 0.701283 0.913483 0.891407
Si Si5 0.202603 0.667153 0.306927
Si Si6 0.188941 0.826982 0.972069
O O1 0.500000 0.241549 0.393575
O O2 0.273895 0.315543 0.389387
O O3 0.244438 0.218294 0.340802
O O4 0.224279 0.225083 0.438386
O O5 0.736250 0.420637 0.429345
O O6 0.802759 0.336935 0.480140
O O7 0.000000 0.365714 0.407177
O O8 0.500000 0.023579 0.947311
O O9 0.746186 0.974591 0.903951
O O10 0.757369 0.000000 0.000000
O O11 0.500000 0.908973 0.896251
O O12 0.748001 0.886239 0.838600
O O13 0.780714 0.876326 0.934234
O O14 0.264303 0.667980 0.250000
O O15 0.000000 0.668387 0.304923
O O16 0.000000 0.825630 0.990531
#
# Coordination Sequence:
#
# PCOD9471858 Si02
#       6
#    16  16  16  16  16  16
#     4  10  20  33  48  68  95 123 158 199 241 285
#     4  11  20  31  47  66  96 133 166 192 228 281
#     4   9  16  28  47  68  94 130 164 189 226 277
#     4   9  16  30  50  71  95 125 161 197 234 280
#     4   8  15  29  52  76  92 112 151 203 249 285
#     4  11  20  30  45  68  98 128 161 196 235 277
#
# _framework density 18.028763000000001
#
# number of rings (size 3 to 8) (size 9 to 14) (size 15 to 20)
#    0.000    2.333    1.667    4.000    0.000    0.000 
#    0.000    2.500    0.000   13.500    0.000    2.333 
#    0.000    0.000    0.000    0.000    0.000    0.000 
#
# Total GULP energy -267630.300781 kJ/mol
# GULP energy per Si atom -5575.631266 kJ/mol
# Density = 1.798773 g / cm^3
# Si number density = 18.028763 Si / 1000 Ang^3
#
#
#
# Elastic Constant Matrix: (Units=GPa)
#
#
# Indices 1 2 3 4 5 6 
#
# 1 22.5883 4.1981 -4.5619 0.0000 0.0000 0.0000
# 2 4.1981 167.1315 62.1578 0.0000 0.0000 0.0000
# 3 -4.5619 62.1578 95.4581 0.0000 0.0000 0.0000
# 4 0.0000 0.0000 0.0000 10.4020 0.0000 0.0000
# 5 0.0000 0.0000 0.0000 0.0000 6.4053 0.0000
# 6 0.0000 0.0000 0.0000 0.0000 0.0000 18.7769
#
#
#
# Elastic Compliance Matrix: (Units=1/GPa)
#
#
# Indices 1 2 3 4 5 6 
#
# 1 0.045528 -0.002577 0.003854 0.000000 0.000000 0.000000
# 2 -0.002577 0.008041 -0.005359 0.000000 0.000000 0.000000
# 3 0.003854 -0.005359 0.014150 0.000000 0.000000 0.000000
# 4 0.000000 0.000000 0.000000 0.096135 0.000000 0.000000
# 5 0.000000 0.000000 0.000000 0.000000 0.156121 0.000000
# 6 0.000000 0.000000 0.000000 0.000000 0.000000 0.053257
#
#
# Mechanical properties :
#
#
# Convention : Reuss Voigt Hill
#
# Bulk Modulus (GPa) = 16.79146 45.41843 31.10495
# Shear Modulus (GPa) = 12.46113 22.00910 17.23512
#
# Velocity S-wave (km/s) = 2.63188 3.49775 3.09524
# Velocity P-wave (km/s) = 4.30925 6.44665 5.48311
#
# Compressibility (1/GPa) = 0.05955408
#
# Stress axis : x y z
#
# Youngs Moduli (GPa) = 21.96453 124.36008 70.67332
#
# Poissons Ratio (x) = 0.32045 -0.27235
# Poissons Ratio (y) = 0.05660 0.37875
# Poissons Ratio (z) = -0.08464 0.66647
#
# Static dielectric constant tensor:
#      x y z
#    x 1.649180 0.000000 0.000000 
#    y 0.000000 1.657150 0.000000 
#    z 0.000000 0.000000 1.593340 
# 
# From -- ./inp_files/67261.got.cif
#   From: 2010.05.17/outbox.cif.g08.bks.cpg/sg63_34_cif.got.tgz:67261.got - 2010.06.03 15:47:04.
