data_PCOD9471717
_publ_section_title
;
Structure prediction by ZEFSAII (Michael W. Deem and Ramdas Pophale) SiO2 
 PCOD9471717
Probable space group: C M C M
;
_chemical_formula_sum "Si O2"
_cell_formula_units_Z 96
_cell_length_a 7.412378
_cell_length_b 31.815770
_cell_length_c 19.472359
_cell_angle_alpha 90.000000
_cell_angle_beta 90.000000
_cell_angle_gamma 90.000000
_cell_volume 4592.176424
_symmetry_space_group_name_H-M "C M C M"
_symmetry_group_IT_number 63
_symmetry_cell_setting 'orthorhombic'
loop_
_space_group_symop_operation_xyz
x,y,z
-x,-y,1/2+z
x,-y,-z
-x,y,1/2-z
-x,-y,-z
x,y,1/2-z
-x,y,z
x,-y,1/2+z
1/2+x,1/2+y,z
1/2-x,1/2-y,1/2+z
1/2+x,1/2-y,-z
1/2-x,1/2+y,1/2-z
1/2-x,1/2-y,-z
1/2+x,1/2+y,1/2-z
1/2-x,1/2+y,z
1/2+x,1/2-y,1/2+z
loop_
_atom_site_type_symbol
_atom_site_label
_atom_site_fract_x
_atom_site_fract_y
_atom_site_fract_z
Si Si1 0.280326 0.577392 0.828658
Si Si2 0.216204 0.327309 0.828378
Si Si3 0.220906 0.000259 0.078776
Si Si4 0.715089 0.576946 0.172044
Si Si5 0.780113 0.172461 0.671074
Si Si6 0.715919 0.750079 0.919187
O O1 0.226227 0.568323 0.750000
O O2 0.500000 0.577315 0.829180
O O3 0.221263 0.541349 0.880368
O O4 0.223057 0.624901 0.846055
O O5 0.284119 0.321873 0.750000
O O6 0.254063 0.375077 0.850383
O O7 0.284182 0.291672 0.880007
O O8 0.000000 0.323299 0.825205
O O9 0.281842 0.041517 0.120210
O O10 0.000000 0.000405 0.078604
O O11 0.278948 0.000000 0.000000
O O12 0.786509 0.572370 0.250000
O O13 0.500000 0.571177 0.176152
O O14 0.727909 0.181660 0.750000
O O15 0.716802 0.208239 0.619242
O O16 0.000000 0.172344 0.670103
O O17 0.500000 0.749951 0.910820
O O18 0.750000 0.750000 0.000000
#
# Coordination Sequence:
#
# PCOD9471717 Si02
#       6
#    16  16  16  16  16  16
#     4   8  13  22  37  57  81 109 142 180 219 256
#     4   9  18  33  51  68  89 122 161 194 224 265
#     4   9  16  24  36  59  92 123 145 172 219 274
#     4   9  17  29  46  68  92 117 148 189 232 269
#     4   8  14  26  45  66  86 113 152 192 224 259
#     4  10  20  32  47  69  96 122 148 183 228 274
#
# _framework density 20.90512
#
# number of rings (size 3 to 8) (size 9 to 14) (size 15 to 20)
#    0.000    3.167    0.000    2.000    0.000    6.000 
#    0.000    3.333    0.000    2.000    0.000    1.167 
#    0.000    1.333    0.000    0.000    0.000    0.000 
#
# Total GULP energy -267904.463395 kJ/mol
# GULP energy per Si atom -5581.342987 kJ/mol
# Density = 2.085754 g / cm^3
# Si number density = 20.905120 Si / 1000 Ang^3
#
#
#
# Elastic Constant Matrix: (Units=GPa)
#
#
# Indices 1 2 3 4 5 6 
#
# 1 68.2961 3.6672 4.0581 0.0000 0.0000 0.0000
# 2 3.6672 230.4432 173.4211 0.0000 0.0000 0.0000
# 3 4.0581 173.4211 176.6374 0.0000 0.0000 0.0000
# 4 0.0000 0.0000 0.0000 -25.9605 0.0000 0.0000
# 5 0.0000 0.0000 0.0000 0.0000 6.0288 0.0000
# 6 0.0000 0.0000 0.0000 0.0000 0.0000 11.3740
#
#
#
# Elastic Compliance Matrix: (Units=1/GPa)
#
#
# Indices 1 2 3 4 5 6 
#
# 1 0.014663 0.000077 -0.000413 0.000000 0.000000 0.000000
# 2 0.000077 0.016617 -0.016316 0.000000 0.000000 0.000000
# 3 -0.000413 -0.016316 0.021690 0.000000 0.000000 0.000000
# 4 0.000000 0.000000 0.000000 -0.038520 0.000000 0.000000
# 5 0.000000 0.000000 0.000000 0.000000 0.165871 0.000000
# 6 0.000000 0.000000 0.000000 0.000000 0.000000 0.087920
#
#
# Mechanical properties :
#
#
# Convention : Reuss Voigt Hill
#
# Bulk Modulus (GPa) = 50.84893 93.07436 71.96164
# Shear Modulus (GPa) = 16.22854 17.90383 17.06618
#
# Velocity S-wave (km/s) = 2.78923 2.92966 2.86031
# Velocity P-wave (km/s) = 5.89487 7.48751 6.73841
#
# Compressibility (1/GPa) = 0.01966610
#
# Stress axis : x y z
#
# Youngs Moduli (GPa) = 68.20116 60.17842 46.10388
#
# Poissons Ratio (x) = -0.00465 0.01903
# Poissons Ratio (y) = -0.00527 0.75225
# Poissons Ratio (z) = 0.02815 0.98190
#
# Static dielectric constant tensor:
#      x y z
#    x 1.892830 0.000000 0.000000 
#    y 0.000000 1.728580 0.000000 
#    z 0.000000 0.000000 1.691550 
# 
# From -- ./inp_files/42715.got.cif
#   From: 2010.05.17/outbox.cif.g08.bks.cpg/sg63_22_cif.got.tgz:42715.got - 2010.06.03 15:47:04.
