data_PCOD9471407
_publ_section_title
;
Structure prediction by ZEFSAII (Michael W. Deem and Ramdas Pophale) SiO2 
 PCOD9471407
Probable space group: C M C M
;
_chemical_formula_sum "Si O2"
_cell_formula_units_Z 88
_cell_length_a 10.598771
_cell_length_b 14.273375
_cell_length_c 33.516450
_cell_angle_alpha 90.000000
_cell_angle_beta 90.000000
_cell_angle_gamma 90.000000
_cell_volume 5070.376366
_symmetry_space_group_name_H-M "C M C M"
_symmetry_group_IT_number 63
_symmetry_cell_setting 'orthorhombic'
loop_
_space_group_symop_operation_xyz
x,y,z
-x,-y,1/2+z
x,-y,-z
-x,y,1/2-z
-x,-y,-z
x,y,1/2-z
-x,y,z
x,-y,1/2+z
1/2+x,1/2+y,z
1/2-x,1/2-y,1/2+z
1/2+x,1/2-y,-z
1/2-x,1/2+y,1/2-z
1/2-x,1/2-y,-z
1/2+x,1/2+y,1/2-z
1/2-x,1/2+y,z
1/2+x,1/2-y,1/2+z
loop_
_atom_site_type_symbol
_atom_site_label
_atom_site_fract_x
_atom_site_fract_y
_atom_site_fract_z
Si Si1 0.352221 0.429545 0.405278
Si Si2 0.774758 0.377138 0.897144
Si Si3 0.758372 0.706821 0.658487
Si Si4 0.500000 0.140648 0.702748
Si Si5 0.500000 0.943260 0.659043
Si Si6 0.144787 0.237147 0.533529
Si Si7 0.000000 0.256950 0.703366
O O1 0.500000 0.424364 0.393902
O O2 0.312198 0.537061 0.411103
O O3 0.268146 0.380412 0.371038
O O4 0.337981 0.362271 0.443765
O O5 0.713376 0.297147 0.869218
O O6 0.881580 0.422647 0.869310
O O7 0.835000 0.318726 0.933526
O O8 0.626682 0.720839 0.681855
O O9 0.873287 0.692028 0.688337
O O10 0.500000 0.127320 0.750000
O O11 0.500000 0.043736 0.678650
O O12 0.500000 0.867639 0.694538
O O13 0.250000 0.250000 0.500000
O O14 0.000000 0.241543 0.518724
O O15 0.000000 0.235073 0.750000
#
# Coordination Sequence:
#
# PCOD9471407 Si02
#       7
#    16  16  16   8   8  16   8
#     4  10  20  38  62  84 112 156 201 235 282 351
#     4  10  20  38  62  83 111 155 198 238 278 350
#     4  10  21  36  58  82 115 151 194 237 286 347
#     4  12  23  36  55  91 126 146 184 258 308 336
#     4  10  19  36  60  80 109 150 201 235 282 349
#     4  10  22  41  60  88 123 153 190 242 298 349
#     4  10  19  36  57  78 106 156 195 229 286 348
#
# _framework density 17.355713999999999
#
# number of rings (size 3 to 8) (size 9 to 14) (size 15 to 20)
#    0.000    1.818    3.636    0.818    1.273    1.455 
#    6.545    2.727    0.000    1.091    0.000    0.000 
#    0.000    0.000    0.000    0.000    0.000    0.000 
#
# Total GULP energy -245354.860281 kJ/mol
# GULP energy per Si atom -5576.246825 kJ/mol
# Density = 1.731621 g / cm^3
# Si number density = 17.355714 Si / 1000 Ang^3
#
#
#
# Elastic Constant Matrix: (Units=GPa)
#
#
# Indices 1 2 3 4 5 6 
#
# 1 96.2861 42.3087 48.5100 0.0000 0.0000 0.0000
# 2 42.3087 112.3974 34.8904 0.0000 0.0000 0.0000
# 3 48.5100 34.8904 85.7671 0.0000 0.0000 0.0000
# 4 0.0000 0.0000 0.0000 16.2816 0.0000 0.0000
# 5 0.0000 0.0000 0.0000 0.0000 25.4068 0.0000
# 6 0.0000 0.0000 0.0000 0.0000 0.0000 22.7834
#
#
#
# Elastic Compliance Matrix: (Units=1/GPa)
#
#
# Indices 1 2 3 4 5 6 
#
# 1 0.015709 -0.003611 -0.007416 0.000000 0.000000 0.000000
# 2 -0.003611 0.011013 -0.002438 0.000000 0.000000 0.000000
# 3 -0.007416 -0.002438 0.016846 0.000000 0.000000 0.000000
# 4 0.000000 0.000000 0.000000 0.061419 0.000000 0.000000
# 5 0.000000 0.000000 0.000000 0.000000 0.039359 0.000000
# 6 0.000000 0.000000 0.000000 0.000000 0.000000 0.043892
#
#
# Mechanical properties :
#
#
# Convention : Reuss Voigt Hill
#
# Bulk Modulus (GPa) = 60.10338 60.65207 60.37773
# Shear Modulus (GPa) = 22.65394 24.14382 23.39888
#
# Velocity S-wave (km/s) = 3.61677 3.73381 3.67576
# Velocity P-wave (km/s) = 7.22128 7.32194 7.27179
#
# Compressibility (1/GPa) = 0.01663800
#
# Stress axis : x y z
#
# Youngs Moduli (GPa) = 63.65948 90.80197 59.36282
#
# Poissons Ratio (x) = 0.32789 0.44022
# Poissons Ratio (y) = 0.22988 0.14471
# Poissons Ratio (z) = 0.47209 0.22135
#
# Static dielectric constant tensor:
#      x y z
#    x 1.583050 0.000000 0.000000 
#    y 0.000000 1.591140 0.000000 
#    z 0.000000 0.000000 1.564010 
# 
# From -- ./inp_files/72751.got.cif
#   From: 2010.05.17/outbox.cif.g08.bks.cpg/sg63_37_cif.got.tgz:72751.got - 2010.06.03 15:47:04.
