data_PCOD9471986
_publ_section_title
;
Structure prediction by ZEFSAII (Michael W. Deem and Ramdas Pophale) SiO2 
 PCOD9471986
Probable space group: C M C M
;
_chemical_formula_sum "Si O2"
_cell_formula_units_Z 112
_cell_length_a 16.710323
_cell_length_b 15.310662
_cell_length_c 20.394855
_cell_angle_alpha 90.000000
_cell_angle_beta 90.000000
_cell_angle_gamma 90.000000
_cell_volume 5217.944262
_symmetry_space_group_name_H-M "C M C M"
_symmetry_group_IT_number 63
_symmetry_cell_setting 'orthorhombic'
loop_
_space_group_symop_operation_xyz
x,y,z
-x,-y,1/2+z
x,-y,-z
-x,y,1/2-z
-x,-y,-z
x,y,1/2-z
-x,y,z
x,-y,1/2+z
1/2+x,1/2+y,z
1/2-x,1/2-y,1/2+z
1/2+x,1/2-y,-z
1/2-x,1/2+y,1/2-z
1/2-x,1/2-y,-z
1/2+x,1/2+y,1/2-z
1/2-x,1/2+y,z
1/2+x,1/2-y,1/2+z
loop_
_atom_site_type_symbol
_atom_site_label
_atom_site_fract_x
_atom_site_fract_y
_atom_site_fract_z
Si Si1 0.753506 0.791579 0.325490
Si Si2 0.410216 0.925123 0.678171
Si Si3 0.408123 0.393827 0.364870
Si Si4 0.914870 0.365908 0.325605
Si Si5 0.299531 0.852202 0.930577
Si Si6 0.365093 0.559447 0.439157
Si Si7 0.911964 0.773765 0.002975
O O1 0.743682 0.763048 0.250000
O O2 0.832761 0.852458 0.327164
O O3 0.672025 0.837978 0.349361
O O4 0.765314 0.714583 0.376750
O O5 0.374703 0.899992 0.750000
O O6 0.500000 0.888548 0.677190
O O7 0.367188 0.898065 0.612352
O O8 0.414433 0.029452 0.676881
O O9 0.500000 0.387301 0.339461
O O10 0.387050 0.495514 0.379570
O O11 0.407146 0.335287 0.431814
O O12 0.917795 0.335736 0.250000
O O13 0.000000 0.338499 0.357075
O O14 0.228916 0.918638 0.948091
O O15 0.341490 0.796836 0.988410
O O16 0.393127 0.500000 0.500000
O O17 0.403087 0.655663 0.444735
O O18 0.000000 0.733186 0.002490
#
# Coordination Sequence:
#
# PCOD9471986 Si02
#       7
#    16  16  16  16  16  16  16
#     4  10  20  33  51  77 108 137 164 204 258 310
#     4   9  17  30  50  75 102 134 170 207 250 303
#     4   9  18  33  54  78 102 134 176 215 255 308
#     4   8  15  30  50  68  92 133 177 207 237 289
#     4  11  20  31  50  78 107 134 169 213 260 313
#     4  10  20  35  54  72  97 134 175 216 258 306
#     4   9  18  33  52  73  99 133 173 219 267 307
#
# _framework density 21.464392
#
# number of rings (size 3 to 8) (size 9 to 14) (size 15 to 20)
#    0.000    2.571    0.000    3.429    0.000    2.571 
#    0.000    2.143    0.000    3.429    0.000    0.000 
#    0.000    0.000    0.000    0.000    0.000    0.000 
#
# Total GULP energy -311932.702605 kJ/mol
# GULP energy per Si atom -5570.226832 kJ/mol
# Density = 2.141554 g / cm^3
# Si number density = 21.464392 Si / 1000 Ang^3
#
#
#
# Elastic Constant Matrix: (Units=GPa)
#
#
# Indices 1 2 3 4 5 6 
#
# 1 129.1164 30.3634 0.4343 0.0000 0.0000 0.0000
# 2 30.3634 41.1076 9.9012 0.0000 0.0000 0.0000
# 3 0.4343 9.9012 36.7810 0.0000 0.0000 0.0000
# 4 0.0000 0.0000 0.0000 34.5211 0.0000 0.0000
# 5 0.0000 0.0000 0.0000 0.0000 21.1339 0.0000
# 6 0.0000 0.0000 0.0000 0.0000 0.0000 70.8837
#
#
#
# Elastic Compliance Matrix: (Units=1/GPa)
#
#
# Indices 1 2 3 4 5 6 
#
# 1 0.009495 -0.007471 0.001899 0.000000 0.000000 0.000000
# 2 -0.007471 0.031891 -0.008497 0.000000 0.000000 0.000000
# 3 0.001899 -0.008497 0.029453 0.000000 0.000000 0.000000
# 4 0.000000 0.000000 0.000000 0.028968 0.000000 0.000000
# 5 0.000000 0.000000 0.000000 0.000000 0.047317 0.000000
# 6 0.000000 0.000000 0.000000 0.000000 0.000000 0.014108
#
#
# Mechanical properties :
#
#
# Convention : Reuss Voigt Hill
#
# Bulk Modulus (GPa) = 23.41806 32.04476 27.73141
# Shear Modulus (GPa) = 24.55752 36.39482 30.47617
#
# Velocity S-wave (km/s) = 3.38613 4.12222 3.77217
# Velocity P-wave (km/s) = 5.12072 6.13340 5.64979
#
# Compressibility (1/GPa) = 0.04270209
#
# Stress axis : x y z
#
# Youngs Moduli (GPa) = 105.31319 31.35655 33.95268
#
# Poissons Ratio (x) = 0.23427 -0.06448
# Poissons Ratio (y) = 0.78680 0.28848
# Poissons Ratio (z) = -0.19999 0.26643
#
# Static dielectric constant tensor:
#      x y z
#    x 1.856610 0.000000 0.000000 
#    y 0.000000 1.780700 0.000000 
#    z 0.000000 0.000000 1.814530 
# 
# From -- ./inp_files/62954.got.cif
#   From: 2010.05.17/outbox.cif.g08.bks.cpg/sg63_32_cif.got.tgz:62954.got - 2010.06.03 15:47:04.
