data_PCOD9471109
_publ_section_title
;
Structure prediction by ZEFSAII (Michael W. Deem and Ramdas Pophale) SiO2 
 PCOD9471109
Probable space group: C M C M
;
_chemical_formula_sum "Si O2"
_cell_formula_units_Z 80
_cell_length_a 18.709856
_cell_length_b 13.565255
_cell_length_c 16.039519
_cell_angle_alpha 90.000000
_cell_angle_beta 90.000000
_cell_angle_gamma 90.000000
_cell_volume 4070.893561
_symmetry_space_group_name_H-M "C M C M"
_symmetry_group_IT_number 63
_symmetry_cell_setting 'orthorhombic'
loop_
_space_group_symop_operation_xyz
x,y,z
-x,-y,1/2+z
x,-y,-z
-x,y,1/2-z
-x,-y,-z
x,y,1/2-z
-x,y,z
x,-y,1/2+z
1/2+x,1/2+y,z
1/2-x,1/2-y,1/2+z
1/2+x,1/2-y,-z
1/2-x,1/2+y,1/2-z
1/2-x,1/2-y,-z
1/2+x,1/2+y,1/2-z
1/2-x,1/2+y,z
1/2+x,1/2-y,1/2+z
loop_
_atom_site_type_symbol
_atom_site_label
_atom_site_fract_x
_atom_site_fract_y
_atom_site_fract_z
Si Si1 0.000000 0.481291 0.152501
Si Si2 0.301915 0.289684 0.612941
Si Si3 0.350969 0.291686 0.078445
Si Si4 0.201218 0.986294 0.347776
Si Si5 0.352037 0.081090 0.655254
Si Si6 0.000000 0.716609 0.347546
O O1 0.073183 0.443077 0.112929
O O2 0.000000 0.598431 0.152587
O O3 0.000000 0.445868 0.250000
O O4 0.331552 0.284166 0.518744
O O5 0.216736 0.266302 0.619380
O O6 0.317062 0.399412 0.643991
O O7 0.339084 0.197637 0.657393
O O8 0.346409 0.406312 0.105164
O O9 0.427373 0.251368 0.107112
O O10 0.200957 0.959062 0.250000
O O11 0.281492 0.968055 0.382875
O O12 0.355523 0.041140 0.750000
O O13 0.000000 0.749400 0.250000
#
# Coordination Sequence:
#
# PCOD9471109 Si02
#       6
#     8  16  16  16  16   8
#     4   9  18  33  54  81 110 137 171 222 276 323
#     4  10  20  36  56  80 113 147 181 228 286 336
#     4  10  22  37  55  82 112 144 185 232 280 335
#     4  10  19  34  57  80 105 144 191 233 273 325
#     4   9  18  32  53  82 111 142 185 229 271 329
#     4  11  22  39  61  83 112 149 190 236 282 329
#
# _framework density 19.651705
#
# number of rings (size 3 to 8) (size 9 to 14) (size 15 to 20)
#    0.000    2.200    0.000    3.000    0.000    4.800 
#    0.000    7.000    0.000    1.200    0.000    0.000 
#    0.000    0.000    0.000    0.000    0.000    0.000 
#
# Total GULP energy -223063.986568 kJ/mol
# GULP energy per Si atom -5576.599664 kJ/mol
# Density = 1.960698 g / cm^3
# Si number density = 19.651705 Si / 1000 Ang^3
#
#
#
# Elastic Constant Matrix: (Units=GPa)
#
#
# Indices 1 2 3 4 5 6 
#
# 1 141.9918 34.4938 26.6755 0.0000 0.0000 0.0000
# 2 34.4938 85.0327 -0.8921 0.0000 0.0000 0.0000
# 3 26.6755 -0.8921 42.6501 0.0000 0.0000 0.0000
# 4 0.0000 0.0000 0.0000 3.1258 0.0000 0.0000
# 5 0.0000 0.0000 0.0000 0.0000 12.8428 0.0000
# 6 0.0000 0.0000 0.0000 0.0000 0.0000 14.7035
#
#
#
# Elastic Compliance Matrix: (Units=1/GPa)
#
#
# Indices 1 2 3 4 5 6 
#
# 1 0.009021 -0.003719 -0.005720 0.000000 0.000000 0.000000
# 2 -0.003719 0.013296 0.002604 0.000000 0.000000 0.000000
# 3 -0.005720 0.002604 0.027079 0.000000 0.000000 0.000000
# 4 0.000000 0.000000 0.000000 0.319914 0.000000 0.000000
# 5 0.000000 0.000000 0.000000 0.000000 0.077865 0.000000
# 6 0.000000 0.000000 0.000000 0.000000 0.000000 0.068011
#
#
# Mechanical properties :
#
#
# Convention : Reuss Voigt Hill
#
# Bulk Modulus (GPa) = 27.99081 43.35876 35.67479
# Shear Modulus (GPa) = 9.24619 20.09425 14.67022
#
# Velocity S-wave (km/s) = 2.17146 3.20115 2.73520
# Velocity P-wave (km/s) = 4.53446 5.98120 5.30736
#
# Compressibility (1/GPa) = 0.03572601
#
# Stress axis : x y z
#
# Youngs Moduli (GPa) = 110.85554 75.20913 36.92961
#
# Poissons Ratio (x) = 0.27973 0.21123
# Poissons Ratio (y) = 0.41231 -0.09618
# Poissons Ratio (z) = 0.63407 -0.19587
#
# Static dielectric constant tensor:
#      x y z
#    x 1.728830 0.000000 0.000000 
#    y 0.000000 1.659900 0.000000 
#    z 0.000000 0.000000 1.720240 
# 
# From -- ./inp_files/55329.got.cif
#   From: 2010.05.17/outbox.cif.g08.bks.cpg/sg63_28_cif.got.tgz:55329.got - 2010.06.03 15:47:04.
