data_PCOD9471506
_publ_section_title
;
Structure prediction by ZEFSAII (Michael W. Deem and Ramdas Pophale) SiO2 
 PCOD9471506
Probable space group: C M C M
;
_chemical_formula_sum "Si O2"
_cell_formula_units_Z 96
_cell_length_a 14.287716
_cell_length_b 15.181331
_cell_length_c 20.962823
_cell_angle_alpha 90.000000
_cell_angle_beta 90.000000
_cell_angle_gamma 90.000000
_cell_volume 4546.973528
_symmetry_space_group_name_H-M "C M C M"
_symmetry_group_IT_number 63
_symmetry_cell_setting 'orthorhombic'
loop_
_space_group_symop_operation_xyz
x,y,z
-x,-y,1/2+z
x,-y,-z
-x,y,1/2-z
-x,-y,-z
x,y,1/2-z
-x,y,z
x,-y,1/2+z
1/2+x,1/2+y,z
1/2-x,1/2-y,1/2+z
1/2+x,1/2-y,-z
1/2-x,1/2+y,1/2-z
1/2-x,1/2-y,-z
1/2+x,1/2+y,1/2-z
1/2-x,1/2+y,z
1/2+x,1/2-y,1/2+z
loop_
_atom_site_type_symbol
_atom_site_label
_atom_site_fract_x
_atom_site_fract_y
_atom_site_fract_z
Si Si1 0.888017 0.710079 0.544849
Si Si2 0.692645 0.885265 0.820760
Si Si3 0.606674 0.453900 0.439311
Si Si4 0.895472 0.870687 0.639695
Si Si5 0.888305 0.519751 0.924411
Si Si6 0.613028 0.260955 0.094194
O O1 0.874470 0.799919 0.583590
O O2 0.858794 0.621975 0.581372
O O3 0.852755 0.717560 0.472442
O O4 0.000000 0.700145 0.537992
O O5 0.657440 0.908341 0.750000
O O6 0.803960 0.871674 0.817994
O O7 0.650957 0.793866 0.846927
O O8 0.665608 0.957276 0.874882
O O9 0.655060 0.500000 0.500000
O O10 0.500000 0.429949 0.461295
O O11 0.600267 0.531159 0.388621
O O12 0.642691 0.362749 0.411452
O O13 0.000000 0.849537 0.664985
O O14 0.000000 0.508888 0.911636
O O15 0.876060 0.500000 0.000000
O O16 0.500000 0.256363 0.096841
#
# Coordination Sequence:
#
# PCOD9471506 Si02
#       6
#    16  16  16  16  16  16
#     4   9  17  35  64  95 124 159 206 263 318 370
#     4  12  27  42  60  91 132 176 217 264 328 396
#     4   9  16  32  61  95 128 157 194 255 321 377
#     4  10  22  41  62  87 123 167 217 266 311 369
#     4  10  20  39  66  96 129 165 209 263 322 388
#     4  10  19  36  63  97 133 161 199 259 326 395
#
# _framework density 21.112945
#
# number of rings (size 3 to 8) (size 9 to 14) (size 15 to 20)
#    0.000    2.000    3.333    0.500    0.000    4.333 
#    0.000    3.333    0.000    6.000    0.000    0.000 
#    0.000    0.000    0.000    0.000    0.000    0.000 
#
# Total GULP energy -267872.602511 kJ/mol
# GULP energy per Si atom -5580.679219 kJ/mol
# Density = 2.106489 g / cm^3
# Si number density = 21.112945 Si / 1000 Ang^3
#
#
#
# Elastic Constant Matrix: (Units=GPa)
#
#
# Indices 1 2 3 4 5 6 
#
# 1 115.4674 21.6057 37.3301 0.0000 0.0000 0.0000
# 2 21.6057 151.3100 54.0274 0.0000 0.0000 0.0000
# 3 37.3301 54.0274 113.1283 0.0000 0.0000 0.0000
# 4 0.0000 0.0000 0.0000 8.4611 0.0000 0.0000
# 5 0.0000 0.0000 0.0000 0.0000 6.3439 0.0000
# 6 0.0000 0.0000 0.0000 0.0000 0.0000 -82.1619
#
#
#
# Elastic Compliance Matrix: (Units=1/GPa)
#
#
# Indices 1 2 3 4 5 6 
#
# 1 0.009705 -0.000292 -0.003063 0.000000 0.000000 0.000000
# 2 -0.000292 0.007976 -0.003713 0.000000 0.000000 0.000000
# 3 -0.003063 -0.003713 0.011623 0.000000 0.000000 0.000000
# 4 0.000000 0.000000 0.000000 0.118188 0.000000 0.000000
# 5 0.000000 0.000000 0.000000 0.000000 0.157632 0.000000
# 6 0.000000 0.000000 0.000000 0.000000 0.000000 -0.012171
#
#
# Mechanical properties :
#
#
# Convention : Reuss Voigt Hill
#
# Bulk Modulus (GPa) = 65.92393 67.31467 66.61930
# Shear Modulus (GPa) = 16.01810 4.32479 10.17144
#
# Velocity S-wave (km/s) = 2.75741 1.43278 2.19729
# Velocity P-wave (km/s) = 6.43661 5.88978 6.16926
#
# Compressibility (1/GPa) = 0.01516900
#
# Stress axis : x y z
#
# Youngs Moduli (GPa) = 103.03545 125.36950 86.03264
#
# Poissons Ratio (x) = 0.03662 0.26352
# Poissons Ratio (y) = 0.03010 0.31944
# Poissons Ratio (z) = 0.31561 0.46549
#
# Static dielectric constant tensor:
#      x y z
#    x 1.854940 0.000000 0.000000 
#    y 0.000000 1.778090 0.000000 
#    z 0.000000 0.000000 1.882080 
# 
# From -- ./inp_files/54185.got.cif
#   From: 2010.05.17/outbox.cif.g08.bks.cpg/sg63_28_cif.got.tgz:54185.got - 2010.06.03 15:47:04.
