data_PCOD9471519
_publ_section_title
;
Structure prediction by ZEFSAII (Michael W. Deem and Ramdas Pophale) SiO2 
 PCOD9471519
Probable space group: C M C M
;
_chemical_formula_sum "Si O2"
_cell_formula_units_Z 100
_cell_length_a 31.619497
_cell_length_b 7.266294
_cell_length_c 19.745558
_cell_angle_alpha 90.000000
_cell_angle_beta 90.000000
_cell_angle_gamma 90.000000
_cell_volume 4536.671508
_symmetry_space_group_name_H-M "C M C M"
_symmetry_group_IT_number 63
_symmetry_cell_setting 'orthorhombic'
loop_
_space_group_symop_operation_xyz
x,y,z
-x,-y,1/2+z
x,-y,-z
-x,y,1/2-z
-x,-y,-z
x,y,1/2-z
-x,y,z
x,-y,1/2+z
1/2+x,1/2+y,z
1/2-x,1/2-y,1/2+z
1/2+x,1/2-y,-z
1/2-x,1/2+y,1/2-z
1/2-x,1/2-y,-z
1/2+x,1/2+y,1/2-z
1/2-x,1/2+y,z
1/2+x,1/2-y,1/2+z
loop_
_atom_site_type_symbol
_atom_site_label
_atom_site_fract_x
_atom_site_fract_y
_atom_site_fract_z
Si Si1 0.788355 0.397113 0.674028
Si Si2 0.544087 0.325574 0.869796
Si Si3 0.000000 0.646047 0.750000
Si Si4 0.130210 0.241040 0.440225
Si Si5 0.951891 0.244721 0.670795
Si Si6 0.866092 0.674910 0.410556
Si Si7 0.693860 0.330874 0.827564
O O1 0.785492 0.320923 0.750000
O O2 0.824451 0.288695 0.634194
O O3 0.740241 0.395190 0.648535
O O4 0.802248 0.609091 0.677407
O O5 0.500000 0.329867 0.909964
O O6 0.536331 0.178061 0.810282
O O7 0.582582 0.293801 0.918064
O O8 0.548220 0.522628 0.833336
O O9 0.135434 0.210428 0.520016
O O10 0.137537 0.459199 0.429247
O O11 0.159325 0.136693 0.385538
O O12 0.949340 0.299314 0.750000
O O13 0.910786 0.303310 0.628422
O O14 0.000000 0.300950 0.648450
O O15 0.684483 0.395234 0.750000
#
# Coordination Sequence:
#
# PCOD9471519 Si02
#       7
#    16  16   4  16  16  16  16
#     4   9  18  36  53  78 101 135 173 218 265 307
#     4   9  18  35  57  77 105 136 177 218 266 309
#     4   8  16  36  56  78 104 138 166 236 260 310
#     4  10  22  37  52  79 108 148 177 213 258 315
#     4  10  19  37  57  81 104 137 177 225 268 310
#     4  10  22  37  53  75 115 143 176 214 262 314
#     4   9  19  33  56  76 103 132 175 220 261 309
#
# _framework density 22.042591999999999
#
# number of rings (size 3 to 8) (size 9 to 14) (size 15 to 20)
#    0.480    2.080    0.800    0.480    1.120    4.480 
#    0.000    4.800    0.000    0.000    0.000    0.000 
#    0.000    0.000    0.000    0.000    0.000    0.000 
#
# Total GULP energy -278469.109356 kJ/mol
# GULP energy per Si atom -5569.382187 kJ/mol
# Density = 2.199242 g / cm^3
# Si number density = 22.042592 Si / 1000 Ang^3
#
#
#
# Elastic Constant Matrix: (Units=GPa)
#
#
# Indices 1 2 3 4 5 6 
#
# 1 162.3846 -17.2745 83.5458 0.0000 0.0000 0.0000
# 2 -17.2745 45.0292 -9.4602 0.0000 0.0000 0.0000
# 3 83.5458 -9.4602 92.6380 0.0000 0.0000 0.0000
# 4 0.0000 0.0000 0.0000 2.2277 0.0000 0.0000
# 5 0.0000 0.0000 0.0000 0.0000 1.8293 0.0000
# 6 0.0000 0.0000 0.0000 0.0000 0.0000 42.7258
#
#
#
# Elastic Compliance Matrix: (Units=1/GPa)
#
#
# Indices 1 2 3 4 5 6 
#
# 1 0.011723 0.002326 -0.010335 0.000000 0.000000 0.000000
# 2 0.002326 0.023156 0.000267 0.000000 0.000000 0.000000
# 3 -0.010335 0.000267 0.020142 0.000000 0.000000 0.000000
# 4 0.000000 0.000000 0.000000 0.448895 0.000000 0.000000
# 5 0.000000 0.000000 0.000000 0.000000 0.546645 0.000000
# 6 0.000000 0.000000 0.000000 0.000000 0.000000 0.023405
#
#
# Mechanical properties :
#
#
# Convention : Reuss Voigt Hill
#
# Bulk Modulus (GPa) = 25.29212 45.96377 35.62794
# Shear Modulus (GPa) = 4.53462 25.57262 15.05362
#
# Velocity S-wave (km/s) = 1.43585 3.40979 2.61613
# Velocity P-wave (km/s) = 3.77465 6.03322 5.03228
#
# Compressibility (1/GPa) = 0.03953800
#
# Stress axis : x y z
#
# Youngs Moduli (GPa) = 85.30382 43.18494 49.64657
#
# Poissons Ratio (x) = -0.10045 0.51308
# Poissons Ratio (y) = -0.19842 -0.01326
# Poissons Ratio (z) = 0.88159 -0.01153
#
# Static dielectric constant tensor:
#      x y z
#    x 1.797750 0.000000 0.000000 
#    y 0.000000 1.934710 0.000000 
#    z 0.000000 0.000000 1.782390 
# 
# From -- ./inp_files/58493.got.cif
#   From: 2010.05.17/outbox.cif.g08.bks.cpg/sg63_30_cif.got.tgz:58493.got - 2010.06.03 15:47:04.
