data_PCOD9471565
_publ_section_title
;
Structure prediction by ZEFSAII (Michael W. Deem and Ramdas Pophale) SiO2 
 PCOD9471565
Probable space group: C M C M
;
_chemical_formula_sum "Si O2"
_cell_formula_units_Z 116
_cell_length_a 17.803047
_cell_length_b 14.389133
_cell_length_c 23.461068
_cell_angle_alpha 90.000000
_cell_angle_beta 90.000000
_cell_angle_gamma 90.000000
_cell_volume 6010.031434
_symmetry_space_group_name_H-M "C M C M"
_symmetry_group_IT_number 63
_symmetry_cell_setting 'orthorhombic'
loop_
_space_group_symop_operation_xyz
x,y,z
-x,-y,1/2+z
x,-y,-z
-x,y,1/2-z
-x,-y,-z
x,y,1/2-z
-x,y,z
x,-y,1/2+z
1/2+x,1/2+y,z
1/2-x,1/2-y,1/2+z
1/2+x,1/2-y,-z
1/2-x,1/2+y,1/2-z
1/2-x,1/2-y,-z
1/2+x,1/2+y,1/2-z
1/2-x,1/2+y,z
1/2+x,1/2-y,1/2+z
loop_
_atom_site_type_symbol
_atom_site_label
_atom_site_fract_x
_atom_site_fract_y
_atom_site_fract_z
Si Si1 0.000000 0.171668 0.250000
Si Si2 0.589495 0.395838 0.019442
Si Si3 0.852022 0.880216 0.813034
Si Si4 0.163306 0.533948 0.934716
Si Si5 0.412743 0.213807 0.971808
Si Si6 0.682816 0.566484 0.873327
Si Si7 0.290717 0.758786 0.682642
Si Si8 0.085624 0.644576 0.103269
O O1 0.932716 0.164773 0.200742
O O2 0.500000 0.383217 0.026459
O O3 0.631086 0.385608 0.078980
O O4 0.604259 0.500000 0.000000
O O5 0.614506 0.320007 0.972878
O O6 0.824339 0.912108 0.750000
O O7 0.789492 0.806302 0.833051
O O8 0.857167 0.975110 0.848441
O O9 0.134334 0.639318 0.937282
O O10 0.241999 0.530268 0.903305
O O11 0.105455 0.464101 0.904664
O O12 0.171569 0.500000 0.000000
O O13 0.500000 0.208513 0.954665
O O14 0.408645 0.185359 0.038914
O O15 0.705125 0.648829 0.830378
O O16 0.303117 0.772488 0.750000
O O17 0.354618 0.809244 0.645309
O O18 0.000000 0.658215 0.122488
#
# Coordination Sequence:
#
# PCOD9471565 Si02
#       8
#     4  16  16  16  16  16  16  16
#     4   8  20  44  68  88 108 170 198 254 296 368
#     4  10  22  36  52  81 125 168 207 252 300 352
#     4   9  21  41  64  87 118 151 208 246 303 365
#     4  10  21  36  60  89 118 161 207 245 296 358
#     4   9  18  36  57  83 120 164 206 247 287 358
#     4  12  22  36  61  91 121 158 196 253 310 362
#     4  11  23  40  62  91 122 158 196 258 313 365
#     4  10  19  38  61  88 120 157 201 249 306 357
#
# _framework density 19.301064
#
# number of rings (size 3 to 8) (size 9 to 14) (size 15 to 20)
#    0.414    1.517    2.759    1.241    0.966    3.586 
#    0.000    0.000    3.034    0.000    0.000    0.000 
#    0.000    0.000    0.000    0.000    0.000    0.000 
#
# Total GULP energy -322943.687618 kJ/mol
# GULP energy per Si atom -5567.994614 kJ/mol
# Density = 1.925713 g / cm^3
# Si number density = 19.301064 Si / 1000 Ang^3
#
#
#
# Elastic Constant Matrix: (Units=GPa)
#
#
# Indices 1 2 3 4 5 6 
#
# 1 97.6520 20.3251 21.0146 0.0000 0.0000 0.0000
# 2 20.3251 81.8939 -4.2537 0.0000 0.0000 0.0000
# 3 21.0146 -4.2537 22.0777 0.0000 0.0000 0.0000
# 4 0.0000 0.0000 0.0000 21.0002 0.0000 0.0000
# 5 0.0000 0.0000 0.0000 0.0000 38.8795 0.0000
# 6 0.0000 0.0000 0.0000 0.0000 0.0000 6.8790
#
#
#
# Elastic Compliance Matrix: (Units=1/GPa)
#
#
# Indices 1 2 3 4 5 6 
#
# 1 0.014220 -0.004275 -0.014359 0.000000 0.000000 0.000000
# 2 -0.004275 0.013620 0.006693 0.000000 0.000000 0.000000
# 3 -0.014359 0.006693 0.060252 0.000000 0.000000 0.000000
# 4 0.000000 0.000000 0.000000 0.047619 0.000000 0.000000
# 5 0.000000 0.000000 0.000000 0.000000 0.025721 0.000000
# 6 0.000000 0.000000 0.000000 0.000000 0.000000 0.145370
#
#
# Mechanical properties :
#
#
# Convention : Reuss Voigt Hill
#
# Bulk Modulus (GPa) = 15.57395 30.64396 23.10896
# Shear Modulus (GPa) = 14.20106 24.32091 19.26099
#
# Velocity S-wave (km/s) = 2.71544 3.55361 3.16242
# Velocity P-wave (km/s) = 4.23296 5.72266 5.03323
#
# Compressibility (1/GPa) = 0.06420979
#
# Stress axis : x y z
#
# Youngs Moduli (GPa) = 70.32167 73.42342 16.59698
#
# Poissons Ratio (x) = 0.31390 0.23832
# Poissons Ratio (y) = 0.30064 -0.11109
# Poissons Ratio (z) = 1.00977 -0.49145
#
# Static dielectric constant tensor:
#      x y z
#    x 1.649050 0.000000 0.000000 
#    y 0.000000 1.723060 0.000000 
#    z 0.000000 0.000000 1.681890 
# 
# From -- ./inp_files/63935.got.cif
#   From: 2010.05.17/outbox.cif.g08.bks.cpg/sg63_32_cif.got.tgz:63935.got - 2010.06.03 15:47:04.
