data_PCOD9471502
_publ_section_title
;
Structure prediction by ZEFSAII (Michael W. Deem and Ramdas Pophale) SiO2 
 PCOD9471502
Probable space group: C M C M
;
_chemical_formula_sum "Si O2"
_cell_formula_units_Z 88
_cell_length_a 12.705630
_cell_length_b 19.241993
_cell_length_c 18.612225
_cell_angle_alpha 90.000000
_cell_angle_beta 90.000000
_cell_angle_gamma 90.000000
_cell_volume 4550.347358
_symmetry_space_group_name_H-M "C M C M"
_symmetry_group_IT_number 63
_symmetry_cell_setting 'orthorhombic'
loop_
_space_group_symop_operation_xyz
x,y,z
-x,-y,1/2+z
x,-y,-z
-x,y,1/2-z
-x,-y,-z
x,y,1/2-z
-x,y,z
x,-y,1/2+z
1/2+x,1/2+y,z
1/2-x,1/2-y,1/2+z
1/2+x,1/2-y,-z
1/2-x,1/2+y,1/2-z
1/2-x,1/2-y,-z
1/2+x,1/2+y,1/2-z
1/2-x,1/2+y,z
1/2+x,1/2-y,1/2+z
loop_
_atom_site_type_symbol
_atom_site_label
_atom_site_fract_x
_atom_site_fract_y
_atom_site_fract_z
Si Si1 0.000000 0.860697 0.829790
Si Si2 0.708988 0.959667 0.074855
Si Si3 0.782465 0.079979 0.336868
Si Si4 0.500000 0.054620 0.831006
Si Si5 0.623323 0.201355 0.163305
Si Si6 0.731450 0.202478 0.930867
Si Si7 0.500000 0.208365 0.631351
O O1 0.110616 0.882729 0.862396
O O2 0.000000 0.892045 0.750000
O O3 0.000000 0.778532 0.824835
O O4 0.601464 0.961558 0.121146
O O5 0.746898 0.880680 0.062174
O O6 0.783104 0.005846 0.125350
O O7 0.695675 0.000000 0.000000
O O8 0.779269 0.074260 0.250000
O O9 0.683571 0.129512 0.357075
O O10 0.500000 0.023697 0.750000
O O11 0.500000 0.137770 0.824686
O O12 0.627090 0.206429 0.250000
O O13 0.500000 0.201566 0.141363
O O14 0.692045 0.263628 0.129165
O O15 0.607912 0.208945 0.912814
O O16 0.750000 0.250000 0.000000
#
# Coordination Sequence:
#
# PCOD9471502 Si02
#       7
#     8  16  16   8  16  16   8
#     4  10  19  36  63  91 123 160 203 256 301 359
#     4  11  24  41  60  90 129 167 208 256 315 379
#     4  10  21  39  63  92 127 167 208 255 312 375
#     4  10  22  39  64  94 122 159 208 263 318 368
#     4  10  22  40  65  95 125 163 208 259 317 377
#     4  11  24  42  64  91 124 169 211 263 314 371
#     4  10  21  37  64  94 118 158 213 262 310 365
#
# _framework density 19.339182999999998
#
# number of rings (size 3 to 8) (size 9 to 14) (size 15 to 20)
#    0.000    1.636    1.818    2.182    2.545    3.636 
#    4.909    0.455    0.000    0.000    0.000    0.000 
#    0.000    0.000    0.000    0.000    0.000    0.000 
#
# Total GULP energy -245336.064088 kJ/mol
# GULP energy per Si atom -5575.819638 kJ/mol
# Density = 1.929517 g / cm^3
# Si number density = 19.339183 Si / 1000 Ang^3
#
#
#
# Elastic Constant Matrix: (Units=GPa)
#
#
# Indices 1 2 3 4 5 6 
#
# 1 125.3174 51.1133 31.1017 0.0000 0.0000 0.0000
# 2 51.1133 152.6272 47.2748 0.0000 0.0000 0.0000
# 3 31.1017 47.2748 70.6251 0.0000 0.0000 0.0000
# 4 0.0000 0.0000 0.0000 -17.5200 0.0000 0.0000
# 5 0.0000 0.0000 0.0000 0.0000 -18.6752 0.0000
# 6 0.0000 0.0000 0.0000 0.0000 0.0000-1167.2693
#
#
#
# Elastic Compliance Matrix: (Units=1/GPa)
#
#
# Indices 1 2 3 4 5 6 
#
# 1 0.009612 -0.002407 -0.002622 0.000000 0.000000 0.000000
# 2 -0.002407 0.008868 -0.004876 0.000000 0.000000 0.000000
# 3 -0.002622 -0.004876 0.018578 0.000000 0.000000 0.000000
# 4 0.000000 0.000000 0.000000 -0.057078 0.000000 0.000000
# 5 0.000000 0.000000 0.000000 0.000000 -0.053547 0.000000
# 6 0.000000 0.000000 0.000000 0.000000 0.000000 -0.000857
#
#
# Mechanical properties :
#
#
# Convention : Reuss Voigt Hill
#
# Bulk Modulus (GPa) = 57.97668 67.50548 62.74108
# Shear Modulus (GPa) = -102.32678 -226.08758 -164.20718
#
# Velocity S-wave (km/s) = -7.28193 -10.82406 -9.22461
# Velocity P-wave (km/s) = 6.37637 11.01053 8.99694
#
# Compressibility (1/GPa) = 0.01724831
#
# Stress axis : x y z
#
# Youngs Moduli (GPa) = 104.03503 112.76046 53.82729
#
# Poissons Ratio (x) = 0.27141 0.14113
# Poissons Ratio (y) = 0.25040 0.26248
# Poissons Ratio (z) = 0.27276 0.54985
#
# Static dielectric constant tensor:
#      x y z
#    x 1.582180 0.000000 0.000000 
#    y 0.000000 1.674750 0.000000 
#    z 0.000000 0.000000 1.694950 
# 
# From -- ./inp_files/44188.got.cif
#   From: 2010.05.17/outbox.cif.g08.bks.cpg/sg63_23_cif.got.tgz:44188.got - 2010.06.03 15:47:04.
