data_PCOD9471739
_publ_section_title
;
Structure prediction by ZEFSAII (Michael W. Deem and Ramdas Pophale) SiO2 
 PCOD9471739
Probable space group: C M C M
;
_chemical_formula_sum "Si O2"
_cell_formula_units_Z 80
_cell_length_a 28.753672
_cell_length_b 17.901155
_cell_length_c 9.093966
_cell_angle_alpha 90.000000
_cell_angle_beta 90.000000
_cell_angle_gamma 90.000000
_cell_volume 4680.882003
_symmetry_space_group_name_H-M "C M C M"
_symmetry_group_IT_number 63
_symmetry_cell_setting 'orthorhombic'
loop_
_space_group_symop_operation_xyz
x,y,z
-x,-y,1/2+z
x,-y,-z
-x,y,1/2-z
-x,-y,-z
x,y,1/2-z
-x,y,z
x,-y,1/2+z
1/2+x,1/2+y,z
1/2-x,1/2-y,1/2+z
1/2+x,1/2-y,-z
1/2-x,1/2+y,1/2-z
1/2-x,1/2-y,-z
1/2+x,1/2+y,1/2-z
1/2-x,1/2+y,z
1/2+x,1/2-y,1/2+z
loop_
_atom_site_type_symbol
_atom_site_label
_atom_site_fract_x
_atom_site_fract_y
_atom_site_fract_z
Si Si1 0.213875 0.921146 0.573605
Si Si2 0.443635 0.925987 0.417111
Si Si3 0.219213 0.685074 0.925922
Si Si4 0.446454 0.230632 0.074801
Si Si5 0.861686 0.791949 0.923731
O O1 0.218329 0.926293 0.750000
O O2 0.261456 0.888976 0.502477
O O3 0.172920 0.860784 0.541833
O O4 0.202966 0.000000 0.500000
O O5 0.426108 0.921720 0.250000
O O6 0.500000 0.932404 0.409984
O O7 0.434894 0.849838 0.504138
O O8 0.426380 0.000000 0.500000
O O9 0.226736 0.682411 0.750000
O O10 0.167262 0.715263 0.951348
O O11 0.250000 0.750000 0.000000
O O12 0.443707 0.225323 0.250000
O O13 0.500000 0.248565 0.034549
O O14 0.408964 0.288671 0.013851
O O15 0.871663 0.795137 0.750000
#
# Coordination Sequence:
#
# PCOD9471739 Si02
#       5
#    16  16  16  16  16
#     4  10  20  34  54  80 107 135 168 206 253 307
#     4   9  16  27  44  64  88 119 155 198 246 293
#     4   9  17  31  51  75 102 130 162 200 245 299
#     4  10  20  32  48  72 100 133 175 218 258 301
#     4   9  19  34  52  75 102 134 171 208 250 301
#
# _framework density 17.090795
#
# number of rings (size 3 to 8) (size 9 to 14) (size 15 to 20)
#    0.000    2.600    0.000    3.600    0.000    8.400 
#    0.000    1.000    0.000    5.400    0.000    0.000 
#    0.000    0.000    0.000    0.000    0.000    0.000 
#
# Total GULP energy -222867.786673 kJ/mol
# GULP energy per Si atom -5571.694667 kJ/mol
# Density = 1.705190 g / cm^3
# Si number density = 17.090795 Si / 1000 Ang^3
#
#
#
# Elastic Constant Matrix: (Units=GPa)
#
#
# Indices 1 2 3 4 5 6 
#
# 1 80.6342 43.9344 58.0138 0.0000 0.0000 0.0000
# 2 43.9344 86.0126 48.1998 0.0000 0.0000 0.0000
# 3 58.0138 48.1998 82.3864 0.0000 0.0000 0.0000
# 4 0.0000 0.0000 0.0000 30.5577 0.0000 0.0000
# 5 0.0000 0.0000 0.0000 0.0000 25.5896 0.0000
# 6 0.0000 0.0000 0.0000 0.0000 0.0000 17.1305
#
#
#
# Elastic Compliance Matrix: (Units=1/GPa)
#
#
# Indices 1 2 3 4 5 6 
#
# 1 0.026278 -0.004542 -0.015846 0.000000 0.000000 0.000000
# 2 -0.004542 0.018082 -0.007380 0.000000 0.000000 0.000000
# 3 -0.015846 -0.007380 0.027614 0.000000 0.000000 0.000000
# 4 0.000000 0.000000 0.000000 0.032725 0.000000 0.000000
# 5 0.000000 0.000000 0.000000 0.000000 0.039078 0.000000
# 6 0.000000 0.000000 0.000000 0.000000 0.000000 0.058376
#
#
# Mechanical properties :
#
#
# Convention : Reuss Voigt Hill
#
# Bulk Modulus (GPa) = 60.84219 61.03659 60.93939
# Shear Modulus (GPa) = 18.99918 21.24792 20.12355
#
# Velocity S-wave (km/s) = 3.33778 3.52978 3.43512
# Velocity P-wave (km/s) = 7.10852 7.23900 7.17406
#
# Compressibility (1/GPa) = 0.01643596
#
# Stress axis : x y z
#
# Youngs Moduli (GPa) = 38.05531 55.30310 36.21333
#
# Poissons Ratio (x) = 0.25121 0.57385
# Poissons Ratio (y) = 0.17286 0.26726
# Poissons Ratio (z) = 0.60303 0.40815
#
# Static dielectric constant tensor:
#      x y z
#    x 1.593950 0.000000 0.000000 
#    y 0.000000 1.648870 0.000000 
#    z 0.000000 0.000000 1.569190 
# 
# From -- ./inp_files/12043.got.cif
#   From: 2010.05.17/outbox.cif.g08.bks.cpg/sg63_7_cif.got.tgz:12043.got - 2010.06.03 15:47:04.
