data_PCOD9471187
_publ_section_title
;
Structure prediction by ZEFSAII (Michael W. Deem and Ramdas Pophale) SiO2 
 PCOD9471187
Probable space group: C M C M
;
_chemical_formula_sum "Si O2"
_cell_formula_units_Z 72
_cell_length_a 18.288261
_cell_length_b 13.745864
_cell_length_c 14.986438
_cell_angle_alpha 90.000000
_cell_angle_beta 90.000000
_cell_angle_gamma 90.000000
_cell_volume 3767.409904
_symmetry_space_group_name_H-M "C M C M"
_symmetry_group_IT_number 63
_symmetry_cell_setting 'orthorhombic'
loop_
_space_group_symop_operation_xyz
x,y,z
-x,-y,1/2+z
x,-y,-z
-x,y,1/2-z
-x,-y,-z
x,y,1/2-z
-x,y,z
x,-y,1/2+z
1/2+x,1/2+y,z
1/2-x,1/2-y,1/2+z
1/2+x,1/2-y,-z
1/2-x,1/2+y,1/2-z
1/2-x,1/2-y,-z
1/2+x,1/2+y,1/2-z
1/2-x,1/2+y,z
1/2+x,1/2-y,1/2+z
loop_
_atom_site_type_symbol
_atom_site_label
_atom_site_fract_x
_atom_site_fract_y
_atom_site_fract_z
Si Si1 0.248765 0.825154 0.250000
Si Si2 0.000000 0.754130 0.643693
Si Si3 0.500000 0.515745 0.393478
Si Si4 0.158184 0.287982 0.077227
Si Si5 0.119351 0.980914 0.250000
Si Si6 0.249086 0.406427 0.555273
Si Si7 0.748755 0.101873 0.250000
O O1 0.297754 0.830309 0.338247
O O2 0.182267 0.899856 0.250000
O O3 0.223300 0.712899 0.250000
O O4 0.073416 0.713678 0.599397
O O5 0.000000 0.736775 0.750000
O O6 0.000000 0.869759 0.627097
O O7 0.500000 0.500000 0.500000
O O8 0.569848 0.474612 0.338548
O O9 0.189079 0.177825 0.062336
O O10 0.182325 0.353066 0.993897
O O11 0.162947 0.084097 0.250000
O O12 0.273870 0.500000 0.500000
O O13 0.226571 0.438985 0.654535
#
# Coordination Sequence:
#
# PCOD9471187 Si02
#       7
#     8   8   8  16   8  16   8
#     4  10  19  34  59  87 119 156 209 257 300 359
#     4  12  22  41  64  87 134 165 209 258 319 369
#     4  11  25  38  57  92 133 167 200 251 317 388
#     4  10  22  37  62  93 123 168 203 263 316 372
#     4  11  22  38  61  91 122 170 207 248 316 376
#     4  10  21  38  60  93 127 158 216 260 313 367
#     4  10  21  35  58  82 121 160 198 262 294 352
#
# _framework density 19.111273000000001
#
# number of rings (size 3 to 8) (size 9 to 14) (size 15 to 20)
#    0.000    1.556    2.222    4.000    0.000   10.667 
#    0.000    0.556    0.000    0.667    0.000    3.111 
#    0.000    0.000    0.000    0.000    0.000    0.000 
#
# Total GULP energy -200995.297793 kJ/mol
# GULP energy per Si atom -5583.202716 kJ/mol
# Density = 1.906778 g / cm^3
# Si number density = 19.111273 Si / 1000 Ang^3
#
#
#
# Elastic Constant Matrix: (Units=GPa)
#
#
# Indices 1 2 3 4 5 6 
#
# 1 155.4841 48.4306 74.9852 0.0000 0.0000 0.0000
# 2 48.4306 84.2461 49.4690 0.0000 0.0000 0.0000
# 3 74.9852 49.4690 189.2454 0.0000 0.0000 0.0000
# 4 0.0000 0.0000 0.0000 25.3498 0.0000 0.0000
# 5 0.0000 0.0000 0.0000 0.0000 28.5752 0.0000
# 6 0.0000 0.0000 0.0000 0.0000 0.0000 21.7867
#
#
#
# Elastic Compliance Matrix: (Units=1/GPa)
#
#
# Indices 1 2 3 4 5 6 
#
# 1 0.008763 -0.003542 -0.002546 0.000000 0.000000 0.000000
# 2 -0.003542 0.015454 -0.002636 0.000000 0.000000 0.000000
# 3 -0.002546 -0.002636 0.006982 0.000000 0.000000 0.000000
# 4 0.000000 0.000000 0.000000 0.039448 0.000000 0.000000
# 5 0.000000 0.000000 0.000000 0.000000 0.034995 0.000000
# 6 0.000000 0.000000 0.000000 0.000000 0.000000 0.045899
#
#
# Mechanical properties :
#
#
# Convention : Reuss Voigt Hill
#
# Bulk Modulus (GPa) = 72.72793 86.08277 79.40535
# Shear Modulus (GPa) = 28.80600 32.21507 30.51054
#
# Velocity S-wave (km/s) = 3.88658 4.11013 3.99992
# Velocity P-wave (km/s) = 7.63402 8.22587 7.93547
#
# Compressibility (1/GPa) = 0.01374987
#
# Stress axis : x y z
#
# Youngs Moduli (GPa) = 114.11817 64.70666 143.22332
#
# Poissons Ratio (x) = 0.22922 0.36467
# Poissons Ratio (y) = 0.40425 0.37756
# Poissons Ratio (z) = 0.29056 0.17058
#
# Static dielectric constant tensor:
#      x y z
#    x 1.646340 0.000000 0.000000 
#    y 0.000000 1.682100 0.000000 
#    z 0.000000 0.000000 1.709120 
# 
# From -- ./inp_files/33734.got.cif
#   From: 2010.05.17/outbox.cif.g08.bks.cpg/sg63_17_cif.got.tgz:33734.got - 2010.06.03 15:47:04.
