data_PCOD9471671
_publ_section_title
;
Structure prediction by ZEFSAII (Michael W. Deem and Ramdas Pophale) SiO2 
 PCOD9471671
Probable space group: C M C M
;
_chemical_formula_sum "Si O2"
_cell_formula_units_Z 72
_cell_length_a 24.520771
_cell_length_b 23.143307
_cell_length_c 9.014329
_cell_angle_alpha 90.000000
_cell_angle_beta 90.000000
_cell_angle_gamma 90.000000
_cell_volume 5115.557169
_symmetry_space_group_name_H-M "C M C M"
_symmetry_group_IT_number 63
_symmetry_cell_setting 'orthorhombic'
loop_
_space_group_symop_operation_xyz
x,y,z
-x,-y,1/2+z
x,-y,-z
-x,y,1/2-z
-x,-y,-z
x,y,1/2-z
-x,y,z
x,-y,1/2+z
1/2+x,1/2+y,z
1/2-x,1/2-y,1/2+z
1/2+x,1/2-y,-z
1/2-x,1/2+y,1/2-z
1/2-x,1/2-y,-z
1/2+x,1/2+y,1/2-z
1/2-x,1/2+y,z
1/2+x,1/2-y,1/2+z
loop_
_atom_site_type_symbol
_atom_site_label
_atom_site_fract_x
_atom_site_fract_y
_atom_site_fract_z
Si Si1 0.780967 0.937963 0.072830
Si Si2 0.277962 0.163437 0.419557
Si Si3 0.165465 0.762015 0.579920
Si Si4 0.886085 0.877823 0.929616
Si Si5 0.000000 0.062918 0.428083
O O1 0.783261 0.941725 0.250000
O O2 0.735879 0.891478 0.020419
O O3 0.838572 0.914072 0.009134
O O4 0.770712 0.000000 0.000000
O O5 0.287917 0.146051 0.250000
O O6 0.222339 0.201786 0.420755
O O7 0.324420 0.205878 0.481254
O O8 0.154733 0.745028 0.750000
O O9 0.121937 0.810257 0.531190
O O10 0.878172 0.882012 0.750000
O O11 0.945039 0.902794 0.968207
O O12 0.000000 0.056601 0.250000
O O13 0.000000 0.000000 0.500000
#
# Coordination Sequence:
#
# PCOD9471671 Si02
#       5
#    16  16  16  16   8
#     4  11  20  29  41  57  79 106 135 165 199 238
#     4   9  16  26  40  58  78  99 126 159 195 237
#     4   8  14  25  40  57  76  98 126 161 199 238
#     4   9  18  31  44  58  77 103 137 173 207 240
#     4  10  20  32  44  58  78 106 139 176 211 240
#
# _framework density 14.074712999999999
#
# number of rings (size 3 to 8) (size 9 to 14) (size 15 to 20)
#    0.000    2.667    0.000    4.667    0.000    8.000 
#    0.000    0.000    0.000    0.000    0.000    0.000 
#    0.000    0.000    0.000    1.000    0.000   10.000 
#
# Total GULP energy -200532.618124 kJ/mol
# GULP energy per Si atom -5570.350503 kJ/mol
# Density = 1.404268 g / cm^3
# Si number density = 14.074713 Si / 1000 Ang^3
#
#
#
# Elastic Constant Matrix: (Units=GPa)
#
#
# Indices 1 2 3 4 5 6 
#
# 1 54.5552 52.7669 25.6545 0.0000 0.0000 0.0000
# 2 52.7669 104.5101 54.7014 0.0000 0.0000 0.0000
# 3 25.6545 54.7014 74.9795 0.0000 0.0000 0.0000
# 4 0.0000 0.0000 0.0000 25.3905 0.0000 0.0000
# 5 0.0000 0.0000 0.0000 0.0000 13.0767 0.0000
# 6 0.0000 0.0000 0.0000 0.0000 0.0000 23.0480
#
#
#
# Elastic Compliance Matrix: (Units=1/GPa)
#
#
# Indices 1 2 3 4 5 6 
#
# 1 0.035932 -0.018939 0.001523 0.000000 0.000000 0.000000
# 2 -0.018939 0.025462 -0.012095 0.000000 0.000000 0.000000
# 3 0.001523 -0.012095 0.021640 0.000000 0.000000 0.000000
# 4 0.000000 0.000000 0.000000 0.039385 0.000000 0.000000
# 5 0.000000 0.000000 0.000000 0.000000 0.076472 0.000000
# 6 0.000000 0.000000 0.000000 0.000000 0.000000 0.043388
#
#
# Mechanical properties :
#
#
# Convention : Reuss Voigt Hill
#
# Bulk Modulus (GPa) = 41.64862 55.58780 48.61821
# Shear Modulus (GPa) = 16.16524 19.03119 17.59822
#
# Velocity S-wave (km/s) = 3.39267 3.68115 3.53985
# Velocity P-wave (km/s) = 6.70838 7.59266 7.16417
#
# Compressibility (1/GPa) = 0.02401040
#
# Stress axis : x y z
#
# Youngs Moduli (GPa) = 27.83010 39.27480 46.21025
#
# Poissons Ratio (x) = 0.74383 -0.07036
# Poissons Ratio (y) = 0.52708 0.55893
# Poissons Ratio (z) = -0.04238 0.47505
#
# Static dielectric constant tensor:
#      x y z
#    x 1.450270 0.000000 0.000000 
#    y 0.000000 1.467570 0.000000 
#    z 0.000000 0.000000 1.477710 
# 
# From -- ./inp_files/8006.got.cif
#   From: 2010.05.17/outbox.cif.g08.bks.cpg/sg63_5_cif.got.tgz:8006.got - 2010.06.03 15:47:04.
