data_PCOD9471632
_publ_section_title
;
Structure prediction by ZEFSAII (Michael W. Deem and Ramdas Pophale) SiO2 
 PCOD9471632
Probable space group: C M C M
;
_chemical_formula_sum "Si O2"
_cell_formula_units_Z 80
_cell_length_a 7.720875
_cell_length_b 29.341212
_cell_length_c 21.138181
_cell_angle_alpha 90.000000
_cell_angle_beta 90.000000
_cell_angle_gamma 90.000000
_cell_volume 4788.639934
_symmetry_space_group_name_H-M "C M C M"
_symmetry_group_IT_number 63
_symmetry_cell_setting 'orthorhombic'
loop_
_space_group_symop_operation_xyz
x,y,z
-x,-y,1/2+z
x,-y,-z
-x,y,1/2-z
-x,-y,-z
x,y,1/2-z
-x,y,z
x,-y,1/2+z
1/2+x,1/2+y,z
1/2-x,1/2-y,1/2+z
1/2+x,1/2-y,-z
1/2-x,1/2+y,1/2-z
1/2-x,1/2-y,-z
1/2+x,1/2+y,1/2-z
1/2-x,1/2+y,z
1/2+x,1/2-y,1/2+z
loop_
_atom_site_type_symbol
_atom_site_label
_atom_site_fract_x
_atom_site_fract_y
_atom_site_fract_z
Si Si1 0.800391 0.857252 0.655898
Si Si2 0.000000 0.452084 0.535484
Si Si3 0.201702 0.210099 0.950911
Si Si4 0.798822 0.880659 0.990408
Si Si5 0.291154 0.746049 0.181380
Si Si6 0.000000 0.428565 0.819371
O O1 0.801076 0.859108 0.579886
O O2 0.740280 0.807008 0.675674
O O3 0.668333 0.895765 0.678130
O O4 0.000000 0.864225 0.676578
O O5 0.000000 0.500000 0.500000
O O6 0.169104 0.423072 0.514517
O O7 0.000000 0.454943 0.612952
O O8 0.232562 0.226803 0.879979
O O9 0.000000 0.203085 0.961235
O O10 0.250000 0.250000 0.000000
O O11 0.275797 0.160114 0.966100
O O12 0.000000 0.893056 0.006046
O O13 0.233057 0.763654 0.250000
O O14 0.500000 0.746255 0.180080
O O15 0.000000 0.452207 0.750000
#
# Coordination Sequence:
#
# PCOD9471632 Si02
#       6
#    16   8  16  16  16   8
#     4   9  17  31  47  70 105 140 169 204 258 320
#     4  10  22  38  60  80 102 138 176 224 282 320
#     4  11  21  31  50  74 104 144 182 216 255 308
#     4   9  19  34  53  80 105 134 177 219 264 319
#     4  10  20  31  44  67 104 145 183 217 255 304
#     4  10  20  32  52  78 106 130 166 216 268 326
#
# _framework density 16.706204
#
# number of rings (size 3 to 8) (size 9 to 14) (size 15 to 20)
#    0.000    2.200    2.000    1.200    4.200    2.000 
#    0.000    0.000    0.000    1.200    0.000    0.000 
#    0.000    0.000    0.000    0.000    0.000    0.000 
#
# Total GULP energy -222908.740853 kJ/mol
# GULP energy per Si atom -5572.718521 kJ/mol
# Density = 1.666818 g / cm^3
# Si number density = 16.706204 Si / 1000 Ang^3
#
#
#
# Elastic Constant Matrix: (Units=GPa)
#
#
# Indices 1 2 3 4 5 6 
#
# 1 64.1630 29.6543 21.4605 0.0000 0.0000 0.0000
# 2 29.6543 86.8232 64.3628 0.0000 0.0000 0.0000
# 3 21.4605 64.3628 119.1231 0.0000 0.0000 0.0000
# 4 0.0000 0.0000 0.0000 14.7251 0.0000 0.0000
# 5 0.0000 0.0000 0.0000 0.0000 -4.5246 0.0000
# 6 0.0000 0.0000 0.0000 0.0000 0.0000 15.9267
#
#
#
# Elastic Compliance Matrix: (Units=1/GPa)
#
#
# Indices 1 2 3 4 5 6 
#
# 1 0.018508 -0.006422 0.000135 0.000000 0.000000 0.000000
# 2 -0.006422 0.021441 -0.010428 0.000000 0.000000 0.000000
# 3 0.000135 -0.010428 0.014005 0.000000 0.000000 0.000000
# 4 0.000000 0.000000 0.000000 0.067911 0.000000 0.000000
# 5 0.000000 0.000000 0.000000 0.000000 -0.221014 0.000000
# 6 0.000000 0.000000 0.000000 0.000000 0.000000 0.062788
#
#
# Mechanical properties :
#
#
# Convention : Reuss Voigt Hill
#
# Bulk Modulus (GPa) = 48.72040 55.67385 52.19712
# Shear Modulus (GPa) = 1278.88530 15.53421 647.20975
#
# Velocity S-wave (km/s) = 27.69796 3.05265 19.70401
# Velocity P-wave (km/s) = 32.43654 6.76923 23.43023
#
# Compressibility (1/GPa) = 0.02052528
#
# Stress axis : x y z
#
# Youngs Moduli (GPa) = 54.03073 46.63888 71.40536
#
# Poissons Ratio (x) = 0.29950 -0.00967
# Poissons Ratio (y) = 0.34697 0.74461
# Poissons Ratio (z) = -0.00732 0.48635
#
# Static dielectric constant tensor:
#      x y z
#    x 1.594460 0.000000 0.000000 
#    y 0.000000 1.557040 0.000000 
#    z 0.000000 0.000000 1.607010 
# 
# From -- ./inp_files/40738.got.cif
#   From: 2010.05.17/outbox.cif.g08.bks.cpg/sg63_21_cif.got.tgz:40738.got - 2010.06.03 15:47:04.
