data_PCOD9471992
_publ_section_title
;
Structure prediction by ZEFSAII (Michael W. Deem and Ramdas Pophale) SiO2 
 PCOD9471992
Probable space group: C M C M
;
_chemical_formula_sum "Si O2"
_cell_formula_units_Z 96
_cell_length_a 8.807190
_cell_length_b 26.030327
_cell_length_c 24.067092
_cell_angle_alpha 90.000000
_cell_angle_beta 90.000000
_cell_angle_gamma 90.000000
_cell_volume 5517.477967
_symmetry_space_group_name_H-M "C M C M"
_symmetry_group_IT_number 63
_symmetry_cell_setting 'orthorhombic'
loop_
_space_group_symop_operation_xyz
x,y,z
-x,-y,1/2+z
x,-y,-z
-x,y,1/2-z
-x,-y,-z
x,y,1/2-z
-x,y,z
x,-y,1/2+z
1/2+x,1/2+y,z
1/2-x,1/2-y,1/2+z
1/2+x,1/2-y,-z
1/2-x,1/2+y,1/2-z
1/2-x,1/2-y,-z
1/2+x,1/2+y,1/2-z
1/2-x,1/2+y,z
1/2+x,1/2-y,1/2+z
loop_
_atom_site_type_symbol
_atom_site_label
_atom_site_fract_x
_atom_site_fract_y
_atom_site_fract_z
Si Si1 0.317037 0.806816 0.314331
Si Si2 0.818357 0.304807 0.685424
Si Si3 0.682919 0.997903 0.685560
Si Si4 0.683300 0.096406 0.612128
Si Si5 0.183119 0.940034 0.501733
Si Si6 0.318070 0.599191 0.376767
O O1 0.279867 0.819990 0.250000
O O2 0.500000 0.802001 0.317479
O O3 0.243124 0.752028 0.327343
O O4 0.268937 0.852053 0.355712
O O5 0.776443 0.316030 0.750000
O O6 0.748907 0.347768 0.645761
O O7 0.000000 0.305548 0.681609
O O8 0.721330 0.006016 0.750000
O O9 0.500000 0.992493 0.681784
O O10 0.758877 0.946883 0.661862
O O11 0.728353 0.046837 0.648695
O O12 0.500000 0.096786 0.609206
O O13 0.749964 0.089289 0.551049
O O14 0.228408 0.914770 0.560213
O O15 0.000000 0.939389 0.498393
O O16 0.231613 0.000000 0.500000
O O17 0.500000 0.601077 0.374770
#
# Coordination Sequence:
#
# PCOD9471992 Si02
#       6
#    16  16  16  16  16  16
#     4   9  18  35  58  83 112 144 178 219 269 325
#     4  10  21  37  57  82 111 142 178 223 273 322
#     4  10  20  33  51  79 113 142 171 216 271 323
#     4  10  20  34  56  83 109 141 182 222 265 321
#     4  10  21  38  55  75 108 147 184 226 272 316
#     4  11  22  36  55  78 106 143 185 224 268 321
#
# _framework density 17.399253999999999
#
# number of rings (size 3 to 8) (size 9 to 14) (size 15 to 20)
#    0.000    2.000    1.667    2.000    0.000    7.667 
#    0.000    0.833    0.000    3.000    0.000    0.000 
#    0.000    0.000    0.000    0.000    0.000    0.000 
#
# Total GULP energy -268021.587062 kJ/mol
# GULP energy per Si atom -5583.783064 kJ/mol
# Density = 1.735965 g / cm^3
# Si number density = 17.399254 Si / 1000 Ang^3
#
#
#
# Elastic Constant Matrix: (Units=GPa)
#
#
# Indices 1 2 3 4 5 6 
#
# 1 13.9426 25.2802 22.6563 0.0000 0.0000 0.0000
# 2 25.2802 115.9756 57.2377 0.0000 0.0000 0.0000
# 3 22.6563 57.2377 93.8838 0.0000 0.0000 0.0000
# 4 0.0000 0.0000 0.0000 22.9675 0.0000 0.0000
# 5 0.0000 0.0000 0.0000 0.0000 21.9447 0.0000
# 6 0.0000 0.0000 0.0000 0.0000 0.0000 27.4428
#
#
#
# Elastic Compliance Matrix: (Units=1/GPa)
#
#
# Indices 1 2 3 4 5 6 
#
# 1 0.145915 -0.020638 -0.022631 0.000000 0.000000 0.000000
# 2 -0.020638 0.015252 -0.004319 0.000000 0.000000 0.000000
# 3 -0.022631 -0.004319 0.018746 0.000000 0.000000 0.000000
# 4 0.000000 0.000000 0.000000 0.043540 0.000000 0.000000
# 5 0.000000 0.000000 0.000000 0.000000 0.045569 0.000000
# 6 0.000000 0.000000 0.000000 0.000000 0.000000 0.036439
#
#
# Mechanical properties :
#
#
# Convention : Reuss Voigt Hill
#
# Bulk Modulus (GPa) = 11.80080 48.23895 30.01988
# Shear Modulus (GPa) = 11.65822 22.37952 17.01887
#
# Velocity S-wave (km/s) = 2.59132 3.59030 3.13091
# Velocity P-wave (km/s) = 3.96867 6.70611 5.51010
#
# Compressibility (1/GPa) = 0.08474000
#
# Stress axis : x y z
#
# Youngs Moduli (GPa) = 6.85328 65.56347 53.34576
#
# Poissons Ratio (x) = 1.35307 1.20725
# Poissons Ratio (y) = 0.14143 0.23038
# Poissons Ratio (z) = 0.15509 0.28314
#
# Static dielectric constant tensor:
#      x y z
#    x 1.587020 0.000000 0.000000 
#    y 0.000000 1.561880 0.000000 
#    z 0.000000 0.000000 1.574070 
# 
# From -- ./inp_files/51259.got.cif
#   From: 2010.05.17/outbox.cif.g08.bks.cpg/sg63_26_cif.got.tgz:51259.got - 2010.06.03 15:47:04.
