data_PCOD9471465
_publ_section_title
;
Structure prediction by ZEFSAII (Michael W. Deem and Ramdas Pophale) SiO2 
 PCOD9471465
Probable space group: C M C M
;
_chemical_formula_sum "Si O2"
_cell_formula_units_Z 96
_cell_length_a 21.052098
_cell_length_b 15.769395
_cell_length_c 13.711935
_cell_angle_alpha 90.000000
_cell_angle_beta 90.000000
_cell_angle_gamma 90.000000
_cell_volume 4552.072398
_symmetry_space_group_name_H-M "C M C M"
_symmetry_group_IT_number 63
_symmetry_cell_setting 'orthorhombic'
loop_
_space_group_symop_operation_xyz
x,y,z
-x,-y,1/2+z
x,-y,-z
-x,y,1/2-z
-x,-y,-z
x,y,1/2-z
-x,y,z
x,-y,1/2+z
1/2+x,1/2+y,z
1/2-x,1/2-y,1/2+z
1/2+x,1/2-y,-z
1/2-x,1/2+y,1/2-z
1/2-x,1/2-y,-z
1/2+x,1/2+y,1/2-z
1/2-x,1/2+y,z
1/2+x,1/2-y,1/2+z
loop_
_atom_site_type_symbol
_atom_site_label
_atom_site_fract_x
_atom_site_fract_y
_atom_site_fract_z
Si Si1 0.298409 0.381111 0.633058
Si Si2 0.892902 0.785087 0.136042
Si Si3 0.427856 0.909562 0.631998
Si Si4 0.193285 0.518724 0.868690
Si Si5 0.242781 0.302226 0.133916
Si Si6 0.932323 0.903851 0.963890
O O1 0.293998 0.379687 0.750000
O O2 0.250858 0.456111 0.602333
O O3 0.277057 0.289279 0.593874
O O4 0.370399 0.393185 0.601215
O O5 0.911828 0.797027 0.250000
O O6 0.904831 0.686405 0.110813
O O7 0.818667 0.808836 0.128009
O O8 0.927370 0.843879 0.058439
O O9 0.430601 0.914054 0.750000
O O10 0.500000 0.923153 0.595426
O O11 0.373646 0.976469 0.603061
O O12 0.193946 0.521007 0.750000
O O13 0.207042 0.614230 0.903545
O O14 0.228211 0.299103 0.250000
O O15 0.000000 0.886606 0.913711
O O16 0.931846 0.000000 0.000000
#
# Coordination Sequence:
#
# PCOD9471465 Si02
#       6
#    16  16  16  16  16  16
#     4  10  20  38  60  83 115 154 194 238 286 339
#     4  10  19  36  60  85 110 144 189 241 296 343
#     4   9  16  28  50  80 113 146 183 236 297 346
#     4   9  16  30  53  83 116 150 191 238 285 342
#     4   9  17  31  56  86 114 147 191 237 285 343
#     4  11  25  40  55  82 116 151 195 242 290 346
#
# _framework density 21.089295
#
# number of rings (size 3 to 8) (size 9 to 14) (size 15 to 20)
#    0.000    2.333    1.667    1.500    0.000    4.000 
#    0.000    2.500    0.000    3.000    0.000    2.333 
#    0.000    0.000    0.000    0.000    0.000    0.000 
#
# Total GULP energy -268169.840108 kJ/mol
# GULP energy per Si atom -5586.871669 kJ/mol
# Density = 2.104129 g / cm^3
# Si number density = 21.089295 Si / 1000 Ang^3
#
#
#
# Elastic Constant Matrix: (Units=GPa)
#
#
# Indices 1 2 3 4 5 6 
#
# 1 133.7267 65.6055 -9.1170 0.0000 0.0000 0.0000
# 2 65.6055 146.3619 10.8672 0.0000 0.0000 0.0000
# 3 -9.1170 10.8672 52.0888 0.0000 0.0000 0.0000
# 4 0.0000 0.0000 0.0000 21.2290 0.0000 0.0000
# 5 0.0000 0.0000 0.0000 0.0000 6.8547 0.0000
# 6 0.0000 0.0000 0.0000 0.0000 0.0000 92.2576
#
#
#
# Elastic Compliance Matrix: (Units=1/GPa)
#
#
# Indices 1 2 3 4 5 6 
#
# 1 0.009950 -0.004661 0.002714 0.000000 0.000000 0.000000
# 2 -0.004661 0.009124 -0.002719 0.000000 0.000000 0.000000
# 3 0.002714 -0.002719 0.020240 0.000000 0.000000 0.000000
# 4 0.000000 0.000000 0.000000 0.047105 0.000000 0.000000
# 5 0.000000 0.000000 0.000000 0.000000 0.145885 0.000000
# 6 0.000000 0.000000 0.000000 0.000000 0.000000 0.010839
#
#
# Mechanical properties :
#
#
# Convention : Reuss Voigt Hill
#
# Bulk Modulus (GPa) = 33.35513 51.87652 42.61582
# Shear Modulus (GPa) = 19.04975 41.72305 30.38640
#
# Velocity S-wave (km/s) = 3.00874 4.45275 3.79996
# Velocity P-wave (km/s) = 5.28398 7.14758 6.28523
#
# Compressibility (1/GPa) = 0.02998039
#
# Stress axis : x y z
#
# Youngs Moduli (GPa) = 100.50397 109.60408 49.40620
#
# Poissons Ratio (x) = 0.51091 -0.13409
# Poissons Ratio (y) = 0.46849 0.13435
# Poissons Ratio (z) = -0.27277 0.29805
#
# Static dielectric constant tensor:
#      x y z
#    x 1.749580 0.000000 0.000000 
#    y 0.000000 1.739340 0.000000 
#    z 0.000000 0.000000 1.796210 
# 
# From -- ./inp_files/35292.got.cif
#   From: 2010.05.17/outbox.cif.g08.bks.cpg/sg63_18_cif.got.tgz:35292.got - 2010.06.03 15:47:04.
