data_PCOD9471495
_publ_section_title
;
Structure prediction by ZEFSAII (Michael W. Deem and Ramdas Pophale) SiO2 
 PCOD9471495
Probable space group: C M C M
;
_chemical_formula_sum "Si O2"
_cell_formula_units_Z 112
_cell_length_a 14.419436
_cell_length_b 12.180143
_cell_length_c 28.656305
_cell_angle_alpha 90.000000
_cell_angle_beta 90.000000
_cell_angle_gamma 90.000000
_cell_volume 5032.929556
_symmetry_space_group_name_H-M "C M C M"
_symmetry_group_IT_number 63
_symmetry_cell_setting 'orthorhombic'
loop_
_space_group_symop_operation_xyz
x,y,z
-x,-y,1/2+z
x,-y,-z
-x,y,1/2-z
-x,-y,-z
x,y,1/2-z
-x,y,z
x,-y,1/2+z
1/2+x,1/2+y,z
1/2-x,1/2-y,1/2+z
1/2+x,1/2-y,-z
1/2-x,1/2+y,1/2-z
1/2-x,1/2-y,-z
1/2+x,1/2+y,1/2-z
1/2-x,1/2+y,z
1/2+x,1/2-y,1/2+z
loop_
_atom_site_type_symbol
_atom_site_label
_atom_site_fract_x
_atom_site_fract_y
_atom_site_fract_z
Si Si1 0.889453 0.793849 0.061875
Si Si2 0.604174 0.534100 0.094526
Si Si3 0.280843 0.133968 0.123967
Si Si4 0.889400 0.406840 0.379445
Si Si5 0.102434 0.065060 0.801454
Si Si6 0.387356 0.122389 0.516387
Si Si7 0.219251 0.277894 0.302093
O O1 0.876053 0.924450 0.064452
O O2 0.837934 0.736466 0.104650
O O3 0.000000 0.778455 0.067420
O O4 0.859887 0.722611 0.017033
O O5 0.500000 0.575317 0.083148
O O6 0.690936 0.613895 0.091747
O O7 0.604477 0.500245 0.149651
O O8 0.248879 0.162359 0.176091
O O9 0.343435 0.026330 0.123715
O O10 0.860258 0.361976 0.430118
O O11 0.852063 0.331515 0.338180
O O12 0.000000 0.415367 0.378072
O O13 0.106279 0.007744 0.750000
O O14 0.188848 0.146704 0.801802
O O15 0.000000 0.120293 0.802499
O O16 0.500000 0.119199 0.514896
O O17 0.356440 0.000000 0.500000
O O18 0.182511 0.270746 0.250000
#
# Coordination Sequence:
#
# PCOD9471495 Si02
#       7
#    16  16  16  16  16  16  16
#     4  10  19  36  62  91 126 160 201 256 311 368
#     4  10  21  37  58  86 120 160 207 254 304 361
#     4  12  21  37  60  93 120 163 207 260 308 370
#     4  11  23  41  66  95 129 164 206 259 317 383
#     4   9  17  33  57  81 108 146 196 251 301 353
#     4   9  17  33  61  97 129 163 204 251 312 381
#     4  11  25  42  60  88 127 164 205 260 320 375
#
# _framework density 22.253440999999999
#
# number of rings (size 3 to 8) (size 9 to 14) (size 15 to 20)
#    0.000    1.714    4.286    0.429    0.000    2.571 
#    0.000    4.286    0.000    0.000    0.000    7.000 
#    0.000    0.000    0.000    0.000    0.000    0.000 
#
# Total GULP energy -312938.131380 kJ/mol
# GULP energy per Si atom -5588.180917 kJ/mol
# Density = 2.220279 g / cm^3
# Si number density = 22.253441 Si / 1000 Ang^3
#
#
#
# Elastic Constant Matrix: (Units=GPa)
#
#
# Indices 1 2 3 4 5 6 
#
# 1 84.6692 33.6191 30.6411 0.0000 0.0000 0.0000
# 2 33.6191 39.8797 29.3567 0.0000 0.0000 0.0000
# 3 30.6411 29.3567 110.6703 0.0000 0.0000 0.0000
# 4 0.0000 0.0000 0.0000 8.7099 0.0000 0.0000
# 5 0.0000 0.0000 0.0000 0.0000 22.3179 0.0000
# 6 0.0000 0.0000 0.0000 0.0000 0.0000 4.9518
#
#
#
# Elastic Compliance Matrix: (Units=1/GPa)
#
#
# Indices 1 2 3 4 5 6 
#
# 1 0.017877 -0.014200 -0.001183 0.000000 0.000000 0.000000
# 2 -0.014200 0.042439 -0.007326 0.000000 0.000000 0.000000
# 3 -0.001183 -0.007326 0.011307 0.000000 0.000000 0.000000
# 4 0.000000 0.000000 0.000000 0.114812 0.000000 0.000000
# 5 0.000000 0.000000 0.000000 0.000000 0.044807 0.000000
# 6 0.000000 0.000000 0.000000 0.000000 0.000000 0.201946
#
#
# Mechanical properties :
#
#
# Convention : Reuss Voigt Hill
#
# Bulk Modulus (GPa) = 38.16031 46.93922 42.54976
# Shear Modulus (GPa) = 10.25978 16.63608 13.44793
#
# Velocity S-wave (km/s) = 2.14952 2.73715 2.46093
# Velocity P-wave (km/s) = 4.83175 5.57926 5.21891
#
# Compressibility (1/GPa) = 0.02620524
#
# Stress axis : x y z
#
# Youngs Moduli (GPa) = 55.93797 23.56333 88.44340
#
# Poissons Ratio (x) = 0.33459 0.10462
# Poissons Ratio (y) = 0.79430 0.64793
# Poissons Ratio (z) = 0.06617 0.17262
#
# Static dielectric constant tensor:
#      x y z
#    x 1.826180 0.000000 0.000000 
#    y 0.000000 1.802190 0.000000 
#    z 0.000000 0.000000 1.844780 
# 
# From -- ./inp_files/73431.got.cif
#   From: 2010.05.17/outbox.cif.g08.bks.cpg/sg63_37_cif.got.tgz:73431.got - 2010.06.03 15:47:04.
