data_PCOD9471824
_publ_section_title
;
Structure prediction by ZEFSAII (Michael W. Deem and Ramdas Pophale) SiO2 
 PCOD9471824
Probable space group: C M C M
;
_chemical_formula_sum "Si O2"
_cell_formula_units_Z 56
_cell_length_a 11.578838
_cell_length_b 28.828041
_cell_length_c 8.505987
_cell_angle_alpha 90.000000
_cell_angle_beta 90.000000
_cell_angle_gamma 90.000000
_cell_volume 2839.257773
_symmetry_space_group_name_H-M "C M C M"
_symmetry_group_IT_number 63
_symmetry_cell_setting 'orthorhombic'
loop_
_space_group_symop_operation_xyz
x,y,z
-x,-y,1/2+z
x,-y,-z
-x,y,1/2-z
-x,-y,-z
x,y,1/2-z
-x,y,z
x,-y,1/2+z
1/2+x,1/2+y,z
1/2-x,1/2-y,1/2+z
1/2+x,1/2-y,-z
1/2-x,1/2+y,1/2-z
1/2-x,1/2-y,-z
1/2+x,1/2+y,1/2-z
1/2-x,1/2+y,z
1/2+x,1/2-y,1/2+z
loop_
_atom_site_type_symbol
_atom_site_label
_atom_site_fract_x
_atom_site_fract_y
_atom_site_fract_z
Si Si1 0.633864 0.724047 0.937052
Si Si2 0.500000 0.448821 0.562740
Si Si3 0.695459 0.623158 0.060315
Si Si4 0.867873 0.548593 0.439380
O O1 0.632610 0.730877 0.750000
O O2 0.500000 0.735678 0.992566
O O3 0.750000 0.750000 0.000000
O O4 0.657825 0.670419 0.979835
O O5 0.500000 0.500000 0.500000
O O6 0.500000 0.451777 0.750000
O O7 0.391698 0.417897 0.516786
O O8 0.691897 0.630615 0.250000
O O9 0.814707 0.598282 0.015617
O O10 0.813846 0.500000 0.500000
O O11 0.861519 0.546473 0.250000
O O12 0.000000 0.548357 0.492260
#
# Coordination Sequence:
#
# PCOD9471824 Si02
#       4
#    16   8  16  16
#     4  11  25  44  67  94 123 160 207 262 322 385
#     4  10  20  32  52  82 116 156 196 242 299 358
#     4  10  20  36  57  82 116 156 198 247 305 365
#     4   9  18  32  51  78 114 155 197 242 294 356
#
# _framework density 19.723465999999998
#
# number of rings (size 3 to 8) (size 9 to 14) (size 15 to 20)
#    0.000    2.000    1.429    1.714    0.000    5.143 
#    0.000    2.857    0.000    0.000    0.000    0.000 
#    0.000    0.000    0.000    0.000    0.000    0.000 
#
# Total GULP energy -155925.439033 kJ/mol
# GULP energy per Si atom -5568.765680 kJ/mol
# Density = 1.967857 g / cm^3
# Si number density = 19.723466 Si / 1000 Ang^3
#
#
#
# Elastic Constant Matrix: (Units=GPa)
#
#
# Indices 1 2 3 4 5 6 
#
# 1 129.8969 66.4788 29.2585 0.0000 0.0000 0.0000
# 2 66.4788 120.6419 20.5252 0.0000 0.0000 0.0000
# 3 29.2585 20.5252 15.2850 0.0000 0.0000 0.0000
# 4 0.0000 0.0000 0.0000 38.8459 0.0000 0.0000
# 5 0.0000 0.0000 0.0000 0.0000 20.3399 0.0000
# 6 0.0000 0.0000 0.0000 0.0000 0.0000 32.0403
#
#
#
# Elastic Compliance Matrix: (Units=1/GPa)
#
#
# Indices 1 2 3 4 5 6 
#
# 1 0.015163 -0.004429 -0.023078 0.000000 0.000000 0.000000
# 2 -0.004429 0.012037 -0.007685 0.000000 0.000000 0.000000
# 3 -0.023078 -0.007685 0.119919 0.000000 0.000000 0.000000
# 4 0.000000 0.000000 0.000000 0.025743 0.000000 0.000000
# 5 0.000000 0.000000 0.000000 0.000000 0.049164 0.000000
# 6 0.000000 0.000000 0.000000 0.000000 0.000000 0.031211
#
#
# Mechanical properties :
#
#
# Convention : Reuss Voigt Hill
#
# Bulk Modulus (GPa) = 13.03193 55.37208 34.20201
# Shear Modulus (GPa) = 14.31840 28.21597 21.26719
#
# Velocity S-wave (km/s) = 2.69728 3.78640 3.28726
# Velocity P-wave (km/s) = 4.04006 6.87393 5.63795
#
# Compressibility (1/GPa) = 0.07673461
#
# Stress axis : x y z
#
# Youngs Moduli (GPa) = 65.94802 83.07512 8.33896
#
# Poissons Ratio (x) = 0.36797 0.19245
# Poissons Ratio (y) = 0.29211 0.06409
# Poissons Ratio (z) = 1.52194 0.63846
#
# Static dielectric constant tensor:
#      x y z
#    x 2.339430 0.000000 0.000000 
#    y 0.000000 1.751810 0.000000 
#    z 0.000000 0.000000 1.686640 
# 
# From -- ./inp_files/2812.got.cif
#   From: 2010.05.17/outbox.cif.g08.bks.cpg/sg63_2_cif.got.tgz:2812.got - 2010.06.03 15:47:04.
