data_PCOD9471180
_publ_section_title
;
Structure prediction by ZEFSAII (Michael W. Deem and Ramdas Pophale) SiO2 
 PCOD9471180
Probable space group: C M C M
;
_chemical_formula_sum "Si O2"
_cell_formula_units_Z 64
_cell_length_a 24.263587
_cell_length_b 8.621085
_cell_length_c 16.814487
_cell_angle_alpha 90.000000
_cell_angle_beta 90.000000
_cell_angle_gamma 90.000000
_cell_volume 3517.228260
_symmetry_space_group_name_H-M "C M C M"
_symmetry_group_IT_number 63
_symmetry_cell_setting 'orthorhombic'
loop_
_space_group_symop_operation_xyz
x,y,z
-x,-y,1/2+z
x,-y,-z
-x,y,1/2-z
-x,-y,-z
x,y,1/2-z
-x,y,z
x,-y,1/2+z
1/2+x,1/2+y,z
1/2-x,1/2-y,1/2+z
1/2+x,1/2-y,-z
1/2-x,1/2+y,1/2-z
1/2-x,1/2-y,-z
1/2+x,1/2+y,1/2-z
1/2-x,1/2+y,z
1/2+x,1/2-y,1/2+z
loop_
_atom_site_type_symbol
_atom_site_label
_atom_site_fract_x
_atom_site_fract_y
_atom_site_fract_z
Si Si1 0.688931 0.316215 0.488372
Si Si2 0.395925 0.102963 0.921096
Si Si3 0.500000 0.696442 0.086740
Si Si4 0.000000 0.838564 0.394651
Si Si5 0.118593 0.708253 0.340800
O O1 0.688015 0.500000 0.500000
O O2 0.750000 0.250000 0.500000
O O3 0.650711 0.221615 0.550052
O O4 0.661372 0.282419 0.402809
O O5 0.446750 0.204279 0.892023
O O6 0.378438 0.975809 0.857225
O O7 0.411144 0.000000 0.000000
O O8 0.500000 0.523166 0.120702
O O9 0.500000 0.681915 0.990266
O O10 0.943812 0.763446 0.361654
O O11 0.130647 0.746526 0.250000
#
# Coordination Sequence:
#
# PCOD9471180 Si02
#       5
#    16  16   8   8  16
#     4  11  22  41  65  88 112 154 205 249 288 354
#     4  10  19  34  59  85 115 154 200 238 287 352
#     4  11  18  32  58  91 116 161 207 244 276 355
#     4  11  20  33  59  90 127 157 199 242 297 351
#     4  11  23  39  59  90 126 158 192 249 307 350
#
# _framework density 18.196145000000001
#
# number of rings (size 3 to 8) (size 9 to 14) (size 15 to 20)
#    0.000    1.250    5.000    5.250    0.000    0.000 
#    0.000   11.250    0.000    0.000    0.000    0.000 
#    0.000    0.000    0.000    0.000    0.000    0.000 
#
# Total GULP energy -178700.480600 kJ/mol
# GULP energy per Si atom -5584.390019 kJ/mol
# Density = 1.815473 g / cm^3
# Si number density = 18.196145 Si / 1000 Ang^3
#
#
#
# Elastic Constant Matrix: (Units=GPa)
#
#
# Indices 1 2 3 4 5 6 
#
# 1 156.2199 80.2231 60.8469 0.0000 0.0000 0.0000
# 2 80.2231 176.1017 38.1971 0.0000 0.0000 0.0000
# 3 60.8469 38.1971 84.4366 0.0000 0.0000 0.0000
# 4 0.0000 0.0000 0.0000 11.6233 0.0000 0.0000
# 5 0.0000 0.0000 0.0000 0.0000 4.9600 0.0000
# 6 0.0000 0.0000 0.0000 0.0000 0.0000 36.6884
#
#
#
# Elastic Compliance Matrix: (Units=1/GPa)
#
#
# Indices 1 2 3 4 5 6 
#
# 1 0.010539 -0.003497 -0.006013 0.000000 0.000000 0.000000
# 2 -0.003497 0.007457 -0.000853 0.000000 0.000000 0.000000
# 3 -0.006013 -0.000853 0.016562 0.000000 0.000000 0.000000
# 4 0.000000 0.000000 0.000000 0.086034 0.000000 0.000000
# 5 0.000000 0.000000 0.000000 0.000000 0.201615 0.000000
# 6 0.000000 0.000000 0.000000 0.000000 0.000000 0.027257
#
#
# Mechanical properties :
#
#
# Convention : Reuss Voigt Hill
#
# Bulk Modulus (GPa) = 72.29624 86.14359 79.21992
# Shear Modulus (GPa) = 13.34047 26.48706 19.91377
#
# Velocity S-wave (km/s) = 2.71061 3.81943 3.31175
# Velocity P-wave (km/s) = 7.04375 8.17894 7.63248
#
# Compressibility (1/GPa) = 0.01383198
#
# Stress axis : x y z
#
# Youngs Moduli (GPa) = 94.88721 134.10957 60.37892
#
# Poissons Ratio (x) = 0.46895 0.36304
# Poissons Ratio (y) = 0.33180 0.05152
# Poissons Ratio (z) = 0.57052 0.11444
#
# Static dielectric constant tensor:
#      x y z
#    x 1.597290 0.000000 0.000000 
#    y 0.000000 1.627010 0.000000 
#    z 0.000000 0.000000 1.627810 
# 
# From -- ./inp_files/46579.got.cif
#   From: 2010.05.17/outbox.cif.g08.bks.cpg/sg63_24_cif.got.tgz:46579.got - 2010.06.03 15:47:04.
