data_PCOD9471940
_publ_section_title
;
Structure prediction by ZEFSAII (Michael W. Deem and Ramdas Pophale) SiO2 
 PCOD9471940
Probable space group: C M C M
;
_chemical_formula_sum "Si O2"
_cell_formula_units_Z 64
_cell_length_a 24.802618
_cell_length_b 13.025080
_cell_length_c 8.905248
_cell_angle_alpha 90.000000
_cell_angle_beta 90.000000
_cell_angle_gamma 90.000000
_cell_volume 2876.894543
_symmetry_space_group_name_H-M "C M C M"
_symmetry_group_IT_number 63
_symmetry_cell_setting 'orthorhombic'
loop_
_space_group_symop_operation_xyz
x,y,z
-x,-y,1/2+z
x,-y,-z
-x,y,1/2-z
-x,-y,-z
x,y,1/2-z
-x,y,z
x,-y,1/2+z
1/2+x,1/2+y,z
1/2-x,1/2-y,1/2+z
1/2+x,1/2-y,-z
1/2-x,1/2+y,1/2-z
1/2-x,1/2-y,-z
1/2+x,1/2+y,1/2-z
1/2-x,1/2+y,z
1/2+x,1/2-y,1/2+z
loop_
_atom_site_type_symbol
_atom_site_label
_atom_site_fract_x
_atom_site_fract_y
_atom_site_fract_z
Si Si1 0.563713 0.601428 0.081265
Si Si2 0.670922 0.826403 0.428885
Si Si3 0.560796 0.821382 0.570945
Si Si4 0.782403 0.104533 0.428211
O O1 0.586601 0.618037 0.250000
O O2 0.500000 0.583659 0.101597
O O3 0.584539 0.500000 0.000000
O O4 0.565469 0.702375 0.979191
O O5 0.672251 0.840114 0.250000
O O6 0.614112 0.866458 0.493057
O O7 0.722992 0.877098 0.503782
O O8 0.681239 0.704651 0.461822
O O9 0.564381 0.831532 0.750000
O O10 0.500000 0.856022 0.524048
O O11 0.778089 0.095179 0.250000
O O12 0.802662 0.000000 0.500000
#
# Coordination Sequence:
#
# PCOD9471940 Si02
#       4
#    16  16  16  16
#     4   9  16  26  40  59  87 126 172 218 263 315
#     4  10  21  37  58  85 116 150 190 235 282 337
#     4  10  20  33  50  74 107 147 187 228 276 331
#     4  10  21  38  61  87 114 146 186 235 289 341
#
# _framework density 22.246207999999999
#
# number of rings (size 3 to 8) (size 9 to 14) (size 15 to 20)
#    0.000    2.250    0.000    3.000    0.000    8.500 
#    0.000    2.500    0.000    0.750    0.000    0.000 
#    0.000    0.000    0.000    0.000    0.000    0.000 
#
# Total GULP energy -178733.324351 kJ/mol
# GULP energy per Si atom -5585.416386 kJ/mol
# Density = 2.219557 g / cm^3
# Si number density = 22.246208 Si / 1000 Ang^3
#
#
#
# Elastic Constant Matrix: (Units=GPa)
#
#
# Indices 1 2 3 4 5 6 
#
# 1 220.1263 13.4750 62.7757 0.0000 0.0000 0.0000
# 2 13.4750 48.9262 15.2869 0.0000 0.0000 0.0000
# 3 62.7757 15.2869 86.9510 0.0000 0.0000 0.0000
# 4 0.0000 0.0000 0.0000 22.1203 0.0000 0.0000
# 5 0.0000 0.0000 0.0000 0.0000 27.1499 0.0000
# 6 0.0000 0.0000 0.0000 0.0000 0.0000 -4.9661
#
#
#
# Elastic Compliance Matrix: (Units=1/GPa)
#
#
# Indices 1 2 3 4 5 6 
#
# 1 0.005725 -0.000302 -0.004080 0.000000 0.000000 0.000000
# 2 -0.000302 0.021643 -0.003587 0.000000 0.000000 0.000000
# 3 -0.004080 -0.003587 0.015077 0.000000 0.000000 0.000000
# 4 0.000000 0.000000 0.000000 0.045207 0.000000 0.000000
# 5 0.000000 0.000000 0.000000 0.000000 0.036833 0.000000
# 6 0.000000 0.000000 0.000000 0.000000 0.000000 -0.201365
#
#
# Mechanical properties :
#
#
# Convention : Reuss Voigt Hill
#
# Bulk Modulus (GPa) = 37.72636 59.89763 48.81200
# Shear Modulus (GPa) = -95.95685 26.49188 -34.73249
#
# Velocity S-wave (km/s) = -6.57477 3.45461 -3.95559
# Velocity P-wave (km/s) = 6.37507 6.54949 1.06167
#
# Compressibility (1/GPa) = 0.02650667
#
# Stress axis : x y z
#
# Youngs Moduli (GPa) = 174.67571 46.20464 66.32589
#
# Poissons Ratio (x) = 0.01395 0.27062
# Poissons Ratio (y) = 0.05273 0.23792
# Poissons Ratio (z) = 0.71270 0.16574
#
# Static dielectric constant tensor:
#      x y z
#    x 1.880060 0.000000 0.000000 
#    y 0.000000 1.833880 0.000000 
#    z 0.000000 0.000000 8.895910 
# 
# From -- ./inp_files/9597.got.cif
#   From: 2010.05.17/outbox.cif.g08.bks.cpg/sg63_5_cif.got.tgz:9597.got - 2010.06.03 15:47:04.
