data_PCOD9471128
_publ_section_title
;
Structure prediction by ZEFSAII (Michael W. Deem and Ramdas Pophale) SiO2 
 PCOD9471128
Probable space group: C M C M
;
_chemical_formula_sum "Si O2"
_cell_formula_units_Z 112
_cell_length_a 15.057116
_cell_length_b 24.325277
_cell_length_c 14.193070
_cell_angle_alpha 90.000000
_cell_angle_beta 90.000000
_cell_angle_gamma 90.000000
_cell_volume 5198.474708
_symmetry_space_group_name_H-M "C M C M"
_symmetry_group_IT_number 63
_symmetry_cell_setting 'orthorhombic'
loop_
_space_group_symop_operation_xyz
x,y,z
-x,-y,1/2+z
x,-y,-z
-x,y,1/2-z
-x,-y,-z
x,y,1/2-z
-x,y,z
x,-y,1/2+z
1/2+x,1/2+y,z
1/2-x,1/2-y,1/2+z
1/2+x,1/2-y,-z
1/2-x,1/2+y,1/2-z
1/2-x,1/2-y,-z
1/2+x,1/2+y,1/2-z
1/2-x,1/2+y,z
1/2+x,1/2-y,1/2+z
loop_
_atom_site_type_symbol
_atom_site_label
_atom_site_fract_x
_atom_site_fract_y
_atom_site_fract_z
Si Si1 0.843273 0.038843 0.854690
Si Si2 0.905707 0.122168 0.500145
Si Si3 0.273815 0.584067 0.357739
Si Si4 0.216676 0.742575 0.641308
Si Si5 0.897814 0.758041 0.458394
Si Si6 0.670446 0.884466 0.146718
Si Si7 0.401875 0.936851 0.966135
O O1 0.881403 0.046165 0.750000
O O2 0.748993 0.070685 0.857208
O O3 0.822584 0.974974 0.868935
O O4 0.898051 0.068732 0.934904
O O5 0.824508 0.123465 0.428690
O O6 0.903772 0.176833 0.562640
O O7 0.000000 0.121576 0.448136
O O8 0.279070 0.600796 0.250000
O O9 0.173986 0.576800 0.392247
O O10 0.202295 0.759814 0.750000
O O11 0.138660 0.755517 0.566081
O O12 0.313582 0.762935 0.603344
O O13 0.213423 0.675749 0.640618
O O14 0.000000 0.736168 0.448875
O O15 0.626586 0.889056 0.250000
O O16 0.610139 0.898152 0.057514
O O17 0.500000 0.930799 0.926420
O O18 0.390788 0.000000 0.000000
#
# Coordination Sequence:
#
# PCOD9471128 Si02
#       7
#    16  16  16  16  16  16  16
#     4  10  19  34  57  84 114 147 185 233 285 334
#     4  11  22  38  60  84 115 154 192 231 283 340
#     4  11  22  37  55  77 115 158 197 238 277 328
#     4  10  21  39  64  88 114 150 190 235 290 347
#     4  10  22  39  60  89 120 149 189 239 287 342
#     4  10  19  36  60  85 113 145 185 235 289 340
#     4  11  21  34  54  80 111 147 187 232 287 342
#
# _framework density 21.544781
#
# number of rings (size 3 to 8) (size 9 to 14) (size 15 to 20)
#    0.000    1.571    4.286    0.429    0.000    4.000 
#    0.000    7.143    0.000    0.000    0.000    4.000 
#    0.000    0.000    0.000    0.000    0.000    0.000 
#
# Total GULP energy -312595.972744 kJ/mol
# GULP energy per Si atom -5582.070942 kJ/mol
# Density = 2.149574 g / cm^3
# Si number density = 21.544781 Si / 1000 Ang^3
#
#
#
# Elastic Constant Matrix: (Units=GPa)
#
#
# Indices 1 2 3 4 5 6 
#
# 1 107.5453 -9.1666 16.6555 0.0000 0.0000 0.0000
# 2 -9.1666 37.0466 -4.0008 0.0000 0.0000 0.0000
# 3 16.6555 -4.0008 81.4305 0.0000 0.0000 0.0000
# 4 0.0000 0.0000 0.0000 22.4654 0.0000 0.0000
# 5 0.0000 0.0000 0.0000 0.0000 -11.9331 0.0000
# 6 0.0000 0.0000 0.0000 0.0000 0.0000 15.9775
#
#
#
# Elastic Compliance Matrix: (Units=1/GPa)
#
#
# Indices 1 2 3 4 5 6 
#
# 1 0.009780 0.002216 -0.001892 0.000000 0.000000 0.000000
# 2 0.002216 0.027639 0.000905 0.000000 0.000000 0.000000
# 3 -0.001892 0.000905 0.012712 0.000000 0.000000 0.000000
# 4 0.000000 0.000000 0.000000 0.044513 0.000000 0.000000
# 5 0.000000 0.000000 0.000000 0.000000 -0.083801 0.000000
# 6 0.000000 0.000000 0.000000 0.000000 0.000000 0.062588
#
#
# Mechanical properties :
#
#
# Convention : Reuss Voigt Hill
#
# Bulk Modulus (GPa) = 19.01548 25.88873 22.45211
# Shear Modulus (GPa) = 56.49519 20.13758 38.31639
#
# Velocity S-wave (km/s) = 5.12632 3.06058 4.22175
# Velocity P-wave (km/s) = 6.62450 4.95296 5.84876
#
# Compressibility (1/GPa) = 0.05258872
#
# Stress axis : x y z
#
# Youngs Moduli (GPa) = 102.24734 36.18078 78.66737
#
# Poissons Ratio (x) = -0.08017 0.14880
# Poissons Ratio (y) = -0.22655 -0.07117
# Poissons Ratio (z) = 0.19341 -0.03273
#
# Static dielectric constant tensor:
#      x y z
#    x 1.795870 0.000000 0.000000 
#    y 0.000000 1.812860 0.000000 
#    z 0.000000 0.000000 1.778650 
# 
# From -- ./inp_files/32261.got.cif
#   From: 2010.05.17/outbox.cif.g08.bks.cpg/sg63_17_cif.got.tgz:32261.got - 2010.06.03 15:47:04.
