data_PCOD9471036
_publ_section_title
;
Structure prediction by ZEFSAII (Michael W. Deem and Ramdas Pophale) SiO2 
 PCOD9471036
Probable space group: C M C M
;
_chemical_formula_sum "Si O2"
_cell_formula_units_Z 112
_cell_length_a 35.086311
_cell_length_b 9.455576
_cell_length_c 14.607484
_cell_angle_alpha 90.000000
_cell_angle_beta 90.000000
_cell_angle_gamma 90.000000
_cell_volume 4846.197593
_symmetry_space_group_name_H-M "C M C M"
_symmetry_group_IT_number 63
_symmetry_cell_setting 'orthorhombic'
loop_
_space_group_symop_operation_xyz
x,y,z
-x,-y,1/2+z
x,-y,-z
-x,y,1/2-z
-x,-y,-z
x,y,1/2-z
-x,y,z
x,-y,1/2+z
1/2+x,1/2+y,z
1/2-x,1/2-y,1/2+z
1/2+x,1/2-y,-z
1/2-x,1/2+y,1/2-z
1/2-x,1/2-y,-z
1/2+x,1/2+y,1/2-z
1/2-x,1/2+y,z
1/2+x,1/2-y,1/2+z
loop_
_atom_site_type_symbol
_atom_site_label
_atom_site_fract_x
_atom_site_fract_y
_atom_site_fract_z
Si Si1 0.416986 0.540697 0.360051
Si Si2 0.660374 0.349126 0.860010
Si Si3 0.200144 0.548786 0.396916
Si Si4 0.044144 0.196170 0.979028
Si Si5 0.622706 0.048907 0.896505
Si Si6 0.261196 0.754863 0.356215
Si Si7 0.541848 0.960429 0.851373
O O1 0.422296 0.559139 0.250000
O O2 0.371450 0.534140 0.380254
O O3 0.436851 0.402826 0.401631
O O4 0.434970 0.662752 0.425300
O O5 0.663724 0.344827 0.750000
O O6 0.703507 0.338948 0.894964
O O7 0.640541 0.203807 0.890092
O O8 0.194361 0.500000 0.500000
O O9 0.157437 0.547237 0.356207
O O10 0.222222 0.696762 0.398043
O O11 0.226365 0.419255 0.359640
O O12 0.045144 0.350859 0.934873
O O13 0.000000 0.159431 0.990681
O O14 0.581392 0.043660 0.851432
O O15 0.616728 0.000000 0.000000
O O16 0.256308 0.719291 0.250000
O O17 0.540571 0.889973 0.750000
O O18 0.500000 0.033593 0.860853
#
# Coordination Sequence:
#
# PCOD9471036 Si02
#       7
#    16  16  16  16  16  16  16
#     4  10  19  34  55  79 107 144 190 233 283 349
#     4   9  19  35  54  76 110 146 180 228 288 337
#     4  10  21  38  59  87 120 155 198 243 298 355
#     4  10  21  36  54  79 111 145 186 238 295 346
#     4  10  20  36  59  82 111 149 189 234 287 347
#     4  10  20  37  58  83 116 155 193 239 294 350
#     4  10  21  37  56  80 113 150 190 239 292 343
#
# _framework density 23.110900999999998
#
# number of rings (size 3 to 8) (size 9 to 14) (size 15 to 20)
#    0.000    2.143    0.000    3.429    0.000    3.714 
#    5.143    1.429    0.000    1.714    0.000    0.000 
#    0.000    0.000    0.000    0.000    0.000    0.000 
#
# Total GULP energy -312217.808179 kJ/mol
# GULP energy per Si atom -5575.318003 kJ/mol
# Density = 2.305830 g / cm^3
# Si number density = 23.110901 Si / 1000 Ang^3
#
#
#
# Elastic Constant Matrix: (Units=GPa)
#
#
# Indices 1 2 3 4 5 6 
#
# 1 149.3503 32.9035 22.0526 0.0000 0.0000 0.0000
# 2 32.9035 33.5778 3.3141 0.0000 0.0000 0.0000
# 3 22.0526 3.3141 106.1434 0.0000 0.0000 0.0000
# 4 0.0000 0.0000 0.0000 23.9840 0.0000 0.0000
# 5 0.0000 0.0000 0.0000 0.0000 -19.5235 0.0000
# 6 0.0000 0.0000 0.0000 0.0000 0.0000 38.4665
#
#
#
# Elastic Compliance Matrix: (Units=1/GPa)
#
#
# Indices 1 2 3 4 5 6 
#
# 1 0.008790 -0.008459 -0.001562 0.000000 0.000000 0.000000
# 2 -0.008459 0.038015 0.000571 0.000000 0.000000 0.000000
# 3 -0.001562 0.000571 0.009728 0.000000 0.000000 0.000000
# 4 0.000000 0.000000 0.000000 0.041695 0.000000 0.000000
# 5 0.000000 0.000000 0.000000 0.000000 -0.051220 0.000000
# 6 0.000000 0.000000 0.000000 0.000000 0.000000 0.025997
#
#
# Mechanical properties :
#
#
# Convention : Reuss Voigt Hill
#
# Bulk Modulus (GPa) = 26.57385 45.06798 35.82092
# Shear Modulus (GPa) = 47.87039 23.97215 35.92127
#
# Velocity S-wave (km/s) = 4.55613 3.22416 3.94674
# Velocity P-wave (km/s) = 6.26108 5.77956 6.02513
#
# Compressibility (1/GPa) = 0.03763098
#
# Stress axis : x y z
#
# Youngs Moduli (GPa) = 113.76566 26.30565 102.79658
#
# Poissons Ratio (x) = 0.22253 0.16058
# Poissons Ratio (y) = 0.96238 -0.05865
# Poissons Ratio (z) = 0.17771 -0.01501
#
# Static dielectric constant tensor:
#      x y z
#    x 1.949610 0.000000 0.000000 
#    y 0.000000 1.923160 0.000000 
#    z 0.000000 0.000000 1.879370 
# 
# From -- ./inp_files/38575.got.cif
#   From: 2010.05.17/outbox.cif.g08.bks.cpg/sg63_20_cif.got.tgz:38575.got - 2010.06.03 15:47:04.
