data_PCOD9471249
_publ_section_title
;
Structure prediction by ZEFSAII (Michael W. Deem and Ramdas Pophale) SiO2 
 PCOD9471249
Probable space group: C M C M
;
_chemical_formula_sum "Si O2"
_cell_formula_units_Z 112
_cell_length_a 27.991853
_cell_length_b 15.729315
_cell_length_c 14.910666
_cell_angle_alpha 90.000000
_cell_angle_beta 90.000000
_cell_angle_gamma 90.000000
_cell_volume 6565.056993
_symmetry_space_group_name_H-M "C M C M"
_symmetry_group_IT_number 63
_symmetry_cell_setting 'orthorhombic'
loop_
_space_group_symop_operation_xyz
x,y,z
-x,-y,1/2+z
x,-y,-z
-x,y,1/2-z
-x,-y,-z
x,y,1/2-z
-x,y,z
x,-y,1/2+z
1/2+x,1/2+y,z
1/2-x,1/2-y,1/2+z
1/2+x,1/2-y,-z
1/2-x,1/2+y,1/2-z
1/2-x,1/2-y,-z
1/2+x,1/2+y,1/2-z
1/2-x,1/2+y,z
1/2+x,1/2-y,1/2+z
loop_
_atom_site_type_symbol
_atom_site_label
_atom_site_fract_x
_atom_site_fract_y
_atom_site_fract_z
Si Si1 0.261528 0.630534 0.152697
Si Si2 0.641774 0.740012 0.526074
Si Si3 0.054181 0.992608 0.392414
Si Si4 0.871369 0.864906 0.652406
Si Si5 0.699150 0.909425 0.015113
Si Si6 0.054670 0.206248 0.645442
Si Si7 0.270137 0.674440 0.854474
O O1 0.240731 0.607515 0.250000
O O2 0.316542 0.605090 0.150918
O O3 0.234984 0.592904 0.068978
O O4 0.256187 0.733124 0.144203
O O5 0.624938 0.691759 0.436444
O O6 0.664737 0.829130 0.497159
O O7 0.595962 0.750549 0.589200
O O8 0.682978 0.688455 0.582420
O O9 0.062689 0.895266 0.365282
O O10 0.000000 0.014855 0.364839
O O11 0.056742 0.000000 0.500000
O O12 0.092486 0.057115 0.353795
O O13 0.878152 0.821450 0.750000
O O14 0.732863 0.891489 0.101399
O O15 0.674235 0.000000 0.000000
O O16 0.058196 0.227907 0.750000
O O17 0.000000 0.222819 0.615222
O O18 0.281889 0.655675 0.750000
#
# Coordination Sequence:
#
# PCOD9471249 Si02
#       7
#    16  16  16  16  16  16  16
#     4   9  18  34  52  73 100 138 181 215 258 310
#     4  11  20  37  56  78 106 142 182 219 264 315
#     4  10  20  34  52  78 112 143 171 214 264 312
#     4  11  20  31  53  76 105 145 182 215 255 311
#     4  11  22  35  53  78 108 139 178 226 269 312
#     4  10  21  37  57  79 106 140 177 218 264 316
#     4  10  19  35  56  75 102 141 178 221 264 312
#
# _framework density 17.060020000000002
#
# number of rings (size 3 to 8) (size 9 to 14) (size 15 to 20)
#    0.000    1.714    4.286    1.714    0.000    3.714 
#    0.000    1.429    0.000    0.429    0.000    0.000 
#    0.000    0.000    0.000    0.000    0.000    0.000 
#
# Total GULP energy -312267.735258 kJ/mol
# GULP energy per Si atom -5576.209558 kJ/mol
# Density = 1.702119 g / cm^3
# Si number density = 17.060020 Si / 1000 Ang^3
#
#
#
# Elastic Constant Matrix: (Units=GPa)
#
#
# Indices 1 2 3 4 5 6 
#
# 1 59.2983 7.3171 21.5379 0.0000 0.0000 0.0000
# 2 7.3171 27.9899 12.2051 0.0000 0.0000 0.0000
# 3 21.5379 12.2051 95.0217 0.0000 0.0000 0.0000
# 4 0.0000 0.0000 0.0000 12.5712 0.0000 0.0000
# 5 0.0000 0.0000 0.0000 0.0000 24.4161 0.0000
# 6 0.0000 0.0000 0.0000 0.0000 0.0000 17.1241
#
#
#
# Elastic Compliance Matrix: (Units=1/GPa)
#
#
# Indices 1 2 3 4 5 6 
#
# 1 0.018645 -0.003211 -0.003814 0.000000 0.000000 0.000000
# 2 -0.003211 0.038400 -0.004204 0.000000 0.000000 0.000000
# 3 -0.003814 -0.004204 0.011928 0.000000 0.000000 0.000000
# 4 0.000000 0.000000 0.000000 0.079547 0.000000 0.000000
# 5 0.000000 0.000000 0.000000 0.000000 0.040957 0.000000
# 6 0.000000 0.000000 0.000000 0.000000 0.000000 0.058397
#
#
# Mechanical properties :
#
#
# Convention : Reuss Voigt Hill
#
# Bulk Modulus (GPa) = 21.49849 29.38111 25.43980
# Shear Modulus (GPa) = 17.49241 20.23893 18.86567
#
# Velocity S-wave (km/s) = 3.20558 3.44806 3.32903
# Velocity P-wave (km/s) = 5.13128 5.75428 5.45169
#
# Compressibility (1/GPa) = 0.04651489
#
# Stress axis : x y z
#
# Youngs Moduli (GPa) = 53.63273 26.04168 83.83365
#
# Poissons Ratio (x) = 0.08363 0.31972
# Poissons Ratio (y) = 0.17223 0.35247
# Poissons Ratio (z) = 0.20454 0.10949
#
# Static dielectric constant tensor:
#      x y z
#    x 1.569610 0.000000 0.000000 
#    y 0.000000 1.590050 0.000000 
#    z 0.000000 0.000000 1.623240 
# 
# From -- ./inp_files/37953.got.cif
#   From: 2010.05.17/outbox.cif.g08.bks.cpg/sg63_19_cif.got.tgz:37953.got - 2010.06.03 15:47:04.
