data_PCOD9471633
_publ_section_title
;
Structure prediction by ZEFSAII (Michael W. Deem and Ramdas Pophale) SiO2 
 PCOD9471633
Probable space group: C M C M
;
_chemical_formula_sum "Si O2"
_cell_formula_units_Z 96
_cell_length_a 9.768641
_cell_length_b 32.335939
_cell_length_c 14.759337
_cell_angle_alpha 90.000000
_cell_angle_beta 90.000000
_cell_angle_gamma 90.000000
_cell_volume 4662.152502
_symmetry_space_group_name_H-M "C M C M"
_symmetry_group_IT_number 63
_symmetry_cell_setting 'orthorhombic'
loop_
_space_group_symop_operation_xyz
x,y,z
-x,-y,1/2+z
x,-y,-z
-x,y,1/2-z
-x,-y,-z
x,y,1/2-z
-x,y,z
x,-y,1/2+z
1/2+x,1/2+y,z
1/2-x,1/2-y,1/2+z
1/2+x,1/2-y,-z
1/2-x,1/2+y,1/2-z
1/2-x,1/2-y,-z
1/2+x,1/2+y,1/2-z
1/2-x,1/2+y,z
1/2+x,1/2-y,1/2+z
loop_
_atom_site_type_symbol
_atom_site_label
_atom_site_fract_x
_atom_site_fract_y
_atom_site_fract_z
Si Si1 0.658558 0.041795 0.386651
Si Si2 0.652784 0.380175 0.856064
Si Si3 0.344177 0.138830 0.641435
Si Si4 0.657617 0.193041 0.360872
Si Si5 0.657440 0.713892 0.639316
Si Si6 0.342571 0.951315 0.396148
O O1 0.500000 0.047364 0.356269
O O2 0.759461 0.077995 0.358921
O O3 0.654429 0.044390 0.495652
O O4 0.709020 0.995636 0.360959
O O5 0.637341 0.370321 0.750000
O O6 0.500000 0.384394 0.895422
O O7 0.742645 0.342727 0.895165
O O8 0.353041 0.142984 0.750000
O O9 0.500000 0.139630 0.604650
O O10 0.255859 0.177350 0.607825
O O11 0.280310 0.093360 0.624657
O O12 0.657254 0.192097 0.250000
O O13 0.500000 0.185793 0.388285
O O14 0.699252 0.239567 0.387439
O O15 0.658106 0.713335 0.750000
O O16 0.500000 0.707330 0.611236
O O17 0.500000 0.948866 0.363115
#
# Coordination Sequence:
#
# PCOD9471633 Si02
#       6
#    16  16  16  16  16  16
#     4   9  17  32  52  67  85 119 159 192 222 264
#     4  10  20  31  44  68  99 121 143 185 234 272
#     4   9  16  26  43  68  95 119 144 179 225 271
#     4   8  14  26  44  64  87 118 153 183 215 262
#     4   8  14  25  41  63  91 119 148 182 217 259
#     4   8  16  31  49  69  90 116 154 193 224 260
#
# _framework density 20.591348
#
# number of rings (size 3 to 8) (size 9 to 14) (size 15 to 20)
#    0.000    3.333    0.000    2.500    0.000    2.333 
#    0.000    8.333    0.000    3.000    0.000    0.000 
#    0.000    0.000    0.000    0.000    0.000    0.000 
#
# Total GULP energy -267458.571852 kJ/mol
# GULP energy per Si atom -5572.053580 kJ/mol
# Density = 2.054448 g / cm^3
# Si number density = 20.591348 Si / 1000 Ang^3
#
#
#
# Elastic Constant Matrix: (Units=GPa)
#
#
# Indices 1 2 3 4 5 6 
#
# 1 102.7885 116.4591 2.5334 0.0000 0.0000 0.0000
# 2 116.4591 228.4108 -0.6044 0.0000 0.0000 0.0000
# 3 2.5334 -0.6044 39.8838 0.0000 0.0000 0.0000
# 4 0.0000 0.0000 0.0000 36.2687 0.0000 0.0000
# 5 0.0000 0.0000 0.0000 0.0000 5.7232 0.0000
# 6 0.0000 0.0000 0.0000 0.0000 0.0000 14.6850
#
#
#
# Elastic Compliance Matrix: (Units=1/GPa)
#
#
# Indices 1 2 3 4 5 6 
#
# 1 0.023144 -0.011805 -0.001649 0.000000 0.000000 0.000000
# 2 -0.011805 0.010399 0.000907 0.000000 0.000000 0.000000
# 3 -0.001649 0.000907 0.025191 0.000000 0.000000 0.000000
# 4 0.000000 0.000000 0.000000 0.027572 0.000000 0.000000
# 5 0.000000 0.000000 0.000000 0.000000 0.174727 0.000000
# 6 0.000000 0.000000 0.000000 0.000000 0.000000 0.068097
#
#
# Mechanical properties :
#
#
# Convention : Reuss Voigt Hill
#
# Bulk Modulus (GPa) = 29.72464 67.53995 48.63229
# Shear Modulus (GPa) = 13.68224 28.18169 20.93197
#
# Velocity S-wave (km/s) = 2.58052 3.70350 3.19178
# Velocity P-wave (km/s) = 4.83173 7.15257 6.10348
#
# Compressibility (1/GPa) = 0.03364212
#
# Stress axis : x y z
#
# Youngs Moduli (GPa) = 43.20738 96.15973 39.69615
#
# Poissons Ratio (x) = 1.13515 0.06546
# Poissons Ratio (y) = 0.51006 -0.03602
# Poissons Ratio (z) = 0.07125 -0.08726
#
# Static dielectric constant tensor:
#      x y z
#    x 1.722600 0.000000 0.000000 
#    y 0.000000 1.756600 0.000000 
#    z 0.000000 0.000000 1.794390 
# 
# From -- ./inp_files/60259.got.cif
#   From: 2010.05.17/outbox.cif.g08.bks.cpg/sg63_31_cif.got.tgz:60259.got - 2010.06.03 15:47:04.
