data_PCOD9471918
_publ_section_title
;
Structure prediction by ZEFSAII (Michael W. Deem and Ramdas Pophale) SiO2 
 PCOD9471918
Probable space group: C M C M
;
_chemical_formula_sum "Si O2"
_cell_formula_units_Z 80
_cell_length_a 10.730102
_cell_length_b 25.919178
_cell_length_c 14.326922
_cell_angle_alpha 90.000000
_cell_angle_beta 90.000000
_cell_angle_gamma 90.000000
_cell_volume 3984.537982
_symmetry_space_group_name_H-M "C M C M"
_symmetry_group_IT_number 63
_symmetry_cell_setting 'orthorhombic'
loop_
_space_group_symop_operation_xyz
x,y,z
-x,-y,1/2+z
x,-y,-z
-x,y,1/2-z
-x,-y,-z
x,y,1/2-z
-x,y,z
x,-y,1/2+z
1/2+x,1/2+y,z
1/2-x,1/2-y,1/2+z
1/2+x,1/2-y,-z
1/2-x,1/2+y,1/2-z
1/2-x,1/2-y,-z
1/2+x,1/2+y,1/2-z
1/2-x,1/2+y,z
1/2+x,1/2-y,1/2+z
loop_
_atom_site_type_symbol
_atom_site_label
_atom_site_fract_x
_atom_site_fract_y
_atom_site_fract_z
Si Si1 0.358850 0.864129 0.946823
Si Si2 0.731017 0.849840 0.143490
Si Si3 0.354625 0.971575 0.636929
Si Si4 0.143725 0.739167 0.359919
Si Si5 0.135528 0.046673 0.860875
O O1 0.500000 0.862657 0.909681
O O2 0.308057 0.917409 0.906100
O O3 0.300211 0.810526 0.911856
O O4 0.358881 0.862950 0.058411
O O5 0.682964 0.855471 0.250000
O O6 0.781439 0.792132 0.130533
O O7 0.839765 0.892269 0.131638
O O8 0.354141 0.968021 0.750000
O O9 0.500000 0.981059 0.609623
O O10 0.257939 0.015873 0.606811
O O11 0.141104 0.726877 0.250000
O O12 0.000000 0.747680 0.391024
O O13 0.130193 0.035757 0.750000
O O14 0.000000 0.033023 0.901024
#
# Coordination Sequence:
#
# PCOD9471918 Si02
#       5
#    16  16  16  16  16
#     4  10  20  33  51  76 104 134 172 216 261 312
#     4  10  20  33  50  73 103 138 173 210 255 309
#     4   9  18  34  56  80 105 135 174 220 266 310
#     4   9  17  32  55  78  99 127 167 217 268 313
#     4   9  18  34  55  78 106 140 177 217 261 310
#
# _framework density 20.07761
#
# number of rings (size 3 to 8) (size 9 to 14) (size 15 to 20)
#    0.000    2.600    0.000    1.800    0.000    6.800 
#    0.000    7.000    0.000    1.200    0.000    2.800 
#    0.000    0.000    0.000    0.000    0.000    0.000 
#
# Total GULP energy -222885.590079 kJ/mol
# GULP energy per Si atom -5572.139752 kJ/mol
# Density = 2.003191 g / cm^3
# Si number density = 20.077610 Si / 1000 Ang^3
#
#
#
# Elastic Constant Matrix: (Units=GPa)
#
#
# Indices 1 2 3 4 5 6 
#
# 1 71.2513 45.2226 13.1148 0.0000 0.0000 0.0000
# 2 45.2226 133.2134 38.1458 0.0000 0.0000 0.0000
# 3 13.1148 38.1458 60.0800 0.0000 0.0000 0.0000
# 4 0.0000 0.0000 0.0000 25.9669 0.0000 0.0000
# 5 0.0000 0.0000 0.0000 0.0000 11.6471 0.0000
# 6 0.0000 0.0000 0.0000 0.0000 0.0000 6.8358
#
#
#
# Elastic Compliance Matrix: (Units=1/GPa)
#
#
# Indices 1 2 3 4 5 6 
#
# 1 0.017889 -0.006056 -0.000060 0.000000 0.000000 0.000000
# 2 -0.006056 0.011225 -0.005805 0.000000 0.000000 0.000000
# 3 -0.000060 -0.005805 0.020343 0.000000 0.000000 0.000000
# 4 0.000000 0.000000 0.000000 0.038511 0.000000 0.000000
# 5 0.000000 0.000000 0.000000 0.000000 0.085859 0.000000
# 6 0.000000 0.000000 0.000000 0.000000 0.000000 0.146289
#
#
# Mechanical properties :
#
#
# Convention : Reuss Voigt Hill
#
# Bulk Modulus (GPa) = 39.03843 50.83457 44.93650
# Shear Modulus (GPa) = 14.18455 20.09404 17.13930
#
# Velocity S-wave (km/s) = 2.66086 3.16700 2.92490
# Velocity P-wave (km/s) = 5.37831 6.22473 5.81693
#
# Compressibility (1/GPa) = 0.02561579
#
# Stress axis : x y z
#
# Youngs Moduli (GPa) = 55.89885 89.08874 49.15647
#
# Poissons Ratio (x) = 0.53950 0.00296
# Poissons Ratio (y) = 0.33851 0.28535
# Poissons Ratio (z) = 0.00336 0.51715
#
# Static dielectric constant tensor:
#      x y z
#    x 1.722590 0.000000 0.000000 
#    y 0.000000 1.736610 0.000000 
#    z 0.000000 0.000000 1.717900 
# 
# From -- ./inp_files/29689.got.cif
#   From: 2010.05.17/outbox.cif.g08.bks.cpg/sg63_15_cif.got.tgz:29689.got - 2010.06.03 15:47:04.
