data_PCOD9471264
_publ_section_title
;
Structure prediction by ZEFSAII (Michael W. Deem and Ramdas Pophale) SiO2 
 PCOD9471264
Probable space group: C M C M
;
_chemical_formula_sum "Si O2"
_cell_formula_units_Z 88
_cell_length_a 17.857886
_cell_length_b 15.172863
_cell_length_c 17.655668
_cell_angle_alpha 90.000000
_cell_angle_beta 90.000000
_cell_angle_gamma 90.000000
_cell_volume 4783.896074
_symmetry_space_group_name_H-M "C M C M"
_symmetry_group_IT_number 63
_symmetry_cell_setting 'orthorhombic'
loop_
_space_group_symop_operation_xyz
x,y,z
-x,-y,1/2+z
x,-y,-z
-x,y,1/2-z
-x,-y,-z
x,y,1/2-z
-x,y,z
x,-y,1/2+z
1/2+x,1/2+y,z
1/2-x,1/2-y,1/2+z
1/2+x,1/2-y,-z
1/2-x,1/2+y,1/2-z
1/2-x,1/2-y,-z
1/2+x,1/2+y,1/2-z
1/2-x,1/2+y,z
1/2+x,1/2-y,1/2+z
loop_
_atom_site_type_symbol
_atom_site_label
_atom_site_fract_x
_atom_site_fract_y
_atom_site_fract_z
Si Si1 0.590977 0.756404 0.750000
Si Si2 0.152237 0.396865 0.368152
Si Si3 0.798398 0.138976 0.056077
Si Si4 0.301585 0.697696 0.614645
Si Si5 0.410423 0.967135 0.750000
Si Si6 0.587628 0.707677 0.334400
Si Si7 0.302246 0.000000 0.000000
O O1 0.500000 0.742094 0.750000
O O2 0.633011 0.717652 0.825083
O O3 0.604384 0.862626 0.750000
O O4 0.237034 0.365461 0.350616
O O5 0.123654 0.479445 0.320629
O O6 0.103160 0.310059 0.354330
O O7 0.151864 0.426366 0.455746
O O8 0.743162 0.213653 0.090177
O O9 0.870915 0.145349 0.107099
O O10 0.820466 0.158017 0.968447
O O11 0.752157 0.049350 0.058104
O O12 0.500000 0.978505 0.750000
O O13 0.618283 0.693495 0.250000
O O14 0.500000 0.692320 0.334668
#
# Coordination Sequence:
#
# PCOD9471264 Si02
#       7
#     8  16  16  16   8  16   8
#     4  11  23  34  52  82 119 151 178 220 280 341
#     4  10  19  35  57  78 107 143 180 226 268 318
#     4   9  19  35  58  80 104 144 187 230 274 316
#     4   9  19  36  55  77 107 146 192 222 260 331
#     4  11  21  32  48  80 117 145 170 214 278 329
#     4  10  20  35  56  81 110 147 189 225 267 330
#     4  10  20  36  54  84 110 132 184 236 280 322
#
# _framework density 18.395047999999999
#
# number of rings (size 3 to 8) (size 9 to 14) (size 15 to 20)
#    0.000    2.182    0.909    3.273    3.818    0.727 
#    1.636    4.091    0.000    1.091    0.000    0.000 
#    0.000    0.000    0.000    0.000    0.000    0.000 
#
# Total GULP energy -245189.646677 kJ/mol
# GULP energy per Si atom -5572.491970 kJ/mol
# Density = 1.835318 g / cm^3
# Si number density = 18.395048 Si / 1000 Ang^3
#
#
#
# Elastic Constant Matrix: (Units=GPa)
#
#
# Indices 1 2 3 4 5 6 
#
# 1 75.9335 16.3150 51.1885 0.0000 0.0000 0.0000
# 2 16.3150 37.6047 15.0850 0.0000 0.0000 0.0000
# 3 51.1885 15.0850 93.3772 0.0000 0.0000 0.0000
# 4 0.0000 0.0000 0.0000 27.0661 0.0000 0.0000
# 5 0.0000 0.0000 0.0000 0.0000 -21.3668 0.0000
# 6 0.0000 0.0000 0.0000 0.0000 0.0000 19.6324
#
#
#
# Elastic Compliance Matrix: (Units=1/GPa)
#
#
# Indices 1 2 3 4 5 6 
#
# 1 0.021724 -0.004970 -0.011106 0.000000 0.000000 0.000000
# 2 -0.004970 0.029572 -0.002053 0.000000 0.000000 0.000000
# 3 -0.011106 -0.002053 0.017129 0.000000 0.000000 0.000000
# 4 0.000000 0.000000 0.000000 0.036947 0.000000 0.000000
# 5 0.000000 0.000000 0.000000 0.000000 -0.046801 0.000000
# 6 0.000000 0.000000 0.000000 0.000000 0.000000 0.050936
#
#
# Mechanical properties :
#
#
# Convention : Reuss Voigt Hill
#
# Bulk Modulus (GPa) = 31.08716 41.34360 36.21538
# Shear Modulus (GPa) = 31.95150 13.35478 22.65314
#
# Velocity S-wave (km/s) = 4.17221 2.69736 3.51305
# Velocity P-wave (km/s) = 6.33610 5.67672 6.01545
#
# Compressibility (1/GPa) = 0.03216762
#
# Stress axis : x y z
#
# Youngs Moduli (GPa) = 46.03174 33.81561 58.37997
#
# Poissons Ratio (x) = 0.16806 0.64837
# Poissons Ratio (y) = 0.22877 0.11985
# Poissons Ratio (z) = 0.51123 0.06942
#
# Static dielectric constant tensor:
#      x y z
#    x 1.623350 0.000000 0.000000 
#    y 0.000000 1.628030 0.000000 
#    z 0.000000 0.000000 1.682870 
# 
# From -- ./inp_files/45596.got.cif
#   From: 2010.05.17/outbox.cif.g08.bks.cpg/sg63_23_cif.got.tgz:45596.got - 2010.06.03 15:47:04.
