data_PCOD9471660
_publ_section_title
;
Structure prediction by ZEFSAII (Michael W. Deem and Ramdas Pophale) SiO2 
 PCOD9471660
Probable space group: C M C M
;
_chemical_formula_sum "Si O2"
_cell_formula_units_Z 84
_cell_length_a 7.395367
_cell_length_b 26.024111
_cell_length_c 20.442931
_cell_angle_alpha 90.000000
_cell_angle_beta 90.000000
_cell_angle_gamma 90.000000
_cell_volume 3934.402583
_symmetry_space_group_name_H-M "C M C M"
_symmetry_group_IT_number 63
_symmetry_cell_setting 'orthorhombic'
loop_
_space_group_symop_operation_xyz
x,y,z
-x,-y,1/2+z
x,-y,-z
-x,y,1/2-z
-x,-y,-z
x,y,1/2-z
-x,y,z
x,-y,1/2+z
1/2+x,1/2+y,z
1/2-x,1/2-y,1/2+z
1/2+x,1/2-y,-z
1/2-x,1/2+y,1/2-z
1/2-x,1/2-y,-z
1/2+x,1/2+y,1/2-z
1/2-x,1/2+y,z
1/2+x,1/2-y,1/2+z
loop_
_atom_site_type_symbol
_atom_site_label
_atom_site_fract_x
_atom_site_fract_y
_atom_site_fract_z
Si Si1 0.720032 0.306208 0.648439
Si Si2 0.282762 0.336591 0.998527
Si Si3 0.206189 0.692134 0.857621
Si Si4 0.792414 0.921655 0.179053
Si Si5 0.721108 0.449867 0.038646
Si Si6 0.500000 0.846329 0.750000
O O1 0.500000 0.311489 0.656126
O O2 0.764188 0.314878 0.572065
O O3 0.773128 0.247317 0.665759
O O4 0.839854 0.342470 0.693221
O O5 0.500000 0.334356 0.004329
O O6 0.210828 0.308462 0.063140
O O7 0.227305 0.396253 0.004873
O O8 0.296393 0.639823 0.833588
O O9 0.000000 0.687719 0.835946
O O10 0.709423 0.931779 0.250000
O O11 0.713503 0.946511 0.113605
O O12 0.000000 0.939099 0.181840
O O13 0.500000 0.450409 0.040028
O O14 0.780635 0.500000 0.000000
#
# Coordination Sequence:
#
# PCOD9471660 Si02
#       6
#    16  16  16  16  16   4
#     4  10  23  38  53  81 113 146 194 229 269 331
#     4   9  18  34  55  78 108 138 178 235 273 319
#     4  10  20  31  50  78 108 141 177 222 268 333
#     4   9  18  30  48  74 107 139 177 224 276 340
#     4   8  14  28  53  81 104 134 177 230 288 332
#     4  12  26  36  60  74 106 168 182 232 280 318
#
# _framework density 21.350128999999999
#
# number of rings (size 3 to 8) (size 9 to 14) (size 15 to 20)
#    0.000    2.667    0.000    2.571    5.333    0.381 
#    0.000    0.000    2.095    9.143    0.000    0.000 
#    0.000    0.000    0.000    0.000    0.000    0.190 
#
# Total GULP energy -233866.382577 kJ/mol
# GULP energy per Si atom -5568.247204 kJ/mol
# Density = 2.130154 g / cm^3
# Si number density = 21.350129 Si / 1000 Ang^3
#
#
#
# Elastic Constant Matrix: (Units=GPa)
#
#
# Indices 1 2 3 4 5 6 
#
# 1 81.4898 1.5497 8.9610 0.0000 0.0000 0.0000
# 2 1.5497 58.2492 36.9140 0.0000 0.0000 0.0000
# 3 8.9610 36.9140 128.7070 0.0000 0.0000 0.0000
# 4 0.0000 0.0000 0.0000 -17.8627 0.0000 0.0000
# 5 0.0000 0.0000 0.0000 0.0000 28.2763 0.0000
# 6 0.0000 0.0000 0.0000 0.0000 0.0000 47.3070
#
#
#
# Elastic Compliance Matrix: (Units=1/GPa)
#
#
# Indices 1 2 3 4 5 6 
#
# 1 0.012369 0.000265 -0.000937 0.000000 0.000000 0.000000
# 2 0.000265 0.020987 -0.006038 0.000000 0.000000 0.000000
# 3 -0.000937 -0.006038 0.009566 0.000000 0.000000 0.000000
# 4 0.000000 0.000000 0.000000 -0.055983 0.000000 0.000000
# 5 0.000000 0.000000 0.000000 0.000000 0.035365 0.000000
# 6 0.000000 0.000000 0.000000 0.000000 0.000000 0.021139
#
#
# Mechanical properties :
#
#
# Convention : Reuss Voigt Hill
#
# Bulk Modulus (GPa) = 33.89503 40.36616 37.13060
# Shear Modulus (GPa) = 74.96478 26.27888 50.62183
#
# Velocity S-wave (km/s) = 5.93197 3.51216 4.87461
# Velocity P-wave (km/s) = 7.92641 5.94935 7.00795
#
# Compressibility (1/GPa) = 0.02950285
#
# Stress axis : x y z
#
# Youngs Moduli (GPa) = 80.84409 47.64916 104.53211
#
# Poissons Ratio (x) = -0.01262 0.09796
# Poissons Ratio (y) = -0.02141 0.63112
# Poissons Ratio (z) = 0.07576 0.28768
#
# Static dielectric constant tensor:
#      x y z
#    x 1.837590 0.000000 0.000000 
#    y 0.000000 1.749380 0.000000 
#    z 0.000000 0.000000 1.785930 
# 
# From -- ./inp_files/51201.got.cif
#   From: 2010.05.17/outbox.cif.g08.bks.cpg/sg63_26_cif.got.tgz:51201.got - 2010.06.03 15:47:04.
