data_PCOD9471597
_publ_section_title
;
Structure prediction by ZEFSAII (Michael W. Deem and Ramdas Pophale) SiO2 
 PCOD9471597
Probable space group: C M C M
;
_chemical_formula_sum "Si O2"
_cell_formula_units_Z 112
_cell_length_a 13.966177
_cell_length_b 33.789245
_cell_length_c 14.206257
_cell_angle_alpha 90.000000
_cell_angle_beta 90.000000
_cell_angle_gamma 90.000000
_cell_volume 6704.026104
_symmetry_space_group_name_H-M "C M C M"
_symmetry_group_IT_number 63
_symmetry_cell_setting 'orthorhombic'
loop_
_space_group_symop_operation_xyz
x,y,z
-x,-y,1/2+z
x,-y,-z
-x,y,1/2-z
-x,-y,-z
x,y,1/2-z
-x,y,z
x,-y,1/2+z
1/2+x,1/2+y,z
1/2-x,1/2-y,1/2+z
1/2+x,1/2-y,-z
1/2-x,1/2+y,1/2-z
1/2-x,1/2-y,-z
1/2+x,1/2+y,1/2-z
1/2-x,1/2+y,z
1/2+x,1/2-y,1/2+z
loop_
_atom_site_type_symbol
_atom_site_label
_atom_site_fract_x
_atom_site_fract_y
_atom_site_fract_z
Si Si1 0.388191 0.707588 0.857635
Si Si2 0.780663 0.287602 0.637883
Si Si3 0.717439 0.409848 0.540508
Si Si4 0.613049 0.868691 0.637903
Si Si5 0.389349 0.668357 0.451412
Si Si6 0.389726 0.571667 0.859995
Si Si7 0.393409 0.523482 0.360838
O O1 0.365155 0.695818 0.750000
O O2 0.500000 0.719945 0.858124
O O3 0.324815 0.745250 0.886849
O O4 0.378910 0.673886 0.935803
O O5 0.770060 0.287435 0.750000
O O6 0.852484 0.323915 0.615277
O O7 0.679499 0.298759 0.593090
O O8 0.822855 0.397477 0.573592
O O9 0.650272 0.374247 0.579229
O O10 0.689959 0.412089 0.430659
O O11 0.684234 0.451156 0.584726
O O12 0.632712 0.875419 0.750000
O O13 0.500000 0.872911 0.623231
O O14 0.500000 0.673244 0.426834
O O15 0.375958 0.581665 0.750000
O O16 0.500000 0.583516 0.885497
O O17 0.385373 0.523808 0.868848
O O18 0.388156 0.532780 0.250000
O O19 0.500000 0.534526 0.395929
#
# Coordination Sequence:
#
# PCOD9471597 Si02
#       7
#    16  16  16  16  16  16  16
#     4   9  17  30  47  64  84 115 155 192 220 251
#     4   9  17  30  48  65  84 117 155 188 223 264
#     4  11  19  29  47  69  94 123 151 184 233 280
#     4   9  18  32  49  70  92 114 150 198 240 278
#     4  10  20  29  40  66  98 121 142 176 227 280
#     4   9  18  31  47  68  94 127 164 192 213 252
#     4   9  17  29  46  69  95 123 155 187 220 266
#
# _framework density 16.706378000000001
#
# number of rings (size 3 to 8) (size 9 to 14) (size 15 to 20)
#    0.000    2.571    0.000    3.857    0.000    4.286 
#    0.000    1.429    0.000    2.143    0.000    2.000 
#    0.000    0.000    0.000    0.000    0.000    0.000 
#
# Total GULP energy -312134.030231 kJ/mol
# GULP energy per Si atom -5573.821968 kJ/mol
# Density = 1.666835 g / cm^3
# Si number density = 16.706378 Si / 1000 Ang^3
#
#
#
# Elastic Constant Matrix: (Units=GPa)
#
#
# Indices 1 2 3 4 5 6 
#
# 1 99.2248 22.9444 36.0143 0.0000 0.0000 0.0000
# 2 22.9444 27.2352 12.7245 0.0000 0.0000 0.0000
# 3 36.0143 12.7245 39.5264 0.0000 0.0000 0.0000
# 4 0.0000 0.0000 0.0000 21.3575 0.0000 0.0000
# 5 0.0000 0.0000 0.0000 0.0000 27.7982 0.0000
# 6 0.0000 0.0000 0.0000 0.0000 0.0000 19.9147
#
#
#
# Elastic Compliance Matrix: (Units=1/GPa)
#
#
# Indices 1 2 3 4 5 6 
#
# 1 0.016436 -0.008062 -0.012380 0.000000 0.000000 0.000000
# 2 -0.008062 0.047172 -0.007840 0.000000 0.000000 0.000000
# 3 -0.012380 -0.007840 0.039103 0.000000 0.000000 0.000000
# 4 0.000000 0.000000 0.000000 0.046822 0.000000 0.000000
# 5 0.000000 0.000000 0.000000 0.000000 0.035974 0.000000
# 6 0.000000 0.000000 0.000000 0.000000 0.000000 0.050214
#
#
# Mechanical properties :
#
#
# Convention : Reuss Voigt Hill
#
# Bulk Modulus (GPa) = 21.66989 34.37252 28.02120
# Shear Modulus (GPa) = 16.25129 20.10097 18.17613
#
# Velocity S-wave (km/s) = 3.12229 3.47247 3.30203
# Velocity P-wave (km/s) = 5.09877 6.05777 5.59884
#
# Compressibility (1/GPa) = 0.04614699
#
# Stress axis : x y z
#
# Youngs Moduli (GPa) = 60.84267 21.19888 25.57327
#
# Poissons Ratio (x) = 0.17091 0.31660
# Poissons Ratio (y) = 0.49054 0.20049
# Poissons Ratio (z) = 0.75323 0.16620
#
# Static dielectric constant tensor:
#      x y z
#    x 1.535580 0.000000 0.000000 
#    y 0.000000 1.578710 0.000000 
#    z 0.000000 0.000000 1.596880 
# 
# From -- ./inp_files/32750.got.cif
#   From: 2010.05.17/outbox.cif.g08.bks.cpg/sg63_17_cif.got.tgz:32750.got - 2010.06.03 15:47:04.
