data_PCOD9471219
_publ_section_title
;
Structure prediction by ZEFSAII (Michael W. Deem and Ramdas Pophale) SiO2 
 PCOD9471219
Probable space group: C M C M
;
_chemical_formula_sum "Si O2"
_cell_formula_units_Z 72
_cell_length_a 23.331143
_cell_length_b 5.383933
_cell_length_c 32.081743
_cell_angle_alpha 90.000000
_cell_angle_beta 90.000000
_cell_angle_gamma 90.000000
_cell_volume 4029.893952
_symmetry_space_group_name_H-M "C M C M"
_symmetry_group_IT_number 63
_symmetry_cell_setting 'orthorhombic'
loop_
_space_group_symop_operation_xyz
x,y,z
-x,-y,1/2+z
x,-y,-z
-x,y,1/2-z
-x,-y,-z
x,y,1/2-z
-x,y,z
x,-y,1/2+z
1/2+x,1/2+y,z
1/2-x,1/2-y,1/2+z
1/2+x,1/2-y,-z
1/2-x,1/2+y,1/2-z
1/2-x,1/2-y,-z
1/2+x,1/2+y,1/2-z
1/2-x,1/2+y,z
1/2+x,1/2-y,1/2+z
loop_
_atom_site_type_symbol
_atom_site_label
_atom_site_fract_x
_atom_site_fract_y
_atom_site_fract_z
Si Si1 0.368935 0.487937 0.173380
Si Si2 0.068519 0.492827 0.200342
Si Si3 0.679833 0.445309 0.918289
Si Si4 0.215790 0.913526 0.250000
Si Si5 0.308588 0.945478 0.548099
O O1 0.404166 0.739924 0.182500
O O2 0.338157 0.506170 0.128823
O O3 0.321498 0.463410 0.209162
O O4 0.407049 0.239369 0.178170
O O5 0.082147 0.509314 0.250000
O O6 0.000000 0.483818 0.196355
O O7 0.661432 0.681883 0.945623
O O8 0.748503 0.425423 0.926628
O O9 0.657548 0.179568 0.933766
O O10 0.235939 0.627759 0.250000
O O11 0.294874 0.000000 0.500000
#
# Coordination Sequence:
#
# PCOD9471219 Si02
#       5
#    16  16  16   8  16
#     4  12  23  39  54  85 114 145 204 227 280 338
#     4  11  22  41  62  79 103 146 197 258 296 316
#     4  10  20  30  52  75 110 142 177 227 267 315
#     4  12  26  36  53  74 121 166 188 220 256 338
#     4  10  19  35  52  77 111 151 188 220 265 323
#
# _framework density 17.866475999999999
#
# number of rings (size 3 to 8) (size 9 to 14) (size 15 to 20)
#    0.000    1.111    2.222    6.667    6.222    1.778 
#    0.000    0.000    0.000    0.000    0.000    0.000 
#    0.000  103.111    0.000    0.000    0.000    0.000 
#
# Total GULP energy -200875.954343 kJ/mol
# GULP energy per Si atom -5579.887621 kJ/mol
# Density = 1.782581 g / cm^3
# Si number density = 17.866476 Si / 1000 Ang^3
#
#
#
# Elastic Constant Matrix: (Units=GPa)
#
#
# Indices 1 2 3 4 5 6 
#
# 1 38.4666 -1.4374 22.7347 0.0000 0.0000 0.0000
# 2 -1.4374 104.2039 -16.2949 0.0000 0.0000 0.0000
# 3 22.7347 -16.2949 72.0723 0.0000 0.0000 0.0000
# 4 0.0000 0.0000 0.0000 27.5970 0.0000 0.0000
# 5 0.0000 0.0000 0.0000 0.0000 205.1421 0.0000
# 6 0.0000 0.0000 0.0000 0.0000 0.0000 26.6972
#
#
#
# Elastic Compliance Matrix: (Units=1/GPa)
#
#
# Indices 1 2 3 4 5 6 
#
# 1 0.032094 -0.001182 -0.010391 0.000000 0.000000 0.000000
# 2 -0.001182 0.009992 0.002632 0.000000 0.000000 0.000000
# 3 -0.010391 0.002632 0.017748 0.000000 0.000000 0.000000
# 4 0.000000 0.000000 0.000000 0.036236 0.000000 0.000000
# 5 0.000000 0.000000 0.000000 0.000000 0.004875 0.000000
# 6 0.000000 0.000000 0.000000 0.000000 0.000000 0.037457
#
#
# Mechanical properties :
#
#
# Convention : Reuss Voigt Hill
#
# Bulk Modulus (GPa) = 23.83736 24.97192 24.40464
# Shear Modulus (GPa) = 29.36562 65.86996 47.61779
#
# Velocity S-wave (km/s) = 4.05855 6.07848 5.16816
# Velocity P-wave (km/s) = 5.94419 7.95432 7.02156
#
# Compressibility (1/GPa) = 0.04195096
#
# Stress axis : x y z
#
# Youngs Moduli (GPa) = 31.15869 100.08166 56.34501
#
# Poissons Ratio (x) = 0.11832 0.58548
# Poissons Ratio (y) = 0.03684 -0.14830
# Poissons Ratio (z) = 0.32377 -0.26341
#
# Static dielectric constant tensor:
#      x y z
#    x 1.591200 0.000000 0.000000 
#    y 0.000000 1.704040 0.000000 
#    z 0.000000 0.000000 1.595130 
# 
# From -- ./inp_files/70585.got.cif
#   From: 2010.05.17/outbox.cif.g08.bks.cpg/sg63_36_cif.got.tgz:70585.got - 2010.06.03 15:47:04.
