data_PCOD9471211
_publ_section_title
;
Structure prediction by ZEFSAII (Michael W. Deem and Ramdas Pophale) SiO2 
 PCOD9471211
Probable space group: C M C M
;
_chemical_formula_sum "Si O2"
_cell_formula_units_Z 56
_cell_length_a 10.293545
_cell_length_b 9.816828
_cell_length_c 24.052707
_cell_angle_alpha 90.000000
_cell_angle_beta 90.000000
_cell_angle_gamma 90.000000
_cell_volume 2430.525099
_symmetry_space_group_name_H-M "C M C M"
_symmetry_group_IT_number 63
_symmetry_cell_setting 'orthorhombic'
loop_
_space_group_symop_operation_xyz
x,y,z
-x,-y,1/2+z
x,-y,-z
-x,y,1/2-z
-x,-y,-z
x,y,1/2-z
-x,y,z
x,-y,1/2+z
1/2+x,1/2+y,z
1/2-x,1/2-y,1/2+z
1/2+x,1/2-y,-z
1/2-x,1/2+y,1/2-z
1/2-x,1/2-y,-z
1/2+x,1/2+y,1/2-z
1/2-x,1/2+y,z
1/2+x,1/2-y,1/2+z
loop_
_atom_site_type_symbol
_atom_site_label
_atom_site_fract_x
_atom_site_fract_y
_atom_site_fract_z
Si Si1 0.000000 0.889672 0.048585
Si Si2 0.000000 0.590690 0.066358
Si Si3 0.240220 0.526677 0.888154
Si Si4 0.000000 0.304288 0.691951
Si Si5 0.786969 0.761592 0.812827
O O1 0.869207 0.912812 0.083999
O O2 0.000000 0.730504 0.032152
O O3 0.000000 0.000000 0.000000
O O4 0.862105 0.516238 0.064023
O O5 0.000000 0.625858 0.132643
O O6 0.165298 0.637235 0.849941
O O7 0.284770 0.400312 0.848757
O O8 0.866178 0.224333 0.693473
O O9 0.000000 0.389545 0.750000
O O10 0.838826 0.776550 0.750000
#
# Coordination Sequence:
#
# PCOD9471211 Si02
#       5
#     8   8  16   8  16
#     4  12  26  47  69  93 131 181 231 287 338 375
#     4  10  22  43  62  95 132 163 214 277 336 391
#     4  11  21  43  67  96 139 171 220 277 326 404
#     4   8  14  30  56  84 126 171 196 245 323 390
#     4  10  19  34  63 100 136 175 213 261 335 410
#
# _framework density 23.040286999999999
#
# number of rings (size 3 to 8) (size 9 to 14) (size 15 to 20)
#    0.000    1.714    5.714    0.857    0.000    3.429 
#    0.000    4.286    0.000    0.000    0.000    0.000 
#    0.000    0.000    0.000    0.000    0.000    0.000 
#
# Total GULP energy -156040.451224 kJ/mol
# GULP energy per Si atom -5572.873258 kJ/mol
# Density = 2.298785 g / cm^3
# Si number density = 23.040287 Si / 1000 Ang^3
#
#
#
# Elastic Constant Matrix: (Units=GPa)
#
#
# Indices 1 2 3 4 5 6 
#
# 1 107.1863 1.8108 -6.2265 0.0000 0.0000 0.0000
# 2 1.8108 106.8216 16.0018 0.0000 0.0000 0.0000
# 3 -6.2265 16.0018 95.7469 0.0000 0.0000 0.0000
# 4 0.0000 0.0000 0.0000 30.6952 0.0000 0.0000
# 5 0.0000 0.0000 0.0000 0.0000 34.5712 0.0000
# 6 0.0000 0.0000 0.0000 0.0000 0.0000 27.6738
#
#
#
# Elastic Compliance Matrix: (Units=1/GPa)
#
#
# Indices 1 2 3 4 5 6 
#
# 1 0.009372 -0.000257 0.000652 0.000000 0.000000 0.000000
# 2 -0.000257 0.009609 -0.001623 0.000000 0.000000 0.000000
# 3 0.000652 -0.001623 0.010758 0.000000 0.000000 0.000000
# 4 0.000000 0.000000 0.000000 0.032578 0.000000 0.000000
# 5 0.000000 0.000000 0.000000 0.000000 0.028926 0.000000
# 6 0.000000 0.000000 0.000000 0.000000 0.000000 0.036135
#
#
# Mechanical properties :
#
#
# Convention : Reuss Voigt Hill
#
# Bulk Modulus (GPa) = 36.65050 36.99188 36.82119
# Shear Modulus (GPa) = 35.99029 38.46596 37.22812
#
# Velocity S-wave (km/s) = 3.95658 4.09039 4.02404
# Velocity P-wave (km/s) = 6.06748 6.19666 6.13241
#
# Compressibility (1/GPa) = 0.02728476
#
# Stress axis : x y z
#
# Youngs Moduli (GPa) = 106.70330 104.07112 92.95582
#
# Poissons Ratio (x) = 0.02670 -0.06064
# Poissons Ratio (y) = 0.02738 0.15083
# Poissons Ratio (z) = -0.06961 0.16886
#
# Static dielectric constant tensor:
#      x y z
#    x 1.913450 0.000000 0.000000 
#    y 0.000000 1.876140 0.000000 
#    z 0.000000 0.000000 1.953870 
# 
# From -- ./inp_files/67878.got.cif
#   From: 2010.05.17/outbox.cif.g08.bks.cpg/sg63_34_cif.got.tgz:67878.got - 2010.06.03 15:47:04.
