data_PCOD9471440
_publ_section_title
;
Structure prediction by ZEFSAII (Michael W. Deem and Ramdas Pophale) SiO2 
 PCOD9471440
Probable space group: C M C M
;
_chemical_formula_sum "Si O2"
_cell_formula_units_Z 116
_cell_length_a 25.066433
_cell_length_b 13.318438
_cell_length_c 15.433292
_cell_angle_alpha 90.000000
_cell_angle_beta 90.000000
_cell_angle_gamma 90.000000
_cell_volume 5152.338693
_symmetry_space_group_name_H-M "C M C M"
_symmetry_group_IT_number 63
_symmetry_cell_setting 'orthorhombic'
loop_
_space_group_symop_operation_xyz
x,y,z
-x,-y,1/2+z
x,-y,-z
-x,y,1/2-z
-x,-y,-z
x,y,1/2-z
-x,y,z
x,-y,1/2+z
1/2+x,1/2+y,z
1/2-x,1/2-y,1/2+z
1/2+x,1/2-y,-z
1/2-x,1/2+y,1/2-z
1/2-x,1/2-y,-z
1/2+x,1/2+y,1/2-z
1/2-x,1/2+y,z
1/2+x,1/2-y,1/2+z
loop_
_atom_site_type_symbol
_atom_site_label
_atom_site_fract_x
_atom_site_fract_y
_atom_site_fract_z
Si Si1 0.739365 0.109287 0.651373
Si Si2 0.335668 0.492430 0.850277
Si Si3 0.439018 0.876535 0.401224
Si Si4 0.000000 0.680396 0.250000
Si Si5 0.845483 0.768503 0.645250
Si Si6 0.848429 0.468407 0.599661
Si Si7 0.939744 0.925248 0.081871
Si Si8 0.080064 0.695479 0.412178
O O1 0.750794 0.142448 0.750000
O O2 0.701433 0.195095 0.611844
O O3 0.793958 0.070958 0.609124
O O4 0.701023 0.011486 0.651671
O O5 0.319275 0.481940 0.750000
O O6 0.337312 0.380769 0.888379
O O7 0.394941 0.535160 0.854325
O O8 0.500000 0.879020 0.369036
O O9 0.402963 0.780651 0.375125
O O10 0.440333 0.869571 0.505761
O O11 0.402150 0.970250 0.372796
O O12 0.045728 0.683266 0.326531
O O13 0.842888 0.769666 0.750000
O O14 0.838476 0.500000 0.500000
O O15 0.861659 0.351326 0.605143
O O16 0.924582 0.811013 0.060192
O O17 0.000000 0.924622 0.117372
O O18 0.938834 0.000000 0.000000
#
# Coordination Sequence:
#
# PCOD9471440 Si02
#       8
#    16  16  16   4  16  16  16  16
#     4   9  19  38  57  83 115 152 197 245 295 351
#     4  10  22  37  60  84 113 152 194 244 302 351
#     4  10  19  36  59  82 122 162 198 238 302 356
#     4  12  24  36  56  88 122 162 200 252 294 368
#     4   9  19  37  58  85 117 154 203 256 293 350
#     4   9  21  36  58  85 117 157 196 241 295 355
#     4  11  24  41  60  84 115 152 197 240 297 360
#     4  11  23  38  57  87 122 160 198 250 304 350
#
# _framework density 22.514047000000001
#
# number of rings (size 3 to 8) (size 9 to 14) (size 15 to 20)
#    0.000    2.069    1.379    0.828    2.897    4.690 
#    0.000    2.759    0.000    6.621    0.000    0.000 
#    0.000    0.000    0.000    0.000    0.000    0.000 
#
# Total GULP energy -323129.500211 kJ/mol
# GULP energy per Si atom -5571.198279 kJ/mol
# Density = 2.246280 g / cm^3
# Si number density = 22.514047 Si / 1000 Ang^3
#
#
#
# Elastic Constant Matrix: (Units=GPa)
#
#
# Indices 1 2 3 4 5 6 
#
# 1 113.6571 50.1168 6.8197 0.0000 0.0000 0.0000
# 2 50.1168 85.5765 3.9543 0.0000 0.0000 0.0000
# 3 6.8197 3.9543 55.3464 0.0000 0.0000 0.0000
# 4 0.0000 0.0000 0.0000 16.8931 0.0000 0.0000
# 5 0.0000 0.0000 0.0000 0.0000 12.3966 0.0000
# 6 0.0000 0.0000 0.0000 0.0000 0.0000 -2.6589
#
#
#
# Elastic Compliance Matrix: (Units=1/GPa)
#
#
# Indices 1 2 3 4 5 6 
#
# 1 0.011913 -0.006932 -0.000973 0.000000 0.000000 0.000000
# 2 -0.006932 0.015758 -0.000272 0.000000 0.000000 0.000000
# 3 -0.000973 -0.000272 0.018207 0.000000 0.000000 0.000000
# 4 0.000000 0.000000 0.000000 0.059196 0.000000 0.000000
# 5 0.000000 0.000000 0.000000 0.000000 0.080668 0.000000
# 6 0.000000 0.000000 0.000000 0.000000 0.000000 -0.376098
#
#
# Mechanical properties :
#
#
# Convention : Reuss Voigt Hill
#
# Bulk Modulus (GPa) = 33.86890 41.81795 37.84342
# Shear Modulus (GPa) = -30.45777 18.23877 -6.10950
#
# Velocity S-wave (km/s) = -3.68208 2.84932 -1.64910
# Velocity P-wave (km/s) = 1.73229 5.42580 3.63583
#
# Compressibility (1/GPa) = 0.02952562
#
# Stress axis : x y z
#
# Youngs Moduli (GPa) = 83.93913 63.46131 54.92310
#
# Poissons Ratio (x) = 0.43991 0.05342
# Poissons Ratio (y) = 0.58186 0.01492
# Poissons Ratio (z) = 0.08165 0.01724
#
# Static dielectric constant tensor:
#      x y z
#    x 1.848330 0.000000 0.000000 
#    y 0.000000 1.891840 0.000000 
#    z 0.000000 0.000000 1.848270 
# 
# From -- ./inp_files/48263.got.cif
#   From: 2010.05.17/outbox.cif.g08.bks.cpg/sg63_25_cif.got.tgz:48263.got - 2010.06.03 15:47:04.
