data_PCOD9471473
_publ_section_title
;
Structure prediction by ZEFSAII (Michael W. Deem and Ramdas Pophale) SiO2 
 PCOD9471473
Probable space group: C M C M
;
_chemical_formula_sum "Si O2"
_cell_formula_units_Z 112
_cell_length_a 31.498151
_cell_length_b 12.499380
_cell_length_c 14.186445
_cell_angle_alpha 90.000000
_cell_angle_beta 90.000000
_cell_angle_gamma 90.000000
_cell_volume 5585.307790
_symmetry_space_group_name_H-M "C M C M"
_symmetry_group_IT_number 63
_symmetry_cell_setting 'orthorhombic'
loop_
_space_group_symop_operation_xyz
x,y,z
-x,-y,1/2+z
x,-y,-z
-x,y,1/2-z
-x,-y,-z
x,y,1/2-z
-x,y,z
x,-y,1/2+z
1/2+x,1/2+y,z
1/2-x,1/2-y,1/2+z
1/2+x,1/2-y,-z
1/2-x,1/2+y,1/2-z
1/2-x,1/2-y,-z
1/2+x,1/2+y,1/2-z
1/2-x,1/2+y,z
1/2+x,1/2-y,1/2+z
loop_
_atom_site_type_symbol
_atom_site_label
_atom_site_fract_x
_atom_site_fract_y
_atom_site_fract_z
Si Si1 0.101284 0.680412 0.860634
Si Si2 0.172971 0.711103 0.504914
Si Si3 0.142670 0.547962 0.354562
Si Si4 0.050237 0.157335 0.465728
Si Si5 0.818493 0.931850 0.094204
Si Si6 0.226475 0.407096 0.352078
Si Si7 0.413860 0.547830 0.855810
O O1 0.097354 0.704347 0.750000
O O2 0.142222 0.738183 0.907371
O O3 0.111403 0.553487 0.868218
O O4 0.062801 0.729777 0.919541
O O5 0.145879 0.628787 0.440776
O O6 0.183055 0.808686 0.437865
O O7 0.214098 0.661121 0.555714
O O8 0.134364 0.594945 0.250000
O O9 0.189833 0.496409 0.352248
O O10 0.071355 0.136048 0.567698
O O11 0.000000 0.144376 0.473602
O O12 0.068831 0.063971 0.398005
O O13 0.773521 0.953734 0.142187
O O14 0.862751 0.952371 0.145575
O O15 0.820650 0.000000 0.000000
O O16 0.222393 0.349817 0.250000
O O17 0.429855 0.565449 0.750000
#
# Coordination Sequence:
#
# PCOD9471473 Si02
#       7
#    16  16  16  16  16  16  16
#     4  10  19  36  60  89 115 148 197 253 304 356
#     4  11  20  38  60  82 120 163 209 249 302 367
#     4   9  20  37  61  87 119 159 209 255 304 365
#     4  11  23  41  63  91 121 158 210 257 309 381
#     4  12  22  37  56  85 124 162 205 254 304 360
#     4  10  21  36  55  86 119 161 208 255 302 351
#     4  11  22  39  58  87 126 165 203 249 309 375
#
# _framework density 20.052609
#
# number of rings (size 3 to 8) (size 9 to 14) (size 15 to 20)
#    0.000    1.429    2.857    6.000    0.000    3.143 
#    0.000    3.571    0.000    1.714    0.000    0.000 
#    0.000    0.000    0.000    0.000    0.000    0.000 
#
# Total GULP energy -312433.204883 kJ/mol
# GULP energy per Si atom -5579.164373 kJ/mol
# Density = 2.000697 g / cm^3
# Si number density = 20.052609 Si / 1000 Ang^3
#
#
#
# Elastic Constant Matrix: (Units=GPa)
#
#
# Indices 1 2 3 4 5 6 
#
# 1 95.1748 13.5839 29.2505 0.0000 0.0000 0.0000
# 2 13.5839 35.5330 38.6329 0.0000 0.0000 0.0000
# 3 29.2505 38.6329 158.4126 0.0000 0.0000 0.0000
# 4 0.0000 0.0000 0.0000 2.2671 0.0000 0.0000
# 5 0.0000 0.0000 0.0000 0.0000 1.8072 0.0000
# 6 0.0000 0.0000 0.0000 0.0000 0.0000 5.3202
#
#
#
# Elastic Compliance Matrix: (Units=1/GPa)
#
#
# Indices 1 2 3 4 5 6 
#
# 1 0.011340 -0.002801 -0.001411 0.000000 0.000000 0.000000
# 2 -0.002801 0.038989 -0.008991 0.000000 0.000000 0.000000
# 3 -0.001411 -0.008991 0.008766 0.000000 0.000000 0.000000
# 4 0.000000 0.000000 0.000000 0.441092 0.000000 0.000000
# 5 0.000000 0.000000 0.000000 0.000000 0.553346 0.000000
# 6 0.000000 0.000000 0.000000 0.000000 0.000000 0.187963
#
#
# Mechanical properties :
#
#
# Convention : Reuss Voigt Hill
#
# Bulk Modulus (GPa) = 30.59159 50.22833 40.40996
# Shear Modulus (GPa) = 3.90992 15.72244 9.81618
#
# Velocity S-wave (km/s) = 1.39788 2.80314 2.21491
# Velocity P-wave (km/s) = 4.23015 5.96485 5.17077
#
# Compressibility (1/GPa) = 0.03268872
#
# Stress axis : x y z
#
# Youngs Moduli (GPa) = 88.18028 25.64795 114.07875
#
# Poissons Ratio (x) = 0.07185 0.16094
# Poissons Ratio (y) = 0.24703 1.02571
# Poissons Ratio (z) = 0.12440 0.23061
#
# Static dielectric constant tensor:
#      x y z
#    x 1.707340 0.000000 0.000000 
#    y 0.000000 1.775700 0.000000 
#    z 0.000000 0.000000 1.783820 
# 
# From -- ./inp_files/38512.got.cif
#   From: 2010.05.17/outbox.cif.g08.bks.cpg/sg63_20_cif.got.tgz:38512.got - 2010.06.03 15:47:04.
