data_PCOD9471601
_publ_section_title
;
Structure prediction by ZEFSAII (Michael W. Deem and Ramdas Pophale) SiO2 
 PCOD9471601
Probable space group: C M C M
;
_chemical_formula_sum "Si O2"
_cell_formula_units_Z 104
_cell_length_a 25.386784
_cell_length_b 34.348693
_cell_length_c 8.479721
_cell_angle_alpha 90.000000
_cell_angle_beta 90.000000
_cell_angle_gamma 90.000000
_cell_volume 7394.340878
_symmetry_space_group_name_H-M "C M C M"
_symmetry_group_IT_number 63
_symmetry_cell_setting 'orthorhombic'
loop_
_space_group_symop_operation_xyz
x,y,z
-x,-y,1/2+z
x,-y,-z
-x,y,1/2-z
-x,-y,-z
x,y,1/2-z
-x,y,z
x,-y,1/2+z
1/2+x,1/2+y,z
1/2-x,1/2-y,1/2+z
1/2+x,1/2-y,-z
1/2-x,1/2+y,1/2-z
1/2-x,1/2-y,-z
1/2+x,1/2+y,1/2-z
1/2-x,1/2+y,z
1/2+x,1/2-y,1/2+z
loop_
_atom_site_type_symbol
_atom_site_label
_atom_site_fract_x
_atom_site_fract_y
_atom_site_fract_z
Si Si1 0.828819 0.268012 0.060215
Si Si2 0.940851 0.841982 0.437195
Si Si3 0.769078 0.189104 0.060183
Si Si4 0.941957 0.754284 0.560112
Si Si5 0.500000 0.455546 0.059539
Si Si6 0.162879 0.881936 0.563758
Si Si7 0.116303 0.043737 0.937936
O O1 0.825398 0.269464 0.250000
O O2 0.805642 0.225736 0.008884
O O3 0.890116 0.269786 0.014905
O O4 0.789634 0.300265 0.992655
O O5 0.934342 0.848700 0.250000
O O6 0.939244 0.796085 0.475898
O O7 0.892959 0.861421 0.527830
O O8 0.000000 0.855754 0.480494
O O9 0.771124 0.188489 0.250000
O O10 0.793259 0.148431 0.002247
O O11 0.938858 0.761064 0.750000
O O12 0.000000 0.737309 0.526937
O O13 0.500000 0.453363 0.250000
O O14 0.557808 0.441437 0.007376
O O15 0.500000 0.500000 0.000000
O O16 0.169686 0.886040 0.750000
O O17 0.158804 0.924670 0.490573
O O18 0.115096 0.042030 0.750000
O O19 0.124435 0.000000 0.000000
#
# Coordination Sequence:
#
# PCOD9471601 Si02
#       7
#    16  16  16  16   8  16  16
#     4   9  16  28  43  60  81 106 136 167 204 244
#     4  10  20  30  40  57  80 104 133 170 210 250
#     4   9  18  30  42  59  80 105 137 170 204 242
#     4   9  16  28  44  60  81 107 135 168 206 249
#     4   8  16  30  46  60  78  98 124 160 198 248
#     4  11  21  33  46  61  80 103 136 171 209 252
#     4  10  20  34  48  63  81 103 131 165 207 251
#
# _framework density 14.064811000000001
#
# number of rings (size 3 to 8) (size 9 to 14) (size 15 to 20)
#    0.000    2.462    1.538    1.385    1.077    3.385 
#    0.000    0.000    0.000    0.000    0.000    0.000 
#    0.000    0.000    0.000    0.000    0.000    0.769 
#
# Total GULP energy -289739.392029 kJ/mol
# GULP energy per Si atom -5571.911385 kJ/mol
# Density = 1.403280 g / cm^3
# Si number density = 14.064811 Si / 1000 Ang^3
#
#
#
# Elastic Constant Matrix: (Units=GPa)
#
#
# Indices 1 2 3 4 5 6 
#
# 1 87.7993 48.2036 11.5868 0.0000 0.0000 0.0000
# 2 48.2036 79.5020 16.0918 0.0000 0.0000 0.0000
# 3 11.5868 16.0918 11.1401 0.0000 0.0000 0.0000
# 4 0.0000 0.0000 0.0000 17.4178 0.0000 0.0000
# 5 0.0000 0.0000 0.0000 0.0000 16.3702 0.0000
# 6 0.0000 0.0000 0.0000 0.0000 0.0000 25.2389
#
#
#
# Elastic Compliance Matrix: (Units=1/GPa)
#
#
# Indices 1 2 3 4 5 6 
#
# 1 0.017198 -0.009619 -0.003992 0.000000 0.000000 0.000000
# 2 -0.009619 0.023156 -0.023444 0.000000 0.000000 0.000000
# 3 -0.003992 -0.023444 0.127783 0.000000 0.000000 0.000000
# 4 0.000000 0.000000 0.000000 0.057413 0.000000 0.000000
# 5 0.000000 0.000000 0.000000 0.000000 0.061087 0.000000
# 6 0.000000 0.000000 0.000000 0.000000 0.000000 0.039621
#
#
# Mechanical properties :
#
#
# Convention : Reuss Voigt Hill
#
# Bulk Modulus (GPa) = 10.63534 36.68953 23.66244
# Shear Modulus (GPa) = 11.58187 18.64265 15.11226
#
# Velocity S-wave (km/s) = 2.87272 3.64467 3.28147
# Velocity P-wave (km/s) = 4.31062 6.62225 5.58729
#
# Compressibility (1/GPa) = 0.09402610
#
# Stress axis : x y z
#
# Youngs Moduli (GPa) = 58.14775 43.18580 7.82576
#
# Poissons Ratio (x) = 0.41541 0.03124
# Poissons Ratio (y) = 0.55933 0.18346
# Poissons Ratio (z) = 0.23215 1.01243
#
# Static dielectric constant tensor:
#      x y z
#    x 1.482630 0.000000 0.000000 
#    y 0.000000 1.461000 0.000000 
#    z 0.000000 0.000000 1.480300 
# 
# From -- ./inp_files/13104.got.cif
#   From: 2010.05.17/outbox.cif.g08.bks.cpg/sg63_7_cif.got.tgz:13104.got - 2010.06.03 15:47:04.
