data_PCOD9471420
_publ_section_title
;
Structure prediction by ZEFSAII (Michael W. Deem and Ramdas Pophale) SiO2 
 PCOD9471420
Probable space group: C M C M
;
_chemical_formula_sum "Si O2"
_cell_formula_units_Z 88
_cell_length_a 7.399146
_cell_length_b 20.420867
_cell_length_c 30.123081
_cell_angle_alpha 90.000000
_cell_angle_beta 90.000000
_cell_angle_gamma 90.000000
_cell_volume 4551.506458
_symmetry_space_group_name_H-M "C M C M"
_symmetry_group_IT_number 63
_symmetry_cell_setting 'orthorhombic'
loop_
_space_group_symop_operation_xyz
x,y,z
-x,-y,1/2+z
x,-y,-z
-x,y,1/2-z
-x,-y,-z
x,y,1/2-z
-x,y,z
x,-y,1/2+z
1/2+x,1/2+y,z
1/2-x,1/2-y,1/2+z
1/2+x,1/2-y,-z
1/2-x,1/2+y,1/2-z
1/2-x,1/2-y,-z
1/2+x,1/2+y,1/2-z
1/2-x,1/2+y,z
1/2+x,1/2-y,1/2+z
loop_
_atom_site_type_symbol
_atom_site_label
_atom_site_fract_x
_atom_site_fract_y
_atom_site_fract_z
Si Si1 0.789125 0.061783 0.374169
Si Si2 0.000000 0.762397 0.799802
Si Si3 0.500000 0.882121 0.329046
Si Si4 0.286361 0.793491 0.873594
Si Si5 0.500000 0.029756 0.301283
Si Si6 0.784155 0.152734 0.902856
Si Si7 0.219231 0.031558 0.545478
O O1 0.765558 0.135683 0.392050
O O2 0.671349 0.054280 0.329860
O O3 0.725589 0.011380 0.411924
O O4 0.000000 0.049850 0.365064
O O5 0.172485 0.784534 0.828539
O O6 0.000000 0.787866 0.750000
O O7 0.000000 0.683410 0.799969
O O8 0.325822 0.875621 0.361111
O O9 0.500000 0.950728 0.304344
O O10 0.500000 0.792436 0.865057
O O11 0.241926 0.730107 0.903803
O O12 0.500000 0.050441 0.250000
O O13 0.000000 0.146255 0.896064
O O14 0.733150 0.106916 0.944318
O O15 0.000000 0.028372 0.544142
O O16 0.286262 0.000000 0.500000
#
# Coordination Sequence:
#
# PCOD9471420 Si02
#       7
#    16   8   8  16   8  16  16
#     4  11  22  40  58  82 117 155 189 240 290 342
#     4  10  21  36  56  82 110 143 193 242 284 338
#     4  10  19  36  58  82 110 147 187 235 282 337
#     4  10  20  36  57  79 110 153 190 229 290 338
#     4  12  25  38  58  86 117 152 193 241 290 343
#     4   9  18  34  58  83 112 150 186 227 281 338
#     4   9  18  35  62  89 114 150 193 234 289 350
#
# _framework density 19.334256
#
# number of rings (size 3 to 8) (size 9 to 14) (size 15 to 20)
#    0.000    2.000    3.636    0.273    0.000    1.455 
#    0.000    2.727    0.000    3.273    0.000    0.000 
#    0.000    0.000    0.000    0.000    0.000    0.000 
#
# Total GULP energy -245427.394290 kJ/mol
# GULP energy per Si atom -5577.895325 kJ/mol
# Density = 1.929025 g / cm^3
# Si number density = 19.334256 Si / 1000 Ang^3
#
#
#
# Elastic Constant Matrix: (Units=GPa)
#
#
# Indices 1 2 3 4 5 6 
#
# 1 88.1276 4.3914 15.2225 0.0000 0.0000 0.0000
# 2 4.3914 108.8644 12.5428 0.0000 0.0000 0.0000
# 3 15.2225 12.5428 56.0481 0.0000 0.0000 0.0000
# 4 0.0000 0.0000 0.0000 1.4486 0.0000 0.0000
# 5 0.0000 0.0000 0.0000 0.0000 4.3474 0.0000
# 6 0.0000 0.0000 0.0000 0.0000 0.0000 -34.4647
#
#
#
# Elastic Compliance Matrix: (Units=1/GPa)
#
#
# Indices 1 2 3 4 5 6 
#
# 1 0.011907 -0.000111 -0.003209 0.000000 0.000000 0.000000
# 2 -0.000111 0.009430 -0.002080 0.000000 0.000000 0.000000
# 3 -0.003209 -0.002080 0.019179 0.000000 0.000000 0.000000
# 4 0.000000 0.000000 0.000000 0.690331 0.000000 0.000000
# 5 0.000000 0.000000 0.000000 0.000000 0.230022 0.000000
# 6 0.000000 0.000000 0.000000 0.000000 0.000000 -0.029015
#
#
# Mechanical properties :
#
#
# Convention : Reuss Voigt Hill
#
# Bulk Modulus (GPa) = 33.65204 35.26151 34.45677
# Shear Modulus (GPa) = 5.24902 8.99183 7.12042
#
# Velocity S-wave (km/s) = 1.64948 2.15889 1.92114
# Velocity P-wave (km/s) = 4.59030 4.94892 4.77298
#
# Compressibility (1/GPa) = 0.02971588
#
# Stress axis : x y z
#
# Youngs Moduli (GPa) = 83.98408 106.04598 52.14054
#
# Poissons Ratio (x) = 0.01173 0.16733
# Poissons Ratio (y) = 0.00929 0.10846
# Poissons Ratio (z) = 0.26952 0.22060
#
# Static dielectric constant tensor:
#      x y z
#    x 1.685660 0.000000 0.000000 
#    y 0.000000 1.713290 0.000000 
#    z 0.000000 0.000000 1.635060 
# 
# From -- ./inp_files/71827.got.cif
#   From: 2010.05.17/outbox.cif.g08.bks.cpg/sg63_36_cif.got.tgz:71827.got - 2010.06.03 15:47:04.
