data_PCOD9471767
_publ_section_title
;
Structure prediction by ZEFSAII (Michael W. Deem and Ramdas Pophale) SiO2 
 PCOD9471767
Probable space group: C M C M
;
_chemical_formula_sum "Si O2"
_cell_formula_units_Z 96
_cell_length_a 8.759261
_cell_length_b 27.981807
_cell_length_c 24.195774
_cell_angle_alpha 90.000000
_cell_angle_beta 90.000000
_cell_angle_gamma 90.000000
_cell_volume 5930.383016
_symmetry_space_group_name_H-M "C M C M"
_symmetry_group_IT_number 63
_symmetry_cell_setting 'orthorhombic'
loop_
_space_group_symop_operation_xyz
x,y,z
-x,-y,1/2+z
x,-y,-z
-x,y,1/2-z
-x,-y,-z
x,y,1/2-z
-x,y,z
x,-y,1/2+z
1/2+x,1/2+y,z
1/2-x,1/2-y,1/2+z
1/2+x,1/2-y,-z
1/2-x,1/2+y,1/2-z
1/2-x,1/2-y,-z
1/2+x,1/2+y,1/2-z
1/2-x,1/2+y,z
1/2+x,1/2-y,1/2+z
loop_
_atom_site_type_symbol
_atom_site_label
_atom_site_fract_x
_atom_site_fract_y
_atom_site_fract_z
Si Si1 0.681950 0.324321 0.974826
Si Si2 0.317805 0.071604 0.020888
Si Si3 0.681884 0.483650 0.082597
Si Si4 0.681842 0.735353 0.915250
Si Si5 0.183190 0.432272 0.314118
Si Si6 0.816364 0.679272 0.686292
O O1 0.500000 0.330788 0.971586
O O2 0.764749 0.374674 0.968166
O O3 0.736904 0.284884 0.930911
O O4 0.719156 0.301613 0.034964
O O5 0.500000 0.068199 0.018261
O O6 0.253702 0.034574 0.066165
O O7 0.247670 0.053323 0.962877
O O8 0.500000 0.485790 0.077415
O O9 0.731959 0.465450 0.142457
O O10 0.500000 0.742308 0.915347
O O11 0.737295 0.712904 0.858097
O O12 0.218432 0.442830 0.250000
O O13 0.222330 0.376473 0.324210
O O14 0.000000 0.436885 0.321225
O O15 0.775628 0.690053 0.750000
O O16 0.000000 0.683405 0.681373
#
# Coordination Sequence:
#
# PCOD9471767 Si02
#       6
#    16  16  16  16  16  16
#     4  10  20  34  51  73 101 130 162 202 246 292
#     4  11  21  34  52  73  99 131 167 204 246 294
#     4  11  21  33  50  74 103 132 165 203 246 294
#     4  10  20  32  49  74 101 131 164 199 242 291
#     4   9  18  33  52  74 101 133 168 204 244 291
#     4   9  18  32  50  72  99 132 166 201 243 288
#
# _framework density 16.187823999999999
#
# number of rings (size 3 to 8) (size 9 to 14) (size 15 to 20)
#    0.000    2.000    0.000    7.000    0.000    6.000 
#    0.000    1.667    0.000    1.000    0.000    0.000 
#    0.000    0.000    0.000    0.000    0.000    0.000 
#
# Total GULP energy -268014.222707 kJ/mol
# GULP energy per Si atom -5583.629640 kJ/mol
# Density = 1.615098 g / cm^3
# Si number density = 16.187824 Si / 1000 Ang^3
#
#
#
# Elastic Constant Matrix: (Units=GPa)
#
#
# Indices 1 2 3 4 5 6 
#
# 1 94.5776 62.9097 49.5015 0.0000 0.0000 0.0000
# 2 62.9097 116.7564 64.8800 0.0000 0.0000 0.0000
# 3 49.5015 64.8800 90.0656 0.0000 0.0000 0.0000
# 4 0.0000 0.0000 0.0000 20.4358 0.0000 0.0000
# 5 0.0000 0.0000 0.0000 0.0000 26.3533 0.0000
# 6 0.0000 0.0000 0.0000 0.0000 0.0000 28.4590
#
#
#
# Elastic Compliance Matrix: (Units=1/GPa)
#
#
# Indices 1 2 3 4 5 6 
#
# 1 0.017616 -0.006856 -0.004743 0.000000 0.000000 0.000000
# 2 -0.006856 0.016950 -0.008442 0.000000 0.000000 0.000000
# 3 -0.004743 -0.008442 0.019791 0.000000 0.000000 0.000000
# 4 0.000000 0.000000 0.000000 0.048934 0.000000 0.000000
# 5 0.000000 0.000000 0.000000 0.000000 0.037946 0.000000
# 6 0.000000 0.000000 0.000000 0.000000 0.000000 0.035138
#
#
# Mechanical properties :
#
#
# Convention : Reuss Voigt Hill
#
# Bulk Modulus (GPa) = 70.05300 72.88690 71.46995
# Shear Modulus (GPa) = 22.60223 23.32352 22.96287
#
# Velocity S-wave (km/s) = 3.74070 3.79991 3.77042
# Velocity P-wave (km/s) = 7.87567 8.02346 7.94991
#
# Compressibility (1/GPa) = 0.01427491
#
# Stress axis : x y z
#
# Youngs Moduli (GPa) = 56.76520 58.99669 50.52697
#
# Poissons Ratio (x) = 0.40449 0.23967
# Poissons Ratio (y) = 0.38919 0.42655
# Poissons Ratio (z) = 0.26926 0.49805
#
# Static dielectric constant tensor:
#      x y z
#    x 1.538720 0.000000 0.000000 
#    y 0.000000 1.520670 0.000000 
#    z 0.000000 0.000000 1.527400 
# 
# From -- ./inp_files/51428.got.cif
#   From: 2010.05.17/outbox.cif.g08.bks.cpg/sg63_26_cif.got.tgz:51428.got - 2010.06.03 15:47:04.
