data_PCOD9471286
_publ_section_title
;
Structure prediction by ZEFSAII (Michael W. Deem and Ramdas Pophale) SiO2 
 PCOD9471286
Probable space group: C M C M
;
_chemical_formula_sum "Si O2"
_cell_formula_units_Z 96
_cell_length_a 29.717311
_cell_length_b 10.440644
_cell_length_c 14.536431
_cell_angle_alpha 90.000000
_cell_angle_beta 90.000000
_cell_angle_gamma 90.000000
_cell_volume 4510.187408
_symmetry_space_group_name_H-M "C M C M"
_symmetry_group_IT_number 63
_symmetry_cell_setting 'orthorhombic'
loop_
_space_group_symop_operation_xyz
x,y,z
-x,-y,1/2+z
x,-y,-z
-x,y,1/2-z
-x,-y,-z
x,y,1/2-z
-x,y,z
x,-y,1/2+z
1/2+x,1/2+y,z
1/2-x,1/2-y,1/2+z
1/2+x,1/2-y,-z
1/2-x,1/2+y,1/2-z
1/2-x,1/2-y,-z
1/2+x,1/2+y,1/2-z
1/2-x,1/2+y,z
1/2+x,1/2-y,1/2+z
loop_
_atom_site_type_symbol
_atom_site_label
_atom_site_fract_x
_atom_site_fract_y
_atom_site_fract_z
Si Si1 0.356033 0.927285 0.136596
Si Si2 0.293311 0.698038 0.144440
Si Si3 0.353559 0.457504 0.105576
Si Si4 0.192155 0.686163 0.361639
Si Si5 0.049124 0.331543 0.139774
Si Si6 0.549602 0.527389 0.108687
O O1 0.357022 0.923512 0.250000
O O2 0.324475 0.809982 0.104219
O O3 0.406915 0.903384 0.104485
O O4 0.335411 0.061999 0.107590
O O5 0.285590 0.738196 0.250000
O O6 0.320743 0.565788 0.146075
O O7 0.243665 0.682333 0.103548
O O8 0.331610 0.319021 0.114030
O O9 0.404488 0.463058 0.143955
O O10 0.356968 0.500000 0.000000
O O11 0.193215 0.678491 0.250000
O O12 0.047922 0.349525 0.250000
O O13 0.054817 0.179556 0.123624
O O14 0.000000 0.369467 0.102429
O O15 0.500000 0.490128 0.145549
O O16 0.547817 0.500000 0.000000
#
# Coordination Sequence:
#
# PCOD9471286 Si02
#       6
#    16  16  16  16  16  16
#     4   9  17  31  51  76 103 133 171 216 262 313
#     4  10  19  35  58  78 102 142 186 218 259 327
#     4  11  22  35  54  81 111 142 179 227 273 312
#     4  10  21  36  55  79 108 140 176 219 267 320
#     4   9  16  28  51  80 104 132 175 224 270 318
#     4   9  18  33  53  75 105 143 180 217 261 318
#
# _framework density 21.285146000000001
#
# number of rings (size 3 to 8) (size 9 to 14) (size 15 to 20)
#    0.000    2.333    1.667    1.500    0.000    4.000 
#    0.000    1.667    0.000    1.000    0.000    5.833 
#    0.000    0.000    0.000    0.000    0.000    0.000 
#
# Total GULP energy -267970.308513 kJ/mol
# GULP energy per Si atom -5582.714761 kJ/mol
# Density = 2.123670 g / cm^3
# Si number density = 21.285146 Si / 1000 Ang^3
#
#
#
# Elastic Constant Matrix: (Units=GPa)
#
#
# Indices 1 2 3 4 5 6 
#
# 1 266.1870 112.9579 5.4101 0.0000 0.0000 0.0000
# 2 112.9579 145.1060 -10.8047 0.0000 0.0000 0.0000
# 3 5.4101 -10.8047 39.2337 0.0000 0.0000 0.0000
# 4 0.0000 0.0000 0.0000 179.4870 0.0000 0.0000
# 5 0.0000 0.0000 0.0000 0.0000 -7.0820 0.0000
# 6 0.0000 0.0000 0.0000 0.0000 0.0000 9.2185
#
#
#
# Elastic Compliance Matrix: (Units=1/GPa)
#
#
# Indices 1 2 3 4 5 6 
#
# 1 0.005771 -0.004647 -0.002075 0.000000 0.000000 0.000000
# 2 -0.004647 0.010778 0.003609 0.000000 0.000000 0.000000
# 3 -0.002075 0.003609 0.026768 0.000000 0.000000 0.000000
# 4 0.000000 0.000000 0.000000 0.005571 0.000000 0.000000
# 5 0.000000 0.000000 0.000000 0.000000 -0.141203 0.000000
# 6 0.000000 0.000000 0.000000 0.000000 0.000000 0.108477
#
#
# Mechanical properties :
#
#
# Convention : Reuss Voigt Hill
#
# Bulk Modulus (GPa) = 26.96162 73.96148 50.46155
# Shear Modulus (GPa) = 143.87551 59.18893 101.53222
#
# Velocity S-wave (km/s) = 8.23050 5.27901 6.91408
# Velocity P-wave (km/s) = 10.14967 8.48414 9.35405
#
# Compressibility (1/GPa) = 0.03708976
#
# Stress axis : x y z
#
# Youngs Moduli (GPa) = 173.28411 92.78504 37.35759
#
# Poissons Ratio (x) = 0.43116 0.07753
# Poissons Ratio (y) = 0.80523 -0.13482
# Poissons Ratio (z) = 0.35965 -0.33485
#
# Static dielectric constant tensor:
#      x y z
#    x 1.808930 0.000000 0.000000 
#    y 0.000000 1.720780 0.000000 
#    z 0.000000 0.000000 1.834070 
# 
# From -- ./inp_files/58083.got.cif
#   From: 2010.05.17/outbox.cif.g08.bks.cpg/sg63_30_cif.got.tgz:58083.got - 2010.06.03 15:47:04.
