data_PCOD9471046
_publ_section_title
;
Structure prediction by ZEFSAII (Michael W. Deem and Ramdas Pophale) SiO2 
 PCOD9471046
Probable space group: C M C M
;
_chemical_formula_sum "Si O2"
_cell_formula_units_Z 104
_cell_length_a 26.413437
_cell_length_b 9.105456
_cell_length_c 23.824773
_cell_angle_alpha 90.000000
_cell_angle_beta 90.000000
_cell_angle_gamma 90.000000
_cell_volume 5730.010109
_symmetry_space_group_name_H-M "C M C M"
_symmetry_group_IT_number 63
_symmetry_cell_setting 'orthorhombic'
loop_
_space_group_symop_operation_xyz
x,y,z
-x,-y,1/2+z
x,-y,-z
-x,y,1/2-z
-x,-y,-z
x,y,1/2-z
-x,y,z
x,-y,1/2+z
1/2+x,1/2+y,z
1/2-x,1/2-y,1/2+z
1/2+x,1/2-y,-z
1/2-x,1/2+y,1/2-z
1/2-x,1/2-y,-z
1/2+x,1/2+y,1/2-z
1/2-x,1/2+y,z
1/2+x,1/2-y,1/2+z
loop_
_atom_site_type_symbol
_atom_site_label
_atom_site_fract_x
_atom_site_fract_y
_atom_site_fract_z
Si Si1 0.283484 0.665265 0.688013
Si Si2 0.907916 0.000000 0.000000
Si Si3 0.394379 0.525730 0.685789
Si Si4 0.056856 0.222821 0.594024
Si Si5 0.854061 0.807774 0.905068
Si Si6 0.637501 0.026873 0.065120
Si Si7 0.242106 0.582938 0.384230
O O1 0.262516 0.636436 0.750000
O O2 0.341480 0.615103 0.687653
O O3 0.256729 0.576802 0.638211
O O4 0.276954 0.832540 0.671124
O O5 0.875788 0.106090 0.040864
O O6 0.937350 0.890099 0.041647
O O7 0.410018 0.496771 0.750000
O O8 0.432046 0.625386 0.649307
O O9 0.380104 0.381702 0.649531
O O10 0.098565 0.351469 0.588184
O O11 0.000000 0.282679 0.594841
O O12 0.864639 0.634470 0.906956
O O13 0.794301 0.844570 0.904413
O O14 0.695248 0.082839 0.073408
O O15 0.626621 0.000000 0.000000
#
# Coordination Sequence:
#
# PCOD9471046 Si02
#       7
#    16   8  16  16  16  16  16
#     4  10  19  34  55  81 116 153 194 239 287 348
#     4  10  21  42  62  88 116 152 201 250 298 360
#     4   9  20  40  62  85 116 154 200 249 295 352
#     4  11  23  41  65  89 116 154 203 255 306 358
#     4  10  22  38  59  88 123 161 198 241 296 366
#     4  12  24  39  56  89 129 162 198 248 303 359
#     4  11  21  35  54  86 121 159 198 232 293 359
#
# _framework density 18.150054999999998
#
# number of rings (size 3 to 8) (size 9 to 14) (size 15 to 20)
#    0.000    1.538    4.615    0.692    1.077    1.846 
#    0.000    1.538    0.000    0.000    0.000    0.000 
#    0.000    0.000    0.000    0.000    0.000    0.000 
#
# Total GULP energy -289932.691970 kJ/mol
# GULP energy per Si atom -5575.628692 kJ/mol
# Density = 1.810874 g / cm^3
# Si number density = 18.150055 Si / 1000 Ang^3
#
#
#
# Elastic Constant Matrix: (Units=GPa)
#
#
# Indices 1 2 3 4 5 6 
#
# 1 69.3547 32.2518 31.2632 0.0000 0.0000 0.0000
# 2 32.2518 88.7794 30.1944 0.0000 0.0000 0.0000
# 3 31.2632 30.1944 104.1456 0.0000 0.0000 0.0000
# 4 0.0000 0.0000 0.0000 20.2778 0.0000 0.0000
# 5 0.0000 0.0000 0.0000 0.0000 8.1635 0.0000
# 6 0.0000 0.0000 0.0000 0.0000 0.0000 -0.0617
#
#
#
# Elastic Compliance Matrix: (Units=1/GPa)
#
#
# Indices 1 2 3 4 5 6 
#
# 1 0.018779 -0.005441 -0.004060 0.000000 0.000000 0.000000
# 2 -0.005441 0.014073 -0.002447 0.000000 0.000000 0.000000
# 3 -0.004060 -0.002447 0.011530 0.000000 0.000000 0.000000
# 4 0.000000 0.000000 0.000000 0.049315 0.000000 0.000000
# 5 0.000000 0.000000 0.000000 0.000000 0.122497 0.000000
# 6 0.000000 0.000000 0.000000 0.000000 0.000000-16.210148
#
#
# Mechanical properties :
#
#
# Convention : Reuss Voigt Hill
#
# Bulk Modulus (GPa) = 48.81272 49.96650 49.38961
# Shear Modulus (GPa) = -0.31322 16.91393 8.30036
#
# Velocity S-wave (km/s) = -0.41587 3.05601 2.14082
# Velocity P-wave (km/s) = 5.16931 6.32785 5.77769
#
# Compressibility (1/GPa) = 0.02048646
#
# Stress axis : x y z
#
# Youngs Moduli (GPa) = 53.25102 71.05951 86.73079
#
# Poissons Ratio (x) = 0.38666 0.35210
# Poissons Ratio (y) = 0.28976 0.21220
# Poissons Ratio (z) = 0.21618 0.17385
#
# Static dielectric constant tensor:
#      x y z
#    x 1.613580 0.000000 0.000000 
#    y 0.000000 1.614090 0.000000 
#    z 0.000000 0.000000 1.629400 
# 
# From -- ./inp_files/58193.got.cif
#   From: 2010.05.17/outbox.cif.g08.bks.cpg/sg63_30_cif.got.tgz:58193.got - 2010.06.03 15:47:04.
