data_PCOD9471937
_publ_section_title
;
Structure prediction by ZEFSAII (Michael W. Deem and Ramdas Pophale) SiO2 
 PCOD9471937
Probable space group: C M C M
;
_chemical_formula_sum "Si O2"
_cell_formula_units_Z 96
_cell_length_a 14.777004
_cell_length_b 24.020853
_cell_length_c 16.091072
_cell_angle_alpha 90.000000
_cell_angle_beta 90.000000
_cell_angle_gamma 90.000000
_cell_volume 5711.626429
_symmetry_space_group_name_H-M "C M C M"
_symmetry_group_IT_number 63
_symmetry_cell_setting 'orthorhombic'
loop_
_space_group_symop_operation_xyz
x,y,z
-x,-y,1/2+z
x,-y,-z
-x,y,1/2-z
-x,-y,-z
x,y,1/2-z
-x,y,z
x,-y,1/2+z
1/2+x,1/2+y,z
1/2-x,1/2-y,1/2+z
1/2+x,1/2-y,-z
1/2-x,1/2+y,1/2-z
1/2-x,1/2-y,-z
1/2+x,1/2+y,1/2-z
1/2-x,1/2+y,z
1/2+x,1/2-y,1/2+z
loop_
_atom_site_type_symbol
_atom_site_label
_atom_site_fract_x
_atom_site_fract_y
_atom_site_fract_z
Si Si1 0.899923 0.448303 0.848768
Si Si2 0.392805 0.720653 0.652357
Si Si3 0.895746 0.949525 0.932073
Si Si4 0.396353 0.165843 0.449518
Si Si5 0.783239 0.132107 0.957297
Si Si6 0.738386 0.523307 0.846185
O O1 0.886503 0.440134 0.750000
O O2 0.894762 0.389624 0.893922
O O3 0.824304 0.489813 0.880563
O O4 0.000000 0.472022 0.861379
O O5 0.365246 0.720028 0.750000
O O6 0.500000 0.707206 0.650272
O O7 0.381802 0.781206 0.610322
O O8 0.339494 0.677401 0.594591
O O9 0.000000 0.935243 0.915752
O O10 0.844325 0.980159 0.857274
O O11 0.840658 0.896346 0.967212
O O12 0.894745 0.000000 0.000000
O O13 0.500000 0.170581 0.484463
O O14 0.312210 0.157821 0.512170
O O15 0.770410 0.079701 0.896601
O O16 0.751492 0.536297 0.750000
#
# Coordination Sequence:
#
# PCOD9471937 Si02
#       6
#    16  16  16  16  16  16
#     4   9  17  31  51  76 106 139 176 218 259 306
#     4  10  21  37  57  80 104 136 181 228 271 316
#     4   9  18  32  49  71 102 138 173 214 263 312
#     4  10  20  34  55  80 107 140 178 222 270 319
#     4  11  20  34  53  80 108 139 173 224 271 322
#     4  10  20  33  50  74 106 143 178 213 260 317
#
# _framework density 16.807822000000002
#
# number of rings (size 3 to 8) (size 9 to 14) (size 15 to 20)
#    0.000    2.167    1.667    2.000    0.000    3.667 
#    0.000    1.667    0.000    1.500    0.000    0.000 
#    0.000    0.000    0.000    0.000    0.000    0.000 
#
# Total GULP energy -267426.595102 kJ/mol
# GULP energy per Si atom -5571.387398 kJ/mol
# Density = 1.676957 g / cm^3
# Si number density = 16.807822 Si / 1000 Ang^3
#
#
#
# Elastic Constant Matrix: (Units=GPa)
#
#
# Indices 1 2 3 4 5 6 
#
# 1 105.7303 44.4108 34.4361 0.0000 0.0000 0.0000
# 2 44.4108 69.8666 22.5557 0.0000 0.0000 0.0000
# 3 34.4361 22.5557 44.1365 0.0000 0.0000 0.0000
# 4 0.0000 0.0000 0.0000 47.2717 0.0000 0.0000
# 5 0.0000 0.0000 0.0000 0.0000 27.5706 0.0000
# 6 0.0000 0.0000 0.0000 0.0000 0.0000 28.8097
#
#
#
# Elastic Compliance Matrix: (Units=1/GPa)
#
#
# Indices 1 2 3 4 5 6 
#
# 1 0.015029 -0.006907 -0.008196 0.000000 0.000000 0.000000
# 2 -0.006907 0.020315 -0.004993 0.000000 0.000000 0.000000
# 3 -0.008196 -0.004993 0.031603 0.000000 0.000000 0.000000
# 4 0.000000 0.000000 0.000000 0.021154 0.000000 0.000000
# 5 0.000000 0.000000 0.000000 0.000000 0.036271 0.000000
# 6 0.000000 0.000000 0.000000 0.000000 0.000000 0.034710
#
#
# Mechanical properties :
#
#
# Convention : Reuss Voigt Hill
#
# Bulk Modulus (GPa) = 37.37567 46.94874 42.16221
# Shear Modulus (GPa) = 24.01619 28.61911 26.31765
#
# Velocity S-wave (km/s) = 3.78414 4.13089 3.96131
# Velocity P-wave (km/s) = 6.43260 7.12360 6.78690
#
# Compressibility (1/GPa) = 0.02675537
#
# Stress axis : x y z
#
# Youngs Moduli (GPa) = 66.53982 49.22365 31.64239
#
# Poissons Ratio (x) = 0.33999 0.25933
# Poissons Ratio (y) = 0.45959 0.15799
# Poissons Ratio (z) = 0.54535 0.24578
#
# Static dielectric constant tensor:
#      x y z
#    x 1.598440 0.000000 0.000000 
#    y 0.000000 1.538920 0.000000 
#    z 0.000000 0.000000 1.560630 
# 
# From -- ./inp_files/31851.got.cif
#   From: 2010.05.17/outbox.cif.g08.bks.cpg/sg63_16_cif.got.tgz:31851.got - 2010.06.03 15:47:04.
