data_PCOD9471058
_publ_section_title
;
Structure prediction by ZEFSAII (Michael W. Deem and Ramdas Pophale) SiO2 
 PCOD9471058
Probable space group: C M C M
;
_chemical_formula_sum "Si O2"
_cell_formula_units_Z 80
_cell_length_a 25.716378
_cell_length_b 9.460910
_cell_length_c 13.840106
_cell_angle_alpha 90.000000
_cell_angle_beta 90.000000
_cell_angle_gamma 90.000000
_cell_volume 3367.302465
_symmetry_space_group_name_H-M "C M C M"
_symmetry_group_IT_number 63
_symmetry_cell_setting 'orthorhombic'
loop_
_space_group_symop_operation_xyz
x,y,z
-x,-y,1/2+z
x,-y,-z
-x,y,1/2-z
-x,-y,-z
x,y,1/2-z
-x,y,z
x,-y,1/2+z
1/2+x,1/2+y,z
1/2-x,1/2-y,1/2+z
1/2+x,1/2-y,-z
1/2-x,1/2+y,1/2-z
1/2-x,1/2-y,-z
1/2+x,1/2+y,1/2-z
1/2-x,1/2+y,z
1/2+x,1/2-y,1/2+z
loop_
_atom_site_type_symbol
_atom_site_label
_atom_site_fract_x
_atom_site_fract_y
_atom_site_fract_z
Si Si1 0.285877 0.031397 0.641437
Si Si2 0.156760 0.309703 0.531885
Si Si3 0.334734 0.468743 0.359585
Si Si4 0.443975 0.507817 0.114440
Si Si5 0.441239 0.172802 0.358244
O O1 0.293177 0.085019 0.750000
O O2 0.312506 0.136544 0.562632
O O3 0.225320 0.991532 0.627937
O O4 0.313990 0.884285 0.620986
O O5 0.158422 0.145277 0.555242
O O6 0.097681 0.356996 0.553422
O O7 0.336336 0.407726 0.250000
O O8 0.386580 0.567211 0.360721
O O9 0.500000 0.570927 0.145443
O O10 0.442828 0.344410 0.147802
O O11 0.446094 0.500000 0.000000
O O12 0.425380 0.122366 0.250000
O O13 0.500000 0.124333 0.376401
#
# Coordination Sequence:
#
# PCOD9471058 Si02
#       5
#    16  16  16  16  16
#     4  10  21  34  50  76 105 136 175 214 259 311
#     4  10  19  34  56  74 101 139 168 217 262 305
#     4  10  20  34  53  76 102 135 177 217 255 310
#     4   9  17  28  47  73 101 130 162 209 260 302
#     4   9  17  32  56  81 102 131 176 220 257 304
#
# _framework density 23.757891999999998
#
# number of rings (size 3 to 8) (size 9 to 14) (size 15 to 20)
#    0.000    2.400    0.000    4.200    2.800    1.200 
#    0.000    2.000    0.000    6.600    0.000   11.200 
#    0.000    0.000    0.000    0.000    0.000    0.000 
#
# Total GULP energy -222718.752954 kJ/mol
# GULP energy per Si atom -5567.968824 kJ/mol
# Density = 2.370382 g / cm^3
# Si number density = 23.757892 Si / 1000 Ang^3
#
#
#
# Elastic Constant Matrix: (Units=GPa)
#
#
# Indices 1 2 3 4 5 6 
#
# 1 210.0387 9.3091 51.2603 0.0000 0.0000 0.0000
# 2 9.3091 17.9349 -2.0749 0.0000 0.0000 0.0000
# 3 51.2603 -2.0749 143.1898 0.0000 0.0000 0.0000
# 4 0.0000 0.0000 0.0000 21.2716 0.0000 0.0000
# 5 0.0000 0.0000 0.0000 0.0000 -23.9177 0.0000
# 6 0.0000 0.0000 0.0000 0.0000 0.0000 19.3324
#
#
#
# Elastic Compliance Matrix: (Units=1/GPa)
#
#
# Indices 1 2 3 4 5 6 
#
# 1 0.005375 -0.003018 -0.001968 0.000000 0.000000 0.000000
# 2 -0.003018 0.057545 0.001914 0.000000 0.000000 0.000000
# 3 -0.001968 0.001914 0.007716 0.000000 0.000000 0.000000
# 4 0.000000 0.000000 0.000000 0.047011 0.000000 0.000000
# 5 0.000000 0.000000 0.000000 0.000000 -0.041810 0.000000
# 6 0.000000 0.000000 0.000000 0.000000 0.000000 0.051727
#
#
# Mechanical properties :
#
#
# Convention : Reuss Voigt Hill
#
# Bulk Modulus (GPa) = 15.50550 54.23916 34.87233
# Shear Modulus (GPa) = 32.21555 24.18183 28.19869
#
# Velocity S-wave (km/s) = 3.68638 3.19383 3.44891
# Velocity P-wave (km/s) = 4.96586 6.03989 5.52902
#
# Compressibility (1/GPa) = 0.06449326
#
# Stress axis : x y z
#
# Youngs Moduli (GPa) = 186.04487 17.37769 129.60133
#
# Poissons Ratio (x) = 0.05244 0.25505
# Poissons Ratio (y) = 0.56141 -0.24807
# Poissons Ratio (z) = 0.36612 -0.03326
#
# Static dielectric constant tensor:
#      x y z
#    x 2.015700 0.000000 0.000000 
#    y 0.000000 1.925120 0.000000 
#    z 0.000000 0.000000 1.984360 
# 
# From -- ./inp_files/37695.got.cif
#   From: 2010.05.17/outbox.cif.g08.bks.cpg/sg63_19_cif.got.tgz:37695.got - 2010.06.03 15:47:04.
