data_PCOD9471513
_publ_section_title
;
Structure prediction by ZEFSAII (Michael W. Deem and Ramdas Pophale) SiO2 
 PCOD9471513
Probable space group: C M C M
;
_chemical_formula_sum "Si O2"
_cell_formula_units_Z 64
_cell_length_a 14.476834
_cell_length_b 8.768550
_cell_length_c 28.223400
_cell_angle_alpha 90.000000
_cell_angle_beta 90.000000
_cell_angle_gamma 90.000000
_cell_volume 3582.702182
_symmetry_space_group_name_H-M "C M C M"
_symmetry_group_IT_number 63
_symmetry_cell_setting 'orthorhombic'
loop_
_space_group_symop_operation_xyz
x,y,z
-x,-y,1/2+z
x,-y,-z
-x,y,1/2-z
-x,-y,-z
x,y,1/2-z
-x,y,z
x,-y,1/2+z
1/2+x,1/2+y,z
1/2-x,1/2-y,1/2+z
1/2+x,1/2-y,-z
1/2-x,1/2+y,1/2-z
1/2-x,1/2-y,-z
1/2+x,1/2+y,1/2-z
1/2-x,1/2+y,z
1/2+x,1/2-y,1/2+z
loop_
_atom_site_type_symbol
_atom_site_label
_atom_site_fract_x
_atom_site_fract_y
_atom_site_fract_z
Si Si1 0.000000 0.654013 0.029837
Si Si2 0.000000 0.840909 0.562539
Si Si3 0.000000 0.876423 0.804490
Si Si4 0.149056 0.996308 0.877856
Si Si5 0.350493 0.853317 0.888003
Si Si6 0.000000 0.421354 0.144918
O O1 0.091023 0.653071 0.062909
O O2 0.000000 0.500000 0.000000
O O3 0.000000 0.787607 0.991213
O O4 0.000000 0.691143 0.598050
O O5 0.087291 0.941924 0.577674
O O6 0.000000 0.694542 0.811818
O O7 0.000000 0.921013 0.750000
O O8 0.090373 0.935318 0.832888
O O9 0.154300 0.177726 0.872727
O O10 0.248557 0.922713 0.886639
O O11 0.412552 0.967573 0.856842
#
# Coordination Sequence:
#
# PCOD9471513 Si02
#       6
#     8   8   8  16  16   8
#     4  11  22  36  58  84 120 158 210 244 274 333
#     4  10  19  37  54  83 117 156 196 247 281 334
#     4  10  21  41  67  91 113 142 188 243 296 364
#     4  10  22  38  61  84 119 159 191 239 304 343
#     4  11  21  38  59  84 119 164 193 236 288 345
#     4   9  18  37  60  81 121 150 184 232 303 337
#
# _framework density 17.863612
#
# number of rings (size 3 to 8) (size 9 to 14) (size 15 to 20)
#    0.000    2.000    2.500    6.000    0.000    3.000 
#    0.000    7.500    0.000    0.000    0.000    0.000 
#    0.000    0.000    0.000    0.000    0.000    0.000 
#
# Total GULP energy -178388.912914 kJ/mol
# GULP energy per Si atom -5574.653529 kJ/mol
# Density = 1.782295 g / cm^3
# Si number density = 17.863612 Si / 1000 Ang^3
#
#
#
# Elastic Constant Matrix: (Units=GPa)
#
#
# Indices 1 2 3 4 5 6 
#
# 1 186.6395 67.4004 41.6554 0.0000 0.0000 0.0000
# 2 67.4004 153.2551 21.4394 0.0000 0.0000 0.0000
# 3 41.6554 21.4394 90.0482 0.0000 0.0000 0.0000
# 4 0.0000 0.0000 0.0000 18.5835 0.0000 0.0000
# 5 0.0000 0.0000 0.0000 0.0000 -1.1900 0.0000
# 6 0.0000 0.0000 0.0000 0.0000 0.0000 -533.9023
#
#
#
# Elastic Compliance Matrix: (Units=1/GPa)
#
#
# Indices 1 2 3 4 5 6 
#
# 1 0.006893 -0.002675 -0.002552 0.000000 0.000000 0.000000
# 2 -0.002675 0.007788 -0.000617 0.000000 0.000000 0.000000
# 3 -0.002552 -0.000617 0.012433 0.000000 0.000000 0.000000
# 4 0.000000 0.000000 0.000000 0.053811 0.000000 0.000000
# 5 0.000000 0.000000 0.000000 0.000000 -0.840366 0.000000
# 6 0.000000 0.000000 0.000000 0.000000 0.000000 -0.001873
#
#
# Mechanical properties :
#
#
# Convention : Reuss Voigt Hill
#
# Bulk Modulus (GPa) = 64.82337 76.77035 70.79686
# Shear Modulus (GPa) = -6.71605 -83.33858 -45.02732
#
# Velocity S-wave (km/s) = -1.94108 -6.83769 -5.02602
# Velocity P-wave (km/s) = 5.59848 4.38971 2.45698
#
# Compressibility (1/GPa) = 0.01542654
#
# Stress axis : x y z
#
# Youngs Moduli (GPa) = 145.06667 128.40843 80.43385
#
# Poissons Ratio (x) = 0.34345 0.20527
# Poissons Ratio (y) = 0.38800 0.04962
# Poissons Ratio (z) = 0.37021 0.07921
#
# Static dielectric constant tensor:
#      x y z
#    x 1.640620 0.000000 0.000000 
#    y 0.000000 1.632050 0.000000 
#    z 0.000000 0.000000 1.612620 
# 
# From -- ./inp_files/73212.got.cif
#   From: 2010.05.17/outbox.cif.g08.bks.cpg/sg63_37_cif.got.tgz:73212.got - 2010.06.03 15:47:04.
