data_PCOD9471268
_publ_section_title
;
Structure prediction by ZEFSAII (Michael W. Deem and Ramdas Pophale) SiO2 
 PCOD9471268
Probable space group: C M C M
;
_chemical_formula_sum "Si O2"
_cell_formula_units_Z 56
_cell_length_a 22.091484
_cell_length_b 8.462172
_cell_length_c 14.609600
_cell_angle_alpha 90.000000
_cell_angle_beta 90.000000
_cell_angle_gamma 90.000000
_cell_volume 2731.146928
_symmetry_space_group_name_H-M "C M C M"
_symmetry_group_IT_number 63
_symmetry_cell_setting 'orthorhombic'
loop_
_space_group_symop_operation_xyz
x,y,z
-x,-y,1/2+z
x,-y,-z
-x,y,1/2-z
-x,-y,-z
x,y,1/2-z
-x,y,z
x,-y,1/2+z
1/2+x,1/2+y,z
1/2-x,1/2-y,1/2+z
1/2+x,1/2-y,-z
1/2-x,1/2+y,1/2-z
1/2-x,1/2-y,-z
1/2+x,1/2+y,1/2-z
1/2-x,1/2+y,z
1/2+x,1/2-y,1/2+z
loop_
_atom_site_type_symbol
_atom_site_label
_atom_site_fract_x
_atom_site_fract_y
_atom_site_fract_z
Si Si1 0.430676 0.646721 0.558615
Si Si2 0.894846 0.987807 0.250000
Si Si3 0.720089 0.730064 0.750000
Si Si4 0.861545 0.345957 0.250000
Si Si5 0.340668 0.924985 0.590916
O O1 0.406129 0.500000 0.500000
O O2 0.500000 0.677311 0.531401
O O3 0.426798 0.584581 0.661947
O O4 0.389746 0.800916 0.553747
O O5 0.893642 0.176882 0.250000
O O6 0.825995 0.918564 0.250000
O O7 0.789363 0.683671 0.750000
O O8 0.703886 0.831148 0.840634
O O9 0.872578 0.448200 0.341585
O O10 0.311481 0.000000 0.500000
#
# Coordination Sequence:
#
# PCOD9471268 Si02
#       5
#    16   8   8   8  16
#     4  10  21  38  58  80 110 147 184 225 277 333
#     4  10  19  35  57  79 110 149 186 224 273 334
#     4   9  21  38  56  81 115 149 182 225 275 329
#     4  11  21  37  57  82 115 146 183 231 274 317
#     4  10  21  37  58  85 112 142 185 232 274 321
#
# _framework density 20.504207999999998
#
# number of rings (size 3 to 8) (size 9 to 14) (size 15 to 20)
#    0.000    2.000    0.000    4.714    0.000    1.714 
#    0.000   10.000    0.000    0.000    0.000    0.000 
#    0.000    0.000    0.000    0.000    0.000    0.000 
#
# Total GULP energy -156401.085109 kJ/mol
# GULP energy per Si atom -5585.753040 kJ/mol
# Density = 2.045754 g / cm^3
# Si number density = 20.504208 Si / 1000 Ang^3
#
#
#
# Elastic Constant Matrix: (Units=GPa)
#
#
# Indices 1 2 3 4 5 6 
#
# 1 53.9038 21.2008 -7.7727 0.0000 0.0000 0.0000
# 2 21.2008 103.3445 28.8686 0.0000 0.0000 0.0000
# 3 -7.7727 28.8686 123.3733 0.0000 0.0000 0.0000
# 4 0.0000 0.0000 0.0000 42.8605 0.0000 0.0000
# 5 0.0000 0.0000 0.0000 0.0000 6.1905 0.0000
# 6 0.0000 0.0000 0.0000 0.0000 0.0000 12.0189
#
#
#
# Elastic Compliance Matrix: (Units=1/GPa)
#
#
# Indices 1 2 3 4 5 6 
#
# 1 0.020865 -0.004973 0.002478 0.000000 0.000000 0.000000
# 2 -0.004973 0.011538 -0.003013 0.000000 0.000000 0.000000
# 3 0.002478 -0.003013 0.008967 0.000000 0.000000 0.000000
# 4 0.000000 0.000000 0.000000 0.023331 0.000000 0.000000
# 5 0.000000 0.000000 0.000000 0.000000 0.161538 0.000000
# 6 0.000000 0.000000 0.000000 0.000000 0.000000 0.083203
#
#
# Mechanical properties :
#
#
# Convention : Reuss Voigt Hill
#
# Bulk Modulus (GPa) = 32.94438 40.57945 36.76192
# Shear Modulus (GPa) = 15.12519 28.10230 21.61374
#
# Velocity S-wave (km/s) = 2.71894 3.70613 3.25023
# Velocity P-wave (km/s) = 5.09498 6.17637 5.66156
#
# Compressibility (1/GPa) = 0.03035419
#
# Stress axis : x y z
#
# Youngs Moduli (GPa) = 47.92800 86.66880 111.52422
#
# Poissons Ratio (x) = 0.43096 -0.27636
# Poissons Ratio (y) = 0.23832 0.33604
# Poissons Ratio (z) = -0.11877 0.26115
#
# Static dielectric constant tensor:
#      x y z
#    x 1.708240 0.000000 0.000000 
#    y 0.000000 1.750340 0.000000 
#    z 0.000000 0.000000 1.702280 
# 
# From -- ./inp_files/24576.got.cif
#   From: 2010.05.17/outbox.cif.g08.bks.cpg/sg63_13_cif.got.tgz:24576.got - 2010.06.03 15:47:04.
