data_PCOD9471485
_publ_section_title
;
Structure prediction by ZEFSAII (Michael W. Deem and Ramdas Pophale) SiO2 
 PCOD9471485
Probable space group: C M C M
;
_chemical_formula_sum "Si O2"
_cell_formula_units_Z 128
_cell_length_a 24.174007
_cell_length_b 10.417242
_cell_length_c 23.582748
_cell_angle_alpha 90.000000
_cell_angle_beta 90.000000
_cell_angle_gamma 90.000000
_cell_volume 5938.760442
_symmetry_space_group_name_H-M "C M C M"
_symmetry_group_IT_number 63
_symmetry_cell_setting 'orthorhombic'
loop_
_space_group_symop_operation_xyz
x,y,z
-x,-y,1/2+z
x,-y,-z
-x,y,1/2-z
-x,-y,-z
x,y,1/2-z
-x,y,z
x,-y,1/2+z
1/2+x,1/2+y,z
1/2-x,1/2-y,1/2+z
1/2+x,1/2-y,-z
1/2-x,1/2+y,1/2-z
1/2-x,1/2-y,-z
1/2+x,1/2+y,1/2-z
1/2-x,1/2+y,z
1/2+x,1/2-y,1/2+z
loop_
_atom_site_type_symbol
_atom_site_label
_atom_site_fract_x
_atom_site_fract_y
_atom_site_fract_z
Si Si1 0.881041 0.532314 0.895385
Si Si2 0.937257 0.707987 0.975041
Si Si3 0.771427 0.755781 0.158326
Si Si4 0.642928 0.579715 0.076548
Si Si5 0.258008 0.001325 0.411183
Si Si6 0.850747 0.235945 0.313460
Si Si7 0.893946 0.286748 0.814509
Si Si8 0.061317 0.150046 0.584501
O O1 0.924424 0.575899 0.942960
O O2 0.821565 0.522284 0.928309
O O3 0.876822 0.647600 0.849119
O O4 0.892649 0.411043 0.855439
O O5 0.891081 0.806221 0.951972
O O6 0.000000 0.746775 0.959739
O O7 0.933237 0.727284 0.042670
O O8 0.765897 0.865096 0.110076
O O9 0.768267 0.609135 0.136929
O O10 0.714183 0.771968 0.191072
O O11 0.831072 0.767707 0.186204
O O12 0.706422 0.565823 0.056022
O O13 0.644998 0.615131 0.143831
O O14 0.608241 0.451126 0.068465
O O15 0.872734 0.217007 0.250000
O O16 0.911193 0.312375 0.750000
O O17 0.930880 0.188910 0.850421
O O18 0.000000 0.095610 0.575002
#
# Coordination Sequence:
#
# PCOD9471485 Si02
#       8
#    16  16  16  16  16  16  16  16
#     4   9  20  37  61  89 124 158 208 255 304 369
#     4  10  22  42  68  88 110 160 221 269 303 353
#     4   9  17  32  53  86 122 167 210 248 298 373
#     4  10  19  36  61  89 120 154 203 256 316 373
#     4   9  17  33  59  89 130 164 201 256 317 378
#     4   9  17  31  56  88 121 158 202 251 299 360
#     4  11  22  37  59  86 122 161 196 245 315 380
#     4  11  24  41  61  85 116 156 209 258 303 371
#
# _framework density 21.553319999999999
#
# number of rings (size 3 to 8) (size 9 to 14) (size 15 to 20)
#    0.000    2.250    1.250    2.250    0.000    2.750 
#    0.000    5.000    8.250   12.000    0.000    0.000 
#    0.000    0.000    0.000    0.000    0.000    0.000 
#
# Total GULP energy -356466.123073 kJ/mol
# GULP energy per Si atom -5569.783173 kJ/mol
# Density = 2.150426 g / cm^3
# Si number density = 21.553320 Si / 1000 Ang^3
#
#
#
# Elastic Constant Matrix: (Units=GPa)
#
#
# Indices 1 2 3 4 5 6 
#
# 1 70.5078 -11.5704 25.2641 0.0000 0.0000 0.0000
# 2 -11.5704 39.9511 2.2945 0.0000 0.0000 0.0000
# 3 25.2641 2.2945 104.5880 0.0000 0.0000 0.0000
# 4 0.0000 0.0000 0.0000 11.0796 0.0000 0.0000
# 5 0.0000 0.0000 0.0000 0.0000 3.6141 0.0000
# 6 0.0000 0.0000 0.0000 0.0000 0.0000 -12.8940
#
#
#
# Elastic Compliance Matrix: (Units=1/GPa)
#
#
# Indices 1 2 3 4 5 6 
#
# 1 0.016469 0.005004 -0.004088 0.000000 0.000000 0.000000
# 2 0.005004 0.026583 -0.001792 0.000000 0.000000 0.000000
# 3 -0.004088 -0.001792 0.010588 0.000000 0.000000 0.000000
# 4 0.000000 0.000000 0.000000 0.090256 0.000000 0.000000
# 5 0.000000 0.000000 0.000000 0.000000 0.276694 0.000000
# 6 0.000000 0.000000 0.000000 0.000000 0.000000 -0.077555
#
#
# Mechanical properties :
#
#
# Convention : Reuss Voigt Hill
#
# Bulk Modulus (GPa) = 19.27202 27.44700 23.35951
# Shear Modulus (GPa) = 13.80902 13.63052 13.71977
#
# Velocity S-wave (km/s) = 2.53393 2.51750 2.52573
# Velocity P-wave (km/s) = 4.18594 4.60571 4.40083
#
# Compressibility (1/GPa) = 0.05188869
#
# Stress axis : x y z
#
# Youngs Moduli (GPa) = 60.72073 37.61816 94.44542
#
# Poissons Ratio (x) = -0.18826 0.38609
# Poissons Ratio (y) = -0.30387 0.16925
# Poissons Ratio (z) = 0.24822 0.06741
#
# Static dielectric constant tensor:
#      x y z
#    x 1.783370 0.000000 0.000000 
#    y 0.000000 1.809640 0.000000 
#    z 0.000000 0.000000 1.906730 
# 
# From -- ./inp_files/65161.got.cif
#   From: 2010.05.17/outbox.cif.g08.bks.cpg/sg63_33_cif.got.tgz:65161.got - 2010.06.03 15:47:04.
