data_PCOD9471085
_publ_section_title
;
Structure prediction by ZEFSAII (Michael W. Deem and Ramdas Pophale) SiO2 
 PCOD9471085
Probable space group: C M C M
;
_chemical_formula_sum "Si O2"
_cell_formula_units_Z 116
_cell_length_a 7.808122
_cell_length_b 25.721097
_cell_length_c 29.592184
_cell_angle_alpha 90.000000
_cell_angle_beta 90.000000
_cell_angle_gamma 90.000000
_cell_volume 5943.100801
_symmetry_space_group_name_H-M "C M C M"
_symmetry_group_IT_number 63
_symmetry_cell_setting 'orthorhombic'
loop_
_space_group_symop_operation_xyz
x,y,z
-x,-y,1/2+z
x,-y,-z
-x,y,1/2-z
-x,-y,-z
x,y,1/2-z
-x,y,z
x,-y,1/2+z
1/2+x,1/2+y,z
1/2-x,1/2-y,1/2+z
1/2+x,1/2-y,-z
1/2-x,1/2+y,1/2-z
1/2-x,1/2-y,-z
1/2+x,1/2+y,1/2-z
1/2-x,1/2+y,z
1/2+x,1/2-y,1/2+z
loop_
_atom_site_type_symbol
_atom_site_label
_atom_site_fract_x
_atom_site_fract_y
_atom_site_fract_z
Si Si1 0.201352 0.179173 0.959251
Si Si2 0.297327 0.610360 0.621708
Si Si3 0.699409 0.204190 0.447577
Si Si4 0.791956 0.694610 0.802025
Si Si5 0.796141 0.593541 0.198615
Si Si6 0.301969 0.698069 0.152365
Si Si7 0.697949 0.980122 0.177957
Si Si8 0.500000 0.457656 0.250000
O O1 0.271345 0.137873 0.923705
O O2 0.273934 0.237104 0.950537
O O3 0.000000 0.182689 0.948522
O O4 0.220234 0.169899 0.012630
O O5 0.500000 0.601050 0.616938
O O6 0.269017 0.650753 0.663192
O O7 0.208501 0.556716 0.634716
O O8 0.500000 0.206539 0.459026
O O9 0.716950 0.187863 0.395915
O O10 0.734223 0.686756 0.750000
O O11 0.734914 0.750947 0.821329
O O12 0.000000 0.693669 0.801357
O O13 0.740932 0.581527 0.250000
O O14 0.713105 0.646303 0.181799
O O15 0.762967 0.541166 0.170733
O O16 0.000000 0.602476 0.198525
O O17 0.500000 0.708915 0.142858
O O18 0.500000 0.977643 0.195585
O O19 0.846367 0.959725 0.211139
#
# Coordination Sequence:
#
# PCOD9471085 Si02
#       8
#    16  16  16  16  16  16  16   4
#     4   9  19  35  56  81 114 147 189 239 286 347
#     4  11  22  37  57  84 116 154 193 239 294 352
#     4  10  19  34  56  82 111 147 189 236 291 348
#     4  10  22  36  49  75 114 155 191 232 285 345
#     4  10  22  39  59  82 113 152 196 245 293 337
#     4  11  22  35  56  82 115 151 193 239 291 349
#     4  11  24  40  60  88 119 154 201 253 294 344
#     4  12  22  40  64  86 116 154 210 248 292 348
#
# _framework density 19.518432000000001
#
# number of rings (size 3 to 8) (size 9 to 14) (size 15 to 20)
#    0.000    1.655    2.759    1.862    1.931    3.310 
#    0.000    0.000    0.000    0.828    0.000    5.793 
#    0.000    0.000    0.000    0.000    0.000    0.000 
#
# Total GULP energy -323113.960537 kJ/mol
# GULP energy per Si atom -5570.930354 kJ/mol
# Density = 1.947401 g / cm^3
# Si number density = 19.518432 Si / 1000 Ang^3
#
#
#
# Elastic Constant Matrix: (Units=GPa)
#
#
# Indices 1 2 3 4 5 6 
#
# 1 58.8401 -3.5797 -6.3941 0.0000 0.0000 0.0000
# 2 -3.5797 74.8063 5.7211 0.0000 0.0000 0.0000
# 3 -6.3941 5.7211 48.0142 0.0000 0.0000 0.0000
# 4 0.0000 0.0000 0.0000 -15.2207 0.0000 0.0000
# 5 0.0000 0.0000 0.0000 0.0000 24.6645 0.0000
# 6 0.0000 0.0000 0.0000 0.0000 0.0000 21.4280
#
#
#
# Elastic Compliance Matrix: (Units=1/GPa)
#
#
# Indices 1 2 3 4 5 6 
#
# 1 0.017277 0.000657 0.002222 0.000000 0.000000 0.000000
# 2 0.000657 0.013516 -0.001523 0.000000 0.000000 0.000000
# 3 0.002222 -0.001523 0.021305 0.000000 0.000000 0.000000
# 4 0.000000 0.000000 0.000000 -0.065700 0.000000 0.000000
# 5 0.000000 0.000000 0.000000 0.000000 0.040544 0.000000
# 6 0.000000 0.000000 0.000000 0.000000 0.000000 0.046668
#
#
# Mechanical properties :
#
#
# Convention : Reuss Voigt Hill
#
# Bulk Modulus (GPa) = 18.24498 19.23947 18.74222
# Shear Modulus (GPa) = 56.07494 18.56858 37.32176
#
# Velocity S-wave (km/s) = 5.36578 3.08772 4.37753
# Velocity P-wave (km/s) = 6.91062 4.75295 5.93073
#
# Compressibility (1/GPa) = 0.05480959
#
# Stress axis : x y z
#
# Youngs Moduli (GPa) = 57.88152 73.98770 46.93814
#
# Poissons Ratio (x) = -0.04859 -0.10432
# Poissons Ratio (y) = -0.03801 0.07149
# Poissons Ratio (z) = -0.12864 0.11268
#
# Static dielectric constant tensor:
#      x y z
#    x 1.703600 0.000000 0.000000 
#    y 0.000000 1.687400 0.000000 
#    z 0.000000 0.000000 1.730660 
# 
# From -- ./inp_files/72090.got.cif
#   From: 2010.05.17/outbox.cif.g08.bks.cpg/sg63_37_cif.got.tgz:72090.got - 2010.06.03 15:47:04.
