data_PCOD9471585
_publ_section_title
;
Structure prediction by ZEFSAII (Michael W. Deem and Ramdas Pophale) SiO2 
 PCOD9471585
Probable space group: C M C M
;
_chemical_formula_sum "Si O2"
_cell_formula_units_Z 88
_cell_length_a 14.543174
_cell_length_b 15.498174
_cell_length_c 20.651238
_cell_angle_alpha 90.000000
_cell_angle_beta 90.000000
_cell_angle_gamma 90.000000
_cell_volume 4654.637076
_symmetry_space_group_name_H-M "C M C M"
_symmetry_group_IT_number 63
_symmetry_cell_setting 'orthorhombic'
loop_
_space_group_symop_operation_xyz
x,y,z
-x,-y,1/2+z
x,-y,-z
-x,y,1/2-z
-x,-y,-z
x,y,1/2-z
-x,y,z
x,-y,1/2+z
1/2+x,1/2+y,z
1/2-x,1/2-y,1/2+z
1/2+x,1/2-y,-z
1/2-x,1/2+y,1/2-z
1/2-x,1/2-y,-z
1/2+x,1/2+y,1/2-z
1/2-x,1/2+y,z
1/2+x,1/2-y,1/2+z
loop_
_atom_site_type_symbol
_atom_site_label
_atom_site_fract_x
_atom_site_fract_y
_atom_site_fract_z
Si Si1 0.762503 0.348168 0.018158
Si Si2 0.393937 0.566007 0.892882
Si Si3 0.896982 0.590279 0.876521
Si Si4 0.162020 0.914954 0.250000
Si Si5 0.288375 0.377303 0.750000
Si Si6 0.853009 0.309094 0.250000
Si Si7 0.741594 0.066642 0.380585
O O1 0.673442 0.383068 0.057923
O O2 0.849818 0.360848 0.064176
O O3 0.750000 0.250000 0.000000
O O4 0.779439 0.397919 0.951232
O O5 0.500000 0.563494 0.913127
O O6 0.387166 0.600924 0.818834
O O7 0.344512 0.472606 0.887853
O O8 0.896741 0.651741 0.814413
O O9 0.828434 0.510483 0.864187
O O10 0.000000 0.560993 0.890606
O O11 0.250667 0.852371 0.250000
O O12 0.182760 0.019986 0.250000
O O13 0.355107 0.294713 0.750000
O O14 0.237772 0.369829 0.680654
#
# Coordination Sequence:
#
# PCOD9471585 Si02
#       7
#    16  16  16   8   8   8  16
#     4  11  23  38  57  87 122 161 201 252 306 361
#     4  10  20  37  61  86 114 154 198 244 296 358
#     4  11  22  39  62  88 121 161 208 253 300 363
#     4  10  19  39  61  88 118 157 196 241 301 360
#     4  10  20  37  64  89 116 157 196 252 302 362
#     4  12  19  38  65  89 122 162 200 249 303 358
#     4  10  21  39  61  86 117 159 203 243 311 360
#
# _framework density 18.905878000000001
#
# number of rings (size 3 to 8) (size 9 to 14) (size 15 to 20)
#    0.000    1.455    5.455    3.818    0.000    3.636 
#    0.000   10.909    0.000    0.000    0.000    0.000 
#    0.000    0.000    0.000    0.000    0.000    0.000 
#
# Total GULP energy -245135.725587 kJ/mol
# GULP energy per Si atom -5571.266491 kJ/mol
# Density = 1.886285 g / cm^3
# Si number density = 18.905878 Si / 1000 Ang^3
#
#
#
# Elastic Constant Matrix: (Units=GPa)
#
#
# Indices 1 2 3 4 5 6 
#
# 1 104.8971 12.4374 22.9223 0.0000 0.0000 0.0000
# 2 12.4374 51.8695 25.5535 0.0000 0.0000 0.0000
# 3 22.9223 25.5535 162.7656 0.0000 0.0000 0.0000
# 4 0.0000 0.0000 0.0000 11.6895 0.0000 0.0000
# 5 0.0000 0.0000 0.0000 0.0000 610.2952 0.0000
# 6 0.0000 0.0000 0.0000 0.0000 0.0000 2.6462
#
#
#
# Elastic Compliance Matrix: (Units=1/GPa)
#
#
# Indices 1 2 3 4 5 6 
#
# 1 0.009996 -0.001846 -0.001118 0.000000 0.000000 0.000000
# 2 -0.001846 0.021236 -0.003074 0.000000 0.000000 0.000000
# 3 -0.001118 -0.003074 0.006784 0.000000 0.000000 0.000000
# 4 0.000000 0.000000 0.000000 0.085547 0.000000 0.000000
# 5 0.000000 0.000000 0.000000 0.000000 0.001639 0.000000
# 6 0.000000 0.000000 0.000000 0.000000 0.000000 0.377901
#
#
# Mechanical properties :
#
#
# Convention : Reuss Voigt Hill
#
# Bulk Modulus (GPa) = 38.55026 49.03985 43.79505
# Shear Modulus (GPa) = 9.54515 142.16744 75.85629
#
# Velocity S-wave (km/s) = 2.24939 8.68106 6.34115
# Velocity P-wave (km/s) = 5.21356 11.24616 8.76520
#
# Compressibility (1/GPa) = 0.02594017
#
# Stress axis : x y z
#
# Youngs Moduli (GPa) = 100.03654 47.08925 147.40893
#
# Poissons Ratio (x) = 0.08694 0.16479
# Poissons Ratio (y) = 0.18469 0.45314
# Poissons Ratio (z) = 0.11183 0.14475
#
# Static dielectric constant tensor:
#      x y z
#    x 1.649640 0.000000 0.000000 
#    y 0.000000 1.657770 0.000000 
#    z 0.000000 0.000000 1.686360 
# 
# From -- ./inp_files/54117.got.cif
#   From: 2010.05.17/outbox.cif.g08.bks.cpg/sg63_28_cif.got.tgz:54117.got - 2010.06.03 15:47:04.
