data_PCOD9471397
_publ_section_title
;
Structure prediction by ZEFSAII (Michael W. Deem and Ramdas Pophale) SiO2 
 PCOD9471397
Probable space group: C M C M
;
_chemical_formula_sum "Si O2"
_cell_formula_units_Z 80
_cell_length_a 17.164082
_cell_length_b 29.393026
_cell_length_c 8.010872
_cell_angle_alpha 90.000000
_cell_angle_beta 90.000000
_cell_angle_gamma 90.000000
_cell_volume 4041.519439
_symmetry_space_group_name_H-M "C M C M"
_symmetry_group_IT_number 63
_symmetry_cell_setting 'orthorhombic'
loop_
_space_group_symop_operation_xyz
x,y,z
-x,-y,1/2+z
x,-y,-z
-x,y,1/2-z
-x,-y,-z
x,y,1/2-z
-x,y,z
x,-y,1/2+z
1/2+x,1/2+y,z
1/2-x,1/2-y,1/2+z
1/2+x,1/2-y,-z
1/2-x,1/2+y,1/2-z
1/2-x,1/2-y,-z
1/2+x,1/2+y,1/2-z
1/2-x,1/2+y,z
1/2+x,1/2-y,1/2+z
loop_
_atom_site_type_symbol
_atom_site_label
_atom_site_fract_x
_atom_site_fract_y
_atom_site_fract_z
Si Si1 0.261982 0.639710 0.952005
Si Si2 0.500000 0.172954 0.443024
Si Si3 0.089844 0.185380 0.048111
Si Si4 0.000000 0.435557 0.561105
Si Si5 0.674667 0.049444 0.553977
Si Si6 0.653853 0.219173 0.555805
O O1 0.254685 0.640500 0.750000
O O2 0.218775 0.594163 0.016413
O O3 0.218445 0.685355 0.018957
O O4 0.352369 0.644869 0.997998
O O5 0.500000 0.189258 0.250000
O O6 0.500000 0.118927 0.438537
O O7 0.574997 0.190572 0.539094
O O8 0.087501 0.188345 0.250000
O O9 0.130495 0.231920 0.982098
O O10 0.000000 0.182209 0.991111
O O11 0.082269 0.448863 0.482422
O O12 0.000000 0.453364 0.750000
O O13 0.684781 0.052146 0.750000
O O14 0.704657 0.000000 0.500000
O O15 0.673997 0.226596 0.750000
#
# Coordination Sequence:
#
# PCOD9471397 Si02
#       6
#    16   8  16   8  16  16
#     4  10  22  37  57  82 109 146 184 226 276 325
#     4  11  21  30  50  83 115 150 189 229 266 307
#     4  10  21  36  57  82 111 147 182 224 276 326
#     4  11  22  36  55  83 116 150 190 229 269 319
#     4  11  23  39  59  82 111 147 185 228 279 329
#     4  10  19  36  56  77 113 153 187 221 268 326
#
# _framework density 19.794536000000001
#
# number of rings (size 3 to 8) (size 9 to 14) (size 15 to 20)
#    0.000    1.600    3.000    2.100    0.000    4.400 
#    0.000    0.000    0.000    0.600    0.000    0.000 
#    0.000    0.000    0.000    0.000    0.000    0.000 
#
# Total GULP energy -223200.980013 kJ/mol
# GULP energy per Si atom -5580.024500 kJ/mol
# Density = 1.974948 g / cm^3
# Si number density = 19.794536 Si / 1000 Ang^3
#
#
#
# Elastic Constant Matrix: (Units=GPa)
#
#
# Indices 1 2 3 4 5 6 
#
# 1 136.6572 81.5978 -0.2248 0.0000 0.0000 0.0000
# 2 81.5978 106.0547 11.2433 0.0000 0.0000 0.0000
# 3 -0.2248 11.2433 21.5971 0.0000 0.0000 0.0000
# 4 0.0000 0.0000 0.0000 19.3508 0.0000 0.0000
# 5 0.0000 0.0000 0.0000 0.0000 24.0075 0.0000
# 6 0.0000 0.0000 0.0000 0.0000 0.0000 16.3513
#
#
#
# Elastic Compliance Matrix: (Units=1/GPa)
#
#
# Indices 1 2 3 4 5 6 
#
# 1 0.014282 -0.011647 0.006212 0.000000 0.000000 0.000000
# 2 -0.011647 0.019478 -0.010262 0.000000 0.000000 0.000000
# 3 0.006212 -0.010262 0.051709 0.000000 0.000000 0.000000
# 4 0.000000 0.000000 0.000000 0.051677 0.000000 0.000000
# 5 0.000000 0.000000 0.000000 0.000000 0.041654 0.000000
# 6 0.000000 0.000000 0.000000 0.000000 0.000000 0.061157
#
#
# Mechanical properties :
#
#
# Convention : Reuss Voigt Hill
#
# Bulk Modulus (GPa) = 18.49228 49.94908 34.22068
# Shear Modulus (GPa) = 17.27847 23.38810 20.33328
#
# Velocity S-wave (km/s) = 2.95768 3.44109 3.20850
# Velocity P-wave (km/s) = 4.58543 6.40911 5.57238
#
# Compressibility (1/GPa) = 0.05407661
#
# Stress axis : x y z
#
# Youngs Moduli (GPa) = 70.01597 51.33884 19.33888
#
# Poissons Ratio (x) = 0.59797 -0.12014
# Poissons Ratio (y) = 0.81551 0.19845
# Poissons Ratio (z) = -0.43496 0.52682
#
# Static dielectric constant tensor:
#      x y z
#    x 1.520350 0.000000 0.000000 
#    y 0.000000 1.732090 0.000000 
#    z 0.000000 0.000000 1.724880 
# 
# From -- ./inp_files/6538.got.cif
#   From: 2010.05.17/outbox.cif.g08.bks.cpg/sg63_4_cif.got.tgz:6538.got - 2010.06.03 15:47:04.
