data_PCOD9471680
_publ_section_title
;
Structure prediction by ZEFSAII (Michael W. Deem and Ramdas Pophale) SiO2 
 PCOD9471680
Probable space group: C M C M
;
_chemical_formula_sum "Si O2"
_cell_formula_units_Z 104
_cell_length_a 25.659966
_cell_length_b 20.242148
_cell_length_c 7.373346
_cell_angle_alpha 90.000000
_cell_angle_beta 90.000000
_cell_angle_gamma 90.000000
_cell_volume 3829.810508
_symmetry_space_group_name_H-M "C M C M"
_symmetry_group_IT_number 63
_symmetry_cell_setting 'orthorhombic'
loop_
_space_group_symop_operation_xyz
x,y,z
-x,-y,1/2+z
x,-y,-z
-x,y,1/2-z
-x,-y,-z
x,y,1/2-z
-x,y,z
x,-y,1/2+z
1/2+x,1/2+y,z
1/2-x,1/2-y,1/2+z
1/2+x,1/2-y,-z
1/2-x,1/2+y,1/2-z
1/2-x,1/2-y,-z
1/2+x,1/2+y,1/2-z
1/2-x,1/2+y,z
1/2+x,1/2-y,1/2+z
loop_
_atom_site_type_symbol
_atom_site_label
_atom_site_fract_x
_atom_site_fract_y
_atom_site_fract_z
Si Si1 0.943566 0.098708 0.966774
Si Si2 0.169463 0.905150 0.042590
Si Si3 0.555945 0.757038 0.033731
Si Si4 0.170112 0.250523 0.028838
Si Si5 0.388555 0.077567 0.464153
Si Si6 0.000000 0.579332 0.033140
Si Si7 0.774734 0.625790 0.539242
O O1 0.943171 0.087780 0.750000
O O2 0.886867 0.075717 0.038985
O O3 0.000000 0.074404 0.037483
O O4 0.943656 0.177711 0.997541
O O5 0.168131 0.929447 0.250000
O O6 0.227064 0.917288 0.960757
O O7 0.171385 0.824590 0.036635
O O8 0.555080 0.764267 0.250000
O O9 0.500000 0.780265 0.958025
O O10 0.613237 0.778613 0.970054
O O11 0.170995 0.249408 0.250000
O O12 0.213829 0.301318 0.960164
O O13 0.387457 0.088878 0.250000
O O14 0.444090 0.104806 0.538312
O O15 0.332146 0.095854 0.537169
O O16 0.392594 0.000000 0.500000
O O17 0.000000 0.586618 0.250000
O O18 0.000000 0.500000 0.000000
O O19 0.761182 0.634219 0.750000
#
# Coordination Sequence:
#
# PCOD9471680 Si02
#       7
#    16  16  16  16  16   8  16
#     4   8  13  22  37  56  77 107 149 189 224 260
#     4   9  17  28  43  62  90 125 158 197 236 272
#     4   8  13  22  35  50  72 104 142 184 227 263
#     4   9  17  28  41  59  86 120 159 197 229 271
#     4  10  20  36  57  76  95 119 150 192 240 287
#     4   8  16  32  54  76  94 114 146 188 236 286
#     4  10  20  32  44  66  96 123 155 190 231 283
#
# _framework density 27.155389
#
# number of rings (size 3 to 8) (size 9 to 14) (size 15 to 20)
#    0.000    3.077    0.000    0.923    0.000    1.846 
#    1.385    0.000    0.000    0.000    0.000    0.000 
#    0.000    0.615    0.000    1.077    0.000    1.846 
#
# Total GULP energy -290300.558421 kJ/mol
# GULP energy per Si atom -5582.703047 kJ/mol
# Density = 2.709358 g / cm^3
# Si number density = 27.155389 Si / 1000 Ang^3
#
#
#
# Elastic Constant Matrix: (Units=GPa)
#
#
# Indices 1 2 3 4 5 6 
#
# 1 308.3805 36.3869 13.1080 0.0000 0.0000 0.0000
# 2 36.3869 67.7138 2.6280 0.0000 0.0000 0.0000
# 3 13.1080 2.6280 132.1165 0.0000 0.0000 0.0000
# 4 0.0000 0.0000 0.0000 -1.7106 0.0000 0.0000
# 5 0.0000 0.0000 0.0000 0.0000 9.0430 0.0000
# 6 0.0000 0.0000 0.0000 0.0000 0.0000 17.3575
#
#
#
# Elastic Compliance Matrix: (Units=1/GPa)
#
#
# Indices 1 2 3 4 5 6 
#
# 1 0.003475 -0.001855 -0.000308 0.000000 0.000000 0.000000
# 2 -0.001855 0.015770 -0.000130 0.000000 0.000000 0.000000
# 3 -0.000308 -0.000130 0.007602 0.000000 0.000000 0.000000
# 4 0.000000 0.000000 0.000000 -0.584606 0.000000 0.000000
# 5 0.000000 0.000000 0.000000 0.000000 0.110583 0.000000
# 6 0.000000 0.000000 0.000000 0.000000 0.000000 0.057612
#
#
# Mechanical properties :
#
#
# Convention : Reuss Voigt Hill
#
# Bulk Modulus (GPa) = 44.92057 68.05074 56.48566
# Shear Modulus (GPa) = -13.24297 35.34385 11.05044
#
# Velocity S-wave (km/s) = -2.21073 3.61160 2.01945
# Velocity P-wave (km/s) = 3.17199 6.51964 5.12676
#
# Compressibility (1/GPa) = 0.02226152
#
# Stress axis : x y z
#
# Youngs Moduli (GPa) = 287.79138 63.41148 131.54094
#
# Poissons Ratio (x) = 0.11764 0.04049
# Poissons Ratio (y) = 0.53392 0.01705
# Poissons Ratio (z) = 0.08859 0.00822
#
# Static dielectric constant tensor:
#      x y z
#    x 2.315900 0.000000 0.000000 
#    y 0.000000 2.187990 0.000000 
#    z 0.000000 0.000000 1.991890 
# 
# From -- ./inp_files/13070.got.cif
#   From: 2010.05.17/outbox.cif.g08.bks.cpg/sg63_7_cif.got.tgz:13070.got - 2010.06.03 15:47:04.
