data_PCOD9471631
_publ_section_title
;
Structure prediction by ZEFSAII (Michael W. Deem and Ramdas Pophale) SiO2 
 PCOD9471631
Probable space group: C M C M
;
_chemical_formula_sum "Si O2"
_cell_formula_units_Z 112
_cell_length_a 12.007062
_cell_length_b 31.804384
_cell_length_c 14.772155
_cell_angle_alpha 90.000000
_cell_angle_beta 90.000000
_cell_angle_gamma 90.000000
_cell_volume 5641.149345
_symmetry_space_group_name_H-M "C M C M"
_symmetry_group_IT_number 63
_symmetry_cell_setting 'orthorhombic'
loop_
_space_group_symop_operation_xyz
x,y,z
-x,-y,1/2+z
x,-y,-z
-x,y,1/2-z
-x,-y,-z
x,y,1/2-z
-x,y,z
x,-y,1/2+z
1/2+x,1/2+y,z
1/2-x,1/2-y,1/2+z
1/2+x,1/2-y,-z
1/2-x,1/2+y,1/2-z
1/2-x,1/2-y,-z
1/2+x,1/2+y,1/2-z
1/2-x,1/2+y,z
1/2+x,1/2-y,1/2+z
loop_
_atom_site_type_symbol
_atom_site_label
_atom_site_fract_x
_atom_site_fract_y
_atom_site_fract_z
Si Si1 0.805909 0.662284 0.144030
Si Si2 0.876848 0.433526 0.355493
Si Si3 0.876848 0.433526 0.855493
Si Si4 0.805908 0.662284 0.644030
Si Si5 0.125281 0.860776 1.000000
Si Si6 0.803796 0.955007 0.000000
Si Si7 0.625456 0.772112 0.000000
O O1 0.790914 0.671702 0.250000
O O2 0.867072 0.617199 0.136417
O O3 0.691695 0.655200 0.088184
O O4 0.868959 0.698233 0.088817
O O5 0.864590 0.444019 0.250000
O O6 0.867072 0.382800 0.363583
O O7 0.778776 0.452268 0.414411
O O8 0.000000 0.446447 0.385689
O O9 0.864589 0.444019 0.750000
O O10 0.000000 0.446447 0.885688
O O11 0.778776 0.452268 0.914411
O O12 0.790912 0.671702 0.750000
O O13 0.691695 0.655201 0.588183
O O14 0.868959 0.698233 0.588817
O O15 0.000000 0.846359 0.999999
O O16 0.129137 0.911633 1.000000
O O17 0.862827 0.000000 0.000000
O O18 0.500000 0.751773 0.000000
O O19 0.750000 0.750000 0.000000
#
# Coordination Sequence:
#
# PCOD9471631 Si02
#       7
#    16  16  16  16  16  16  16
#     4   9  19  37  60  81 104 139 183 231 281 332
#     4   9  17  30  50  74  97 126 170 221 269 320
#     4   9  17  30  50  74  97 126 170 221 269 320
#     4   9  19  37  60  81 104 139 183 231 281 332
#     4   9  19  35  55  80 106 135 182 238 284 331
#     4  10  20  31  44  67 103 142 175 211 264 328
#     4  11  24  39  57  86 124 158 189 228 276 335
#
# _framework density 19.854111
#
# number of rings (size 3 to 8) (size 9 to 14) (size 15 to 20)
#    0.000    2.571    0.000    2.143    0.000    7.143 
#    0.000    1.429    0.000    0.000    0.000    8.000 
#    0.000    0.000    0.000    0.000    0.000    0.000 
#
# Total GULP energy -312255.324173 kJ/mol
# GULP energy per Si atom -5575.987932 kJ/mol
# Density = 1.980892 g / cm^3
# Si number density = 19.854111 Si / 1000 Ang^3
#
#
#
# Elastic Constant Matrix: (Units=GPa)
#
#
# Indices 1 2 3 4 5 6 
#
# 1 135.8117 26.6558 37.2399 0.0000 0.0000 0.0000
# 2 26.6558 83.1291 31.2839 0.0000 0.0000 0.0000
# 3 37.2399 31.2839 127.8816 0.0000 0.0000 0.0000
# 4 0.0000 0.0000 0.0000 0.4027 0.0000 0.0000
# 5 0.0000 0.0000 0.0000 0.0000 4.7915 0.0000
# 6 0.0000 0.0000 0.0000 0.0000 0.0000 -11.9622
#
#
#
# Elastic Compliance Matrix: (Units=1/GPa)
#
#
# Indices 1 2 3 4 5 6 
#
# 1 0.008272 -0.001923 -0.001938 0.000000 0.000000 0.000000
# 2 -0.001923 0.013696 -0.002791 0.000000 0.000000 0.000000
# 3 -0.001938 -0.002791 0.009067 0.000000 0.000000 0.000000
# 4 0.000000 0.000000 0.000000 2.482963 0.000000 0.000000
# 5 0.000000 0.000000 0.000000 0.000000 0.208705 0.000000
# 6 0.000000 0.000000 0.000000 0.000000 0.000000 -0.083597
#
#
# Mechanical properties :
#
#
# Convention : Reuss Voigt Hill
#
# Bulk Modulus (GPa) = 56.39764 59.68682 58.04223
# Shear Modulus (GPa) = 1.88089 15.42259 8.65174
#
# Velocity S-wave (km/s) = 0.97438 2.79013 2.08976
# Velocity P-wave (km/s) = 5.45285 6.36457 5.92627
#
# Compressibility (1/GPa) = 0.01773124
#
# Stress axis : x y z
#
# Youngs Moduli (GPa) = 120.88846 73.01258 110.29150
#
# Poissons Ratio (x) = 0.14040 0.21380
# Poissons Ratio (y) = 0.23247 0.30777
# Poissons Ratio (z) = 0.23434 0.20375
#
# Static dielectric constant tensor:
#      x y z
#    x 1.682640 0.000000 0.000000 
#    y 0.000000 1.756610 0.000000 
#    z 0.000000 0.000000 1.665260 
# 
# From -- ./inp_files/30432.got.cif
#   From: 2010.05.17/outbox.cif.g08.bks.cpg/sg63_16_cif.got.tgz:30432.got - 2010.06.03 15:47:04.
