data_PCOD9471338
_publ_section_title
;
Structure prediction by ZEFSAII (Michael W. Deem and Ramdas Pophale) SiO2 
 PCOD9471338
Probable space group: C M C M
;
_chemical_formula_sum "Si O2"
_cell_formula_units_Z 112
_cell_length_a 12.717765
_cell_length_b 18.933644
_cell_length_c 27.415914
_cell_angle_alpha 90.000000
_cell_angle_beta 90.000000
_cell_angle_gamma 90.000000
_cell_volume 6601.577589
_symmetry_space_group_name_H-M "C M C M"
_symmetry_group_IT_number 63
_symmetry_cell_setting 'orthorhombic'
loop_
_space_group_symop_operation_xyz
x,y,z
-x,-y,1/2+z
x,-y,-z
-x,y,1/2-z
-x,-y,-z
x,y,1/2-z
-x,y,z
x,-y,1/2+z
1/2+x,1/2+y,z
1/2-x,1/2-y,1/2+z
1/2+x,1/2-y,-z
1/2-x,1/2+y,1/2-z
1/2-x,1/2-y,-z
1/2+x,1/2+y,1/2-z
1/2-x,1/2+y,z
1/2+x,1/2-y,1/2+z
loop_
_atom_site_type_symbol
_atom_site_label
_atom_site_fract_x
_atom_site_fract_y
_atom_site_fract_z
Si Si1 0.878049 0.980955 0.557154
Si Si2 0.124485 0.668023 0.153648
Si Si3 0.873538 0.485293 0.805320
Si Si4 0.239524 0.410961 0.380122
Si Si5 0.624725 0.320216 0.305184
Si Si6 0.374303 0.815136 0.459935
Si Si7 0.239022 0.167330 0.056792
O O1 0.826776 0.904110 0.562995
O O2 0.000000 0.980642 0.572256
O O3 0.873281 0.000000 0.500000
O O4 0.813379 0.038747 0.587324
O O5 0.154537 0.594818 0.179536
O O6 0.140436 0.736452 0.187176
O O7 0.189370 0.677700 0.104289
O O8 0.000000 0.664230 0.142292
O O9 0.837719 0.499743 0.750000
O O10 0.827145 0.539245 0.844302
O O11 0.000000 0.489875 0.806019
O O12 0.310229 0.360928 0.346047
O O13 0.167592 0.364305 0.416075
O O14 0.654869 0.340210 0.250000
O O15 0.500000 0.334027 0.311146
O O16 0.500000 0.819385 0.464791
O O17 0.314378 0.837857 0.509474
O O18 0.336554 0.734803 0.450200
#
# Coordination Sequence:
#
# PCOD9471338 Si02
#       7
#    16  16  16  16  16  16  16
#     4  11  23  39  59  84 114 151 189 225 277 341
#     4  10  19  35  60  85 112 145 189 236 281 333
#     4  10  21  36  57  84 113 148 189 234 284 335
#     4  12  21  38  57  84 117 151 186 231 280 340
#     4  10  21  37  58  84 111 145 192 243 285 323
#     4  11  24  38  58  86 115 150 189 231 277 336
#     4  11  21  41  58  83 115 150 189 227 280 336
#
# _framework density 16.965641000000002
#
# number of rings (size 3 to 8) (size 9 to 14) (size 15 to 20)
#    0.000    1.286    4.286    2.571    0.000    1.714 
#    0.000    0.714    0.000    0.000    0.000    2.000 
#    0.000    0.000    0.000    0.000    0.000    0.000 
#
# Total GULP energy -312737.104679 kJ/mol
# GULP energy per Si atom -5584.591155 kJ/mol
# Density = 1.692703 g / cm^3
# Si number density = 16.965641 Si / 1000 Ang^3
#
#
#
# Elastic Constant Matrix: (Units=GPa)
#
#
# Indices 1 2 3 4 5 6 
#
# 1 95.0053 55.4054 55.8375 0.0000 0.0000 0.0000
# 2 55.4054 103.2907 36.9772 0.0000 0.0000 0.0000
# 3 55.8375 36.9772 107.8393 0.0000 0.0000 0.0000
# 4 0.0000 0.0000 0.0000 24.1717 0.0000 0.0000
# 5 0.0000 0.0000 0.0000 0.0000 30.1894 0.0000
# 6 0.0000 0.0000 0.0000 0.0000 0.0000 25.2214
#
#
#
# Elastic Compliance Matrix: (Units=1/GPa)
#
#
# Indices 1 2 3 4 5 6 
#
# 1 0.019386 -0.007757 -0.007378 0.000000 0.000000 0.000000
# 2 -0.007757 0.014140 -0.000832 0.000000 0.000000 0.000000
# 3 -0.007378 -0.000832 0.013378 0.000000 0.000000 0.000000
# 4 0.000000 0.000000 0.000000 0.041371 0.000000 0.000000
# 5 0.000000 0.000000 0.000000 0.000000 0.033124 0.000000
# 6 0.000000 0.000000 0.000000 0.000000 0.000000 0.039649
#
#
# Mechanical properties :
#
#
# Convention : Reuss Voigt Hill
#
# Bulk Modulus (GPa) = 66.79854 66.95284 66.87569
# Shear Modulus (GPa) = 25.25600 26.44416 25.85008
#
# Velocity S-wave (km/s) = 3.86250 3.95231 3.90766
# Velocity P-wave (km/s) = 7.70390 7.77027 7.73716
#
# Compressibility (1/GPa) = 0.01497039
#
# Stress axis : x y z
#
# Youngs Moduli (GPa) = 51.58404 70.71957 74.74747
#
# Poissons Ratio (x) = 0.54860 0.55147
# Poissons Ratio (y) = 0.40016 0.06218
# Poissons Ratio (z) = 0.38057 0.05883
#
# Static dielectric constant tensor:
#      x y z
#    x 1.541690 0.000000 0.000000 
#    y 0.000000 1.559170 0.000000 
#    z 0.000000 0.000000 1.552190 
# 
# From -- ./inp_files/61778.got.cif
#   From: 2010.05.17/outbox.cif.g08.bks.cpg/sg63_31_cif.got.tgz:61778.got - 2010.06.03 15:47:04.
