data_PCOD9471086
_publ_section_title
;
Structure prediction by ZEFSAII (Michael W. Deem and Ramdas Pophale) SiO2 
 PCOD9471086
Probable space group: C M C M
;
_chemical_formula_sum "Si O2"
_cell_formula_units_Z 96
_cell_length_a 8.144895
_cell_length_b 29.862128
_cell_length_c 21.172506
_cell_angle_alpha 90.000000
_cell_angle_beta 90.000000
_cell_angle_gamma 90.000000
_cell_volume 5149.659419
_symmetry_space_group_name_H-M "C M C M"
_symmetry_group_IT_number 63
_symmetry_cell_setting 'orthorhombic'
loop_
_space_group_symop_operation_xyz
x,y,z
-x,-y,1/2+z
x,-y,-z
-x,y,1/2-z
-x,-y,-z
x,y,1/2-z
-x,y,z
x,-y,1/2+z
1/2+x,1/2+y,z
1/2-x,1/2-y,1/2+z
1/2+x,1/2-y,-z
1/2-x,1/2+y,1/2-z
1/2-x,1/2-y,-z
1/2+x,1/2+y,1/2-z
1/2-x,1/2+y,z
1/2+x,1/2-y,1/2+z
loop_
_atom_site_type_symbol
_atom_site_label
_atom_site_fract_x
_atom_site_fract_y
_atom_site_fract_z
Si Si1 0.801287 0.375577 0.874241
Si Si2 0.197748 0.970322 0.820220
Si Si3 0.301763 0.124090 0.979431
Si Si4 0.301890 0.220291 0.321020
Si Si5 0.196257 0.278714 0.060890
Si Si6 0.801968 0.972501 0.438505
O O1 0.741069 0.419620 0.838816
O O2 0.745785 0.329331 0.842188
O O3 0.000000 0.375816 0.873531
O O4 0.746785 0.377005 0.947330
O O5 0.259946 0.980650 0.750000
O O6 0.000000 0.973910 0.819261
O O7 0.259314 0.003221 0.875230
O O8 0.500000 0.124736 0.980045
O O9 0.243448 0.170323 0.948024
O O10 0.246311 0.079017 0.945356
O O11 0.243825 0.230663 0.250000
O O12 0.500000 0.219071 0.319773
O O13 0.252693 0.255190 0.374922
O O14 0.000000 0.279702 0.060734
O O15 0.250000 0.250000 0.000000
O O16 0.000000 0.975060 0.438603
O O17 0.742412 0.000000 0.500000
#
# Coordination Sequence:
#
# PCOD9471086 Si02
#       6
#    16  16  16  16  16  16
#     4  10  19  34  56  82 113 144 178 222 275 332
#     4  10  21  36  53  78 112 144 178 223 273 324
#     4  10  21  36  56  83 110 140 181 228 273 321
#     4  10  21  38  58  83 117 152 186 228 282 340
#     4  11  22  38  59  83 114 149 190 234 278 330
#     4  10  20  35  55  79 107 141 180 221 268 321
#
# _framework density 18.642009000000002
#
# number of rings (size 3 to 8) (size 9 to 14) (size 15 to 20)
#    0.000    1.833    3.333    1.000    0.000    4.333 
#    0.000    0.833    0.000    3.000    0.000    0.000 
#    0.000    0.000    0.000    0.000    0.000    0.000 
#
# Total GULP energy -268047.920105 kJ/mol
# GULP energy per Si atom -5584.331669 kJ/mol
# Density = 1.859958 g / cm^3
# Si number density = 18.642009 Si / 1000 Ang^3
#
#
#
# Elastic Constant Matrix: (Units=GPa)
#
#
# Indices 1 2 3 4 5 6 
#
# 1 7.9631 8.4766 18.2758 0.0000 0.0000 0.0000
# 2 8.4766 169.9609 108.0759 0.0000 0.0000 0.0000
# 3 18.2758 108.0759 198.4299 0.0000 0.0000 0.0000
# 4 0.0000 0.0000 0.0000 20.6876 0.0000 0.0000
# 5 0.0000 0.0000 0.0000 0.0000 18.1112 0.0000
# 6 0.0000 0.0000 0.0000 0.0000 0.0000 30.0528
#
#
#
# Elastic Compliance Matrix: (Units=1/GPa)
#
#
# Indices 1 2 3 4 5 6 
#
# 1 0.159738 0.002124 -0.015869 0.000000 0.000000 0.000000
# 2 0.002124 0.009029 -0.005114 0.000000 0.000000 0.000000
# 3 -0.015869 -0.005114 0.009286 0.000000 0.000000 0.000000
# 4 0.000000 0.000000 0.000000 0.048338 0.000000 0.000000
# 5 0.000000 0.000000 0.000000 0.000000 0.055215 0.000000
# 6 0.000000 0.000000 0.000000 0.000000 0.000000 0.033275
#
#
# Mechanical properties :
#
#
# Convention : Reuss Voigt Hill
#
# Bulk Modulus (GPa) = 7.12571 71.77894 39.45233
# Shear Modulus (GPa) = 12.51949 29.87201 21.19575
#
# Velocity S-wave (km/s) = 2.59429 4.00735 3.37558
# Velocity P-wave (km/s) = 3.57833 7.74592 6.03339
#
# Compressibility (1/GPa) = 0.14033680
#
# Stress axis : x y z
#
# Youngs Moduli (GPa) = 6.26025 110.74916 107.68561
#
# Poissons Ratio (x) = -0.23527 1.70889
# Poissons Ratio (y) = -0.01330 0.55066
# Poissons Ratio (z) = 0.09935 0.56632
#
# Static dielectric constant tensor:
#      x y z
#    x 1.659620 0.000000 0.000000 
#    y 0.000000 1.618060 0.000000 
#    z 0.000000 0.000000 1.585060 
# 
# From -- ./inp_files/51273.got.cif
#   From: 2010.05.17/outbox.cif.g08.bks.cpg/sg63_26_cif.got.tgz:51273.got - 2010.06.03 15:47:04.
