data_PCOD9471216
_publ_section_title
;
Structure prediction by ZEFSAII (Michael W. Deem and Ramdas Pophale) SiO2 
 PCOD9471216
Probable space group: C M C M
;
_chemical_formula_sum "Si O2"
_cell_formula_units_Z 96
_cell_length_a 7.592505
_cell_length_b 24.168290
_cell_length_c 26.414604
_cell_angle_alpha 90.000000
_cell_angle_beta 90.000000
_cell_angle_gamma 90.000000
_cell_volume 4847.023377
_symmetry_space_group_name_H-M "C M C M"
_symmetry_group_IT_number 63
_symmetry_cell_setting 'orthorhombic'
loop_
_space_group_symop_operation_xyz
x,y,z
-x,-y,1/2+z
x,-y,-z
-x,y,1/2-z
-x,-y,-z
x,y,1/2-z
-x,y,z
x,-y,1/2+z
1/2+x,1/2+y,z
1/2-x,1/2-y,1/2+z
1/2+x,1/2-y,-z
1/2-x,1/2+y,1/2-z
1/2-x,1/2-y,-z
1/2+x,1/2+y,1/2-z
1/2-x,1/2+y,z
1/2+x,1/2-y,1/2+z
loop_
_atom_site_type_symbol
_atom_site_label
_atom_site_fract_x
_atom_site_fract_y
_atom_site_fract_z
Si Si1 0.790430 0.685154 0.497314
Si Si2 0.784447 0.619072 0.902422
Si Si3 0.785010 0.688962 0.807203
Si Si4 0.705495 0.004401 0.556432
Si Si5 0.295905 0.612967 0.099267
Si Si6 0.784875 0.816020 0.692544
O O1 0.750000 0.750000 0.500000
O O2 0.730266 0.654551 0.548449
O O3 0.715960 0.655368 0.447682
O O4 0.000000 0.677924 0.494475
O O5 0.723444 0.647913 0.850890
O O6 0.724062 0.556215 0.911748
O O7 0.000000 0.620572 0.900339
O O8 0.729497 0.674789 0.750000
O O9 0.732107 0.752491 0.817871
O O10 0.000000 0.688603 0.807289
O O11 0.500000 0.018359 0.548954
O O12 0.784878 0.000000 0.500000
O O13 0.715189 0.945354 0.583206
O O14 0.500000 0.601155 0.109123
O O15 0.221285 0.642783 0.149088
O O16 0.732177 0.830153 0.750000
O O17 0.000000 0.816416 0.691286
#
# Coordination Sequence:
#
# PCOD9471216 Si02
#       6
#    16  16  16  16  16  16
#     4  11  21  34  51  75 105 136 168 207 260 315
#     4   9  17  30  48  68  96 132 168 202 247 307
#     4   8  13  24  45  71  95 122 161 208 251 296
#     4  10  19  35  52  68  98 144 177 202 255 316
#     4  11  21  33  52  78 103 131 174 222 260 303
#     4   8  15  29  49  73 102 133 165 206 261 318
#
# _framework density 19.805969999999999
#
# number of rings (size 3 to 8) (size 9 to 14) (size 15 to 20)
#    0.000    2.500    1.667    3.000    0.000    3.000 
#    0.000    0.833    0.000    3.000    0.000    0.000 
#    0.000    3.333    0.000    0.000    0.000    0.000 
#
# Total GULP energy -267890.791098 kJ/mol
# GULP energy per Si atom -5581.058148 kJ/mol
# Density = 1.976089 g / cm^3
# Si number density = 19.805970 Si / 1000 Ang^3
#
#
#
# Elastic Constant Matrix: (Units=GPa)
#
#
# Indices 1 2 3 4 5 6 
#
# 1 40.0775 -11.5582 -3.7719 0.0000 0.0000 0.0000
# 2 -11.5582 158.8144 108.8404 0.0000 0.0000 0.0000
# 3 -3.7719 108.8404 176.2028 0.0000 0.0000 0.0000
# 4 0.0000 0.0000 0.0000 23.8528 0.0000 0.0000
# 5 0.0000 0.0000 0.0000 0.0000 4.6990 0.0000
# 6 0.0000 0.0000 0.0000 0.0000 0.0000 15.6179
#
#
#
# Elastic Compliance Matrix: (Units=1/GPa)
#
#
# Indices 1 2 3 4 5 6 
#
# 1 0.025597 0.002579 -0.001045 0.000000 0.000000 0.000000
# 2 0.002579 0.011179 -0.006850 0.000000 0.000000 0.000000
# 3 -0.001045 -0.006850 0.009884 0.000000 0.000000 0.000000
# 4 0.000000 0.000000 0.000000 0.041924 0.000000 0.000000
# 5 0.000000 0.000000 0.000000 0.000000 0.212813 0.000000
# 6 0.000000 0.000000 0.000000 0.000000 0.000000 0.064029
#
#
# Mechanical properties :
#
#
# Convention : Reuss Voigt Hill
#
# Bulk Modulus (GPa) = 27.75607 62.45726 45.10666
# Shear Modulus (GPa) = 12.88437 27.60624 20.24530
#
# Velocity S-wave (km/s) = 2.55331 3.73746 3.20063
# Velocity P-wave (km/s) = 4.76833 7.08716 6.04007
#
# Compressibility (1/GPa) = 0.03602815
#
# Stress axis : x y z
#
# Youngs Moduli (GPa) = 39.06692 89.45464 101.17243
#
# Poissons Ratio (x) = -0.23073 0.10575
# Poissons Ratio (y) = -0.10076 0.69303
# Poissons Ratio (z) = 0.04083 0.61276
#
# Static dielectric constant tensor:
#      x y z
#    x 1.747370 0.000000 0.000000 
#    y 0.000000 1.642370 0.000000 
#    z 0.000000 0.000000 1.683040 
# 
# From -- ./inp_files/59843.got.cif
#   From: 2010.05.17/outbox.cif.g08.bks.cpg/sg63_30_cif.got.tgz:59843.got - 2010.06.03 15:47:04.
