data_PCOD9471374
_publ_section_title
;
Structure prediction by ZEFSAII (Michael W. Deem and Ramdas Pophale) SiO2 
 PCOD9471374
Probable space group: C M C M
;
_chemical_formula_sum "Si O2"
_cell_formula_units_Z 48
_cell_length_a 25.625218
_cell_length_b 5.183811
_cell_length_c 18.805429
_cell_angle_alpha 90.000000
_cell_angle_beta 90.000000
_cell_angle_gamma 90.000000
_cell_volume 2498.043363
_symmetry_space_group_name_H-M "C M C M"
_symmetry_group_IT_number 63
_symmetry_cell_setting 'orthorhombic'
loop_
_space_group_symop_operation_xyz
x,y,z
-x,-y,1/2+z
x,-y,-z
-x,y,1/2-z
-x,-y,-z
x,y,1/2-z
-x,y,z
x,-y,1/2+z
1/2+x,1/2+y,z
1/2-x,1/2-y,1/2+z
1/2+x,1/2-y,-z
1/2-x,1/2+y,1/2-z
1/2-x,1/2-y,-z
1/2+x,1/2+y,1/2-z
1/2-x,1/2+y,z
1/2+x,1/2-y,1/2+z
loop_
_atom_site_type_symbol
_atom_site_label
_atom_site_fract_x
_atom_site_fract_y
_atom_site_fract_z
Si Si1 0.439904 0.745663 0.365007
Si Si2 0.099364 0.500000 0.000000
Si Si3 0.215438 0.823426 0.250000
Si Si4 0.874859 0.270318 0.859149
O O1 0.500000 0.747814 0.343649
O O2 0.434925 0.816150 0.449320
O O3 0.412423 0.474871 0.351316
O O4 0.405681 0.976658 0.332025
O O5 0.131910 0.334048 0.943060
O O6 0.239789 0.107332 0.250000
O O7 0.178036 0.779306 0.317674
#
# Coordination Sequence:
#
# PCOD9471374 Si02
#       4
#    16   8   8  16
#     4  10  19  35  62  94 129 162 185 226 296 366
#     4   8  21  34  64  90 134 148 202 232 295 356
#     4  12  26  48  67  78 111 166 212 260 322 352
#     4  10  22  38  60  92 120 158 204 250 287 362
#
# _framework density 19.215039999999998
#
# number of rings (size 3 to 8) (size 9 to 14) (size 15 to 20)
#    2.000    0.000    0.000    4.500    0.000    1.333 
#    0.000    6.667    0.000    0.000    0.000    0.000 
#    0.000    0.000    0.000    0.000    0.000    0.000 
#
# Total GULP energy -133688.889650 kJ/mol
# GULP energy per Si atom -5570.370402 kJ/mol
# Density = 1.917131 g / cm^3
# Si number density = 19.215040 Si / 1000 Ang^3
#
#
#
# Elastic Constant Matrix: (Units=GPa)
#
#
# Indices 1 2 3 4 5 6 
#
# 1 49.0966 -16.2779 14.2472 0.0000 0.0000 0.0000
# 2 -16.2779 78.2006 -5.4838 0.0000 0.0000 0.0000
# 3 14.2472 -5.4838 65.0106 0.0000 0.0000 0.0000
# 4 0.0000 0.0000 0.0000 -12.5355 0.0000 0.0000
# 5 0.0000 0.0000 0.0000 0.0000 34.7177 0.0000
# 6 0.0000 0.0000 0.0000 0.0000 0.0000 29.9312
#
#
#
# Elastic Compliance Matrix: (Units=1/GPa)
#
#
# Indices 1 2 3 4 5 6 
#
# 1 0.023229 0.004505 -0.004711 0.000000 0.000000 0.000000
# 2 0.004505 0.013737 0.000172 0.000000 0.000000 0.000000
# 3 -0.004711 0.000172 0.016429 0.000000 0.000000 0.000000
# 4 0.000000 0.000000 0.000000 -0.079774 0.000000 0.000000
# 5 0.000000 0.000000 0.000000 0.000000 0.028804 0.000000
# 6 0.000000 0.000000 0.000000 0.000000 0.000000 0.033410
#
#
# Mechanical properties :
#
#
# Convention : Reuss Voigt Hill
#
# Bulk Modulus (GPa) = 18.75247 19.69766 19.22506
# Shear Modulus (GPa) = 93.14680 23.74417 58.44549
#
# Velocity S-wave (km/s) = 6.97002 3.51908 5.52110
# Velocity P-wave (km/s) = 8.63455 5.17545 7.11831
#
# Compressibility (1/GPa) = 0.05332631
#
# Stress axis : x y z
#
# Youngs Moduli (GPa) = 43.05050 72.79420 60.86830
#
# Poissons Ratio (x) = -0.32792 0.28673
# Poissons Ratio (y) = -0.19393 -0.01044
# Poissons Ratio (z) = 0.20279 -0.01249
#
# Static dielectric constant tensor:
#      x y z
#    x 1.607440 0.000000 0.000000 
#    y 0.000000 1.657520 0.000000 
#    z 0.000000 0.000000 1.726410 
# 
# From -- ./inp_files/49227.got.cif
#   From: 2010.05.17/outbox.cif.g08.bks.cpg/sg63_25_cif.got.tgz:49227.got - 2010.06.03 15:47:04.
