data_PCOD9471119
_publ_section_title
;
Structure prediction by ZEFSAII (Michael W. Deem and Ramdas Pophale) SiO2 
 PCOD9471119
Probable space group: C M C M
;
_chemical_formula_sum "Si O2"
_cell_formula_units_Z 92
_cell_length_a 7.640927
_cell_length_b 28.083213
_cell_length_c 25.834189
_cell_angle_alpha 90.000000
_cell_angle_beta 90.000000
_cell_angle_gamma 90.000000
_cell_volume 5543.546272
_symmetry_space_group_name_H-M "C M C M"
_symmetry_group_IT_number 63
_symmetry_cell_setting 'orthorhombic'
loop_
_space_group_symop_operation_xyz
x,y,z
-x,-y,1/2+z
x,-y,-z
-x,y,1/2-z
-x,-y,-z
x,y,1/2-z
-x,y,z
x,-y,1/2+z
1/2+x,1/2+y,z
1/2-x,1/2-y,1/2+z
1/2+x,1/2-y,-z
1/2-x,1/2+y,1/2-z
1/2-x,1/2-y,-z
1/2+x,1/2+y,1/2-z
1/2-x,1/2+y,z
1/2+x,1/2-y,1/2+z
loop_
_atom_site_type_symbol
_atom_site_label
_atom_site_fract_x
_atom_site_fract_y
_atom_site_fract_z
Si Si1 0.000000 0.010025 0.155620
Si Si2 0.000000 0.913750 0.750000
Si Si3 0.704586 0.943727 0.008591
Si Si4 0.000000 0.911729 0.933982
Si Si5 0.799864 0.267056 0.811522
Si Si6 0.211095 0.339028 0.309567
Si Si7 0.000000 0.836028 0.844438
Si Si8 0.208666 0.565221 0.630535
O O1 0.170903 0.976341 0.153569
O O2 0.000000 0.044636 0.204563
O O3 0.000000 0.042625 0.104180
O O4 0.000000 0.872211 0.704156
O O5 0.500000 0.934740 0.997421
O O6 0.831247 0.915366 0.970710
O O7 0.737395 0.932997 0.068863
O O8 0.737077 0.000000 0.000000
O O9 0.000000 0.866309 0.896824
O O10 0.756040 0.267782 0.750000
O O11 0.780986 0.211980 0.827846
O O12 0.667998 0.301983 0.839783
O O13 0.000000 0.282440 0.817469
O O14 0.268263 0.346243 0.250000
O O15 0.258007 0.384596 0.343538
O O16 0.000000 0.335509 0.309685
O O17 0.000000 0.556726 0.639244
#
# Coordination Sequence:
#
# PCOD9471119 Si02
#       8
#     8   4  16   8  16  16   8  16
#     4  11  22  36  52  80 118 147 185 224 261 340
#     4  10  24  38  54  78 112 160 178 222 278 320
#     4  10  19  35  56  80 109 141 190 238 269 318
#     4  11  22  35  58  82 103 151 195 226 280 316
#     4  10  19  34  57  82 107 137 182 230 270 322
#     4   9  18  33  55  84 113 144 174 218 278 334
#     4  11  21  40  59  76 114 145 190 232 277 323
#     4  10  21  35  55  83 114 150 180 220 278 332
#
# _framework density 16.595873999999998
#
# number of rings (size 3 to 8) (size 9 to 14) (size 15 to 20)
#    0.000    1.913    3.478    0.783    2.435    0.696 
#    0.000    3.478    0.000    1.043    0.000    0.000 
#    0.000    0.000    0.000    0.000    0.000    0.000 
#
# Total GULP energy -256171.006968 kJ/mol
# GULP energy per Si atom -5568.934934 kJ/mol
# Density = 1.655810 g / cm^3
# Si number density = 16.595874 Si / 1000 Ang^3
#
#
#
# Elastic Constant Matrix: (Units=GPa)
#
#
# Indices 1 2 3 4 5 6 
#
# 1 67.3831 61.7055 43.8305 0.0000 0.0000 0.0000
# 2 61.7055 136.0945 66.0800 0.0000 0.0000 0.0000
# 3 43.8305 66.0800 93.1384 0.0000 0.0000 0.0000
# 4 0.0000 0.0000 0.0000 28.1048 0.0000 0.0000
# 5 0.0000 0.0000 0.0000 0.0000 6.7853 0.0000
# 6 0.0000 0.0000 0.0000 0.0000 0.0000 -7.8590
#
#
#
# Elastic Compliance Matrix: (Units=1/GPa)
#
#
# Indices 1 2 3 4 5 6 
#
# 1 0.027582 -0.009464 -0.006266 0.000000 0.000000 0.000000
# 2 -0.009464 0.014456 -0.005803 0.000000 0.000000 0.000000
# 3 -0.006266 -0.005803 0.017803 0.000000 0.000000 0.000000
# 4 0.000000 0.000000 0.000000 0.035581 0.000000 0.000000
# 5 0.000000 0.000000 0.000000 0.000000 0.147378 0.000000
# 6 0.000000 0.000000 0.000000 0.000000 0.000000 -0.127243
#
#
# Mechanical properties :
#
#
# Convention : Reuss Voigt Hill
#
# Bulk Modulus (GPa) = 59.60775 71.09423 65.35099
# Shear Modulus (GPa) = 30.44788 13.73954 22.09371
#
# Velocity S-wave (km/s) = 4.28795 2.88043 3.65263
# Velocity P-wave (km/s) = 7.77885 7.34806 7.56652
#
# Compressibility (1/GPa) = 0.01677634
#
# Stress axis : x y z
#
# Youngs Moduli (GPa) = 36.25487 69.17442 56.17185
#
# Poissons Ratio (x) = 0.65464 0.35197
# Poissons Ratio (y) = 0.34310 0.32596
# Poissons Ratio (z) = 0.22717 0.40141
#
# Static dielectric constant tensor:
#      x y z
#    x 1.580960 0.000000 0.000000 
#    y 0.000000 1.538130 0.000000 
#    z 0.000000 0.000000 1.535890 
# 
# From -- ./inp_files/60357.got.cif
#   From: 2010.05.17/outbox.cif.g08.bks.cpg/sg63_31_cif.got.tgz:60357.got - 2010.06.03 15:47:04.
