data_PCOD9471699
_publ_section_title
;
Structure prediction by ZEFSAII (Michael W. Deem and Ramdas Pophale) SiO2 
 PCOD9471699
Probable space group: C M C M
;
_chemical_formula_sum "Si O2"
_cell_formula_units_Z 72
_cell_length_a 18.825383
_cell_length_b 23.973986
_cell_length_c 7.499292
_cell_angle_alpha 90.000000
_cell_angle_beta 90.000000
_cell_angle_gamma 90.000000
_cell_volume 3384.576479
_symmetry_space_group_name_H-M "C M C M"
_symmetry_group_IT_number 63
_symmetry_cell_setting 'orthorhombic'
loop_
_space_group_symop_operation_xyz
x,y,z
-x,-y,1/2+z
x,-y,-z
-x,y,1/2-z
-x,-y,-z
x,y,1/2-z
-x,y,z
x,-y,1/2+z
1/2+x,1/2+y,z
1/2-x,1/2-y,1/2+z
1/2+x,1/2-y,-z
1/2-x,1/2+y,1/2-z
1/2-x,1/2-y,-z
1/2+x,1/2+y,1/2-z
1/2-x,1/2+y,z
1/2+x,1/2-y,1/2+z
loop_
_atom_site_type_symbol
_atom_site_label
_atom_site_fract_x
_atom_site_fract_y
_atom_site_fract_z
Si Si1 0.500000 0.934501 0.963871
Si Si2 0.580840 0.765581 0.464740
Si Si3 0.144151 0.379626 0.959714
Si Si4 0.788382 0.934409 0.536058
Si Si5 0.580571 0.361506 0.967757
O O1 0.500000 0.925754 0.750000
O O2 0.572220 0.906934 0.035817
O O3 0.500000 0.000000 0.000000
O O4 0.579918 0.765832 0.250000
O O5 0.500000 0.779194 0.525512
O O6 0.634597 0.813355 0.523177
O O7 0.596923 0.702375 0.521506
O O8 0.144749 0.393365 0.750000
O O9 0.216815 0.404894 0.033929
O O10 0.789071 0.927199 0.750000
O O11 0.859373 0.903884 0.469268
O O12 0.787535 0.000000 0.500000
O O13 0.580002 0.361985 0.750000
O O14 0.500000 0.374867 0.024396
#
# Coordination Sequence:
#
# PCOD9471699 Si02
#       5
#     8  16  16  16  16
#     4  10  20  32  46  66  96 134 171 204 241 288
#     4   9  17  31  53  78 101 130 171 210 245 298
#     4  10  20  33  49  72 104 137 166 206 257 298
#     4  10  21  36  53  74 102 135 171 211 253 299
#     4   8  16  33  55  77 102 132 165 206 257 306
#
# _framework density 21.272971999999999
#
# number of rings (size 3 to 8) (size 9 to 14) (size 15 to 20)
#    0.000    2.667    1.111    2.000    0.000    3.111 
#    0.000    1.111    0.000    1.333    0.000    0.000 
#    0.000    0.000    0.000    0.000    0.000    0.000 
#
# Total GULP energy -200989.605921 kJ/mol
# GULP energy per Si atom -5583.044609 kJ/mol
# Density = 2.122455 g / cm^3
# Si number density = 21.272972 Si / 1000 Ang^3
#
#
#
# Elastic Constant Matrix: (Units=GPa)
#
#
# Indices 1 2 3 4 5 6 
#
# 1 207.0806 133.9297 11.5629 0.0000 0.0000 0.0000
# 2 133.9297 147.3149 -5.5844 0.0000 0.0000 0.0000
# 3 11.5629 -5.5844 53.0699 0.0000 0.0000 0.0000
# 4 0.0000 0.0000 0.0000 -32.4828 0.0000 0.0000
# 5 0.0000 0.0000 0.0000 0.0000 -15.6591 0.0000
# 6 0.0000 0.0000 0.0000 0.0000 0.0000 37.1881
#
#
#
# Elastic Compliance Matrix: (Units=1/GPa)
#
#
# Indices 1 2 3 4 5 6 
#
# 1 0.012487 -0.011502 -0.003931 0.000000 0.000000 0.000000
# 2 -0.011502 0.017409 0.004338 0.000000 0.000000 0.000000
# 3 -0.003931 0.004338 0.020156 0.000000 0.000000 0.000000
# 4 0.000000 0.000000 0.000000 -0.030785 0.000000 0.000000
# 5 0.000000 0.000000 0.000000 0.000000 -0.063861 0.000000
# 6 0.000000 0.000000 0.000000 0.000000 0.000000 0.026890
#
#
# Mechanical properties :
#
#
# Convention : Reuss Voigt Hill
#
# Bulk Modulus (GPa) = 35.88991 76.36465 56.12728
# Shear Modulus (GPa) = 363.00834 15.64638 189.32736
#
# Velocity S-wave (km/s) = 13.07721 2.71496 9.44416
# Velocity P-wave (km/s) = 15.65010 6.76783 12.05672
#
# Compressibility (1/GPa) = 0.02786299
#
# Stress axis : x y z
#
# Youngs Moduli (GPa) = 80.08170 57.44084 49.61291
#
# Poissons Ratio (x) = 0.66066 0.19503
# Poissons Ratio (y) = 0.92107 -0.21522
# Poissons Ratio (z) = 0.31480 -0.24917
#
# Static dielectric constant tensor:
#      x y z
#    x 1.769710 0.000000 0.000000 
#    y 0.000000 1.726650 0.000000 
#    z 0.000000 0.000000 1.796620 
# 
# From -- ./inp_files/6081.got.cif
#   From: 2010.05.17/outbox.cif.g08.bks.cpg/sg63_4_cif.got.tgz:6081.got - 2010.06.03 15:47:04.
