data_PCOD9471964
_publ_section_title
;
Structure prediction by ZEFSAII (Michael W. Deem and Ramdas Pophale) SiO2 
 PCOD9471964
Probable space group: C M C M
;
_chemical_formula_sum "Si O2"
_cell_formula_units_Z 96
_cell_length_a 7.551467
_cell_length_b 22.665832
_cell_length_c 24.028205
_cell_angle_alpha 90.000000
_cell_angle_beta 90.000000
_cell_angle_gamma 90.000000
_cell_volume 4112.674353
_symmetry_space_group_name_H-M "C M C M"
_symmetry_group_IT_number 63
_symmetry_cell_setting 'orthorhombic'
loop_
_space_group_symop_operation_xyz
x,y,z
-x,-y,1/2+z
x,-y,-z
-x,y,1/2-z
-x,-y,-z
x,y,1/2-z
-x,y,z
x,-y,1/2+z
1/2+x,1/2+y,z
1/2-x,1/2-y,1/2+z
1/2+x,1/2-y,-z
1/2-x,1/2+y,1/2-z
1/2-x,1/2-y,-z
1/2+x,1/2+y,1/2-z
1/2-x,1/2+y,z
1/2+x,1/2-y,1/2+z
loop_
_atom_site_type_symbol
_atom_site_label
_atom_site_fract_x
_atom_site_fract_y
_atom_site_fract_z
Si Si1 0.286304 0.539215 0.921442
Si Si2 0.702395 0.157217 0.513453
Si Si3 0.717937 0.665524 0.186114
Si Si4 0.291281 0.779288 0.380738
Si Si5 0.294521 0.411537 0.589751
Si Si6 0.212926 0.896975 0.312581
O O1 0.500000 0.543931 0.931356
O O2 0.207525 0.594150 0.954581
O O3 0.222519 0.473146 0.934034
O O4 0.245973 0.551733 0.856558
O O5 0.500000 0.173409 0.502612
O O6 0.782443 0.202955 0.558274
O O7 0.786768 0.141736 0.454454
O O8 0.774242 0.664579 0.250000
O O9 0.500000 0.666141 0.186292
O O10 0.779148 0.723800 0.153165
O O11 0.778335 0.610941 0.148224
O O12 0.500000 0.769237 0.389683
O O13 0.273116 0.836232 0.341075
O O14 0.500000 0.425070 0.599548
O O15 0.280690 0.904110 0.250000
O O16 0.000000 0.894266 0.310144
#
# Coordination Sequence:
#
# PCOD9471964 Si02
#       6
#    16  16  16  16  16  16
#     4   9  18  32  49  71 100 131 162 199 243 290
#     4  10  20  33  51  75 100 127 162 203 245 287
#     4   9  18  33  53  75  98 127 164 202 238 283
#     4   9  18  33  52  73  97 127 164 203 242 286
#     4  10  20  33  51  74  99 129 163 198 240 290
#     4   9  17  29  47  72  99 126 159 202 249 291
#
# _framework density 23.342475
#
# number of rings (size 3 to 8) (size 9 to 14) (size 15 to 20)
#    0.000    2.667    0.000    1.500    0.000    5.667 
#    0.000    4.167    0.000    1.500    0.000    2.333 
#    0.000    0.000    0.000    0.000    0.000    0.000 
#
# Total GULP energy -267974.259976 kJ/mol
# GULP energy per Si atom -5582.797083 kJ/mol
# Density = 2.328935 g / cm^3
# Si number density = 23.342475 Si / 1000 Ang^3
#
#
#
# Elastic Constant Matrix: (Units=GPa)
#
#
# Indices 1 2 3 4 5 6 
#
# 1 53.6681 4.6817 -0.6966 0.0000 0.0000 0.0000
# 2 4.6817 48.8600 31.3693 0.0000 0.0000 0.0000
# 3 -0.6966 31.3693 113.0643 0.0000 0.0000 0.0000
# 4 0.0000 0.0000 0.0000 29.7958 0.0000 0.0000
# 5 0.0000 0.0000 0.0000 0.0000 51.7086 0.0000
# 6 0.0000 0.0000 0.0000 0.0000 0.0000 2.5722
#
#
#
# Elastic Compliance Matrix: (Units=1/GPa)
#
#
# Indices 1 2 3 4 5 6 
#
# 1 0.018842 -0.002287 0.000751 0.000000 0.000000 0.000000
# 2 -0.002287 0.025180 -0.007000 0.000000 0.000000 0.000000
# 3 0.000751 -0.007000 0.010791 0.000000 0.000000 0.000000
# 4 0.000000 0.000000 0.000000 0.033562 0.000000 0.000000
# 5 0.000000 0.000000 0.000000 0.000000 0.019339 0.000000
# 6 0.000000 0.000000 0.000000 0.000000 0.000000 0.388777
#
#
# Mechanical properties :
#
#
# Convention : Reuss Voigt Hill
#
# Bulk Modulus (GPa) = 26.49714 31.81125 29.15419
# Shear Modulus (GPa) = 9.50307 28.83120 19.16713
#
# Velocity S-wave (km/s) = 2.01990 3.51827 2.86864
# Velocity P-wave (km/s) = 4.10074 5.49199 4.84655
#
# Compressibility (1/GPa) = 0.03773993
#
# Stress axis : x y z
#
# Youngs Moduli (GPa) = 53.07204 39.71385 92.66687
#
# Poissons Ratio (x) = 0.09084 -0.06957
# Poissons Ratio (y) = 0.12140 0.64869
# Poissons Ratio (z) = -0.03984 0.27801
#
# Static dielectric constant tensor:
#      x y z
#    x 1.884050 0.000000 0.000000 
#    y 0.000000 1.884980 0.000000 
#    z 0.000000 0.000000 1.886190 
# 
# From -- ./inp_files/59917.got.cif
#   From: 2010.05.17/outbox.cif.g08.bks.cpg/sg63_30_cif.got.tgz:59917.got - 2010.06.03 15:47:04.
