data_PCOD9471926
_publ_section_title
;
Structure prediction by ZEFSAII (Michael W. Deem and Ramdas Pophale) SiO2 
 PCOD9471926
Probable space group: C M C M
;
_chemical_formula_sum "Si O2"
_cell_formula_units_Z 80
_cell_length_a 7.773288
_cell_length_b 28.073510
_cell_length_c 19.033854
_cell_angle_alpha 90.000000
_cell_angle_beta 90.000000
_cell_angle_gamma 90.000000
_cell_volume 4153.633827
_symmetry_space_group_name_H-M "C M C M"
_symmetry_group_IT_number 63
_symmetry_cell_setting 'orthorhombic'
loop_
_space_group_symop_operation_xyz
x,y,z
-x,-y,1/2+z
x,-y,-z
-x,y,1/2-z
-x,-y,-z
x,y,1/2-z
-x,y,z
x,-y,1/2+z
1/2+x,1/2+y,z
1/2-x,1/2-y,1/2+z
1/2+x,1/2-y,-z
1/2-x,1/2+y,1/2-z
1/2-x,1/2-y,-z
1/2+x,1/2+y,1/2-z
1/2-x,1/2+y,z
1/2+x,1/2-y,1/2+z
loop_
_atom_site_type_symbol
_atom_site_label
_atom_site_fract_x
_atom_site_fract_y
_atom_site_fract_z
Si Si1 0.789232 0.103211 0.039977
Si Si2 0.704536 0.300598 0.032646
Si Si3 0.796410 0.350964 0.171080
Si Si4 0.710993 0.543865 0.329782
Si Si5 0.299048 0.552022 0.903052
O O1 0.736883 0.085139 0.116219
O O2 0.000000 0.103202 0.038600
O O3 0.730804 0.155381 0.015350
O O4 0.729086 0.066344 0.979549
O O5 0.500000 0.304409 0.034388
O O6 0.764738 0.311008 0.112052
O O7 0.750000 0.250000 0.000000
O O8 0.736598 0.339337 0.250000
O O9 0.714721 0.400135 0.143308
O O10 0.000000 0.359310 0.173401
O O11 0.769521 0.549699 0.250000
O O12 0.500000 0.543072 0.328077
O O13 0.771709 0.493644 0.362731
O O14 0.500000 0.541295 0.914489
#
# Coordination Sequence:
#
# PCOD9471926 Si02
#       5
#    16  16  16  16  16
#     4   8  15  27  43  65  93 125 159 197 240 286
#     4  10  20  35  55  74  95 126 164 206 252 303
#     4  10  20  33  50  74 102 128 158 201 249 293
#     4   9  15  23  40  68  98 126 159 197 234 279
#     4   9  16  27  46  70  96 127 161 196 236 284
#
# _framework density 19.260244
#
# number of rings (size 3 to 8) (size 9 to 14) (size 15 to 20)
#    0.000    2.800    0.000    3.600    0.000    4.800 
#    0.000    1.000    0.000   14.400    0.000    0.000 
#    0.000    0.000    0.000    0.000    0.000    0.000 
#
# Total GULP energy -223055.902289 kJ/mol
# GULP energy per Si atom -5576.397557 kJ/mol
# Density = 1.921641 g / cm^3
# Si number density = 19.260244 Si / 1000 Ang^3
#
#
#
# Elastic Constant Matrix: (Units=GPa)
#
#
# Indices 1 2 3 4 5 6 
#
# 1 24.1711 -7.6176 -3.8455 0.0000 0.0000 0.0000
# 2 -7.6176 91.3207 89.6355 0.0000 0.0000 0.0000
# 3 -3.8455 89.6355 188.5792 0.0000 0.0000 0.0000
# 4 0.0000 0.0000 0.0000 19.3153 0.0000 0.0000
# 5 0.0000 0.0000 0.0000 0.0000 6.5934 0.0000
# 6 0.0000 0.0000 0.0000 0.0000 0.0000 13.3647
#
#
#
# Elastic Compliance Matrix: (Units=1/GPa)
#
#
# Indices 1 2 3 4 5 6 
#
# 1 0.042727 0.005078 -0.001542 0.000000 0.000000 0.000000
# 2 0.005078 0.021131 -0.009940 0.000000 0.000000 0.000000
# 3 -0.001542 -0.009940 0.009996 0.000000 0.000000 0.000000
# 4 0.000000 0.000000 0.000000 0.051773 0.000000 0.000000
# 5 0.000000 0.000000 0.000000 0.000000 0.151667 0.000000
# 6 0.000000 0.000000 0.000000 0.000000 0.000000 0.074824
#
#
# Mechanical properties :
#
#
# Convention : Reuss Voigt Hill
#
# Bulk Modulus (GPa) = 16.38154 51.15731 33.76942
# Shear Modulus (GPa) = 12.97774 22.91458 17.94616
#
# Velocity S-wave (km/s) = 2.59860 3.45299 3.05581
# Velocity P-wave (km/s) = 4.18658 6.52045 5.47922
#
# Compressibility (1/GPa) = 0.06104432
#
# Stress axis : x y z
#
# Youngs Moduli (GPa) = 23.40456 47.32376 100.03743
#
# Poissons Ratio (x) = -0.24031 0.15430
# Poissons Ratio (y) = -0.11885 0.99442
# Poissons Ratio (z) = 0.03610 0.47042
#
# Static dielectric constant tensor:
#      x y z
#    x 1.719140 0.000000 0.000000 
#    y 0.000000 1.930630 0.000000 
#    z 0.000000 0.000000 1.673890 
# 
# From -- ./inp_files/40420.got.cif
#   From: 2010.05.17/outbox.cif.g08.bks.cpg/sg63_21_cif.got.tgz:40420.got - 2010.06.03 15:47:04.
