data_PCOD9471460
_publ_section_title
;
Structure prediction by ZEFSAII (Michael W. Deem and Ramdas Pophale) SiO2 
 PCOD9471460
Probable space group: C M C M
;
_chemical_formula_sum "Si O2"
_cell_formula_units_Z 96
_cell_length_a 8.278152
_cell_length_b 24.102911
_cell_length_c 26.069887
_cell_angle_alpha 90.000000
_cell_angle_beta 90.000000
_cell_angle_gamma 90.000000
_cell_volume 5201.660966
_symmetry_space_group_name_H-M "C M C M"
_symmetry_group_IT_number 63
_symmetry_cell_setting 'orthorhombic'
loop_
_space_group_symop_operation_xyz
x,y,z
-x,-y,1/2+z
x,-y,-z
-x,y,1/2-z
-x,-y,-z
x,y,1/2-z
-x,y,z
x,-y,1/2+z
1/2+x,1/2+y,z
1/2-x,1/2-y,1/2+z
1/2+x,1/2-y,-z
1/2-x,1/2+y,1/2-z
1/2-x,1/2-y,-z
1/2+x,1/2+y,1/2-z
1/2-x,1/2+y,z
1/2+x,1/2-y,1/2+z
loop_
_atom_site_type_symbol
_atom_site_label
_atom_site_fract_x
_atom_site_fract_y
_atom_site_fract_z
Si Si1 0.308560 0.127163 0.159696
Si Si2 0.192506 0.812841 0.939646
Si Si3 0.197108 0.504401 0.190457
Si Si4 0.687659 0.673486 0.750000
Si Si5 0.805985 0.611766 0.851005
Si Si6 0.304231 0.184675 0.945955
Si Si7 0.686364 0.704607 0.250000
O O1 0.500000 0.129013 0.170396
O O2 0.274522 0.149188 0.102933
O O3 0.252858 0.063913 0.168440
O O4 0.223693 0.167479 0.200366
O O5 0.242793 0.748231 0.932930
O O6 0.000000 0.815822 0.933034
O O7 0.238346 0.828513 0.997675
O O8 0.246609 0.499517 0.250000
O O9 0.253885 0.450744 0.159019
O O10 0.000000 0.503456 0.189996
O O11 0.500000 0.659138 0.750000
O O12 0.765969 0.647544 0.800777
O O13 0.710534 0.739490 0.750000
O O14 0.746404 0.642973 0.901853
O O15 0.000000 0.609109 0.855445
O O16 0.500000 0.183476 0.948113
O O17 0.500000 0.721668 0.250000
#
# Coordination Sequence:
#
# PCOD9471460 Si02
#       7
#    16  16  16   8  16  16   8
#     4  11  21  36  57  82 112 145 186 232 276 329
#     4  10  20  35  55  81 113 147 183 227 282 340
#     4   9  17  33  57  82 109 146 188 227 276 330
#     4  12  24  35  52  83 117 146 180 226 283 336
#     4  10  19  36  60  82 109 146 189 233 276 329
#     4   9  19  35  57  82 106 140 186 231 279 333
#     4  12  24  37  54  79 111 146 184 226 279 336
#
# _framework density 18.455642999999998
#
# number of rings (size 3 to 8) (size 9 to 14) (size 15 to 20)
#    0.000    1.833    1.667    3.500    0.000    2.667 
#    0.000    3.333    0.000    5.000    0.000    0.000 
#    0.000    0.000    0.000    0.000    0.000    0.000 
#
# Total GULP energy -268087.425396 kJ/mol
# GULP energy per Si atom -5585.154696 kJ/mol
# Density = 1.841364 g / cm^3
# Si number density = 18.455643 Si / 1000 Ang^3
#
#
#
# Elastic Constant Matrix: (Units=GPa)
#
#
# Indices 1 2 3 4 5 6 
#
# 1 9.4728 -10.6091 -5.9302 0.0000 0.0000 0.0000
# 2 -10.6091 100.5290 48.0658 0.0000 0.0000 0.0000
# 3 -5.9302 48.0658 92.9243 0.0000 0.0000 0.0000
# 4 0.0000 0.0000 0.0000 12.0246 0.0000 0.0000
# 5 0.0000 0.0000 0.0000 0.0000 66.3446 0.0000
# 6 0.0000 0.0000 0.0000 0.0000 0.0000 19.4004
#
#
#
# Elastic Compliance Matrix: (Units=1/GPa)
#
#
# Indices 1 2 3 4 5 6 
#
# 1 0.119866 0.011947 0.001470 0.000000 0.000000 0.000000
# 2 0.011947 0.014407 -0.006689 0.000000 0.000000 0.000000
# 3 0.001470 -0.006689 0.014315 0.000000 0.000000 0.000000
# 4 0.000000 0.000000 0.000000 0.083163 0.000000 0.000000
# 5 0.000000 0.000000 0.000000 0.000000 0.015073 0.000000
# 6 0.000000 0.000000 0.000000 0.000000 0.000000 0.051545
#
#
# Mechanical properties :
#
#
# Convention : Reuss Voigt Hill
#
# Bulk Modulus (GPa) = 6.17123 29.55322 17.86223
# Shear Modulus (GPa) = 14.75240 30.98056 22.86648
#
# Velocity S-wave (km/s) = 2.83033 4.10158 3.52376
# Velocity P-wave (km/s) = 3.74595 6.20310 5.12399
#
# Compressibility (1/GPa) = 0.16204226
#
# Stress axis : x y z
#
# Youngs Moduli (GPa) = 8.34268 69.41262 69.85459
#
# Poissons Ratio (x) = -0.82926 -0.10268
# Poissons Ratio (y) = -0.09967 0.46729
# Poissons Ratio (z) = -0.01226 0.46434
#
# Static dielectric constant tensor:
#      x y z
#    x 1.642360 0.000000 0.000000 
#    y 0.000000 1.631160 0.000000 
#    z 0.000000 0.000000 1.611810 
# 
# From -- ./inp_files/60044.got.cif
#   From: 2010.05.17/outbox.cif.g08.bks.cpg/sg63_31_cif.got.tgz:60044.got - 2010.06.03 15:47:04.
