data_PCOD9471310
_publ_section_title
;
Structure prediction by ZEFSAII (Michael W. Deem and Ramdas Pophale) SiO2 
 PCOD9471310
Probable space group: C M C M
;
_chemical_formula_sum "Si O2"
_cell_formula_units_Z 88
_cell_length_a 15.917480
_cell_length_b 17.688903
_cell_length_c 16.635124
_cell_angle_alpha 90.000000
_cell_angle_beta 90.000000
_cell_angle_gamma 90.000000
_cell_volume 4683.831422
_symmetry_space_group_name_H-M "C M C M"
_symmetry_group_IT_number 63
_symmetry_cell_setting 'orthorhombic'
loop_
_space_group_symop_operation_xyz
x,y,z
-x,-y,1/2+z
x,-y,-z
-x,y,1/2-z
-x,-y,-z
x,y,1/2-z
-x,y,z
x,-y,1/2+z
1/2+x,1/2+y,z
1/2-x,1/2-y,1/2+z
1/2+x,1/2-y,-z
1/2-x,1/2+y,1/2-z
1/2-x,1/2-y,-z
1/2+x,1/2+y,1/2-z
1/2-x,1/2+y,z
1/2+x,1/2-y,1/2+z
loop_
_atom_site_type_symbol
_atom_site_label
_atom_site_fract_x
_atom_site_fract_y
_atom_site_fract_z
Si Si1 0.000000 0.727717 0.504633
Si Si2 0.680544 0.463847 0.084676
Si Si3 0.500000 0.145756 0.658334
Si Si4 0.638936 0.982500 0.344133
Si Si5 0.600088 0.397553 0.656606
Si Si6 0.500000 0.063723 0.430391
Si Si7 0.171943 0.809566 0.998154
O O1 0.000000 0.715877 0.600406
O O2 0.000000 0.643944 0.470199
O O3 0.085505 0.767613 0.481952
O O4 0.776684 0.480373 0.106295
O O5 0.625597 0.513496 0.146320
O O6 0.655624 0.500000 0.000000
O O7 0.678984 0.374771 0.066034
O O8 0.500000 0.169744 0.750000
O O9 0.581193 0.092298 0.644712
O O10 0.656815 0.989396 0.250000
O O11 0.580942 0.049688 0.375844
O O12 0.615621 0.375265 0.750000
O O13 0.500000 0.390159 0.639696
O O14 0.654266 0.350092 0.589697
O O15 0.500000 0.000000 0.500000
O O16 0.250000 0.750000 0.000000
#
# Coordination Sequence:
#
# PCOD9471310 Si02
#       7
#     8  16   8  16  16   8  16
#     4  12  23  38  59  88 130 167 200 257 322 379
#     4  10  22  37  64  87 118 156 214 258 303 366
#     4   9  19  32  53  84 118 157 199 245 304 366
#     4  10  19  35  58  87 116 152 204 261 305 356
#     4  10  22  43  69  92 120 166 219 270 318 371
#     4  11  21  33  61  87 122 159 209 248 308 378
#     4  11  25  40  62  96 132 169 210 257 326 386
#
# _framework density 18.788036999999999
#
# number of rings (size 3 to 8) (size 9 to 14) (size 15 to 20)
#    0.000    1.636    2.727    3.000    6.364    1.818 
#    0.000    1.818    0.000    4.364    0.000    0.000 
#    0.000    0.000    0.000    0.000    0.000    0.000 
#
# Total GULP energy -245294.201953 kJ/mol
# GULP energy per Si atom -5574.868226 kJ/mol
# Density = 1.874527 g / cm^3
# Si number density = 18.788037 Si / 1000 Ang^3
#
#
#
# Elastic Constant Matrix: (Units=GPa)
#
#
# Indices 1 2 3 4 5 6 
#
# 1 102.0707 47.5805 17.0210 0.0000 0.0000 0.0000
# 2 47.5805 114.4472 17.6440 0.0000 0.0000 0.0000
# 3 17.0210 17.6440 52.3999 0.0000 0.0000 0.0000
# 4 0.0000 0.0000 0.0000 26.2163 0.0000 0.0000
# 5 0.0000 0.0000 0.0000 0.0000 4.2133 0.0000
# 6 0.0000 0.0000 0.0000 0.0000 0.0000 -10.7068
#
#
#
# Elastic Compliance Matrix: (Units=1/GPa)
#
#
# Indices 1 2 3 4 5 6 
#
# 1 0.012438 -0.004797 -0.002425 0.000000 0.000000 0.000000
# 2 -0.004797 0.011066 -0.002168 0.000000 0.000000 0.000000
# 3 -0.002425 -0.002168 0.020602 0.000000 0.000000 0.000000
# 4 0.000000 0.000000 0.000000 0.038144 0.000000 0.000000
# 5 0.000000 0.000000 0.000000 0.000000 0.237343 0.000000
# 6 0.000000 0.000000 0.000000 0.000000 0.000000 -0.093399
#
#
# Mechanical properties :
#
#
# Convention : Reuss Voigt Hill
#
# Bulk Modulus (GPa) = 39.48545 48.15655 43.82100
# Shear Modulus (GPa) = 19.73042 16.38937 18.05989
#
# Velocity S-wave (km/s) = 3.24413 2.95673 3.10376
# Velocity P-wave (km/s) = 5.92405 6.11093 6.01822
#
# Compressibility (1/GPa) = 0.02532579
#
# Stress axis : x y z
#
# Youngs Moduli (GPa) = 80.40109 90.36516 48.53975
#
# Poissons Ratio (x) = 0.43348 0.11770
# Poissons Ratio (y) = 0.38569 0.10523
# Poissons Ratio (z) = 0.19496 0.19591
#
# Static dielectric constant tensor:
#      x y z
#    x 1.643210 0.000000 0.000000 
#    y 0.000000 1.683770 0.000000 
#    z 0.000000 0.000000 1.712950 
# 
# From -- ./inp_files/44158.got.cif
#   From: 2010.05.17/outbox.cif.g08.bks.cpg/sg63_23_cif.got.tgz:44158.got - 2010.06.03 15:47:04.
