data_PCOD9471921
_publ_section_title
;
Structure prediction by ZEFSAII (Michael W. Deem and Ramdas Pophale) SiO2 
 PCOD9471921
Probable space group: C M C M
;
_chemical_formula_sum "Si O2"
_cell_formula_units_Z 72
_cell_length_a 15.175786
_cell_length_b 23.459976
_cell_length_c 9.993290
_cell_angle_alpha 90.000000
_cell_angle_beta 90.000000
_cell_angle_gamma 90.000000
_cell_volume 3557.846835
_symmetry_space_group_name_H-M "C M C M"
_symmetry_group_IT_number 63
_symmetry_cell_setting 'orthorhombic'
loop_
_space_group_symop_operation_xyz
x,y,z
-x,-y,1/2+z
x,-y,-z
-x,y,1/2-z
-x,-y,-z
x,y,1/2-z
-x,y,z
x,-y,1/2+z
1/2+x,1/2+y,z
1/2-x,1/2-y,1/2+z
1/2+x,1/2-y,-z
1/2-x,1/2+y,1/2-z
1/2-x,1/2-y,-z
1/2+x,1/2+y,1/2-z
1/2-x,1/2+y,z
1/2+x,1/2-y,1/2+z
loop_
_atom_site_type_symbol
_atom_site_label
_atom_site_fract_x
_atom_site_fract_y
_atom_site_fract_z
Si Si1 0.590342 0.189024 0.250000
Si Si2 0.398499 0.535928 0.250000
Si Si3 0.276795 0.300756 0.750000
Si Si4 0.794183 0.102480 0.474766
Si Si5 0.396542 0.600979 0.750000
Si Si6 0.598351 0.194293 0.750000
Si Si7 0.098008 0.607844 0.505892
O O1 0.500000 0.223099 0.250000
O O2 0.678380 0.224215 0.250000
O O3 0.592013 0.146226 0.374148
O O4 0.500000 0.555916 0.250000
O O5 0.349756 0.559313 0.382232
O O6 0.397534 0.468007 0.250000
O O7 0.287472 0.341235 0.619880
O O8 0.339831 0.247852 0.750000
O O9 0.843248 0.116196 0.614105
O O10 0.694203 0.078486 0.497857
O O11 0.500000 0.619468 0.750000
O O12 0.500000 0.217685 0.750000
O O13 0.608165 0.152772 0.624904
O O14 0.000000 0.579071 0.521263
#
# Coordination Sequence:
#
# PCOD9471921 Si02
#       7
#     8   8   8  16   8   8  16
#     4   8  15  29  48  70  95 127 173 219 258 302
#     4  10  21  38  58  80 108 143 175 206 263 337
#     4   9  20  34  52  76 106 144 181 219 263 311
#     4  10  20  35  57  81 106 138 179 223 265 311
#     4  11  22  36  56  81 109 139 176 220 262 317
#     4  10  20  33  50  73 106 147 183 216 260 313
#     4   9  18  34  55  77 102 139 182 218 261 318
#
# _framework density 20.236958000000001
#
# number of rings (size 3 to 8) (size 9 to 14) (size 15 to 20)
#    0.000    2.444    0.000    2.667    0.000    8.000 
#    0.000    1.111    0.000   12.000    0.000    0.000 
#    0.000    0.000    0.000    0.000    0.000    0.000 
#
# Total GULP energy -200578.956300 kJ/mol
# GULP energy per Si atom -5571.637675 kJ/mol
# Density = 2.019090 g / cm^3
# Si number density = 20.236958 Si / 1000 Ang^3
#
#
#
# Elastic Constant Matrix: (Units=GPa)
#
#
# Indices 1 2 3 4 5 6 
#
# 1 221.4784 35.6147 53.4899 0.0000 0.0000 0.0000
# 2 35.6147 23.6632 16.2905 0.0000 0.0000 0.0000
# 3 53.4899 16.2905 166.1805 0.0000 0.0000 0.0000
# 4 0.0000 0.0000 0.0000 -7.4400 0.0000 0.0000
# 5 0.0000 0.0000 0.0000 0.0000 29.1036 0.0000
# 6 0.0000 0.0000 0.0000 0.0000 0.0000 -7.2630
#
#
#
# Elastic Compliance Matrix: (Units=1/GPa)
#
#
# Indices 1 2 3 4 5 6 
#
# 1 0.006155 -0.008472 -0.001151 0.000000 0.000000 0.000000
# 2 -0.008472 0.056979 -0.002859 0.000000 0.000000 0.000000
# 3 -0.001151 -0.002859 0.006668 0.000000 0.000000 0.000000
# 4 0.000000 0.000000 0.000000 -0.134409 0.000000 0.000000
# 5 0.000000 0.000000 0.000000 0.000000 0.034360 0.000000
# 6 0.000000 0.000000 0.000000 0.000000 0.000000 -0.137685
#
#
# Mechanical properties :
#
#
# Convention : Reuss Voigt Hill
#
# Bulk Modulus (GPa) = 22.30185 69.12357 45.71271
# Shear Modulus (GPa) = -39.05578 23.27527 -7.89026
#
# Velocity S-wave (km/s) = -4.39786 3.39505 -1.97671
# Velocity P-wave (km/s) = 3.83978 7.04271 4.17467
#
# Compressibility (1/GPa) = 0.04483933
#
# Stress axis : x y z
#
# Youngs Moduli (GPa) = 162.45964 17.55047 149.96569
#
# Poissons Ratio (x) = 0.14869 0.17258
# Poissons Ratio (y) = 1.37636 0.42869
# Poissons Ratio (z) = 0.18695 0.05017
#
# Static dielectric constant tensor:
#      x y z
#    x 1.814050 0.000000 0.000000 
#    y 0.000000 1.658440 0.000000 
#    z 0.000000 0.000000 1.721290 
# 
# From -- ./inp_files/4759.got.cif
#   From: 2010.05.17/outbox.cif.g08.bks.cpg/sg63_3_cif.got.tgz:4759.got - 2010.06.03 15:47:04.
