data_PCOD9471345
_publ_section_title
;
Structure prediction by ZEFSAII (Michael W. Deem and Ramdas Pophale) SiO2 
 PCOD9471345
Probable space group: C M C M
;
_chemical_formula_sum "Si O2"
_cell_formula_units_Z 112
_cell_length_a 15.999817
_cell_length_b 14.402316
_cell_length_c 24.577112
_cell_angle_alpha 90.000000
_cell_angle_beta 90.000000
_cell_angle_gamma 90.000000
_cell_volume 5663.412558
_symmetry_space_group_name_H-M "C M C M"
_symmetry_group_IT_number 63
_symmetry_cell_setting 'orthorhombic'
loop_
_space_group_symop_operation_xyz
x,y,z
-x,-y,1/2+z
x,-y,-z
-x,y,1/2-z
-x,-y,-z
x,y,1/2-z
-x,y,z
x,-y,1/2+z
1/2+x,1/2+y,z
1/2-x,1/2-y,1/2+z
1/2+x,1/2-y,-z
1/2-x,1/2+y,1/2-z
1/2-x,1/2-y,-z
1/2+x,1/2+y,1/2-z
1/2-x,1/2+y,z
1/2+x,1/2-y,1/2+z
loop_
_atom_site_type_symbol
_atom_site_label
_atom_site_fract_x
_atom_site_fract_y
_atom_site_fract_z
Si Si1 0.752263 0.109151 0.489403
Si Si2 0.593275 0.927188 0.580485
Si Si3 0.658045 0.157934 0.187525
Si Si4 0.785779 0.865239 0.313543
Si Si5 0.342920 0.865704 0.092609
Si Si6 0.844616 0.930489 0.812348
Si Si7 0.409258 0.331444 0.918115
O O1 0.668124 0.119536 0.453488
O O2 0.730017 0.151510 0.547780
O O3 0.833091 0.143198 0.457744
O O4 0.764155 0.000000 0.500000
O O5 0.500000 0.908751 0.559645
O O6 0.602636 0.891086 0.642094
O O7 0.612596 0.037289 0.579116
O O8 0.629117 0.147295 0.250000
O O9 0.668535 0.267651 0.175344
O O10 0.750425 0.111443 0.184149
O O11 0.762788 0.863940 0.250000
O O12 0.703914 0.872318 0.350216
O O13 0.838595 0.958960 0.322535
O O14 0.402846 0.778365 0.091449
O O15 0.873656 0.914893 0.750000
O O16 0.895099 0.881832 0.860263
O O17 0.500000 0.356781 0.940501
#
# Coordination Sequence:
#
# PCOD9471345 Si02
#       7
#    16  16  16  16  16  16  16
#     4  10  22  41  62  84 119 160 203 249 300 356
#     4  11  22  38  61  89 121 155 197 248 307 363
#     4  10  19  35  60  88 120 157 199 244 296 356
#     4  10  19  35  64  90 115 157 201 242 298 359
#     4  11  21  37  60  90 121 154 195 249 307 363
#     4  10  19  36  60  86 119 160 200 242 297 357
#     4  12  24  39  60  89 123 161 204 250 299 355
#
# _framework density 19.776062
#
# number of rings (size 3 to 8) (size 9 to 14) (size 15 to 20)
#    0.000    1.429    4.286    1.714    0.000    4.000 
#    0.000    0.714    0.000    5.143    0.000    0.000 
#    0.000    0.000    0.000    0.000    0.000    0.000 
#
# Total GULP energy -312801.644836 kJ/mol
# GULP energy per Si atom -5585.743658 kJ/mol
# Density = 1.973105 g / cm^3
# Si number density = 19.776062 Si / 1000 Ang^3
#
#
#
# Elastic Constant Matrix: (Units=GPa)
#
#
# Indices 1 2 3 4 5 6 
#
# 1 112.9164 27.9886 34.3720 0.0000 0.0000 0.0000
# 2 27.9886 97.0863 35.1348 0.0000 0.0000 0.0000
# 3 34.3720 35.1348 48.3262 0.0000 0.0000 0.0000
# 4 0.0000 0.0000 0.0000 -4.9636 0.0000 0.0000
# 5 0.0000 0.0000 0.0000 0.0000 3.0426 0.0000
# 6 0.0000 0.0000 0.0000 0.0000 0.0000 -26.7381
#
#
#
# Elastic Compliance Matrix: (Units=1/GPa)
#
#
# Indices 1 2 3 4 5 6 
#
# 1 0.011319 -0.000474 -0.007706 0.000000 0.000000 0.000000
# 2 -0.000474 0.013998 -0.009839 0.000000 0.000000 0.000000
# 3 -0.007706 -0.009839 0.033327 0.000000 0.000000 0.000000
# 4 0.000000 0.000000 0.000000 -0.201468 0.000000 0.000000
# 5 0.000000 0.000000 0.000000 0.000000 0.328667 0.000000
# 6 0.000000 0.000000 0.000000 0.000000 0.000000 -0.037400
#
#
# Mechanical properties :
#
#
# Convention : Reuss Voigt Hill
#
# Bulk Modulus (GPa) = 44.23867 50.36886 47.30376
# Shear Modulus (GPa) = 26.03917 4.99043 15.51480
#
# Velocity S-wave (km/s) = 3.63257 1.59027 2.80397
# Velocity P-wave (km/s) = 6.32554 5.37558 5.86981
#
# Compressibility (1/GPa) = 0.02260466
#
# Stress axis : x y z
#
# Youngs Moduli (GPa) = 88.34366 71.44037 30.00560
#
# Poissons Ratio (x) = 0.03390 0.23122
# Poissons Ratio (y) = 0.04192 0.29523
# Poissons Ratio (z) = 0.68077 0.70292
#
# Static dielectric constant tensor:
#      x y z
#    x 1.688230 0.000000 0.000000 
#    y 0.000000 1.712950 0.000000 
#    z 0.000000 0.000000 1.701710 
# 
# From -- ./inp_files/63013.got.cif
#   From: 2010.05.17/outbox.cif.g08.bks.cpg/sg63_32_cif.got.tgz:63013.got - 2010.06.03 15:47:04.
