data_PCOD9471861
_publ_section_title
;
Structure prediction by ZEFSAII (Michael W. Deem and Ramdas Pophale) SiO2 
 PCOD9471861
Probable space group: C M C M
;
_chemical_formula_sum "Si O2"
_cell_formula_units_Z 112
_cell_length_a 26.994256
_cell_length_b 15.182213
_cell_length_c 14.961019
_cell_angle_alpha 90.000000
_cell_angle_beta 90.000000
_cell_angle_gamma 90.000000
_cell_volume 6131.512483
_symmetry_space_group_name_H-M "C M C M"
_symmetry_group_IT_number 63
_symmetry_cell_setting 'orthorhombic'
loop_
_space_group_symop_operation_xyz
x,y,z
-x,-y,1/2+z
x,-y,-z
-x,y,1/2-z
-x,-y,-z
x,y,1/2-z
-x,y,z
x,-y,1/2+z
1/2+x,1/2+y,z
1/2-x,1/2-y,1/2+z
1/2+x,1/2-y,-z
1/2-x,1/2+y,1/2-z
1/2-x,1/2-y,-z
1/2+x,1/2+y,1/2-z
1/2-x,1/2+y,z
1/2+x,1/2-y,1/2+z
loop_
_atom_site_type_symbol
_atom_site_label
_atom_site_fract_x
_atom_site_fract_y
_atom_site_fract_z
Si Si1 0.119395 0.984524 0.088480
Si Si2 0.444521 0.514609 0.750000
Si Si3 0.751803 0.267862 0.147633
Si Si4 0.441814 0.729490 0.750000
Si Si5 0.832634 0.356511 0.027444
Si Si6 0.175921 0.515057 0.356069
Si Si7 0.363715 0.277305 0.099081
Si Si8 0.714619 0.434813 0.649283
O O1 0.086021 0.017261 0.166974
O O2 0.130339 0.881830 0.096548
O O3 0.170475 0.037896 0.086216
O O4 0.089273 0.000000 0.000000
O O5 0.500000 0.484468 0.750000
O O6 0.443916 0.622227 0.750000
O O7 0.762785 0.299724 0.250000
O O8 0.780758 0.320001 0.069216
O O9 0.692546 0.265749 0.135687
O O10 0.770288 0.166883 0.142308
O O11 0.500000 0.758790 0.750000
O O12 0.407641 0.755888 0.835313
O O13 0.848344 0.426101 0.104231
O O14 0.832910 0.411067 0.933200
O O15 0.863863 0.271334 0.996963
O O16 0.164791 0.533276 0.250000
O O17 0.235756 0.508193 0.361975
O O18 0.696704 0.452370 0.750000
#
# Coordination Sequence:
#
# PCOD9471861 Si02
#       8
#    16   8  16   8  16  16  16  16
#     4  11  22  33  53  78 105 144 184 224 269 321
#     4   9  20  40  55  74 102 133 180 233 282 323
#     4  11  21  33  50  78 118 157 185 225 264 332
#     4   9  20  38  61  82 106 141 186 245 298 331
#     4  11  22  33  51  78 109 147 191 220 276 331
#     4  10  22  36  49  70 111 155 185 225 258 325
#     4  11  21  35  55  80 113 146 190 235 281 332
#     4  10  20  33  48  72 112 150 188 215 256 316
#
# _framework density 18.266293000000001
#
# number of rings (size 3 to 8) (size 9 to 14) (size 15 to 20)
#    0.000    1.571    2.857    2.571    5.000    1.429 
#    0.000    0.000    0.000    0.000    0.000    2.000 
#    0.000    0.000    0.000    0.286    0.000    0.000 
#
# Total GULP energy -311788.806001 kJ/mol
# GULP energy per Si atom -5567.657250 kJ/mol
# Density = 1.822472 g / cm^3
# Si number density = 18.266293 Si / 1000 Ang^3
#
#
#
# Elastic Constant Matrix: (Units=GPa)
#
#
# Indices 1 2 3 4 5 6 
#
# 1 74.0445 19.0726 36.3277 0.0000 0.0000 0.0000
# 2 19.0726 25.4457 3.9373 0.0000 0.0000 0.0000
# 3 36.3277 3.9373 109.3821 0.0000 0.0000 0.0000
# 4 0.0000 0.0000 0.0000 22.6039 0.0000 0.0000
# 5 0.0000 0.0000 0.0000 0.0000 1501.9092 0.0000
# 6 0.0000 0.0000 0.0000 0.0000 0.0000 -7.1866
#
#
#
# Elastic Compliance Matrix: (Units=1/GPa)
#
#
# Indices 1 2 3 4 5 6 
#
# 1 0.020199 -0.014181 -0.006198 0.000000 0.000000 0.000000
# 2 -0.014181 0.049475 0.002929 0.000000 0.000000 0.000000
# 3 -0.006198 0.002929 0.011095 0.000000 0.000000 0.000000
# 4 0.000000 0.000000 0.000000 0.044240 0.000000 0.000000
# 5 0.000000 0.000000 0.000000 0.000000 0.000666 0.000000
# 6 0.000000 0.000000 0.000000 0.000000 0.000000 -0.139147
#
#
# Mechanical properties :
#
#
# Convention : Reuss Voigt Hill
#
# Bulk Modulus (GPa) = 21.80102 36.39420 29.09761
# Shear Modulus (GPa) = 136.17144 313.43426 224.80285
#
# Velocity S-wave (km/s) = 8.64348 13.11351 11.10572
# Velocity P-wave (km/s) = 10.56286 15.78775 13.43181
#
# Compressibility (1/GPa) = 0.04586940
#
# Stress axis : x y z
#
# Youngs Moduli (GPa) = 49.50732 20.21209 90.12828
#
# Poissons Ratio (x) = 0.28663 0.55861
# Poissons Ratio (y) = 0.70206 -0.26397
# Poissons Ratio (z) = 0.30685 -0.05920
#
# Static dielectric constant tensor:
#      x y z
#    x 1.584350 0.000000 0.000000 
#    y 0.000000 1.700090 0.000000 
#    z 0.000000 0.000000 1.712390 
# 
# From -- ./inp_files/38001.got.cif
#   From: 2010.05.17/outbox.cif.g08.bks.cpg/sg63_20_cif.got.tgz:38001.got - 2010.06.03 15:47:04.
