data_PCOD9471518
_publ_section_title
;
Structure prediction by ZEFSAII (Michael W. Deem and Ramdas Pophale) SiO2 
 PCOD9471518
Probable space group: C M C M
;
_chemical_formula_sum "Si O2"
_cell_formula_units_Z 72
_cell_length_a 14.054246
_cell_length_b 31.291738
_cell_length_c 9.814015
_cell_angle_alpha 90.000000
_cell_angle_beta 90.000000
_cell_angle_gamma 90.000000
_cell_volume 4316.025021
_symmetry_space_group_name_H-M "C M C M"
_symmetry_group_IT_number 63
_symmetry_cell_setting 'orthorhombic'
loop_
_space_group_symop_operation_xyz
x,y,z
-x,-y,1/2+z
x,-y,-z
-x,y,1/2-z
-x,-y,-z
x,y,1/2-z
-x,y,z
x,-y,1/2+z
1/2+x,1/2+y,z
1/2-x,1/2-y,1/2+z
1/2+x,1/2-y,-z
1/2-x,1/2+y,1/2-z
1/2-x,1/2-y,-z
1/2+x,1/2+y,1/2-z
1/2-x,1/2+y,z
1/2+x,1/2-y,1/2+z
loop_
_atom_site_type_symbol
_atom_site_label
_atom_site_fract_x
_atom_site_fract_y
_atom_site_fract_z
Si Si1 0.389010 0.744765 0.090669
Si Si2 0.613250 0.956908 0.250000
Si Si3 0.386731 0.457424 0.250000
Si Si4 0.733813 0.683324 0.911810
Si Si5 0.749962 0.463672 0.750000
Si Si6 0.750103 0.415721 0.034603
O O1 0.375656 0.732919 0.250000
O O2 0.500000 0.752073 0.066732
O O3 0.327664 0.787592 0.067396
O O4 0.347949 0.707951 0.994154
O O5 0.500000 0.957236 0.250000
O O6 0.658872 0.932830 0.380247
O O7 0.660001 0.004025 0.250000
O O8 0.500000 0.457090 0.250000
O O9 0.341400 0.504808 0.250000
O O10 0.340391 0.433688 0.380398
O O11 0.713789 0.682067 0.750000
O O12 0.747672 0.635288 0.962606
O O13 0.750480 0.435508 0.614717
#
# Coordination Sequence:
#
# PCOD9471518 Si02
#       6
#    16   8   8  16   8  16
#     4   9  20  36  57  82 108 139 177 221 271 325
#     4  10  20  38  60  81 108 146 186 223 274 330
#     4  10  20  38  58  79 108 146 190 229 274 328
#     4  10  19  37  57  79 109 145 179 219 270 318
#     4  10  22  36  56  80 116 144 180 230 278 324
#     4  10  21  37  56  85 109 146 185 226 274 322
#
# _framework density 16.682016999999998
#
# number of rings (size 3 to 8) (size 9 to 14) (size 15 to 20)
#    0.000    2.444    2.222    2.667    1.556    5.778 
#    0.000    0.000    0.000    0.000    0.000    0.000 
#    0.000    0.000    0.000    0.000    0.000    0.000 
#
# Total GULP energy -200812.280587 kJ/mol
# GULP energy per Si atom -5578.118905 kJ/mol
# Density = 1.664405 g / cm^3
# Si number density = 16.682017 Si / 1000 Ang^3
#
#
#
# Elastic Constant Matrix: (Units=GPa)
#
#
# Indices 1 2 3 4 5 6 
#
# 1 144.4093 51.6877 55.1239 0.0000 0.0000 0.0000
# 2 51.6877 151.4613 85.0477 0.0000 0.0000 0.0000
# 3 55.1239 85.0477 112.1526 0.0000 0.0000 0.0000
# 4 0.0000 0.0000 0.0000 9.8268 0.0000 0.0000
# 5 0.0000 0.0000 0.0000 0.0000 11.8884 0.0000
# 6 0.0000 0.0000 0.0000 0.0000 0.0000 2.9598
#
#
#
# Elastic Compliance Matrix: (Units=1/GPa)
#
#
# Indices 1 2 3 4 5 6 
#
# 1 0.008606 -0.000978 -0.003488 0.000000 0.000000 0.000000
# 2 -0.000978 0.011610 -0.008323 0.000000 0.000000 0.000000
# 3 -0.003488 -0.008323 0.016942 0.000000 0.000000 0.000000
# 4 0.000000 0.000000 0.000000 0.101763 0.000000 0.000000
# 5 0.000000 0.000000 0.000000 0.000000 0.084116 0.000000
# 6 0.000000 0.000000 0.000000 0.000000 0.000000 0.337861
#
#
# Mechanical properties :
#
#
# Convention : Reuss Voigt Hill
#
# Bulk Modulus (GPa) = 86.36033 87.97134 87.16584
# Shear Modulus (GPa) = 8.46973 19.34591 13.90782
#
# Velocity S-wave (km/s) = 2.25570 3.40911 2.89052
# Velocity P-wave (km/s) = 7.65932 8.26709 7.96900
#
# Compressibility (1/GPa) = 0.01157939
#
# Stress axis : x y z
#
# Youngs Moduli (GPa) = 116.19165 86.13475 59.02332
#
# Poissons Ratio (x) = 0.08427 0.20589
# Poissons Ratio (y) = 0.11368 0.49125
# Poissons Ratio (z) = 0.40531 0.71690
#
# Static dielectric constant tensor:
#      x y z
#    x 1.540280 0.000000 0.000000 
#    y 0.000000 1.541690 0.000000 
#    z 0.000000 0.000000 1.558700 
# 
# From -- ./inp_files/4951.got.cif
#   From: 2010.05.17/outbox.cif.g08.bks.cpg/sg63_3_cif.got.tgz:4951.got - 2010.06.03 15:47:04.
