data_PCOD9471098
_publ_section_title
;
Structure prediction by ZEFSAII (Michael W. Deem and Ramdas Pophale) SiO2 
 PCOD9471098
Probable space group: C M C M
;
_chemical_formula_sum "Si O2"
_cell_formula_units_Z 104
_cell_length_a 11.179960
_cell_length_b 27.911819
_cell_length_c 18.398356
_cell_angle_alpha 90.000000
_cell_angle_beta 90.000000
_cell_angle_gamma 90.000000
_cell_volume 5741.262552
_symmetry_space_group_name_H-M "C M C M"
_symmetry_group_IT_number 63
_symmetry_cell_setting 'orthorhombic'
loop_
_space_group_symop_operation_xyz
x,y,z
-x,-y,1/2+z
x,-y,-z
-x,y,1/2-z
-x,-y,-z
x,y,1/2-z
-x,y,z
x,-y,1/2+z
1/2+x,1/2+y,z
1/2-x,1/2-y,1/2+z
1/2+x,1/2-y,-z
1/2-x,1/2+y,1/2-z
1/2-x,1/2-y,-z
1/2+x,1/2+y,1/2-z
1/2-x,1/2+y,z
1/2+x,1/2-y,1/2+z
loop_
_atom_site_type_symbol
_atom_site_label
_atom_site_fract_x
_atom_site_fract_y
_atom_site_fract_z
Si Si1 0.145693 0.466725 0.750000
Si Si2 0.130544 0.906819 0.402458
Si Si3 0.870162 0.555180 0.976831
Si Si4 0.642592 0.200289 0.439283
Si Si5 0.365170 0.892272 0.870055
Si Si6 0.260775 0.304302 0.097370
Si Si7 0.780200 0.067899 0.750000
Si Si8 0.857722 0.667754 0.750000
O O1 0.183603 0.433721 0.681671
O O2 0.209347 0.517882 0.750000
O O3 0.000000 0.473626 0.750000
O O4 0.250100 0.929362 0.436993
O O5 0.149517 0.849458 0.404050
O O6 0.139133 0.925379 0.320567
O O7 0.000000 0.918807 0.434354
O O8 0.000000 0.562619 0.937997
O O9 0.864448 0.500000 0.000000
O O10 0.873649 0.585514 0.050183
O O11 0.500000 0.195854 0.438637
O O12 0.693457 0.159215 0.385052
O O13 0.679052 0.252513 0.411250
O O14 0.683701 0.191841 0.522686
O O15 0.500000 0.883699 0.841421
O O16 0.191740 0.309338 0.174424
O O17 0.687818 0.112690 0.750000
O O18 0.000000 0.670103 0.750000
#
# Coordination Sequence:
#
# PCOD9471098 Si02
#       8
#     8  16  16  16  16  16   8   8
#     4  10  19  34  56  85 113 145 188 239 299 352
#     4  11  22  37  56  83 118 154 192 237 291 350
#     4  10  20  35  56  82 112 146 189 243 289 335
#     4  10  19  35  57  83 114 152 195 242 295 349
#     4   9  18  32  53  81 112 143 183 238 291 341
#     4  10  21  35  56  84 115 155 195 241 291 350
#     4  10  22  36  54  80 113 154 191 236 291 349
#     4  10  21  36  56  83 115 153 198 247 293 349
#
# _framework density 18.114481999999999
#
# number of rings (size 3 to 8) (size 9 to 14) (size 15 to 20)
#    0.000    2.000    1.538    2.308    0.000    5.231 
#    0.000    1.923    0.000    0.000    0.000    0.000 
#    0.000    0.000    0.000    0.000    0.000    0.000 
#
# Total GULP energy -289626.398198 kJ/mol
# GULP energy per Si atom -5569.738427 kJ/mol
# Density = 1.807325 g / cm^3
# Si number density = 18.114482 Si / 1000 Ang^3
#
#
#
# Elastic Constant Matrix: (Units=GPa)
#
#
# Indices 1 2 3 4 5 6 
#
# 1 111.9833 38.3441 43.6751 0.0000 0.0000 0.0000
# 2 38.3441 141.0981 39.4076 0.0000 0.0000 0.0000
# 3 43.6751 39.4076 84.4731 0.0000 0.0000 0.0000
# 4 0.0000 0.0000 0.0000 54.6953 0.0000 0.0000
# 5 0.0000 0.0000 0.0000 0.0000 2.2843 0.0000
# 6 0.0000 0.0000 0.0000 0.0000 0.0000 19.7650
#
#
#
# Elastic Compliance Matrix: (Units=1/GPa)
#
#
# Indices 1 2 3 4 5 6 
#
# 1 0.011525 -0.001688 -0.005171 0.000000 0.000000 0.000000
# 2 -0.001688 0.008396 -0.003044 0.000000 0.000000 0.000000
# 3 -0.005171 -0.003044 0.015932 0.000000 0.000000 0.000000
# 4 0.000000 0.000000 0.000000 0.018283 0.000000 0.000000
# 5 0.000000 0.000000 0.000000 0.000000 0.437779 0.000000
# 6 0.000000 0.000000 0.000000 0.000000 0.000000 0.050594
#
#
# Mechanical properties :
#
#
# Convention : Reuss Voigt Hill
#
# Bulk Modulus (GPa) = 62.31958 64.48980 63.40469
# Shear Modulus (GPa) = 8.80802 29.75742 19.28272
#
# Velocity S-wave (km/s) = 2.20748 4.05747 3.26619
# Velocity P-wave (km/s) = 6.40118 7.59140 7.02156
#
# Compressibility (1/GPa) = 0.01604632
#
# Stress axis : x y z
#
# Youngs Moduli (GPa) = 86.77065 119.10235 62.76656
#
# Poissons Ratio (x) = 0.20099 0.32459
# Poissons Ratio (y) = 0.14643 0.19108
# Poissons Ratio (z) = 0.44872 0.36259
#
# Static dielectric constant tensor:
#      x y z
#    x 1.639870 0.000000 0.000000 
#    y 0.000000 1.647500 0.000000 
#    z 0.000000 0.000000 1.639530 
# 
# From -- ./inp_files/42825.got.cif
#   From: 2010.05.17/outbox.cif.g08.bks.cpg/sg63_22_cif.got.tgz:42825.got - 2010.06.03 15:47:04.
