data_PCOD9471530
_publ_section_title
;
Structure prediction by ZEFSAII (Michael W. Deem and Ramdas Pophale) SiO2 
 PCOD9471530
Probable space group: C M C M
;
_chemical_formula_sum "Si O2"
_cell_formula_units_Z 52
_cell_length_a 31.278464
_cell_length_b 17.030606
_cell_length_c 5.243441
_cell_angle_alpha 90.000000
_cell_angle_beta 90.000000
_cell_angle_gamma 90.000000
_cell_volume 2793.134861
_symmetry_space_group_name_H-M "C M C M"
_symmetry_group_IT_number 63
_symmetry_cell_setting 'orthorhombic'
loop_
_space_group_symop_operation_xyz
x,y,z
-x,-y,1/2+z
x,-y,-z
-x,y,1/2-z
-x,-y,-z
x,y,1/2-z
-x,y,z
x,-y,1/2+z
1/2+x,1/2+y,z
1/2-x,1/2-y,1/2+z
1/2+x,1/2-y,-z
1/2-x,1/2+y,1/2-z
1/2-x,1/2-y,-z
1/2+x,1/2+y,1/2-z
1/2-x,1/2+y,z
1/2+x,1/2-y,1/2+z
loop_
_atom_site_type_symbol
_atom_site_label
_atom_site_fract_x
_atom_site_fract_y
_atom_site_fract_z
Si Si1 0.778340 0.162130 0.750000
Si Si2 0.092115 0.278144 0.250000
Si Si3 0.306597 0.241475 0.750000
Si Si4 0.000000 0.054930 0.750000
Si Si5 0.948695 0.449609 0.250000
Si Si6 0.349332 0.549900 0.750000
Si Si7 0.921930 0.823099 0.250000
O O1 0.727088 0.169550 0.750000
O O2 0.795242 0.207276 0.499155
O O3 0.800141 0.077420 0.750000
O O4 0.143779 0.279724 0.250000
O O5 0.073817 0.365611 0.250000
O O6 0.076849 0.230823 0.499587
O O7 0.040919 0.112049 0.750000
O O8 0.000000 0.000000 0.500000
O O9 0.937690 0.500000 0.500000
O O10 0.000000 0.437220 0.250000
O O11 0.359168 0.500000 0.500000
O O12 0.377914 0.627888 0.750000
#
# Coordination Sequence:
#
# PCOD9471530 Si02
#       7
#     8   8   8   4   8   8   8
#     4  10  20  36  57  85 115 157 200 241 298 351
#     4  12  22  40  66  95 120 157 206 260 291 370
#     4  10  19  37  60  84 117 149 197 253 294 350
#     4  12  26  46  60  86 132 172 204 262 320 354
#     4  10  23  42  63  90 122 155 188 239 316 371
#     4  12  22  37  57  85 125 163 205 251 293 351
#     4  12  25  39  63  92 121 164 216 247 302 362
#
# _framework density 18.617073999999999
#
# number of rings (size 3 to 8) (size 9 to 14) (size 15 to 20)
#    0.000    0.923    3.077    4.615    2.154    0.000 
#    0.000    1.538    0.000    0.000    0.000    0.000 
#    0.000    0.000    0.000    0.000    0.000    0.000 
#
# Total GULP energy -145344.086981 kJ/mol
# GULP energy per Si atom -5590.157192 kJ/mol
# Density = 1.857470 g / cm^3
# Si number density = 18.617074 Si / 1000 Ang^3
#
#
#
# Elastic Constant Matrix: (Units=GPa)
#
#
# Indices 1 2 3 4 5 6 
#
# 1 97.6441 55.8021 45.5892 0.0000 0.0000 0.0000
# 2 55.8021 139.9972 90.5221 0.0000 0.0000 0.0000
# 3 45.5892 90.5221 204.3475 0.0000 0.0000 0.0000
# 4 0.0000 0.0000 0.0000 34.4775 0.0000 0.0000
# 5 0.0000 0.0000 0.0000 0.0000 11.4025 0.0000
# 6 0.0000 0.0000 0.0000 0.0000 0.0000 33.3276
#
#
#
# Elastic Compliance Matrix: (Units=1/GPa)
#
#
# Indices 1 2 3 4 5 6 
#
# 1 0.013372 -0.004766 -0.000872 0.000000 0.000000 0.000000
# 2 -0.004766 0.011709 -0.004124 0.000000 0.000000 0.000000
# 3 -0.000872 -0.004124 0.006915 0.000000 0.000000 0.000000
# 4 0.000000 0.000000 0.000000 0.029004 0.000000 0.000000
# 5 0.000000 0.000000 0.000000 0.000000 0.087700 0.000000
# 6 0.000000 0.000000 0.000000 0.000000 0.000000 0.030005
#
#
# Mechanical properties :
#
#
# Convention : Reuss Voigt Hill
#
# Bulk Modulus (GPa) = 80.17596 91.75729 85.96663
# Shear Modulus (GPa) = 24.70517 32.51322 28.60919
#
# Velocity S-wave (km/s) = 3.64678 4.18355 3.92435
# Velocity P-wave (km/s) = 7.80329 8.52818 8.17377
#
# Compressibility (1/GPa) = 0.01247257
#
# Stress axis : x y z
#
# Youngs Moduli (GPa) = 74.78184 85.40346 144.61715
#
# Poissons Ratio (x) = 0.40706 0.12609
# Poissons Ratio (y) = 0.35643 0.59634
# Poissons Ratio (z) = 0.06520 0.35217
#
# Static dielectric constant tensor:
#      x y z
#    x 1.673220 0.000000 0.000000 
#    y 0.000000 1.605050 0.000000 
#    z 0.000000 0.000000 1.625560 
# 
# From -- ./inp_files/1330.got.cif
#   From: 2010.05.17/outbox.cif.g08.bks.cpg/sg63_1_cif.got.tgz:1330.got - 2010.06.03 15:47:04.
