data_PCOD9471562
_publ_section_title
;
Structure prediction by ZEFSAII (Michael W. Deem and Ramdas Pophale) SiO2 
 PCOD9471562
Probable space group: C M C M
;
_chemical_formula_sum "Si O2"
_cell_formula_units_Z 96
_cell_length_a 28.932788
_cell_length_b 11.300639
_cell_length_c 15.118724
_cell_angle_alpha 90.000000
_cell_angle_beta 90.000000
_cell_angle_gamma 90.000000
_cell_volume 4943.202766
_symmetry_space_group_name_H-M "C M C M"
_symmetry_group_IT_number 63
_symmetry_cell_setting 'orthorhombic'
loop_
_space_group_symop_operation_xyz
x,y,z
-x,-y,1/2+z
x,-y,-z
-x,y,1/2-z
-x,-y,-z
x,y,1/2-z
-x,y,z
x,-y,1/2+z
1/2+x,1/2+y,z
1/2-x,1/2-y,1/2+z
1/2+x,1/2-y,-z
1/2-x,1/2+y,1/2-z
1/2-x,1/2-y,-z
1/2+x,1/2+y,1/2-z
1/2-x,1/2+y,z
1/2+x,1/2-y,1/2+z
loop_
_atom_site_type_symbol
_atom_site_label
_atom_site_fract_x
_atom_site_fract_y
_atom_site_fract_z
Si Si1 0.392857 0.479234 0.398907
Si Si2 0.555348 0.659785 0.750000
Si Si3 0.444306 0.075033 0.250000
Si Si4 0.446854 0.082908 0.915465
Si Si5 0.124529 0.242118 0.148264
Si Si6 0.711720 0.569488 0.641757
Si Si7 0.229783 0.199908 0.357472
O O1 0.407128 0.500000 0.500000
O O2 0.425709 0.400389 0.338719
O O3 0.390513 0.606588 0.353113
O O4 0.340416 0.430270 0.394931
O O5 0.500000 0.657156 0.750000
O O6 0.573948 0.793410 0.750000
O O7 0.500000 0.084354 0.250000
O O8 0.432104 0.001546 0.164376
O O9 0.500000 0.124841 0.901156
O O10 0.409977 0.187062 0.914592
O O11 0.446585 0.000000 0.000000
O O12 0.121739 0.285502 0.250000
O O13 0.177790 0.240987 0.119421
O O14 0.709513 0.568908 0.750000
O O15 0.737081 0.691552 0.613597
O O16 0.733982 0.440097 0.615733
O O17 0.232591 0.197493 0.250000
#
# Coordination Sequence:
#
# PCOD9471562 Si02
#       7
#    16   8   8  16  16  16  16
#     4  11  23  40  61  88 121 158 197 248 302 352
#     4  11  24  43  61  84 120 158 198 247 300 358
#     4   9  20  39  57  78 114 150 184 241 295 340
#     4  10  21  37  58  85 116 152 193 241 300 355
#     4  10  19  38  59  84 118 154 201 253 288 343
#     4   9  16  36  57  83 118 155 197 243 296 355
#     4   8  16  30  55  81 114 152 194 242 291 343
#
# _framework density 19.420607
#
# number of rings (size 3 to 8) (size 9 to 14) (size 15 to 20)
#    0.000    2.333    2.500    1.000    2.333    1.000 
#    3.000    4.167    0.000    0.000    0.000    0.000 
#    0.000    0.000    0.000    0.000    0.000    0.000 
#
# Total GULP energy -267577.217998 kJ/mol
# GULP energy per Si atom -5574.525375 kJ/mol
# Density = 1.937640 g / cm^3
# Si number density = 19.420607 Si / 1000 Ang^3
#
#
#
# Elastic Constant Matrix: (Units=GPa)
#
#
# Indices 1 2 3 4 5 6 
#
# 1 50.5682 46.0520 9.1425 0.0000 0.0000 0.0000
# 2 46.0520 77.6421 6.2150 0.0000 0.0000 0.0000
# 3 9.1425 6.2150 65.5738 0.0000 0.0000 0.0000
# 4 0.0000 0.0000 0.0000 8.9190 0.0000 0.0000
# 5 0.0000 0.0000 0.0000 0.0000 -67.8481 0.0000
# 6 0.0000 0.0000 0.0000 0.0000 0.0000 27.2162
#
#
#
# Elastic Compliance Matrix: (Units=1/GPa)
#
#
# Indices 1 2 3 4 5 6 
#
# 1 0.043868 -0.025725 -0.003678 0.000000 0.000000 0.000000
# 2 -0.025725 0.028064 0.000927 0.000000 0.000000 0.000000
# 3 -0.003678 0.000927 0.015675 0.000000 0.000000 0.000000
# 4 0.000000 0.000000 0.000000 0.112120 0.000000 0.000000
# 5 0.000000 0.000000 0.000000 0.000000 -0.014739 0.000000
# 6 0.000000 0.000000 0.000000 0.000000 0.000000 0.036743
#
#
# Mechanical properties :
#
#
# Convention : Reuss Voigt Hill
#
# Bulk Modulus (GPa) = 32.62203 35.17812 33.90007
# Shear Modulus (GPa) = 17.30700 2.48239 9.89470
#
# Velocity S-wave (km/s) = 2.98848 1.13181 2.25965
# Velocity P-wave (km/s) = 5.36117 4.45658 4.92967
#
# Compressibility (1/GPa) = 0.03065413
#
# Stress axis : x y z
#
# Youngs Moduli (GPa) = 22.79583 35.63320 63.79609
#
# Poissons Ratio (x) = 0.91666 0.23464
# Poissons Ratio (y) = 0.58642 -0.05913
# Poissons Ratio (z) = 0.08384 -0.03302
#
# Static dielectric constant tensor:
#      x y z
#    x 1.667280 0.000000 0.000000 
#    y 0.000000 1.691650 0.000000 
#    z 0.000000 0.000000 1.704630 
# 
# From -- ./inp_files/38461.got.cif
#   From: 2010.05.17/outbox.cif.g08.bks.cpg/sg63_20_cif.got.tgz:38461.got - 2010.06.03 15:47:04.
