data_PCOD9471370
_publ_section_title
;
Structure prediction by ZEFSAII (Michael W. Deem and Ramdas Pophale) SiO2 
 PCOD9471370
Probable space group: C M C M
;
_chemical_formula_sum "Si O2"
_cell_formula_units_Z 96
_cell_length_a 20.631328
_cell_length_b 14.583504
_cell_length_c 18.098236
_cell_angle_alpha 90.000000
_cell_angle_beta 90.000000
_cell_angle_gamma 90.000000
_cell_volume 5445.343938
_symmetry_space_group_name_H-M "C M C M"
_symmetry_group_IT_number 63
_symmetry_cell_setting 'orthorhombic'
loop_
_space_group_symop_operation_xyz
x,y,z
-x,-y,1/2+z
x,-y,-z
-x,y,1/2-z
-x,-y,-z
x,y,1/2-z
-x,y,z
x,-y,1/2+z
1/2+x,1/2+y,z
1/2-x,1/2-y,1/2+z
1/2+x,1/2-y,-z
1/2-x,1/2+y,1/2-z
1/2-x,1/2-y,-z
1/2+x,1/2+y,1/2-z
1/2-x,1/2+y,z
1/2+x,1/2-y,1/2+z
loop_
_atom_site_type_symbol
_atom_site_label
_atom_site_fract_x
_atom_site_fract_y
_atom_site_fract_z
Si Si1 0.726027 0.191772 0.336882
Si Si2 0.618756 0.689970 0.162655
Si Si3 0.811682 0.509209 0.087654
Si Si4 0.924487 0.603724 0.661946
Si Si5 0.308091 0.597977 0.838104
Si Si6 0.425337 0.494439 0.912322
O O1 0.714388 0.171503 0.250000
O O2 0.803676 0.189919 0.348149
O O3 0.693596 0.114214 0.386436
O O4 0.701139 0.294066 0.352305
O O5 0.606190 0.673897 0.250000
O O6 0.591600 0.790281 0.143911
O O7 0.587694 0.608543 0.116116
O O8 0.876579 0.461978 0.117970
O O9 0.751011 0.456668 0.124753
O O10 0.807604 0.500000 0.000000
O O11 0.912186 0.593170 0.750000
O O12 0.000000 0.585423 0.647909
O O13 0.305370 0.582980 0.750000
O O14 0.374664 0.559110 0.870429
O O15 0.500000 0.519276 0.897677
O O16 0.413810 0.500000 0.000000
#
# Coordination Sequence:
#
# PCOD9471370 Si02
#       6
#    16  16  16  16  16  16
#     4  10  21  37  60  88 116 148 196 247 283 336
#     4  10  19  35  62  89 112 146 198 252 289 328
#     4  12  24  37  59  90 121 156 186 233 293 353
#     4  10  21  39  62  86 114 149 195 247 289 331
#     4  11  22  39  61  84 115 154 199 244 286 341
#     4  11  24  39  56  86 126 159 190 236 296 354
#
# _framework density 17.629740000000002
#
# number of rings (size 3 to 8) (size 9 to 14) (size 15 to 20)
#    0.000    1.333    3.333    3.000    0.000    4.333 
#    0.000    0.833    0.000    1.000    0.000    0.000 
#    0.000    0.000    0.000    0.000    0.000    0.000 
#
# Total GULP energy -268316.805627 kJ/mol
# GULP energy per Si atom -5589.933451 kJ/mol
# Density = 1.758961 g / cm^3
# Si number density = 17.629740 Si / 1000 Ang^3
#
#
#
# Elastic Constant Matrix: (Units=GPa)
#
#
# Indices 1 2 3 4 5 6 
#
# 1 112.6924 68.8517 81.8921 0.0000 0.0000 0.0000
# 2 68.8517 101.9048 80.3496 0.0000 0.0000 0.0000
# 3 81.8921 80.3496 102.3898 0.0000 0.0000 0.0000
# 4 0.0000 0.0000 0.0000 -30.1754 0.0000 0.0000
# 5 0.0000 0.0000 0.0000 0.0000 34.6369 0.0000
# 6 0.0000 0.0000 0.0000 0.0000 0.0000 22.1281
#
#
#
# Elastic Compliance Matrix: (Units=1/GPa)
#
#
# Indices 1 2 3 4 5 6 
#
# 1 0.021435 -0.002531 -0.015158 0.000000 0.000000 0.000000
# 2 -0.002531 0.026038 -0.018409 0.000000 0.000000 0.000000
# 3 -0.015158 -0.018409 0.036336 0.000000 0.000000 0.000000
# 4 0.000000 0.000000 0.000000 -0.033140 0.000000 0.000000
# 5 0.000000 0.000000 0.000000 0.000000 0.028871 0.000000
# 6 0.000000 0.000000 0.000000 0.000000 0.000000 0.045191
#
#
# Mechanical properties :
#
#
# Convention : Reuss Voigt Hill
#
# Bulk Modulus (GPa) = 86.10290 86.57488 86.33889
# Shear Modulus (GPa) = 24.90065 11.04417 17.97241
#
# Velocity S-wave (km/s) = 3.76230 2.50562 3.19633
# Velocity P-wave (km/s) = 8.23522 7.58846 7.91844
#
# Compressibility (1/GPa) = 0.01161401
#
# Stress axis : x y z
#
# Youngs Moduli (GPa) = 46.65277 38.40527 27.52099
#
# Poissons Ratio (x) = 0.09721 0.41715
# Poissons Ratio (y) = 0.11808 0.50663
# Poissons Ratio (z) = 0.70714 0.70700
#
# Static dielectric constant tensor:
#      x y z
#    x 1.581890 0.000000 0.000000 
#    y 0.000000 1.582630 0.000000 
#    z 0.000000 0.000000 1.581740 
# 
# From -- ./inp_files/35361.got.cif
#   From: 2010.05.17/outbox.cif.g08.bks.cpg/sg63_18_cif.got.tgz:35361.got - 2010.06.03 15:47:04.
