data_PCOD9471780
_publ_section_title
;
Structure prediction by ZEFSAII (Michael W. Deem and Ramdas Pophale) SiO2 
 PCOD9471780
Probable space group: C M C M
;
_chemical_formula_sum "Si O2"
_cell_formula_units_Z 80
_cell_length_a 29.396899
_cell_length_b 9.146425
_cell_length_c 14.742974
_cell_angle_alpha 90.000000
_cell_angle_beta 90.000000
_cell_angle_gamma 90.000000
_cell_volume 3964.039720
_symmetry_space_group_name_H-M "C M C M"
_symmetry_group_IT_number 63
_symmetry_cell_setting 'orthorhombic'
loop_
_space_group_symop_operation_xyz
x,y,z
-x,-y,1/2+z
x,-y,-z
-x,y,1/2-z
-x,-y,-z
x,y,1/2-z
-x,y,z
x,-y,1/2+z
1/2+x,1/2+y,z
1/2-x,1/2-y,1/2+z
1/2+x,1/2-y,-z
1/2-x,1/2+y,1/2-z
1/2-x,1/2-y,-z
1/2+x,1/2+y,1/2-z
1/2-x,1/2+y,z
1/2+x,1/2-y,1/2+z
loop_
_atom_site_type_symbol
_atom_site_label
_atom_site_fract_x
_atom_site_fract_y
_atom_site_fract_z
Si Si1 0.449906 0.929336 0.101069
Si Si2 0.309155 0.652774 0.360545
Si Si3 0.724347 0.970523 0.355604
Si Si4 0.133961 0.598799 0.090636
Si Si5 0.401108 0.653022 0.031342
O O1 0.500000 0.941443 0.142369
O O2 0.434630 0.762750 0.084274
O O3 0.407314 0.017534 0.142879
O O4 0.453242 0.000000 0.000000
O O5 0.312672 0.651950 0.250000
O O6 0.270721 0.538799 0.391599
O O7 0.357577 0.623592 0.405310
O O8 0.292502 0.814331 0.391438
O O9 0.733054 0.944362 0.250000
O O10 0.682757 0.085369 0.363388
O O11 0.139815 0.500000 0.000000
O O12 0.117575 0.755366 0.055468
O O13 0.421592 0.500000 0.000000
#
# Coordination Sequence:
#
# PCOD9471780 Si02
#       5
#    16  16  16  16  16
#     4   8  15  31  53  73  98 128 160 205 252 292
#     4  10  21  35  49  69 100 136 169 200 243 297
#     4  10  20  34  50  69  98 136 169 201 246 296
#     4   9  17  33  49  72  99 126 165 207 246 282
#     4  10  20  32  49  76 102 128 165 205 245 290
#
# _framework density 20.181432999999998
#
# number of rings (size 3 to 8) (size 9 to 14) (size 15 to 20)
#    0.000    3.000    4.000    0.000    2.800    2.000 
#    0.000    0.000    0.000    2.400    0.000    0.000 
#    0.000   11.200    0.000    0.000    0.000    0.000 
#
# Total GULP energy -222881.870254 kJ/mol
# GULP energy per Si atom -5572.046756 kJ/mol
# Density = 2.013550 g / cm^3
# Si number density = 20.181433 Si / 1000 Ang^3
#
#
#
# Elastic Constant Matrix: (Units=GPa)
#
#
# Indices 1 2 3 4 5 6 
#
# 1 106.6641 -5.1228 17.1604 0.0000 0.0000 0.0000
# 2 -5.1228 67.8324 14.4768 0.0000 0.0000 0.0000
# 3 17.1604 14.4768 38.4153 0.0000 0.0000 0.0000
# 4 0.0000 0.0000 0.0000 9.1919 0.0000 0.0000
# 5 0.0000 0.0000 0.0000 0.0000 19.9045 0.0000
# 6 0.0000 0.0000 0.0000 0.0000 0.0000 14.3495
#
#
#
# Elastic Compliance Matrix: (Units=1/GPa)
#
#
# Indices 1 2 3 4 5 6 
#
# 1 0.010326 0.001919 -0.005336 0.000000 0.000000 0.000000
# 2 0.001919 0.016388 -0.007033 0.000000 0.000000 0.000000
# 3 -0.005336 -0.007033 0.031065 0.000000 0.000000 0.000000
# 4 0.000000 0.000000 0.000000 0.108791 0.000000 0.000000
# 5 0.000000 0.000000 0.000000 0.000000 0.050240 0.000000
# 6 0.000000 0.000000 0.000000 0.000000 0.000000 0.069689
#
#
# Mechanical properties :
#
#
# Convention : Reuss Voigt Hill
#
# Bulk Modulus (GPa) = 27.11564 29.54894 28.33229
# Shear Modulus (GPa) = 15.64005 21.11566 18.37785
#
# Velocity S-wave (km/s) = 2.78685 3.23815 3.02094
# Velocity P-wave (km/s) = 4.88062 5.35297 5.12224
#
# Compressibility (1/GPa) = 0.03687909
#
# Stress axis : x y z
#
# Youngs Moduli (GPa) = 96.84500 61.02004 32.19048
#
# Poissons Ratio (x) = -0.11707 0.17176
# Poissons Ratio (y) = -0.18580 0.22639
# Poissons Ratio (z) = 0.51673 0.42915
#
# Static dielectric constant tensor:
#      x y z
#    x 1.759380 0.000000 0.000000 
#    y 0.000000 1.743420 0.000000 
#    z 0.000000 0.000000 1.743320 
# 
# From -- ./inp_files/49405.got.cif
#   From: 2010.05.17/outbox.cif.g08.bks.cpg/sg63_25_cif.got.tgz:49405.got - 2010.06.03 15:47:04.
