data_PCOD9471589
_publ_section_title
;
Structure prediction by ZEFSAII (Michael W. Deem and Ramdas Pophale) SiO2 
 PCOD9471589
Probable space group: C M C M
;
_chemical_formula_sum "Si O2"
_cell_formula_units_Z 116
_cell_length_a 18.431577
_cell_length_b 11.889221
_cell_length_c 28.738684
_cell_angle_alpha 90.000000
_cell_angle_beta 90.000000
_cell_angle_gamma 90.000000
_cell_volume 6297.711649
_symmetry_space_group_name_H-M "C M C M"
_symmetry_group_IT_number 63
_symmetry_cell_setting 'orthorhombic'
loop_
_space_group_symop_operation_xyz
x,y,z
-x,-y,1/2+z
x,-y,-z
-x,y,1/2-z
-x,-y,-z
x,y,1/2-z
-x,y,z
x,-y,1/2+z
1/2+x,1/2+y,z
1/2-x,1/2-y,1/2+z
1/2+x,1/2-y,-z
1/2-x,1/2+y,1/2-z
1/2-x,1/2-y,-z
1/2+x,1/2+y,1/2-z
1/2-x,1/2+y,z
1/2+x,1/2-y,1/2+z
loop_
_atom_site_type_symbol
_atom_site_label
_atom_site_fract_x
_atom_site_fract_y
_atom_site_fract_z
Si Si1 0.415442 0.222909 0.480772
Si Si2 0.863672 0.411579 0.891376
Si Si3 0.000000 0.033387 0.250000
Si Si4 0.344815 0.844367 0.422669
Si Si5 0.807512 0.109756 0.385476
Si Si6 0.086671 0.267721 0.804930
Si Si7 0.309921 0.574384 0.956452
Si Si8 0.144226 0.974925 0.199581
O O1 0.500000 0.248917 0.484806
O O2 0.402396 0.143846 0.435954
O O3 0.386964 0.168104 0.528617
O O4 0.367869 0.334288 0.472157
O O5 0.871040 0.546054 0.894975
O O6 0.778159 0.382745 0.896223
O O7 0.892442 0.360148 0.843050
O O8 0.064509 0.023774 0.210585
O O9 0.345770 0.728251 0.394306
O O10 0.260527 0.866169 0.435329
O O11 0.840098 0.014992 0.419606
O O12 0.815312 0.056727 0.334854
O O13 0.101161 0.293842 0.750000
O O14 0.130191 0.153013 0.816785
O O15 0.000000 0.244942 0.807506
O O16 0.284720 0.500000 0.000000
O O17 0.182022 0.967924 0.250000
#
# Coordination Sequence:
#
# PCOD9471589 Si02
#       8
#    16  16   4  16  16  16  16  16
#     4  12  24  41  62  87 123 163 207 256 296 358
#     4  11  24  37  62  88 119 163 206 243 296 361
#     4   8  16  40  64  92 120 148 202 240 324 352
#     4  11  23  42  58  86 125 166 202 242 306 363
#     4  11  22  38  62  87 120 159 199 252 301 356
#     4  10  19  39  66  91 120 153 198 254 304 352
#     4  11  21  40  65  88 116 159 208 256 306 352
#     4   9  18  37  64  93 116 152 197 247 306 358
#
# _framework density 18.419388000000001
#
# number of rings (size 3 to 8) (size 9 to 14) (size 15 to 20)
#    0.414    0.966    3.448    3.724    1.931    2.483 
#    2.483    0.690    0.000    0.000    0.000    0.000 
#    0.000    0.000    0.000    0.000    0.000    0.000 
#
# Total GULP energy -323059.685844 kJ/mol
# GULP energy per Si atom -5569.994584 kJ/mol
# Density = 1.837746 g / cm^3
# Si number density = 18.419388 Si / 1000 Ang^3
#
#
#
# Elastic Constant Matrix: (Units=GPa)
#
#
# Indices 1 2 3 4 5 6 
#
# 1 37.8675 29.7455 14.0034 0.0000 0.0000 0.0000
# 2 29.7455 102.4744 75.5452 0.0000 0.0000 0.0000
# 3 14.0034 75.5452 94.7018 0.0000 0.0000 0.0000
# 4 0.0000 0.0000 0.0000 29.3190 0.0000 0.0000
# 5 0.0000 0.0000 0.0000 0.0000 19.0711 0.0000
# 6 0.0000 0.0000 0.0000 0.0000 0.0000 15.3207
#
#
#
# Elastic Compliance Matrix: (Units=1/GPa)
#
#
# Indices 1 2 3 4 5 6 
#
# 1 0.036202 -0.015930 0.007355 0.000000 0.000000 0.000000
# 2 -0.015930 0.030701 -0.022135 0.000000 0.000000 0.000000
# 3 0.007355 -0.022135 0.027129 0.000000 0.000000 0.000000
# 4 0.000000 0.000000 0.000000 0.034108 0.000000 0.000000
# 5 0.000000 0.000000 0.000000 0.000000 0.052435 0.000000
# 6 0.000000 0.000000 0.000000 0.000000 0.000000 0.065271
#
#
# Mechanical properties :
#
#
# Convention : Reuss Voigt Hill
#
# Bulk Modulus (GPa) = 30.66472 52.62576 41.64524
# Shear Modulus (GPa) = 15.71652 20.45880 18.08766
#
# Velocity S-wave (km/s) = 2.92423 3.33636 3.13707
# Velocity P-wave (km/s) = 5.29959 6.59353 5.98165
#
# Compressibility (1/GPa) = 0.03261077
#
# Stress axis : x y z
#
# Youngs Moduli (GPa) = 27.62310 32.57255 36.86063
#
# Poissons Ratio (x) = 0.51889 -0.27110
# Poissons Ratio (y) = 0.44005 0.81590
# Poissons Ratio (z) = -0.20316 0.72099
#
# Static dielectric constant tensor:
#      x y z
#    x 1.613500 0.000000 0.000000 
#    y 0.000000 1.644230 0.000000 
#    z 0.000000 0.000000 1.714420 
# 
# From -- ./inp_files/73920.got.cif
#   From: 2010.05.17/outbox.cif.g08.bks.cpg/sg63_37_cif.got.tgz:73920.got - 2010.06.03 15:47:04.
