data_PCOD9471026
_publ_section_title
;
Structure prediction by ZEFSAII (Michael W. Deem and Ramdas Pophale) SiO2 
 PCOD9471026
Probable space group: C M C M
;
_chemical_formula_sum "Si O2"
_cell_formula_units_Z 116
_cell_length_a 7.616012
_cell_length_b 25.795842
_cell_length_c 31.130937
_cell_angle_alpha 90.000000
_cell_angle_beta 90.000000
_cell_angle_gamma 90.000000
_cell_volume 6116.028781
_symmetry_space_group_name_H-M "C M C M"
_symmetry_group_IT_number 63
_symmetry_cell_setting 'orthorhombic'
loop_
_space_group_symop_operation_xyz
x,y,z
-x,-y,1/2+z
x,-y,-z
-x,y,1/2-z
-x,-y,-z
x,y,1/2-z
-x,y,z
x,-y,1/2+z
1/2+x,1/2+y,z
1/2-x,1/2-y,1/2+z
1/2+x,1/2-y,-z
1/2-x,1/2+y,1/2-z
1/2-x,1/2-y,-z
1/2+x,1/2+y,1/2-z
1/2-x,1/2+y,z
1/2+x,1/2-y,1/2+z
loop_
_atom_site_type_symbol
_atom_site_label
_atom_site_fract_x
_atom_site_fract_y
_atom_site_fract_z
Si Si1 0.212472 0.336232 0.546704
Si Si2 0.795218 0.125950 0.547996
Si Si3 0.000000 0.773528 0.250000
Si Si4 0.713565 0.731979 0.588339
Si Si5 0.793534 0.762643 0.685092
Si Si6 0.289466 0.076379 0.112349
Si Si7 0.790788 0.118179 0.297383
Si Si8 0.204492 0.509451 0.547508
O O1 0.276161 0.359975 0.502182
O O2 0.269204 0.277443 0.555582
O O3 0.270803 0.372653 0.586203
O O4 0.000000 0.337274 0.545441
O O5 0.724088 0.175486 0.573701
O O6 0.713003 0.070234 0.556995
O O7 0.000000 0.120705 0.558232
O O8 0.156394 0.770030 0.287114
O O9 0.500000 0.731563 0.588327
O O10 0.776055 0.747699 0.635396
O O11 0.735597 0.822759 0.692053
O O12 0.000000 0.758100 0.697525
O O13 0.500000 0.076392 0.110628
O O14 0.247878 0.081509 0.162425
O O15 0.222672 0.026911 0.085340
O O16 0.721186 0.103756 0.250000
O O17 0.000000 0.119970 0.294503
O O18 0.283918 0.500000 0.500000
O O19 0.000000 0.494026 0.543808
#
# Coordination Sequence:
#
# PCOD9471026 Si02
#       8
#    16  16   4  16  16  16  16  16
#     4  10  19  34  55  77 112 156 190 229 287 344
#     4  11  23  35  53  82 113 151 197 241 289 344
#     4  12  22  36  60  82 124 160 186 256 284 346
#     4  10  21  37  54  80 118 156 192 236 294 355
#     4  11  22  35  57  88 118 157 197 233 295 360
#     4  10  20  33  57  83 106 147 194 233 289 349
#     4  10  21  35  52  83 118 146 183 233 289 356
#     4  10  20  38  57  77 107 148 197 240 284 345
#
# _framework density 18.966553999999999
#
# number of rings (size 3 to 8) (size 9 to 14) (size 15 to 20)
#    0.000    1.655    4.138    1.034    0.966    3.310 
#    0.000    0.000    0.000    0.000    1.793    0.000 
#    0.000    0.000    0.000    0.000    0.000    0.000 
#
# Total GULP energy -323215.228947 kJ/mol
# GULP energy per Si atom -5572.676361 kJ/mol
# Density = 1.892339 g / cm^3
# Si number density = 18.966554 Si / 1000 Ang^3
#
#
#
# Elastic Constant Matrix: (Units=GPa)
#
#
# Indices 1 2 3 4 5 6 
#
# 1 53.9408 0.8639 2.5968 0.0000 0.0000 0.0000
# 2 0.8639 100.0936 54.0688 0.0000 0.0000 0.0000
# 3 2.5968 54.0688 132.9953 0.0000 0.0000 0.0000
# 4 0.0000 0.0000 0.0000 -5.2531 0.0000 0.0000
# 5 0.0000 0.0000 0.0000 0.0000 21.0870 0.0000
# 6 0.0000 0.0000 0.0000 0.0000 0.0000 14.2280
#
#
#
# Elastic Compliance Matrix: (Units=1/GPa)
#
#
# Indices 1 2 3 4 5 6 
#
# 1 0.018556 0.000046 -0.000381 0.000000 0.000000 0.000000
# 2 0.000046 0.012802 -0.005206 0.000000 0.000000 0.000000
# 3 -0.000381 -0.005206 0.009643 0.000000 0.000000 0.000000
# 4 0.000000 0.000000 0.000000 -0.190362 0.000000 0.000000
# 5 0.000000 0.000000 0.000000 0.000000 0.047423 0.000000
# 6 0.000000 0.000000 0.000000 0.000000 0.000000 0.070284
#
#
# Mechanical properties :
#
#
# Convention : Reuss Voigt Hill
#
# Bulk Modulus (GPa) = 33.42276 44.67653 39.04965
# Shear Modulus (GPa) = -471.72095 21.31240 -225.20428
#
# Velocity S-wave (km/s) = -15.78771 3.35577 -10.90850
# Velocity P-wave (km/s) = 17.73910 6.21462 11.74849
#
# Compressibility (1/GPa) = 0.02991973
#
# Stress axis : x y z
#
# Youngs Moduli (GPa) = 53.88967 78.11146 103.70417
#
# Poissons Ratio (x) = -0.00356 0.03950
# Poissons Ratio (y) = -0.00246 0.53984
# Poissons Ratio (z) = 0.02052 0.40662
#
# Static dielectric constant tensor:
#      x y z
#    x 1.704250 0.000000 0.000000 
#    y 0.000000 1.655330 0.000000 
#    z 0.000000 0.000000 1.672210 
# 
# From -- ./inp_files/72215.got.cif
#   From: 2010.05.17/outbox.cif.g08.bks.cpg/sg63_37_cif.got.tgz:72215.got - 2010.06.03 15:47:04.
