data_PCOD9471642
_publ_section_title
;
Structure prediction by ZEFSAII (Michael W. Deem and Ramdas Pophale) SiO2 
 PCOD9471642
Probable space group: C M C M
;
_chemical_formula_sum "Si O2"
_cell_formula_units_Z 56
_cell_length_a 7.986975
_cell_length_b 42.331849
_cell_length_c 7.621150
_cell_angle_alpha 90.000000
_cell_angle_beta 90.000000
_cell_angle_gamma 90.000000
_cell_volume 2576.736877
_symmetry_space_group_name_H-M "C M C M"
_symmetry_group_IT_number 63
_symmetry_cell_setting 'orthorhombic'
loop_
_space_group_symop_operation_xyz
x,y,z
-x,-y,1/2+z
x,-y,-z
-x,y,1/2-z
-x,-y,-z
x,y,1/2-z
-x,y,z
x,-y,1/2+z
1/2+x,1/2+y,z
1/2-x,1/2-y,1/2+z
1/2+x,1/2-y,-z
1/2-x,1/2+y,1/2-z
1/2-x,1/2-y,-z
1/2+x,1/2+y,1/2-z
1/2-x,1/2+y,z
1/2+x,1/2-y,1/2+z
loop_
_atom_site_type_symbol
_atom_site_label
_atom_site_fract_x
_atom_site_fract_y
_atom_site_fract_z
Si Si1 0.700705 0.350932 0.049378
Si Si2 0.193367 0.079667 0.965387
Si Si3 0.800707 0.715022 0.945029
Si Si4 0.000000 0.463083 0.039727
O O1 0.770180 0.350561 0.250000
O O2 0.500000 0.351744 0.058718
O O3 0.747259 0.385094 0.974280
O O4 0.747750 0.317568 0.962390
O O5 0.191420 0.080527 0.750000
O O6 0.330957 0.054358 0.023181
O O7 0.000000 0.073496 0.018609
O O8 0.726677 0.712201 0.750000
O O9 0.000000 0.714614 0.940858
O O10 0.750000 0.750000 0.000000
O O11 0.000000 0.459480 0.250000
O O12 0.000000 0.500000 0.000000
#
# Coordination Sequence:
#
# PCOD9471642 Si02
#       4
#    16  16  16   8
#     4   8  14  26  45  68  92 118 153 200 242 275
#     4   8  15  28  47  72  98 124 158 199 242 283
#     4  10  20  31  46  69  96 127 161 198 243 292
#     4  10  20  32  50  74 100 128 158 198 240 288
#
# _framework density 21.732913
#
# number of rings (size 3 to 8) (size 9 to 14) (size 15 to 20)
#    0.000    3.143    0.000    2.571    2.000    2.286 
#    0.000    0.000    0.000    1.714    0.000    4.000 
#    0.000    0.000    0.000    0.000    0.000    0.000 
#
# Total GULP energy -155940.323396 kJ/mol
# GULP energy per Si atom -5569.297264 kJ/mol
# Density = 2.168345 g / cm^3
# Si number density = 21.732913 Si / 1000 Ang^3
#
#
#
# Elastic Constant Matrix: (Units=GPa)
#
#
# Indices 1 2 3 4 5 6 
#
# 1 93.2739 102.3453 4.5265 0.0000 0.0000 0.0000
# 2 102.3453 260.2379 10.7838 0.0000 0.0000 0.0000
# 3 4.5265 10.7838 36.8193 0.0000 0.0000 0.0000
# 4 0.0000 0.0000 0.0000 16.2165 0.0000 0.0000
# 5 0.0000 0.0000 0.0000 0.0000 0.6466 0.0000
# 6 0.0000 0.0000 0.0000 0.0000 0.0000 48.1544
#
#
#
# Elastic Compliance Matrix: (Units=1/GPa)
#
#
# Indices 1 2 3 4 5 6 
#
# 1 0.018860 -0.007411 -0.000148 0.000000 0.000000 0.000000
# 2 -0.007411 0.006802 -0.001081 0.000000 0.000000 0.000000
# 3 -0.000148 -0.001081 0.027494 0.000000 0.000000 0.000000
# 4 0.000000 0.000000 0.000000 0.061666 0.000000 0.000000
# 5 0.000000 0.000000 0.000000 0.000000 1.546614 0.000000
# 6 0.000000 0.000000 0.000000 0.000000 0.000000 0.020767
#
#
# Mechanical properties :
#
#
# Convention : Reuss Voigt Hill
#
# Bulk Modulus (GPa) = 27.87362 69.51581 48.69471
# Shear Modulus (GPa) = 2.92151 31.18187 17.05169
#
# Velocity S-wave (km/s) = 1.16069 3.79195 2.80411
# Velocity P-wave (km/s) = 3.82748 7.15736 5.73922
#
# Compressibility (1/GPa) = 0.03587622
#
# Stress axis : x y z
#
# Youngs Moduli (GPa) = 53.02175 147.01447 36.37091
#
# Poissons Ratio (x) = 1.08954 0.00538
# Poissons Ratio (y) = 0.39295 0.03932
# Poissons Ratio (z) = 0.00785 0.15894
#
# Static dielectric constant tensor:
#      x y z
#    x 1.741850 0.000000 0.000000 
#    y 0.000000 1.856300 0.000000 
#    z 0.000000 0.000000 1.976060 
# 
# From -- ./inp_files/16097.got.cif
#   From: 2010.05.17/outbox.cif.g08.bks.cpg/sg63_9_cif.got.tgz:16097.got - 2010.06.03 15:47:04.
