data_PCOD9471360
_publ_section_title
;
Structure prediction by ZEFSAII (Michael W. Deem and Ramdas Pophale) SiO2 
 PCOD9471360
Probable space group: C M C M
;
_chemical_formula_sum "Si O2"
_cell_formula_units_Z 84
_cell_length_a 19.334738
_cell_length_b 14.913414
_cell_length_c 14.736711
_cell_angle_alpha 90.000000
_cell_angle_beta 90.000000
_cell_angle_gamma 90.000000
_cell_volume 4249.285705
_symmetry_space_group_name_H-M "C M C M"
_symmetry_group_IT_number 63
_symmetry_cell_setting 'orthorhombic'
loop_
_space_group_symop_operation_xyz
x,y,z
-x,-y,1/2+z
x,-y,-z
-x,y,1/2-z
-x,-y,-z
x,y,1/2-z
-x,y,z
x,-y,1/2+z
1/2+x,1/2+y,z
1/2-x,1/2-y,1/2+z
1/2+x,1/2-y,-z
1/2-x,1/2+y,1/2-z
1/2-x,1/2-y,-z
1/2+x,1/2+y,1/2-z
1/2-x,1/2+y,z
1/2+x,1/2-y,1/2+z
loop_
_atom_site_type_symbol
_atom_site_label
_atom_site_fract_x
_atom_site_fract_y
_atom_site_fract_z
Si Si1 0.925100 0.417821 0.430129
Si Si2 0.762230 0.817108 0.854177
Si Si3 0.500000 0.198511 0.250000
Si Si4 0.843448 0.094247 0.985630
Si Si5 0.608626 0.218565 0.084013
Si Si6 0.220273 0.396853 0.350561
O O1 0.924862 0.500000 0.500000
O O2 0.917533 0.330202 0.493292
O O3 0.857572 0.427580 0.369097
O O4 0.000000 0.417133 0.382701
O O5 0.763463 0.847654 0.750000
O O6 0.684882 0.820975 0.894619
O O7 0.780129 0.711362 0.855588
O O8 0.814999 0.867021 0.919772
O O9 0.559942 0.200819 0.169431
O O10 0.882929 0.175205 0.935500
O O11 0.775754 0.072673 0.924304
O O12 0.881545 0.000000 0.000000
O O13 0.242929 0.423317 0.250000
#
# Coordination Sequence:
#
# PCOD9471360 Si02
#       6
#    16  16   4  16  16  16
#     4  11  22  38  58  83 119 161 200 242 303 365
#     4  10  19  35  61  89 118 151 199 249 303 356
#     4  12  24  40  68  88 118 166 214 256 296 360
#     4  11  22  38  61  92 124 157 199 254 310 361
#     4  11  21  40  61  88 121 158 204 252 301 363
#     4  10  20  36  58  86 120 156 194 244 302 357
#
# _framework density 19.768027
#
# number of rings (size 3 to 8) (size 9 to 14) (size 15 to 20)
#    0.000    1.333    5.714    1.714    1.333    1.143 
#    1.714    0.476    0.000    0.000    0.000    0.000 
#    0.000    0.000    0.000    0.000    0.000    0.000 
#
# Total GULP energy -234106.442041 kJ/mol
# GULP energy per Si atom -5573.962906 kJ/mol
# Density = 1.972303 g / cm^3
# Si number density = 19.768027 Si / 1000 Ang^3
#
#
#
# Elastic Constant Matrix: (Units=GPa)
#
#
# Indices 1 2 3 4 5 6 
#
# 1 43.6172 -7.2353 -19.0048 0.0000 0.0000 0.0000
# 2 -7.2353 52.1995 -3.2200 0.0000 0.0000 0.0000
# 3 -19.0048 -3.2200 63.9494 0.0000 0.0000 0.0000
# 4 0.0000 0.0000 0.0000 6.5446 0.0000 0.0000
# 5 0.0000 0.0000 0.0000 0.0000 67.7386 0.0000
# 6 0.0000 0.0000 0.0000 0.0000 0.0000 -15.9409
#
#
#
# Elastic Compliance Matrix: (Units=1/GPa)
#
#
# Indices 1 2 3 4 5 6 
#
# 1 0.027263 0.004292 0.008318 0.000000 0.000000 0.000000
# 2 0.004292 0.019893 0.002277 0.000000 0.000000 0.000000
# 3 0.008318 0.002277 0.018224 0.000000 0.000000 0.000000
# 4 0.000000 0.000000 0.000000 0.152799 0.000000 0.000000
# 5 0.000000 0.000000 0.000000 0.000000 0.014763 0.000000
# 6 0.000000 0.000000 0.000000 0.000000 0.000000 -0.062732
#
#
# Mechanical properties :
#
#
# Convention : Reuss Voigt Hill
#
# Bulk Modulus (GPa) = 10.50921 11.20513 10.85717
# Shear Modulus (GPa) = 29.04397 24.28353 26.66375
#
# Velocity S-wave (km/s) = 3.83722 3.50869 3.67663
# Velocity P-wave (km/s) = 4.99602 4.70055 4.85053
#
# Compressibility (1/GPa) = 0.09515465
#
# Stress axis : x y z
#
# Youngs Moduli (GPa) = 36.67963 50.26981 54.87249
#
# Poissons Ratio (x) = -0.21576 -0.45644
# Poissons Ratio (y) = -0.15743 -0.12495
# Poissons Ratio (z) = -0.30511 -0.11447
#
# Static dielectric constant tensor:
#      x y z
#    x 1.699850 0.000000 0.000000 
#    y 0.000000 1.743430 0.000000 
#    z 0.000000 0.000000 1.686940 
# 
# From -- ./inp_files/35186.got.cif
#   From: 2010.05.17/outbox.cif.g08.bks.cpg/sg63_18_cif.got.tgz:35186.got - 2010.06.03 15:47:04.
