data_PCOD9471773
_publ_section_title
;
Structure prediction by ZEFSAII (Michael W. Deem and Ramdas Pophale) SiO2 
 PCOD9471773
Probable space group: C M C M
;
_chemical_formula_sum "Si O2"
_cell_formula_units_Z 88
_cell_length_a 19.523336
_cell_length_b 28.050350
_cell_length_c 9.268022
_cell_angle_alpha 90.000000
_cell_angle_beta 90.000000
_cell_angle_gamma 90.000000
_cell_volume 5075.506277
_symmetry_space_group_name_H-M "C M C M"
_symmetry_group_IT_number 63
_symmetry_cell_setting 'orthorhombic'
loop_
_space_group_symop_operation_xyz
x,y,z
-x,-y,1/2+z
x,-y,-z
-x,y,1/2-z
-x,-y,-z
x,y,1/2-z
-x,y,z
x,-y,1/2+z
1/2+x,1/2+y,z
1/2-x,1/2-y,1/2+z
1/2+x,1/2-y,-z
1/2-x,1/2+y,1/2-z
1/2-x,1/2-y,-z
1/2+x,1/2+y,1/2-z
1/2-x,1/2+y,z
1/2+x,1/2-y,1/2+z
loop_
_atom_site_type_symbol
_atom_site_label
_atom_site_fract_x
_atom_site_fract_y
_atom_site_fract_z
Si Si1 0.679661 0.152784 0.074861
Si Si2 0.321303 0.695262 0.416265
Si Si3 0.921200 0.732401 0.076140
Si Si4 0.000000 0.949800 0.419671
Si Si5 0.373714 0.587007 0.413130
Si Si6 0.722839 0.048599 0.421985
O O1 0.686440 0.151032 0.250000
O O2 0.744380 0.185259 0.026284
O O3 0.610424 0.180560 0.039351
O O4 0.687251 0.097989 0.026849
O O5 0.317053 0.712420 0.250000
O O6 0.370020 0.729291 0.507136
O O7 0.353710 0.642423 0.413621
O O8 0.919192 0.737020 0.250000
O O9 0.000000 0.738064 0.029316
O O10 0.067521 0.922978 0.473643
O O11 0.000000 0.955797 0.250000
O O12 0.000000 0.000000 0.500000
O O13 0.396842 0.574507 0.250000
O O14 0.304103 0.558067 0.443594
O O15 0.711810 0.044069 0.250000
O O16 0.702141 0.000000 0.500000
#
# Coordination Sequence:
#
# PCOD9471773 Si02
#       6
#    16  16  16   8  16  16
#     4   8  16  33  52  71  98 132 165 197 240 296
#     4   9  18  33  53  72  94 130 168 202 241 287
#     4  10  20  32  49  74 103 131 162 202 245 291
#     4  12  24  34  46  64  92 130 166 202 245 290
#     4   9  19  34  49  67  93 125 162 201 243 292
#     4   9  17  31  52  73  93 120 159 203 245 290
#
# _framework density 17.338173000000001
#
# number of rings (size 3 to 8) (size 9 to 14) (size 15 to 20)
#    0.000    2.727    0.000    4.091    1.273    3.273 
#    0.000    3.636    0.000    0.545    0.000    0.000 
#    0.000    0.000    0.000    0.000    0.000    0.000 
#
# Total GULP energy -245244.102811 kJ/mol
# GULP energy per Si atom -5573.729609 kJ/mol
# Density = 1.729871 g / cm^3
# Si number density = 17.338173 Si / 1000 Ang^3
#
#
#
# Elastic Constant Matrix: (Units=GPa)
#
#
# Indices 1 2 3 4 5 6 
#
# 1 60.2085 41.4080 18.4061 0.0000 0.0000 0.0000
# 2 41.4080 92.7489 15.4282 0.0000 0.0000 0.0000
# 3 18.4061 15.4282 30.3803 0.0000 0.0000 0.0000
# 4 0.0000 0.0000 0.0000 25.4021 0.0000 0.0000
# 5 0.0000 0.0000 0.0000 0.0000 14.7193 0.0000
# 6 0.0000 0.0000 0.0000 0.0000 0.0000 6.3323
#
#
#
# Elastic Compliance Matrix: (Units=1/GPa)
#
#
# Indices 1 2 3 4 5 6 
#
# 1 0.027062 -0.010218 -0.011207 0.000000 0.000000 0.000000
# 2 -0.010218 0.015635 -0.001749 0.000000 0.000000 0.000000
# 3 -0.011207 -0.001749 0.040594 0.000000 0.000000 0.000000
# 4 0.000000 0.000000 0.000000 0.039367 0.000000 0.000000
# 5 0.000000 0.000000 0.000000 0.000000 0.067938 0.000000
# 6 0.000000 0.000000 0.000000 0.000000 0.000000 0.157920
#
#
# Mechanical properties :
#
#
# Convention : Reuss Voigt Hill
#
# Bulk Modulus (GPa) = 27.06870 37.09136 32.08003
# Shear Modulus (GPa) = 12.27966 16.49711 14.38838
#
# Velocity S-wave (km/s) = 2.66417 3.08797 2.88387
# Velocity P-wave (km/s) = 5.01097 5.84409 5.44349
#
# Compressibility (1/GPa) = 0.03694304
#
# Stress axis : x y z
#
# Youngs Moduli (GPa) = 36.95193 63.96098 24.63413
#
# Poissons Ratio (x) = 0.65354 0.27607
# Poissons Ratio (y) = 0.37757 0.04309
# Poissons Ratio (z) = 0.41412 0.11188
#
# Static dielectric constant tensor:
#      x y z
#    x 1.567070 0.000000 0.000000 
#    y 0.000000 1.602420 0.000000 
#    z 0.000000 0.000000 1.588650 
# 
# From -- ./inp_files/6839.got.cif
#   From: 2010.05.17/outbox.cif.g08.bks.cpg/sg63_4_cif.got.tgz:6839.got - 2010.06.03 15:47:04.
