data_PCOD9471168
_publ_section_title
;
Structure prediction by ZEFSAII (Michael W. Deem and Ramdas Pophale) SiO2 
 PCOD9471168
Probable space group: C M C M
;
_chemical_formula_sum "Si O2"
_cell_formula_units_Z 116
_cell_length_a 24.045122
_cell_length_b 13.789439
_cell_length_c 17.596415
_cell_angle_alpha 90.000000
_cell_angle_beta 90.000000
_cell_angle_gamma 90.000000
_cell_volume 5834.421204
_symmetry_space_group_name_H-M "C M C M"
_symmetry_group_IT_number 63
_symmetry_cell_setting 'orthorhombic'
loop_
_space_group_symop_operation_xyz
x,y,z
-x,-y,1/2+z
x,-y,-z
-x,y,1/2-z
-x,-y,-z
x,y,1/2-z
-x,y,z
x,-y,1/2+z
1/2+x,1/2+y,z
1/2-x,1/2-y,1/2+z
1/2+x,1/2-y,-z
1/2-x,1/2+y,1/2-z
1/2-x,1/2-y,-z
1/2+x,1/2+y,1/2-z
1/2-x,1/2+y,z
1/2+x,1/2-y,1/2+z
loop_
_atom_site_type_symbol
_atom_site_label
_atom_site_fract_x
_atom_site_fract_y
_atom_site_fract_z
Si Si1 0.199314 0.515142 0.659831
Si Si2 0.434669 0.777954 0.476924
Si Si3 0.774295 0.855481 0.604045
Si Si4 0.675332 0.278073 0.163624
Si Si5 0.500000 0.934401 0.750000
Si Si6 0.405309 0.109307 0.374125
Si Si7 0.147444 0.891378 0.027424
Si Si8 0.856165 0.710751 0.836140
O O1 0.198228 0.492768 0.750000
O O2 0.252310 0.461739 0.625268
O O3 0.144917 0.466942 0.622582
O O4 0.191244 0.629276 0.650111
O O5 0.500000 0.762432 0.466481
O O6 0.425564 0.858730 0.542354
O O7 0.402678 0.681108 0.505304
O O8 0.403905 0.803342 0.398233
O O9 0.722551 0.785427 0.621659
O O10 0.798177 0.856461 0.519425
O O11 0.825693 0.813630 0.652736
O O12 0.692080 0.297691 0.250000
O O13 0.621953 0.206974 0.161369
O O14 0.659961 0.372285 0.115397
O O15 0.548269 0.929124 0.817183
O O16 0.135901 0.000000 0.000000
O O17 0.876262 0.698472 0.750000
#
# Coordination Sequence:
#
# PCOD9471168 Si02
#       8
#    16  16  16  16   4  16  16  16
#     4  10  20  37  57  88 123 153 197 248 299 361
#     4  10  22  41  61  82 118 159 204 252 302 361
#     4  10  20  38  60  84 120 157 196 245 303 360
#     4  10  19  36  58  85 118 153 193 242 306 367
#     4  12  16  32  64  86 116 144 198 252 308 354
#     4  10  19  34  58  89 113 148 189 248 308 360
#     4  10  23  39  58  89 118 153 206 253 305 360
#     4  10  22  39  59  87 118 162 206 242 299 363
#
# _framework density 19.882006000000001
#
# number of rings (size 3 to 8) (size 9 to 14) (size 15 to 20)
#    0.000    1.931    2.069    2.483    1.931    2.207 
#    1.241    4.138    0.000    0.000    0.000    0.000 
#    0.000    0.000    0.000    0.000    0.000    0.000 
#
# Total GULP energy -323324.001737 kJ/mol
# GULP energy per Si atom -5574.551754 kJ/mol
# Density = 1.983675 g / cm^3
# Si number density = 19.882006 Si / 1000 Ang^3
#
#
#
# Elastic Constant Matrix: (Units=GPa)
#
#
# Indices 1 2 3 4 5 6 
#
# 1 95.0720 14.8805 35.0476 0.0000 0.0000 0.0000
# 2 14.8805 60.6240 23.1257 0.0000 0.0000 0.0000
# 3 35.0476 23.1257 99.9129 0.0000 0.0000 0.0000
# 4 0.0000 0.0000 0.0000 15.1009 0.0000 0.0000
# 5 0.0000 0.0000 0.0000 0.0000 20.9810 0.0000
# 6 0.0000 0.0000 0.0000 0.0000 0.0000 5.1580
#
#
#
# Elastic Compliance Matrix: (Units=1/GPa)
#
#
# Indices 1 2 3 4 5 6 
#
# 1 0.012203 -0.001494 -0.003935 0.000000 0.000000 0.000000
# 2 -0.001494 0.018276 -0.003706 0.000000 0.000000 0.000000
# 3 -0.003935 -0.003706 0.012247 0.000000 0.000000 0.000000
# 4 0.000000 0.000000 0.000000 0.066221 0.000000 0.000000
# 5 0.000000 0.000000 0.000000 0.000000 0.047662 0.000000
# 6 0.000000 0.000000 0.000000 0.000000 0.000000 0.193875
#
#
# Mechanical properties :
#
#
# Convention : Reuss Voigt Hill
#
# Bulk Modulus (GPa) = 40.89085 44.63514 42.76300
# Shear Modulus (GPa) = 13.26597 20.41832 16.84214
#
# Velocity S-wave (km/s) = 2.58589 3.20812 2.91366
# Velocity P-wave (km/s) = 5.43389 6.01843 5.73361
#
# Compressibility (1/GPa) = 0.02445535
#
# Stress axis : x y z
#
# Youngs Moduli (GPa) = 81.94907 54.71798 81.65490
#
# Poissons Ratio (x) = 0.08177 0.32128
# Poissons Ratio (y) = 0.12246 0.30260
# Poissons Ratio (z) = 0.32244 0.20278
#
# Static dielectric constant tensor:
#      x y z
#    x 1.688360 0.000000 0.000000 
#    y 0.000000 1.730140 0.000000 
#    z 0.000000 0.000000 1.708530 
# 
# From -- ./inp_files/48280.got.cif
#   From: 2010.05.17/outbox.cif.g08.bks.cpg/sg63_25_cif.got.tgz:48280.got - 2010.06.03 15:47:04.
