data_PCOD9471181
_publ_section_title
;
Structure prediction by ZEFSAII (Michael W. Deem and Ramdas Pophale) SiO2 
 PCOD9471181
Probable space group: C M C M
;
_chemical_formula_sum "Si O2"
_cell_formula_units_Z 104
_cell_length_a 17.319188
_cell_length_b 15.707740
_cell_length_c 20.395550
_cell_angle_alpha 90.000000
_cell_angle_beta 90.000000
_cell_angle_gamma 90.000000
_cell_volume 5548.513562
_symmetry_space_group_name_H-M "C M C M"
_symmetry_group_IT_number 63
_symmetry_cell_setting 'orthorhombic'
loop_
_space_group_symop_operation_xyz
x,y,z
-x,-y,1/2+z
x,-y,-z
-x,y,1/2-z
-x,-y,-z
x,y,1/2-z
-x,y,z
x,-y,1/2+z
1/2+x,1/2+y,z
1/2-x,1/2-y,1/2+z
1/2+x,1/2-y,-z
1/2-x,1/2+y,1/2-z
1/2-x,1/2-y,-z
1/2+x,1/2+y,1/2-z
1/2-x,1/2+y,z
1/2+x,1/2-y,1/2+z
loop_
_atom_site_type_symbol
_atom_site_label
_atom_site_fract_x
_atom_site_fract_y
_atom_site_fract_z
Si Si1 0.295323 0.000000 0.000000
Si Si2 0.668772 0.263904 0.960521
Si Si3 0.171324 0.364576 0.821801
Si Si4 0.220533 0.301204 0.176670
Si Si5 0.716815 0.481239 0.137028
Si Si6 0.413480 0.859512 0.953811
Si Si7 0.589285 0.557892 0.434407
O O1 0.350549 0.077676 0.016520
O O2 0.245824 0.974738 0.062225
O O3 0.671674 0.214817 0.890229
O O4 0.645845 0.361200 0.945809
O O5 0.750000 0.250000 0.000000
O O6 0.603682 0.228267 0.009302
O O7 0.137004 0.373987 0.750000
O O8 0.220435 0.277852 0.825304
O O9 0.230855 0.442928 0.833172
O O10 0.107454 0.358718 0.877614
O O11 0.183144 0.299078 0.250000
O O12 0.264217 0.391407 0.169978
O O13 0.627968 0.507995 0.127003
O O14 0.500000 0.888107 0.965259
O O15 0.588854 0.500000 0.500000
O O16 0.500000 0.582767 0.422019
#
# Coordination Sequence:
#
# PCOD9471181 Si02
#       7
#     8  16  16  16  16  16  16
#     4  10  19  34  59  86 114 148 198 252 289 358
#     4  12  20  40  62  89 118 157 211 259 301 367
#     4  10  22  38  58  87 117 154 205 251 301 371
#     4  11  22  37  63  90 117 154 210 262 301 360
#     4  11  19  37  62  86 119 159 207 253 308 360
#     4  11  22  35  58  87 117 151 188 247 313 360
#     4  11  23  36  57  93 132 162 199 260 325 373
#
# _framework density 18.743758
#
# number of rings (size 3 to 8) (size 9 to 14) (size 15 to 20)
#    0.000    1.077    5.385    3.000    0.000    0.308 
#    0.000    0.000    0.000    6.462    0.000    0.000 
#    0.000    0.000    0.000    0.000    0.000    0.000 
#
# Total GULP energy -290023.296421 kJ/mol
# GULP energy per Si atom -5577.371085 kJ/mol
# Density = 1.870110 g / cm^3
# Si number density = 18.743758 Si / 1000 Ang^3
#
#
#
# Elastic Constant Matrix: (Units=GPa)
#
#
# Indices 1 2 3 4 5 6 
#
# 1 79.7232 10.8404 21.0986 0.0000 0.0000 0.0000
# 2 10.8404 105.2286 18.2733 0.0000 0.0000 0.0000
# 3 21.0986 18.2733 111.2993 0.0000 0.0000 0.0000
# 4 0.0000 0.0000 0.0000 -10.2120 0.0000 0.0000
# 5 0.0000 0.0000 0.0000 0.0000 -50.2690 0.0000
# 6 0.0000 0.0000 0.0000 0.0000 0.0000 -34.4800
#
#
#
# Elastic Compliance Matrix: (Units=1/GPa)
#
#
# Indices 1 2 3 4 5 6 
#
# 1 0.013299 -0.000960 -0.002364 0.000000 0.000000 0.000000
# 2 -0.000960 0.009851 -0.001435 0.000000 0.000000 0.000000
# 3 -0.002364 -0.001435 0.009669 0.000000 0.000000 0.000000
# 4 0.000000 0.000000 0.000000 -0.097924 0.000000 0.000000
# 5 0.000000 0.000000 0.000000 0.000000 -0.019893 0.000000
# 6 0.000000 0.000000 0.000000 0.000000 0.000000 -0.029002
#
#
# Mechanical properties :
#
#
# Convention : Reuss Voigt Hill
#
# Bulk Modulus (GPa) = 42.91513 44.07509 43.49511
# Shear Modulus (GPa) = -51.69797 -2.58961 -27.14379
#
# Velocity S-wave (km/s) = -5.25750 -1.17668 -3.80959
# Velocity P-wave (km/s) = 3.72957 4.66042 1.97608
#
# Compressibility (1/GPa) = 0.02330181
#
# Stress axis : x y z
#
# Youngs Moduli (GPa) = 75.19138 101.50996 103.42853
#
# Poissons Ratio (x) = 0.09741 0.24446
# Poissons Ratio (y) = 0.07216 0.14847
# Poissons Ratio (z) = 0.17772 0.14572
#
# Static dielectric constant tensor:
#      x y z
#    x 1.632110 0.000000 0.000000 
#    y 0.000000 1.719980 0.000000 
#    z 0.000000 0.000000 1.677210 
# 
# From -- ./inp_files/55623.got.cif
#   From: 2010.05.17/outbox.cif.g08.bks.cpg/sg63_28_cif.got.tgz:55623.got - 2010.06.03 15:47:04.
