data_PCOD9471802
_publ_section_title
;
Structure prediction by ZEFSAII (Michael W. Deem and Ramdas Pophale) SiO2 
 PCOD9471802
Probable space group: C M C M
;
_chemical_formula_sum "Si O2"
_cell_formula_units_Z 92
_cell_length_a 8.413794
_cell_length_b 28.200552
_cell_length_c 15.979765
_cell_angle_alpha 90.000000
_cell_angle_beta 90.000000
_cell_angle_gamma 90.000000
_cell_volume 3791.576931
_symmetry_space_group_name_H-M "C M C M"
_symmetry_group_IT_number 63
_symmetry_cell_setting 'orthorhombic'
loop_
_space_group_symop_operation_xyz
x,y,z
-x,-y,1/2+z
x,-y,-z
-x,y,1/2-z
-x,-y,-z
x,y,1/2-z
-x,y,z
x,-y,1/2+z
1/2+x,1/2+y,z
1/2-x,1/2-y,1/2+z
1/2+x,1/2-y,-z
1/2-x,1/2+y,1/2-z
1/2-x,1/2-y,-z
1/2+x,1/2+y,1/2-z
1/2-x,1/2+y,z
1/2+x,1/2-y,1/2+z
loop_
_atom_site_type_symbol
_atom_site_label
_atom_site_fract_x
_atom_site_fract_y
_atom_site_fract_z
Si Si1 0.819677 0.981370 0.404970
Si Si2 0.679912 0.321244 0.575314
Si Si3 0.000000 0.362979 0.568269
Si Si4 0.000000 0.524702 0.091883
Si Si5 0.000000 0.625179 0.250000
Si Si6 0.809600 0.275693 0.344354
Si Si7 0.665038 0.379291 0.750000
Si Si8 0.189395 0.879810 0.344729
O O1 0.666989 0.008360 0.367668
O O2 0.000000 0.987039 0.368794
O O3 0.831955 0.000000 0.500000
O O4 0.776121 0.925643 0.400909
O O5 0.500000 0.324620 0.538215
O O6 0.726709 0.267047 0.593513
O O7 0.663995 0.347124 0.666377
O O8 0.832343 0.345586 0.532978
O O9 0.000000 0.344786 0.665196
O O10 0.000000 0.419318 0.577043
O O11 0.000000 0.500000 0.000000
O O12 0.836147 0.596644 0.250000
O O13 0.751636 0.264339 0.250000
O O14 0.748432 0.327534 0.365821
O O15 0.000000 0.277429 0.341353
O O16 0.500000 0.407491 0.750000
O O17 0.248741 0.890296 0.250000
O O18 0.000000 0.876759 0.342012
#
# Coordination Sequence:
#
# PCOD9471802 Si02
#       8
#    16  16   8   8   4  16   8  16
#     4   9  19  38  61  80 106 142 196 244 292 345
#     4   9  16  27  44  69 108 150 181 217 253 323
#     4  10  20  32  50  78 108 144 183 222 277 325
#     4  10  22  40  60  82 102 136 196 249 287 333
#     4   8  16  28  40  68 102 130 174 204 250 324
#     4   9  16  26  43  72 113 158 192 213 264 336
#     4   8  12  22  38  56  89 141 179 201 234 288
#     4   9  18  31  49  81 118 149 184 237 292 338
#
# _framework density 24.264309999999998
#
# number of rings (size 3 to 8) (size 9 to 14) (size 15 to 20)
#    0.000    2.957    0.870    0.000    2.435    0.696 
#    1.565    0.000    0.000    0.000    0.000    4.870 
#    0.000    0.000    0.000    0.000    0.000    0.000 
#
# Total GULP energy -256639.523869 kJ/mol
# GULP energy per Si atom -5579.120084 kJ/mol
# Density = 2.420908 g / cm^3
# Si number density = 24.264310 Si / 1000 Ang^3
#
#
#
# Elastic Constant Matrix: (Units=GPa)
#
#
# Indices 1 2 3 4 5 6 
#
# 1 179.8802 87.1333 26.8182 0.0000 0.0000 0.0000
# 2 87.1333 182.2442 9.4284 0.0000 0.0000 0.0000
# 3 26.8182 9.4284 47.4493 0.0000 0.0000 0.0000
# 4 0.0000 0.0000 0.0000 -3.3013 0.0000 0.0000
# 5 0.0000 0.0000 0.0000 0.0000 -29.5476 0.0000
# 6 0.0000 0.0000 0.0000 0.0000 0.0000 83.9530
#
#
#
# Elastic Compliance Matrix: (Units=1/GPa)
#
#
# Indices 1 2 3 4 5 6 
#
# 1 0.007836 -0.003554 -0.003723 0.000000 0.000000 0.000000
# 2 -0.003554 0.007156 0.000587 0.000000 0.000000 0.000000
# 3 -0.003723 0.000587 0.023063 0.000000 0.000000 0.000000
# 4 0.000000 0.000000 0.000000 -0.302906 0.000000 0.000000
# 5 0.000000 0.000000 0.000000 0.000000 -0.033844 0.000000
# 6 0.000000 0.000000 0.000000 0.000000 0.000000 0.011911
#
#
# Mechanical properties :
#
#
# Convention : Reuss Voigt Hill
#
# Bulk Modulus (GPa) = 40.52719 72.92595 56.72657
# Shear Modulus (GPa) = -18.85509 29.30040 5.22265
#
# Velocity S-wave (km/s) = -2.79062 3.47875 1.46870
# Velocity P-wave (km/s) = 2.52095 6.80115 5.12888
#
# Compressibility (1/GPa) = 0.02467479
#
# Stress axis : x y z
#
# Youngs Moduli (GPa) = 127.62146 139.74506 43.36041
#
# Poissons Ratio (x) = 0.49662 0.16141
# Poissons Ratio (y) = 0.45353 -0.02544
# Poissons Ratio (z) = 0.47508 -0.08198
#
# Static dielectric constant tensor:
#      x y z
#    x 1.985980 0.000000 0.000000 
#    y 0.000000 1.879100 0.000000 
#    z 0.000000 0.000000 2.096180 
# 
# From -- ./inp_files/60123.got.cif
#   From: 2010.05.17/outbox.cif.g08.bks.cpg/sg63_31_cif.got.tgz:60123.got - 2010.06.03 15:47:04.
