data_PCOD9471569
_publ_section_title
;
Structure prediction by ZEFSAII (Michael W. Deem and Ramdas Pophale) SiO2 
 PCOD9471569
Probable space group: C M C M
;
_chemical_formula_sum "Si O2"
_cell_formula_units_Z 96
_cell_length_a 20.672037
_cell_length_b 13.726236
_cell_length_c 14.654017
_cell_angle_alpha 90.000000
_cell_angle_beta 90.000000
_cell_angle_gamma 90.000000
_cell_volume 4158.066457
_symmetry_space_group_name_H-M "C M C M"
_symmetry_group_IT_number 63
_symmetry_cell_setting 'orthorhombic'
loop_
_space_group_symop_operation_xyz
x,y,z
-x,-y,1/2+z
x,-y,-z
-x,y,1/2-z
-x,-y,-z
x,y,1/2-z
-x,y,z
x,-y,1/2+z
1/2+x,1/2+y,z
1/2-x,1/2-y,1/2+z
1/2+x,1/2-y,-z
1/2-x,1/2+y,1/2-z
1/2-x,1/2-y,-z
1/2+x,1/2+y,1/2-z
1/2-x,1/2+y,z
1/2+x,1/2-y,1/2+z
loop_
_atom_site_type_symbol
_atom_site_label
_atom_site_fract_x
_atom_site_fract_y
_atom_site_fract_z
Si Si1 0.160378 0.857608 0.148827
Si Si2 0.500000 0.101534 0.391497
Si Si3 0.151219 0.631035 0.151242
Si Si4 0.227686 0.360098 0.026330
Si Si5 0.573671 0.615313 0.004945
Si Si6 0.371614 0.760061 0.148120
Si Si7 0.000000 0.626649 0.890605
O O1 0.160213 0.900837 0.250000
O O2 0.175075 0.742870 0.157342
O O3 0.210307 0.905743 0.077071
O O4 0.092077 0.855259 0.097401
O O5 0.427308 0.133130 0.360095
O O6 0.500000 0.126239 0.499023
O O7 0.500000 0.987024 0.368489
O O8 0.165531 0.583517 0.250000
O O9 0.189925 0.594416 0.060968
O O10 0.177113 0.338239 0.106255
O O11 0.250000 0.250000 0.000000
O O12 0.500000 0.640790 0.028011
O O13 0.618841 0.670233 0.077945
O O14 0.579665 0.500000 0.000000
O O15 0.353820 0.728640 0.250000
O O16 0.438590 0.817456 0.146856
#
# Coordination Sequence:
#
# PCOD9471569 Si02
#       7
#    16   8  16  16  16  16   8
#     4  10  21  39  64  92 122 163 208 256 314 378
#     4  11  21  39  61  92 137 165 208 263 313 361
#     4  10  20  34  61  92 126 166 206 251 308 366
#     4  10  19  38  63  89 125 164 212 255 303 370
#     4  11  24  42  64  92 125 157 205 269 321 374
#     4  12  23  40  66  91 125 172 213 250 311 381
#     4  11  23  39  64  92 126 175 208 254 305 375
#
# _framework density 23.087654000000001
#
# number of rings (size 3 to 8) (size 9 to 14) (size 15 to 20)
#    0.000    1.333    5.833    1.000    1.167    3.000 
#    0.000    3.333    0.000    2.000    0.000    0.000 
#    0.000    0.000    0.000    0.000    0.000    0.000 
#
# Total GULP energy -267746.186115 kJ/mol
# GULP energy per Si atom -5578.045544 kJ/mol
# Density = 2.303511 g / cm^3
# Si number density = 23.087654 Si / 1000 Ang^3
#
#
#
# Elastic Constant Matrix: (Units=GPa)
#
#
# Indices 1 2 3 4 5 6 
#
# 1 55.4167 9.6553 34.3605 0.0000 0.0000 0.0000
# 2 9.6553 54.3663 21.6287 0.0000 0.0000 0.0000
# 3 34.3605 21.6287 193.3257 0.0000 0.0000 0.0000
# 4 0.0000 0.0000 0.0000 8.5256 0.0000 0.0000
# 5 0.0000 0.0000 0.0000 0.0000 -5.4631 0.0000
# 6 0.0000 0.0000 0.0000 0.0000 0.0000 -32.7010
#
#
#
# Elastic Compliance Matrix: (Units=1/GPa)
#
#
# Indices 1 2 3 4 5 6 
#
# 1 0.020551 -0.002299 -0.003395 0.000000 0.000000 0.000000
# 2 -0.002299 0.019508 -0.001774 0.000000 0.000000 0.000000
# 3 -0.003395 -0.001774 0.005975 0.000000 0.000000 0.000000
# 4 0.000000 0.000000 0.000000 0.117294 0.000000 0.000000
# 5 0.000000 0.000000 0.000000 0.000000 -0.183048 0.000000
# 6 0.000000 0.000000 0.000000 0.000000 0.000000 -0.030580
#
#
# Mechanical properties :
#
#
# Convention : Reuss Voigt Hill
#
# Bulk Modulus (GPa) = 32.15772 48.26640 40.21206
# Shear Modulus (GPa) = -200.01128 9.90326 -95.05401
#
# Velocity S-wave (km/s) = -9.31769 2.07334 -6.42342
# Velocity P-wave (km/s) = 10.08962 5.16553 6.12852
#
# Compressibility (1/GPa) = 0.03109673
#
# Stress axis : x y z
#
# Youngs Moduli (GPa) = 48.65957 51.26173 167.37680
#
# Poissons Ratio (x) = 0.11785 0.56831
# Poissons Ratio (y) = 0.11187 0.29690
# Poissons Ratio (z) = 0.16522 0.09093
#
# Static dielectric constant tensor:
#      x y z
#    x 1.943920 0.000000 0.000000 
#    y 0.000000 1.918220 0.000000 
#    z 0.000000 0.000000 1.956930 
# 
# From -- ./inp_files/35428.got.cif
#   From: 2010.05.17/outbox.cif.g08.bks.cpg/sg63_18_cif.got.tgz:35428.got - 2010.06.03 15:47:04.
