data_PCOD9471760
_publ_section_title
;
Structure prediction by ZEFSAII (Michael W. Deem and Ramdas Pophale) SiO2 
 PCOD9471760
Probable space group: C M C M
;
_chemical_formula_sum "Si O2"
_cell_formula_units_Z 112
_cell_length_a 14.367979
_cell_length_b 18.975765
_cell_length_c 19.582070
_cell_angle_alpha 90.000000
_cell_angle_beta 90.000000
_cell_angle_gamma 90.000000
_cell_volume 5338.922007
_symmetry_space_group_name_H-M "C M C M"
_symmetry_group_IT_number 63
_symmetry_cell_setting 'orthorhombic'
loop_
_space_group_symop_operation_xyz
x,y,z
-x,-y,1/2+z
x,-y,-z
-x,y,1/2-z
-x,-y,-z
x,y,1/2-z
-x,y,z
x,-y,1/2+z
1/2+x,1/2+y,z
1/2-x,1/2-y,1/2+z
1/2+x,1/2-y,-z
1/2-x,1/2+y,1/2-z
1/2-x,1/2-y,-z
1/2+x,1/2+y,1/2-z
1/2-x,1/2+y,z
1/2+x,1/2-y,1/2+z
loop_
_atom_site_type_symbol
_atom_site_label
_atom_site_fract_x
_atom_site_fract_y
_atom_site_fract_z
Si Si1 0.890597 0.776579 0.973506
Si Si2 0.812472 0.139582 0.824933
Si Si3 0.139472 0.547101 0.943367
Si Si4 0.346269 0.573633 0.530694
Si Si5 0.113059 0.282737 0.615413
Si Si6 0.387031 0.063488 0.170646
Si Si7 0.394852 0.822581 0.361402
O O1 0.879939 0.858587 0.989514
O O2 0.850982 0.734107 0.038716
O O3 0.000000 0.761115 0.973349
O O4 0.861586 0.748393 0.899689
O O5 0.840165 0.113895 0.750000
O O6 0.852077 0.092423 0.888028
O O7 0.852466 0.217842 0.838713
O O8 0.699169 0.148445 0.825672
O O9 0.235662 0.569774 0.977551
O O10 0.152933 0.497430 0.877407
O O11 0.093588 0.618452 0.919732
O O12 0.091570 0.500000 0.000000
O O13 0.383943 0.500000 0.500000
O O14 0.140008 0.359404 0.642971
O O15 0.000000 0.280976 0.615070
O O16 0.361375 0.055408 0.250000
O O17 0.500000 0.057509 0.166300
O O18 0.500000 0.815279 0.330139
#
# Coordination Sequence:
#
# PCOD9471760 Si02
#       7
#    16  16  16  16  16  16  16
#     4   9  18  34  57  82 105 136 181 232 282 329
#     4  10  21  35  54  81 110 144 186 228 278 340
#     4  10  20  32  49  73 102 135 171 210 257 313
#     4   9  20  36  54  77 105 139 180 230 283 330
#     4   9  18  34  57  84 113 142 177 224 276 331
#     4  10  20  32  48  74 108 142 172 207 258 321
#     4  10  21  35  53  77 106 142 182 222 265 318
#
# _framework density 20.978017999999999
#
# number of rings (size 3 to 8) (size 9 to 14) (size 15 to 20)
#    0.000    2.429    0.000    1.714    0.000   13.429 
#    0.000    0.000    0.000    0.857    0.000    0.000 
#    0.000    0.000    0.000    0.000    0.000    0.000 
#
# Total GULP energy -312040.707679 kJ/mol
# GULP energy per Si atom -5572.155494 kJ/mol
# Density = 2.093027 g / cm^3
# Si number density = 20.978018 Si / 1000 Ang^3
#
#
#
# Elastic Constant Matrix: (Units=GPa)
#
#
# Indices 1 2 3 4 5 6 
#
# 1 35.8544 7.2089 0.9835 0.0000 0.0000 0.0000
# 2 7.2089 117.2728 57.8062 0.0000 0.0000 0.0000
# 3 0.9835 57.8062 103.5967 0.0000 0.0000 0.0000
# 4 0.0000 0.0000 0.0000 20.0034 0.0000 0.0000
# 5 0.0000 0.0000 0.0000 0.0000 -6.8670 0.0000
# 6 0.0000 0.0000 0.0000 0.0000 0.0000 28.6115
#
#
#
# Elastic Compliance Matrix: (Units=1/GPa)
#
#
# Indices 1 2 3 4 5 6 
#
# 1 0.028310 -0.002218 0.000969 0.000000 0.000000 0.000000
# 2 -0.002218 0.011936 -0.006639 0.000000 0.000000 0.000000
# 3 0.000969 -0.006639 0.013348 0.000000 0.000000 0.000000
# 4 0.000000 0.000000 0.000000 0.049992 0.000000 0.000000
# 5 0.000000 0.000000 0.000000 0.000000 -0.145624 0.000000
# 6 0.000000 0.000000 0.000000 0.000000 0.000000 0.034951
#
#
# Mechanical properties :
#
#
# Convention : Reuss Voigt Hill
#
# Bulk Modulus (GPa) = 26.44257 43.19124 34.81691
# Shear Modulus (GPa) = 234.79974 21.06459 127.93217
#
# Velocity S-wave (km/s) = 10.59101 3.17223 7.81769
# Velocity P-wave (km/s) = 12.73545 5.83532 9.90562
#
# Compressibility (1/GPa) = 0.03781780
#
# Stress axis : x y z
#
# Youngs Moduli (GPa) = 35.32330 83.77990 74.91630
#
# Poissons Ratio (x) = 0.18580 -0.07257
# Poissons Ratio (y) = 0.07834 0.49738
# Poissons Ratio (z) = -0.03422 0.55623
#
# Static dielectric constant tensor:
#      x y z
#    x 1.774440 0.000000 0.000000 
#    y 0.000000 1.751390 0.000000 
#    z 0.000000 0.000000 1.803090 
# 
# From -- ./inp_files/55814.got.cif
#   From: 2010.05.17/outbox.cif.g08.bks.cpg/sg63_28_cif.got.tgz:55814.got - 2010.06.03 15:47:04.
