data_PCOD9471615
_publ_section_title
;
Structure prediction by ZEFSAII (Michael W. Deem and Ramdas Pophale) SiO2 
 PCOD9471615
Probable space group: C M C M
;
_chemical_formula_sum "Si O2"
_cell_formula_units_Z 88
_cell_length_a 9.385092
_cell_length_b 23.477156
_cell_length_c 23.828101
_cell_angle_alpha 90.000000
_cell_angle_beta 90.000000
_cell_angle_gamma 90.000000
_cell_volume 5250.171043
_symmetry_space_group_name_H-M "C M C M"
_symmetry_group_IT_number 63
_symmetry_cell_setting 'orthorhombic'
loop_
_space_group_symop_operation_xyz
x,y,z
-x,-y,1/2+z
x,-y,-z
-x,y,1/2-z
-x,-y,-z
x,y,1/2-z
-x,y,z
x,-y,1/2+z
1/2+x,1/2+y,z
1/2-x,1/2-y,1/2+z
1/2+x,1/2-y,-z
1/2-x,1/2+y,1/2-z
1/2-x,1/2-y,-z
1/2+x,1/2+y,1/2-z
1/2-x,1/2+y,z
1/2+x,1/2-y,1/2+z
loop_
_atom_site_type_symbol
_atom_site_label
_atom_site_fract_x
_atom_site_fract_y
_atom_site_fract_z
Si Si1 0.664521 0.898396 0.918840
Si Si2 0.157584 0.903434 0.413672
Si Si3 0.747890 0.000000 0.500000
Si Si4 0.833674 0.191351 0.492987
Si Si5 0.331789 0.556812 0.313421
Si Si6 0.167023 0.562477 0.687697
O O1 0.500000 0.883597 0.910356
O O2 0.744688 0.910934 0.860949
O O3 0.670189 0.954914 0.958847
O O4 0.750962 0.848367 0.949021
O O5 0.168142 0.846646 0.450565
O O6 0.276484 0.903602 0.365779
O O7 0.000000 0.906946 0.387896
O O8 0.172832 0.957365 0.456435
O O9 0.750000 0.250000 0.500000
O O10 0.000000 0.200054 0.477843
O O11 0.316191 0.579989 0.250000
O O12 0.500000 0.554424 0.326731
O O13 0.263003 0.494103 0.312881
O O14 0.183176 0.588972 0.750000
O O15 0.000000 0.548048 0.680894
#
# Coordination Sequence:
#
# PCOD9471615 Si02
#       6
#    16  16   8  16  16  16
#     4  11  21  33  53  79 109 141 175 217 263 316
#     4  10  20  33  53  77 106 139 173 216 261 312
#     4  10  20  30  48  78 110 138 174 210 258 318
#     4  10  22  39  57  79 105 137 178 221 268 316
#     4  10  20  33  50  74 107 144 179 215 259 311
#     4  10  20  32  48  74 108 142 176 213 256 310
#
# _framework density 16.761358000000001
#
# number of rings (size 3 to 8) (size 9 to 14) (size 15 to 20)
#    0.000    1.818    1.818    2.727    0.000    7.273 
#    0.000    0.000    0.000    1.091    0.000    5.091 
#    0.000    0.000    0.000    0.000    0.000    0.000 
#
# Total GULP energy -245236.846518 kJ/mol
# GULP energy per Si atom -5573.564694 kJ/mol
# Density = 1.672321 g / cm^3
# Si number density = 16.761358 Si / 1000 Ang^3
#
#
#
# Elastic Constant Matrix: (Units=GPa)
#
#
# Indices 1 2 3 4 5 6 
#
# 1 161.8499 46.4567 70.7987 0.0000 0.0000 0.0000
# 2 46.4567 87.7633 29.0434 0.0000 0.0000 0.0000
# 3 70.7987 29.0434 99.7322 0.0000 0.0000 0.0000
# 4 0.0000 0.0000 0.0000 11.1600 0.0000 0.0000
# 5 0.0000 0.0000 0.0000 0.0000 -2.7741 0.0000
# 6 0.0000 0.0000 0.0000 0.0000 0.0000 20.6904
#
#
#
# Elastic Compliance Matrix: (Units=1/GPa)
#
#
# Indices 1 2 3 4 5 6 
#
# 1 0.009693 -0.003158 -0.005961 0.000000 0.000000 0.000000
# 2 -0.003158 0.013638 -0.001730 0.000000 0.000000 0.000000
# 3 -0.005961 -0.001730 0.014762 0.000000 0.000000 0.000000
# 4 0.000000 0.000000 0.000000 0.089606 0.000000 0.000000
# 5 0.000000 0.000000 0.000000 0.000000 -0.360474 0.000000
# 6 0.000000 0.000000 0.000000 0.000000 0.000000 0.048332
#
#
# Mechanical properties :
#
#
# Convention : Reuss Voigt Hill
#
# Bulk Modulus (GPa) = 60.99229 71.32700 66.15964
# Shear Modulus (GPa) = -31.79032 19.35169 -6.21931
#
# Velocity S-wave (km/s) = -4.35977 3.40154 -1.92836
# Velocity P-wave (km/s) = 3.33529 7.62064 5.88210
#
# Compressibility (1/GPa) = 0.01639551
#
# Stress axis : x y z
#
# Youngs Moduli (GPa) = 103.17189 73.32239 67.74043
#
# Poissons Ratio (x) = 0.23155 0.40380
# Poissons Ratio (y) = 0.32582 0.11718
# Poissons Ratio (z) = 0.61501 0.12684
#
# Static dielectric constant tensor:
#      x y z
#    x 1.571530 0.000000 0.000000 
#    y 0.000000 1.539050 0.000000 
#    z 0.000000 0.000000 1.590960 
# 
# From -- ./inp_files/59614.got.cif
#   From: 2010.05.17/outbox.cif.g08.bks.cpg/sg63_30_cif.got.tgz:59614.got - 2010.06.03 15:47:04.
