data_PCOD9471120
_publ_section_title
;
Structure prediction by ZEFSAII (Michael W. Deem and Ramdas Pophale) SiO2 
 PCOD9471120
Probable space group: C M C M
;
_chemical_formula_sum "Si O2"
_cell_formula_units_Z 80
_cell_length_a 19.076962
_cell_length_b 13.324432
_cell_length_c 17.898308
_cell_angle_alpha 90.000000
_cell_angle_beta 90.000000
_cell_angle_gamma 90.000000
_cell_volume 4549.565236
_symmetry_space_group_name_H-M "C M C M"
_symmetry_group_IT_number 63
_symmetry_cell_setting 'orthorhombic'
loop_
_space_group_symop_operation_xyz
x,y,z
-x,-y,1/2+z
x,-y,-z
-x,y,1/2-z
-x,-y,-z
x,y,1/2-z
-x,y,z
x,-y,1/2+z
1/2+x,1/2+y,z
1/2-x,1/2-y,1/2+z
1/2+x,1/2-y,-z
1/2-x,1/2+y,1/2-z
1/2-x,1/2-y,-z
1/2+x,1/2+y,1/2-z
1/2-x,1/2+y,z
1/2+x,1/2-y,1/2+z
loop_
_atom_site_type_symbol
_atom_site_label
_atom_site_fract_x
_atom_site_fract_y
_atom_site_fract_z
Si Si1 0.145978 0.738499 0.432145
Si Si2 0.716298 0.451432 0.417735
Si Si3 0.500000 0.910134 0.398836
Si Si4 0.648811 0.176823 0.606243
Si Si5 0.500000 0.139139 0.422690
Si Si6 0.767778 0.143666 0.165594
O O1 0.166454 0.853940 0.416953
O O2 0.148881 0.719092 0.521099
O O3 0.069748 0.702232 0.406297
O O4 0.204933 0.671824 0.391118
O O5 0.716737 0.500000 0.500000
O O6 0.793754 0.411555 0.396425
O O7 0.698191 0.539786 0.360767
O O8 0.572465 0.862041 0.371630
O O9 0.500000 0.887164 0.488389
O O10 0.500000 0.029395 0.385673
O O11 0.677579 0.265624 0.657320
O O12 0.741769 0.137062 0.250000
#
# Coordination Sequence:
#
# PCOD9471120 Si02
#       6
#    16  16   8  16   8  16
#     4  10  19  35  57  80 109 143 180 224 270 322
#     4  11  18  32  56  79 110 146 184 219 270 320
#     4   9  18  30  56  84 110 133 178 221 276 321
#     4  10  19  34  57  82 108 143 178 224 270 327
#     4   9  18  32  53  85 109 136 176 227 266 321
#     4  11  22  35  54  81 110 141 184 228 271 323
#
# _framework density 17.584098999999998
#
# number of rings (size 3 to 8) (size 9 to 14) (size 15 to 20)
#    0.000    1.800    4.000    2.400    2.800    3.200 
#    0.000    2.500    0.000    1.200    0.000    0.000 
#    0.000    0.000    0.000    0.000    0.000    0.000 
#
# Total GULP energy -223169.198473 kJ/mol
# GULP energy per Si atom -5579.229962 kJ/mol
# Density = 1.754408 g / cm^3
# Si number density = 17.584099 Si / 1000 Ang^3
#
#
#
# Elastic Constant Matrix: (Units=GPa)
#
#
# Indices 1 2 3 4 5 6 
#
# 1 119.9306 51.7441 -1.0529 0.0000 0.0000 0.0000
# 2 51.7441 121.3088 14.7470 0.0000 0.0000 0.0000
# 3 -1.0529 14.7470 41.4519 0.0000 0.0000 0.0000
# 4 0.0000 0.0000 0.0000 7.0372 0.0000 0.0000
# 5 0.0000 0.0000 0.0000 0.0000 0.3016 0.0000
# 6 0.0000 0.0000 0.0000 0.0000 0.0000 11.4053
#
#
#
# Elastic Compliance Matrix: (Units=1/GPa)
#
#
# Indices 1 2 3 4 5 6 
#
# 1 0.010363 -0.004653 0.001919 0.000000 0.000000 0.000000
# 2 -0.004653 0.010706 -0.003927 0.000000 0.000000 0.000000
# 3 0.001919 -0.003927 0.025570 0.000000 0.000000 0.000000
# 4 0.000000 0.000000 0.000000 0.142102 0.000000 0.000000
# 5 0.000000 0.000000 0.000000 0.000000 3.315882 0.000000
# 6 0.000000 0.000000 0.000000 0.000000 0.000000 0.087678
#
#
# Mechanical properties :
#
#
# Convention : Reuss Voigt Hill
#
# Bulk Modulus (GPa) = 30.01617 45.95198 37.98408
# Shear Modulus (GPa) = 1.38246 18.23236 9.80741
#
# Velocity S-wave (km/s) = 0.88764 3.22353 2.36422
# Velocity P-wave (km/s) = 4.26118 6.32806 5.39453
#
# Compressibility (1/GPa) = 0.03331537
#
# Stress axis : x y z
#
# Youngs Moduli (GPa) = 96.49960 93.40792 39.10810
#
# Poissons Ratio (x) = 0.43467 -0.07504
# Poissons Ratio (y) = 0.44906 0.15357
# Poissons Ratio (z) = -0.18516 0.36680
#
# Static dielectric constant tensor:
#      x y z
#    x 1.589600 0.000000 0.000000 
#    y 0.000000 1.596650 0.000000 
#    z 0.000000 0.000000 1.629750 
# 
# From -- ./inp_files/46817.got.cif
#   From: 2010.05.17/outbox.cif.g08.bks.cpg/sg63_24_cif.got.tgz:46817.got - 2010.06.03 15:47:04.
