data_PCOD9471511
_publ_section_title
;
Structure prediction by ZEFSAII (Michael W. Deem and Ramdas Pophale) SiO2 
 PCOD9471511
Probable space group: C M C M
;
_chemical_formula_sum "Si O2"
_cell_formula_units_Z 116
_cell_length_a 25.768114
_cell_length_b 8.151909
_cell_length_c 25.869538
_cell_angle_alpha 90.000000
_cell_angle_beta 90.000000
_cell_angle_gamma 90.000000
_cell_volume 5434.137572
_symmetry_space_group_name_H-M "C M C M"
_symmetry_group_IT_number 63
_symmetry_cell_setting 'orthorhombic'
loop_
_space_group_symop_operation_xyz
x,y,z
-x,-y,1/2+z
x,-y,-z
-x,y,1/2-z
-x,-y,-z
x,y,1/2-z
-x,y,z
x,-y,1/2+z
1/2+x,1/2+y,z
1/2-x,1/2-y,1/2+z
1/2+x,1/2-y,-z
1/2-x,1/2+y,1/2-z
1/2-x,1/2-y,-z
1/2+x,1/2+y,1/2-z
1/2-x,1/2+y,z
1/2+x,1/2-y,1/2+z
loop_
_atom_site_type_symbol
_atom_site_label
_atom_site_fract_x
_atom_site_fract_y
_atom_site_fract_z
Si Si1 0.371635 0.618745 0.190110
Si Si2 0.500000 0.108199 0.750000
Si Si3 0.773543 0.102839 0.690638
Si Si4 0.289499 0.095682 0.379472
Si Si5 0.417517 0.943280 0.342455
Si Si6 0.878538 0.570444 0.944570
Si Si7 0.438100 0.305950 0.312764
Si Si8 0.206136 0.155779 0.033763
O O1 0.386307 0.636940 0.250000
O O2 0.314014 0.546796 0.189730
O O3 0.376699 0.794520 0.164278
O O4 0.409972 0.473683 0.169634
O O5 0.543429 0.100763 0.796449
O O6 0.768141 0.159011 0.750000
O O7 0.795596 0.238809 0.652370
O O8 0.721464 0.037842 0.664765
O O9 0.238046 0.104103 0.415249
O O10 0.336775 0.049878 0.416413
O O11 0.425997 0.923106 0.404062
O O12 0.411375 0.138920 0.332835
O O13 0.843398 0.732586 0.953615
O O14 0.893277 0.500000 0.000000
O O15 0.434563 0.300166 0.250000
O O16 0.500000 0.303029 0.325109
O O17 0.250000 0.250000 0.000000
O O18 0.190279 0.000000 0.000000
#
# Coordination Sequence:
#
# PCOD9471511 Si02
#       8
#    16   4  16  16  16  16  16  16
#     4  10  22  37  61  96 137 178 228 285 346 419
#     4  12  24  48  80 112 130 184 224 276 380 460
#     4  11  24  39  54  93 140 189 235 282 351 418
#     4  12  21  40  64  88 135 190 239 290 346 402
#     4  12  23  44  71 102 142 172 226 292 351 438
#     4  12  26  43  66 102 133 185 243 291 351 407
#     4  10  19  36  66 101 134 171 220 282 356 432
#     4  12  20  39  67  92 130 182 244 297 329 399
#
# _framework density 21.346533000000001
#
# number of rings (size 3 to 8) (size 9 to 14) (size 15 to 20)
#    0.000    0.690    6.207    2.069    0.966    0.000 
#    4.966    0.345    0.000    0.000    0.000    1.448 
#    0.000    0.000    0.000    0.000    0.000    0.000 
#
# Total GULP energy -323126.291490 kJ/mol
# GULP energy per Si atom -5571.142957 kJ/mol
# Density = 2.129795 g / cm^3
# Si number density = 21.346533 Si / 1000 Ang^3
#
#
#
# Elastic Constant Matrix: (Units=GPa)
#
#
# Indices 1 2 3 4 5 6 
#
# 1 56.6512 48.7107 41.5830 0.0000 0.0000 0.0000
# 2 48.7107 95.8377 29.5856 0.0000 0.0000 0.0000
# 3 41.5830 29.5856 151.1588 0.0000 0.0000 0.0000
# 4 0.0000 0.0000 0.0000 39.2224 0.0000 0.0000
# 5 0.0000 0.0000 0.0000 0.0000 15.4453 0.0000
# 6 0.0000 0.0000 0.0000 0.0000 0.0000-2067.0197
#
#
#
# Elastic Compliance Matrix: (Units=1/GPa)
#
#
# Indices 1 2 3 4 5 6 
#
# 1 0.037131 -0.016730 -0.006940 0.000000 0.000000 0.000000
# 2 -0.016730 0.018643 0.000953 0.000000 0.000000 0.000000
# 3 -0.006940 0.000953 0.008338 0.000000 0.000000 0.000000
# 4 0.000000 0.000000 0.000000 0.025496 0.000000 0.000000
# 5 0.000000 0.000000 0.000000 0.000000 0.064745 0.000000
# 6 0.000000 0.000000 0.000000 0.000000 0.000000 -0.000484
#
#
# Mechanical properties :
#
#
# Convention : Reuss Voigt Hill
#
# Bulk Modulus (GPa) = 53.53574 60.37849 56.95711
# Shear Modulus (GPa) = 24.32761 -390.21918 -182.94579
#
# Velocity S-wave (km/s) = 3.37953 -13.53510 -9.26762
# Velocity P-wave (km/s) = 6.35312 14.69418 9.36901
#
# Compressibility (1/GPa) = 0.01867911
#
# Stress axis : x y z
#
# Youngs Moduli (GPa) = 26.93182 53.63917 119.93079
#
# Poissons Ratio (x) = 0.89737 0.83233
# Poissons Ratio (y) = 0.45056 -0.11434
# Poissons Ratio (z) = 0.18691 -0.05114
#
# Static dielectric constant tensor:
#      x y z
#    x 1.883480 0.000000 0.000000 
#    y 0.000000 1.833360 0.000000 
#    z 0.000000 0.000000 1.779030 
# 
# From -- ./inp_files/65505.got.cif
#   From: 2010.05.17/outbox.cif.g08.bks.cpg/sg63_33_cif.got.tgz:65505.got - 2010.06.03 15:47:04.
