data_PCOD9471462
_publ_section_title
;
Structure prediction by ZEFSAII (Michael W. Deem and Ramdas Pophale) SiO2 
 PCOD9471462
Probable space group: C M C M
;
_chemical_formula_sum "Si O2"
_cell_formula_units_Z 80
_cell_length_a 11.712792
_cell_length_b 22.016170
_cell_length_c 17.107045
_cell_angle_alpha 90.000000
_cell_angle_beta 90.000000
_cell_angle_gamma 90.000000
_cell_volume 4411.407719
_symmetry_space_group_name_H-M "C M C M"
_symmetry_group_IT_number 63
_symmetry_cell_setting 'orthorhombic'
loop_
_space_group_symop_operation_xyz
x,y,z
-x,-y,1/2+z
x,-y,-z
-x,y,1/2-z
-x,-y,-z
x,y,1/2-z
-x,y,z
x,-y,1/2+z
1/2+x,1/2+y,z
1/2-x,1/2-y,1/2+z
1/2+x,1/2-y,-z
1/2-x,1/2+y,1/2-z
1/2-x,1/2-y,-z
1/2+x,1/2+y,1/2-z
1/2-x,1/2+y,z
1/2+x,1/2-y,1/2+z
loop_
_atom_site_type_symbol
_atom_site_label
_atom_site_fract_x
_atom_site_fract_y
_atom_site_fract_z
Si Si1 0.289006 0.832103 0.065189
Si Si2 0.500000 0.886354 0.341431
Si Si3 0.000000 0.480722 0.590937
Si Si4 0.133877 0.070180 0.477611
Si Si5 0.366494 0.777573 0.599679
Si Si6 0.290737 0.095567 0.340539
O O1 0.387977 0.858220 0.118932
O O2 0.210169 0.782250 0.107289
O O3 0.209520 0.885859 0.031721
O O4 0.347475 0.800465 0.989686
O O5 0.500000 0.874923 0.250000
O O6 0.500000 0.957904 0.359476
O O7 0.000000 0.500000 0.500000
O O8 0.890158 0.441024 0.614071
O O9 0.176669 0.082219 0.389433
O O10 0.000000 0.083750 0.486184
O O11 0.153297 0.000000 0.500000
O O12 0.500000 0.766515 0.613581
O O13 0.322201 0.833448 0.651680
O O14 0.285964 0.077807 0.250000
#
# Coordination Sequence:
#
# PCOD9471462 Si02
#       6
#    16   8   8  16  16  16
#     4  10  21  37  59  85 117 159 203 243 293 351
#     4  12  24  38  58  90 126 156 188 247 317 359
#     4  12  22  38  64  88 118 154 204 253 299 363
#     4  10  21  38  61  87 116 156 205 249 290 356
#     4  10  19  36  60  82 114 156 206 246 283 350
#     4  11  22  36  58  90 120 152 194 251 317 361
#
# _framework density 18.134801
#
# number of rings (size 3 to 8) (size 9 to 14) (size 15 to 20)
#    0.000    1.400    2.000    5.700    0.000    1.200 
#    1.800    0.000    0.000    3.000    0.000    0.000 
#    0.000    0.000    0.000    0.000    0.000    0.000 
#
# Total GULP energy -223540.605432 kJ/mol
# GULP energy per Si atom -5588.515136 kJ/mol
# Density = 1.809353 g / cm^3
# Si number density = 18.134801 Si / 1000 Ang^3
#
#
#
# Elastic Constant Matrix: (Units=GPa)
#
#
# Indices 1 2 3 4 5 6 
#
# 1 125.9271 65.5547 46.3159 0.0000 0.0000 0.0000
# 2 65.5547 110.7393 34.4158 0.0000 0.0000 0.0000
# 3 46.3159 34.4158 110.1585 0.0000 0.0000 0.0000
# 4 0.0000 0.0000 0.0000 20.3446 0.0000 0.0000
# 5 0.0000 0.0000 0.0000 0.0000 3.6283 0.0000
# 6 0.0000 0.0000 0.0000 0.0000 0.0000 18.7608
#
#
#
# Elastic Compliance Matrix: (Units=1/GPa)
#
#
# Indices 1 2 3 4 5 6 
#
# 1 0.012445 -0.006358 -0.003246 0.000000 0.000000 0.000000
# 2 -0.006358 0.013250 -0.001466 0.000000 0.000000 0.000000
# 3 -0.003246 -0.001466 0.010901 0.000000 0.000000 0.000000
# 4 0.000000 0.000000 0.000000 0.049153 0.000000 0.000000
# 5 0.000000 0.000000 0.000000 0.000000 0.275614 0.000000
# 6 0.000000 0.000000 0.000000 0.000000 0.000000 0.053303
#
#
# Mechanical properties :
#
#
# Convention : Reuss Voigt Hill
#
# Bulk Modulus (GPa) = 69.18261 71.04420 70.11341
# Shear Modulus (GPa) = 11.32186 21.91598 16.61892
#
# Velocity S-wave (km/s) = 2.50134 3.48013 3.03051
# Velocity P-wave (km/s) = 6.82453 7.44372 7.14084
#
# Compressibility (1/GPa) = 0.01445450
#
# Stress axis : x y z
#
# Youngs Moduli (GPa) = 80.35392 75.47274 91.73757
#
# Poissons Ratio (x) = 0.47988 0.29778
# Poissons Ratio (y) = 0.51091 0.13451
# Poissons Ratio (z) = 0.26083 0.11066
#
# Static dielectric constant tensor:
#      x y z
#    x 1.603020 0.000000 0.000000 
#    y 0.000000 1.622420 0.000000 
#    z 0.000000 0.000000 1.608230 
# 
# From -- ./inp_files/42178.got.cif
#   From: 2010.05.17/outbox.cif.g08.bks.cpg/sg63_22_cif.got.tgz:42178.got - 2010.06.03 15:47:04.
