data_PCOD9471507
_publ_section_title
;
Structure prediction by ZEFSAII (Michael W. Deem and Ramdas Pophale) SiO2 
 PCOD9471507
Probable space group: C M C M
;
_chemical_formula_sum "Si O2"
_cell_formula_units_Z 100
_cell_length_a 7.491631
_cell_length_b 28.900962
_cell_length_c 22.368312
_cell_angle_alpha 90.000000
_cell_angle_beta 90.000000
_cell_angle_gamma 90.000000
_cell_volume 4843.082742
_symmetry_space_group_name_H-M "C M C M"
_symmetry_group_IT_number 63
_symmetry_cell_setting 'orthorhombic'
loop_
_space_group_symop_operation_xyz
x,y,z
-x,-y,1/2+z
x,-y,-z
-x,y,1/2-z
-x,-y,-z
x,y,1/2-z
-x,y,z
x,-y,1/2+z
1/2+x,1/2+y,z
1/2-x,1/2-y,1/2+z
1/2+x,1/2-y,-z
1/2-x,1/2+y,1/2-z
1/2-x,1/2-y,-z
1/2+x,1/2+y,1/2-z
1/2-x,1/2+y,z
1/2+x,1/2-y,1/2+z
loop_
_atom_site_type_symbol
_atom_site_label
_atom_site_fract_x
_atom_site_fract_y
_atom_site_fract_z
Si Si1 0.293734 0.324418 0.024692
Si Si2 0.783928 0.427451 0.609108
Si Si3 0.000000 0.053276 0.750000
Si Si4 0.214110 0.338812 0.817673
Si Si5 0.711164 0.734965 0.087559
Si Si6 0.783204 0.528523 0.851465
Si Si7 0.297502 0.072207 0.975371
O O1 0.500000 0.335559 0.013203
O O2 0.283913 0.286207 0.076751
O O3 0.201584 0.372804 0.036653
O O4 0.218841 0.298355 0.965839
O O5 0.717487 0.381125 0.641509
O O6 0.750948 0.473208 0.647559
O O7 0.715719 0.433416 0.541309
O O8 0.000000 0.422746 0.604092
O O9 0.158354 0.050939 0.801984
O O10 0.282039 0.340694 0.750000
O O11 0.252576 0.290716 0.850808
O O12 0.000000 0.343625 0.815091
O O13 0.500000 0.738570 0.078856
O O14 0.726341 0.546968 0.916992
O O15 0.000000 0.536074 0.844008
O O16 0.500000 0.054617 0.980257
#
# Coordination Sequence:
#
# PCOD9471507 Si02
#       7
#    16  16   4  16  16  16  16
#     4  10  20  33  57  85 116 148 191 247 302 357
#     4   9  18  36  61  89 123 160 199 249 308 373
#     4  12  26  44  62  90 116 176 216 260 308 370
#     4  10  20  34  56  83 117 160 199 237 299 367
#     4  10  20  35  53  82 115 153 193 244 296 355
#     4  10  23  42  64  90 125 163 210 261 310 370
#     4  10  19  36  64  93 120 157 198 254 316 367
#
# _framework density 20.648005999999999
#
# number of rings (size 3 to 8) (size 9 to 14) (size 15 to 20)
#    0.000    2.080    1.600    1.680    2.240    3.520 
#    2.880    0.800    1.760    0.000    0.000    0.000 
#    0.000    0.000    0.000    0.000    0.000    0.000 
#
# Total GULP energy -278585.471580 kJ/mol
# GULP energy per Si atom -5571.709432 kJ/mol
# Density = 2.060101 g / cm^3
# Si number density = 20.648006 Si / 1000 Ang^3
#
#
#
# Elastic Constant Matrix: (Units=GPa)
#
#
# Indices 1 2 3 4 5 6 
#
# 1 82.9083 0.4696 13.6257 0.0000 0.0000 0.0000
# 2 0.4696 58.1268 4.0921 0.0000 0.0000 0.0000
# 3 13.6257 4.0921 107.4611 0.0000 0.0000 0.0000
# 4 0.0000 0.0000 0.0000 -10.7641 0.0000 0.0000
# 5 0.0000 0.0000 0.0000 0.0000 35.3244 0.0000
# 6 0.0000 0.0000 0.0000 0.0000 0.0000 9.5838
#
#
#
# Elastic Compliance Matrix: (Units=1/GPa)
#
#
# Indices 1 2 3 4 5 6 
#
# 1 0.012318 0.000010 -0.001562 0.000000 0.000000 0.000000
# 2 0.000010 0.017250 -0.000658 0.000000 0.000000 0.000000
# 3 -0.001562 -0.000658 0.009529 0.000000 0.000000 0.000000
# 4 0.000000 0.000000 0.000000 -0.092901 0.000000 0.000000
# 5 0.000000 0.000000 0.000000 0.000000 0.028309 0.000000
# 6 0.000000 0.000000 0.000000 0.000000 0.000000 0.104343
#
#
# Mechanical properties :
#
#
# Convention : Reuss Voigt Hill
#
# Bulk Modulus (GPa) = 28.83754 31.65232 30.24493
# Shear Modulus (GPa) = 52.72770 22.18273 37.45522
#
# Velocity S-wave (km/s) = 5.05884 3.28125 4.26371
# Velocity P-wave (km/s) = 6.93679 5.45144 6.23848
#
# Compressibility (1/GPa) = 0.03467703
#
# Stress axis : x y z
#
# Youngs Moduli (GPa) = 81.18052 57.97093 104.94441
#
# Poissons Ratio (x) = -0.00061 0.16396
# Poissons Ratio (y) = -0.00085 0.06907
# Poissons Ratio (z) = 0.12683 0.03816
#
# Static dielectric constant tensor:
#      x y z
#    x 1.792420 0.000000 0.000000 
#    y 0.000000 1.723470 0.000000 
#    z 0.000000 0.000000 1.734670 
# 
# From -- ./inp_files/51474.got.cif
#   From: 2010.05.17/outbox.cif.g08.bks.cpg/sg63_26_cif.got.tgz:51474.got - 2010.06.03 15:47:04.
