data_PCOD9471735
_publ_section_title
;
Structure prediction by ZEFSAII (Michael W. Deem and Ramdas Pophale) SiO2 
 PCOD9471735
Probable space group: C M C M
;
_chemical_formula_sum "Si O2"
_cell_formula_units_Z 96
_cell_length_a 7.386427
_cell_length_b 20.496179
_cell_length_c 30.048911
_cell_angle_alpha 90.000000
_cell_angle_beta 90.000000
_cell_angle_gamma 90.000000
_cell_volume 4549.210708
_symmetry_space_group_name_H-M "C M C M"
_symmetry_group_IT_number 63
_symmetry_cell_setting 'orthorhombic'
loop_
_space_group_symop_operation_xyz
x,y,z
-x,-y,1/2+z
x,-y,-z
-x,y,1/2-z
-x,-y,-z
x,y,1/2-z
-x,y,z
x,-y,1/2+z
1/2+x,1/2+y,z
1/2-x,1/2-y,1/2+z
1/2+x,1/2-y,-z
1/2-x,1/2+y,1/2-z
1/2-x,1/2-y,-z
1/2+x,1/2+y,1/2-z
1/2-x,1/2+y,z
1/2+x,1/2-y,1/2+z
loop_
_atom_site_type_symbol
_atom_site_label
_atom_site_fract_x
_atom_site_fract_y
_atom_site_fract_z
Si Si1 0.220376 0.941824 0.967111
Si Si2 0.278394 0.646102 0.878188
Si Si3 0.216029 0.180768 0.522353
Si Si4 0.217371 0.891837 0.699683
Si Si5 0.784915 0.243040 0.800869
Si Si6 0.221229 0.995057 0.627635
O O1 0.000000 0.939626 0.965534
O O2 0.280023 0.960223 0.917860
O O3 0.285063 0.875144 0.989147
O O4 0.270456 0.000000 0.000000
O O5 0.500000 0.647330 0.878057
O O6 0.218453 0.671245 0.926938
O O7 0.216402 0.692531 0.837856
O O8 0.223618 0.570711 0.871582
O O9 0.250000 0.250000 0.500000
O O10 0.000000 0.171805 0.525203
O O11 0.286531 0.897821 0.750000
O O12 0.257363 0.818043 0.684384
O O13 0.000000 0.896923 0.701058
O O14 0.282322 0.949603 0.668111
O O15 0.713315 0.236219 0.750000
O O16 0.000000 0.232493 0.798038
O O17 0.000000 0.995805 0.627826
#
# Coordination Sequence:
#
# PCOD9471735 Si02
#       6
#    16  16  16  16  16  16
#     4   9  15  27  46  68  92 120 154 188 225 270
#     4   9  17  30  47  70  96 121 156 199 234 268
#     4  10  20  32  48  71  97 124 156 194 233 277
#     4   9  18  31  48  72  97 119 149 193 239 277
#     4   9  18  32  49  68  93 126 157 186 229 283
#     4   9  16  27  46  70  93 118 152 194 232 268
#
# _framework density 21.102561999999999
#
# number of rings (size 3 to 8) (size 9 to 14) (size 15 to 20)
#    0.000    2.833    1.667    0.000    2.333    0.667 
#    0.000    3.333    0.000    2.500    0.000    4.667 
#    0.000    0.000    0.000    0.000    0.000    0.000 
#
# Total GULP energy -267937.778669 kJ/mol
# GULP energy per Si atom -5582.037056 kJ/mol
# Density = 2.105453 g / cm^3
# Si number density = 21.102562 Si / 1000 Ang^3
#
#
#
# Elastic Constant Matrix: (Units=GPa)
#
#
# Indices 1 2 3 4 5 6 
#
# 1 73.1341 -1.4125 5.8381 0.0000 0.0000 0.0000
# 2 -1.4125 227.2554 143.4965 0.0000 0.0000 0.0000
# 3 5.8381 143.4965 167.9502 0.0000 0.0000 0.0000
# 4 0.0000 0.0000 0.0000 42.9492 0.0000 0.0000
# 5 0.0000 0.0000 0.0000 0.0000 -8.8693 0.0000
# 6 0.0000 0.0000 0.0000 0.0000 0.0000 91.3463
#
#
#
# Elastic Compliance Matrix: (Units=1/GPa)
#
#
# Indices 1 2 3 4 5 6 
#
# 1 0.013786 0.000843 -0.001200 0.000000 0.000000 0.000000
# 2 0.000843 0.009607 -0.008238 0.000000 0.000000 0.000000
# 3 -0.001200 -0.008238 0.013034 0.000000 0.000000 0.000000
# 4 0.000000 0.000000 0.000000 0.023283 0.000000 0.000000
# 5 0.000000 0.000000 0.000000 0.000000 -0.112748 0.000000
# 6 0.000000 0.000000 0.000000 0.000000 0.000000 0.010947
#
#
# Mechanical properties :
#
#
# Convention : Reuss Voigt Hill
#
# Bulk Modulus (GPa) = 51.97882 84.90932 68.44407
# Shear Modulus (GPa) = -270.41224 46.44642 -111.98291
#
# Velocity S-wave (km/s) = -11.33226 4.69656 -7.29255
# Velocity P-wave (km/s) = 12.10544 8.35069 6.19709
#
# Compressibility (1/GPa) = 0.01923861
#
# Stress axis : x y z
#
# Youngs Moduli (GPa) = 72.53973 104.09040 76.72244
#
# Poissons Ratio (x) = -0.08776 0.09203
# Poissons Ratio (y) = -0.06116 0.63200
# Poissons Ratio (z) = 0.08702 0.85745
#
# Static dielectric constant tensor:
#      x y z
#    x 1.811990 0.000000 0.000000 
#    y 0.000000 1.730890 0.000000 
#    z 0.000000 0.000000 1.715910 
# 
# From -- ./inp_files/68291.got.cif
#   From: 2010.05.17/outbox.cif.g08.bks.cpg/sg63_35_cif.got.tgz:68291.got - 2010.06.03 15:47:04.
