data_PCOD9471179
_publ_section_title
;
Structure prediction by ZEFSAII (Michael W. Deem and Ramdas Pophale) SiO2 
 PCOD9471179
Probable space group: C M C M
;
_chemical_formula_sum "Si O2"
_cell_formula_units_Z 116
_cell_length_a 18.493998
_cell_length_b 18.461835
_cell_length_c 18.422739
_cell_angle_alpha 90.000000
_cell_angle_beta 90.000000
_cell_angle_gamma 90.000000
_cell_volume 6290.133616
_symmetry_space_group_name_H-M "C M C M"
_symmetry_group_IT_number 63
_symmetry_cell_setting 'orthorhombic'
loop_
_space_group_symop_operation_xyz
x,y,z
-x,-y,1/2+z
x,-y,-z
-x,y,1/2-z
-x,-y,-z
x,y,1/2-z
-x,y,z
x,-y,1/2+z
1/2+x,1/2+y,z
1/2-x,1/2-y,1/2+z
1/2+x,1/2-y,-z
1/2-x,1/2+y,1/2-z
1/2-x,1/2-y,-z
1/2+x,1/2+y,1/2-z
1/2-x,1/2+y,z
1/2+x,1/2-y,1/2+z
loop_
_atom_site_type_symbol
_atom_site_label
_atom_site_fract_x
_atom_site_fract_y
_atom_site_fract_z
Si Si1 0.582210 0.073012 0.453967
Si Si2 0.793571 0.636825 0.835073
Si Si3 0.582035 0.798845 0.069472
Si Si4 0.000000 0.155043 0.750000
Si Si5 0.916735 0.132009 0.026948
Si Si6 0.854721 0.054974 0.169500
Si Si7 0.313666 0.032897 0.167861
Si Si8 0.627824 0.614446 0.861918
O O1 0.500000 0.068186 0.426423
O O2 0.587787 0.141950 0.505848
O O3 0.637579 0.074865 0.388509
O O4 0.595789 0.000000 0.500000
O O5 0.805274 0.646622 0.750000
O O6 0.851222 0.685074 0.877609
O O7 0.810182 0.552282 0.852542
O O8 0.708052 0.647124 0.849252
O O9 0.500000 0.807094 0.101204
O O10 0.587563 0.718178 0.038762
O O11 0.935558 0.151315 0.685534
O O12 0.884612 0.094599 0.098704
O O13 0.000000 0.109555 0.023248
O O14 0.883719 0.114099 0.948635
O O15 0.880260 0.080133 0.250000
O O16 0.768133 0.060926 0.167413
O O17 0.871598 0.969423 0.163743
O O18 0.341680 0.037848 0.250000
#
# Coordination Sequence:
#
# PCOD9471179 Si02
#       8
#    16  16  16   4  16  16  16  16
#     4  10  19  34  59  85 109 149 199 249 307 353
#     4  10  20  37  60  88 118 153 200 245 305 367
#     4  10  23  41  58  85 125 159 199 253 304 365
#     4  12  20  40  70  92 124 152 206 270 308 344
#     4  11  25  39  60  89 123 164 205 246 301 379
#     4  10  22  39  59  90 126 157 200 253 308 359
#     4   9  19  35  57  85 116 147 193 253 301 355
#     4  11  22  39  64  93 118 161 205 257 307 358
#
# _framework density 18.441579999999998
#
# number of rings (size 3 to 8) (size 9 to 14) (size 15 to 20)
#    0.000    1.793    3.448    1.241    2.897    2.483 
#    0.000    2.759    1.517    0.000    0.000    0.000 
#    0.000    0.000    0.000    0.000    0.000    0.000 
#
# Total GULP energy -322992.002289 kJ/mol
# GULP energy per Si atom -5568.827626 kJ/mol
# Density = 1.839961 g / cm^3
# Si number density = 18.441580 Si / 1000 Ang^3
#
#
#
# Elastic Constant Matrix: (Units=GPa)
#
#
# Indices 1 2 3 4 5 6 
#
# 1 100.2572 21.2110 65.2107 0.0000 0.0000 0.0000
# 2 21.2110 28.3817 15.3944 0.0000 0.0000 0.0000
# 3 65.2107 15.3944 112.9239 0.0000 0.0000 0.0000
# 4 0.0000 0.0000 0.0000 6.3553 0.0000 0.0000
# 5 0.0000 0.0000 0.0000 0.0000 41.6776 0.0000
# 6 0.0000 0.0000 0.0000 0.0000 0.0000 21.2728
#
#
#
# Elastic Compliance Matrix: (Units=1/GPa)
#
#
# Indices 1 2 3 4 5 6 
#
# 1 0.017598 -0.008250 -0.009038 0.000000 0.000000 0.000000
# 2 -0.008250 0.041915 -0.000950 0.000000 0.000000 0.000000
# 3 -0.009038 -0.000950 0.014204 0.000000 0.000000 0.000000
# 4 0.000000 0.000000 0.000000 0.157348 0.000000 0.000000
# 5 0.000000 0.000000 0.000000 0.000000 0.023994 0.000000
# 6 0.000000 0.000000 0.000000 0.000000 0.000000 0.047008
#
#
# Mechanical properties :
#
#
# Convention : Reuss Voigt Hill
#
# Bulk Modulus (GPa) = 26.85152 49.46609 38.15880
# Shear Modulus (GPa) = 14.24676 23.17760 18.71218
#
# Velocity S-wave (km/s) = 2.78247 3.54900 3.18885
# Velocity P-wave (km/s) = 4.99147 6.60872 5.85619
#
# Compressibility (1/GPa) = 0.03724184
#
# Stress axis : x y z
#
# Youngs Moduli (GPa) = 56.82364 23.85792 70.40173
#
# Poissons Ratio (x) = 0.19682 0.63629
# Poissons Ratio (y) = 0.46879 0.06688
# Poissons Ratio (z) = 0.51357 0.02266
#
# Static dielectric constant tensor:
#      x y z
#    x 1.640090 0.000000 0.000000 
#    y 0.000000 1.629670 0.000000 
#    z 0.000000 0.000000 1.656020 
# 
# From -- ./inp_files/45904.got.cif
#   From: 2010.05.17/outbox.cif.g08.bks.cpg/sg63_23_cif.got.tgz:45904.got - 2010.06.03 15:47:04.
