data_PCOD9471438
_publ_section_title
;
Structure prediction by ZEFSAII (Michael W. Deem and Ramdas Pophale) SiO2 
 PCOD9471438
Probable space group: C M C M
;
_chemical_formula_sum "Si O2"
_cell_formula_units_Z 96
_cell_length_a 28.207934
_cell_length_b 13.978289
_cell_length_c 14.537411
_cell_angle_alpha 90.000000
_cell_angle_beta 90.000000
_cell_angle_gamma 90.000000
_cell_volume 5732.081583
_symmetry_space_group_name_H-M "C M C M"
_symmetry_group_IT_number 63
_symmetry_cell_setting 'orthorhombic'
loop_
_space_group_symop_operation_xyz
x,y,z
-x,-y,1/2+z
x,-y,-z
-x,y,1/2-z
-x,-y,-z
x,y,1/2-z
-x,y,z
x,-y,1/2+z
1/2+x,1/2+y,z
1/2-x,1/2-y,1/2+z
1/2+x,1/2-y,-z
1/2-x,1/2+y,1/2-z
1/2-x,1/2-y,-z
1/2+x,1/2+y,1/2-z
1/2-x,1/2+y,z
1/2+x,1/2-y,1/2+z
loop_
_atom_site_type_symbol
_atom_site_label
_atom_site_fract_x
_atom_site_fract_y
_atom_site_fract_z
Si Si1 0.280015 0.187306 0.750000
Si Si2 0.106384 0.671442 0.250000
Si Si3 0.883697 0.602268 0.951106
Si Si4 0.136516 0.545153 0.750000
Si Si5 0.444080 0.761940 0.932480
Si Si6 0.330498 0.361172 0.250000
Si Si7 0.867810 0.098690 0.948035
Si Si8 0.698890 0.250408 0.951978
O O1 0.310810 0.089652 0.750000
O O2 0.225309 0.157952 0.750000
O O3 0.293042 0.245484 0.657717
O O4 0.131809 0.569075 0.250000
O O5 0.074248 0.686528 0.339702
O O6 0.144396 0.757051 0.250000
O O7 0.886557 0.585072 0.842658
O O8 0.834658 0.658678 0.973932
O O9 0.884005 0.500000 0.000000
O O10 0.925775 0.669170 0.986669
O O11 0.500000 0.748618 0.931914
O O12 0.415130 0.662933 0.940149
O O13 0.347071 0.411478 0.155501
O O14 0.830328 0.160356 0.008019
O O15 0.876217 0.000000 0.000000
O O16 0.750000 0.250000 0.000000
#
# Coordination Sequence:
#
# PCOD9471438 Si02
#       8
#     8   8  16   8  16   8  16  16
#     4  10  20  35  54  81 118 155 193 221 271 335
#     4  10  19  36  59  82 115 140 180 238 285 326
#     4  10  20  35  55  79 115 147 179 228 278 334
#     4  10  20  35  51  83 117 152 180 222 282 332
#     4  10  21  38  60  84 109 144 186 234 291 342
#     4  10  20  38  54  82 112 145 193 235 273 327
#     4  10  22  39  58  81 115 148 188 242 284 328
#     4  10  20  35  54  81 114 152 190 229 272 328
#
# _framework density 16.747843
#
# number of rings (size 3 to 8) (size 9 to 14) (size 15 to 20)
#    0.000    2.000    3.333    0.250    0.000    2.000 
#    3.000    1.250    0.000    0.000    0.000    0.000 
#    0.000    0.000    0.000    0.000    0.000    0.000 
#
# Total GULP energy -267724.542802 kJ/mol
# GULP energy per Si atom -5577.594642 kJ/mol
# Density = 1.670972 g / cm^3
# Si number density = 16.747843 Si / 1000 Ang^3
#
#
#
# Elastic Constant Matrix: (Units=GPa)
#
#
# Indices 1 2 3 4 5 6 
#
# 1 121.6992 34.9085 60.8202 0.0000 0.0000 0.0000
# 2 34.9085 87.4954 58.9238 0.0000 0.0000 0.0000
# 3 60.8202 58.9238 133.5790 0.0000 0.0000 0.0000
# 4 0.0000 0.0000 0.0000 29.1394 0.0000 0.0000
# 5 0.0000 0.0000 0.0000 0.0000 8.0208 0.0000
# 6 0.0000 0.0000 0.0000 0.0000 0.0000 5.6435
#
#
#
# Elastic Compliance Matrix: (Units=1/GPa)
#
#
# Indices 1 2 3 4 5 6 
#
# 1 0.010759 -0.001413 -0.004275 0.000000 0.000000 0.000000
# 2 -0.001413 0.016445 -0.006611 0.000000 0.000000 0.000000
# 3 -0.004275 -0.006611 0.012349 0.000000 0.000000 0.000000
# 4 0.000000 0.000000 0.000000 0.034318 0.000000 0.000000
# 5 0.000000 0.000000 0.000000 0.000000 0.124676 0.000000
# 6 0.000000 0.000000 0.000000 0.000000 0.000000 0.177195
#
#
# Mechanical properties :
#
#
# Convention : Reuss Voigt Hill
#
# Bulk Modulus (GPa) = 66.87035 72.45319 69.66177
# Shear Modulus (GPa) = 12.33578 21.10214 16.71896
#
# Velocity S-wave (km/s) = 2.71691 3.55349 3.16298
# Velocity P-wave (km/s) = 7.06092 7.75832 7.41782
#
# Compressibility (1/GPa) = 0.01495431
#
# Stress axis : x y z
#
# Youngs Moduli (GPa) = 92.94551 60.80869 80.97945
#
# Poissons Ratio (x) = 0.08595 0.34621
# Poissons Ratio (y) = 0.13137 0.53532
# Poissons Ratio (z) = 0.39736 0.40198
#
# Static dielectric constant tensor:
#      x y z
#    x 1.536960 0.000000 0.000000 
#    y 0.000000 1.542480 0.000000 
#    z 0.000000 0.000000 1.583460 
# 
# From -- ./inp_files/37899.got.cif
#   From: 2010.05.17/outbox.cif.g08.bks.cpg/sg63_19_cif.got.tgz:37899.got - 2010.06.03 15:47:04.
