data_PCOD9471314
_publ_section_title
;
Structure prediction by ZEFSAII (Michael W. Deem and Ramdas Pophale) SiO2 
 PCOD9471314
Probable space group: C M C M
;
_chemical_formula_sum "Si O2"
_cell_formula_units_Z 128
_cell_length_a 25.288435
_cell_length_b 28.684683
_cell_length_c 10.409164
_cell_angle_alpha 90.000000
_cell_angle_beta 90.000000
_cell_angle_gamma 90.000000
_cell_volume 7550.711193
_symmetry_space_group_name_H-M "C M C M"
_symmetry_group_IT_number 63
_symmetry_cell_setting 'orthorhombic'
loop_
_space_group_symop_operation_xyz
x,y,z
-x,-y,1/2+z
x,-y,-z
-x,y,1/2-z
-x,-y,-z
x,y,1/2-z
-x,y,z
x,-y,1/2+z
1/2+x,1/2+y,z
1/2-x,1/2-y,1/2+z
1/2+x,1/2-y,-z
1/2-x,1/2+y,1/2-z
1/2-x,1/2-y,-z
1/2+x,1/2+y,1/2-z
1/2-x,1/2+y,z
1/2+x,1/2-y,1/2+z
loop_
_atom_site_type_symbol
_atom_site_label
_atom_site_fract_x
_atom_site_fract_y
_atom_site_fract_z
Si Si1 0.328114 0.294819 0.495671
Si Si2 0.438294 0.541957 0.099426
Si Si3 0.283520 0.794865 0.112092
Si Si4 0.557069 0.152200 0.405141
Si Si5 0.159431 0.897708 0.597283
Si Si6 0.058397 0.238164 0.904439
Si Si7 0.173286 0.366123 0.901398
Si Si8 0.257958 0.959361 0.900956
O O1 0.312163 0.255043 0.598012
O O2 0.279806 0.288205 0.396124
O O3 0.326094 0.348266 0.538516
O O4 0.388087 0.285372 0.452577
O O5 0.428460 0.528739 0.250000
O O6 0.500000 0.554759 0.089163
O O7 0.399163 0.584185 0.067301
O O8 0.428537 0.500000 0.000000
O O9 0.297287 0.816133 0.250000
O O10 0.301058 0.827265 0.993283
O O11 0.555180 0.149842 0.250000
O O12 0.500000 0.134661 0.453418
O O13 0.561368 0.206959 0.438583
O O14 0.611987 0.128650 0.441734
O O15 0.163987 0.891968 0.750000
O O16 0.200641 0.938297 0.562349
O O17 0.058653 0.235259 0.750000
O O18 0.000000 0.220879 0.948377
O O19 0.175642 0.351504 0.750000
O O20 0.203307 0.414990 0.911381
O O21 0.257140 0.973995 0.750000
O O22 0.271850 0.000000 0.000000
#
# Coordination Sequence:
#
# PCOD9471314 Si02
#       8
#    16  16  16  16  16  16  16  16
#     4  11  21  34  51  73 110 148 181 217 266 318
#     4   9  18  34  56  78 100 132 176 225 275 324
#     4  11  23  34  51  80 111 144 179 219 263 313
#     4   8  14  27  51  79 102 131 177 221 248 288
#     4  10  20  35  53  74 101 137 180 221 265 318
#     4   9  17  30  49  73 102 140 185 228 262 297
#     4  10  19  35  59  81 106 141 178 215 262 317
#     4  10  21  37  56  79 104 135 170 216 270 322
#
# _framework density 16.952045999999999
#
# number of rings (size 3 to 8) (size 9 to 14) (size 15 to 20)
#    0.000    2.250    2.500    1.875    0.000    3.000 
#    0.000    1.250    0.000    4.125    0.000    0.000 
#    0.000    0.000    0.000    0.000    0.000    0.000 
#
# Total GULP energy -356355.973236 kJ/mol
# GULP energy per Si atom -5568.062082 kJ/mol
# Density = 1.691346 g / cm^3
# Si number density = 16.952046 Si / 1000 Ang^3
#
#
#
# Elastic Constant Matrix: (Units=GPa)
#
#
# Indices 1 2 3 4 5 6 
#
# 1 113.8051 25.3822 31.1145 0.0000 0.0000 0.0000
# 2 25.3822 59.6239 37.4549 0.0000 0.0000 0.0000
# 3 31.1145 37.4549 65.4604 0.0000 0.0000 0.0000
# 4 0.0000 0.0000 0.0000 8.0920 0.0000 0.0000
# 5 0.0000 0.0000 0.0000 0.0000 4.0773 0.0000
# 6 0.0000 0.0000 0.0000 0.0000 0.0000 21.0369
#
#
#
# Elastic Compliance Matrix: (Units=1/GPa)
#
#
# Indices 1 2 3 4 5 6 
#
# 1 0.010255 -0.002035 -0.003710 0.000000 0.000000 0.000000
# 2 -0.002035 0.026587 -0.014245 0.000000 0.000000 0.000000
# 3 -0.003710 -0.014245 0.025190 0.000000 0.000000 0.000000
# 4 0.000000 0.000000 0.000000 0.123580 0.000000 0.000000
# 5 0.000000 0.000000 0.000000 0.000000 0.245263 0.000000
# 6 0.000000 0.000000 0.000000 0.000000 0.000000 0.047535
#
#
# Mechanical properties :
#
#
# Convention : Reuss Voigt Hill
#
# Bulk Modulus (GPa) = 45.34702 47.42139 46.38420
# Shear Modulus (GPa) = 9.51038 16.30375 12.90706
#
# Velocity S-wave (km/s) = 2.37115 3.10458 2.76232
# Velocity P-wave (km/s) = 5.85702 6.39420 6.13150
#
# Compressibility (1/GPa) = 0.02205217
#
# Stress axis : x y z
#
# Youngs Moduli (GPa) = 97.51179 37.61289 39.69754
#
# Poissons Ratio (x) = 0.07655 0.14728
# Poissons Ratio (y) = 0.19845 0.56549
# Poissons Ratio (z) = 0.36177 0.53579
#
# Static dielectric constant tensor:
#      x y z
#    x 1.622160 0.000000 0.000000 
#    y 0.000000 1.551120 0.000000 
#    z 0.000000 0.000000 1.594770 
# 
# From -- ./inp_files/24261.got.cif
#   From: 2010.05.17/outbox.cif.g08.bks.cpg/sg63_13_cif.got.tgz:24261.got - 2010.06.03 15:47:04.
