data_PCOD9471795
_publ_section_title
;
Structure prediction by ZEFSAII (Michael W. Deem and Ramdas Pophale) SiO2 
 PCOD9471795
Probable space group: C M C M
;
_chemical_formula_sum "Si O2"
_cell_formula_units_Z 80
_cell_length_a 7.368433
_cell_length_b 19.714103
_cell_length_c 25.124663
_cell_angle_alpha 90.000000
_cell_angle_beta 90.000000
_cell_angle_gamma 90.000000
_cell_volume 3649.659980
_symmetry_space_group_name_H-M "C M C M"
_symmetry_group_IT_number 63
_symmetry_cell_setting 'orthorhombic'
loop_
_space_group_symop_operation_xyz
x,y,z
-x,-y,1/2+z
x,-y,-z
-x,y,1/2-z
-x,-y,-z
x,y,1/2-z
-x,y,z
x,-y,1/2+z
1/2+x,1/2+y,z
1/2-x,1/2-y,1/2+z
1/2+x,1/2-y,-z
1/2-x,1/2+y,1/2-z
1/2-x,1/2-y,-z
1/2+x,1/2+y,1/2-z
1/2-x,1/2+y,z
1/2+x,1/2-y,1/2+z
loop_
_atom_site_type_symbol
_atom_site_label
_atom_site_fract_x
_atom_site_fract_y
_atom_site_fract_z
Si Si1 0.717520 0.096948 0.750000
Si Si2 0.283103 0.820253 0.529274
Si Si3 0.721782 0.153919 0.149861
Si Si4 0.209320 0.560378 0.957864
Si Si5 0.715574 0.757814 0.750000
Si Si6 0.722100 0.997378 0.346690
O O1 0.500000 0.092526 0.750000
O O2 0.758423 0.176835 0.750000
O O3 0.780783 0.054622 0.698815
O O4 0.500000 0.832080 0.533110
O O5 0.250000 0.750000 0.500000
O O6 0.217975 0.825391 0.590240
O O7 0.207328 0.877212 0.489554
O O8 0.500000 0.155432 0.149819
O O9 0.783720 0.204725 0.196487
O O10 0.776130 0.075825 0.160805
O O11 0.286005 0.531954 0.903138
O O12 0.000000 0.579386 0.945075
O O13 0.206033 0.500000 0.000000
O O14 0.500000 0.768929 0.750000
O O15 0.500000 0.999075 0.347179
#
# Coordination Sequence:
#
# PCOD9471795 Si02
#       6
#     8  16  16  16   8  16
#     4  10  21  33  51  79 101 122 160 214 260 288
#     4  10  20  32  50  76 104 133 164 201 249 301
#     4   9  17  32  52  73  97 132 174 206 238 290
#     4   9  15  27  48  74  99 123 157 204 247 283
#     4  10  21  35  51  71 101 136 166 200 244 298
#     4   9  16  29  50  74  97 122 163 211 246 280
#
# _framework density 21.919851000000001
#
# number of rings (size 3 to 8) (size 9 to 14) (size 15 to 20)
#    0.000    2.600    2.000    0.600    2.800    2.400 
#    0.000    0.000    0.000    4.200    0.000    0.000 
#    0.000    0.000    0.000    0.000    0.000    0.000 
#
# Total GULP energy -223280.824310 kJ/mol
# GULP energy per Si atom -5582.020608 kJ/mol
# Density = 2.186996 g / cm^3
# Si number density = 21.919851 Si / 1000 Ang^3
#
#
#
# Elastic Constant Matrix: (Units=GPa)
#
#
# Indices 1 2 3 4 5 6 
#
# 1 79.0208 -3.4185 5.2089 0.0000 0.0000 0.0000
# 2 -3.4185 202.6857 120.6645 0.0000 0.0000 0.0000
# 3 5.2089 120.6645 208.6500 0.0000 0.0000 0.0000
# 4 0.0000 0.0000 0.0000 41.2029 0.0000 0.0000
# 5 0.0000 0.0000 0.0000 0.0000 -16.5206 0.0000
# 6 0.0000 0.0000 0.0000 0.0000 0.0000 -17.6882
#
#
#
# Elastic Compliance Matrix: (Units=1/GPa)
#
#
# Indices 1 2 3 4 5 6 
#
# 1 0.012726 0.000616 -0.000674 0.000000 0.000000 0.000000
# 2 0.000616 0.007554 -0.004384 0.000000 0.000000 0.000000
# 3 -0.000674 -0.004384 0.007345 0.000000 0.000000 0.000000
# 4 0.000000 0.000000 0.000000 0.024270 0.000000 0.000000
# 5 0.000000 0.000000 0.000000 0.000000 -0.060531 0.000000
# 6 0.000000 0.000000 0.000000 0.000000 0.000000 -0.056535
#
#
# Mechanical properties :
#
#
# Convention : Reuss Voigt Hill
#
# Bulk Modulus (GPa) = 53.35944 81.69627 67.52785
# Shear Modulus (GPa) = -99.92093 25.92559 -36.99767
#
# Velocity S-wave (km/s) = -6.75897 3.44284 -4.11282
# Velocity P-wave (km/s) = 6.04282 7.29078 2.88443
#
# Compressibility (1/GPa) = 0.01874083
#
# Stress axis : x y z
#
# Youngs Moduli (GPa) = 78.57960 132.37990 136.15041
#
# Poissons Ratio (x) = -0.08152 0.09174
# Poissons Ratio (y) = -0.04839 0.59688
# Poissons Ratio (z) = 0.05295 0.58035
#
# Static dielectric constant tensor:
#      x y z
#    x 1.839200 0.000000 0.000000 
#    y 0.000000 1.708610 0.000000 
#    z 0.000000 0.000000 1.774970 
# 
# From -- ./inp_files/61405.got.cif
#   From: 2010.05.17/outbox.cif.g08.bks.cpg/sg63_31_cif.got.tgz:61405.got - 2010.06.03 15:47:04.
