data_PCOD9471915
_publ_section_title
;
Structure prediction by ZEFSAII (Michael W. Deem and Ramdas Pophale) SiO2 
 PCOD9471915
Probable space group: C M C M
;
_chemical_formula_sum "Si O2"
_cell_formula_units_Z 80
_cell_length_a 27.555875
_cell_length_b 10.814490
_cell_length_c 13.716001
_cell_angle_alpha 90.000000
_cell_angle_beta 90.000000
_cell_angle_gamma 90.000000
_cell_volume 4087.405806
_symmetry_space_group_name_H-M "C M C M"
_symmetry_group_IT_number 63
_symmetry_cell_setting 'orthorhombic'
loop_
_space_group_symop_operation_xyz
x,y,z
-x,-y,1/2+z
x,-y,-z
-x,y,1/2-z
-x,-y,-z
x,y,1/2-z
-x,y,z
x,-y,1/2+z
1/2+x,1/2+y,z
1/2-x,1/2-y,1/2+z
1/2+x,1/2-y,-z
1/2-x,1/2+y,1/2-z
1/2-x,1/2-y,-z
1/2+x,1/2+y,1/2-z
1/2-x,1/2+y,z
1/2+x,1/2-y,1/2+z
loop_
_atom_site_type_symbol
_atom_site_label
_atom_site_fract_x
_atom_site_fract_y
_atom_site_fract_z
Si Si1 0.297951 0.217018 0.132796
Si Si2 0.557750 0.317715 0.570303
Si Si3 0.633243 0.869785 0.030830
Si Si4 0.232502 0.552567 0.865912
Si Si5 0.058317 0.915090 0.354477
O O1 0.306924 0.216331 0.250000
O O2 0.345038 0.195263 0.066248
O O3 0.272949 0.346929 0.104826
O O4 0.264380 0.094540 0.111045
O O5 0.500000 0.294248 0.584004
O O6 0.594582 0.208271 0.591063
O O7 0.567025 0.345972 0.455589
O O8 0.571380 0.441631 0.628249
O O9 0.681194 0.902454 0.092241
O O10 0.610260 0.000000 0.000000
O O11 0.231013 0.560072 0.750000
O O12 0.078209 0.870567 0.250000
O O13 0.000000 0.913518 0.348047
#
# Coordination Sequence:
#
# PCOD9471915 Si02
#       5
#    16  16  16  16  16
#     4   9  18  34  53  73 100 132 167 208 254 303
#     4   9  18  32  49  74 102 130 171 209 242 296
#     4  10  20  33  50  73 101 137 167 199 250 298
#     4   9  18  34  53  73 100 132 167 208 254 303
#     4   8  15  31  52  69  93 130 165 207 258 291
#
# _framework density 19.572317000000002
#
# number of rings (size 3 to 8) (size 9 to 14) (size 15 to 20)
#    0.000    3.000    0.000    1.800    0.000    2.000 
#    7.200    0.000    0.000    0.000    0.000   11.200 
#    0.000    0.000    0.000    0.000    0.000    0.000 
#
# Total GULP energy -222671.885552 kJ/mol
# GULP energy per Si atom -5566.797139 kJ/mol
# Density = 1.952777 g / cm^3
# Si number density = 19.572317 Si / 1000 Ang^3
#
#
#
# Elastic Constant Matrix: (Units=GPa)
#
#
# Indices 1 2 3 4 5 6 
#
# 1 22.9591 15.8601 -1.3101 0.0000 0.0000 0.0000
# 2 15.8601 30.8220 -7.3722 0.0000 0.0000 0.0000
# 3 -1.3101 -7.3722 54.7953 0.0000 0.0000 0.0000
# 4 0.0000 0.0000 0.0000 13.9842 0.0000 0.0000
# 5 0.0000 0.0000 0.0000 0.0000 10.5334 0.0000
# 6 0.0000 0.0000 0.0000 0.0000 0.0000 27.9767
#
#
#
# Elastic Compliance Matrix: (Units=1/GPa)
#
#
# Indices 1 2 3 4 5 6 
#
# 1 0.068112 -0.035812 -0.003190 0.000000 0.000000 0.000000
# 2 -0.035812 0.052352 0.006187 0.000000 0.000000 0.000000
# 3 -0.003190 0.006187 0.019006 0.000000 0.000000 0.000000
# 4 0.000000 0.000000 0.000000 0.071509 0.000000 0.000000
# 5 0.000000 0.000000 0.000000 0.000000 0.094936 0.000000
# 6 0.000000 0.000000 0.000000 0.000000 0.000000 0.035744
#
#
# Mechanical properties :
#
#
# Convention : Reuss Voigt Hill
#
# Bulk Modulus (GPa) = 13.54240 13.65912 13.60076
# Shear Modulus (GPa) = 11.57672 17.25876 14.41774
#
# Velocity S-wave (km/s) = 2.43468 2.97272 2.71705
# Velocity P-wave (km/s) = 3.85198 4.33321 4.09966
#
# Compressibility (1/GPa) = 0.07384215
#
# Stress axis : x y z
#
# Youngs Moduli (GPa) = 14.68167 19.10152 52.61516
#
# Poissons Ratio (x) = 0.68405 0.16782
# Poissons Ratio (y) = 0.52577 -0.32554
# Poissons Ratio (z) = 0.04683 -0.11819
#
# Static dielectric constant tensor:
#      x y z
#    x 1.655550 0.000000 0.000000 
#    y 0.000000 1.748090 0.000000 
#    z 0.000000 0.000000 1.774680 
# 
# From -- ./inp_files/36465.got.cif
#   From: 2010.05.17/outbox.cif.g08.bks.cpg/sg63_19_cif.got.tgz:36465.got - 2010.06.03 15:47:04.
