data_PCOD9471616
_publ_section_title
;
Structure prediction by ZEFSAII (Michael W. Deem and Ramdas Pophale) SiO2 
 PCOD9471616
Probable space group: C M C M
;
_chemical_formula_sum "Si O2"
_cell_formula_units_Z 80
_cell_length_a 7.376205
_cell_length_b 30.467382
_cell_length_c 16.342778
_cell_angle_alpha 90.000000
_cell_angle_beta 90.000000
_cell_angle_gamma 90.000000
_cell_volume 3672.772240
_symmetry_space_group_name_H-M "C M C M"
_symmetry_group_IT_number 63
_symmetry_cell_setting 'orthorhombic'
loop_
_space_group_symop_operation_xyz
x,y,z
-x,-y,1/2+z
x,-y,-z
-x,y,1/2-z
-x,-y,-z
x,y,1/2-z
-x,y,z
x,-y,1/2+z
1/2+x,1/2+y,z
1/2-x,1/2-y,1/2+z
1/2+x,1/2-y,-z
1/2-x,1/2+y,1/2-z
1/2-x,1/2-y,-z
1/2+x,1/2+y,1/2-z
1/2-x,1/2+y,z
1/2+x,1/2-y,1/2+z
loop_
_atom_site_type_symbol
_atom_site_label
_atom_site_fract_x
_atom_site_fract_y
_atom_site_fract_z
Si Si1 0.284200 0.711347 0.250000
Si Si2 0.720912 0.052076 0.915912
Si Si3 0.220845 0.643468 0.843270
Si Si4 0.779230 0.544872 0.104979
Si Si5 0.282180 0.107416 0.250000
Si Si6 0.216662 0.265383 0.091952
O O1 0.500000 0.718319 0.250000
O O2 0.257293 0.659023 0.250000
O O3 0.214940 0.734420 0.333668
O O4 0.500000 0.051880 0.914293
O O5 0.783815 0.095873 0.871770
O O6 0.776657 0.005434 0.877646
O O7 0.774230 0.053755 0.011295
O O8 0.271340 0.652011 0.750000
O O9 0.282776 0.684845 0.895892
O O10 0.000000 0.642178 0.846866
O O11 0.716908 0.580865 0.169973
O O12 0.000000 0.545538 0.106297
O O13 0.500000 0.103958 0.250000
O O14 0.000000 0.266583 0.101521
O O15 0.250000 0.250000 0.000000
#
# Coordination Sequence:
#
# PCOD9471616 Si02
#       6
#     8  16  16  16   8  16
#     4  10  22  40  53  71 107 145 174 208 259 318
#     4   8  14  24  40  63  99 133 154 189 252 309
#     4   9  16  27  46  69  94 129 167 200 244 306
#     4   8  15  26  38  65 103 129 152 197 251 295
#     4  10  20  30  49  77 101 127 170 216 247 290
#     4  10  21  37  56  77 103 135 174 217 259 308
#
# _framework density 21.781911999999998
#
# number of rings (size 3 to 8) (size 9 to 14) (size 15 to 20)
#    0.000    3.000    1.000    1.200    4.200    0.800 
#    0.000    0.000    0.000    0.000    0.000    4.200 
#    0.000    0.000    0.000    0.000    0.000    0.000 
#
# Total GULP energy -223251.787136 kJ/mol
# GULP energy per Si atom -5581.294678 kJ/mol
# Density = 2.173234 g / cm^3
# Si number density = 21.781912 Si / 1000 Ang^3
#
#
#
# Elastic Constant Matrix: (Units=GPa)
#
#
# Indices 1 2 3 4 5 6 
#
# 1 75.7981 -0.8994 -1.0376 0.0000 0.0000 0.0000
# 2 -0.8994 162.9809 70.6269 0.0000 0.0000 0.0000
# 3 -1.0376 70.6269 98.4373 0.0000 0.0000 0.0000
# 4 0.0000 0.0000 0.0000 44.3193 0.0000 0.0000
# 5 0.0000 0.0000 0.0000 0.0000 4.7648 0.0000
# 6 0.0000 0.0000 0.0000 0.0000 0.0000 9.2395
#
#
#
# Elastic Compliance Matrix: (Units=1/GPa)
#
#
# Indices 1 2 3 4 5 6 
#
# 1 0.013195 0.000018 0.000126 0.000000 0.000000 0.000000
# 2 0.000018 0.008904 -0.006388 0.000000 0.000000 0.000000
# 3 0.000126 -0.006388 0.014744 0.000000 0.000000 0.000000
# 4 0.000000 0.000000 0.000000 0.022564 0.000000 0.000000
# 5 0.000000 0.000000 0.000000 0.000000 0.209874 0.000000
# 6 0.000000 0.000000 0.000000 0.000000 0.000000 0.108231
#
#
# Mechanical properties :
#
#
# Convention : Reuss Voigt Hill
#
# Bulk Modulus (GPa) = 41.06041 52.73290 46.89665
# Shear Modulus (GPa) = 12.55912 29.56648 21.06280
#
# Velocity S-wave (km/s) = 2.40382 3.68827 3.11301
# Velocity P-wave (km/s) = 5.15714 6.51152 5.87350
#
# Compressibility (1/GPa) = 0.02435436
#
# Stress axis : x y z
#
# Youngs Moduli (GPa) = 75.78697 112.30715 67.82596
#
# Poissons Ratio (x) = -0.00204 -0.00855
# Poissons Ratio (y) = -0.00138 0.43330
# Poissons Ratio (z) = -0.00955 0.71746
#
# Static dielectric constant tensor:
#      x y z
#    x 1.887540 0.000000 0.000000 
#    y 0.000000 1.770020 0.000000 
#    z 0.000000 0.000000 1.758350 
# 
# From -- ./inp_files/40552.got.cif
#   From: 2010.05.17/outbox.cif.g08.bks.cpg/sg63_21_cif.got.tgz:40552.got - 2010.06.03 15:47:04.
