data_PCOD9471089
_publ_section_title
;
Structure prediction by ZEFSAII (Michael W. Deem and Ramdas Pophale) SiO2 
 PCOD9471089
Probable space group: C M C M
;
_chemical_formula_sum "Si O2"
_cell_formula_units_Z 80
_cell_length_a 22.062382
_cell_length_b 8.853692
_cell_length_c 19.295015
_cell_angle_alpha 90.000000
_cell_angle_beta 90.000000
_cell_angle_gamma 90.000000
_cell_volume 3768.963488
_symmetry_space_group_name_H-M "C M C M"
_symmetry_group_IT_number 63
_symmetry_cell_setting 'orthorhombic'
loop_
_space_group_symop_operation_xyz
x,y,z
-x,-y,1/2+z
x,-y,-z
-x,y,1/2-z
-x,-y,-z
x,y,1/2-z
-x,y,z
x,-y,1/2+z
1/2+x,1/2+y,z
1/2-x,1/2-y,1/2+z
1/2+x,1/2-y,-z
1/2-x,1/2+y,1/2-z
1/2-x,1/2-y,-z
1/2+x,1/2+y,1/2-z
1/2-x,1/2+y,z
1/2+x,1/2-y,1/2+z
loop_
_atom_site_type_symbol
_atom_site_label
_atom_site_fract_x
_atom_site_fract_y
_atom_site_fract_z
Si Si1 0.610445 0.492873 0.670183
Si Si2 0.866759 0.649535 0.670026
Si Si3 0.568861 0.648535 0.960606
Si Si4 0.342275 0.909905 0.936197
Si Si5 0.223295 0.797149 0.171986
O O1 0.592196 0.508386 0.750000
O O2 0.608073 0.315752 0.652301
O O3 0.572304 0.597489 0.619502
O O4 0.679444 0.557058 0.665102
O O5 0.883611 0.614500 0.750000
O O6 0.880027 0.520597 0.614508
O O7 0.793538 0.663558 0.667492
O O8 0.500000 0.678132 0.982133
O O9 0.612324 0.789174 0.969615
O O10 0.592018 0.500000 0.000000
O O11 0.296452 0.818977 0.887120
O O12 0.312937 0.000000 0.000000
O O13 0.212201 0.734336 0.250000
#
# Coordination Sequence:
#
# PCOD9471089 Si02
#       5
#    16  16  16  16  16
#     4   9  18  33  55  81 107 138 180 224 263 315
#     4  10  19  34  56  82 114 148 178 212 261 320
#     4  10  22  41  60  74  98 141 186 225 273 333
#     4  11  22  34  54  84 113 139 178 231 274 310
#     4   9  18  34  55  79 112 154 186 206 249 323
#
# _framework density 21.225992999999999
#
# number of rings (size 3 to 8) (size 9 to 14) (size 15 to 20)
#    0.000    2.200    0.000    3.000    0.000    5.600 
#    0.000    6.000    0.000    1.200    0.000    0.000 
#    0.000    0.000    0.000    0.000    0.000    0.000 
#
# Total GULP energy -223458.176076 kJ/mol
# GULP energy per Si atom -5586.454402 kJ/mol
# Density = 2.117768 g / cm^3
# Si number density = 21.225993 Si / 1000 Ang^3
#
#
#
# Elastic Constant Matrix: (Units=GPa)
#
#
# Indices 1 2 3 4 5 6 
#
# 1 25.7530 7.6718 0.6245 0.0000 0.0000 0.0000
# 2 7.6718 78.0982 40.4442 0.0000 0.0000 0.0000
# 3 0.6245 40.4442 72.2440 0.0000 0.0000 0.0000
# 4 0.0000 0.0000 0.0000 47.5107 0.0000 0.0000
# 5 0.0000 0.0000 0.0000 0.0000 9.9819 0.0000
# 6 0.0000 0.0000 0.0000 0.0000 0.0000 7.2256
#
#
#
# Elastic Compliance Matrix: (Units=1/GPa)
#
#
# Indices 1 2 3 4 5 6 
#
# 1 0.040354 -0.005328 0.002634 0.000000 0.000000 0.000000
# 2 -0.005328 0.018736 -0.010443 0.000000 0.000000 0.000000
# 3 0.002634 -0.010443 0.019665 0.000000 0.000000 0.000000
# 4 0.000000 0.000000 0.000000 0.021048 0.000000 0.000000
# 5 0.000000 0.000000 0.000000 0.000000 0.100181 0.000000
# 6 0.000000 0.000000 0.000000 0.000000 0.000000 0.138397
#
#
# Mechanical properties :
#
#
# Convention : Reuss Voigt Hill
#
# Bulk Modulus (GPa) = 19.05447 30.39737 24.72592
# Shear Modulus (GPa) = 13.08395 21.43397 17.25896
#
# Velocity S-wave (km/s) = 2.48546 3.18118 2.85459
# Velocity P-wave (km/s) = 4.15128 5.27685 4.74754
#
# Compressibility (1/GPa) = 0.05248112
#
# Stress axis : x y z
#
# Youngs Moduli (GPa) = 24.78084 53.37410 50.85093
#
# Poissons Ratio (x) = 0.28438 -0.13394
# Poissons Ratio (y) = 0.13203 0.53102
# Poissons Ratio (z) = -0.06527 0.55737
#
# Static dielectric constant tensor:
#      x y z
#    x 1.741520 0.000000 0.000000 
#    y 0.000000 1.780810 0.000000 
#    z 0.000000 0.000000 1.803410 
# 
# From -- ./inp_files/48787.got.cif
#   From: 2010.05.17/outbox.cif.g08.bks.cpg/sg63_25_cif.got.tgz:48787.got - 2010.06.03 15:47:04.
