data_PCOD9471453
_publ_section_title
;
Structure prediction by ZEFSAII (Michael W. Deem and Ramdas Pophale) SiO2 
 PCOD9471453
Probable space group: C M C M
;
_chemical_formula_sum "Si O2"
_cell_formula_units_Z 92
_cell_length_a 19.133534
_cell_length_b 29.095455
_cell_length_c 8.759954
_cell_angle_alpha 90.000000
_cell_angle_beta 90.000000
_cell_angle_gamma 90.000000
_cell_volume 4876.656559
_symmetry_space_group_name_H-M "C M C M"
_symmetry_group_IT_number 63
_symmetry_cell_setting 'orthorhombic'
loop_
_space_group_symop_operation_xyz
x,y,z
-x,-y,1/2+z
x,-y,-z
-x,y,1/2-z
-x,-y,-z
x,y,1/2-z
-x,y,z
x,-y,1/2+z
1/2+x,1/2+y,z
1/2-x,1/2-y,1/2+z
1/2+x,1/2-y,-z
1/2-x,1/2+y,1/2-z
1/2-x,1/2-y,-z
1/2+x,1/2+y,1/2-z
1/2-x,1/2+y,z
1/2+x,1/2-y,1/2+z
loop_
_atom_site_type_symbol
_atom_site_label
_atom_site_fract_x
_atom_site_fract_y
_atom_site_fract_z
Si Si1 0.500000 0.636106 0.750000
Si Si2 0.855782 0.872388 0.418172
Si Si3 0.420190 0.199668 0.935380
Si Si4 0.500000 0.050579 0.933235
Si Si5 0.274217 0.448952 0.931458
Si Si6 0.315801 0.277372 0.933103
Si Si7 0.358793 0.896095 0.065369
O O1 0.562780 0.634806 0.880643
O O2 0.821139 0.876448 0.250000
O O3 0.839045 0.918609 0.509161
O O4 0.823932 0.828293 0.501763
O O5 0.422882 0.197886 0.750000
O O6 0.500000 0.195253 0.990325
O O7 0.383907 0.247310 0.978178
O O8 0.371860 0.156736 0.981633
O O9 0.500000 0.048169 0.750000
O O10 0.430098 0.077539 0.977703
O O11 0.500000 0.000000 0.000000
O O12 0.273919 0.451810 0.750000
O O13 0.274104 0.500000 0.000000
O O14 0.206308 0.420978 0.988954
O O15 0.310892 0.278525 0.750000
O O16 0.250000 0.250000 0.000000
O O17 0.352055 0.897987 0.250000
#
# Coordination Sequence:
#
# PCOD9471453 Si02
#       7
#     4  16  16   8  16  16  16
#     4   8  24  44  74  92 124 166 212 258 348 388
#     4  10  22  44  68  93 128 166 212 268 327 396
#     4   9  18  33  56  85 120 164 212 258 309 366
#     4  10  20  32  51  78 117 164 221 267 315 368
#     4  12  25  42  67  96 127 163 211 263 327 400
#     4  11  22  36  60  96 133 174 221 268 319 379
#     4  10  19  36  59  87 123 171 216 267 317 372
#
# _framework density 18.865383999999999
#
# number of rings (size 3 to 8) (size 9 to 14) (size 15 to 20)
#    0.522    1.217    0.870    4.174    1.217    3.478 
#    0.000    2.609    0.000    2.087    0.000    0.000 
#    0.000    0.000    0.000    0.000    0.000    0.000 
#
# Total GULP energy -256261.977782 kJ/mol
# GULP energy per Si atom -5570.912560 kJ/mol
# Density = 1.882245 g / cm^3
# Si number density = 18.865384 Si / 1000 Ang^3
#
#
#
# Elastic Constant Matrix: (Units=GPa)
#
#
# Indices 1 2 3 4 5 6 
#
# 1 96.7502 27.1427 29.0202 0.0000 0.0000 0.0000
# 2 27.1427 118.2097 42.0890 0.0000 0.0000 0.0000
# 3 29.0202 42.0890 84.1885 0.0000 0.0000 0.0000
# 4 0.0000 0.0000 0.0000 21.4576 0.0000 0.0000
# 5 0.0000 0.0000 0.0000 0.0000 27.2490 0.0000
# 6 0.0000 0.0000 0.0000 0.0000 0.0000 22.2969
#
#
#
# Elastic Compliance Matrix: (Units=1/GPa)
#
#
# Indices 1 2 3 4 5 6 
#
# 1 0.011750 -0.001528 -0.003287 0.000000 0.000000 0.000000
# 2 -0.001528 0.010490 -0.004718 0.000000 0.000000 0.000000
# 3 -0.003287 -0.004718 0.015370 0.000000 0.000000 0.000000
# 4 0.000000 0.000000 0.000000 0.046604 0.000000 0.000000
# 5 0.000000 0.000000 0.000000 0.000000 0.036699 0.000000
# 6 0.000000 0.000000 0.000000 0.000000 0.000000 0.044849
#
#
# Mechanical properties :
#
#
# Convention : Reuss Voigt Hill
#
# Bulk Modulus (GPa) = 53.92085 55.07245 54.49665
# Shear Modulus (GPa) = 26.17693 27.59378 26.88536
#
# Velocity S-wave (km/s) = 3.72904 3.82863 3.77917
# Velocity P-wave (km/s) = 6.86913 6.98572 6.92767
#
# Compressibility (1/GPa) = 0.01854570
#
# Stress axis : x y z
#
# Youngs Moduli (GPa) = 85.10399 95.32770 65.06362
#
# Poissons Ratio (x) = 0.14565 0.21384
# Poissons Ratio (y) = 0.13003 0.30695
# Poissons Ratio (z) = 0.27970 0.44973
#
# Static dielectric constant tensor:
#      x y z
#    x 1.655780 0.000000 0.000000 
#    y 0.000000 1.646530 0.000000 
#    z 0.000000 0.000000 1.657030 
# 
# From -- ./inp_files/8673.got.cif
#   From: 2010.05.17/outbox.cif.g08.bks.cpg/sg63_5_cif.got.tgz:8673.got - 2010.06.03 15:47:04.
