data_PCOD9471683
_publ_section_title
;
Structure prediction by ZEFSAII (Michael W. Deem and Ramdas Pophale) SiO2 
 PCOD9471683
Probable space group: C M C M
;
_chemical_formula_sum "Si O2"
_cell_formula_units_Z 128
_cell_length_a 24.130350
_cell_length_b 18.291514
_cell_length_c 18.486202
_cell_angle_alpha 90.000000
_cell_angle_beta 90.000000
_cell_angle_gamma 90.000000
_cell_volume 8159.451575
_symmetry_space_group_name_H-M "C M C M"
_symmetry_group_IT_number 63
_symmetry_cell_setting 'orthorhombic'
loop_
_space_group_symop_operation_xyz
x,y,z
-x,-y,1/2+z
x,-y,-z
-x,y,1/2-z
-x,-y,-z
x,y,1/2-z
-x,y,z
x,-y,1/2+z
1/2+x,1/2+y,z
1/2-x,1/2-y,1/2+z
1/2+x,1/2-y,-z
1/2-x,1/2+y,1/2-z
1/2-x,1/2-y,-z
1/2+x,1/2+y,1/2-z
1/2-x,1/2+y,z
1/2+x,1/2-y,1/2+z
loop_
_atom_site_type_symbol
_atom_site_label
_atom_site_fract_x
_atom_site_fract_y
_atom_site_fract_z
Si Si1 0.065874 0.485267 0.332730
Si Si2 0.121132 0.718946 0.335922
Si Si3 0.808404 0.855937 0.167385
Si Si4 0.138104 0.374583 0.082095
Si Si5 0.197713 0.254720 0.333622
Si Si6 0.248381 0.472433 0.422039
Si Si7 0.063737 0.379267 0.939529
Si Si8 0.229923 0.379577 0.836226
O O1 0.079686 0.507195 0.250000
O O2 0.101816 0.416649 0.357786
O O3 0.076642 0.549817 0.390097
O O4 0.000000 0.469832 0.335202
O O5 0.109200 0.714895 0.250000
O O6 0.142496 0.800441 0.352814
O O7 0.072902 0.689313 0.386439
O O8 0.173071 0.664331 0.350913
O O9 0.816929 0.880522 0.250000
O O10 0.753070 0.805279 0.167624
O O11 0.794821 0.923498 0.116584
O O12 0.155972 0.295767 0.113049
O O13 0.193707 0.422027 0.070066
O O14 0.103430 0.373333 0.008336
O O15 0.177893 0.251697 0.250000
O O16 0.219736 0.175095 0.356712
O O17 0.266309 0.500000 0.500000
O O18 0.232854 0.543292 0.375109
O O19 0.000000 0.385420 0.963278
O O20 0.232612 0.389657 0.750000
#
# Coordination Sequence:
#
# PCOD9471683 Si02
#       8
#    16  16  16  16  16  16  16  16
#     4  10  20  32  45  61  83 115 157 199 229 256
#     4   9  17  31  49  65  85 117 153 185 222 267
#     4   8  16  30  45  63  88 116 146 183 223 261
#     4  11  20  31  45  63  91 124 154 183 223 269
#     4   8  16  30  47  66  87 115 151 187 221 262
#     4  11  20  27  41  66  93 121 151 178 211 264
#     4  11  22  33  45  64  91 120 152 193 233 262
#     4   9  17  30  47  67  91 118 150 187 223 261
#
# _framework density 15.687329
#
# number of rings (size 3 to 8) (size 9 to 14) (size 15 to 20)
#    0.000    2.375    0.000    5.625    0.000    5.250 
#    0.000    3.750    0.000    0.000    0.000    0.000 
#    0.000    5.500    0.000   11.625    0.000    0.000 
#
# Total GULP energy -356946.296676 kJ/mol
# GULP energy per Si atom -5577.285886 kJ/mol
# Density = 1.565162 g / cm^3
# Si number density = 15.687329 Si / 1000 Ang^3
#
#
#
# Elastic Constant Matrix: (Units=GPa)
#
#
# Indices 1 2 3 4 5 6 
#
# 1 33.1262 15.6574 19.7235 0.0000 0.0000 0.0000
# 2 15.6574 59.4892 25.0907 0.0000 0.0000 0.0000
# 3 19.7235 25.0907 43.2642 0.0000 0.0000 0.0000
# 4 0.0000 0.0000 0.0000 8.7357 0.0000 0.0000
# 5 0.0000 0.0000 0.0000 0.0000 20.9080 0.0000
# 6 0.0000 0.0000 0.0000 0.0000 0.0000 21.5025
#
#
#
# Elastic Compliance Matrix: (Units=1/GPa)
#
#
# Indices 1 2 3 4 5 6 
#
# 1 0.042126 -0.003955 -0.016911 0.000000 0.000000 0.000000
# 2 -0.003955 0.022624 -0.011318 0.000000 0.000000 0.000000
# 3 -0.016911 -0.011318 0.037387 0.000000 0.000000 0.000000
# 4 0.000000 0.000000 0.000000 0.114473 0.000000 0.000000
# 5 0.000000 0.000000 0.000000 0.000000 0.047828 0.000000
# 6 0.000000 0.000000 0.000000 0.000000 0.000000 0.046506
#
#
# Mechanical properties :
#
#
# Convention : Reuss Voigt Hill
#
# Bulk Modulus (GPa) = 26.47623 28.53586 27.50604
# Shear Modulus (GPa) = 12.88989 15.25645 14.07317
#
# Velocity S-wave (km/s) = 2.86960 3.12193 2.99842
# Velocity P-wave (km/s) = 5.28144 5.58795 5.43685
#
# Compressibility (1/GPa) = 0.03776973
#
# Stress axis : x y z
#
# Youngs Moduli (GPa) = 23.73853 44.20064 26.74743
#
# Poissons Ratio (x) = 0.17481 0.45232
# Poissons Ratio (y) = 0.09388 0.30272
# Poissons Ratio (z) = 0.40144 0.50025
#
# Static dielectric constant tensor:
#      x y z
#    x 1.521850 0.000000 0.000000 
#    y 0.000000 1.527510 0.000000 
#    z 0.000000 0.000000 1.536740 
# 
# From -- ./inp_files/48408.got.cif
#   From: 2010.05.17/outbox.cif.g08.bks.cpg/sg63_25_cif.got.tgz:48408.got - 2010.06.03 15:47:04.
