data_PCOD9471232
_publ_section_title
;
Structure prediction by ZEFSAII (Michael W. Deem and Ramdas Pophale) SiO2 
 PCOD9471232
Probable space group: C M C M
;
_chemical_formula_sum "Si O2"
_cell_formula_units_Z 80
_cell_length_a 17.480773
_cell_length_b 28.958594
_cell_length_c 7.473780
_cell_angle_alpha 90.000000
_cell_angle_beta 90.000000
_cell_angle_gamma 90.000000
_cell_volume 3783.366509
_symmetry_space_group_name_H-M "C M C M"
_symmetry_group_IT_number 63
_symmetry_cell_setting 'orthorhombic'
loop_
_space_group_symop_operation_xyz
x,y,z
-x,-y,1/2+z
x,-y,-z
-x,y,1/2-z
-x,-y,-z
x,y,1/2-z
-x,y,z
x,-y,1/2+z
1/2+x,1/2+y,z
1/2-x,1/2-y,1/2+z
1/2+x,1/2-y,-z
1/2-x,1/2+y,1/2-z
1/2-x,1/2-y,-z
1/2+x,1/2+y,1/2-z
1/2-x,1/2+y,z
1/2+x,1/2-y,1/2+z
loop_
_atom_site_type_symbol
_atom_site_label
_atom_site_fract_x
_atom_site_fract_y
_atom_site_fract_z
Si Si1 0.586366 0.322193 0.542919
Si Si2 0.258868 0.642060 0.470176
Si Si3 0.649801 0.223026 0.044496
Si Si4 0.000000 0.439735 0.545905
Si Si5 0.830982 0.449715 0.964182
Si Si6 0.500000 0.165783 0.534196
O O1 0.578254 0.335161 0.750000
O O2 0.500000 0.321355 0.465560
O O3 0.653205 0.354886 0.468259
O O4 0.624111 0.271180 0.540106
O O5 0.257218 0.642716 0.250000
O O6 0.215432 0.689088 0.529017
O O7 0.214584 0.595649 0.527757
O O8 0.669104 0.233142 0.250000
O O9 0.574428 0.191954 0.032026
O O10 0.917949 0.451509 0.461785
O O11 0.000000 0.457654 0.750000
O O12 0.000000 0.384743 0.545263
O O13 0.837307 0.444096 0.750000
O O14 0.795147 0.500000 0.000000
O O15 0.500000 0.164224 0.750000
#
# Coordination Sequence:
#
# PCOD9471232 Si02
#       6
#    16  16  16   8  16   8
#     4  10  20  34  53  79 107 134 173 219 260 307
#     4   9  19  35  54  75 104 141 173 211 263 313
#     4  11  20  34  54  74 105 145 179 209 254 310
#     4  10  19  35  55  74 104 142 172 207 259 313
#     4  10  20  35  54  76 103 136 174 214 260 311
#     4  12  22  31  49  78 111 142 177 217 252 297
#
# _framework density 21.145191000000001
#
# number of rings (size 3 to 8) (size 9 to 14) (size 15 to 20)
#    0.000    1.800    3.000    2.400    0.000    0.800 
#    0.000    2.000    0.000    0.600    0.000    0.000 
#    0.000    0.000    0.000    0.000    0.000    0.000 
#
# Total GULP energy -223237.119391 kJ/mol
# GULP energy per Si atom -5580.927985 kJ/mol
# Density = 2.109706 g / cm^3
# Si number density = 21.145191 Si / 1000 Ang^3
#
#
#
# Elastic Constant Matrix: (Units=GPa)
#
#
# Indices 1 2 3 4 5 6 
#
# 1 183.1367 75.8305 7.5221 0.0000 0.0000 0.0000
# 2 75.8305 95.6172 3.2853 0.0000 0.0000 0.0000
# 3 7.5221 3.2853 73.4598 0.0000 0.0000 0.0000
# 4 0.0000 0.0000 0.0000 4.3349 0.0000 0.0000
# 5 0.0000 0.0000 0.0000 0.0000 1.9193 0.0000
# 6 0.0000 0.0000 0.0000 0.0000 0.0000 15.6921
#
#
#
# Elastic Compliance Matrix: (Units=1/GPa)
#
#
# Indices 1 2 3 4 5 6 
#
# 1 0.008152 -0.006446 -0.000546 0.000000 0.000000 0.000000
# 2 -0.006446 0.015572 -0.000036 0.000000 0.000000 0.000000
# 3 -0.000546 -0.000036 0.013670 0.000000 0.000000 0.000000
# 4 0.000000 0.000000 0.000000 0.230686 0.000000 0.000000
# 5 0.000000 0.000000 0.000000 0.000000 0.521036 0.000000
# 6 0.000000 0.000000 0.000000 0.000000 0.000000 0.063726
#
#
# Mechanical properties :
#
#
# Convention : Reuss Voigt Hill
#
# Bulk Modulus (GPa) = 42.85174 58.38771 50.61972
# Shear Modulus (GPa) = 5.71637 22.09429 13.90533
#
# Velocity S-wave (km/s) = 1.64598 3.23597 2.56718
# Velocity P-wave (km/s) = 4.89099 6.45250 5.72523
#
# Compressibility (1/GPa) = 0.02333628
#
# Stress axis : x y z
#
# Youngs Moduli (GPa) = 122.66863 64.21798 73.15039
#
# Poissons Ratio (x) = 0.41397 0.03997
# Poissons Ratio (y) = 0.79076 0.00266
# Poissons Ratio (z) = 0.06703 0.00233
#
# Static dielectric constant tensor:
#      x y z
#    x 1.793010 0.000000 0.000000 
#    y 0.000000 1.737870 0.000000 
#    z 0.000000 0.000000 1.825740 
# 
# From -- ./inp_files/6481.got.cif
#   From: 2010.05.17/outbox.cif.g08.bks.cpg/sg63_4_cif.got.tgz:6481.got - 2010.06.03 15:47:04.
