data_PCOD9471212
_publ_section_title
;
Structure prediction by ZEFSAII (Michael W. Deem and Ramdas Pophale) SiO2 
 PCOD9471212
Probable space group: C M C M
;
_chemical_formula_sum "Si O2"
_cell_formula_units_Z 104
_cell_length_a 13.693836
_cell_length_b 17.845560
_cell_length_c 22.294442
_cell_angle_alpha 90.000000
_cell_angle_beta 90.000000
_cell_angle_gamma 90.000000
_cell_volume 5448.185803
_symmetry_space_group_name_H-M "C M C M"
_symmetry_group_IT_number 63
_symmetry_cell_setting 'orthorhombic'
loop_
_space_group_symop_operation_xyz
x,y,z
-x,-y,1/2+z
x,-y,-z
-x,y,1/2-z
-x,-y,-z
x,y,1/2-z
-x,y,z
x,-y,1/2+z
1/2+x,1/2+y,z
1/2-x,1/2-y,1/2+z
1/2+x,1/2-y,-z
1/2-x,1/2+y,1/2-z
1/2-x,1/2-y,-z
1/2+x,1/2+y,1/2-z
1/2-x,1/2+y,z
1/2+x,1/2-y,1/2+z
loop_
_atom_site_type_symbol
_atom_site_label
_atom_site_fract_x
_atom_site_fract_y
_atom_site_fract_z
Si Si1 0.883532 0.486874 0.250000
Si Si2 0.615225 0.095021 0.362951
Si Si3 0.616572 0.688680 0.250000
Si Si4 0.883785 0.821367 0.616101
Si Si5 0.239411 0.076630 0.028348
Si Si6 0.755732 0.663362 0.750000
Si Si7 0.614047 0.728276 0.652553
Si Si8 0.756238 0.300422 0.058361
O O1 0.865516 0.538901 0.191883
O O2 0.812972 0.414876 0.250000
O O3 0.000000 0.466418 0.250000
O O4 0.500000 0.092682 0.376250
O O5 0.676078 0.072573 0.421503
O O6 0.635416 0.182088 0.344304
O O7 0.500000 0.695787 0.250000
O O8 0.641626 0.653578 0.184704
O O9 0.665654 0.769965 0.250000
O O10 0.842630 0.877557 0.565592
O O11 0.831601 0.741347 0.602447
O O12 0.000000 0.814249 0.611694
O O13 0.280377 0.120198 0.969784
O O14 0.202651 0.000000 0.000000
O O15 0.682998 0.679331 0.694912
O O16 0.500000 0.717852 0.664751
O O17 0.649206 0.702486 0.587389
O O18 0.750000 0.250000 0.000000
#
# Coordination Sequence:
#
# PCOD9471212 Si02
#       8
#     8  16   8  16  16   8  16  16
#     4  10  24  41  64  95 129 166 200 252 326 381
#     4  10  21  41  65  92 124 162 211 263 313 373
#     4  10  19  34  63  93 119 155 205 256 304 365
#     4  10  21  39  63  91 120 157 209 258 309 374
#     4  11  24  39  61  89 126 166 209 251 320 378
#     4  12  21  37  63  94 128 155 197 252 320 374
#     4  11  22  39  67  96 121 157 211 263 308 364
#     4  10  20  39  60  92 118 162 205 250 309 359
#
# _framework density 19.088923000000001
#
# number of rings (size 3 to 8) (size 9 to 14) (size 15 to 20)
#    0.000    1.538    4.615    0.923    2.154    5.538 
#    0.000    0.000    0.000    0.000    0.000    0.000 
#    0.000    0.000    0.000    0.000    0.000    0.000 
#
# Total GULP energy -289759.074901 kJ/mol
# GULP energy per Si atom -5572.289902 kJ/mol
# Density = 1.904548 g / cm^3
# Si number density = 19.088923 Si / 1000 Ang^3
#
#
#
# Elastic Constant Matrix: (Units=GPa)
#
#
# Indices 1 2 3 4 5 6 
#
# 1 101.9743 39.8397 50.3578 0.0000 0.0000 0.0000
# 2 39.8397 84.3030 62.9584 0.0000 0.0000 0.0000
# 3 50.3578 62.9584 102.4809 0.0000 0.0000 0.0000
# 4 0.0000 0.0000 0.0000 11.7698 0.0000 0.0000
# 5 0.0000 0.0000 0.0000 0.0000 28.8425 0.0000
# 6 0.0000 0.0000 0.0000 0.0000 0.0000 26.7253
#
#
#
# Elastic Compliance Matrix: (Units=1/GPa)
#
#
# Indices 1 2 3 4 5 6 
#
# 1 0.013246 -0.002585 -0.004921 0.000000 0.000000 0.000000
# 2 -0.002585 0.022422 -0.012505 0.000000 0.000000 0.000000
# 3 -0.004921 -0.012505 0.019858 0.000000 0.000000 0.000000
# 4 0.000000 0.000000 0.000000 0.084963 0.000000 0.000000
# 5 0.000000 0.000000 0.000000 0.000000 0.034671 0.000000
# 6 0.000000 0.000000 0.000000 0.000000 0.000000 0.037418
#
#
# Mechanical properties :
#
#
# Convention : Reuss Voigt Hill
#
# Bulk Modulus (GPa) = 64.49332 66.11889 65.30611
# Shear Modulus (GPa) = 19.39721 22.50766 20.95244
#
# Velocity S-wave (km/s) = 3.19117 3.43752 3.31663
# Velocity P-wave (km/s) = 6.88746 7.10408 6.99661
#
# Compressibility (1/GPa) = 0.01550548
#
# Stress axis : x y z
#
# Youngs Moduli (GPa) = 75.49189 44.59869 50.35662
#
# Poissons Ratio (x) = 0.11528 0.24782
# Poissons Ratio (y) = 0.19513 0.62970
# Poissons Ratio (z) = 0.37151 0.55770
#
# Static dielectric constant tensor:
#      x y z
#    x 1.659470 0.000000 0.000000 
#    y 0.000000 1.632960 0.000000 
#    z 0.000000 0.000000 1.676270 
# 
# From -- ./inp_files/54542.got.cif
#   From: 2010.05.17/outbox.cif.g08.bks.cpg/sg63_28_cif.got.tgz:54542.got - 2010.06.03 15:47:04.
