data_PCOD9471668
_publ_section_title
;
Structure prediction by ZEFSAII (Michael W. Deem and Ramdas Pophale) SiO2 
 PCOD9471668
Probable space group: C M C M
;
_chemical_formula_sum "Si O2"
_cell_formula_units_Z 80
_cell_length_a 14.653706
_cell_length_b 29.407697
_cell_length_c 8.155953
_cell_angle_alpha 90.000000
_cell_angle_beta 90.000000
_cell_angle_gamma 90.000000
_cell_volume 3514.659066
_symmetry_space_group_name_H-M "C M C M"
_symmetry_group_IT_number 63
_symmetry_cell_setting 'orthorhombic'
loop_
_space_group_symop_operation_xyz
x,y,z
-x,-y,1/2+z
x,-y,-z
-x,y,1/2-z
-x,-y,-z
x,y,1/2-z
-x,y,z
x,-y,1/2+z
1/2+x,1/2+y,z
1/2-x,1/2-y,1/2+z
1/2+x,1/2-y,-z
1/2-x,1/2+y,1/2-z
1/2-x,1/2-y,-z
1/2+x,1/2+y,1/2-z
1/2-x,1/2+y,z
1/2+x,1/2-y,1/2+z
loop_
_atom_site_type_symbol
_atom_site_label
_atom_site_fract_x
_atom_site_fract_y
_atom_site_fract_z
Si Si1 0.304661 0.549352 0.557979
Si Si2 0.598140 0.937325 0.939727
Si Si3 0.126079 0.340626 0.058801
Si Si4 0.828168 0.853361 0.554653
Si Si5 0.855350 0.756561 0.553013
O O1 0.338036 0.500000 0.500000
O O2 0.317212 0.553355 0.750000
O O3 0.194857 0.550500 0.521187
O O4 0.351593 0.594018 0.478345
O O5 0.603509 0.951474 0.750000
O O6 0.500000 0.952601 0.011157
O O7 0.594390 0.882814 0.952980
O O8 0.100631 0.346498 0.250000
O O9 0.100062 0.290566 0.996041
O O10 0.235433 0.345447 0.045780
O O11 0.809707 0.849935 0.750000
O O12 0.885896 0.807931 0.510045
O O13 0.860541 0.753678 0.750000
O O14 0.750000 0.750000 0.500000
#
# Coordination Sequence:
#
# PCOD9471668 Si02
#       5
#    16  16  16  16  16
#     4  11  21  32  44  56  71  93 124 160 197 231
#     4  10  20  32  43  55  72  95 125 161 198 230
#     4   9  15  24  38  56  75  94 118 146 179 219
#     4   9  15  25  39  55  75  95 116 144 180 219
#     4   8  14  22  35  55  76  95 113 138 173 215
#
# _framework density 22.761807999999998
#
# number of rings (size 3 to 8) (size 9 to 14) (size 15 to 20)
#    0.000    2.600    0.000    6.000    0.000    3.600 
#    0.000    0.000    0.000    0.000    0.000    0.000 
#    0.000    0.000    0.000    0.000    0.000    1.000 
#
# Total GULP energy -222718.399581 kJ/mol
# GULP energy per Si atom -5567.959990 kJ/mol
# Density = 2.271000 g / cm^3
# Si number density = 22.761808 Si / 1000 Ang^3
#
#
#
# Elastic Constant Matrix: (Units=GPa)
#
#
# Indices 1 2 3 4 5 6 
#
# 1 17.6432 3.7474 -4.2156 0.0000 0.0000 0.0000
# 2 3.7474 237.8204 11.0249 0.0000 0.0000 0.0000
# 3 -4.2156 11.0249 60.1401 0.0000 0.0000 0.0000
# 4 0.0000 0.0000 0.0000 31.3028 0.0000 0.0000
# 5 0.0000 0.0000 0.0000 0.0000 -45.9117 0.0000
# 6 0.0000 0.0000 0.0000 0.0000 0.0000 -26.7928
#
#
#
# Elastic Compliance Matrix: (Units=1/GPa)
#
#
# Indices 1 2 3 4 5 6 
#
# 1 0.057934 -0.001111 0.004264 0.000000 0.000000 0.000000
# 2 -0.001111 0.004262 -0.000859 0.000000 0.000000 0.000000
# 3 0.004264 -0.000859 0.017084 0.000000 0.000000 0.000000
# 4 0.000000 0.000000 0.000000 0.031946 0.000000 0.000000
# 5 0.000000 0.000000 0.000000 0.000000 -0.021781 0.000000
# 6 0.000000 0.000000 0.000000 0.000000 0.000000 -0.037323
#
#
# Mechanical properties :
#
#
# Convention : Reuss Voigt Hill
#
# Bulk Modulus (GPa) = 11.92326 37.41302 24.66814
# Shear Modulus (GPa) = 66.23490 12.05613 39.14551
#
# Velocity S-wave (km/s) = 5.40021 2.30394 4.15153
# Velocity P-wave (km/s) = 6.64325 4.85283 5.81733
#
# Compressibility (1/GPa) = 0.08386965
#
# Stress axis : x y z
#
# Youngs Moduli (GPa) = 17.26110 234.62148 58.53341
#
# Poissons Ratio (x) = 0.26056 -0.24962
# Poissons Ratio (y) = 0.01917 0.05029
# Poissons Ratio (z) = -0.07361 0.20158
#
# Static dielectric constant tensor:
#      x y z
#    x 1.952570 0.000000 0.000000 
#    y 0.000000 1.968370 0.000000 
#    z 0.000000 0.000000 1.765030 
# 
# From -- ./inp_files/8874.got.cif
#   From: 2010.05.17/outbox.cif.g08.bks.cpg/sg63_5_cif.got.tgz:8874.got - 2010.06.03 15:47:04.
