data_PCOD9471856
_publ_section_title
;
Structure prediction by ZEFSAII (Michael W. Deem and Ramdas Pophale) SiO2 
 PCOD9471856
Probable space group: C M C M
;
_chemical_formula_sum "Si O2"
_cell_formula_units_Z 80
_cell_length_a 7.412722
_cell_length_b 18.643839
_cell_length_c 27.380951
_cell_angle_alpha 90.000000
_cell_angle_beta 90.000000
_cell_angle_gamma 90.000000
_cell_volume 3784.091115
_symmetry_space_group_name_H-M "C M C M"
_symmetry_group_IT_number 63
_symmetry_cell_setting 'orthorhombic'
loop_
_space_group_symop_operation_xyz
x,y,z
-x,-y,1/2+z
x,-y,-z
-x,y,1/2-z
-x,-y,-z
x,y,1/2-z
-x,y,z
x,-y,1/2+z
1/2+x,1/2+y,z
1/2-x,1/2-y,1/2+z
1/2+x,1/2-y,-z
1/2-x,1/2+y,1/2-z
1/2-x,1/2-y,-z
1/2+x,1/2+y,1/2-z
1/2-x,1/2+y,z
1/2+x,1/2-y,1/2+z
loop_
_atom_site_type_symbol
_atom_site_label
_atom_site_fract_x
_atom_site_fract_y
_atom_site_fract_z
Si Si1 0.281443 0.706092 0.643907
Si Si2 0.721229 0.043576 0.452124
Si Si3 0.215504 0.292719 0.549700
Si Si4 0.220359 0.451423 0.250000
Si Si5 0.792793 0.782302 0.250000
Si Si6 0.712801 0.036344 0.855777
O O1 0.500000 0.709162 0.645533
O O2 0.216283 0.750374 0.597259
O O3 0.214989 0.735359 0.696596
O O4 0.234541 0.622117 0.638622
O O5 0.500000 0.042821 0.452207
O O6 0.781244 0.125856 0.453820
O O7 0.777834 0.000000 0.500000
O O8 0.784904 0.004995 0.402657
O O9 0.250000 0.250000 0.500000
O O10 0.000000 0.296835 0.555525
O O11 0.286909 0.369251 0.250000
O O12 0.281062 0.483814 0.198387
O O13 0.000000 0.448911 0.250000
O O14 0.000000 0.757058 0.250000
O O15 0.500000 0.021156 0.854891
#
# Coordination Sequence:
#
# PCOD9471856 Si02
#       6
#    16  16  16   8   8  16
#     4   9  17  29  46  68  92 117 147 182 219 262
#     4   9  17  29  45  64  86 114 146 178 216 262
#     4  10  20  33  48  67  90 117 151 188 226 269
#     4   8  14  24  41  67  91 111 143 182 214 250
#     4   8  14  26  43  63  89 119 145 172 214 264
#     4   9  16  28  47  68  90 117 148 181 217 259
#
# _framework density 21.14114
#
# number of rings (size 3 to 8) (size 9 to 14) (size 15 to 20)
#    0.000    3.000    0.000    1.200    0.000    2.400 
#    0.000    2.000    0.000    9.600    0.000    0.000 
#    0.000   16.000    0.000    0.000    0.000    0.000 
#
# Total GULP energy -223067.081287 kJ/mol
# GULP energy per Si atom -5576.677032 kJ/mol
# Density = 2.109302 g / cm^3
# Si number density = 21.141140 Si / 1000 Ang^3
#
#
#
# Elastic Constant Matrix: (Units=GPa)
#
#
# Indices 1 2 3 4 5 6 
#
# 1 69.4926 -7.1269 3.0599 0.0000 0.0000 0.0000
# 2 -7.1269 110.7948 115.8164 0.0000 0.0000 0.0000
# 3 3.0599 115.8164 281.3260 0.0000 0.0000 0.0000
# 4 0.0000 0.0000 0.0000 35.8586 0.0000 0.0000
# 5 0.0000 0.0000 0.0000 0.0000 -3.3675 0.0000
# 6 0.0000 0.0000 0.0000 0.0000 0.0000 77.6446
#
#
#
# Elastic Compliance Matrix: (Units=1/GPa)
#
#
# Indices 1 2 3 4 5 6 
#
# 1 0.014632 0.001944 -0.000960 0.000000 0.000000 0.000000
# 2 0.001944 0.016102 -0.006650 0.000000 0.000000 0.000000
# 3 -0.000960 -0.006650 0.006303 0.000000 0.000000 0.000000
# 4 0.000000 0.000000 0.000000 0.027887 0.000000 0.000000
# 5 0.000000 0.000000 0.000000 0.000000 -0.296957 0.000000
# 6 0.000000 0.000000 0.000000 0.000000 0.000000 0.012879
#
#
# Mechanical properties :
#
#
# Convention : Reuss Voigt Hill
#
# Bulk Modulus (GPa) = 38.90175 76.12360 57.51268
# Shear Modulus (GPa) = -25.09363 45.35140 10.12889
#
# Velocity S-wave (km/s) = -3.44896 4.63663 2.19123
# Velocity P-wave (km/s) = 1.60638 8.04673 5.80217
#
# Compressibility (1/GPa) = 0.02570579
#
# Stress axis : x y z
#
# Youngs Moduli (GPa) = 68.34495 62.10277 158.66024
#
# Poissons Ratio (x) = -0.12074 0.15224
# Poissons Ratio (y) = -0.13288 1.05512
# Poissons Ratio (z) = 0.06558 0.41299
#
# Static dielectric constant tensor:
#      x y z
#    x 1.806610 0.000000 0.000000 
#    y 0.000000 1.699970 0.000000 
#    z 0.000000 0.000000 1.795730 
# 
# From -- ./inp_files/66658.got.cif
#   From: 2010.05.17/outbox.cif.g08.bks.cpg/sg63_34_cif.got.tgz:66658.got - 2010.06.03 15:47:04.
