data_PCOD9471146
_publ_section_title
;
Structure prediction by ZEFSAII (Michael W. Deem and Ramdas Pophale) SiO2 
 PCOD9471146
Probable space group: C M C M
;
_chemical_formula_sum "Si O2"
_cell_formula_units_Z 96
_cell_length_a 15.152822
_cell_length_b 11.292211
_cell_length_c 27.086461
_cell_angle_alpha 90.000000
_cell_angle_beta 90.000000
_cell_angle_gamma 90.000000
_cell_volume 4634.733552
_symmetry_space_group_name_H-M "C M C M"
_symmetry_group_IT_number 63
_symmetry_cell_setting 'orthorhombic'
loop_
_space_group_symop_operation_xyz
x,y,z
-x,-y,1/2+z
x,-y,-z
-x,y,1/2-z
-x,-y,-z
x,y,1/2-z
-x,y,z
x,-y,1/2+z
1/2+x,1/2+y,z
1/2-x,1/2-y,1/2+z
1/2+x,1/2-y,-z
1/2-x,1/2+y,1/2-z
1/2-x,1/2-y,-z
1/2+x,1/2+y,1/2-z
1/2-x,1/2+y,z
1/2+x,1/2-y,1/2+z
loop_
_atom_site_type_symbol
_atom_site_label
_atom_site_fract_x
_atom_site_fract_y
_atom_site_fract_z
Si Si1 0.106485 0.746861 0.843686
Si Si2 0.686128 0.135719 0.250000
Si Si3 0.896966 0.999964 0.809259
Si Si4 0.392489 0.138322 0.445724
Si Si5 0.186146 0.635552 0.750000
Si Si6 0.893516 0.253036 0.656293
Si Si7 0.392490 0.138302 0.945717
O O1 0.141602 0.877473 0.829337
O O2 0.131486 0.657007 0.800133
O O3 0.138260 0.707384 0.897456
O O4 0.000000 0.751996 0.844524
O O5 0.749982 0.250093 0.250000
O O6 0.631471 0.157152 0.199864
O O7 0.719112 0.000086 0.250000
O O8 0.899101 0.000020 0.750000
O O9 0.000000 0.999948 0.824779
O O10 0.858393 0.122416 0.829374
O O11 0.500000 0.142827 0.445373
O O12 0.361736 0.207425 0.397468
O O13 0.363949 0.181912 0.500005
O O14 0.368453 0.000010 0.441434
O O15 0.000000 0.247887 0.655448
O O16 0.500000 0.142809 0.945368
#
# Coordination Sequence:
#
# PCOD9471146 Si02
#       7
#    16   8  16  16   8  16  16
#     4  10  19  34  58  82 107 140 186 225 267 324
#     4  12  27  39  54  80 112 145 180 229 281 325
#     4   9  16  28  49  77 105 143 176 213 269 317
#     4   8  14  26  47  77 109 135 165 218 279 321
#     4  12  27  39  54  80 112 145 180 229 281 325
#     4  10  19  34  58  82 107 140 186 225 267 324
#     4   8  14  26  47  77 109 135 165 218 279 321
#
# _framework density 20.713163000000002
#
# number of rings (size 3 to 8) (size 9 to 14) (size 15 to 20)
#    0.000    2.500    1.667    2.500    2.333    2.667 
#    0.000    0.833    0.000    6.000    0.000    0.000 
#    0.000    0.000    0.000    0.000    0.000    0.000 
#
# Total GULP energy -267783.997070 kJ/mol
# GULP energy per Si atom -5578.833272 kJ/mol
# Density = 2.066602 g / cm^3
# Si number density = 20.713163 Si / 1000 Ang^3
#
#
#
# Elastic Constant Matrix: (Units=GPa)
#
#
# Indices 1 2 3 4 5 6 
#
# 1 28.8365 19.5301 15.1129 0.0000 0.0000 0.0000
# 2 19.5301 139.4836 85.0657 0.0000 0.0000 0.0000
# 3 15.1129 85.0657 198.1662 0.0000 0.0000 0.0000
# 4 0.0000 0.0000 0.0000 38.7003 0.0000 0.0000
# 5 0.0000 0.0000 0.0000 0.0000 -3.0400 0.0000
# 6 0.0000 0.0000 0.0000 0.0000 0.0000 14.4922
#
#
#
# Elastic Compliance Matrix: (Units=1/GPa)
#
#
# Indices 1 2 3 4 5 6 
#
# 1 0.038415 -0.004866 -0.000841 0.000000 0.000000 0.000000
# 2 -0.004866 0.010328 -0.004062 0.000000 0.000000 0.000000
# 3 -0.000841 -0.004062 0.006854 0.000000 0.000000 0.000000
# 4 0.000000 0.000000 0.000000 0.025840 0.000000 0.000000
# 5 0.000000 0.000000 0.000000 0.000000 -0.328950 0.000000
# 6 0.000000 0.000000 0.000000 0.000000 0.000000 0.069003
#
#
# Mechanical properties :
#
#
# Convention : Reuss Voigt Hill
#
# Bulk Modulus (GPa) = 27.73266 67.32263 47.52764
# Shear Modulus (GPa) = -34.02446 26.48233 -3.77106
#
# Velocity S-wave (km/s) = -4.05736 3.57953 -1.35076
# Velocity P-wave (km/s) = 2.92088 7.04677 4.53461
#
# Compressibility (1/GPa) = 0.03605857
#
# Stress axis : x y z
#
# Youngs Moduli (GPa) = 26.03180 96.82304 145.89504
#
# Poissons Ratio (x) = 0.47113 0.12268
# Poissons Ratio (y) = 0.12667 0.59268
# Poissons Ratio (z) = 0.02189 0.39333
#
# Static dielectric constant tensor:
#      x y z
#    x 1.780840 0.000000 0.000000 
#    y 0.000000 1.733050 0.000000 
#    z 0.000000 0.000000 1.742040 
# 
# From -- ./inp_files/63775.got.cif
#   From: 2010.05.17/outbox.cif.g08.bks.cpg/sg63_32_cif.got.tgz:63775.got - 2010.06.03 15:47:04.
