data_PCOD9471993
_publ_section_title
;
Structure prediction by ZEFSAII (Michael W. Deem and Ramdas Pophale) SiO2 
 PCOD9471993
Probable space group: C M C M
;
_chemical_formula_sum "Si O2"
_cell_formula_units_Z 80
_cell_length_a 7.567970
_cell_length_b 16.426122
_cell_length_c 29.198750
_cell_angle_alpha 90.000000
_cell_angle_beta 90.000000
_cell_angle_gamma 90.000000
_cell_volume 3629.766646
_symmetry_space_group_name_H-M "C M C M"
_symmetry_group_IT_number 63
_symmetry_cell_setting 'orthorhombic'
loop_
_space_group_symop_operation_xyz
x,y,z
-x,-y,1/2+z
x,-y,-z
-x,y,1/2-z
-x,-y,-z
x,y,1/2-z
-x,y,z
x,-y,1/2+z
1/2+x,1/2+y,z
1/2-x,1/2-y,1/2+z
1/2+x,1/2-y,-z
1/2-x,1/2+y,1/2-z
1/2-x,1/2-y,-z
1/2+x,1/2+y,1/2-z
1/2-x,1/2+y,z
1/2+x,1/2-y,1/2+z
loop_
_atom_site_type_symbol
_atom_site_label
_atom_site_fract_x
_atom_site_fract_y
_atom_site_fract_z
Si Si1 0.294330 0.972523 0.147915
Si Si2 0.210618 0.702624 0.641643
Si Si3 0.288327 0.717626 0.050381
Si Si4 0.286465 0.134610 0.197443
Si Si5 0.214357 0.032062 0.049773
O O1 0.500000 0.972390 0.161753
O O2 0.217731 0.883702 0.159610
O O3 0.218553 0.054669 0.170445
O O4 0.281216 0.981646 0.093048
O O5 0.281664 0.726279 0.591322
O O6 0.236133 0.781162 0.673214
O O7 0.000000 0.690479 0.636938
O O8 0.500000 0.714414 0.055193
O O9 0.224569 0.625125 0.055571
O O10 0.250000 0.750000 0.000000
O O11 0.227534 0.132571 0.250000
O O12 0.500000 0.132682 0.196829
O O13 0.000000 0.029785 0.050966
O O14 0.269929 0.000000 0.000000
#
# Coordination Sequence:
#
# PCOD9471993 Si02
#       5
#    16  16  16  16  16
#     4  10  21  37  59  85 114 149 189 236 287 339
#     4  10  21  38  59  85 115 149 192 238 284 340
#     4  10  20  33  51  79 114 150 191 234 278 337
#     4  10  22  40  60  84 114 148 189 237 290 345
#     4  10  20  34  53  80 116 154 191 234 284 338
#
# _framework density 22.039982999999999
#
# number of rings (size 3 to 8) (size 9 to 14) (size 15 to 20)
#    0.000    2.000    2.000    1.200    0.000    4.000 
#    0.000    2.000    0.000    0.000    0.000    0.000 
#    0.000    0.000    0.000    0.000    0.000    0.000 
#
# Total GULP energy -223470.282747 kJ/mol
# GULP energy per Si atom -5586.757069 kJ/mol
# Density = 2.198982 g / cm^3
# Si number density = 22.039983 Si / 1000 Ang^3
#
#
#
# Elastic Constant Matrix: (Units=GPa)
#
#
# Indices 1 2 3 4 5 6 
#
# 1 47.2173 1.4111 -15.5209 0.0000 0.0000 0.0000
# 2 1.4111 211.6677 65.3940 0.0000 0.0000 0.0000
# 3 -15.5209 65.3940 107.2837 0.0000 0.0000 0.0000
# 4 0.0000 0.0000 0.0000 27.5469 0.0000 0.0000
# 5 0.0000 0.0000 0.0000 0.0000 6.9717 0.0000
# 6 0.0000 0.0000 0.0000 0.0000 0.0000 9.0036
#
#
#
# Elastic Compliance Matrix: (Units=1/GPa)
#
#
# Indices 1 2 3 4 5 6 
#
# 1 0.022582 -0.001429 0.004138 0.000000 0.000000 0.000000
# 2 -0.001429 0.005911 -0.003810 0.000000 0.000000 0.000000
# 3 0.004138 -0.003810 0.012242 0.000000 0.000000 0.000000
# 4 0.000000 0.000000 0.000000 0.036302 0.000000 0.000000
# 5 0.000000 0.000000 0.000000 0.000000 0.143436 0.000000
# 6 0.000000 0.000000 0.000000 0.000000 0.000000 0.111067
#
#
# Mechanical properties :
#
#
# Convention : Reuss Voigt Hill
#
# Bulk Modulus (GPa) = 25.95182 52.08191 39.01687
# Shear Modulus (GPa) = 14.42646 29.69674 22.06160
#
# Velocity S-wave (km/s) = 2.56121 3.67468 3.16726
# Velocity P-wave (km/s) = 4.53286 6.45649 5.57822
#
# Compressibility (1/GPa) = 0.03853294
#
# Stress axis : x y z
#
# Youngs Moduli (GPa) = 44.28390 169.17913 81.68688
#
# Poissons Ratio (x) = 0.24175 -0.33801
# Poissons Ratio (y) = 0.06328 0.31120
# Poissons Ratio (z) = -0.18324 0.64452
#
# Static dielectric constant tensor:
#      x y z
#    x 1.824880 0.000000 0.000000 
#    y 0.000000 1.833230 0.000000 
#    z 0.000000 0.000000 1.763790 
# 
# From -- ./inp_files/61112.got.cif
#   From: 2010.05.17/outbox.cif.g08.bks.cpg/sg63_31_cif.got.tgz:61112.got - 2010.06.03 15:47:04.
