data_PCOD9471020
_publ_section_title
;
Structure prediction by ZEFSAII (Michael W. Deem and Ramdas Pophale) SiO2 
 PCOD9471020
Probable space group: C M C M
;
_chemical_formula_sum "Si O2"
_cell_formula_units_Z 104
_cell_length_a 19.443010
_cell_length_b 19.192843
_cell_length_c 14.098720
_cell_angle_alpha 90.000000
_cell_angle_beta 90.000000
_cell_angle_gamma 90.000000
_cell_volume 5261.171948
_symmetry_space_group_name_H-M "C M C M"
_symmetry_group_IT_number 63
_symmetry_cell_setting 'orthorhombic'
loop_
_space_group_symop_operation_xyz
x,y,z
-x,-y,1/2+z
x,-y,-z
-x,y,1/2-z
-x,-y,-z
x,y,1/2-z
-x,y,z
x,-y,1/2+z
1/2+x,1/2+y,z
1/2-x,1/2-y,1/2+z
1/2+x,1/2-y,-z
1/2-x,1/2+y,1/2-z
1/2-x,1/2-y,-z
1/2+x,1/2+y,1/2-z
1/2-x,1/2+y,z
1/2+x,1/2-y,1/2+z
loop_
_atom_site_type_symbol
_atom_site_label
_atom_site_fract_x
_atom_site_fract_y
_atom_site_fract_z
Si Si1 0.500000 0.322937 0.636309
Si Si2 0.710739 0.914449 0.865118
Si Si3 0.649022 0.938370 0.363734
Si Si4 0.720889 0.799191 0.365027
Si Si5 0.637586 0.768774 0.863846
Si Si6 0.651186 0.654550 0.365271
Si Si7 0.500000 0.220830 0.027082
Si Si8 0.500000 0.926621 0.051541
O O1 0.500000 0.312075 0.750000
O O2 0.572028 0.359453 0.609116
O O3 0.500000 0.250558 0.579357
O O4 0.714081 0.917586 0.750000
O O5 0.663994 0.847052 0.885545
O O6 0.788378 0.897109 0.898394
O O7 0.676969 0.986604 0.896837
O O8 0.654753 0.938738 0.250000
O O9 0.693417 0.872939 0.400201
O O10 0.570212 0.924556 0.389520
O O11 0.718995 0.800398 0.250000
O O12 0.799101 0.781354 0.390652
O O13 0.673536 0.733345 0.392828
O O14 0.627524 0.764313 0.750000
O O15 0.567713 0.754538 0.918275
O O16 0.653488 0.653336 0.250000
O O17 0.500000 0.137542 0.020929
O O18 0.500000 0.000000 0.000000
#
# Coordination Sequence:
#
# PCOD9471020 Si02
#       8
#     8  16  16  16  16  16   8   8
#     4  10  20  33  51  75 104 131 162 212 264 300
#     4   8  15  29  52  76  99 133 176 211 249 303
#     4  10  19  34  55  75  99 137 174 208 256 310
#     4   8  15  29  52  77  99 124 163 213 261 305
#     4   9  18  35  55  76 102 132 169 218 262 300
#     4   8  14  28  48  71  99 131 166 209 254 297
#     4  12  23  34  52  77 102 137 177 208 248 313
#     4  12  25  35  42  70 113 142 170 212 249 295
#
# _framework density 19.767458999999999
#
# number of rings (size 3 to 8) (size 9 to 14) (size 15 to 20)
#    0.000    2.769    0.000    4.154    0.000    1.846 
#    0.000   11.538    0.000    0.923    0.000    6.462 
#    0.000    0.000    0.000    0.000    0.000    0.000 
#
# Total GULP energy -290361.687951 kJ/mol
# GULP energy per Si atom -5583.878614 kJ/mol
# Density = 1.972247 g / cm^3
# Si number density = 19.767459 Si / 1000 Ang^3
#
#
#
# Elastic Constant Matrix: (Units=GPa)
#
#
# Indices 1 2 3 4 5 6 
#
# 1 196.3371 68.0377 21.6053 0.0000 0.0000 0.0000
# 2 68.0377 99.3890 8.1247 0.0000 0.0000 0.0000
# 3 21.6053 8.1247 61.3090 0.0000 0.0000 0.0000
# 4 0.0000 0.0000 0.0000 8.8311 0.0000 0.0000
# 5 0.0000 0.0000 0.0000 0.0000 12.7629 0.0000
# 6 0.0000 0.0000 0.0000 0.0000 0.0000 21.0492
#
#
#
# Elastic Compliance Matrix: (Units=1/GPa)
#
#
# Indices 1 2 3 4 5 6 
#
# 1 0.006872 -0.004556 -0.001818 0.000000 0.000000 0.000000
# 2 -0.004556 0.013192 -0.000143 0.000000 0.000000 0.000000
# 3 -0.001818 -0.000143 0.016970 0.000000 0.000000 0.000000
# 4 0.000000 0.000000 0.000000 0.113236 0.000000 0.000000
# 5 0.000000 0.000000 0.000000 0.000000 0.078352 0.000000
# 6 0.000000 0.000000 0.000000 0.000000 0.000000 0.047508
#
#
# Mechanical properties :
#
#
# Convention : Reuss Voigt Hill
#
# Bulk Modulus (GPa) = 41.66433 61.39673 51.53053
# Shear Modulus (GPa) = 16.82575 25.81313 21.31944
#
# Velocity S-wave (km/s) = 2.92067 3.61756 3.28763
# Velocity P-wave (km/s) = 5.70059 6.96964 6.36681
#
# Compressibility (1/GPa) = 0.02400135
#
# Stress axis : x y z
#
# Youngs Moduli (GPa) = 145.51701 75.80467 58.92611
#
# Poissons Ratio (x) = 0.34534 0.10713
# Poissons Ratio (y) = 0.66293 0.00841
# Poissons Ratio (z) = 0.26455 0.01082
#
# Static dielectric constant tensor:
#      x y z
#    x 1.702950 0.000000 0.000000 
#    y 0.000000 1.677080 0.000000 
#    z 0.000000 0.000000 1.734360 
# 
# From -- ./inp_files/34222.got.cif
#   From: 2010.05.17/outbox.cif.g08.bks.cpg/sg63_18_cif.got.tgz:34222.got - 2010.06.03 15:47:04.
