data_PCOD9471552
_publ_section_title
;
Structure prediction by ZEFSAII (Michael W. Deem and Ramdas Pophale) SiO2 
 PCOD9471552
Probable space group: C M C M
;
_chemical_formula_sum "Si O2"
_cell_formula_units_Z 80
_cell_length_a 10.039217
_cell_length_b 25.217604
_cell_length_c 16.223562
_cell_angle_alpha 90.000000
_cell_angle_beta 90.000000
_cell_angle_gamma 90.000000
_cell_volume 4107.238054
_symmetry_space_group_name_H-M "C M C M"
_symmetry_group_IT_number 63
_symmetry_cell_setting 'orthorhombic'
loop_
_space_group_symop_operation_xyz
x,y,z
-x,-y,1/2+z
x,-y,-z
-x,y,1/2-z
-x,-y,-z
x,y,1/2-z
-x,y,z
x,-y,1/2+z
1/2+x,1/2+y,z
1/2-x,1/2-y,1/2+z
1/2+x,1/2-y,-z
1/2-x,1/2+y,1/2-z
1/2-x,1/2-y,-z
1/2+x,1/2+y,1/2-z
1/2-x,1/2+y,z
1/2+x,1/2-y,1/2+z
loop_
_atom_site_type_symbol
_atom_site_label
_atom_site_fract_x
_atom_site_fract_y
_atom_site_fract_z
Si Si1 0.500000 0.025623 0.250000
Si Si2 0.653747 0.842411 0.624281
Si Si3 0.000000 0.460804 0.081657
Si Si4 0.773610 0.087067 0.250000
Si Si5 0.500000 0.451018 0.435742
Si Si6 0.762046 0.618821 0.554930
Si Si7 0.500000 0.500372 0.750000
Si Si8 0.341416 0.729151 0.575864
O O1 0.632386 0.059093 0.250000
O O2 0.500000 0.994154 0.164653
O O3 0.500000 0.856236 0.645472
O O4 0.766872 0.874129 0.672472
O O5 0.677159 0.859008 0.530154
O O6 0.665799 0.779334 0.636578
O O7 0.127445 0.422227 0.085465
O O8 0.000000 0.500000 0.000000
O O9 0.877379 0.040294 0.250000
O O10 0.500000 0.500000 0.500000
O O11 0.629186 0.415651 0.454083
O O12 0.500000 0.468191 0.337951
O O13 0.718603 0.672569 0.602877
O O14 0.500000 0.722904 0.554252
O O15 0.250000 0.750000 0.500000
#
# Coordination Sequence:
#
# PCOD9471552 Si02
#       8
#     4  16   8   8   8  16   4  16
#     4  12  24  40  64  88 116 160 222 256 308 364
#     4  10  19  37  64  93 119 157 208 255 308 375
#     4  12  24  40  62  90 120 170 216 260 300 364
#     4  12  22  42  62  89 123 163 203 268 316 366
#     4  12  24  42  62  90 124 172 212 256 312 378
#     4  11  21  39  62  90 125 161 209 254 312 369
#     4  12  28  44  60  90 134 162 204 268 324 360
#     4   9  19  35  60  92 121 155 201 254 312 377
#
# _framework density 19.477810000000002
#
# number of rings (size 3 to 8) (size 9 to 14) (size 15 to 20)
#    0.000    1.200    3.000    4.200    1.400    0.000 
#    1.800    2.000    0.000    0.000    0.000    0.000 
#    0.000    0.000    0.000    0.000    0.000    0.000 
#
# Total GULP energy -222832.614955 kJ/mol
# GULP energy per Si atom -5570.815374 kJ/mol
# Density = 1.943348 g / cm^3
# Si number density = 19.477810 Si / 1000 Ang^3
#
#
#
# Elastic Constant Matrix: (Units=GPa)
#
#
# Indices 1 2 3 4 5 6 
#
# 1 122.1096 46.6869 -6.0673 0.0000 0.0000 0.0000
# 2 46.6869 137.2270 24.1968 0.0000 0.0000 0.0000
# 3 -6.0673 24.1968 62.3926 0.0000 0.0000 0.0000
# 4 0.0000 0.0000 0.0000 -0.5308 0.0000 0.0000
# 5 0.0000 0.0000 0.0000 0.0000 5.3094 0.0000
# 6 0.0000 0.0000 0.0000 0.0000 0.0000 28.3386
#
#
#
# Elastic Compliance Matrix: (Units=1/GPa)
#
#
# Indices 1 2 3 4 5 6 
#
# 1 0.009736 -0.003735 0.002395 0.000000 0.000000 0.000000
# 2 -0.003735 0.009255 -0.003952 0.000000 0.000000 0.000000
# 3 0.002395 -0.003952 0.017793 0.000000 0.000000 0.000000
# 4 0.000000 0.000000 0.000000 -1.883778 0.000000 0.000000
# 5 0.000000 0.000000 0.000000 0.000000 0.188345 0.000000
# 6 0.000000 0.000000 0.000000 0.000000 0.000000 0.035288
#
#
# Mechanical properties :
#
#
# Convention : Reuss Voigt Hill
#
# Bulk Modulus (GPa) = 38.16724 50.15133 44.15928
# Shear Modulus (GPa) = -3.11712 23.75096 10.31692
#
# Velocity S-wave (km/s) = -1.26642 3.49576 2.30396
# Velocity P-wave (km/s) = 4.18322 6.48827 5.45880
#
# Compressibility (1/GPa) = 0.02620048
#
# Stress axis : x y z
#
# Youngs Moduli (GPa) = 102.70820 108.05288 56.20115
#
# Poissons Ratio (x) = 0.40356 -0.13461
# Poissons Ratio (y) = 0.38359 0.22212
# Poissons Ratio (z) = -0.24601 0.42706
#
# Static dielectric constant tensor:
#      x y z
#    x 1.793410 0.000000 0.000000 
#    y 0.000000 1.733330 0.000000 
#    z 0.000000 0.000000 1.699540 
# 
# From -- ./inp_files/42241.got.cif
#   From: 2010.05.17/outbox.cif.g08.bks.cpg/sg63_22_cif.got.tgz:42241.got - 2010.06.03 15:47:04.
