data_PCOD9471436
_publ_section_title
;
Structure prediction by ZEFSAII (Michael W. Deem and Ramdas Pophale) SiO2 
 PCOD9471436
Probable space group: C M C M
;
_chemical_formula_sum "Si O2"
_cell_formula_units_Z 112
_cell_length_a 14.336524
_cell_length_b 17.430675
_cell_length_c 23.215088
_cell_angle_alpha 90.000000
_cell_angle_beta 90.000000
_cell_angle_gamma 90.000000
_cell_volume 5801.341159
_symmetry_space_group_name_H-M "C M C M"
_symmetry_group_IT_number 63
_symmetry_cell_setting 'orthorhombic'
loop_
_space_group_symop_operation_xyz
x,y,z
-x,-y,1/2+z
x,-y,-z
-x,y,1/2-z
-x,-y,-z
x,y,1/2-z
-x,y,z
x,-y,1/2+z
1/2+x,1/2+y,z
1/2-x,1/2-y,1/2+z
1/2+x,1/2-y,-z
1/2-x,1/2+y,1/2-z
1/2-x,1/2-y,-z
1/2+x,1/2+y,1/2-z
1/2-x,1/2+y,z
1/2+x,1/2-y,1/2+z
loop_
_atom_site_type_symbol
_atom_site_label
_atom_site_fract_x
_atom_site_fract_y
_atom_site_fract_z
Si Si1 0.606733 0.883573 0.819153
Si Si2 0.601415 0.465447 0.141671
Si Si3 0.101407 0.177634 0.559223
Si Si4 0.308210 0.958136 0.183101
Si Si5 0.168195 0.930520 0.539362
Si Si6 0.757428 0.704968 0.394450
Si Si7 0.112099 0.293597 0.180650
O O1 0.614444 0.883135 0.750000
O O2 0.500000 0.872435 0.835082
O O3 0.669883 0.817465 0.844921
O O4 0.641860 0.966571 0.841189
O O5 0.500000 0.476539 0.170193
O O6 0.602560 0.381644 0.112443
O O7 0.697235 0.469255 0.176803
O O8 0.611731 0.526961 0.089914
O O9 0.109850 0.123420 0.503424
O O10 0.189898 0.232569 0.566386
O O11 0.000000 0.217308 0.558178
O O12 0.333213 0.956429 0.250000
O O13 0.345996 0.876509 0.161779
O O14 0.237868 0.871482 0.569322
O O15 0.208276 0.000000 0.500000
O O16 0.665054 0.734321 0.361341
O O17 0.131630 0.281620 0.250000
O O18 0.000000 0.292002 0.174217
#
# Coordination Sequence:
#
# PCOD9471436 Si02
#       7
#    16  16  16  16  16  16  16
#     4  10  21  37  59  87 117 155 195 231 283 349
#     4  10  19  36  59  82 111 151 194 238 286 340
#     4  10  21  37  58  85 113 148 194 242 294 344
#     4  10  19  37  59  83 116 152 194 236 277 343
#     4  10  22  39  59  81 114 152 197 241 288 342
#     4  12  21  37  62  86 119 152 187 244 291 345
#     4  10  22  39  60  88 120 153 189 232 287 348
#
# _framework density 19.305879999999998
#
# number of rings (size 3 to 8) (size 9 to 14) (size 15 to 20)
#    0.000    1.714    2.857    2.143    0.000    4.857 
#    0.000    0.000    0.000    1.714    0.000    0.000 
#    0.000    0.000    0.000    0.000    0.000    0.000 
#
# Total GULP energy -312126.952744 kJ/mol
# GULP energy per Si atom -5573.695585 kJ/mol
# Density = 1.926194 g / cm^3
# Si number density = 19.305880 Si / 1000 Ang^3
#
#
#
# Elastic Constant Matrix: (Units=GPa)
#
#
# Indices 1 2 3 4 5 6 
#
# 1 100.6840 40.4871 13.5678 0.0000 0.0000 0.0000
# 2 40.4871 85.5839 26.0730 0.0000 0.0000 0.0000
# 3 13.5678 26.0730 29.8918 0.0000 0.0000 0.0000
# 4 0.0000 0.0000 0.0000 24.1025 0.0000 0.0000
# 5 0.0000 0.0000 0.0000 0.0000 12.2511 0.0000
# 6 0.0000 0.0000 0.0000 0.0000 0.0000 18.3097
#
#
#
# Elastic Compliance Matrix: (Units=1/GPa)
#
#
# Indices 1 2 3 4 5 6 
#
# 1 0.012276 -0.005597 -0.000690 0.000000 0.000000 0.000000
# 2 -0.005597 0.018465 -0.013565 0.000000 0.000000 0.000000
# 3 -0.000690 -0.013565 0.045600 0.000000 0.000000 0.000000
# 4 0.000000 0.000000 0.000000 0.041489 0.000000 0.000000
# 5 0.000000 0.000000 0.000000 0.000000 0.081625 0.000000
# 6 0.000000 0.000000 0.000000 0.000000 0.000000 0.054616
#
#
# Mechanical properties :
#
#
# Convention : Reuss Voigt Hill
#
# Bulk Modulus (GPa) = 27.29605 41.82396 34.56001
# Shear Modulus (GPa) = 16.34054 20.00145 18.17099
#
# Velocity S-wave (km/s) = 2.91246 3.22223 3.07125
# Velocity P-wave (km/s) = 5.04770 5.96277 5.52421
#
# Compressibility (1/GPa) = 0.03663533
#
# Stress axis : x y z
#
# Youngs Moduli (GPa) = 81.46142 54.15662 21.93005
#
# Poissons Ratio (x) = 0.30312 0.01513
# Poissons Ratio (y) = 0.45595 0.29749
# Poissons Ratio (z) = 0.05620 0.73466
#
# Static dielectric constant tensor:
#      x y z
#    x 1.675440 0.000000 0.000000 
#    y 0.000000 1.693640 0.000000 
#    z 0.000000 0.000000 1.677020 
# 
# From -- ./inp_files/62966.got.cif
#   From: 2010.05.17/outbox.cif.g08.bks.cpg/sg63_32_cif.got.tgz:62966.got - 2010.06.03 15:47:04.
