data_PCOD9471234
_publ_section_title
;
Structure prediction by ZEFSAII (Michael W. Deem and Ramdas Pophale) SiO2 
 PCOD9471234
Probable space group: C M C M
;
_chemical_formula_sum "Si O2"
_cell_formula_units_Z 112
_cell_length_a 14.026031
_cell_length_b 32.931812
_cell_length_c 14.061020
_cell_angle_alpha 90.000000
_cell_angle_beta 90.000000
_cell_angle_gamma 90.000000
_cell_volume 6494.821922
_symmetry_space_group_name_H-M "C M C M"
_symmetry_group_IT_number 63
_symmetry_cell_setting 'orthorhombic'
loop_
_space_group_symop_operation_xyz
x,y,z
-x,-y,1/2+z
x,-y,-z
-x,y,1/2-z
-x,-y,-z
x,y,1/2-z
-x,y,z
x,-y,1/2+z
1/2+x,1/2+y,z
1/2-x,1/2-y,1/2+z
1/2+x,1/2-y,-z
1/2-x,1/2+y,1/2-z
1/2-x,1/2-y,-z
1/2+x,1/2+y,1/2-z
1/2-x,1/2+y,z
1/2+x,1/2-y,1/2+z
loop_
_atom_site_type_symbol
_atom_site_label
_atom_site_fract_x
_atom_site_fract_y
_atom_site_fract_z
Si Si1 0.113348 0.440982 0.047398
Si Si2 0.884054 0.809578 0.641209
Si Si3 0.105594 0.035588 0.421835
Si Si4 0.687716 0.022354 0.143586
Si Si5 0.710846 0.136831 0.863544
Si Si6 0.890295 0.719694 0.634479
Si Si7 0.389211 0.375744 0.014942
O O1 0.162136 0.476883 0.108835
O O2 0.149162 0.398035 0.085791
O O3 0.000000 0.444902 0.055895
O O4 0.143995 0.449036 0.938355
O O5 0.851367 0.816570 0.750000
O O6 0.854853 0.764593 0.606778
O O7 0.858023 0.845091 0.569087
O O8 0.000000 0.808581 0.644634
O O9 0.198343 0.028483 0.358788
O O10 0.116875 0.078586 0.475089
O O11 0.000000 0.035445 0.376038
O O12 0.106930 0.000000 0.500000
O O13 0.651496 0.029397 0.250000
O O14 0.701461 0.133021 0.750000
O O15 0.672824 0.181281 0.892801
O O16 0.818740 0.130483 0.897668
O O17 0.892630 0.720811 0.750000
O O18 0.000000 0.714170 0.602466
O O19 0.500000 0.367639 0.037950
#
# Coordination Sequence:
#
# PCOD9471234 Si02
#       7
#    16  16  16  16  16  16  16
#     4  11  23  39  56  79 107 137 179 221 264 321
#     4   8  15  30  52  77 106 136 169 214 266 317
#     4  10  19  35  55  75 108 143 176 217 257 305
#     4  11  21  36  57  80 107 138 175 218 268 316
#     4  11  21  34  53  77 105 139 180 222 268 316
#     4   8  15  29  50  77 105 133 169 217 267 313
#     4  10  20  34  52  76 105 139 179 219 264 319
#
# _framework density 17.244506999999999
#
# number of rings (size 3 to 8) (size 9 to 14) (size 15 to 20)
#    0.000    2.143    2.857    2.571    0.000    4.286 
#    0.000    1.429    0.000    4.286    0.000    0.000 
#    0.000    3.429    0.000    0.000    0.000    0.000 
#
# Total GULP energy -312225.956419 kJ/mol
# GULP energy per Si atom -5575.463507 kJ/mol
# Density = 1.720526 g / cm^3
# Si number density = 17.244507 Si / 1000 Ang^3
#
#
#
# Elastic Constant Matrix: (Units=GPa)
#
#
# Indices 1 2 3 4 5 6 
#
# 1 78.9712 29.9888 15.3229 0.0000 0.0000 0.0000
# 2 29.9888 133.9511 43.0939 0.0000 0.0000 0.0000
# 3 15.3229 43.0939 75.8528 0.0000 0.0000 0.0000
# 4 0.0000 0.0000 0.0000 11.0858 0.0000 0.0000
# 5 0.0000 0.0000 0.0000 0.0000 4.5885 0.0000
# 6 0.0000 0.0000 0.0000 0.0000 0.0000 66.9304
#
#
#
# Elastic Compliance Matrix: (Units=1/GPa)
#
#
# Indices 1 2 3 4 5 6 
#
# 1 0.013940 -0.002710 -0.001276 0.000000 0.000000 0.000000
# 2 -0.002710 0.009662 -0.004942 0.000000 0.000000 0.000000
# 3 -0.001276 -0.004942 0.016249 0.000000 0.000000 0.000000
# 4 0.000000 0.000000 0.000000 0.090206 0.000000 0.000000
# 5 0.000000 0.000000 0.000000 0.000000 0.217937 0.000000
# 6 0.000000 0.000000 0.000000 0.000000 0.000000 0.014941
#
#
# Mechanical properties :
#
#
# Convention : Reuss Voigt Hill
#
# Bulk Modulus (GPa) = 45.46669 51.73181 48.59925
# Shear Modulus (GPa) = 12.88256 29.87890 21.38073
#
# Velocity S-wave (km/s) = 2.73619 4.16704 3.52498
# Velocity P-wave (km/s) = 6.03369 7.29496 6.69410
#
# Compressibility (1/GPa) = 0.02199413
#
# Stress axis : x y z
#
# Youngs Moduli (GPa) = 71.73779 103.49825 61.54311
#
# Poissons Ratio (x) = 0.28050 0.07854
# Poissons Ratio (y) = 0.19443 0.30413
# Poissons Ratio (z) = 0.09155 0.51146
#
# Static dielectric constant tensor:
#      x y z
#    x 1.593380 0.000000 0.000000 
#    y 0.000000 1.588050 0.000000 
#    z 0.000000 0.000000 1.574160 
# 
# From -- ./inp_files/32794.got.cif
#   From: 2010.05.17/outbox.cif.g08.bks.cpg/sg63_17_cif.got.tgz:32794.got - 2010.06.03 15:47:04.
