data_PCOD9471192
_publ_section_title
;
Structure prediction by ZEFSAII (Michael W. Deem and Ramdas Pophale) SiO2 
 PCOD9471192
Probable space group: C M C M
;
_chemical_formula_sum "Si O2"
_cell_formula_units_Z 116
_cell_length_a 9.491187
_cell_length_b 29.819422
_cell_length_c 22.472437
_cell_angle_alpha 90.000000
_cell_angle_beta 90.000000
_cell_angle_gamma 90.000000
_cell_volume 6360.187557
_symmetry_space_group_name_H-M "C M C M"
_symmetry_group_IT_number 63
_symmetry_cell_setting 'orthorhombic'
loop_
_space_group_symop_operation_xyz
x,y,z
-x,-y,1/2+z
x,-y,-z
-x,y,1/2-z
-x,-y,-z
x,y,1/2-z
-x,y,z
x,-y,1/2+z
1/2+x,1/2+y,z
1/2-x,1/2-y,1/2+z
1/2+x,1/2-y,-z
1/2-x,1/2+y,1/2-z
1/2-x,1/2-y,-z
1/2+x,1/2+y,1/2-z
1/2-x,1/2+y,z
1/2+x,1/2-y,1/2+z
loop_
_atom_site_type_symbol
_atom_site_label
_atom_site_fract_x
_atom_site_fract_y
_atom_site_fract_z
Si Si1 0.166273 0.039059 0.685159
Si Si2 0.667005 0.804000 0.056667
Si Si3 0.166489 0.109008 0.586135
Si Si4 0.334972 0.451689 0.529006
Si Si5 0.332583 0.212858 0.418102
Si Si6 0.159534 0.160201 0.319002
Si Si7 0.254659 0.437992 0.656122
Si Si8 0.500000 0.067055 0.250000
O O1 0.231094 0.047825 0.750000
O O2 0.217942 0.072278 0.634073
O O3 0.000000 0.047672 0.688192
O O4 0.182160 0.986717 0.670945
O O5 0.500000 0.800647 0.068513
O O6 0.738985 0.847052 0.085961
O O7 0.749381 0.759904 0.078718
O O8 0.684988 0.807162 0.984761
O O9 0.175038 0.085114 0.522180
O O10 0.000000 0.119534 0.596139
O O11 0.303495 0.500000 0.500000
O O12 0.500000 0.453638 0.549337
O O13 0.238536 0.439930 0.584897
O O14 0.500000 0.219033 0.408154
O O15 0.263930 0.182475 0.366669
O O16 0.200946 0.168477 0.250000
O O17 0.158420 0.106721 0.329405
O O18 0.000000 0.177255 0.327900
O O19 0.120592 0.433440 0.697770
#
# Coordination Sequence:
#
# PCOD9471192 Si02
#       8
#    16  16  16  16  16  16  16   4
#     4  10  19  35  60  85 111 153 203 251 293 350
#     4  10  21  40  61  89 118 153 199 246 300 363
#     4  10  20  36  59  89 123 154 198 254 306 363
#     4  10  19  34  59  90 118 151 200 259 312 359
#     4  10  22  39  65  89 118 152 192 245 304 363
#     4  11  23  38  61  91 120 158 201 246 301 367
#     4  12  22  39  56  80 122 165 208 248 300 351
#     4  12  28  40  52  80 120 180 212 260 284 376
#
# _framework density 18.238457
#
# number of rings (size 3 to 8) (size 9 to 14) (size 15 to 20)
#    0.000    1.517    2.759    2.897    0.966    4.138 
#    2.483    1.034    0.000    2.483    0.000    0.000 
#    0.000    0.000    0.000    0.000    0.000    0.000 
#
# Total GULP energy -323027.554811 kJ/mol
# GULP energy per Si atom -5569.440600 kJ/mol
# Density = 1.819695 g / cm^3
# Si number density = 18.238457 Si / 1000 Ang^3
#
#
#
# Elastic Constant Matrix: (Units=GPa)
#
#
# Indices 1 2 3 4 5 6 
#
# 1 88.6667 56.4686 60.7349 0.0000 0.0000 0.0000
# 2 56.4686 101.4783 50.9688 0.0000 0.0000 0.0000
# 3 60.7349 50.9688 130.2917 0.0000 0.0000 0.0000
# 4 0.0000 0.0000 0.0000 15.1255 0.0000 0.0000
# 5 0.0000 0.0000 0.0000 0.0000 248.0998 0.0000
# 6 0.0000 0.0000 0.0000 0.0000 0.0000 182.8881
#
#
#
# Elastic Compliance Matrix: (Units=1/GPa)
#
#
# Indices 1 2 3 4 5 6 
#
# 1 0.021171 -0.008493 -0.006547 0.000000 0.000000 0.000000
# 2 -0.008493 0.015671 -0.002171 0.000000 0.000000 0.000000
# 3 -0.006547 -0.002171 0.011576 0.000000 0.000000 0.000000
# 4 0.000000 0.000000 0.000000 0.066113 0.000000 0.000000
# 5 0.000000 0.000000 0.000000 0.000000 0.004031 0.000000
# 6 0.000000 0.000000 0.000000 0.000000 0.000000 0.005468
#
#
# Mechanical properties :
#
#
# Convention : Reuss Voigt Hill
#
# Bulk Modulus (GPa) = 71.44551 72.97568 72.21059
# Shear Modulus (GPa) = 30.65280 99.37364 65.01322
#
# Velocity S-wave (km/s) = 4.10404 7.38946 5.97692
# Velocity P-wave (km/s) = 7.85593 10.62564 9.34398
#
# Compressibility (1/GPa) = 0.01399668
#
# Stress axis : x y z
#
# Youngs Moduli (GPa) = 47.23388 63.81275 86.38446
#
# Poissons Ratio (x) = 0.54195 0.56552
# Poissons Ratio (y) = 0.40115 0.18757
# Poissons Ratio (z) = 0.30922 0.13856
#
# Static dielectric constant tensor:
#      x y z
#    x 1.595090 0.000000 0.000000 
#    y 0.000000 1.616900 0.000000 
#    z 0.000000 0.000000 1.651520 
# 
# From -- ./inp_files/60450.got.cif
#   From: 2010.05.17/outbox.cif.g08.bks.cpg/sg63_31_cif.got.tgz:60450.got - 2010.06.03 15:47:04.
