data_PCOD9471662
_publ_section_title
;
Structure prediction by ZEFSAII (Michael W. Deem and Ramdas Pophale) SiO2 
 PCOD9471662
Probable space group: C M C M
;
_chemical_formula_sum "Si O2"
_cell_formula_units_Z 100
_cell_length_a 7.256905
_cell_length_b 20.195188
_cell_length_c 30.875107
_cell_angle_alpha 90.000000
_cell_angle_beta 90.000000
_cell_angle_gamma 90.000000
_cell_volume 4524.887745
_symmetry_space_group_name_H-M "C M C M"
_symmetry_group_IT_number 63
_symmetry_cell_setting 'orthorhombic'
loop_
_space_group_symop_operation_xyz
x,y,z
-x,-y,1/2+z
x,-y,-z
-x,y,1/2-z
-x,-y,-z
x,y,1/2-z
-x,y,z
x,-y,1/2+z
1/2+x,1/2+y,z
1/2-x,1/2-y,1/2+z
1/2+x,1/2-y,-z
1/2-x,1/2+y,1/2-z
1/2-x,1/2-y,-z
1/2+x,1/2+y,1/2-z
1/2-x,1/2+y,z
1/2+x,1/2-y,1/2+z
loop_
_atom_site_type_symbol
_atom_site_label
_atom_site_fract_x
_atom_site_fract_y
_atom_site_fract_z
Si Si1 0.778454 0.737524 0.579996
Si Si2 0.778649 0.231567 0.320062
Si Si3 0.790497 0.908804 0.450145
Si Si4 0.275676 0.626249 0.042727
Si Si5 0.776014 0.019485 0.113791
Si Si6 0.223446 0.921291 0.798316
Si Si7 0.000000 0.218513 0.750000
O O1 0.735036 0.753897 0.629860
O O2 0.706923 0.666622 0.565674
O O3 0.715244 0.798454 0.550124
O O4 0.000000 0.734415 0.576887
O O5 0.730368 0.155148 0.308709
O O6 0.660956 0.276110 0.287901
O O7 0.000000 0.238753 0.314253
O O8 0.708752 0.906518 0.498272
O O9 0.000000 0.933359 0.456070
O O10 0.711095 0.955567 0.412842
O O11 0.500000 0.627551 0.040799
O O12 0.227402 0.582469 0.084201
O O13 0.712418 0.032148 0.162626
O O14 0.000000 0.016801 0.116367
O O15 0.286864 0.938133 0.750000
O O16 0.000000 0.923825 0.797913
#
# Coordination Sequence:
#
# PCOD9471662 Si02
#       7
#    16  16  16  16  16  16   4
#     4  10  20  35  55  74 110 154 189 224 285 354
#     4  10  20  35  56  85 115 151 187 240 293 346
#     4  10  20  31  51  80 114 144 187 241 287 342
#     4   9  16  30  53  81 105 144 195 239 280 337
#     4   9  16  29  51  79 108 140 187 241 289 340
#     4   9  15  28  53  77 102 138 187 231 280 342
#     4  12  22  32  60  90 120 142 192 248 298 342
#
# _framework density 22.099996999999998
#
# number of rings (size 3 to 8) (size 9 to 14) (size 15 to 20)
#    0.000    2.400    2.400    1.200    1.120    1.920 
#    0.000    0.000    3.520    2.880    0.000    0.000 
#    0.000    0.000    0.000    0.000    0.000    0.000 
#
# Total GULP energy -278824.169448 kJ/mol
# GULP energy per Si atom -5576.483389 kJ/mol
# Density = 2.204970 g / cm^3
# Si number density = 22.099997 Si / 1000 Ang^3
#
#
#
# Elastic Constant Matrix: (Units=GPa)
#
#
# Indices 1 2 3 4 5 6 
#
# 1 101.5919 -12.2203 7.3312 0.0000 0.0000 0.0000
# 2 -12.2203 65.4948 24.9933 0.0000 0.0000 0.0000
# 3 7.3312 24.9933 166.2933 0.0000 0.0000 0.0000
# 4 0.0000 0.0000 0.0000 9.3986 0.0000 0.0000
# 5 0.0000 0.0000 0.0000 0.0000 -26.7572 0.0000
# 6 0.0000 0.0000 0.0000 0.0000 0.0000 -1.8715
#
#
#
# Elastic Compliance Matrix: (Units=1/GPa)
#
#
# Indices 1 2 3 4 5 6 
#
# 1 0.010163 0.002193 -0.000778 0.000000 0.000000 0.000000
# 2 0.002193 0.016671 -0.002602 0.000000 0.000000 0.000000
# 3 -0.000778 -0.002602 0.006439 0.000000 0.000000 0.000000
# 4 0.000000 0.000000 0.000000 0.106399 0.000000 0.000000
# 5 0.000000 0.000000 0.000000 0.000000 -0.037373 0.000000
# 6 0.000000 0.000000 0.000000 0.000000 0.000000 -0.534331
#
#
# Mechanical properties :
#
#
# Convention : Reuss Voigt Hill
#
# Bulk Modulus (GPa) = 32.36345 41.50980 36.93663
# Shear Modulus (GPa) = -11.92293 17.03904 2.55806
#
# Velocity S-wave (km/s) = -2.32523 2.77970 1.07704
# Velocity P-wave (km/s) = 2.73257 5.39683 4.27743
#
# Compressibility (1/GPa) = 0.03089905
#
# Stress axis : x y z
#
# Youngs Moduli (GPa) = 98.39398 59.98586 155.30703
#
# Poissons Ratio (x) = -0.13155 0.12078
# Poissons Ratio (y) = -0.21578 0.40414
# Poissons Ratio (z) = 0.07652 0.15610
#
# Static dielectric constant tensor:
#      x y z
#    x 1.903990 0.000000 0.000000 
#    y 0.000000 1.773850 0.000000 
#    z 0.000000 0.000000 1.796140 
# 
# From -- ./inp_files/71927.got.cif
#   From: 2010.05.17/outbox.cif.g08.bks.cpg/sg63_36_cif.got.tgz:71927.got - 2010.06.03 15:47:04.
