data_PCOD9471295
_publ_section_title
;
Structure prediction by ZEFSAII (Michael W. Deem and Ramdas Pophale) SiO2 
 PCOD9471295
Probable space group: C M C M
;
_chemical_formula_sum "Si O2"
_cell_formula_units_Z 96
_cell_length_a 22.756143
_cell_length_b 23.445255
_cell_length_c 10.328661
_cell_angle_alpha 90.000000
_cell_angle_beta 90.000000
_cell_angle_gamma 90.000000
_cell_volume 5510.584146
_symmetry_space_group_name_H-M "C M C M"
_symmetry_group_IT_number 63
_symmetry_cell_setting 'orthorhombic'
loop_
_space_group_symop_operation_xyz
x,y,z
-x,-y,1/2+z
x,-y,-z
-x,y,1/2-z
-x,-y,-z
x,y,1/2-z
-x,y,z
x,-y,1/2+z
1/2+x,1/2+y,z
1/2-x,1/2-y,1/2+z
1/2+x,1/2-y,-z
1/2-x,1/2+y,1/2-z
1/2-x,1/2-y,-z
1/2+x,1/2+y,1/2-z
1/2-x,1/2+y,z
1/2+x,1/2-y,1/2+z
loop_
_atom_site_type_symbol
_atom_site_label
_atom_site_fract_x
_atom_site_fract_y
_atom_site_fract_z
Si Si1 0.246135 0.939544 0.250000
Si Si2 0.618807 0.051018 0.750000
Si Si3 0.929881 0.379297 0.013211
Si Si4 0.571276 0.247668 0.895540
Si Si5 0.769374 0.923081 0.750000
Si Si6 0.929677 0.844728 0.401965
Si Si7 0.866576 0.585730 0.250000
Si Si8 0.334997 0.568466 0.510252
O O1 0.314537 0.925563 0.250000
O O2 0.212341 0.919612 0.122668
O O3 0.240036 0.008291 0.250000
O O4 0.586980 0.074470 0.622153
O O5 0.623735 0.982752 0.750000
O O6 0.913030 0.316999 0.067869
O O7 0.000000 0.380293 0.992348
O O8 0.896828 0.391002 0.879508
O O9 0.591994 0.261819 0.750000
O O10 0.500000 0.249226 0.892589
O O11 0.589071 0.292317 0.005979
O O12 0.702933 0.900205 0.750000
O O13 0.807075 0.909723 0.623158
O O14 0.917304 0.834192 0.250000
O O15 0.894417 0.899837 0.450417
O O16 0.000000 0.852313 0.414613
O O17 0.343449 0.500000 0.500000
#
# Coordination Sequence:
#
# PCOD9471295 Si02
#       8
#     8   8  16  16   8  16   8  16
#     4   9  18  35  56  77 104 149 193 221 266 324
#     4  11  21  36  58  81 111 146 186 233 276 328
#     4  11  22  36  56  82 113 149 183 225 283 336
#     4   9  19  37  57  78 107 147 191 223 261 328
#     4   9  20  35  54  79 108 147 193 223 254 326
#     4  10  21  36  58  87 114 141 178 227 278 325
#     4  11  23  36  54  85 115 144 184 231 278 326
#     4  10  19  35  58  83 113 147 182 223 271 324
#
# _framework density 17.421019999999999
#
# number of rings (size 3 to 8) (size 9 to 14) (size 15 to 20)
#    0.000    2.000    1.667    2.000    2.333    5.000 
#    0.000    0.000    0.000    6.000    0.000    0.000 
#    0.000    0.000    0.000    0.000    0.000    0.000 
#
# Total GULP energy -267773.814537 kJ/mol
# GULP energy per Si atom -5578.621136 kJ/mol
# Density = 1.738137 g / cm^3
# Si number density = 17.421020 Si / 1000 Ang^3
#
#
#
# Elastic Constant Matrix: (Units=GPa)
#
#
# Indices 1 2 3 4 5 6 
#
# 1 67.1978 28.8910 54.3918 0.0000 0.0000 0.0000
# 2 28.8910 63.7804 45.3566 0.0000 0.0000 0.0000
# 3 54.3918 45.3566 177.7346 0.0000 0.0000 0.0000
# 4 0.0000 0.0000 0.0000 16.2234 0.0000 0.0000
# 5 0.0000 0.0000 0.0000 0.0000 25.0533 0.0000
# 6 0.0000 0.0000 0.0000 0.0000 0.0000 -7.8362
#
#
#
# Elastic Compliance Matrix: (Units=1/GPa)
#
#
# Indices 1 2 3 4 5 6 
#
# 1 0.021628 -0.006219 -0.005032 0.000000 0.000000 0.000000
# 2 -0.006219 0.020943 -0.003441 0.000000 0.000000 0.000000
# 3 -0.005032 -0.003441 0.008044 0.000000 0.000000 0.000000
# 4 0.000000 0.000000 0.000000 0.061639 0.000000 0.000000
# 5 0.000000 0.000000 0.000000 0.000000 0.039915 0.000000
# 6 0.000000 0.000000 0.000000 0.000000 0.000000 -0.127613
#
#
# Mechanical properties :
#
#
# Convention : Reuss Voigt Hill
#
# Bulk Modulus (GPa) = 47.09945 62.88796 54.99371
# Shear Modulus (GPa) = 81.94292 18.69299 50.31795
#
# Velocity S-wave (km/s) = 6.86578 3.27924 5.38016
# Velocity P-wave (km/s) = 9.48402 7.10740 8.38039
#
# Compressibility (1/GPa) = 0.02123167
#
# Stress axis : x y z
#
# Youngs Moduli (GPa) = 46.23642 47.74861 124.30903
#
# Poissons Ratio (x) = 0.29693 0.62550
# Poissons Ratio (y) = 0.28753 0.42780
# Poissons Ratio (z) = 0.23265 0.16432
#
# Static dielectric constant tensor:
#      x y z
#    x 1.572460 0.000000 0.000000 
#    y 0.000000 1.578690 0.000000 
#    z 0.000000 0.000000 1.591380 
# 
# From -- ./inp_files/10583.got.cif
#   From: 2010.05.17/outbox.cif.g08.bks.cpg/sg63_6_cif.got.tgz:10583.got - 2010.06.03 15:47:04.
