data_PCOD9471572
_publ_section_title
;
Structure prediction by ZEFSAII (Michael W. Deem and Ramdas Pophale) SiO2 
 PCOD9471572
Probable space group: C M C M
;
_chemical_formula_sum "Si O2"
_cell_formula_units_Z 80
_cell_length_a 24.443301
_cell_length_b 5.360641
_cell_length_c 27.011950
_cell_angle_alpha 90.000000
_cell_angle_beta 90.000000
_cell_angle_gamma 90.000000
_cell_volume 3539.423390
_symmetry_space_group_name_H-M "C M C M"
_symmetry_group_IT_number 63
_symmetry_cell_setting 'orthorhombic'
loop_
_space_group_symop_operation_xyz
x,y,z
-x,-y,1/2+z
x,-y,-z
-x,y,1/2-z
-x,-y,-z
x,y,1/2-z
-x,y,z
x,-y,1/2+z
1/2+x,1/2+y,z
1/2-x,1/2-y,1/2+z
1/2+x,1/2-y,-z
1/2-x,1/2+y,1/2-z
1/2-x,1/2-y,-z
1/2+x,1/2+y,1/2-z
1/2-x,1/2+y,z
1/2+x,1/2-y,1/2+z
loop_
_atom_site_type_symbol
_atom_site_label
_atom_site_fract_x
_atom_site_fract_y
_atom_site_fract_z
Si Si1 0.936538 0.279846 0.555343
Si Si2 0.715296 0.420048 0.894386
Si Si3 0.892825 0.780989 0.943402
Si Si4 0.438256 0.044360 0.309666
Si Si5 0.870937 0.041581 0.191209
O O1 0.905475 0.511377 0.579664
O O2 0.910723 0.250150 0.500420
O O3 0.000000 0.340260 0.550642
O O4 0.928585 0.007223 0.577962
O O5 0.742475 0.691415 0.898403
O O6 0.668988 0.365577 0.935524
O O7 0.682119 0.415652 0.842654
O O8 0.443335 0.061967 0.250000
O O9 0.500000 0.065433 0.330766
O O10 0.399854 0.279644 0.322102
O O11 0.411202 0.775060 0.318080
O O12 0.858059 0.038216 0.250000
#
# Coordination Sequence:
#
# PCOD9471572 Si02
#       5
#    16  16  16  16  16
#     4  10  19  38  65  92 123 149 179 225 279 353
#     4  12  26  43  58  79 116 155 200 257 295 323
#     4  10  20  37  59  87 117 151 187 228 285 343
#     4   9  17  33  57  85 115 142 174 227 294 357
#     4  10  21  38  60  84 112 153 202 244 287 344
#
# _framework density 22.602550999999998
#
# number of rings (size 3 to 8) (size 9 to 14) (size 15 to 20)
#    0.000    1.800    0.000    6.000    0.000    3.200 
#    0.000   20.000    0.000    0.000    0.000    0.000 
#    0.000    0.000    0.000    0.000    0.000    0.000 
#
# Total GULP energy -223620.696722 kJ/mol
# GULP energy per Si atom -5590.517418 kJ/mol
# Density = 2.255111 g / cm^3
# Si number density = 22.602551 Si / 1000 Ang^3
#
#
#
# Elastic Constant Matrix: (Units=GPa)
#
#
# Indices 1 2 3 4 5 6 
#
# 1 83.3048 13.6529 3.3124 0.0000 0.0000 0.0000
# 2 13.6529 173.5052 1.5220 0.0000 0.0000 0.0000
# 3 3.3124 1.5220 86.7408 0.0000 0.0000 0.0000
# 4 0.0000 0.0000 0.0000 28.4371 0.0000 0.0000
# 5 0.0000 0.0000 0.0000 0.0000 41.7305 0.0000
# 6 0.0000 0.0000 0.0000 0.0000 0.0000 39.6449
#
#
#
# Elastic Compliance Matrix: (Units=1/GPa)
#
#
# Indices 1 2 3 4 5 6 
#
# 1 0.012178 -0.000954 -0.000448 0.000000 0.000000 0.000000
# 2 -0.000954 0.005839 -0.000066 0.000000 0.000000 0.000000
# 3 -0.000448 -0.000066 0.011547 0.000000 0.000000 0.000000
# 4 0.000000 0.000000 0.000000 0.035165 0.000000 0.000000
# 5 0.000000 0.000000 0.000000 0.000000 0.023963 0.000000
# 6 0.000000 0.000000 0.000000 0.000000 0.000000 0.025224
#
#
# Mechanical properties :
#
#
# Convention : Reuss Voigt Hill
#
# Bulk Modulus (GPa) = 37.55583 42.28062 39.91823
# Shear Modulus (GPa) = 39.76775 43.63340 41.70057
#
# Velocity S-wave (km/s) = 4.19911 4.39847 4.29995
# Velocity P-wave (km/s) = 6.33734 6.67399 6.50784
#
# Compressibility (1/GPa) = 0.02662702
#
# Stress axis : x y z
#
# Youngs Moduli (GPa) = 82.11298 171.25654 86.60349
#
# Poissons Ratio (x) = 0.16344 0.03883
# Poissons Ratio (y) = 0.07837 0.00572
# Poissons Ratio (z) = 0.03681 0.01131
#
# Static dielectric constant tensor:
#      x y z
#    x 1.797820 0.000000 0.000000 
#    y 0.000000 1.944640 0.000000 
#    z 0.000000 0.000000 2.772050 
# 
# From -- ./inp_files/74200.got.cif
#   From: 2010.05.17/outbox.cif.g08.bks.cpg/sg63_38_cif.got.tgz:74200.got - 2010.06.03 15:47:04.
