data_PCOD9471442
_publ_section_title
;
Structure prediction by ZEFSAII (Michael W. Deem and Ramdas Pophale) SiO2 
 PCOD9471442
Probable space group: C M C M
;
_chemical_formula_sum "Si O2"
_cell_formula_units_Z 116
_cell_length_a 17.265931
_cell_length_b 16.815772
_cell_length_c 21.287423
_cell_angle_alpha 90.000000
_cell_angle_beta 90.000000
_cell_angle_gamma 90.000000
_cell_volume 6180.589522
_symmetry_space_group_name_H-M "C M C M"
_symmetry_group_IT_number 63
_symmetry_cell_setting 'orthorhombic'
loop_
_space_group_symop_operation_xyz
x,y,z
-x,-y,1/2+z
x,-y,-z
-x,y,1/2-z
-x,-y,-z
x,y,1/2-z
-x,y,z
x,-y,1/2+z
1/2+x,1/2+y,z
1/2-x,1/2-y,1/2+z
1/2+x,1/2-y,-z
1/2-x,1/2+y,1/2-z
1/2-x,1/2-y,-z
1/2+x,1/2+y,1/2-z
1/2-x,1/2+y,z
1/2+x,1/2-y,1/2+z
loop_
_atom_site_type_symbol
_atom_site_label
_atom_site_fract_x
_atom_site_fract_y
_atom_site_fract_z
Si Si1 0.086006 0.240771 0.479883
Si Si2 0.701768 0.035014 0.400596
Si Si3 0.809047 0.680491 0.323661
Si Si4 0.859272 0.834934 0.397386
Si Si5 0.500000 0.724335 0.250000
Si Si6 0.296424 0.884467 0.469402
Si Si7 0.645298 0.489593 0.324124
Si Si8 0.376209 0.666779 0.348445
O O1 0.089314 0.192104 0.544342
O O2 0.147061 0.312140 0.483002
O O3 0.108525 0.186681 0.420678
O O4 0.000000 0.272654 0.469977
O O5 0.659313 0.103486 0.361406
O O6 0.730960 0.079205 0.463984
O O7 0.663870 0.955259 0.428786
O O8 0.770850 0.005723 0.355643
O O9 0.823251 0.672856 0.250000
O O10 0.844716 0.760928 0.351269
O O11 0.715178 0.680552 0.334088
O O12 0.776675 0.854934 0.429895
O O13 0.887152 0.912980 0.360233
O O14 0.431670 0.718739 0.304686
O O15 0.651611 0.474113 0.250000
O O16 0.604024 0.574484 0.333598
#
# Coordination Sequence:
#
# PCOD9471442 Si02
#       8
#    16  16  16  16   4  16  16  16
#     4  12  24  38  57  87 121 156 198 241 296 354
#     4   9  18  32  58  84 111 140 186 243 299 339
#     4  11  19  33  60  88 113 147 195 246 299 345
#     4  11  21  36  58  85 119 150 195 248 289 346
#     4  12  20  40  56  86 124 162 198 228 302 376
#     4  10  19  36  59  83 113 149 187 245 302 340
#     4  10  20  36  55  86 118 149 198 243 290 350
#     4  11  21  36  60  82 117 160 191 239 292 360
#
# _framework density 18.768436999999999
#
# number of rings (size 3 to 8) (size 9 to 14) (size 15 to 20)
#    0.000    1.379    4.828    3.724    0.000    1.655 
#    1.241    2.069    1.517    1.241    0.000    0.000 
#    0.000    0.000    0.000    0.000    0.000    0.000 
#
# Total GULP energy -322944.225431 kJ/mol
# GULP energy per Si atom -5568.003887 kJ/mol
# Density = 1.872572 g / cm^3
# Si number density = 18.768437 Si / 1000 Ang^3
#
#
#
# Elastic Constant Matrix: (Units=GPa)
#
#
# Indices 1 2 3 4 5 6 
#
# 1 27.2277 1.0387 8.6943 0.0000 0.0000 0.0000
# 2 1.0387 65.5498 38.7258 0.0000 0.0000 0.0000
# 3 8.6943 38.7258 145.2749 0.0000 0.0000 0.0000
# 4 0.0000 0.0000 0.0000 22.8363 0.0000 0.0000
# 5 0.0000 0.0000 0.0000 0.0000 21.1343 0.0000
# 6 0.0000 0.0000 0.0000 0.0000 0.0000 -2.8099
#
#
#
# Elastic Compliance Matrix: (Units=1/GPa)
#
#
# Indices 1 2 3 4 5 6 
#
# 1 0.037484 0.000868 -0.002475 0.000000 0.000000 0.000000
# 2 0.000868 0.018127 -0.004884 0.000000 0.000000 0.000000
# 3 -0.002475 -0.004884 0.008334 0.000000 0.000000 0.000000
# 4 0.000000 0.000000 0.000000 0.043790 0.000000 0.000000
# 5 0.000000 0.000000 0.000000 0.000000 0.047316 0.000000
# 6 0.000000 0.000000 0.000000 0.000000 0.000000 -0.355885
#
#
# Mechanical properties :
#
#
# Convention : Reuss Voigt Hill
#
# Bulk Modulus (GPa) = 19.62181 37.21889 28.42035
# Shear Modulus (GPa) = -29.26311 20.87172 -4.19569
#
# Velocity S-wave (km/s) = -3.95291 3.33838 -1.49678
# Velocity P-wave (km/s) = 3.21817 5.89350 3.49118
#
# Compressibility (1/GPa) = 0.05096369
#
# Stress axis : x y z
#
# Youngs Moduli (GPa) = 26.67773 55.16552 119.99676
#
# Poissons Ratio (x) = -0.04789 0.29696
# Poissons Ratio (y) = -0.02316 0.58608
# Poissons Ratio (z) = 0.06602 0.26943
#
# Static dielectric constant tensor:
#      x y z
#    x 1.647640 0.000000 0.000000 
#    y 0.000000 1.686790 0.000000 
#    z 0.000000 0.000000 1.644720 
# 
# From -- ./inp_files/45927.got.cif
#   From: 2010.05.17/outbox.cif.g08.bks.cpg/sg63_23_cif.got.tgz:45927.got - 2010.06.03 15:47:04.
