data_PCOD9471813
_publ_section_title
;
Structure prediction by ZEFSAII (Michael W. Deem and Ramdas Pophale) SiO2 
 PCOD9471813
Probable space group: C M C M
;
_chemical_formula_sum "Si O2"
_cell_formula_units_Z 116
_cell_length_a 7.518565
_cell_length_b 24.321105
_cell_length_c 31.680939
_cell_angle_alpha 90.000000
_cell_angle_beta 90.000000
_cell_angle_gamma 90.000000
_cell_volume 5793.170449
_symmetry_space_group_name_H-M "C M C M"
_symmetry_group_IT_number 63
_symmetry_cell_setting 'orthorhombic'
loop_
_space_group_symop_operation_xyz
x,y,z
-x,-y,1/2+z
x,-y,-z
-x,y,1/2-z
-x,-y,-z
x,y,1/2-z
-x,y,z
x,-y,1/2+z
1/2+x,1/2+y,z
1/2-x,1/2-y,1/2+z
1/2+x,1/2-y,-z
1/2-x,1/2+y,1/2-z
1/2-x,1/2-y,-z
1/2+x,1/2+y,1/2-z
1/2-x,1/2+y,z
1/2+x,1/2-y,1/2+z
loop_
_atom_site_type_symbol
_atom_site_label
_atom_site_fract_x
_atom_site_fract_y
_atom_site_fract_z
Si Si1 0.716502 0.215769 0.202908
Si Si2 0.705995 0.664394 0.957882
Si Si3 0.706013 0.038922 0.536868
Si Si4 0.783979 0.168063 0.050268
Si Si5 0.294297 0.911983 0.688515
Si Si6 0.000000 0.953783 0.750000
Si Si7 0.786597 0.942536 0.593800
Si Si8 0.293102 0.262732 0.115678
O O1 0.774337 0.233096 0.250000
O O2 0.500000 0.217804 0.202272
O O3 0.762296 0.151471 0.196763
O O4 0.782228 0.249547 0.162117
O O5 0.500000 0.682205 0.958327
O O6 0.710215 0.598456 0.957606
O O7 0.785986 0.691196 0.915704
O O8 0.781769 0.682519 0.003310
O O9 0.500000 0.048921 0.526574
O O10 0.784534 0.000000 0.500000
O O11 0.720253 0.001260 0.578173
O O12 0.732563 0.105610 0.061272
O O13 0.718047 0.207807 0.087132
O O14 0.000000 0.170742 0.050412
O O15 0.500000 0.917420 0.701638
O O16 0.281896 0.925005 0.639249
O O17 0.156833 0.949182 0.713663
O O18 0.000000 0.943734 0.594874
O O19 0.500000 0.276880 0.123110
#
# Coordination Sequence:
#
# PCOD9471813 Si02
#       8
#    16  16  16  16  16   4  16  16
#     4   9  17  31  51  77 108 145 182 228 283 338
#     4  10  21  37  53  76 107 149 195 236 285 342
#     4  11  23  37  56  80 107 146 197 246 290 344
#     4  10  20  32  51  77 114 150 183 226 285 345
#     4  11  21  35  56  84 121 153 189 238 290 354
#     4  12  22  36  56  86 118 156 190 236 298 370
#     4  11  21  35  56  84 115 151 190 236 293 350
#     4  10  20  33  53  78 109 147 187 229 281 347
#
# _framework density 20.023577
#
# number of rings (size 3 to 8) (size 9 to 14) (size 15 to 20)
#    0.000    1.655    4.138    1.448    0.000    2.207 
#    0.000    0.000    0.000    0.000    1.793    0.000 
#    0.000    0.000    0.000    0.000    0.000    0.000 
#
# Total GULP energy -323319.058309 kJ/mol
# GULP energy per Si atom -5574.466523 kJ/mol
# Density = 1.997800 g / cm^3
# Si number density = 20.023577 Si / 1000 Ang^3
#
#
#
# Elastic Constant Matrix: (Units=GPa)
#
#
# Indices 1 2 3 4 5 6 
#
# 1 74.4058 -10.2733 1.6049 0.0000 0.0000 0.0000
# 2 -10.2733 56.5396 39.2092 0.0000 0.0000 0.0000
# 3 1.6049 39.2092 176.9129 0.0000 0.0000 0.0000
# 4 0.0000 0.0000 0.0000 29.0835 0.0000 0.0000
# 5 0.0000 0.0000 0.0000 0.0000 -3.2170 0.0000
# 6 0.0000 0.0000 0.0000 0.0000 0.0000 6.3978
#
#
#
# Elastic Compliance Matrix: (Units=1/GPa)
#
#
# Indices 1 2 3 4 5 6 
#
# 1 0.013883 0.003084 -0.000809 0.000000 0.000000 0.000000
# 2 0.003084 0.021584 -0.004812 0.000000 0.000000 0.000000
# 3 -0.000809 -0.004812 0.006726 0.000000 0.000000 0.000000
# 4 0.000000 0.000000 0.000000 0.034384 0.000000 0.000000
# 5 0.000000 0.000000 0.000000 0.000000 -0.310851 0.000000
# 6 0.000000 0.000000 0.000000 0.000000 0.000000 0.156303
#
#
# Mechanical properties :
#
#
# Convention : Reuss Voigt Hill
#
# Bulk Modulus (GPa) = 26.94049 40.99333 33.96691
# Shear Modulus (GPa) = -82.61223 24.94071 -28.83576
#
# Velocity S-wave (km/s) = -6.43017 3.53309 -3.79897
# Velocity P-wave (km/s) = 6.45336 6.09595 1.49753
#
# Compressibility (1/GPa) = 0.03711885
#
# Stress axis : x y z
#
# Youngs Moduli (GPa) = 72.03021 46.33099 148.67157
#
# Poissons Ratio (x) = -0.14288 0.12034
# Poissons Ratio (y) = -0.22213 0.71535
# Poissons Ratio (z) = 0.05830 0.22293
#
# Static dielectric constant tensor:
#      x y z
#    x 1.750440 0.000000 0.000000 
#    y 0.000000 1.690590 0.000000 
#    z 0.000000 0.000000 1.778330 
# 
# From -- ./inp_files/72058.got.cif
#   From: 2010.05.17/outbox.cif.g08.bks.cpg/sg63_37_cif.got.tgz:72058.got - 2010.06.03 15:47:04.
