data_PCOD9471044
_publ_section_title
;
Structure prediction by ZEFSAII (Michael W. Deem and Ramdas Pophale) SiO2 
 PCOD9471044
Probable space group: C M C M
;
_chemical_formula_sum "Si O2"
_cell_formula_units_Z 96
_cell_length_a 8.499429
_cell_length_b 24.265235
_cell_length_c 26.140212
_cell_angle_alpha 90.000000
_cell_angle_beta 90.000000
_cell_angle_gamma 90.000000
_cell_volume 5391.174106
_symmetry_space_group_name_H-M "C M C M"
_symmetry_group_IT_number 63
_symmetry_cell_setting 'orthorhombic'
loop_
_space_group_symop_operation_xyz
x,y,z
-x,-y,1/2+z
x,-y,-z
-x,y,1/2-z
-x,-y,-z
x,y,1/2-z
-x,y,z
x,-y,1/2+z
1/2+x,1/2+y,z
1/2-x,1/2-y,1/2+z
1/2+x,1/2-y,-z
1/2-x,1/2+y,1/2-z
1/2-x,1/2-y,-z
1/2+x,1/2+y,1/2-z
1/2-x,1/2+y,z
1/2+x,1/2-y,1/2+z
loop_
_atom_site_type_symbol
_atom_site_label
_atom_site_fract_x
_atom_site_fract_y
_atom_site_fract_z
Si Si1 0.311705 0.367676 0.846785
Si Si2 0.690227 0.063219 0.059393
Si Si3 0.190461 0.363995 0.151965
Si Si4 0.810280 0.564410 0.750000
Si Si5 0.311730 0.248597 0.190641
Si Si6 0.308532 0.937086 0.057697
Si Si7 0.689749 0.440363 0.750000
O O1 0.500000 0.365262 0.845421
O O2 0.257380 0.394627 0.899691
O O3 0.246364 0.307022 0.836104
O O4 0.257168 0.407277 0.800336
O O5 0.500000 0.065213 0.061383
O O6 0.738401 0.999883 0.071180
O O7 0.739136 0.074655 0.000733
O O8 0.240311 0.402237 0.199655
O O9 0.251569 0.302881 0.161986
O O10 0.244459 0.393155 0.099653
O O11 0.000000 0.362418 0.151589
O O12 0.749355 0.502476 0.750000
O O13 0.000000 0.562803 0.750000
O O14 0.255431 0.249543 0.250000
O O15 0.500000 0.249013 0.191267
O O16 0.500000 0.937036 0.058010
O O17 0.500000 0.440988 0.750000
#
# Coordination Sequence:
#
# PCOD9471044 Si02
#       7
#    16  16  16   8  16  16   8
#     4  11  22  37  55  78 108 143 180 223 275 325
#     4   9  17  34  58  83 111 144 183 224 263 315
#     4  10  19  34  55  81 110 142 179 218 266 321
#     4  10  20  31  52  83 111 138 174 216 263 320
#     4  11  23  38  56  78 104 142 186 226 270 321
#     4   8  16  32  57  84 112 146 180 218 268 319
#     4  10  22  35  50  75 109 140 170 214 271 324
#
# _framework density 17.806881000000001
#
# number of rings (size 3 to 8) (size 9 to 14) (size 15 to 20)
#    0.000    2.167    1.667    3.000    0.000    4.000 
#    0.000    4.167    0.000    0.000    0.000    0.000 
#    0.000    0.000    0.000    0.000    0.000    0.000 
#
# Total GULP energy -267946.119133 kJ/mol
# GULP energy per Si atom -5582.210815 kJ/mol
# Density = 1.776635 g / cm^3
# Si number density = 17.806881 Si / 1000 Ang^3
#
#
#
# Elastic Constant Matrix: (Units=GPa)
#
#
# Indices 1 2 3 4 5 6 
#
# 1 16.8597 27.5329 25.8849 0.0000 0.0000 0.0000
# 2 27.5329 189.9036 110.9154 0.0000 0.0000 0.0000
# 3 25.8849 110.9154 143.7618 0.0000 0.0000 0.0000
# 4 0.0000 0.0000 0.0000 22.4821 0.0000 0.0000
# 5 0.0000 0.0000 0.0000 0.0000 10.9532 0.0000
# 6 0.0000 0.0000 0.0000 0.0000 0.0000 31.4612
#
#
#
# Elastic Compliance Matrix: (Units=1/GPa)
#
#
# Indices 1 2 3 4 5 6 
#
# 1 0.085831 -0.006221 -0.010654 0.000000 0.000000 0.000000
# 2 -0.006221 0.010036 -0.006623 0.000000 0.000000 0.000000
# 3 -0.010654 -0.006623 0.013984 0.000000 0.000000 0.000000
# 4 0.000000 0.000000 0.000000 0.044480 0.000000 0.000000
# 5 0.000000 0.000000 0.000000 0.000000 0.091297 0.000000
# 6 0.000000 0.000000 0.000000 0.000000 0.000000 0.031785
#
#
# Mechanical properties :
#
#
# Convention : Reuss Voigt Hill
#
# Bulk Modulus (GPa) = 15.90997 75.46572 45.68785
# Shear Modulus (GPa) = 14.47763 25.39210 19.93487
#
# Velocity S-wave (km/s) = 2.85447 3.78030 3.34953
# Velocity P-wave (km/s) = 4.45176 7.84387 6.37748
#
# Compressibility (1/GPa) = 0.06285367
#
# Stress axis : x y z
#
# Youngs Moduli (GPa) = 11.65087 99.64214 71.51077
#
# Poissons Ratio (x) = 0.61990 0.76190
# Poissons Ratio (y) = 0.07248 0.47360
# Poissons Ratio (z) = 0.12413 0.65991
#
# Static dielectric constant tensor:
#      x y z
#    x 1.614020 0.000000 0.000000 
#    y 0.000000 1.569820 0.000000 
#    z 0.000000 0.000000 1.606930 
# 
# From -- ./inp_files/60049.got.cif
#   From: 2010.05.17/outbox.cif.g08.bks.cpg/sg63_31_cif.got.tgz:60049.got - 2010.06.03 15:47:04.
