data_PCOD9471090
_publ_section_title
;
Structure prediction by ZEFSAII (Michael W. Deem and Ramdas Pophale) SiO2 
 PCOD9471090
Probable space group: C M C M
;
_chemical_formula_sum "Si O2"
_cell_formula_units_Z 96
_cell_length_a 15.914258
_cell_length_b 19.147851
_cell_length_c 12.988006
_cell_angle_alpha 90.000000
_cell_angle_beta 90.000000
_cell_angle_gamma 90.000000
_cell_volume 3957.755075
_symmetry_space_group_name_H-M "C M C M"
_symmetry_group_IT_number 63
_symmetry_cell_setting 'orthorhombic'
loop_
_space_group_symop_operation_xyz
x,y,z
-x,-y,1/2+z
x,-y,-z
-x,y,1/2-z
-x,-y,-z
x,y,1/2-z
-x,y,z
x,-y,1/2+z
1/2+x,1/2+y,z
1/2-x,1/2-y,1/2+z
1/2+x,1/2-y,-z
1/2-x,1/2+y,1/2-z
1/2-x,1/2-y,-z
1/2+x,1/2+y,1/2-z
1/2-x,1/2+y,z
1/2+x,1/2-y,1/2+z
loop_
_atom_site_type_symbol
_atom_site_label
_atom_site_fract_x
_atom_site_fract_y
_atom_site_fract_z
Si Si1 0.278673 0.413025 0.126635
Si Si2 0.903343 0.964898 0.874222
Si Si3 0.773253 0.146877 0.137466
Si Si4 0.852774 0.238640 0.872915
Si Si5 0.592934 0.082374 0.628058
Si Si6 0.587045 0.248030 0.591832
O O1 0.269716 0.419047 0.250000
O O2 0.361540 0.459807 0.105789
O O3 0.295936 0.330603 0.109250
O O4 0.186403 0.437318 0.085562
O O5 0.906844 0.955374 0.750000
O O6 0.000000 0.956112 0.909439
O O7 0.831091 0.911459 0.913256
O O8 0.751590 0.118485 0.250000
O O9 0.690622 0.186582 0.102607
O O10 0.836027 0.212269 0.141007
O O11 0.876435 0.237959 0.750000
O O12 0.913744 0.235813 0.969904
O O13 0.592394 0.065477 0.750000
O O14 0.500000 0.058490 0.587737
O O15 0.591811 0.166307 0.615193
O O16 0.500000 0.276352 0.635139
#
# Coordination Sequence:
#
# PCOD9471090 Si02
#       6
#    16  16  16  16  16  16
#     4   9  17  32  53  77 109 151 187 223 275 330
#     4   9  18  32  53  82 116 151 184 223 276 337
#     4  10  19  34  56  83 113 145 184 230 281 333
#     4  10  21  36  55  77 106 148 194 232 272 332
#     4   9  17  30  52  84 112 136 178 234 286 331
#     4  11  21  32  53  82 112 143 180 233 289 334
#
# _framework density 24.256174999999999
#
# number of rings (size 3 to 8) (size 9 to 14) (size 15 to 20)
#    0.000    2.333    1.667    1.500    0.000    2.667 
#    0.000    2.500    0.000    3.000    0.000    7.000 
#    0.000    0.000    0.000    0.000    0.000    0.000 
#
# Total GULP energy -267298.864305 kJ/mol
# GULP energy per Si atom -5568.726340 kJ/mol
# Density = 2.420097 g / cm^3
# Si number density = 24.256175 Si / 1000 Ang^3
#
#
#
# Elastic Constant Matrix: (Units=GPa)
#
#
# Indices 1 2 3 4 5 6 
#
# 1 117.8323 12.5201 -3.6825 0.0000 0.0000 0.0000
# 2 12.5201 71.9612 14.2598 0.0000 0.0000 0.0000
# 3 -3.6825 14.2598 95.4676 0.0000 0.0000 0.0000
# 4 0.0000 0.0000 0.0000 16.7562 0.0000 0.0000
# 5 0.0000 0.0000 0.0000 0.0000 -6.7652 0.0000
# 6 0.0000 0.0000 0.0000 0.0000 0.0000 51.9247
#
#
#
# Elastic Compliance Matrix: (Units=1/GPa)
#
#
# Indices 1 2 3 4 5 6 
#
# 1 0.008677 -0.001624 0.000577 0.000000 0.000000 0.000000
# 2 -0.001624 0.014624 -0.002247 0.000000 0.000000 0.000000
# 3 0.000577 -0.002247 0.010833 0.000000 0.000000 0.000000
# 4 0.000000 0.000000 0.000000 0.059679 0.000000 0.000000
# 5 0.000000 0.000000 0.000000 0.000000 -0.147815 0.000000
# 6 0.000000 0.000000 0.000000 0.000000 0.000000 0.019259
#
#
# Mechanical properties :
#
#
# Convention : Reuss Voigt Hill
#
# Bulk Modulus (GPa) = 36.30232 36.82843 36.56538
# Shear Modulus (GPa) = -263.53548 29.86072 -116.83738
#
# Velocity S-wave (km/s) = -10.43468 3.51245 -6.94785
# Velocity P-wave (km/s) = 11.40956 5.62724 7.01827
#
# Compressibility (1/GPa) = 0.02754645
#
# Stress axis : x y z
#
# Youngs Moduli (GPa) = 115.24396 68.37979 92.31338
#
# Poissons Ratio (x) = 0.11106 -0.05329
# Poissons Ratio (y) = 0.18717 0.20743
# Poissons Ratio (z) = -0.06653 0.15365
#
# Static dielectric constant tensor:
#      x y z
#    x 1.971980 0.000000 0.000000 
#    y 0.000000 1.888000 0.000000 
#    z 0.000000 0.000000 1.988250 
# 
# From -- ./inp_files/31942.got.cif
#   From: 2010.05.17/outbox.cif.g08.bks.cpg/sg63_16_cif.got.tgz:31942.got - 2010.06.03 15:47:04.
