data_PCOD9471535
_publ_section_title
;
Structure prediction by ZEFSAII (Michael W. Deem and Ramdas Pophale) SiO2 
 PCOD9471535
Probable space group: C M C M
;
_chemical_formula_sum "Si O2"
_cell_formula_units_Z 96
_cell_length_a 8.183471
_cell_length_b 25.605467
_cell_length_c 24.421964
_cell_angle_alpha 90.000000
_cell_angle_beta 90.000000
_cell_angle_gamma 90.000000
_cell_volume 5117.417330
_symmetry_space_group_name_H-M "C M C M"
_symmetry_group_IT_number 63
_symmetry_cell_setting 'orthorhombic'
loop_
_space_group_symop_operation_xyz
x,y,z
-x,-y,1/2+z
x,-y,-z
-x,y,1/2-z
-x,-y,-z
x,y,1/2-z
-x,y,z
x,-y,1/2+z
1/2+x,1/2+y,z
1/2-x,1/2-y,1/2+z
1/2+x,1/2-y,-z
1/2-x,1/2+y,1/2-z
1/2-x,1/2-y,-z
1/2+x,1/2+y,1/2-z
1/2-x,1/2+y,z
1/2+x,1/2-y,1/2+z
loop_
_atom_site_type_symbol
_atom_site_label
_atom_site_fract_x
_atom_site_fract_y
_atom_site_fract_z
Si Si1 0.693907 0.732365 0.634645
Si Si2 0.300816 0.224404 0.250000
Si Si3 0.805604 0.103619 0.250000
Si Si4 0.308153 0.328319 0.563115
Si Si5 0.309013 0.073823 0.131301
Si Si6 0.299754 0.640937 0.558299
Si Si7 0.697732 0.521001 0.939807
O O1 0.500000 0.724920 0.641064
O O2 0.758124 0.747527 0.694590
O O3 0.721695 0.781237 0.594433
O O4 0.758372 0.680435 0.605170
O O5 0.500000 0.223801 0.250000
O O6 0.244652 0.164506 0.250000
O O7 0.737922 0.078086 0.305295
O O8 0.000000 0.099875 0.250000
O O9 0.500000 0.315765 0.560624
O O10 0.285223 0.381432 0.597454
O O11 0.247810 0.338351 0.501448
O O12 0.500000 0.085123 0.125129
O O13 0.267450 0.018113 0.105195
O O14 0.500000 0.641122 0.557653
O O15 0.249563 0.581012 0.566111
O O16 0.500000 0.519143 0.936769
O O17 0.744599 0.500000 0.000000
#
# Coordination Sequence:
#
# PCOD9471535 Si02
#       7
#    16   8   8  16  16  16  16
#     4  10  20  35  54  81 116 152 190 239 294 348
#     4  10  20  34  55  82 115 149 184 232 288 341
#     4  12  24  40  63  86 113 149 194 238 288 351
#     4  11  20  34  56  84 115 152 193 239 289 344
#     4  12  24  38  58  88 121 150 190 243 297 346
#     4   9  19  35  56  82 116 156 196 236 287 347
#     4  10  19  37  61  84 116 156 199 244 286 341
#
# _framework density 18.759461999999999
#
# number of rings (size 3 to 8) (size 9 to 14) (size 15 to 20)
#    0.000    1.500    3.333    3.250    0.000    0.333 
#    0.000    2.500    0.000    3.000    0.000    0.000 
#    0.000    0.000    0.000    0.000    0.000    0.000 
#
# Total GULP energy -268191.241975 kJ/mol
# GULP energy per Si atom -5587.317541 kJ/mol
# Density = 1.871676 g / cm^3
# Si number density = 18.759462 Si / 1000 Ang^3
#
#
#
# Elastic Constant Matrix: (Units=GPa)
#
#
# Indices 1 2 3 4 5 6 
#
# 1 13.3858 -8.4198 4.1477 0.0000 0.0000 0.0000
# 2 -8.4198 134.4432 82.9677 0.0000 0.0000 0.0000
# 3 4.1477 82.9677 156.0074 0.0000 0.0000 0.0000
# 4 0.0000 0.0000 0.0000 29.2606 0.0000 0.0000
# 5 0.0000 0.0000 0.0000 0.0000 17.3905 0.0000
# 6 0.0000 0.0000 0.0000 0.0000 0.0000 6.1635
#
#
#
# Elastic Compliance Matrix: (Units=1/GPa)
#
#
# Indices 1 2 3 4 5 6 
#
# 1 0.083157 0.009783 -0.007414 0.000000 0.000000 0.000000
# 2 0.009783 0.012223 -0.006760 0.000000 0.000000 0.000000
# 3 -0.007414 -0.006760 0.010202 0.000000 0.000000 0.000000
# 4 0.000000 0.000000 0.000000 0.034176 0.000000 0.000000
# 5 0.000000 0.000000 0.000000 0.000000 0.057503 0.000000
# 6 0.000000 0.000000 0.000000 0.000000 0.000000 0.162245
#
#
# Mechanical properties :
#
#
# Convention : Reuss Voigt Hill
#
# Bulk Modulus (GPa) = 10.33058 51.24750 30.78904
# Shear Modulus (GPa) = 12.48271 25.57231 19.02751
#
# Velocity S-wave (km/s) = 2.58235 3.69612 3.18824
# Velocity P-wave (km/s) = 3.79608 6.75223 5.47735
#
# Compressibility (1/GPa) = 0.09679997
#
# Stress axis : x y z
#
# Youngs Moduli (GPa) = 12.02546 81.81468 98.01655
#
# Poissons Ratio (x) = -0.80039 0.72666
# Poissons Ratio (y) = -0.11765 0.66263
# Poissons Ratio (z) = 0.08915 0.55310
#
# Static dielectric constant tensor:
#      x y z
#    x 1.661120 0.000000 0.000000 
#    y 0.000000 1.621180 0.000000 
#    z 0.000000 0.000000 1.648830 
# 
# From -- ./inp_files/59982.got.cif
#   From: 2010.05.17/outbox.cif.g08.bks.cpg/sg63_30_cif.got.tgz:59982.got - 2010.06.03 15:47:04.
