data_PCOD9471257
_publ_section_title
;
Structure prediction by ZEFSAII (Michael W. Deem and Ramdas Pophale) SiO2 
 PCOD9471257
Probable space group: C M C M
;
_chemical_formula_sum "Si O2"
_cell_formula_units_Z 96
_cell_length_a 20.354034
_cell_length_b 29.733831
_cell_length_c 8.836975
_cell_angle_alpha 90.000000
_cell_angle_beta 90.000000
_cell_angle_gamma 90.000000
_cell_volume 5348.167379
_symmetry_space_group_name_H-M "C M C M"
_symmetry_group_IT_number 63
_symmetry_cell_setting 'orthorhombic'
loop_
_space_group_symop_operation_xyz
x,y,z
-x,-y,1/2+z
x,-y,-z
-x,y,1/2-z
-x,-y,-z
x,y,1/2-z
-x,y,z
x,-y,1/2+z
1/2+x,1/2+y,z
1/2-x,1/2-y,1/2+z
1/2+x,1/2-y,-z
1/2-x,1/2+y,1/2-z
1/2-x,1/2-y,-z
1/2+x,1/2+y,1/2-z
1/2-x,1/2+y,z
1/2+x,1/2-y,1/2+z
loop_
_atom_site_type_symbol
_atom_site_label
_atom_site_fract_x
_atom_site_fract_y
_atom_site_fract_z
Si Si1 0.350459 0.277628 0.922069
Si Si2 0.921689 0.868525 0.931613
Si Si3 0.301966 0.192753 0.077745
Si Si4 0.339421 0.450762 0.068405
Si Si5 0.429890 0.950554 0.568317
Si Si6 0.791767 0.591882 0.434591
O O1 0.373502 0.271556 0.750000
O O2 0.389367 0.321078 0.984329
O O3 0.273207 0.290122 0.919746
O O4 0.349297 0.229594 0.003706
O O5 0.908437 0.871865 0.750000
O O6 0.000000 0.867934 0.954291
O O7 0.888416 0.911459 0.010807
O O8 0.324440 0.186966 0.250000
O O9 0.294705 0.143291 0.010004
O O10 0.339998 0.453123 0.250000
O O11 0.355256 0.500000 0.000000
O O12 0.267735 0.435474 0.008058
O O13 0.428898 0.953324 0.750000
O O14 0.500000 0.928746 0.524297
O O15 0.362506 0.927533 0.523845
O O16 0.429563 0.000000 0.500000
O O17 0.782864 0.591096 0.250000
#
# Coordination Sequence:
#
# PCOD9471257 Si02
#       6
#    16  16  16  16  16  16
#     4   9  17  32  53  79 108 138 176 217 262 320
#     4  10  21  40  63  83 110 149 189 233 287 340
#     4   9  17  30  52  79 109 140 173 218 267 314
#     4  12  25  39  58  83 113 145 187 237 286 338
#     4   9  18  32  51  74 102 139 179 219 266 321
#     4  10  19  35  56  80 112 146 185 231 277 326
#
# _framework density 17.950074000000001
#
# number of rings (size 3 to 8) (size 9 to 14) (size 15 to 20)
#    0.000    2.167    1.667    2.000    0.000    4.000 
#    0.000    0.833    0.000    1.000    0.000    0.000 
#    0.000    0.000    0.000    0.000    0.000    0.000 
#
# Total GULP energy -267399.812324 kJ/mol
# GULP energy per Si atom -5570.829423 kJ/mol
# Density = 1.790922 g / cm^3
# Si number density = 17.950074 Si / 1000 Ang^3
#
#
#
# Elastic Constant Matrix: (Units=GPa)
#
#
# Indices 1 2 3 4 5 6 
#
# 1 67.0885 17.4029 27.4746 0.0000 0.0000 0.0000
# 2 17.4029 76.8215 29.9420 0.0000 0.0000 0.0000
# 3 27.4746 29.9420 47.6282 0.0000 0.0000 0.0000
# 4 0.0000 0.0000 0.0000 29.1347 0.0000 0.0000
# 5 0.0000 0.0000 0.0000 0.0000 -6.5949 0.0000
# 6 0.0000 0.0000 0.0000 0.0000 0.0000 2.5814
#
#
#
# Elastic Compliance Matrix: (Units=1/GPa)
#
#
# Indices 1 2 3 4 5 6 
#
# 1 0.019516 -0.000044 -0.011230 0.000000 0.000000 0.000000
# 2 -0.000044 0.017242 -0.010814 0.000000 0.000000 0.000000
# 3 -0.011230 -0.010814 0.034273 0.000000 0.000000 0.000000
# 4 0.000000 0.000000 0.000000 0.034323 0.000000 0.000000
# 5 0.000000 0.000000 0.000000 0.000000 -0.151631 0.000000
# 6 0.000000 0.000000 0.000000 0.000000 0.000000 0.387392
#
#
# Mechanical properties :
#
#
# Convention : Reuss Voigt Hill
#
# Bulk Modulus (GPa) = 37.23827 37.90859 37.57343
# Shear Modulus (GPa) = 12.68252 12.80547 12.74400
#
# Velocity S-wave (km/s) = 2.66097 2.67384 2.66742
# Velocity P-wave (km/s) = 5.49832 5.54052 5.51946
#
# Compressibility (1/GPa) = 0.02685409
#
# Stress axis : x y z
#
# Youngs Moduli (GPa) = 51.23934 57.99780 29.17782
#
# Poissons Ratio (x) = 0.00255 0.32768
# Poissons Ratio (y) = 0.00225 0.31553
# Poissons Ratio (z) = 0.57544 0.62719
#
# Static dielectric constant tensor:
#      x y z
#    x 1.617370 0.000000 0.000000 
#    y 0.000000 1.641780 0.000000 
#    z 0.000000 0.000000 1.626690 
# 
# From -- ./inp_files/8665.got.cif
#   From: 2010.05.17/outbox.cif.g08.bks.cpg/sg63_5_cif.got.tgz:8665.got - 2010.06.03 15:47:04.
