data_PCOD9471185
_publ_section_title
;
Structure prediction by ZEFSAII (Michael W. Deem and Ramdas Pophale) SiO2 
 PCOD9471185
Probable space group: C M C M
;
_chemical_formula_sum "Si O2"
_cell_formula_units_Z 96
_cell_length_a 23.669075
_cell_length_b 11.644028
_cell_length_c 18.205965
_cell_angle_alpha 90.000000
_cell_angle_beta 90.000000
_cell_angle_gamma 90.000000
_cell_volume 5017.625345
_symmetry_space_group_name_H-M "C M C M"
_symmetry_group_IT_number 63
_symmetry_cell_setting 'orthorhombic'
loop_
_space_group_symop_operation_xyz
x,y,z
-x,-y,1/2+z
x,-y,-z
-x,y,1/2-z
-x,-y,-z
x,y,1/2-z
-x,y,z
x,-y,1/2+z
1/2+x,1/2+y,z
1/2-x,1/2-y,1/2+z
1/2+x,1/2-y,-z
1/2-x,1/2+y,1/2-z
1/2-x,1/2-y,-z
1/2+x,1/2+y,1/2-z
1/2-x,1/2+y,z
1/2+x,1/2-y,1/2+z
loop_
_atom_site_type_symbol
_atom_site_label
_atom_site_fract_x
_atom_site_fract_y
_atom_site_fract_z
Si Si1 0.647571 0.921372 0.165345
Si Si2 0.269543 0.862586 0.664536
Si Si3 0.066603 0.562947 0.076505
Si Si4 0.065132 0.992570 0.910763
Si Si5 0.140112 0.208580 0.588201
Si Si6 0.841426 0.813631 0.918393
O O1 0.647158 0.884120 0.250000
O O2 0.658010 0.815418 0.111819
O O3 0.694318 0.021013 0.156429
O O4 0.589788 0.983353 0.141524
O O5 0.255824 0.846324 0.750000
O O6 0.308642 0.756553 0.637235
O O7 0.213207 0.871480 0.617185
O O8 0.097213 0.684858 0.080054
O O9 0.000000 0.578048 0.079560
O O10 0.081380 0.500000 0.000000
O O11 0.101007 0.878159 0.894883
O O12 0.000000 0.993667 0.884661
O O13 0.103581 0.099871 0.884915
O O14 0.062723 0.000000 0.000000
O O15 0.162295 0.181738 0.506378
#
# Coordination Sequence:
#
# PCOD9471185 Si02
#       6
#    16  16  16  16  16  16
#     4  10  22  39  57  85 120 155 196 245 301 358
#     4  10  23  39  58  83 117 155 195 247 305 356
#     4  10  19  34  59  87 117 154 197 244 294 348
#     4   9  20  37  59  89 122 155 195 244 298 352
#     4  10  20  38  61  89 116 155 201 248 291 355
#     4  11  21  37  60  89 118 156 200 245 298 359
#
# _framework density 19.132556000000001
#
# number of rings (size 3 to 8) (size 9 to 14) (size 15 to 20)
#    0.000    2.000    1.667    1.500    2.333    1.667 
#    3.000    0.833    0.000    5.000    0.000    0.000 
#    0.000    0.000    0.000    0.000    0.000    0.000 
#
# Total GULP energy -267983.392708 kJ/mol
# GULP energy per Si atom -5582.987348 kJ/mol
# Density = 1.908901 g / cm^3
# Si number density = 19.132556 Si / 1000 Ang^3
#
#
#
# Elastic Constant Matrix: (Units=GPa)
#
#
# Indices 1 2 3 4 5 6 
#
# 1 76.2568 11.0056 23.6879 0.0000 0.0000 0.0000
# 2 11.0056 42.1105 14.3790 0.0000 0.0000 0.0000
# 3 23.6879 14.3790 44.7903 0.0000 0.0000 0.0000
# 4 0.0000 0.0000 0.0000 7.2027 0.0000 0.0000
# 5 0.0000 0.0000 0.0000 0.0000 10.9064 0.0000
# 6 0.0000 0.0000 0.0000 0.0000 0.0000 15.2432
#
#
#
# Elastic Compliance Matrix: (Units=1/GPa)
#
#
# Indices 1 2 3 4 5 6 
#
# 1 0.015768 -0.001430 -0.007880 0.000000 0.000000 0.000000
# 2 -0.001430 0.026800 -0.007847 0.000000 0.000000 0.000000
# 3 -0.007880 -0.007847 0.029013 0.000000 0.000000 0.000000
# 4 0.000000 0.000000 0.000000 0.138836 0.000000 0.000000
# 5 0.000000 0.000000 0.000000 0.000000 0.091690 0.000000
# 6 0.000000 0.000000 0.000000 0.000000 0.000000 0.065603
#
#
# Mechanical properties :
#
#
# Convention : Reuss Voigt Hill
#
# Bulk Modulus (GPa) = 26.83401 29.03365 27.93383
# Shear Modulus (GPa) = 12.06429 14.27613 13.17021
#
# Velocity S-wave (km/s) = 2.51383 2.73457 2.62652
# Velocity P-wave (km/s) = 4.74147 5.01781 4.88160
#
# Compressibility (1/GPa) = 0.03726614
#
# Stress axis : x y z
#
# Youngs Moduli (GPa) = 63.42058 37.31293 34.46753
#
# Poissons Ratio (x) = 0.05337 0.27160
# Poissons Ratio (y) = 0.09071 0.27048
# Poissons Ratio (z) = 0.49974 0.29281
#
# Static dielectric constant tensor:
#      x y z
#    x 1.652290 0.000000 0.000000 
#    y 0.000000 1.670120 0.000000 
#    z 0.000000 0.000000 1.649250 
# 
# From -- ./inp_files/56532.got.cif
#   From: 2010.05.17/outbox.cif.g08.bks.cpg/sg63_29_cif.got.tgz:56532.got - 2010.06.03 15:47:04.
