data_PCOD9471847
_publ_section_title
;
Structure prediction by ZEFSAII (Michael W. Deem and Ramdas Pophale) SiO2 
 PCOD9471847
Probable space group: C M C M
;
_chemical_formula_sum "Si O2"
_cell_formula_units_Z 80
_cell_length_a 27.030421
_cell_length_b 21.318086
_cell_length_c 8.990571
_cell_angle_alpha 90.000000
_cell_angle_beta 90.000000
_cell_angle_gamma 90.000000
_cell_volume 5180.698218
_symmetry_space_group_name_H-M "C M C M"
_symmetry_group_IT_number 63
_symmetry_cell_setting 'orthorhombic'
loop_
_space_group_symop_operation_xyz
x,y,z
-x,-y,1/2+z
x,-y,-z
-x,y,1/2-z
-x,-y,-z
x,y,1/2-z
-x,y,z
x,-y,1/2+z
1/2+x,1/2+y,z
1/2-x,1/2-y,1/2+z
1/2+x,1/2-y,-z
1/2-x,1/2+y,1/2-z
1/2-x,1/2-y,-z
1/2+x,1/2+y,1/2-z
1/2-x,1/2+y,z
1/2+x,1/2-y,1/2+z
loop_
_atom_site_type_symbol
_atom_site_label
_atom_site_fract_x
_atom_site_fract_y
_atom_site_fract_z
Si Si1 0.206764 0.208763 0.429330
Si Si2 0.000000 0.764429 0.920979
Si Si3 0.798951 0.063442 0.426121
Si Si4 0.397475 0.269435 0.418738
Si Si5 0.500000 0.582948 0.080432
Si Si6 0.400874 0.419891 0.083316
O O1 0.206461 0.211717 0.250000
O O2 0.250000 0.250000 0.500000
O O3 0.215970 0.134903 0.471132
O O4 0.153924 0.234803 0.489950
O O5 0.000000 0.840641 0.915226
O O6 0.000000 0.742236 0.750000
O O7 0.051601 0.746527 0.003073
O O8 0.793223 0.058382 0.250000
O O9 0.856239 0.063995 0.474828
O O10 0.776906 0.000000 0.500000
O O11 0.392801 0.244194 0.250000
O O12 0.402735 0.344551 0.405707
O O13 0.500000 0.560636 0.250000
O O14 0.452174 0.563536 0.990250
O O15 0.393259 0.444996 0.250000
#
# Coordination Sequence:
#
# PCOD9471847 Si02
#       6
#    16   8  16  16   8  16
#     4  10  20  33  49  69  92 119 152 189 229 273
#     4   9  15  23  37  58  84 113 146 184 224 266
#     4  10  20  33  48  65  85 111 144 181 222 267
#     4   9  16  26  41  61  85 114 148 185 225 268
#     4   9  15  23  36  54  77 105 139 180 222 260
#     4   9  16  26  40  57  78 106 141 180 221 262
#
# _framework density 15.441933000000001
#
# number of rings (size 3 to 8) (size 9 to 14) (size 15 to 20)
#    0.000    2.600    0.000    3.000    0.000    9.600 
#    0.000    0.500    0.000    0.000    0.000    0.000 
#    0.000    0.000    0.000    0.900    0.000   12.300 
#
# Total GULP energy -222714.699969 kJ/mol
# GULP energy per Si atom -5567.867499 kJ/mol
# Density = 1.540679 g / cm^3
# Si number density = 15.441933 Si / 1000 Ang^3
#
#
#
# Elastic Constant Matrix: (Units=GPa)
#
#
# Indices 1 2 3 4 5 6 
#
# 1 99.5073 40.8063 45.2415 0.0000 0.0000 0.0000
# 2 40.8063 55.7373 24.0535 0.0000 0.0000 0.0000
# 3 45.2415 24.0535 73.4449 0.0000 0.0000 0.0000
# 4 0.0000 0.0000 0.0000 16.8674 0.0000 0.0000
# 5 0.0000 0.0000 0.0000 0.0000 19.3651 0.0000
# 6 0.0000 0.0000 0.0000 0.0000 0.0000 -4.0704
#
#
#
# Elastic Compliance Matrix: (Units=1/GPa)
#
#
# Indices 1 2 3 4 5 6 
#
# 1 0.017384 -0.009440 -0.007617 0.000000 0.000000 0.000000
# 2 -0.009440 0.026021 -0.002707 0.000000 0.000000 0.000000
# 3 -0.007617 -0.002707 0.019194 0.000000 0.000000 0.000000
# 4 0.000000 0.000000 0.000000 0.059286 0.000000 0.000000
# 5 0.000000 0.000000 0.000000 0.000000 0.051639 0.000000
# 6 0.000000 0.000000 0.000000 0.000000 0.000000 -0.245678
#
#
# Mechanical properties :
#
#
# Convention : Reuss Voigt Hill
#
# Bulk Modulus (GPa) = 43.34386 49.87689 46.61038
# Shear Modulus (GPa) = -200.50128 14.33832 -93.08148
#
# Velocity S-wave (km/s) = -11.40719 3.05049 -7.77234
# Velocity P-wave (km/s) = 12.05690 6.69157 7.09196
#
# Compressibility (1/GPa) = 0.02307132
#
# Stress axis : x y z
#
# Youngs Moduli (GPa) = 57.52569 38.43112 52.09995
#
# Poissons Ratio (x) = 0.36279 0.39682
# Poissons Ratio (y) = 0.54304 0.14103
# Poissons Ratio (z) = 0.43815 0.10403
#
# Static dielectric constant tensor:
#      x y z
#    x 1.498540 0.000000 0.000000 
#    y 0.000000 1.545120 0.000000 
#    z 0.000000 0.000000 1.541880 
# 
# From -- ./inp_files/8469.got.cif
#   From: 2010.05.17/outbox.cif.g08.bks.cpg/sg63_5_cif.got.tgz:8469.got - 2010.06.03 15:47:04.
