data_PCOD9471822
_publ_section_title
;
Structure prediction by ZEFSAII (Michael W. Deem and Ramdas Pophale) SiO2 
 PCOD9471822
Probable space group: C M C M
;
_chemical_formula_sum "Si O2"
_cell_formula_units_Z 116
_cell_length_a 7.745269
_cell_length_b 25.524996
_cell_length_c 31.341816
_cell_angle_alpha 90.000000
_cell_angle_beta 90.000000
_cell_angle_gamma 90.000000
_cell_volume 6196.213094
_symmetry_space_group_name_H-M "C M C M"
_symmetry_group_IT_number 63
_symmetry_cell_setting 'orthorhombic'
loop_
_space_group_symop_operation_xyz
x,y,z
-x,-y,1/2+z
x,-y,-z
-x,y,1/2-z
-x,-y,-z
x,y,1/2-z
-x,y,z
x,-y,1/2+z
1/2+x,1/2+y,z
1/2-x,1/2-y,1/2+z
1/2+x,1/2-y,-z
1/2-x,1/2+y,1/2-z
1/2-x,1/2-y,-z
1/2+x,1/2+y,1/2-z
1/2-x,1/2+y,z
1/2+x,1/2-y,1/2+z
loop_
_atom_site_type_symbol
_atom_site_label
_atom_site_fract_x
_atom_site_fract_y
_atom_site_fract_z
Si Si1 0.289620 0.232947 0.815904
Si Si2 0.704862 0.660494 0.953080
Si Si3 0.793668 0.766254 0.587270
Si Si4 0.000000 0.267549 0.750000
Si Si5 0.295382 0.888069 0.296816
Si Si6 0.790081 0.872751 0.953592
Si Si7 0.297640 0.009164 0.451829
Si Si8 0.300361 0.420893 0.113728
O O1 0.500000 0.239367 0.807734
O O2 0.255825 0.248237 0.864819
O O3 0.243674 0.171731 0.807700
O O4 0.155767 0.264281 0.786639
O O5 0.500000 0.650398 0.954304
O O6 0.729674 0.721622 0.944874
O O7 0.780429 0.626968 0.913671
O O8 0.771501 0.640160 0.998319
O O9 0.731820 0.824308 0.575568
O O10 0.000000 0.767037 0.582857
O O11 0.222790 0.902704 0.250000
O O12 0.500000 0.886327 0.292772
O O13 0.263252 0.923953 0.337916
O O14 0.727081 0.930053 0.941046
O O15 0.000000 0.874315 0.953276
O O16 0.500000 0.996177 0.453127
O O17 0.226555 0.000000 0.500000
O O18 0.218477 0.971466 0.416179
O O19 0.500000 0.408417 0.119026
#
# Coordination Sequence:
#
# PCOD9471822 Si02
#       8
#    16  16  16   4  16  16  16  16
#     4  10  21  35  53  84 119 151 192 239 288 352
#     4  10  20  32  52  81 116 152 191 232 277 339
#     4  10  21  35  54  80 117 155 188 231 287 344
#     4  12  22  32  60  82 112 160 190 240 292 358
#     4  10  20  35  54  80 116 151 182 234 292 342
#     4  10  21  38  56  79 111 153 196 239 285 334
#     4  11  23  38  57  81 109 148 195 241 291 339
#     4  11  22  34  56  84 113 149 189 236 284 342
#
# _framework density 18.721112999999999
#
# number of rings (size 3 to 8) (size 9 to 14) (size 15 to 20)
#    0.000    1.655    3.448    1.448    1.931    2.483 
#    0.000    0.000    0.000    0.000    1.793    0.000 
#    0.000    0.000    0.000    0.000    0.000    0.000 
#
# Total GULP energy -323026.182427 kJ/mol
# GULP energy per Si atom -5569.416938 kJ/mol
# Density = 1.867850 g / cm^3
# Si number density = 18.721113 Si / 1000 Ang^3
#
#
#
# Elastic Constant Matrix: (Units=GPa)
#
#
# Indices 1 2 3 4 5 6 
#
# 1 36.9756 -9.9777 14.0778 0.0000 0.0000 0.0000
# 2 -9.9777 81.0553 33.4913 0.0000 0.0000 0.0000
# 3 14.0778 33.4913 122.2290 0.0000 0.0000 0.0000
# 4 0.0000 0.0000 0.0000 -8.8037 0.0000 0.0000
# 5 0.0000 0.0000 0.0000 0.0000 15.7801 0.0000
# 6 0.0000 0.0000 0.0000 0.0000 0.0000 15.1796
#
#
#
# Elastic Compliance Matrix: (Units=1/GPa)
#
#
# Indices 1 2 3 4 5 6 
#
# 1 0.030589 0.005888 -0.005136 0.000000 0.000000 0.000000
# 2 0.005888 0.015046 -0.004801 0.000000 0.000000 0.000000
# 3 -0.005136 -0.004801 0.010088 0.000000 0.000000 0.000000
# 4 0.000000 0.000000 0.000000 -0.113589 0.000000 0.000000
# 5 0.000000 0.000000 0.000000 0.000000 0.063371 0.000000
# 6 0.000000 0.000000 0.000000 0.000000 0.000000 0.065878
#
#
# Mechanical properties :
#
#
# Convention : Reuss Voigt Hill
#
# Bulk Modulus (GPa) = 20.99756 35.04920 28.02338
# Shear Modulus (GPa) = 52.43469 17.94244 35.18856
#
# Velocity S-wave (km/s) = 5.29803 3.09917 4.34016
# Velocity P-wave (km/s) = 6.97609 5.61862 6.33383
#
# Compressibility (1/GPa) = 0.04762458
#
# Stress axis : x y z
#
# Youngs Moduli (GPa) = 32.69121 66.46443 99.12402
#
# Poissons Ratio (x) = -0.39133 0.50914
# Poissons Ratio (y) = -0.19248 0.47587
# Poissons Ratio (z) = 0.16792 0.31908
#
# Static dielectric constant tensor:
#      x y z
#    x 1.680180 0.000000 0.000000 
#    y 0.000000 1.629660 0.000000 
#    z 0.000000 0.000000 1.694770 
# 
# From -- ./inp_files/72094.got.cif
#   From: 2010.05.17/outbox.cif.g08.bks.cpg/sg63_37_cif.got.tgz:72094.got - 2010.06.03 15:47:04.
