data_PCOD9471160
_publ_section_title
;
Structure prediction by ZEFSAII (Michael W. Deem and Ramdas Pophale) SiO2 
 PCOD9471160
Probable space group: C M C M
;
_chemical_formula_sum "Si O2"
_cell_formula_units_Z 112
_cell_length_a 15.231567
_cell_length_b 14.247162
_cell_length_c 23.691229
_cell_angle_alpha 90.000000
_cell_angle_beta 90.000000
_cell_angle_gamma 90.000000
_cell_volume 5141.153116
_symmetry_space_group_name_H-M "C M C M"
_symmetry_group_IT_number 63
_symmetry_cell_setting 'orthorhombic'
loop_
_space_group_symop_operation_xyz
x,y,z
-x,-y,1/2+z
x,-y,-z
-x,y,1/2-z
-x,-y,-z
x,y,1/2-z
-x,y,z
x,-y,1/2+z
1/2+x,1/2+y,z
1/2-x,1/2-y,1/2+z
1/2+x,1/2-y,-z
1/2-x,1/2+y,1/2-z
1/2-x,1/2-y,-z
1/2+x,1/2+y,1/2-z
1/2-x,1/2+y,z
1/2+x,1/2-y,1/2+z
loop_
_atom_site_type_symbol
_atom_site_label
_atom_site_fract_x
_atom_site_fract_y
_atom_site_fract_z
Si Si1 0.150364 0.766643 0.014641
Si Si2 0.106487 0.524060 0.812620
Si Si3 0.903210 0.613574 0.099163
Si Si4 0.791460 0.285609 0.314074
Si Si5 0.905735 0.788637 0.183205
Si Si6 0.601171 0.345908 0.606338
Si Si7 0.894572 0.041273 0.559041
O O1 0.123808 0.669279 0.043652
O O2 0.136710 0.851490 0.059352
O O3 0.250000 0.750000 0.000000
O O4 0.103851 0.801312 0.957096
O O5 0.133275 0.487685 0.750000
O O6 0.144200 0.469047 0.866918
O O7 0.139957 0.629625 0.816679
O O8 0.000000 0.519918 0.813687
O O9 0.907584 0.693521 0.147443
O O10 0.000000 0.577044 0.085898
O O11 0.791509 0.247765 0.250000
O O12 0.693388 0.325736 0.324987
O O13 0.826103 0.207818 0.357262
O O14 0.909888 0.769594 0.250000
O O15 0.000000 0.839172 0.169361
O O16 0.500000 0.335380 0.626855
O O17 0.622779 0.457164 0.602559
O O18 0.000000 0.046286 0.554576
O O19 0.858465 0.000000 0.500000
#
# Coordination Sequence:
#
# PCOD9471160 Si02
#       7
#    16  16  16  16  16  16  16
#     4  11  21  35  56  87 121 158 202 253 306 364
#     4   9  18  34  58  88 120 157 201 248 304 370
#     4  10  19  34  58  85 116 156 200 244 295 359
#     4  10  20  36  60  91 126 163 204 254 312 369
#     4   9  18  34  56  82 113 151 197 249 305 363
#     4  10  20  37  61  87 118 159 207 258 309 366
#     4   8  16  34  59  82 108 149 197 240 291 356
#
# _framework density 21.784996
#
# number of rings (size 3 to 8) (size 9 to 14) (size 15 to 20)
#    0.000    2.429    0.000    3.857    0.000    2.571 
#    0.000   12.143    0.000    6.000    0.000    8.000 
#    0.000    8.571    0.000    0.000    0.000    1.286 
#
# Total GULP energy -311906.465158 kJ/mol
# GULP energy per Si atom -5569.758306 kJ/mol
# Density = 2.173541 g / cm^3
# Si number density = 21.784996 Si / 1000 Ang^3
#
#
#
# Elastic Constant Matrix: (Units=GPa)
#
#
# Indices 1 2 3 4 5 6 
#
# 1 85.1003 31.0892 25.5963 0.0000 0.0000 0.0000
# 2 31.0892 73.9686 30.7262 0.0000 0.0000 0.0000
# 3 25.5963 30.7262 88.3409 0.0000 0.0000 0.0000
# 4 0.0000 0.0000 0.0000 31.3274 0.0000 0.0000
# 5 0.0000 0.0000 0.0000 0.0000 27.1967 0.0000
# 6 0.0000 0.0000 0.0000 0.0000 0.0000 -0.2410
#
#
#
# Elastic Compliance Matrix: (Units=1/GPa)
#
#
# Indices 1 2 3 4 5 6 
#
# 1 0.014305 -0.005015 -0.002400 0.000000 0.000000 0.000000
# 2 -0.005015 0.017561 -0.004655 0.000000 0.000000 0.000000
# 3 -0.002400 -0.004655 0.013634 0.000000 0.000000 0.000000
# 4 0.000000 0.000000 0.000000 0.031921 0.000000 0.000000
# 5 0.000000 0.000000 0.000000 0.000000 0.036769 0.000000
# 6 0.000000 0.000000 0.000000 0.000000 0.000000 -4.149687
#
#
# Mechanical properties :
#
#
# Convention : Reuss Voigt Hill
#
# Bulk Modulus (GPa) = 46.81831 46.91480 46.86656
# Shear Modulus (GPa) = -1.24868 22.32317 10.53725
#
# Velocity S-wave (km/s) = -0.75791 3.20457 2.20169
# Velocity P-wave (km/s) = 4.55761 5.93923 5.29369
#
# Compressibility (1/GPa) = 0.02135916
#
# Stress axis : x y z
#
# Youngs Moduli (GPa) = 69.90538 56.94519 73.34459
#
# Poissons Ratio (x) = 0.28560 0.17606
# Poissons Ratio (y) = 0.35060 0.34140
# Poissons Ratio (z) = 0.16780 0.26506
#
# Static dielectric constant tensor:
#      x y z
#    x 1.790030 0.000000 0.000000 
#    y 0.000000 1.793820 0.000000 
#    z 0.000000 0.000000 1.883980 
# 
# From -- ./inp_files/69410.got.cif
#   From: 2010.05.17/outbox.cif.g08.bks.cpg/sg63_35_cif.got.tgz:69410.got - 2010.06.03 15:47:04.
