data_PCOD9471935
_publ_section_title
;
Structure prediction by ZEFSAII (Michael W. Deem and Ramdas Pophale) SiO2 
 PCOD9471935
Probable space group: C M C M
;
_chemical_formula_sum "Si O2"
_cell_formula_units_Z 104
_cell_length_a 26.592881
_cell_length_b 24.398525
_cell_length_c 8.534590
_cell_angle_alpha 90.000000
_cell_angle_beta 90.000000
_cell_angle_gamma 90.000000
_cell_volume 5537.473040
_symmetry_space_group_name_H-M "C M C M"
_symmetry_group_IT_number 63
_symmetry_cell_setting 'orthorhombic'
loop_
_space_group_symop_operation_xyz
x,y,z
-x,-y,1/2+z
x,-y,-z
-x,y,1/2-z
-x,-y,-z
x,y,1/2-z
-x,y,z
x,-y,1/2+z
1/2+x,1/2+y,z
1/2-x,1/2-y,1/2+z
1/2+x,1/2-y,-z
1/2-x,1/2+y,1/2-z
1/2-x,1/2-y,-z
1/2+x,1/2+y,1/2-z
1/2-x,1/2+y,z
1/2+x,1/2-y,1/2+z
loop_
_atom_site_type_symbol
_atom_site_label
_atom_site_fract_x
_atom_site_fract_y
_atom_site_fract_z
Si Si1 0.940144 0.942268 0.928234
Si Si2 0.178964 0.560060 0.061911
Si Si3 0.375135 0.354436 0.431483
Si Si4 0.593011 0.864222 0.061675
Si Si5 0.000000 0.439102 0.438155
Si Si6 0.295435 0.439786 0.937000
Si Si7 0.058664 0.246201 0.939599
O O1 0.920831 0.934806 0.750000
O O2 0.000000 0.941244 0.920686
O O3 0.921019 0.896242 0.044244
O O4 0.924701 0.000000 0.000000
O O5 0.176244 0.559598 0.250000
O O6 0.237246 0.567572 0.013265
O O7 0.162465 0.500000 0.000000
O O8 0.144528 0.608582 0.996439
O O9 0.362480 0.346196 0.250000
O O10 0.329474 0.388591 0.508616
O O11 0.399795 0.298314 0.495882
O O12 0.593376 0.860392 0.250000
O O13 0.549175 0.906083 0.011121
O O14 0.578022 0.805498 0.992611
O O15 0.000000 0.500000 0.500000
O O16 0.000000 0.440347 0.250000
O O17 0.296751 0.442453 0.750000
O O18 0.311393 0.500000 0.000000
O O19 0.057870 0.243104 0.750000
O O20 0.000000 0.237309 0.991895
#
# Coordination Sequence:
#
# PCOD9471935 Si02
#       7
#    16  16  16  16   8  16  16
#     4  10  20  33  50  74 105 141 181 230 290 348
#     4  10  21  38  61  89 119 152 190 233 286 346
#     4  11  22  36  56  81 110 146 193 241 288 345
#     4  11  22  38  59  86 119 153 192 234 283 341
#     4  10  22  36  54  86 120 150 183 224 275 334
#     4  10  21  38  60  86 117 151 191 240 293 346
#     4  10  22  40  60  82 112 154 197 239 289 341
#
# _framework density 18.781129
#
# number of rings (size 3 to 8) (size 9 to 14) (size 15 to 20)
#    0.000    1.692    0.769    3.692    0.000    7.077 
#    0.000    0.769    0.000    0.000    0.000    0.000 
#    0.000    0.000    0.000    0.000    0.000    0.000 
#
# Total GULP energy -290158.152946 kJ/mol
# GULP energy per Si atom -5579.964480 kJ/mol
# Density = 1.873838 g / cm^3
# Si number density = 18.781129 Si / 1000 Ang^3
#
#
#
# Elastic Constant Matrix: (Units=GPa)
#
#
# Indices 1 2 3 4 5 6 
#
# 1 115.7853 57.3005 15.4453 0.0000 0.0000 0.0000
# 2 57.3005 146.0069 8.6770 0.0000 0.0000 0.0000
# 3 15.4453 8.6770 21.5965 0.0000 0.0000 0.0000
# 4 0.0000 0.0000 0.0000 29.0703 0.0000 0.0000
# 5 0.0000 0.0000 0.0000 0.0000 28.9679 0.0000
# 6 0.0000 0.0000 0.0000 0.0000 0.0000 35.3413
#
#
#
# Elastic Compliance Matrix: (Units=1/GPa)
#
#
# Indices 1 2 3 4 5 6 
#
# 1 0.011571 -0.004148 -0.006609 0.000000 0.000000 0.000000
# 2 -0.004148 0.008504 -0.000450 0.000000 0.000000 0.000000
# 3 -0.006609 -0.000450 0.051211 0.000000 0.000000 0.000000
# 4 0.000000 0.000000 0.000000 0.034399 0.000000 0.000000
# 5 0.000000 0.000000 0.000000 0.000000 0.034521 0.000000
# 6 0.000000 0.000000 0.000000 0.000000 0.000000 0.028295
#
#
# Mechanical properties :
#
#
# Convention : Reuss Voigt Hill
#
# Bulk Modulus (GPa) = 20.46158 49.58160 35.02159
# Shear Modulus (GPa) = 24.13054 32.14029 28.13541
#
# Velocity S-wave (km/s) = 3.58834 4.14128 3.87469
# Velocity P-wave (km/s) = 5.29968 7.02310 6.22136
#
# Compressibility (1/GPa) = 0.04887207
#
# Stress axis : x y z
#
# Youngs Moduli (GPa) = 86.42119 117.59500 19.52708
#
# Poissons Ratio (x) = 0.48783 0.12905
# Poissons Ratio (y) = 0.35851 0.00878
# Poissons Ratio (z) = 0.57114 0.05289
#
# Static dielectric constant tensor:
#      x y z
#    x 1.676910 0.000000 0.000000 
#    y 0.000000 1.622420 0.000000 
#    z 0.000000 0.000000 1.655170 
# 
# From -- ./inp_files/12489.got.cif
#   From: 2010.05.17/outbox.cif.g08.bks.cpg/sg63_7_cif.got.tgz:12489.got - 2010.06.03 15:47:04.
