data_PCOD9471449
_publ_section_title
;
Structure prediction by ZEFSAII (Michael W. Deem and Ramdas Pophale) SiO2 
 PCOD9471449
Probable space group: C M C M
;
_chemical_formula_sum "Si O2"
_cell_formula_units_Z 88
_cell_length_a 17.319903
_cell_length_b 10.191313
_cell_length_c 24.626891
_cell_angle_alpha 90.000000
_cell_angle_beta 90.000000
_cell_angle_gamma 90.000000
_cell_volume 4346.955393
_symmetry_space_group_name_H-M "C M C M"
_symmetry_group_IT_number 63
_symmetry_cell_setting 'orthorhombic'
loop_
_space_group_symop_operation_xyz
x,y,z
-x,-y,1/2+z
x,-y,-z
-x,y,1/2-z
-x,-y,-z
x,y,1/2-z
-x,y,z
x,-y,1/2+z
1/2+x,1/2+y,z
1/2-x,1/2-y,1/2+z
1/2+x,1/2-y,-z
1/2-x,1/2+y,1/2-z
1/2-x,1/2-y,-z
1/2+x,1/2+y,1/2-z
1/2-x,1/2+y,z
1/2+x,1/2-y,1/2+z
loop_
_atom_site_type_symbol
_atom_site_label
_atom_site_fract_x
_atom_site_fract_y
_atom_site_fract_z
Si Si1 0.911762 0.115537 0.868303
Si Si2 0.413572 0.316621 0.658513
Si Si3 0.637450 0.642793 0.514569
Si Si4 0.785906 0.500000 0.000000
Si Si5 0.791301 0.864827 0.750000
Si Si6 0.086298 0.377505 0.439269
Si Si7 0.661542 0.342398 0.250000
O O1 0.864153 0.163112 0.920547
O O2 0.885039 0.150562 0.807048
O O3 0.000000 0.159267 0.875451
O O4 0.909724 0.956915 0.871427
O O5 0.500000 0.312636 0.683668
O O6 0.343349 0.320062 0.699517
O O7 0.406740 0.196901 0.617483
O O8 0.599774 0.500000 0.500000
O O9 0.725045 0.617762 0.493993
O O10 0.597863 0.762518 0.484001
O O11 0.844089 0.476868 0.049635
O O12 0.711841 0.788298 0.750000
O O13 0.787945 0.022984 0.750000
O O14 0.000000 0.433885 0.443358
#
# Coordination Sequence:
#
# PCOD9471449 Si02
#       7
#    16  16  16   8   8  16   8
#     4  10  19  36  59  85 111 142 190 241 288 333
#     4   9  18  33  58  82 109 146 191 240 276 332
#     4  10  21  34  58  83 113 144 188 236 280 332
#     4  10  23  36  51  82 120 158 184 228 285 346
#     4  10  21  37  59  81 117 140 198 230 300 336
#     4  11  21  37  57  83 118 155 194 233 287 346
#     4  10  23  39  57  87 109 156 180 246 282 358
#
# _framework density 20.244053999999998
#
# number of rings (size 3 to 8) (size 9 to 14) (size 15 to 20)
#    0.545    1.455    1.818    1.909    2.545    2.909 
#    3.273    0.000    0.000    2.182    0.000    0.000 
#    0.000    0.000    0.000    0.000    0.000    0.000 
#
# Total GULP energy -245268.099104 kJ/mol
# GULP energy per Si atom -5574.274980 kJ/mol
# Density = 2.019798 g / cm^3
# Si number density = 20.244054 Si / 1000 Ang^3
#
#
#
# Elastic Constant Matrix: (Units=GPa)
#
#
# Indices 1 2 3 4 5 6 
#
# 1 83.8706 12.7649 3.7177 0.0000 0.0000 0.0000
# 2 12.7649 35.3696 9.2554 0.0000 0.0000 0.0000
# 3 3.7177 9.2554 78.9739 0.0000 0.0000 0.0000
# 4 0.0000 0.0000 0.0000 22.9397 0.0000 0.0000
# 5 0.0000 0.0000 0.0000 0.0000 19.0178 0.0000
# 6 0.0000 0.0000 0.0000 0.0000 0.0000 9.5825
#
#
#
# Elastic Compliance Matrix: (Units=1/GPa)
#
#
# Indices 1 2 3 4 5 6 
#
# 1 0.012616 -0.004537 -0.000062 0.000000 0.000000 0.000000
# 2 -0.004537 0.030799 -0.003396 0.000000 0.000000 0.000000
# 3 -0.000062 -0.003396 0.013063 0.000000 0.000000 0.000000
# 4 0.000000 0.000000 0.000000 0.043592 0.000000 0.000000
# 5 0.000000 0.000000 0.000000 0.000000 0.052582 0.000000
# 6 0.000000 0.000000 0.000000 0.000000 0.000000 0.104357
#
#
# Mechanical properties :
#
#
# Convention : Reuss Voigt Hill
#
# Bulk Modulus (GPa) = 24.69843 27.74335 26.22089
# Shear Modulus (GPa) = 17.45220 21.80642 19.62931
#
# Velocity S-wave (km/s) = 2.93932 3.28560 3.11727
# Velocity P-wave (km/s) = 4.87302 5.30356 5.09284
#
# Compressibility (1/GPa) = 0.04048840
#
# Stress axis : x y z
#
# Youngs Moduli (GPa) = 79.26193 32.46875 76.55024
#
# Poissons Ratio (x) = 0.14731 0.00476
# Poissons Ratio (y) = 0.35961 0.25996
# Poissons Ratio (z) = 0.00493 0.11026
#
# Static dielectric constant tensor:
#      x y z
#    x 1.727260 0.000000 0.000000 
#    y 0.000000 1.732940 0.000000 
#    z 0.000000 0.000000 1.720900 
# 
# From -- ./inp_files/69273.got.cif
#   From: 2010.05.17/outbox.cif.g08.bks.cpg/sg63_35_cif.got.tgz:69273.got - 2010.06.03 15:47:04.
