data_PCOD9471404
_publ_section_title
;
Structure prediction by ZEFSAII (Michael W. Deem and Ramdas Pophale) SiO2 
 PCOD9471404
Probable space group: C M C M
;
_chemical_formula_sum "Si O2"
_cell_formula_units_Z 52
_cell_length_a 10.393402
_cell_length_b 28.927874
_cell_length_c 7.265563
_cell_angle_alpha 90.000000
_cell_angle_beta 90.000000
_cell_angle_gamma 90.000000
_cell_volume 2184.457077
_symmetry_space_group_name_H-M "C M C M"
_symmetry_group_IT_number 63
_symmetry_cell_setting 'orthorhombic'
loop_
_space_group_symop_operation_xyz
x,y,z
-x,-y,1/2+z
x,-y,-z
-x,y,1/2-z
-x,-y,-z
x,y,1/2-z
-x,y,z
x,-y,1/2+z
1/2+x,1/2+y,z
1/2-x,1/2-y,1/2+z
1/2+x,1/2-y,-z
1/2-x,1/2+y,1/2-z
1/2-x,1/2-y,-z
1/2+x,1/2+y,1/2-z
1/2-x,1/2+y,z
1/2+x,1/2-y,1/2+z
loop_
_atom_site_type_symbol
_atom_site_label
_atom_site_fract_x
_atom_site_fract_y
_atom_site_fract_z
Si Si1 0.500000 0.825409 0.460175
Si Si2 0.241032 0.450840 0.466749
Si Si3 0.778807 0.850896 0.472634
Si Si4 0.500000 0.951080 0.750000
Si Si5 0.000000 0.217564 0.526778
O O1 0.500000 0.842242 0.250000
O O2 0.633771 0.842726 0.542295
O O3 0.500000 0.770023 0.462158
O O4 0.308510 0.500000 0.500000
O O5 0.207139 0.448034 0.250000
O O6 0.316082 0.403637 0.513123
O O7 0.113206 0.451335 0.589836
O O8 0.776434 0.846238 0.250000
O O9 0.876022 0.811497 0.535338
O O10 0.000000 0.219267 0.750000
#
# Coordination Sequence:
#
# PCOD9471404 Si02
#       5
#     8  16  16   4   8
#     4  10  19  36  56  86 117 152 190 253 306 349
#     4  11  22  37  56  87 125 158 197 249 298 354
#     4   9  20  38  60  82 121 158 195 240 305 355
#     4  12  22  34  56  88 120 160 202 236 304 352
#     4  10  20  39  61  84 111 161 202 240 295 366
#
# _framework density 23.804541
#
# number of rings (size 3 to 8) (size 9 to 14) (size 15 to 20)
#    0.000    1.846    1.538    2.769    0.000    2.462 
#    8.308    0.769    0.000    0.000    0.000    0.000 
#    0.000    0.000    0.000    0.000    0.000    0.000 
#
# Total GULP energy -144832.923671 kJ/mol
# GULP energy per Si atom -5570.497064 kJ/mol
# Density = 2.375036 g / cm^3
# Si number density = 23.804541 Si / 1000 Ang^3
#
#
#
# Elastic Constant Matrix: (Units=GPa)
#
#
# Indices 1 2 3 4 5 6 
#
# 1 63.1657 29.2247 -9.2076 0.0000 0.0000 0.0000
# 2 29.2247 171.8257 -11.0883 0.0000 0.0000 0.0000
# 3 -9.2076 -11.0883 146.2400 0.0000 0.0000 0.0000
# 4 0.0000 0.0000 0.0000 22.7827 0.0000 0.0000
# 5 0.0000 0.0000 0.0000 0.0000 1.9191 0.0000
# 6 0.0000 0.0000 0.0000 0.0000 0.0000 -137.4303
#
#
#
# Elastic Compliance Matrix: (Units=1/GPa)
#
#
# Indices 1 2 3 4 5 6 
#
# 1 0.017293 -0.002885 0.000870 0.000000 0.000000 0.000000
# 2 -0.002885 0.006330 0.000298 0.000000 0.000000 0.000000
# 3 0.000870 0.000298 0.006915 0.000000 0.000000 0.000000
# 4 0.000000 0.000000 0.000000 0.043893 0.000000 0.000000
# 5 0.000000 0.000000 0.000000 0.000000 0.521077 0.000000
# 6 0.000000 0.000000 0.000000 0.000000 0.000000 -0.007276
#
#
# Mechanical properties :
#
#
# Convention : Reuss Voigt Hill
#
# Bulk Modulus (GPa) = 36.89384 44.34322 40.61853
# Shear Modulus (GPa) = 8.32361 2.27447 5.29904
#
# Velocity S-wave (km/s) = 1.87196 0.97855 1.49362
# Velocity P-wave (km/s) = 4.49496 4.46601 4.48050
#
# Compressibility (1/GPa) = 0.02710480
#
# Stress axis : x y z
#
# Youngs Moduli (GPa) = 57.82669 157.98257 144.60332
#
# Poissons Ratio (x) = 0.45580 -0.12581
# Poissons Ratio (y) = 0.16684 -0.04313
# Poissons Ratio (z) = -0.05031 -0.04712
#
# Static dielectric constant tensor:
#      x y z
#    x 1.853240 0.000000 0.000000 
#    y 0.000000 1.943390 0.000000 
#    z 0.000000 0.000000 1.900230 
# 
# From -- ./inp_files/2775.got.cif
#   From: 2010.05.17/outbox.cif.g08.bks.cpg/sg63_2_cif.got.tgz:2775.got - 2010.06.03 15:47:04.
