data_PCOD9471177
_publ_section_title
;
Structure prediction by ZEFSAII (Michael W. Deem and Ramdas Pophale) SiO2 
 PCOD9471177
Probable space group: C M C M
;
_chemical_formula_sum "Si O2"
_cell_formula_units_Z 112
_cell_length_a 29.376690
_cell_length_b 15.947036
_cell_length_c 11.831403
_cell_angle_alpha 90.000000
_cell_angle_beta 90.000000
_cell_angle_gamma 90.000000
_cell_volume 5542.670768
_symmetry_space_group_name_H-M "C M C M"
_symmetry_group_IT_number 63
_symmetry_cell_setting 'orthorhombic'
loop_
_space_group_symop_operation_xyz
x,y,z
-x,-y,1/2+z
x,-y,-z
-x,y,1/2-z
-x,-y,-z
x,y,1/2-z
-x,y,z
x,-y,1/2+z
1/2+x,1/2+y,z
1/2-x,1/2-y,1/2+z
1/2+x,1/2-y,-z
1/2-x,1/2+y,1/2-z
1/2-x,1/2-y,-z
1/2+x,1/2+y,1/2-z
1/2-x,1/2+y,z
1/2+x,1/2-y,1/2+z
loop_
_atom_site_type_symbol
_atom_site_label
_atom_site_fract_x
_atom_site_fract_y
_atom_site_fract_z
Si Si1 0.553131 0.309140 0.545770
Si Si2 0.357590 0.907742 0.486208
Si Si3 0.796360 0.157013 0.454678
Si Si4 0.130750 0.755187 0.381561
Si Si5 0.224586 0.336852 0.127335
Si Si6 0.950759 0.378971 0.379395
Si Si7 0.622357 0.549999 0.121416
O O1 0.500000 0.331731 0.526354
O O2 0.582437 0.284987 0.433974
O O3 0.553687 0.222139 0.614875
O O4 0.582223 0.380731 0.608340
O O5 0.359891 0.842758 0.590069
O O6 0.327418 0.862611 0.391297
O O7 0.408773 0.916038 0.444253
O O8 0.338227 0.000000 0.500000
O O9 0.830858 0.195448 0.548395
O O10 0.776099 0.235905 0.386183
O O11 0.754353 0.123071 0.527527
O O12 0.828087 0.094695 0.385105
O O13 0.133360 0.771485 0.250000
O O14 0.241709 0.360986 0.250000
O O15 0.949498 0.405837 0.250000
O O16 0.000000 0.399786 0.429281
O O17 0.618168 0.511791 0.250000
O O18 0.619397 0.500000 0.000000
#
# Coordination Sequence:
#
# PCOD9471177 Si02
#       7
#    16  16  16  16  16  16  16
#     4   9  19  36  58  83 109 138 181 237 287 334
#     4  10  21  33  47  75 113 145 179 223 275 332
#     4   9  20  37  57  81 108 140 185 236 282 334
#     4   9  18  33  53  76 106 147 191 235 286 340
#     4  10  19  34  59  84 105 138 185 234 282 330
#     4   9  17  32  56  79  98 131 178 222 266 319
#     4  11  24  40  59  85 119 157 192 230 284 349
#
# _framework density 20.206866000000002
#
# number of rings (size 3 to 8) (size 9 to 14) (size 15 to 20)
#    0.000    2.429    0.000    2.571    0.000    6.286 
#    0.000    0.714    0.000    0.000    0.000    0.000 
#    0.000    0.000    0.000    0.000    0.000    0.000 
#
# Total GULP energy -311992.124808 kJ/mol
# GULP energy per Si atom -5571.287943 kJ/mol
# Density = 2.016087 g / cm^3
# Si number density = 20.206866 Si / 1000 Ang^3
#
#
#
# Elastic Constant Matrix: (Units=GPa)
#
#
# Indices 1 2 3 4 5 6 
#
# 1 87.3788 8.4743 10.7656 0.0000 0.0000 0.0000
# 2 8.4743 41.8408 16.1199 0.0000 0.0000 0.0000
# 3 10.7656 16.1199 110.6312 0.0000 0.0000 0.0000
# 4 0.0000 0.0000 0.0000 -2.8359 0.0000 0.0000
# 5 0.0000 0.0000 0.0000 0.0000 7.2598 0.0000
# 6 0.0000 0.0000 0.0000 0.0000 0.0000 13.2996
#
#
#
# Elastic Compliance Matrix: (Units=1/GPa)
#
#
# Indices 1 2 3 4 5 6 
#
# 1 0.011748 -0.002054 -0.000844 0.000000 0.000000 0.000000
# 2 -0.002054 0.025681 -0.003542 0.000000 0.000000 0.000000
# 3 -0.000844 -0.003542 0.009637 0.000000 0.000000 0.000000
# 4 0.000000 0.000000 0.000000 -0.352623 0.000000 0.000000
# 5 0.000000 0.000000 0.000000 0.000000 0.137744 0.000000
# 6 0.000000 0.000000 0.000000 0.000000 0.000000 0.075190
#
#
# Mechanical properties :
#
#
# Convention : Reuss Voigt Hill
#
# Bulk Modulus (GPa) = 29.25214 34.50781 31.87998
# Shear Modulus (GPa) = -73.15522 17.17745 -27.98889
#
# Velocity S-wave (km/s) = -6.02343 2.91878 -3.72575
# Velocity P-wave (km/s) = 5.81961 5.33604 1.64234
#
# Compressibility (1/GPa) = 0.03418553
#
# Stress axis : x y z
#
# Youngs Moduli (GPa) = 85.12369 38.93958 103.76400
#
# Poissons Ratio (x) = 0.07999 0.08756
# Poissons Ratio (y) = 0.17486 0.36753
# Poissons Ratio (z) = 0.07183 0.13792
#
# Static dielectric constant tensor:
#      x y z
#    x 1.735820 0.000000 0.000000 
#    y 0.000000 1.740940 0.000000 
#    z 0.000000 0.000000 1.727540 
# 
# From -- ./inp_files/25937.got.cif
#   From: 2010.05.17/outbox.cif.g08.bks.cpg/sg63_13_cif.got.tgz:25937.got - 2010.06.03 15:47:04.
