data_PCOD9471339
_publ_section_title
;
Structure prediction by ZEFSAII (Michael W. Deem and Ramdas Pophale) SiO2 
 PCOD9471339
Probable space group: C M C M
;
_chemical_formula_sum "Si O2"
_cell_formula_units_Z 96
_cell_length_a 15.387806
_cell_length_b 11.705536
_cell_length_c 22.413821
_cell_angle_alpha 90.000000
_cell_angle_beta 90.000000
_cell_angle_gamma 90.000000
_cell_volume 4037.233856
_symmetry_space_group_name_H-M "C M C M"
_symmetry_group_IT_number 63
_symmetry_cell_setting 'orthorhombic'
loop_
_space_group_symop_operation_xyz
x,y,z
-x,-y,1/2+z
x,-y,-z
-x,y,1/2-z
-x,-y,-z
x,y,1/2-z
-x,y,z
x,-y,1/2+z
1/2+x,1/2+y,z
1/2-x,1/2-y,1/2+z
1/2+x,1/2-y,-z
1/2-x,1/2+y,1/2-z
1/2-x,1/2-y,-z
1/2+x,1/2+y,1/2-z
1/2-x,1/2+y,z
1/2+x,1/2-y,1/2+z
loop_
_atom_site_type_symbol
_atom_site_label
_atom_site_fract_x
_atom_site_fract_y
_atom_site_fract_z
Si Si1 0.849043 0.259810 0.184418
Si Si2 0.363541 0.753285 0.684266
Si Si3 0.149431 0.002844 0.814227
Si Si4 0.718370 0.547072 0.061224
Si Si5 0.406890 0.889081 0.564232
Si Si6 0.403495 0.758509 0.438023
O O1 0.869890 0.307786 0.250000
O O2 0.743071 0.251773 0.180712
O O3 0.885100 0.127557 0.183869
O O4 0.888657 0.319770 0.126143
O O5 0.383162 0.804895 0.750000
O O6 0.399560 0.623417 0.686169
O O7 0.396617 0.815738 0.625037
O O8 0.198546 0.004731 0.750000
O O9 0.195033 0.012427 0.877500
O O10 0.821028 0.538175 0.060355
O O11 0.678739 0.673542 0.062804
O O12 0.680686 0.500000 0.000000
O O13 0.500000 0.949353 0.565829
O O14 0.403401 0.818055 0.502348
O O15 0.500000 0.703309 0.434128
#
# Coordination Sequence:
#
# PCOD9471339 Si02
#       6
#    16  16  16  16  16  16
#     4   9  18  34  57  84 112 148 190 233 289 349
#     4  10  19  35  60  85 114 151 191 237 289 345
#     4   9  18  33  56  87 113 143 189 236 284 347
#     4  11  22  36  60  83 114 156 192 238 295 339
#     4  11  23  38  57  84 118 156 199 240 285 347
#     4  10  21  36  56  83 114 150 192 237 288 349
#
# _framework density 23.778656999999999
#
# number of rings (size 3 to 8) (size 9 to 14) (size 15 to 20)
#    0.000    2.000    3.333    1.500    2.333    1.333 
#    0.000    5.000    0.000    8.000    0.000    0.000 
#    0.000    0.000    0.000    0.000    0.000    0.000 
#
# Total GULP energy -267243.413291 kJ/mol
# GULP energy per Si atom -5567.571110 kJ/mol
# Density = 2.372454 g / cm^3
# Si number density = 23.778657 Si / 1000 Ang^3
#
#
#
# Elastic Constant Matrix: (Units=GPa)
#
#
# Indices 1 2 3 4 5 6 
#
# 1 74.8847 -5.1440 43.5858 0.0000 0.0000 0.0000
# 2 -5.1440 36.0354 27.9787 0.0000 0.0000 0.0000
# 3 43.5858 27.9787 280.5451 0.0000 0.0000 0.0000
# 4 0.0000 0.0000 0.0000 36.8861 0.0000 0.0000
# 5 0.0000 0.0000 0.0000 0.0000 24.1512 0.0000
# 6 0.0000 0.0000 0.0000 0.0000 0.0000 -22.4086
#
#
#
# Elastic Compliance Matrix: (Units=1/GPa)
#
#
# Indices 1 2 3 4 5 6 
#
# 1 0.015290 0.004365 -0.002811 0.000000 0.000000 0.000000
# 2 0.004365 0.031326 -0.003802 0.000000 0.000000 0.000000
# 3 -0.002811 -0.003802 0.004380 0.000000 0.000000 0.000000
# 4 0.000000 0.000000 0.000000 0.027110 0.000000 0.000000
# 5 0.000000 0.000000 0.000000 0.000000 0.041406 0.000000
# 6 0.000000 0.000000 0.000000 0.000000 0.000000 -0.044626
#
#
# Mechanical properties :
#
#
# Convention : Reuss Voigt Hill
#
# Bulk Modulus (GPa) = 21.50558 58.25624 39.88091
# Shear Modulus (GPa) = 52.69685 29.39538 41.04611
#
# Velocity S-wave (km/s) = 4.71270 3.51979 4.15923
# Velocity P-wave (km/s) = 6.21903 6.40868 6.31457
#
# Compressibility (1/GPa) = 0.04649955
#
# Stress axis : x y z
#
# Youngs Moduli (GPa) = 65.40370 31.92269 228.29155
#
# Poissons Ratio (x) = -0.13934 0.64167
# Poissons Ratio (y) = -0.28548 0.86802
# Poissons Ratio (z) = 0.18383 0.12138
#
# Static dielectric constant tensor:
#      x y z
#    x 1.913680 0.000000 0.000000 
#    y 0.000000 1.947780 0.000000 
#    z 0.000000 0.000000 0.855870 
# 
# From -- ./inp_files/54156.got.cif
#   From: 2010.05.17/outbox.cif.g08.bks.cpg/sg63_28_cif.got.tgz:54156.got - 2010.06.03 15:47:04.
