data_PCOD9471253
_publ_section_title
;
Structure prediction by ZEFSAII (Michael W. Deem and Ramdas Pophale) SiO2 
 PCOD9471253
Probable space group: C M C M
;
_chemical_formula_sum "Si O2"
_cell_formula_units_Z 96
_cell_length_a 7.996458
_cell_length_b 31.003035
_cell_length_c 19.889715
_cell_angle_alpha 90.000000
_cell_angle_beta 90.000000
_cell_angle_gamma 90.000000
_cell_volume 4930.948098
_symmetry_space_group_name_H-M "C M C M"
_symmetry_group_IT_number 63
_symmetry_cell_setting 'orthorhombic'
loop_
_space_group_symop_operation_xyz
x,y,z
-x,-y,1/2+z
x,-y,-z
-x,y,1/2-z
-x,-y,-z
x,y,1/2-z
-x,y,z
x,-y,1/2+z
1/2+x,1/2+y,z
1/2-x,1/2-y,1/2+z
1/2+x,1/2-y,-z
1/2-x,1/2+y,1/2-z
1/2-x,1/2-y,-z
1/2+x,1/2+y,1/2-z
1/2-x,1/2+y,z
1/2+x,1/2-y,1/2+z
loop_
_atom_site_type_symbol
_atom_site_label
_atom_site_fract_x
_atom_site_fract_y
_atom_site_fract_z
Si Si1 0.204945 0.867897 0.436588
Si Si2 0.300310 0.034360 0.173133
Si Si3 0.802411 0.884422 0.911794
Si Si4 0.798028 0.230541 0.927954
Si Si5 0.300170 0.197574 0.174217
Si Si6 0.797976 0.063178 0.826598
O O1 0.260348 0.881002 0.511609
O O2 0.258986 0.818868 0.422373
O O3 0.261511 0.901638 0.380143
O O4 0.000000 0.868437 0.435996
O O5 0.239241 0.042064 0.250000
O O6 0.500000 0.038337 0.173708
O O7 0.231065 0.069717 0.122375
O O8 0.253598 0.985428 0.155009
O O9 0.729090 0.846621 0.865685
O O10 0.000000 0.876942 0.914209
O O11 0.734183 0.262562 0.870034
O O12 0.000000 0.229959 0.924677
O O13 0.750000 0.250000 0.000000
O O14 0.232346 0.195772 0.250000
O O15 0.500000 0.203204 0.178909
O O16 0.739430 0.071429 0.750000
O O17 0.000000 0.064604 0.825836
#
# Coordination Sequence:
#
# PCOD9471253 Si02
#       6
#    16  16  16  16  16  16
#     4   9  19  34  54  81 109 137 174 222 269 312
#     4  10  21  37  55  76 107 142 176 220 270 318
#     4  11  21  34  54  79 109 143 179 219 265 320
#     4  10  19  35  56  77 107 144 180 217 265 318
#     4  10  21  35  53  80 111 142 179 224 269 314
#     4   9  18  35  58  80 103 136 179 222 265 317
#
# _framework density 19.468872000000001
#
# number of rings (size 3 to 8) (size 9 to 14) (size 15 to 20)
#    0.000    2.167    1.667    1.500    0.000    4.667 
#    0.000    9.167    0.000    0.000    0.000    2.333 
#    0.000    0.000    0.000    0.000    0.000    0.000 
#
# Total GULP energy -267995.335043 kJ/mol
# GULP energy per Si atom -5583.236147 kJ/mol
# Density = 1.942456 g / cm^3
# Si number density = 19.468872 Si / 1000 Ang^3
#
#
#
# Elastic Constant Matrix: (Units=GPa)
#
#
# Indices 1 2 3 4 5 6 
#
# 1 12.8961 -6.0667 4.9024 0.0000 0.0000 0.0000
# 2 -6.0667 153.3221 115.0266 0.0000 0.0000 0.0000
# 3 4.9024 115.0266 170.0776 0.0000 0.0000 0.0000
# 4 0.0000 0.0000 0.0000 40.1187 0.0000 0.0000
# 5 0.0000 0.0000 0.0000 0.0000 17.2376 0.0000
# 6 0.0000 0.0000 0.0000 0.0000 0.0000 18.6519
#
#
#
# Elastic Compliance Matrix: (Units=1/GPa)
#
#
# Indices 1 2 3 4 5 6 
#
# 1 0.086286 0.010719 -0.009736 0.000000 0.000000 0.000000
# 2 0.010719 0.014572 -0.010164 0.000000 0.000000 0.000000
# 3 -0.009736 -0.010164 0.013034 0.000000 0.000000 0.000000
# 4 0.000000 0.000000 0.000000 0.024926 0.000000 0.000000
# 5 0.000000 0.000000 0.000000 0.000000 0.058013 0.000000
# 6 0.000000 0.000000 0.000000 0.000000 0.000000 0.053614
#
#
# Mechanical properties :
#
#
# Convention : Reuss Voigt Hill
#
# Bulk Modulus (GPa) = 10.46805 62.66895 36.56850
# Shear Modulus (GPa) = 16.63055 30.03054 23.33055
#
# Velocity S-wave (km/s) = 2.92586 3.93172 3.46548
# Velocity P-wave (km/s) = 4.09911 7.27120 5.90225
#
# Compressibility (1/GPa) = 0.09552877
#
# Stress axis : x y z
#
# Youngs Moduli (GPa) = 11.58934 68.62613 76.71967
#
# Poissons Ratio (x) = -0.73558 0.74698
# Poissons Ratio (y) = -0.12422 0.77978
# Poissons Ratio (z) = 0.11284 0.69752
#
# Static dielectric constant tensor:
#      x y z
#    x 1.710130 0.000000 0.000000 
#    y 0.000000 1.645730 0.000000 
#    z 0.000000 0.000000 1.678960 
# 
# From -- ./inp_files/51414.got.cif
#   From: 2010.05.17/outbox.cif.g08.bks.cpg/sg63_26_cif.got.tgz:51414.got - 2010.06.03 15:47:04.
