data_PCOD9471617
_publ_section_title
;
Structure prediction by ZEFSAII (Michael W. Deem and Ramdas Pophale) SiO2 
 PCOD9471617
Probable space group: C M C M
;
_chemical_formula_sum "Si O2"
_cell_formula_units_Z 56
_cell_length_a 9.817435
_cell_length_b 14.184285
_cell_length_c 20.094728
_cell_angle_alpha 90.000000
_cell_angle_beta 90.000000
_cell_angle_gamma 90.000000
_cell_volume 2798.257106
_symmetry_space_group_name_H-M "C M C M"
_symmetry_group_IT_number 63
_symmetry_cell_setting 'orthorhombic'
loop_
_space_group_symop_operation_xyz
x,y,z
-x,-y,1/2+z
x,-y,-z
-x,y,1/2-z
-x,-y,-z
x,y,1/2-z
-x,y,z
x,-y,1/2+z
1/2+x,1/2+y,z
1/2-x,1/2-y,1/2+z
1/2+x,1/2-y,-z
1/2-x,1/2+y,1/2-z
1/2-x,1/2-y,-z
1/2+x,1/2+y,1/2-z
1/2-x,1/2+y,z
1/2+x,1/2-y,1/2+z
loop_
_atom_site_type_symbol
_atom_site_label
_atom_site_fract_x
_atom_site_fract_y
_atom_site_fract_z
Si Si1 0.000000 0.239086 0.881088
Si Si2 0.500000 0.611273 0.011572
Si Si3 0.000000 0.109742 0.750000
Si Si4 0.698052 0.564468 0.250000
Si Si5 0.797945 0.815411 0.620161
Si Si6 0.000000 0.326741 0.326844
Si Si7 0.500000 0.006747 0.250000
O O1 0.000000 0.176894 0.813993
O O2 0.862856 0.300811 0.883974
O O3 0.000000 0.167842 0.943014
O O4 0.630965 0.642418 0.055124
O O5 0.500000 0.500000 0.000000
O O6 0.870477 0.038673 0.750000
O O7 0.661426 0.618944 0.182616
O O8 0.861120 0.561714 0.250000
O O9 0.869010 0.714885 0.636303
O O10 0.000000 0.437918 0.314538
O O11 0.000000 0.291451 0.250000
#
# Coordination Sequence:
#
# PCOD9471617 Si02
#       7
#     8   8   4   8  16   8   4
#     4  12  24  42  60  97 116 157 206 250 307 351
#     4  11  25  44  62  85 119 165 207 252 302 371
#     4  12  24  36  68  92 126 152 198 254 288 368
#     4  12  20  36  56  96 116 158 192 246 306 342
#     4  11  22  39  65  83 125 160 201 250 296 368
#     4   9  18  37  54  84 115 160 191 227 294 360
#     4  10  20  30  54  86 132 142 194 258 292 348
#
# _framework density 20.012457000000001
#
# number of rings (size 3 to 8) (size 9 to 14) (size 15 to 20)
#    0.429    0.571    1.429    7.714    0.000    0.000 
#    0.000    0.714    0.000    0.000    0.000    0.000 
#    0.000    0.000    0.000    0.000    0.000    0.000 
#
# Total GULP energy -156484.730897 kJ/mol
# GULP energy per Si atom -5588.740389 kJ/mol
# Density = 1.996691 g / cm^3
# Si number density = 20.012457 Si / 1000 Ang^3
#
#
#
# Elastic Constant Matrix: (Units=GPa)
#
#
# Indices 1 2 3 4 5 6 
#
# 1 158.2816 24.0175 41.0277 0.0000 0.0000 0.0000
# 2 24.0175 66.4794 55.8865 0.0000 0.0000 0.0000
# 3 41.0277 55.8865 160.2750 0.0000 0.0000 0.0000
# 4 0.0000 0.0000 0.0000 32.8455 0.0000 0.0000
# 5 0.0000 0.0000 0.0000 0.0000 15.8053 0.0000
# 6 0.0000 0.0000 0.0000 0.0000 0.0000 21.4907
#
#
#
# Elastic Compliance Matrix: (Units=1/GPa)
#
#
# Indices 1 2 3 4 5 6 
#
# 1 0.006860 -0.001418 -0.001262 0.000000 0.000000 0.000000
# 2 -0.001418 0.021573 -0.007159 0.000000 0.000000 0.000000
# 3 -0.001262 -0.007159 0.009059 0.000000 0.000000 0.000000
# 4 0.000000 0.000000 0.000000 0.030446 0.000000 0.000000
# 5 0.000000 0.000000 0.000000 0.000000 0.063270 0.000000
# 6 0.000000 0.000000 0.000000 0.000000 0.000000 0.046532
#
#
# Mechanical properties :
#
#
# Convention : Reuss Voigt Hill
#
# Bulk Modulus (GPa) = 56.13532 69.65549 62.89540
# Shear Modulus (GPa) = 24.58758 31.63527 28.11142
#
# Velocity S-wave (km/s) = 3.50896 3.98021 3.75199
# Velocity P-wave (km/s) = 6.67294 7.48361 7.08987
#
# Compressibility (1/GPa) = 0.01781410
#
# Stress axis : x y z
#
# Youngs Moduli (GPa) = 145.77224 46.35404 110.39129
#
# Poissons Ratio (x) = 0.06572 0.13928
# Poissons Ratio (y) = 0.20666 0.79034
# Poissons Ratio (z) = 0.18392 0.33187
#
# Static dielectric constant tensor:
#      x y z
#    x 1.709300 0.000000 0.000000 
#    y 0.000000 1.686740 0.000000 
#    z 0.000000 0.000000 1.679700 
# 
# From -- ./inp_files/39710.got.cif
#   From: 2010.05.17/outbox.cif.g08.bks.cpg/sg63_20_cif.got.tgz:39710.got - 2010.06.03 15:47:04.
