data_PCOD9471652
_publ_section_title
;
Structure prediction by ZEFSAII (Michael W. Deem and Ramdas Pophale) SiO2 
 PCOD9471652
Probable space group: C M C M
;
_chemical_formula_sum "Si O2"
_cell_formula_units_Z 96
_cell_length_a 25.372274
_cell_length_b 13.442227
_cell_length_c 14.666508
_cell_angle_alpha 90.000000
_cell_angle_beta 90.000000
_cell_angle_gamma 90.000000
_cell_volume 5002.157262
_symmetry_space_group_name_H-M "C M C M"
_symmetry_group_IT_number 63
_symmetry_cell_setting 'orthorhombic'
loop_
_space_group_symop_operation_xyz
x,y,z
-x,-y,1/2+z
x,-y,-z
-x,y,1/2-z
-x,-y,-z
x,y,1/2-z
-x,y,z
x,-y,1/2+z
1/2+x,1/2+y,z
1/2-x,1/2-y,1/2+z
1/2+x,1/2-y,-z
1/2-x,1/2+y,1/2-z
1/2-x,1/2-y,-z
1/2+x,1/2+y,1/2-z
1/2-x,1/2+y,z
1/2+x,1/2-y,1/2+z
loop_
_atom_site_type_symbol
_atom_site_label
_atom_site_fract_x
_atom_site_fract_y
_atom_site_fract_z
Si Si1 0.057539 0.751227 0.358422
Si Si2 0.220248 0.249626 0.359277
Si Si3 0.331606 0.051615 0.900947
Si Si4 0.057475 0.484601 0.609190
Si Si5 0.332364 0.677326 0.645439
Si Si6 0.279410 0.522136 0.392477
O O1 0.056033 0.773023 0.250000
O O2 0.061784 0.632591 0.370495
O O3 0.111037 0.798915 0.397339
O O4 0.000000 0.781732 0.396436
O O5 0.219494 0.268656 0.250000
O O6 0.183059 0.332326 0.404142
O O7 0.280095 0.270119 0.394092
O O8 0.206100 0.135600 0.375564
O O9 0.388689 0.034830 0.857310
O O10 0.279899 0.000357 0.856764
O O11 0.334941 0.000000 0.000000
O O12 0.055907 0.500000 0.500000
O O13 0.000000 0.518826 0.643907
O O14 0.335228 0.713618 0.750000
O O15 0.318749 0.560661 0.645829
O O16 0.277999 0.500000 0.500000
#
# Coordination Sequence:
#
# PCOD9471652 Si02
#       6
#    16  16  16  16  16  16
#     4   9  17  29  47  70  92 117 154 198 238 277
#     4  10  20  33  49  71  99 129 160 196 240 288
#     4   9  19  32  49  72  98 127 161 197 237 286
#     4   9  17  29  46  69  96 125 155 191 236 284
#     4   9  18  32  50  70  93 123 157 195 239 284
#     4  10  20  31  48  72  99 129 162 198 238 283
#
# _framework density 19.19172
#
# number of rings (size 3 to 8) (size 9 to 14) (size 15 to 20)
#    0.000    2.667    0.000    1.500    0.000   10.000 
#    0.000    0.000    0.000    1.500    0.000    0.000 
#    0.000    0.000    0.000    0.000    0.000    0.000 
#
# Total GULP energy -267537.230850 kJ/mol
# GULP energy per Si atom -5573.692309 kJ/mol
# Density = 1.914804 g / cm^3
# Si number density = 19.191720 Si / 1000 Ang^3
#
#
#
# Elastic Constant Matrix: (Units=GPa)
#
#
# Indices 1 2 3 4 5 6 
#
# 1 188.3410 55.2350 4.3108 0.0000 0.0000 0.0000
# 2 55.2350 99.4319 -3.0861 0.0000 0.0000 0.0000
# 3 4.3108 -3.0861 53.6223 0.0000 0.0000 0.0000
# 4 0.0000 0.0000 0.0000 15.0230 0.0000 0.0000
# 5 0.0000 0.0000 0.0000 0.0000 -27.3262 0.0000
# 6 0.0000 0.0000 0.0000 0.0000 0.0000 26.9428
#
#
#
# Elastic Compliance Matrix: (Units=1/GPa)
#
#
# Indices 1 2 3 4 5 6 
#
# 1 0.006370 -0.003561 -0.000717 0.000000 0.000000 0.000000
# 2 -0.003561 0.012066 0.000981 0.000000 0.000000 0.000000
# 3 -0.000717 0.000981 0.018763 0.000000 0.000000 0.000000
# 4 0.000000 0.000000 0.000000 0.066565 0.000000 0.000000
# 5 0.000000 0.000000 0.000000 0.000000 -0.036595 0.000000
# 6 0.000000 0.000000 0.000000 0.000000 0.000000 0.037116
#
#
# Mechanical properties :
#
#
# Convention : Reuss Voigt Hill
#
# Bulk Modulus (GPa) = 32.67509 50.47940 41.57724
# Shear Modulus (GPa) = 41.29475 21.92361 31.60918
#
# Velocity S-wave (km/s) = 4.64367 3.38353 4.06275
# Velocity P-wave (km/s) = 6.76861 6.45168 6.61205
#
# Compressibility (1/GPa) = 0.03060435
#
# Stress axis : x y z
#
# Youngs Moduli (GPa) = 156.97943 82.87945 53.29620
#
# Poissons Ratio (x) = 0.29513 0.03822
# Poissons Ratio (y) = 0.55900 -0.05227
# Poissons Ratio (z) = 0.11256 -0.08128
#
# Static dielectric constant tensor:
#      x y z
#    x 1.740960 0.000000 0.000000 
#    y 0.000000 1.641570 0.000000 
#    z 0.000000 0.000000 1.681030 
# 
# From -- ./inp_files/48954.got.cif
#   From: 2010.05.17/outbox.cif.g08.bks.cpg/sg63_25_cif.got.tgz:48954.got - 2010.06.03 15:47:04.
