data_PCOD9471364
_publ_section_title
;
Structure prediction by ZEFSAII (Michael W. Deem and Ramdas Pophale) SiO2 
 PCOD9471364
Probable space group: C M C M
;
_chemical_formula_sum "Si O2"
_cell_formula_units_Z 100
_cell_length_a 7.567607
_cell_length_b 29.853717
_cell_length_c 21.952340
_cell_angle_alpha 90.000000
_cell_angle_beta 90.000000
_cell_angle_gamma 90.000000
_cell_volume 4959.498946
_symmetry_space_group_name_H-M "C M C M"
_symmetry_group_IT_number 63
_symmetry_cell_setting 'orthorhombic'
loop_
_space_group_symop_operation_xyz
x,y,z
-x,-y,1/2+z
x,-y,-z
-x,y,1/2-z
-x,-y,-z
x,y,1/2-z
-x,y,z
x,-y,1/2+z
1/2+x,1/2+y,z
1/2-x,1/2-y,1/2+z
1/2+x,1/2-y,-z
1/2-x,1/2+y,1/2-z
1/2-x,1/2-y,-z
1/2+x,1/2+y,1/2-z
1/2-x,1/2+y,z
1/2+x,1/2-y,1/2+z
loop_
_atom_site_type_symbol
_atom_site_label
_atom_site_fract_x
_atom_site_fract_y
_atom_site_fract_z
Si Si1 0.713122 0.230918 0.091056
Si Si2 0.214384 0.567354 0.391873
Si Si3 0.696364 0.471365 0.347356
Si Si4 0.784099 0.343972 0.680644
Si Si5 0.285269 0.920287 0.469169
Si Si6 0.000000 0.450303 0.250000
Si Si7 0.790961 0.318817 0.030794
O O1 0.500000 0.229928 0.089829
O O2 0.771757 0.202332 0.148955
O O3 0.764667 0.282587 0.083919
O O4 0.780088 0.204553 0.030775
O O5 0.280000 0.524826 0.354484
O O6 0.269559 0.613936 0.360765
O O7 0.268807 0.565810 0.462595
O O8 0.000000 0.566036 0.390842
O O9 0.500000 0.461070 0.325522
O O10 0.719114 0.451216 0.415058
O O11 0.845814 0.452803 0.303208
O O12 0.724681 0.348389 0.750000
O O13 0.000000 0.344266 0.681039
O O14 0.500000 0.921975 0.467589
O O15 0.224859 0.868855 0.459118
O O16 0.000000 0.323801 0.020786
#
# Coordination Sequence:
#
# PCOD9471364 Si02
#       7
#    16  16  16  16  16   4  16
#     4   9  16  30  49  81 113 150 200 254 304 367
#     4  10  19  35  61  91 126 164 205 256 321 384
#     4  12  26  42  67  95 123 163 216 263 314 382
#     4   9  17  29  53  83 116 160 207 248 308 386
#     4  10  19  37  61  90 124 166 209 262 325 379
#     4  12  26  52  66  86 124 176 208 264 320 374
#     4   9  17  30  54  80 111 152 200 251 313 370
#
# _framework density 20.163326999999999
#
# number of rings (size 3 to 8) (size 9 to 14) (size 15 to 20)
#    0.000    2.080    3.200    0.720    1.120    3.200 
#    0.000    0.800    1.760    1.440    0.000    0.000 
#    0.000    0.000    0.000    0.000    0.000    0.000 
#
# Total GULP energy -278684.824660 kJ/mol
# GULP energy per Si atom -5573.696493 kJ/mol
# Density = 2.011743 g / cm^3
# Si number density = 20.163327 Si / 1000 Ang^3
#
#
#
# Elastic Constant Matrix: (Units=GPa)
#
#
# Indices 1 2 3 4 5 6 
#
# 1 89.2252 -4.0472 17.4832 0.0000 0.0000 0.0000
# 2 -4.0472 31.6526 -7.5079 0.0000 0.0000 0.0000
# 3 17.4832 -7.5079 98.0372 0.0000 0.0000 0.0000
# 4 0.0000 0.0000 0.0000 -8.1783 0.0000 0.0000
# 5 0.0000 0.0000 0.0000 0.0000 -11.0226 0.0000
# 6 0.0000 0.0000 0.0000 0.0000 0.0000 14.4179
#
#
#
# Elastic Compliance Matrix: (Units=1/GPa)
#
#
# Indices 1 2 3 4 5 6 
#
# 1 0.011645 0.001015 -0.001999 0.000000 0.000000 0.000000
# 2 0.001015 0.032266 0.002290 0.000000 0.000000 0.000000
# 3 -0.001999 0.002290 0.010732 0.000000 0.000000 0.000000
# 4 0.000000 0.000000 0.000000 -0.122274 0.000000 0.000000
# 5 0.000000 0.000000 0.000000 0.000000 -0.090722 0.000000
# 6 0.000000 0.000000 0.000000 0.000000 0.000000 0.069358
#
#
# Mechanical properties :
#
#
# Convention : Reuss Voigt Hill
#
# Bulk Modulus (GPa) = 17.46573 25.64125 21.55349
# Shear Modulus (GPa) = -68.94469 13.24251 -27.85109
#
# Velocity S-wave (km/s) = -5.85383 2.56552 -3.72058
# Velocity P-wave (km/s) = 6.08349 4.63899 2.78286
#
# Compressibility (1/GPa) = 0.05725498
#
# Stress axis : x y z
#
# Youngs Moduli (GPa) = 85.87133 30.99245 93.17861
#
# Poissons Ratio (x) = -0.03145 0.18627
# Poissons Ratio (y) = -0.08714 -0.21338
# Poissons Ratio (z) = 0.17166 -0.07097
#
# Static dielectric constant tensor:
#      x y z
#    x 1.757380 0.000000 0.000000 
#    y 0.000000 1.705640 0.000000 
#    z 0.000000 0.000000 1.684130 
# 
# From -- ./inp_files/51485.got.cif
#   From: 2010.05.17/outbox.cif.g08.bks.cpg/sg63_26_cif.got.tgz:51485.got - 2010.06.03 15:47:04.
