data_PCOD9471259
_publ_section_title
;
Structure prediction by ZEFSAII (Michael W. Deem and Ramdas Pophale) SiO2 
 PCOD9471259
Probable space group: C M C M
;
_chemical_formula_sum "Si O2"
_cell_formula_units_Z 96
_cell_length_a 20.615987
_cell_length_b 9.022186
_cell_length_c 25.664447
_cell_angle_alpha 90.000000
_cell_angle_beta 90.000000
_cell_angle_gamma 90.000000
_cell_volume 4773.619718
_symmetry_space_group_name_H-M "C M C M"
_symmetry_group_IT_number 63
_symmetry_cell_setting 'orthorhombic'
loop_
_space_group_symop_operation_xyz
x,y,z
-x,-y,1/2+z
x,-y,-z
-x,y,1/2-z
-x,-y,-z
x,y,1/2-z
-x,y,z
x,-y,1/2+z
1/2+x,1/2+y,z
1/2-x,1/2-y,1/2+z
1/2+x,1/2-y,-z
1/2-x,1/2+y,1/2-z
1/2-x,1/2-y,-z
1/2+x,1/2+y,1/2-z
1/2-x,1/2+y,z
1/2+x,1/2-y,1/2+z
loop_
_atom_site_type_symbol
_atom_site_label
_atom_site_fract_x
_atom_site_fract_y
_atom_site_fract_z
Si Si1 0.171668 0.385402 0.153528
Si Si2 0.307656 0.155328 0.970165
Si Si3 0.925366 0.825616 0.013081
Si Si4 0.074718 0.378740 0.811973
Si Si5 0.343783 0.691378 0.616204
Si Si6 0.727558 0.594364 0.145705
O O1 0.189631 0.381435 0.091689
O O2 0.105822 0.471969 0.163719
O O3 0.227798 0.486038 0.179890
O O4 0.181505 0.217079 0.171076
O O5 0.250000 0.250000 0.000000
O O6 0.374592 0.243782 0.976361
O O7 0.308467 0.000000 0.000000
O O8 0.893778 0.793179 0.069227
O O9 0.000000 0.775955 0.009756
O O10 0.923832 0.000000 0.000000
O O11 0.078765 0.389238 0.750000
O O12 0.117053 0.241061 0.832778
O O13 0.000000 0.361977 0.827392
O O14 0.317147 0.523481 0.615289
O O15 0.283257 0.807868 0.615720
#
# Coordination Sequence:
#
# PCOD9471259 Si02
#       6
#    16  16  16  16  16  16
#     4  10  19  35  56  82 117 151 190 247 303 354
#     4  12  22  34  57  85 117 159 203 247 302 371
#     4  11  24  38  54  83 122 161 201 244 297 365
#     4  10  22  41  63  85 113 157 208 254 309 373
#     4  10  19  38  60  84 119 152 191 249 305 357
#     4   9  18  34  58  85 112 146 189 237 298 361
#
# _framework density 20.110526
#
# number of rings (size 3 to 8) (size 9 to 14) (size 15 to 20)
#    0.000    1.667    0.000    7.000    0.000    1.000 
#    0.000   15.833    0.000    2.000    0.000    0.000 
#    0.000    0.000    0.000    0.000    0.000    0.000 
#
# Total GULP energy -267266.761431 kJ/mol
# GULP energy per Si atom -5568.057530 kJ/mol
# Density = 2.006475 g / cm^3
# Si number density = 20.110526 Si / 1000 Ang^3
#
#
#
# Elastic Constant Matrix: (Units=GPa)
#
#
# Indices 1 2 3 4 5 6 
#
# 1 147.7431 52.7589 34.3729 0.0000 0.0000 0.0000
# 2 52.7589 121.2819 18.3081 0.0000 0.0000 0.0000
# 3 34.3729 18.3081 55.7418 0.0000 0.0000 0.0000
# 4 0.0000 0.0000 0.0000 13.7706 0.0000 0.0000
# 5 0.0000 0.0000 0.0000 0.0000 16.5609 0.0000
# 6 0.0000 0.0000 0.0000 0.0000 0.0000 32.7284
#
#
#
# Elastic Compliance Matrix: (Units=1/GPa)
#
#
# Indices 1 2 3 4 5 6 
#
# 1 0.008958 -0.003223 -0.004466 0.000000 0.000000 0.000000
# 2 -0.003223 0.009835 -0.001243 0.000000 0.000000 0.000000
# 3 -0.004466 -0.001243 0.021102 0.000000 0.000000 0.000000
# 4 0.000000 0.000000 0.000000 0.072618 0.000000 0.000000
# 5 0.000000 0.000000 0.000000 0.000000 0.060383 0.000000
# 6 0.000000 0.000000 0.000000 0.000000 0.000000 0.030555
#
#
# Mechanical properties :
#
#
# Convention : Reuss Voigt Hill
#
# Bulk Modulus (GPa) = 45.38780 59.51629 52.45204
# Shear Modulus (GPa) = 21.86677 27.23378 24.55027
#
# Velocity S-wave (km/s) = 3.30105 3.68394 3.49774
# Velocity P-wave (km/s) = 6.09486 6.91043 6.51542
#
# Compressibility (1/GPa) = 0.02203235
#
# Stress axis : x y z
#
# Youngs Moduli (GPa) = 111.62810 101.67923 47.38946
#
# Poissons Ratio (x) = 0.32770 0.21162
# Poissons Ratio (y) = 0.35976 0.05890
# Poissons Ratio (z) = 0.49848 0.12637
#
# Static dielectric constant tensor:
#      x y z
#    x 1.742810 0.000000 0.000000 
#    y 0.000000 1.763270 0.000000 
#    z 0.000000 0.000000 1.797190 
# 
# From -- ./inp_files/70294.got.cif
#   From: 2010.05.17/outbox.cif.g08.bks.cpg/sg63_36_cif.got.tgz:70294.got - 2010.06.03 15:47:04.
