data_PCOD9471068
_publ_section_title
;
Structure prediction by ZEFSAII (Michael W. Deem and Ramdas Pophale) SiO2 
 PCOD9471068
Probable space group: C M C M
;
_chemical_formula_sum "Si O2"
_cell_formula_units_Z 112
_cell_length_a 7.492837
_cell_length_b 26.100291
_cell_length_c 25.878677
_cell_angle_alpha 90.000000
_cell_angle_beta 90.000000
_cell_angle_gamma 90.000000
_cell_volume 5060.969319
_symmetry_space_group_name_H-M "C M C M"
_symmetry_group_IT_number 63
_symmetry_cell_setting 'orthorhombic'
loop_
_space_group_symop_operation_xyz
x,y,z
-x,-y,1/2+z
x,-y,-z
-x,y,1/2-z
-x,-y,-z
x,y,1/2-z
-x,y,z
x,-y,1/2+z
1/2+x,1/2+y,z
1/2-x,1/2-y,1/2+z
1/2+x,1/2-y,-z
1/2-x,1/2+y,1/2-z
1/2-x,1/2-y,-z
1/2+x,1/2+y,1/2-z
1/2-x,1/2+y,z
1/2+x,1/2-y,1/2+z
loop_
_atom_site_type_symbol
_atom_site_label
_atom_site_fract_x
_atom_site_fract_y
_atom_site_fract_z
Si Si1 0.715239 0.404392 0.193139
Si Si2 0.215322 0.351881 0.512577
Si Si3 0.793866 0.015772 0.336094
Si Si4 0.217951 0.871733 0.808226
Si Si5 0.710930 0.287863 0.610621
Si Si6 0.212477 0.674452 0.601728
Si Si7 0.283696 0.963930 0.547441
O O1 0.773854 0.386451 0.250000
O O2 0.500000 0.406775 0.193309
O O3 0.783504 0.462266 0.183660
O O4 0.762262 0.366846 0.146544
O O5 0.266310 0.307227 0.552072
O O6 0.281263 0.343429 0.454306
O O7 0.276782 0.406059 0.536064
O O8 0.000000 0.354318 0.511202
O O9 0.000000 0.016219 0.318699
O O10 0.716771 0.070322 0.318382
O O11 0.786215 0.016283 0.398093
O O12 0.263225 0.856035 0.750000
O O13 0.283581 0.831366 0.850801
O O14 0.000000 0.873563 0.811965
O O15 0.500000 0.285392 0.621749
O O16 0.784529 0.230615 0.616281
O O17 0.000000 0.680455 0.594838
O O18 0.500000 0.964450 0.550429
O O19 0.231129 0.000000 0.500000
#
# Coordination Sequence:
#
# PCOD9471068 Si02
#       7
#    16  16  16  16  16  16  16
#     4  10  22  39  58  82 111 145 185 228 278 332
#     4  10  20  35  54  79 114 151 185 225 277 332
#     4  10  19  34  56  80 106 139 181 226 272 327
#     4   9  17  31  53  80 108 137 172 222 278 323
#     4  10  20  35  57  84 110 142 189 235 274 326
#     4  10  22  38  57  82 111 148 191 229 273 329
#     4  10  20  33  51  76 111 151 183 218 271 332
#
# _framework density 22.130147999999998
#
# number of rings (size 3 to 8) (size 9 to 14) (size 15 to 20)
#    0.000    2.143    1.429    1.714    0.000    5.714 
#    0.000    1.429    0.000    2.571    0.000    0.000 
#    0.000    0.000    0.000    0.000    0.000    0.000 
#
# Total GULP energy -312948.804000 kJ/mol
# GULP energy per Si atom -5588.371500 kJ/mol
# Density = 2.207978 g / cm^3
# Si number density = 22.130148 Si / 1000 Ang^3
#
#
#
# Elastic Constant Matrix: (Units=GPa)
#
#
# Indices 1 2 3 4 5 6 
#
# 1 56.9896 -1.3997 -14.2318 0.0000 0.0000 0.0000
# 2 -1.3997 123.3042 57.0402 0.0000 0.0000 0.0000
# 3 -14.2318 57.0402 148.1087 0.0000 0.0000 0.0000
# 4 0.0000 0.0000 0.0000 4.1690 0.0000 0.0000
# 5 0.0000 0.0000 0.0000 0.0000 50.2072 0.0000
# 6 0.0000 0.0000 0.0000 0.0000 0.0000 5.6784
#
#
#
# Elastic Compliance Matrix: (Units=1/GPa)
#
#
# Indices 1 2 3 4 5 6 
#
# 1 0.018032 -0.000726 0.002012 0.000000 0.000000 0.000000
# 2 -0.000726 0.009897 -0.003881 0.000000 0.000000 0.000000
# 3 0.002012 -0.003881 0.008440 0.000000 0.000000 0.000000
# 4 0.000000 0.000000 0.000000 0.239863 0.000000 0.000000
# 5 0.000000 0.000000 0.000000 0.000000 0.019917 0.000000
# 6 0.000000 0.000000 0.000000 0.000000 0.000000 0.176106
#
#
# Mechanical properties :
#
#
# Convention : Reuss Voigt Hill
#
# Bulk Modulus (GPa) = 32.07343 45.69109 38.88226
# Shear Modulus (GPa) = 10.24928 31.14384 20.69656
#
# Velocity S-wave (km/s) = 2.15440 3.75547 3.06145
# Velocity P-wave (km/s) = 4.55117 6.28460 5.48677
#
# Compressibility (1/GPa) = 0.03117845
#
# Stress axis : x y z
#
# Youngs Moduli (GPa) = 55.45765 101.03719 118.48314
#
# Poissons Ratio (x) = 0.07338 -0.23843
# Poissons Ratio (y) = 0.04028 0.45989
# Poissons Ratio (z) = -0.11160 0.39217
#
# Static dielectric constant tensor:
#      x y z
#    x 1.855930 0.000000 0.000000 
#    y 0.000000 1.796500 0.000000 
#    z 0.000000 0.000000 1.767690 
# 
# From -- ./inp_files/53170.got.cif
#   From: 2010.05.17/outbox.cif.g08.bks.cpg/sg63_27_cif.got.tgz:53170.got - 2010.06.03 15:47:04.
