data_PCOD9471544
_publ_section_title
;
Structure prediction by ZEFSAII (Michael W. Deem and Ramdas Pophale) SiO2 
 PCOD9471544
Probable space group: C M C M
;
_chemical_formula_sum "Si O2"
_cell_formula_units_Z 68
_cell_length_a 7.715052
_cell_length_b 14.308215
_cell_length_c 28.619788
_cell_angle_alpha 90.000000
_cell_angle_beta 90.000000
_cell_angle_gamma 90.000000
_cell_volume 3159.298981
_symmetry_space_group_name_H-M "C M C M"
_symmetry_group_IT_number 63
_symmetry_cell_setting 'orthorhombic'
loop_
_space_group_symop_operation_xyz
x,y,z
-x,-y,1/2+z
x,-y,-z
-x,y,1/2-z
-x,-y,-z
x,y,1/2-z
-x,y,z
x,-y,1/2+z
1/2+x,1/2+y,z
1/2-x,1/2-y,1/2+z
1/2+x,1/2-y,-z
1/2-x,1/2+y,1/2-z
1/2-x,1/2-y,-z
1/2+x,1/2+y,1/2-z
1/2-x,1/2+y,z
1/2+x,1/2-y,1/2+z
loop_
_atom_site_type_symbol
_atom_site_label
_atom_site_fract_x
_atom_site_fract_y
_atom_site_fract_z
Si Si1 0.796478 0.606362 0.505489
Si Si2 0.000000 0.245627 0.250000
Si Si3 0.297223 0.648009 0.407452
Si Si4 0.300262 0.281640 0.173755
Si Si5 0.292197 0.565197 0.894861
O O1 0.724704 0.500000 0.500000
O O2 0.717733 0.665222 0.463191
O O3 0.770009 0.623659 0.560134
O O4 0.000000 0.605103 0.496126
O O5 0.154975 0.248625 0.209602
O O6 0.500000 0.651505 0.395581
O O7 0.201881 0.715804 0.372037
O O8 0.230949 0.541574 0.399103
O O9 0.500000 0.285299 0.191217
O O10 0.247369 0.383274 0.153083
O O11 0.500000 0.563490 0.897622
#
# Coordination Sequence:
#
# PCOD9471544 Si02
#       5
#    16   4  16  16  16
#     4   9  17  29  52  90 129 166 205 243 288 361
#     4  12  26  48  68  90 116 158 206 268 320 368
#     4  10  19  37  62  91 129 168 204 247 303 364
#     4  11  24  44  68  90 121 160 202 263 312 365
#     4   9  20  37  61  90 128 166 203 248 303 363
#
# _framework density 21.523762999999999
#
# number of rings (size 3 to 8) (size 9 to 14) (size 15 to 20)
#    0.000    2.118    1.176    1.765    1.647    4.706 
#    0.000    1.176    0.000    0.000    0.000    0.000 
#    0.000    0.000    0.000    0.000    0.000    0.000 
#
# Total GULP energy -189269.429475 kJ/mol
# GULP energy per Si atom -5566.747926 kJ/mol
# Density = 2.147477 g / cm^3
# Si number density = 21.523763 Si / 1000 Ang^3
#
#
#
# Elastic Constant Matrix: (Units=GPa)
#
#
# Indices 1 2 3 4 5 6 
#
# 1 92.6103 4.6670 37.0580 0.0000 0.0000 0.0000
# 2 4.6670 48.7093 8.7779 0.0000 0.0000 0.0000
# 3 37.0580 8.7779 100.1519 0.0000 0.0000 0.0000
# 4 0.0000 0.0000 0.0000 -9.0309 0.0000 0.0000
# 5 0.0000 0.0000 0.0000 0.0000 68.5589 0.0000
# 6 0.0000 0.0000 0.0000 0.0000 0.0000 6.7333
#
#
#
# Elastic Compliance Matrix: (Units=1/GPa)
#
#
# Indices 1 2 3 4 5 6 
#
# 1 0.012681 -0.000375 -0.004659 0.000000 0.000000 0.000000
# 2 -0.000375 0.020871 -0.001690 0.000000 0.000000 0.000000
# 3 -0.004659 -0.001690 0.011857 0.000000 0.000000 0.000000
# 4 0.000000 0.000000 0.000000 -0.110731 0.000000 0.000000
# 5 0.000000 0.000000 0.000000 0.000000 0.014586 0.000000
# 6 0.000000 0.000000 0.000000 0.000000 0.000000 0.148516
#
#
# Mechanical properties :
#
#
# Convention : Reuss Voigt Hill
#
# Bulk Modulus (GPa) = 31.29037 38.05303 34.67170
# Shear Modulus (GPa) = 41.02290 25.98350 33.50320
#
# Velocity S-wave (km/s) = 4.37044 3.47825 3.94962
# Velocity P-wave (km/s) = 6.32746 5.81798 6.07806
#
# Compressibility (1/GPa) = 0.03195871
#
# Stress axis : x y z
#
# Youngs Moduli (GPa) = 78.85615 47.91439 84.33795
#
# Poissons Ratio (x) = 0.01798 0.39297
# Poissons Ratio (y) = 0.02960 0.14256
# Poissons Ratio (z) = 0.36742 0.08099
#
# Static dielectric constant tensor:
#      x y z
#    x 1.743870 0.000000 0.000000 
#    y 0.000000 1.861750 0.000000 
#    z 0.000000 0.000000 1.763400 
# 
# From -- ./inp_files/59289.got.cif
#   From: 2010.05.17/outbox.cif.g08.bks.cpg/sg63_30_cif.got.tgz:59289.got - 2010.06.03 15:47:04.
