data_PCOD9471202
_publ_section_title
;
Structure prediction by ZEFSAII (Michael W. Deem and Ramdas Pophale) SiO2 
 PCOD9471202
Probable space group: C M C M
;
_chemical_formula_sum "Si O2"
_cell_formula_units_Z 112
_cell_length_a 31.062030
_cell_length_b 12.403244
_cell_length_c 14.760425
_cell_angle_alpha 90.000000
_cell_angle_beta 90.000000
_cell_angle_gamma 90.000000
_cell_volume 5686.748013
_symmetry_space_group_name_H-M "C M C M"
_symmetry_group_IT_number 63
_symmetry_cell_setting 'orthorhombic'
loop_
_space_group_symop_operation_xyz
x,y,z
-x,-y,1/2+z
x,-y,-z
-x,y,1/2-z
-x,-y,-z
x,y,1/2-z
-x,y,z
x,-y,1/2+z
1/2+x,1/2+y,z
1/2-x,1/2-y,1/2+z
1/2+x,1/2-y,-z
1/2-x,1/2+y,1/2-z
1/2-x,1/2-y,-z
1/2+x,1/2+y,1/2-z
1/2-x,1/2+y,z
1/2+x,1/2-y,1/2+z
loop_
_atom_site_type_symbol
_atom_site_label
_atom_site_fract_x
_atom_site_fract_y
_atom_site_fract_z
Si Si1 0.377750 0.277620 0.647631
Si Si2 0.904341 0.012176 0.858255
Si Si3 0.688061 0.160177 0.150858
Si Si4 0.049930 0.228518 0.642449
Si Si5 0.388541 0.879212 0.520906
Si Si6 0.184193 0.103387 0.903758
Si Si7 0.713364 0.620075 0.109083
O O1 0.388831 0.243596 0.750000
O O2 0.406255 0.384349 0.623263
O O3 0.382893 0.187134 0.571992
O O4 0.327676 0.316298 0.647578
O O5 0.894690 0.017446 0.750000
O O6 0.940865 0.100983 0.875789
O O7 0.863608 0.057085 0.912405
O O8 0.678397 0.113753 0.250000
O O9 0.657276 0.112269 0.073693
O O10 0.679335 0.287590 0.149892
O O11 0.738860 0.154766 0.131965
O O12 0.058459 0.244782 0.750000
O O13 0.080494 0.306849 0.584591
O O14 0.000000 0.251679 0.624515
O O15 0.404265 0.000000 0.500000
O O16 0.209789 0.004511 0.861029
O O17 0.205407 0.125583 0.000965
#
# Coordination Sequence:
#
# PCOD9471202 Si02
#       7
#    16  16  16  16  16  16  16
#     4  10  21  39  62  90 126 168 209 252 312 375
#     4   9  17  35  64  96 123 153 198 254 322 380
#     4  12  24  38  58  83 119 162 213 267 311 360
#     4  10  21  42  73 103 127 155 200 255 315 382
#     4  12  27  42  62  86 126 171 213 261 307 365
#     4  10  19  34  61  82 118 158 200 254 310 373
#     4  10  21  35  57  87 118 162 211 258 315 370
#
# _framework density 19.694911999999999
#
# number of rings (size 3 to 8) (size 9 to 14) (size 15 to 20)
#    0.000    1.571    2.857    1.714    2.000    3.714 
#    0.000    1.429    0.000    1.286    0.000    0.000 
#    0.000    0.000    0.000    0.000    0.000    0.000 
#
# Total GULP energy -312469.873300 kJ/mol
# GULP energy per Si atom -5579.819166 kJ/mol
# Density = 1.965009 g / cm^3
# Si number density = 19.694912 Si / 1000 Ang^3
#
#
#
# Elastic Constant Matrix: (Units=GPa)
#
#
# Indices 1 2 3 4 5 6 
#
# 1 53.0531 31.2671 27.9588 0.0000 0.0000 0.0000
# 2 31.2671 91.5445 44.9133 0.0000 0.0000 0.0000
# 3 27.9588 44.9133 110.9471 0.0000 0.0000 0.0000
# 4 0.0000 0.0000 0.0000 -3.1603 0.0000 0.0000
# 5 0.0000 0.0000 0.0000 0.0000 29.3791 0.0000
# 6 0.0000 0.0000 0.0000 0.0000 0.0000 11.7595
#
#
#
# Elastic Compliance Matrix: (Units=1/GPa)
#
#
# Indices 1 2 3 4 5 6 
#
# 1 0.024641 -0.006700 -0.003497 0.000000 0.000000 0.000000
# 2 -0.006700 0.015453 -0.004567 0.000000 0.000000 0.000000
# 3 -0.003497 -0.004567 0.011743 0.000000 0.000000 0.000000
# 4 0.000000 0.000000 0.000000 -0.316425 0.000000 0.000000
# 5 0.000000 0.000000 0.000000 0.000000 0.034038 0.000000
# 6 0.000000 0.000000 0.000000 0.000000 0.000000 0.085038
#
#
# Mechanical properties :
#
#
# Convention : Reuss Voigt Hill
#
# Bulk Modulus (GPa) = 44.82686 51.53588 48.18137
# Shear Modulus (GPa) = -46.06304 17.68935 -14.18685
#
# Velocity S-wave (km/s) = -4.84139 3.00020 -2.68681
# Velocity P-wave (km/s) = 2.90552 6.18268 3.85898
#
# Compressibility (1/GPa) = 0.02230805
#
# Stress axis : x y z
#
# Youngs Moduli (GPa) = 40.58290 64.71289 85.15409
#
# Poissons Ratio (x) = 0.43360 0.29779
# Poissons Ratio (y) = 0.27192 0.38891
# Poissons Ratio (z) = 0.14192 0.29555
#
# Static dielectric constant tensor:
#      x y z
#    x 1.679880 0.000000 0.000000 
#    y 0.000000 1.733060 0.000000 
#    z 0.000000 0.000000 1.752530 
# 
# From -- ./inp_files/38542.got.cif
#   From: 2010.05.17/outbox.cif.g08.bks.cpg/sg63_20_cif.got.tgz:38542.got - 2010.06.03 15:47:04.
