data_PCOD9471273
_publ_section_title
;
Structure prediction by ZEFSAII (Michael W. Deem and Ramdas Pophale) SiO2 
 PCOD9471273
Probable space group: C M C M
;
_chemical_formula_sum "Si O2"
_cell_formula_units_Z 88
_cell_length_a 16.662061
_cell_length_b 19.448312
_cell_length_c 15.024453
_cell_angle_alpha 90.000000
_cell_angle_beta 90.000000
_cell_angle_gamma 90.000000
_cell_volume 4868.658383
_symmetry_space_group_name_H-M "C M C M"
_symmetry_group_IT_number 63
_symmetry_cell_setting 'orthorhombic'
loop_
_space_group_symop_operation_xyz
x,y,z
-x,-y,1/2+z
x,-y,-z
-x,y,1/2-z
-x,-y,-z
x,y,1/2-z
-x,y,z
x,-y,1/2+z
1/2+x,1/2+y,z
1/2-x,1/2-y,1/2+z
1/2+x,1/2-y,-z
1/2-x,1/2+y,1/2-z
1/2-x,1/2-y,-z
1/2+x,1/2+y,1/2-z
1/2-x,1/2+y,z
1/2+x,1/2-y,1/2+z
loop_
_atom_site_type_symbol
_atom_site_label
_atom_site_fract_x
_atom_site_fract_y
_atom_site_fract_z
Si Si1 0.093774 0.312226 0.571119
Si Si2 0.809797 0.623219 0.911679
Si Si3 0.597462 0.892536 0.750000
Si Si4 0.713705 0.500000 0.000000
Si Si5 0.596527 0.053956 0.750000
Si Si6 0.860669 0.169868 0.853031
Si Si7 0.407954 0.487520 0.145457
O O1 0.141884 0.333330 0.483716
O O2 0.123130 0.353632 0.659506
O O3 0.104164 0.231551 0.590028
O O4 0.000000 0.328922 0.559328
O O5 0.768780 0.560381 0.964037
O O6 0.866338 0.591451 0.835809
O O7 0.734838 0.663607 0.868640
O O8 0.500000 0.889835 0.750000
O O9 0.620447 0.973000 0.750000
O O10 0.655002 0.477022 0.919838
O O11 0.500000 0.057556 0.750000
O O12 0.877929 0.185127 0.750000
O O13 0.897128 0.094435 0.871477
O O14 0.390021 0.498513 0.250000
O O15 0.500000 0.507060 0.128375
#
# Coordination Sequence:
#
# PCOD9471273 Si02
#       7
#    16  16   8   8   8  16  16
#     4  11  21  36  56  82 111 142 184 228 274 322
#     4  11  22  37  55  83 109 148 184 226 280 333
#     4   9  20  33  52  78 106 142 178 221 264 307
#     4  10  21  34  55  80 114 148 186 232 273 334
#     4  11  22  39  58  78 111 148 188 229 271 333
#     4  10  19  35  57  82 110 142 182 227 278 325
#     4   9  18  33  56  85 114 147 187 231 279 330
#
# _framework density 18.074794000000001
#
# number of rings (size 3 to 8) (size 9 to 14) (size 15 to 20)
#    0.000    1.818    1.818    3.000    1.273    0.727 
#    1.636    3.636    0.000    0.000    0.000    0.000 
#    0.000    0.000    0.000    0.000    0.000    0.000 
#
# Total GULP energy -245636.488141 kJ/mol
# GULP energy per Si atom -5582.647458 kJ/mol
# Density = 1.803365 g / cm^3
# Si number density = 18.074794 Si / 1000 Ang^3
#
#
#
# Elastic Constant Matrix: (Units=GPa)
#
#
# Indices 1 2 3 4 5 6 
#
# 1 68.5990 1.8013 25.8853 0.0000 0.0000 0.0000
# 2 1.8013 19.9702 22.6642 0.0000 0.0000 0.0000
# 3 25.8853 22.6642 82.6200 0.0000 0.0000 0.0000
# 4 0.0000 0.0000 0.0000 25.2439 0.0000 0.0000
# 5 0.0000 0.0000 0.0000 0.0000 27.8605 0.0000
# 6 0.0000 0.0000 0.0000 0.0000 0.0000 27.6293
#
#
#
# Elastic Compliance Matrix: (Units=1/GPa)
#
#
# Indices 1 2 3 4 5 6 
#
# 1 0.017110 0.006593 -0.007169 0.000000 0.000000 0.000000
# 2 0.006593 0.075252 -0.022709 0.000000 0.000000 0.000000
# 3 -0.007169 -0.022709 0.020579 0.000000 0.000000 0.000000
# 4 0.000000 0.000000 0.000000 0.039614 0.000000 0.000000
# 5 0.000000 0.000000 0.000000 0.000000 0.035893 0.000000
# 6 0.000000 0.000000 0.000000 0.000000 0.000000 0.036193
#
#
# Mechanical properties :
#
#
# Convention : Reuss Voigt Hill
#
# Bulk Modulus (GPa) = 15.06676 30.21007 22.63842
# Shear Modulus (GPa) = 17.04540 24.20262 20.62401
#
# Velocity S-wave (km/s) = 3.07424 3.66324 3.38159
# Velocity P-wave (km/s) = 4.57768 5.88580 5.27247
#
# Compressibility (1/GPa) = 0.06637128
#
# Stress axis : x y z
#
# Youngs Moduli (GPa) = 58.44682 13.28866 48.59293
#
# Poissons Ratio (x) = -0.08761 0.34837
# Poissons Ratio (y) = -0.38534 1.10348
# Poissons Ratio (z) = 0.41901 0.30177
#
# Static dielectric constant tensor:
#      x y z
#    x 1.618340 0.000000 0.000000 
#    y 0.000000 1.604670 0.000000 
#    z 0.000000 0.000000 1.613040 
# 
# From -- ./inp_files/33999.got.cif
#   From: 2010.05.17/outbox.cif.g08.bks.cpg/sg63_17_cif.got.tgz:33999.got - 2010.06.03 15:47:04.
