data_PCOD9471939
_publ_section_title
;
Structure prediction by ZEFSAII (Michael W. Deem and Ramdas Pophale) SiO2 
 PCOD9471939
Probable space group: C M C M
;
_chemical_formula_sum "Si O2"
_cell_formula_units_Z 112
_cell_length_a 26.889407
_cell_length_b 16.161445
_cell_length_c 13.949719
_cell_angle_alpha 90.000000
_cell_angle_beta 90.000000
_cell_angle_gamma 90.000000
_cell_volume 6062.152714
_symmetry_space_group_name_H-M "C M C M"
_symmetry_group_IT_number 63
_symmetry_cell_setting 'orthorhombic'
loop_
_space_group_symop_operation_xyz
x,y,z
-x,-y,1/2+z
x,-y,-z
-x,y,1/2-z
-x,-y,-z
x,y,1/2-z
-x,y,z
x,-y,1/2+z
1/2+x,1/2+y,z
1/2-x,1/2-y,1/2+z
1/2+x,1/2-y,-z
1/2-x,1/2+y,1/2-z
1/2-x,1/2-y,-z
1/2+x,1/2+y,1/2-z
1/2-x,1/2+y,z
1/2+x,1/2-y,1/2+z
loop_
_atom_site_type_symbol
_atom_site_label
_atom_site_fract_x
_atom_site_fract_y
_atom_site_fract_z
Si Si1 0.302989 0.389769 0.360387
Si Si2 0.382898 0.942658 0.363335
Si Si3 0.851155 0.811215 0.966909
Si Si4 0.726844 0.418055 0.859373
Si Si5 0.942096 0.291406 0.049409
Si Si6 0.557912 0.108557 0.360381
Si Si7 0.206000 0.361221 0.031606
O O1 0.313823 0.371344 0.250000
O O2 0.345233 0.362298 0.434748
O O3 0.290353 0.487027 0.370657
O O4 0.252243 0.346308 0.396671
O O5 0.372817 0.940147 0.250000
O O6 0.421200 0.869226 0.390234
O O7 0.332576 0.923812 0.419904
O O8 0.407395 0.030988 0.385583
O O9 0.906424 0.786813 0.935994
O O10 0.819812 0.860802 0.887877
O O11 0.823311 0.723734 0.983316
O O12 0.742592 0.405153 0.750000
O O13 0.769842 0.395615 0.934600
O O14 0.935822 0.320159 0.938436
O O15 0.000000 0.277589 0.068815
O O16 0.567542 0.133059 0.250000
O O17 0.500000 0.081434 0.366126
#
# Coordination Sequence:
#
# PCOD9471939 Si02
#       7
#    16  16  16  16  16  16  16
#     4  10  20  35  55  76 100 134 173 210 252 306
#     4  10  20  33  50  74 107 146 182 213 247 293
#     4  10  21  34  53  77 104 136 168 209 259 309
#     4  10  21  37  57  77 102 137 173 212 256 306
#     4  10  21  35  52  77 105 135 174 220 266 309
#     4   9  18  33  52  73 102 143 184 217 251 295
#     4  10  20  33  51  79 111 138 167 207 252 301
#
# _framework density 18.475286000000001
#
# number of rings (size 3 to 8) (size 9 to 14) (size 15 to 20)
#    0.000    2.143    0.000    4.714    0.000   11.714 
#    0.000    5.000    0.000    1.714    0.000    2.000 
#    0.000    0.000    0.000    0.000    0.000    0.000 
#
# Total GULP energy -312866.155644 kJ/mol
# GULP energy per Si atom -5586.895637 kJ/mol
# Density = 1.843324 g / cm^3
# Si number density = 18.475286 Si / 1000 Ang^3
#
#
#
# Elastic Constant Matrix: (Units=GPa)
#
#
# Indices 1 2 3 4 5 6 
#
# 1 92.8937 18.8055 7.4497 0.0000 0.0000 0.0000
# 2 18.8055 32.2142 13.6241 0.0000 0.0000 0.0000
# 3 7.4497 13.6241 68.8514 0.0000 0.0000 0.0000
# 4 0.0000 0.0000 0.0000 8.6046 0.0000 0.0000
# 5 0.0000 0.0000 0.0000 0.0000 14.1981 0.0000
# 6 0.0000 0.0000 0.0000 0.0000 0.0000 24.1686
#
#
#
# Elastic Compliance Matrix: (Units=1/GPa)
#
#
# Indices 1 2 3 4 5 6 
#
# 1 0.012208 -0.007168 0.000097 0.000000 0.000000 0.000000
# 2 -0.007168 0.038086 -0.006761 0.000000 0.000000 0.000000
# 3 0.000097 -0.006761 0.015851 0.000000 0.000000 0.000000
# 4 0.000000 0.000000 0.000000 0.116217 0.000000 0.000000
# 5 0.000000 0.000000 0.000000 0.000000 0.070432 0.000000
# 6 0.000000 0.000000 0.000000 0.000000 0.000000 0.041376
#
#
# Mechanical properties :
#
#
# Convention : Reuss Voigt Hill
#
# Bulk Modulus (GPa) = 25.98557 30.41311 28.19934
# Shear Modulus (GPa) = 14.94051 19.66626 17.30339
#
# Velocity S-wave (km/s) = 2.84681 3.26615 3.06366
# Velocity P-wave (km/s) = 4.99012 5.54264 5.27362
#
# Compressibility (1/GPa) = 0.03848290
#
# Stress axis : x y z
#
# Youngs Moduli (GPa) = 81.91164 26.25642 63.08637
#
# Poissons Ratio (x) = 0.18821 -0.00615
# Poissons Ratio (y) = 0.58714 0.42651
# Poissons Ratio (z) = -0.00798 0.17751
#
# Static dielectric constant tensor:
#      x y z
#    x 1.645900 0.000000 0.000000 
#    y 0.000000 1.639770 0.000000 
#    z 0.000000 0.000000 1.650030 
# 
# From -- ./inp_files/37922.got.cif
#   From: 2010.05.17/outbox.cif.g08.bks.cpg/sg63_19_cif.got.tgz:37922.got - 2010.06.03 15:47:04.
