data_PCOD9471697
_publ_section_title
;
Structure prediction by ZEFSAII (Michael W. Deem and Ramdas Pophale) SiO2 
 PCOD9471697
Probable space group: C M C M
;
_chemical_formula_sum "Si O2"
_cell_formula_units_Z 80
_cell_length_a 15.073982
_cell_length_b 30.889108
_cell_length_c 7.610507
_cell_angle_alpha 90.000000
_cell_angle_beta 90.000000
_cell_angle_gamma 90.000000
_cell_volume 3543.618410
_symmetry_space_group_name_H-M "C M C M"
_symmetry_group_IT_number 63
_symmetry_cell_setting 'orthorhombic'
loop_
_space_group_symop_operation_xyz
x,y,z
-x,-y,1/2+z
x,-y,-z
-x,y,1/2-z
-x,-y,-z
x,y,1/2-z
-x,y,z
x,-y,1/2+z
1/2+x,1/2+y,z
1/2-x,1/2-y,1/2+z
1/2+x,1/2-y,-z
1/2-x,1/2+y,1/2-z
1/2-x,1/2-y,-z
1/2+x,1/2+y,1/2-z
1/2-x,1/2+y,z
1/2+x,1/2-y,1/2+z
loop_
_atom_site_type_symbol
_atom_site_label
_atom_site_fract_x
_atom_site_fract_y
_atom_site_fract_z
Si Si1 0.276422 0.861036 0.960307
Si Si2 0.398927 0.317879 0.535284
Si Si3 0.405174 0.449081 0.039837
Si Si4 0.293411 0.949981 0.556499
Si Si5 0.399284 0.780163 0.038617
O O1 0.269757 0.867044 0.750000
O O2 0.177655 0.849825 0.029392
O O3 0.322072 0.904953 0.034796
O O4 0.334424 0.818239 0.985534
O O5 0.398872 0.319286 0.750000
O O6 0.500000 0.326559 0.478335
O O7 0.375049 0.268621 0.481675
O O8 0.395399 0.443365 0.250000
O O9 0.500000 0.429010 0.983169
O O10 0.413687 0.500000 0.000000
O O11 0.312599 0.439931 0.946410
O O12 0.332554 0.950159 0.750000
O O13 0.303514 0.000000 0.500000
O O14 0.400420 0.778950 0.250000
O O15 0.500000 0.788509 0.977957
#
# Coordination Sequence:
#
# PCOD9471697 Si02
#       5
#    16  16  16  16  16
#     4  10  20  32  51  78 102 131 171 211 252 295
#     4   8  15  30  51  76 107 138 167 199 238 294
#     4   9  16  26  41  60  83 115 156 200 244 288
#     4  10  20  32  46  66  93 128 170 211 253 297
#     4   9  18  33  54  78 103 133 165 199 248 307
#
# _framework density 22.575796
#
# number of rings (size 3 to 8) (size 9 to 14) (size 15 to 20)
#    0.000    2.800    0.000    4.200    0.000    4.000 
#    0.000    2.000    0.000    2.400    0.000    0.000 
#    0.000    0.000    0.000    0.000    0.000    0.000 
#
# Total GULP energy -222789.171009 kJ/mol
# GULP energy per Si atom -5569.729275 kJ/mol
# Density = 2.252441 g / cm^3
# Si number density = 22.575796 Si / 1000 Ang^3
#
#
#
# Elastic Constant Matrix: (Units=GPa)
#
#
# Indices 1 2 3 4 5 6 
#
# 1 26.6821 45.4953 -0.9515 0.0000 0.0000 0.0000
# 2 45.4953 211.9192 8.7040 0.0000 0.0000 0.0000
# 3 -0.9515 8.7040 59.8990 0.0000 0.0000 0.0000
# 4 0.0000 0.0000 0.0000 17.1750 0.0000 0.0000
# 5 0.0000 0.0000 0.0000 0.0000 17.4444 0.0000
# 6 0.0000 0.0000 0.0000 0.0000 0.0000 1.7059
#
#
#
# Elastic Compliance Matrix: (Units=1/GPa)
#
#
# Indices 1 2 3 4 5 6 
#
# 1 0.059589 -0.012909 0.002822 0.000000 0.000000 0.000000
# 2 -0.012909 0.007543 -0.001301 0.000000 0.000000 0.000000
# 3 0.002822 -0.001301 0.016929 0.000000 0.000000 0.000000
# 4 0.000000 0.000000 0.000000 0.058224 0.000000 0.000000
# 5 0.000000 0.000000 0.000000 0.000000 0.057325 0.000000
# 6 0.000000 0.000000 0.000000 0.000000 0.000000 0.586214
#
#
# Mechanical properties :
#
#
# Convention : Reuss Voigt Hill
#
# Bulk Modulus (GPa) = 16.31682 44.99956 30.65819
# Shear Modulus (GPa) = 6.03115 23.61521 14.82318
#
# Velocity S-wave (km/s) = 1.63625 3.23776 2.56519
# Velocity P-wave (km/s) = 3.28831 5.82696 4.73109
#
# Compressibility (1/GPa) = 0.06128644
#
# Stress axis : x y z
#
# Youngs Moduli (GPa) = 16.78150 132.56450 59.07134
#
# Poissons Ratio (x) = 1.71124 -0.16672
# Poissons Ratio (y) = 0.21663 0.07686
# Poissons Ratio (z) = -0.04736 0.17249
#
# Static dielectric constant tensor:
#      x y z
#    x 1.869610 0.000000 0.000000 
#    y 0.000000 1.937910 0.000000 
#    z 0.000000 0.000000 1.836330 
# 
# From -- ./inp_files/6637.got.cif
#   From: 2010.05.17/outbox.cif.g08.bks.cpg/sg63_4_cif.got.tgz:6637.got - 2010.06.03 15:47:04.
