data_PCOD9471864
_publ_section_title
;
Structure prediction by ZEFSAII (Michael W. Deem and Ramdas Pophale) SiO2 
 PCOD9471864
Probable space group: C M C M
;
_chemical_formula_sum "Si O2"
_cell_formula_units_Z 96
_cell_length_a 13.108463
_cell_length_b 17.476133
_cell_length_c 19.712157
_cell_angle_alpha 90.000000
_cell_angle_beta 90.000000
_cell_angle_gamma 90.000000
_cell_volume 4515.764273
_symmetry_space_group_name_H-M "C M C M"
_symmetry_group_IT_number 63
_symmetry_cell_setting 'orthorhombic'
loop_
_space_group_symop_operation_xyz
x,y,z
-x,-y,1/2+z
x,-y,-z
-x,y,1/2-z
-x,-y,-z
x,y,1/2-z
-x,y,z
x,-y,1/2+z
1/2+x,1/2+y,z
1/2-x,1/2-y,1/2+z
1/2+x,1/2-y,-z
1/2-x,1/2+y,1/2-z
1/2-x,1/2-y,-z
1/2+x,1/2+y,1/2-z
1/2-x,1/2+y,z
1/2+x,1/2-y,1/2+z
loop_
_atom_site_type_symbol
_atom_site_label
_atom_site_fract_x
_atom_site_fract_y
_atom_site_fract_z
Si Si1 0.668857 0.095563 0.566926
Si Si2 0.334942 0.928330 0.593759
Si Si3 0.890362 0.142366 0.957687
Si Si4 0.111019 0.730985 0.355020
Si Si5 0.389442 0.383565 0.883432
Si Si6 0.837031 0.723051 0.824125
O O1 0.650398 0.096605 0.485656
O O2 0.792941 0.097041 0.568874
O O3 0.636228 0.166315 0.613903
O O4 0.628334 0.015391 0.595748
O O5 0.382478 0.860033 0.637108
O O6 0.216429 0.929230 0.618388
O O7 0.884648 0.227974 0.928674
O O8 0.000000 0.109027 0.936555
O O9 0.888394 0.143593 0.038296
O O10 0.214051 0.763731 0.323032
O O11 0.000000 0.751789 0.326335
O O12 0.500000 0.420773 0.870325
O O13 0.380072 0.307357 0.838691
O O14 0.869029 0.694652 0.750000
#
# Coordination Sequence:
#
# PCOD9471864 Si02
#       6
#    16  16  16  16  16  16
#     4   9  17  30  46  71 105 130 155 194 239 292
#     4   9  17  30  50  74 100 127 154 196 250 289
#     4   8  14  26  48  73  94 121 156 197 241 277
#     4   9  17  31  50  70  91 119 161 205 238 272
#     4   9  17  30  49  72  95 121 156 195 236 284
#     4  10  20  33  49  67  91 127 164 198 238 287
#
# _framework density 21.258859999999999
#
# number of rings (size 3 to 8) (size 9 to 14) (size 15 to 20)
#    0.000    3.000    0.000    1.000    0.000    5.333 
#    0.000    9.167    0.000    0.000    0.000    0.000 
#    0.000    0.000    0.000    0.000    0.000    0.000 
#
# Total GULP energy -267237.192210 kJ/mol
# GULP energy per Si atom -5567.441504 kJ/mol
# Density = 2.121047 g / cm^3
# Si number density = 21.258860 Si / 1000 Ang^3
#
#
#
# Elastic Constant Matrix: (Units=GPa)
#
#
# Indices 1 2 3 4 5 6 
#
# 1 71.5595 -5.9073 0.8463 0.0000 0.0000 0.0000
# 2 -5.9073 72.9132 13.7818 0.0000 0.0000 0.0000
# 3 0.8463 13.7818 26.4040 0.0000 0.0000 0.0000
# 4 0.0000 0.0000 0.0000 1.6355 0.0000 0.0000
# 5 0.0000 0.0000 0.0000 0.0000 -1.0677 0.0000
# 6 0.0000 0.0000 0.0000 0.0000 0.0000 -1.6983
#
#
#
# Elastic Compliance Matrix: (Units=1/GPa)
#
#
# Indices 1 2 3 4 5 6 
#
# 1 0.014101 0.001362 -0.001163 0.000000 0.000000 0.000000
# 2 0.001362 0.015348 -0.008055 0.000000 0.000000 0.000000
# 3 -0.001163 -0.008055 0.042115 0.000000 0.000000 0.000000
# 4 0.000000 0.000000 0.000000 0.611442 0.000000 0.000000
# 5 0.000000 0.000000 0.000000 0.000000 -0.936591 0.000000
# 6 0.000000 0.000000 0.000000 0.000000 0.000000 -0.588840
#
#
# Mechanical properties :
#
#
# Convention : Reuss Voigt Hill
#
# Bulk Modulus (GPa) = 17.90436 20.92423 19.41430
# Shear Modulus (GPa) = -6.18737 10.58430 2.19847
#
# Velocity S-wave (km/s) = -1.70787 2.23374 1.01803
# Velocity P-wave (km/s) = 2.13337 4.06408 3.24561
#
# Compressibility (1/GPa) = 0.05585231
#
# Stress axis : x y z
#
# Youngs Moduli (GPa) = 70.91897 65.15616 23.74477
#
# Poissons Ratio (x) = -0.08876 0.02761
# Poissons Ratio (y) = -0.09661 0.19125
# Poissons Ratio (z) = 0.08248 0.52480
#
# Static dielectric constant tensor:
#      x y z
#    x 1.850950 0.000000 0.000000 
#    y 0.000000 1.746900 0.000000 
#    z 0.000000 0.000000 1.751690 
# 
# From -- ./inp_files/54173.got.cif
#   From: 2010.05.17/outbox.cif.g08.bks.cpg/sg63_28_cif.got.tgz:54173.got - 2010.06.03 15:47:04.
