data_PCOD9471896
_publ_section_title
;
Structure prediction by ZEFSAII (Michael W. Deem and Ramdas Pophale) SiO2 
 PCOD9471896
Probable space group: C M C M
;
_chemical_formula_sum "Si O2"
_cell_formula_units_Z 104
_cell_length_a 33.240300
_cell_length_b 20.102221
_cell_length_c 7.512667
_cell_angle_alpha 90.000000
_cell_angle_beta 90.000000
_cell_angle_gamma 90.000000
_cell_volume 5019.993064
_symmetry_space_group_name_H-M "C M C M"
_symmetry_group_IT_number 63
_symmetry_cell_setting 'orthorhombic'
loop_
_space_group_symop_operation_xyz
x,y,z
-x,-y,1/2+z
x,-y,-z
-x,y,1/2-z
-x,-y,-z
x,y,1/2-z
-x,y,z
x,-y,1/2+z
1/2+x,1/2+y,z
1/2-x,1/2-y,1/2+z
1/2+x,1/2-y,-z
1/2-x,1/2+y,1/2-z
1/2-x,1/2-y,-z
1/2+x,1/2+y,1/2-z
1/2-x,1/2+y,z
1/2+x,1/2-y,1/2+z
loop_
_atom_site_type_symbol
_atom_site_label
_atom_site_fract_x
_atom_site_fract_y
_atom_site_fract_z
Si Si1 0.500000 0.421389 0.036395
Si Si2 0.769039 0.855749 0.044210
Si Si3 0.154610 0.075617 0.536540
Si Si4 0.399494 0.194732 0.962127
Si Si5 0.691590 0.785942 0.032392
Si Si6 0.045829 0.575195 0.536517
Si Si7 0.578442 0.342549 0.035761
O O1 0.500000 0.414336 0.250000
O O2 0.540038 0.384021 0.969821
O O3 0.500000 0.500000 0.000000
O O4 0.762663 0.874320 0.250000
O O5 0.801022 0.907101 0.964162
O O6 0.724791 0.839869 0.971117
O O7 0.792650 0.785313 0.034097
O O8 0.156490 0.084716 0.750000
O O9 0.119968 0.124793 0.468364
O O10 0.143261 0.000000 0.500000
O O11 0.395947 0.185894 0.750000
O O12 0.353662 0.200461 0.028818
O O13 0.424858 0.132545 0.032895
O O14 0.421721 0.264701 0.993065
O O15 0.692531 0.783304 0.250000
O O16 0.059669 0.500000 0.500000
O O17 0.043923 0.582581 0.750000
O O18 0.000000 0.581806 0.468078
O O19 0.578824 0.348411 0.250000
#
# Coordination Sequence:
#
# PCOD9471896 Si02
#       7
#     8  16  16  16  16  16  16
#     4  10  22  38  54  74 103 140 179 218 261 308
#     4   9  17  31  49  70  98 131 166 206 250 296
#     4  10  20  33  50  71 100 137 174 214 255 298
#     4  10  20  33  53  81 107 133 168 213 257 303
#     4   9  17  30  50  74  99 128 163 204 251 300
#     4   9  19  36  55  76 103 134 168 204 248 304
#     4  10  21  36  52  75 105 136 174 216 258 305
#
# _framework density 20.717158999999999
#
# number of rings (size 3 to 8) (size 9 to 14) (size 15 to 20)
#    0.000    2.462    1.538    0.462    1.077    2.462 
#    0.000    0.769    0.000    0.000    0.000    0.000 
#    0.000    0.000    0.000    0.000    0.000    0.000 
#
# Total GULP energy -290164.161009 kJ/mol
# GULP energy per Si atom -5580.080019 kJ/mol
# Density = 2.067001 g / cm^3
# Si number density = 20.717159 Si / 1000 Ang^3
#
#
#
# Elastic Constant Matrix: (Units=GPa)
#
#
# Indices 1 2 3 4 5 6 
#
# 1 125.3005 72.8866 -1.1494 0.0000 0.0000 0.0000
# 2 72.8866 129.8323 -14.4700 0.0000 0.0000 0.0000
# 3 -1.1494 -14.4700 55.6282 0.0000 0.0000 0.0000
# 4 0.0000 0.0000 0.0000 20.9835 0.0000 0.0000
# 5 0.0000 0.0000 0.0000 0.0000 0.1203 0.0000
# 6 0.0000 0.0000 0.0000 0.0000 0.0000 26.8021
#
#
#
# Elastic Compliance Matrix: (Units=1/GPa)
#
#
# Indices 1 2 3 4 5 6 
#
# 1 0.011979 -0.006897 -0.001547 0.000000 0.000000 0.000000
# 2 -0.006897 0.011903 0.002954 0.000000 0.000000 0.000000
# 3 -0.001547 0.002954 0.018713 0.000000 0.000000 0.000000
# 4 0.000000 0.000000 0.000000 0.047657 0.000000 0.000000
# 5 0.000000 0.000000 0.000000 0.000000 8.313840 0.000000
# 6 0.000000 0.000000 0.000000 0.000000 0.000000 0.037310
#
#
# Mechanical properties :
#
#
# Convention : Reuss Voigt Hill
#
# Bulk Modulus (GPa) = 31.63028 47.25505 39.44266
# Shear Modulus (GPa) = 0.59081 26.48077 13.53579
#
# Velocity S-wave (km/s) = 0.53460 3.57908 2.55887
# Velocity P-wave (km/s) = 3.96004 6.31972 5.27355
#
# Compressibility (1/GPa) = 0.03161528
#
# Stress axis : x y z
#
# Youngs Moduli (GPa) = 83.48231 84.00985 53.43913
#
# Poissons Ratio (x) = 0.57942 0.08265
# Poissons Ratio (y) = 0.57578 -0.15785
# Poissons Ratio (z) = 0.12911 -0.24815
#
# Static dielectric constant tensor:
#      x y z
#    x 1.774330 0.000000 0.000000 
#    y 0.000000 1.701080 0.000000 
#    z 0.000000 0.000000 1.763720 
# 
# From -- ./inp_files/14486.got.cif
#   From: 2010.05.17/outbox.cif.g08.bks.cpg/sg63_8_cif.got.tgz:14486.got - 2010.06.03 15:47:04.
