data_PCOD9471840
_publ_section_title
;
Structure prediction by ZEFSAII (Michael W. Deem and Ramdas Pophale) SiO2 
 PCOD9471840
Probable space group: C M C M
;
_chemical_formula_sum "Si O2"
_cell_formula_units_Z 96
_cell_length_a 25.669566
_cell_length_b 25.718359
_cell_length_c 8.730193
_cell_angle_alpha 90.000000
_cell_angle_beta 90.000000
_cell_angle_gamma 90.000000
_cell_volume 5763.491078
_symmetry_space_group_name_H-M "C M C M"
_symmetry_group_IT_number 63
_symmetry_cell_setting 'orthorhombic'
loop_
_space_group_symop_operation_xyz
x,y,z
-x,-y,1/2+z
x,-y,-z
-x,y,1/2-z
-x,-y,-z
x,y,1/2-z
-x,y,z
x,-y,1/2+z
1/2+x,1/2+y,z
1/2-x,1/2-y,1/2+z
1/2+x,1/2-y,-z
1/2-x,1/2+y,1/2-z
1/2-x,1/2-y,-z
1/2+x,1/2+y,1/2-z
1/2-x,1/2+y,z
1/2+x,1/2-y,1/2+z
loop_
_atom_site_type_symbol
_atom_site_label
_atom_site_fract_x
_atom_site_fract_y
_atom_site_fract_z
Si Si1 0.333954 0.751582 0.069118
Si Si2 0.942238 0.247991 0.932994
Si Si3 0.440498 0.365893 0.923819
Si Si4 0.239873 0.833139 0.430813
Si Si5 0.761723 0.054662 0.068809
Si Si6 0.375619 0.450443 0.071900
O O1 0.343111 0.745111 0.250000
O O2 0.288665 0.794361 0.047754
O O3 0.387162 0.770868 0.989063
O O4 0.309780 0.697370 0.003738
O O5 0.939770 0.240676 0.750000
O O6 0.000000 0.272037 0.965774
O O7 0.941603 0.193195 0.021229
O O8 0.419922 0.370247 0.750000
O O9 0.500000 0.384650 0.923256
O O10 0.407840 0.399167 0.041757
O O11 0.229560 0.839576 0.250000
O O12 0.254155 0.889319 0.500457
O O13 0.754322 0.054236 0.250000
O O14 0.822694 0.053779 0.024128
O O15 0.740091 0.000000 0.000000
O O16 0.364036 0.457993 0.250000
O O17 0.404740 0.500000 0.000000
#
# Coordination Sequence:
#
# PCOD9471840 Si02
#       6
#    16  16  16  16  16  16
#     4  10  20  33  51  74 100 131 165 202 243 288
#     4  10  20  33  49  69  94 124 157 194 236 282
#     4  10  20  33  47  62  82 111 149 191 234 279
#     4  10  20  34  51  73 101 131 164 201 243 290
#     4  11  21  34  51  70  94 123 157 194 235 283
#     4  11  21  33  47  62  83 111 147 190 234 279
#
# _framework density 16.656571
#
# number of rings (size 3 to 8) (size 9 to 14) (size 15 to 20)
#    0.000    1.667    0.000    7.000    0.000    4.333 
#    0.000    0.000    0.000    0.000    0.000    0.000 
#    0.000    0.667    0.000    2.167    0.000    3.167 
#
# Total GULP energy -267601.561937 kJ/mol
# GULP energy per Si atom -5575.032540 kJ/mol
# Density = 1.661866 g / cm^3
# Si number density = 16.656571 Si / 1000 Ang^3
#
#
#
# Elastic Constant Matrix: (Units=GPa)
#
#
# Indices 1 2 3 4 5 6 
#
# 1 64.6879 6.8662 31.5831 0.0000 0.0000 0.0000
# 2 6.8662 75.3183 37.4930 0.0000 0.0000 0.0000
# 3 31.5831 37.4930 107.3798 0.0000 0.0000 0.0000
# 4 0.0000 0.0000 0.0000 26.5381 0.0000 0.0000
# 5 0.0000 0.0000 0.0000 0.0000 20.7341 0.0000
# 6 0.0000 0.0000 0.0000 0.0000 0.0000 13.2070
#
#
#
# Elastic Compliance Matrix: (Units=1/GPa)
#
#
# Indices 1 2 3 4 5 6 
#
# 1 0.018142 0.001213 -0.005760 0.000000 0.000000 0.000000
# 2 0.001213 0.016151 -0.005996 0.000000 0.000000 0.000000
# 3 -0.005760 -0.005996 0.013100 0.000000 0.000000 0.000000
# 4 0.000000 0.000000 0.000000 0.037682 0.000000 0.000000
# 5 0.000000 0.000000 0.000000 0.000000 0.048230 0.000000
# 6 0.000000 0.000000 0.000000 0.000000 0.000000 0.075717
#
#
# Mechanical properties :
#
#
# Convention : Reuss Voigt Hill
#
# Bulk Modulus (GPa) = 38.01050 44.36340 41.18695
# Shear Modulus (GPa) = 20.93121 23.52542 22.22832
#
# Velocity S-wave (km/s) = 3.54875 3.76224 3.65705
# Velocity P-wave (km/s) = 6.29771 6.75016 6.52785
#
# Compressibility (1/GPa) = 0.02630852
#
# Stress axis : x y z
#
# Youngs Moduli (GPa) = 55.12024 61.91455 76.33304
#
# Poissons Ratio (x) = -0.07512 0.43965
# Poissons Ratio (y) = -0.06688 0.45771
# Poissons Ratio (z) = 0.31748 0.37126
#
# Static dielectric constant tensor:
#      x y z
#    x 1.603790 0.000000 0.000000 
#    y 0.000000 1.616640 0.000000 
#    z 0.000000 0.000000 1.561420 
# 
# From -- ./inp_files/10697.got.cif
#   From: 2010.05.17/outbox.cif.g08.bks.cpg/sg63_6_cif.got.tgz:10697.got - 2010.06.03 15:47:04.
