data_PCOD9471359
_publ_section_title
;
Structure prediction by ZEFSAII (Michael W. Deem and Ramdas Pophale) SiO2 
 PCOD9471359
Probable space group: C M C M
;
_chemical_formula_sum "Si O2"
_cell_formula_units_Z 100
_cell_length_a 7.329635
_cell_length_b 30.127745
_cell_length_c 19.779734
_cell_angle_alpha 90.000000
_cell_angle_beta 90.000000
_cell_angle_gamma 90.000000
_cell_volume 4367.867163
_symmetry_space_group_name_H-M "C M C M"
_symmetry_group_IT_number 63
_symmetry_cell_setting 'orthorhombic'
loop_
_space_group_symop_operation_xyz
x,y,z
-x,-y,1/2+z
x,-y,-z
-x,y,1/2-z
-x,-y,-z
x,y,1/2-z
-x,y,z
x,-y,1/2+z
1/2+x,1/2+y,z
1/2-x,1/2-y,1/2+z
1/2+x,1/2-y,-z
1/2-x,1/2+y,1/2-z
1/2-x,1/2-y,-z
1/2+x,1/2+y,1/2-z
1/2-x,1/2+y,z
1/2+x,1/2-y,1/2+z
loop_
_atom_site_type_symbol
_atom_site_label
_atom_site_fract_x
_atom_site_fract_y
_atom_site_fract_z
Si Si1 0.718907 0.754533 0.140630
Si Si2 0.000000 0.723017 0.250000
Si Si3 0.794477 0.349046 0.396812
Si Si4 0.711209 0.623144 0.174748
Si Si5 0.223002 0.558414 0.561796
Si Si6 0.719908 0.040378 0.091411
Si Si7 0.718083 0.321089 0.953699
O O1 0.500000 0.752984 0.154153
O O2 0.782748 0.805663 0.139585
O O3 0.747968 0.729256 0.069945
O O4 0.839438 0.727811 0.192616
O O5 0.711265 0.398028 0.399024
O O6 0.801658 0.334840 0.475578
O O7 0.000000 0.353686 0.370170
O O8 0.792769 0.629822 0.250000
O O9 0.500000 0.637002 0.179193
O O10 0.717756 0.571804 0.151879
O O11 0.785731 0.648658 0.109066
O O12 0.278512 0.558564 0.482631
O O13 0.276611 0.511093 0.592770
O O14 0.000000 0.559848 0.561362
O O15 0.500000 0.041094 0.091839
O O16 0.500000 0.327931 0.960707
#
# Coordination Sequence:
#
# PCOD9471359 Si02
#       7
#    16   4  16  16  16  16  16
#     4  10  24  42  62  89 123 160 200 252 304 353
#     4  12  26  44  68  86 116 166 214 248 288 378
#     4  10  19  35  61  89 117 150 194 249 305 356
#     4  10  21  35  51  74 114 159 192 232 300 361
#     4   8  15  29  54  82 109 141 182 236 300 344
#     4   9  16  31  52  78 108 141 186 241 283 342
#     4  10  21  36  56  84 120 156 191 243 301 361
#
# _framework density 22.894469999999998
#
# number of rings (size 3 to 8) (size 9 to 14) (size 15 to 20)
#    0.000    2.400    1.600    1.680    3.360    0.320 
#    0.000    2.400    1.760    0.000    0.000    0.000 
#    0.000    0.000    0.000    0.000    0.000    0.000 
#
# Total GULP energy -278660.329481 kJ/mol
# GULP energy per Si atom -5573.206590 kJ/mol
# Density = 2.284236 g / cm^3
# Si number density = 22.894470 Si / 1000 Ang^3
#
#
#
# Elastic Constant Matrix: (Units=GPa)
#
#
# Indices 1 2 3 4 5 6 
#
# 1 89.1282 -6.5641 -2.1608 0.0000 0.0000 0.0000
# 2 -6.5641 104.2750 -14.3399 0.0000 0.0000 0.0000
# 3 -2.1608 -14.3399 44.2405 0.0000 0.0000 0.0000
# 4 0.0000 0.0000 0.0000 7.3564 0.0000 0.0000
# 5 0.0000 0.0000 0.0000 0.0000 40.9244 0.0000
# 6 0.0000 0.0000 0.0000 0.0000 0.0000 7.9546
#
#
#
# Elastic Compliance Matrix: (Units=1/GPa)
#
#
# Indices 1 2 3 4 5 6 
#
# 1 0.011300 0.000824 0.000819 0.000000 0.000000 0.000000
# 2 0.000824 0.010098 0.003313 0.000000 0.000000 0.000000
# 3 0.000819 0.003313 0.023718 0.000000 0.000000 0.000000
# 4 0.000000 0.000000 0.000000 0.135935 0.000000 0.000000
# 5 0.000000 0.000000 0.000000 0.000000 0.024435 0.000000
# 6 0.000000 0.000000 0.000000 0.000000 0.000000 0.125714
#
#
# Mechanical properties :
#
#
# Convention : Reuss Voigt Hill
#
# Bulk Modulus (GPa) = 18.17260 21.27936 19.72598
# Shear Modulus (GPa) = 14.72189 28.62765 21.67477
#
# Velocity S-wave (km/s) = 2.53856 3.53996 3.08023
# Velocity P-wave (km/s) = 4.06782 5.10129 4.61358
#
# Compressibility (1/GPa) = 0.05502790
#
# Stress axis : x y z
#
# Youngs Moduli (GPa) = 88.49300 99.03412 42.16270
#
# Poissons Ratio (x) = -0.08160 -0.03453
# Poissons Ratio (y) = -0.07292 -0.13969
# Poissons Ratio (z) = -0.07248 -0.32812
#
# Static dielectric constant tensor:
#      x y z
#    x 1.901470 0.000000 0.000000 
#    y 0.000000 1.918150 0.000000 
#    z 0.000000 0.000000 1.878180 
# 
# From -- ./inp_files/51702.got.cif
#   From: 2010.05.17/outbox.cif.g08.bks.cpg/sg63_26_cif.got.tgz:51702.got - 2010.06.03 15:47:04.
