data_PCOD9471979
_publ_section_title
;
Structure prediction by ZEFSAII (Michael W. Deem and Ramdas Pophale) SiO2 
 PCOD9471979
Probable space group: C M C M
;
_chemical_formula_sum "Si O2"
_cell_formula_units_Z 96
_cell_length_a 9.134674
_cell_length_b 25.801152
_cell_length_c 24.127389
_cell_angle_alpha 90.000000
_cell_angle_beta 90.000000
_cell_angle_gamma 90.000000
_cell_volume 5686.466387
_symmetry_space_group_name_H-M "C M C M"
_symmetry_group_IT_number 63
_symmetry_cell_setting 'orthorhombic'
loop_
_space_group_symop_operation_xyz
x,y,z
-x,-y,1/2+z
x,-y,-z
-x,y,1/2-z
-x,-y,-z
x,y,1/2-z
-x,y,z
x,-y,1/2+z
1/2+x,1/2+y,z
1/2-x,1/2-y,1/2+z
1/2+x,1/2-y,-z
1/2-x,1/2+y,1/2-z
1/2-x,1/2-y,-z
1/2+x,1/2+y,1/2-z
1/2-x,1/2+y,z
1/2+x,1/2-y,1/2+z
loop_
_atom_site_type_symbol
_atom_site_label
_atom_site_fract_x
_atom_site_fract_y
_atom_site_fract_z
Si Si1 0.175657 0.938697 0.814434
Si Si2 0.823910 0.693638 0.000037
Si Si3 0.325291 0.746761 0.315319
Si Si4 0.823993 0.940739 0.186325
Si Si5 0.175032 0.652604 0.120741
Si Si6 0.324482 0.851358 0.381986
O O1 0.211642 0.926532 0.750000
O O2 0.256029 0.899652 0.855106
O O3 0.000000 0.933230 0.819992
O O4 0.213046 0.998998 0.824226
O O5 0.781227 0.662249 0.944904
O O6 0.000000 0.700730 0.998237
O O7 0.750000 0.750000 0.000000
O O8 0.786999 0.663818 0.056630
O O9 0.294918 0.749296 0.250000
O O10 0.500000 0.738043 0.322566
O O11 0.239020 0.700243 0.343859
O O12 0.288508 0.800902 0.344917
O O13 0.779991 0.928537 0.250000
O O14 0.751208 0.901294 0.144046
O O15 0.000000 0.936491 0.183572
O O16 0.000000 0.651043 0.125627
O O17 0.500000 0.858192 0.380309
#
# Coordination Sequence:
#
# PCOD9471979 Si02
#       6
#    16  16  16  16  16  16
#     4   9  19  37  58  78 105 143 180 214 261 321
#     4  10  21  37  55  76 105 142 182 220 260 310
#     4  10  20  33  51  76 106 140 175 212 260 321
#     4   9  19  36  57  81 108 138 175 220 267 314
#     4  11  22  34  52  80 108 136 176 223 268 309
#     4  10  20  35  55  78 105 140 180 217 261 317
#
# _framework density 16.882189
#
# number of rings (size 3 to 8) (size 9 to 14) (size 15 to 20)
#    0.000    2.167    1.667    2.500    0.000    6.333 
#    0.000    2.500    0.000    5.000    0.000    0.000 
#    0.000    0.000    0.000    0.000    0.000    0.000 
#
# Total GULP energy -267930.183195 kJ/mol
# GULP energy per Si atom -5581.878817 kJ/mol
# Density = 1.684376 g / cm^3
# Si number density = 16.882189 Si / 1000 Ang^3
#
#
#
# Elastic Constant Matrix: (Units=GPa)
#
#
# Indices 1 2 3 4 5 6 
#
# 1 28.9458 54.0611 60.0500 0.0000 0.0000 0.0000
# 2 54.0611 133.3797 110.1975 0.0000 0.0000 0.0000
# 3 60.0500 110.1975 173.9323 0.0000 0.0000 0.0000
# 4 0.0000 0.0000 0.0000 16.2899 0.0000 0.0000
# 5 0.0000 0.0000 0.0000 0.0000 27.3209 0.0000
# 6 0.0000 0.0000 0.0000 0.0000 0.0000 31.5873
#
#
#
# Elastic Compliance Matrix: (Units=1/GPa)
#
#
# Indices 1 2 3 4 5 6 
#
# 1 0.239337 -0.060305 -0.044424 0.000000 0.000000 0.000000
# 2 -0.060305 0.030927 0.001226 0.000000 0.000000 0.000000
# 3 -0.044424 0.001226 0.020310 0.000000 0.000000 0.000000
# 4 0.000000 0.000000 0.000000 0.061388 0.000000 0.000000
# 5 0.000000 0.000000 0.000000 0.000000 0.036602 0.000000
# 6 0.000000 0.000000 0.000000 0.000000 0.000000 0.031658
#
#
# Mechanical properties :
#
#
# Convention : Reuss Voigt Hill
#
# Bulk Modulus (GPa) = 11.96624 87.20833 49.58729
# Shear Modulus (GPa) = 7.63262 22.50291 15.06776
#
# Velocity S-wave (km/s) = 2.12860 3.65490 2.99076
# Velocity P-wave (km/s) = 3.62556 8.34148 6.43137
#
# Compressibility (1/GPa) = 0.08356842
#
# Stress axis : x y z
#
# Youngs Moduli (GPa) = 4.17822 32.33392 49.23658
#
# Poissons Ratio (x) = 1.94988 2.18728
# Poissons Ratio (y) = 0.25197 -0.06035
# Poissons Ratio (z) = 0.18561 -0.03963
#
# Static dielectric constant tensor:
#      x y z
#    x 1.563170 0.000000 0.000000 
#    y 0.000000 1.538960 0.000000 
#    z 0.000000 0.000000 1.564520 
# 
# From -- ./inp_files/59909.got.cif
#   From: 2010.05.17/outbox.cif.g08.bks.cpg/sg63_30_cif.got.tgz:59909.got - 2010.06.03 15:47:04.
