data_PCOD9471322
_publ_section_title
;
Structure prediction by ZEFSAII (Michael W. Deem and Ramdas Pophale) SiO2 
 PCOD9471322
Probable space group: C M C M
;
_chemical_formula_sum "Si O2"
_cell_formula_units_Z 96
_cell_length_a 8.810700
_cell_length_b 21.004177
_cell_length_c 28.999353
_cell_angle_alpha 90.000000
_cell_angle_beta 90.000000
_cell_angle_gamma 90.000000
_cell_volume 5366.663832
_symmetry_space_group_name_H-M "C M C M"
_symmetry_group_IT_number 63
_symmetry_cell_setting 'orthorhombic'
loop_
_space_group_symop_operation_xyz
x,y,z
-x,-y,1/2+z
x,-y,-z
-x,y,1/2-z
-x,-y,-z
x,y,1/2-z
-x,y,z
x,-y,1/2+z
1/2+x,1/2+y,z
1/2-x,1/2-y,1/2+z
1/2+x,1/2-y,-z
1/2-x,1/2+y,1/2-z
1/2-x,1/2-y,-z
1/2+x,1/2+y,1/2-z
1/2-x,1/2+y,z
1/2+x,1/2-y,1/2+z
loop_
_atom_site_type_symbol
_atom_site_label
_atom_site_fract_x
_atom_site_fract_y
_atom_site_fract_z
Si Si1 0.817606 0.620389 0.051558
Si Si2 0.683200 0.747311 0.897563
Si Si3 0.681720 0.878117 0.056460
Si Si4 0.315551 0.199122 0.301310
Si Si5 0.180319 0.001078 0.394130
Si Si6 0.682412 0.949822 0.697176
O O1 0.780185 0.688303 0.074346
O O2 0.738384 0.563065 0.078318
O O3 0.000000 0.611805 0.055841
O O4 0.776939 0.620093 0.997688
O O5 0.500000 0.740110 0.898198
O O6 0.757549 0.686301 0.920607
O O7 0.733599 0.759177 0.844710
O O8 0.500000 0.880076 0.059376
O O9 0.749954 0.938863 0.082262
O O10 0.263714 0.218294 0.250000
O O11 0.500000 0.200528 0.300963
O O12 0.275174 0.124855 0.308787
O O13 0.000000 0.997846 0.395584
O O14 0.237362 0.009307 0.341768
O O15 0.718306 0.967512 0.750000
O O16 0.500000 0.953759 0.691406
#
# Coordination Sequence:
#
# PCOD9471322 Si02
#       6
#    16  16  16  16  16  16
#     4  10  21  39  61  83 109 148 194 239 285 339
#     4  10  19  35  59  85 115 145 183 233 286 341
#     4  11  24  39  56  79 114 154 194 237 284 339
#     4   8  14  28  55  86 111 140 178 221 273 333
#     4  12  24  37  57  85 117 150 189 237 284 336
#     4   9  17  34  61  87 112 146 187 229 278 337
#
# _framework density 17.888207000000001
#
# number of rings (size 3 to 8) (size 9 to 14) (size 15 to 20)
#    0.000    2.000    1.667    4.000    0.000    4.333 
#    0.000    0.833    0.000    3.500    0.000    0.000 
#    0.000    0.000    0.000    0.000    0.000    0.000 
#
# Total GULP energy -268025.062798 kJ/mol
# GULP energy per Si atom -5583.855475 kJ/mol
# Density = 1.784749 g / cm^3
# Si number density = 17.888207 Si / 1000 Ang^3
#
#
#
# Elastic Constant Matrix: (Units=GPa)
#
#
# Indices 1 2 3 4 5 6 
#
# 1 41.0560 51.5229 59.0386 0.0000 0.0000 0.0000
# 2 51.5229 123.5562 84.3457 0.0000 0.0000 0.0000
# 3 59.0386 84.3457 172.2443 0.0000 0.0000 0.0000
# 4 0.0000 0.0000 0.0000 -44.3229 0.0000 0.0000
# 5 0.0000 0.0000 0.0000 0.0000 15.4389 0.0000
# 6 0.0000 0.0000 0.0000 0.0000 0.0000 24.6432
#
#
#
# Elastic Compliance Matrix: (Units=1/GPa)
#
#
# Indices 1 2 3 4 5 6 
#
# 1 0.068477 -0.018825 -0.014253 0.000000 0.000000 0.000000
# 2 -0.018825 0.017333 -0.002035 0.000000 0.000000 0.000000
# 3 -0.014253 -0.002035 0.011688 0.000000 0.000000 0.000000
# 4 0.000000 0.000000 0.000000 -0.022562 0.000000 0.000000
# 5 0.000000 0.000000 0.000000 0.000000 0.064772 0.000000
# 6 0.000000 0.000000 0.000000 0.000000 0.000000 0.040579
#
#
# Mechanical properties :
#
#
# Convention : Reuss Voigt Hill
#
# Bulk Modulus (GPa) = 36.66863 80.74122 58.70493
# Shear Modulus (GPa) = 19.26014 8.61512 13.93763
#
# Velocity S-wave (km/s) = 3.28486 2.19694 2.79436
# Velocity P-wave (km/s) = 5.91019 7.18818 6.58029
#
# Compressibility (1/GPa) = 0.02727127
#
# Stress axis : x y z
#
# Youngs Moduli (GPa) = 14.60340 57.69387 85.56078
#
# Poissons Ratio (x) = 1.08610 1.21948
# Poissons Ratio (y) = 0.27491 0.17413
# Poissons Ratio (z) = 0.20814 0.11741
#
# Static dielectric constant tensor:
#      x y z
#    x 1.596870 0.000000 0.000000 
#    y 0.000000 1.569100 0.000000 
#    z 0.000000 0.000000 1.623380 
# 
# From -- ./inp_files/66951.got.cif
#   From: 2010.05.17/outbox.cif.g08.bks.cpg/sg63_34_cif.got.tgz:66951.got - 2010.06.03 15:47:04.
