data_PCOD9471417
_publ_section_title
;
Structure prediction by ZEFSAII (Michael W. Deem and Ramdas Pophale) SiO2 
 PCOD9471417
Probable space group: C M C M
;
_chemical_formula_sum "Si O2"
_cell_formula_units_Z 96
_cell_length_a 7.858180
_cell_length_b 31.057538
_cell_length_c 19.818813
_cell_angle_alpha 90.000000
_cell_angle_beta 90.000000
_cell_angle_gamma 90.000000
_cell_volume 4836.894755
_symmetry_space_group_name_H-M "C M C M"
_symmetry_group_IT_number 63
_symmetry_cell_setting 'orthorhombic'
loop_
_space_group_symop_operation_xyz
x,y,z
-x,-y,1/2+z
x,-y,-z
-x,y,1/2-z
-x,-y,-z
x,y,1/2-z
-x,y,z
x,-y,1/2+z
1/2+x,1/2+y,z
1/2-x,1/2-y,1/2+z
1/2+x,1/2-y,-z
1/2-x,1/2+y,1/2-z
1/2-x,1/2-y,-z
1/2+x,1/2+y,1/2-z
1/2-x,1/2+y,z
1/2+x,1/2-y,1/2+z
loop_
_atom_site_type_symbol
_atom_site_label
_atom_site_fract_x
_atom_site_fract_y
_atom_site_fract_z
Si Si1 0.699843 0.868906 0.588527
Si Si2 0.205780 0.786662 0.672409
Si Si3 0.707828 0.188704 0.672875
Si Si4 0.708662 0.881383 0.064848
Si Si5 0.799015 0.521766 0.932044
Si Si6 0.800318 0.048962 0.326251
O O1 0.500000 0.878832 0.586137
O O2 0.727267 0.822727 0.622351
O O3 0.762713 0.870613 0.511550
O O4 0.778839 0.906005 0.634877
O O5 0.257158 0.795885 0.750000
O O6 0.259290 0.737756 0.656174
O O7 0.000000 0.788038 0.670513
O O8 0.760195 0.179346 0.750000
O O9 0.500000 0.188513 0.672621
O O10 0.767396 0.153595 0.619257
O O11 0.500000 0.880000 0.066647
O O12 0.766499 0.930075 0.080404
O O13 0.778225 0.489053 0.870661
O O14 0.000000 0.527481 0.944474
O O15 0.725532 0.500000 0.000000
O O16 0.731501 0.051641 0.250000
O O17 0.000000 0.039841 0.322437
#
# Coordination Sequence:
#
# PCOD9471417 Si02
#       6
#    16  16  16  16  16  16
#     4  11  21  34  53  79 110 141 175 220 271 323
#     4   9  18  33  52  75 105 139 177 221 264 312
#     4   8  15  30  52  76 103 138 178 218 262 314
#     4   9  18  32  52  79 109 138 173 219 266 318
#     4  10  19  36  58  81 110 142 177 222 273 322
#     4  11  24  39  55  79 110 143 183 227 267 318
#
# _framework density 19.847445
#
# number of rings (size 3 to 8) (size 9 to 14) (size 15 to 20)
#    0.000    2.333    1.667    2.500    0.000    5.333 
#    0.000    1.667    0.000    2.000    0.000    0.000 
#    0.000    0.000    0.000    0.000    0.000    0.000 
#
# Total GULP energy -267928.253004 kJ/mol
# GULP energy per Si atom -5581.838604 kJ/mol
# Density = 1.980227 g / cm^3
# Si number density = 19.847445 Si / 1000 Ang^3
#
#
#
# Elastic Constant Matrix: (Units=GPa)
#
#
# Indices 1 2 3 4 5 6 
#
# 1 12.8853 -10.5587 -12.2891 0.0000 0.0000 0.0000
# 2 -10.5587 156.6710 99.3335 0.0000 0.0000 0.0000
# 3 -12.2891 99.3335 142.3634 0.0000 0.0000 0.0000
# 4 0.0000 0.0000 0.0000 39.9660 0.0000 0.0000
# 5 0.0000 0.0000 0.0000 0.0000 21.9484 0.0000
# 6 0.0000 0.0000 0.0000 0.0000 0.0000 3.0754
#
#
#
# Elastic Compliance Matrix: (Units=1/GPa)
#
#
# Indices 1 2 3 4 5 6 
#
# 1 0.084894 0.001928 0.005983 0.000000 0.000000 0.000000
# 2 0.001928 0.011490 -0.007851 0.000000 0.000000 0.000000
# 3 0.005983 -0.007851 0.013019 0.000000 0.000000 0.000000
# 4 0.000000 0.000000 0.000000 0.025021 0.000000 0.000000
# 5 0.000000 0.000000 0.000000 0.000000 0.045561 0.000000
# 6 0.000000 0.000000 0.000000 0.000000 0.000000 0.325162
#
#
# Mechanical properties :
#
#
# Convention : Reuss Voigt Hill
#
# Bulk Modulus (GPa) = 9.13051 51.65458 30.39254
# Shear Modulus (GPa) = 9.23300 28.69355 18.96328
#
# Velocity S-wave (km/s) = 2.15919 3.80637 3.09439
# Velocity P-wave (km/s) = 3.29036 6.73797 5.30220
#
# Compressibility (1/GPa) = 0.10952295
#
# Stress axis : x y z
#
# Youngs Moduli (GPa) = 11.77942 87.02853 76.81221
#
# Poissons Ratio (x) = -0.16779 -0.45957
# Poissons Ratio (y) = -0.02271 0.60305
# Poissons Ratio (z) = -0.07048 0.68326
#
# Static dielectric constant tensor:
#      x y z
#    x 1.735300 0.000000 0.000000 
#    y 0.000000 1.669410 0.000000 
#    z 0.000000 0.000000 1.684260 
# 
# From -- ./inp_files/51394.got.cif
#   From: 2010.05.17/outbox.cif.g08.bks.cpg/sg63_26_cif.got.tgz:51394.got - 2010.06.03 15:47:04.
