data_PCOD9471775
_publ_section_title
;
Structure prediction by ZEFSAII (Michael W. Deem and Ramdas Pophale) SiO2 
 PCOD9471775
Probable space group: C M C M
;
_chemical_formula_sum "Si O2"
_cell_formula_units_Z 80
_cell_length_a 9.950435
_cell_length_b 26.160192
_cell_length_c 14.680734
_cell_angle_alpha 90.000000
_cell_angle_beta 90.000000
_cell_angle_gamma 90.000000
_cell_volume 3821.472723
_symmetry_space_group_name_H-M "C M C M"
_symmetry_group_IT_number 63
_symmetry_cell_setting 'orthorhombic'
loop_
_space_group_symop_operation_xyz
x,y,z
-x,-y,1/2+z
x,-y,-z
-x,y,1/2-z
-x,-y,-z
x,y,1/2-z
-x,y,z
x,-y,1/2+z
1/2+x,1/2+y,z
1/2-x,1/2-y,1/2+z
1/2+x,1/2-y,-z
1/2-x,1/2+y,1/2-z
1/2-x,1/2-y,-z
1/2+x,1/2+y,1/2-z
1/2-x,1/2+y,z
1/2+x,1/2-y,1/2+z
loop_
_atom_site_type_symbol
_atom_site_label
_atom_site_fract_x
_atom_site_fract_y
_atom_site_fract_z
Si Si1 0.654054 0.222486 0.861258
Si Si2 0.347863 0.484183 0.104531
Si Si3 0.346793 0.632519 0.639745
Si Si4 0.349464 0.074080 0.356158
Si Si5 0.154641 0.161905 0.361390
O O1 0.655915 0.221856 0.750000
O O2 0.500000 0.213759 0.889265
O O3 0.750964 0.177618 0.893393
O O4 0.692488 0.280272 0.887971
O O5 0.500000 0.490175 0.143638
O O6 0.308372 0.425092 0.113649
O O7 0.235718 0.522017 0.142529
O O8 0.356924 0.500000 0.000000
O O9 0.345649 0.633919 0.750000
O O10 0.500000 0.641163 0.609535
O O11 0.364840 0.087512 0.250000
O O12 0.500000 0.069531 0.395686
O O13 0.256379 0.118984 0.396503
O O14 0.154402 0.160590 0.250000
O O15 0.000000 0.151385 0.388434
#
# Coordination Sequence:
#
# PCOD9471775 Si02
#       5
#    16  16  16  16  16
#     4   8  14  25  43  69  98 125 153 187 231 282
#     4  10  21  36  52  69  93 129 169 205 243 289
#     4   9  17  29  47  71  96 122 154 194 239 284
#     4  10  20  32  49  75 102 127 158 198 243 287
#     4   8  14  26  45  69  97 127 156 188 230 281
#
# _framework density 20.934336999999999
#
# number of rings (size 3 to 8) (size 9 to 14) (size 15 to 20)
#    0.000    3.000    0.000    2.400    0.000    4.000 
#    0.000    6.000    0.000    1.200    0.000    0.000 
#    0.000    0.000    0.000    0.000    0.000    0.000 
#
# Total GULP energy -223182.417108 kJ/mol
# GULP energy per Si atom -5579.560428 kJ/mol
# Density = 2.088669 g / cm^3
# Si number density = 20.934337 Si / 1000 Ang^3
#
#
#
# Elastic Constant Matrix: (Units=GPa)
#
#
# Indices 1 2 3 4 5 6 
#
# 1 154.2610 151.8591 3.4190 0.0000 0.0000 0.0000
# 2 151.8591 182.5397 8.2729 0.0000 0.0000 0.0000
# 3 3.4190 8.2729 42.1635 0.0000 0.0000 0.0000
# 4 0.0000 0.0000 0.0000 10.6017 0.0000 0.0000
# 5 0.0000 0.0000 0.0000 0.0000 -0.8856 0.0000
# 6 0.0000 0.0000 0.0000 0.0000 0.0000 41.9585
#
#
#
# Elastic Compliance Matrix: (Units=1/GPa)
#
#
# Indices 1 2 3 4 5 6 
#
# 1 0.036181 -0.030236 0.002999 0.000000 0.000000 0.000000
# 2 -0.030236 0.030795 -0.003590 0.000000 0.000000 0.000000
# 3 0.002999 -0.003590 0.024179 0.000000 0.000000 0.000000
# 4 0.000000 0.000000 0.000000 0.094325 0.000000 0.000000
# 5 0.000000 0.000000 0.000000 0.000000 -1.129227 0.000000
# 6 0.000000 0.000000 0.000000 0.000000 0.000000 0.023833
#
#
# Mechanical properties :
#
#
# Convention : Reuss Voigt Hill
#
# Bulk Modulus (GPa) = 33.89917 78.45182 56.17549
# Shear Modulus (GPa) = -5.89327 24.69580 9.40127
#
# Velocity S-wave (km/s) = -1.67965 3.43837 2.12146
# Velocity P-wave (km/s) = 3.53081 7.30204 5.73526
#
# Compressibility (1/GPa) = 0.02949925
#
# Stress axis : x y z
#
# Youngs Moduli (GPa) = 27.63876 32.47294 41.35906
#
# Poissons Ratio (x) = 0.98185 -0.12402
# Poissons Ratio (y) = 0.83568 0.14850
# Poissons Ratio (z) = -0.08288 0.11659
#
# Static dielectric constant tensor:
#      x y z
#    x 1.753410 0.000000 0.000000 
#    y 0.000000 1.719310 0.000000 
#    z 0.000000 0.000000 1.708310 
# 
# From -- ./inp_files/40503.got.cif
#   From: 2010.05.17/outbox.cif.g08.bks.cpg/sg63_21_cif.got.tgz:40503.got - 2010.06.03 15:47:04.
