data_PCOD9471078
_publ_section_title
;
Structure prediction by ZEFSAII (Michael W. Deem and Ramdas Pophale) SiO2 
 PCOD9471078
Probable space group: C M C M
;
_chemical_formula_sum "Si O2"
_cell_formula_units_Z 96
_cell_length_a 14.248858
_cell_length_b 18.919941
_cell_length_c 15.536047
_cell_angle_alpha 90.000000
_cell_angle_beta 90.000000
_cell_angle_gamma 90.000000
_cell_volume 4188.324889
_symmetry_space_group_name_H-M "C M C M"
_symmetry_group_IT_number 63
_symmetry_cell_setting 'orthorhombic'
loop_
_space_group_symop_operation_xyz
x,y,z
-x,-y,1/2+z
x,-y,-z
-x,y,1/2-z
-x,-y,-z
x,y,1/2-z
-x,y,z
x,-y,1/2+z
1/2+x,1/2+y,z
1/2-x,1/2-y,1/2+z
1/2+x,1/2-y,-z
1/2-x,1/2+y,1/2-z
1/2-x,1/2-y,-z
1/2+x,1/2+y,1/2-z
1/2-x,1/2+y,z
1/2+x,1/2-y,1/2+z
loop_
_atom_site_type_symbol
_atom_site_label
_atom_site_fract_x
_atom_site_fract_y
_atom_site_fract_z
Si Si1 0.397062 0.464538 0.854978
Si Si2 0.899018 0.248181 0.371775
Si Si3 0.695710 0.393592 0.354235
Si Si4 0.259850 0.139420 0.154339
Si Si5 0.607746 0.750350 0.922681
Si Si6 0.601584 0.914463 0.152023
O O1 0.395812 0.456568 0.750000
O O2 0.500000 0.442249 0.886509
O O3 0.380956 0.546863 0.873871
O O4 0.307197 0.420174 0.886797
O O5 0.813968 0.203512 0.337613
O O6 0.891893 0.247611 0.474630
O O7 0.898607 0.329129 0.343766
O O8 0.000000 0.217455 0.346832
O O9 0.703144 0.387538 0.250000
O O10 0.666467 0.317355 0.389800
O O11 0.795504 0.425130 0.387089
O O12 0.290320 0.116431 0.250000
O O13 0.345559 0.175445 0.104975
O O14 0.500000 0.745405 0.891825
O O15 0.602563 0.942548 0.250000
O O16 0.500000 0.935236 0.112736
#
# Coordination Sequence:
#
# PCOD9471078 Si02
#       6
#    16  16  16  16  16  16
#     4   9  19  35  55  80 110 143 180 225 276 325
#     4  10  20  34  54  80 111 142 178 227 279 325
#     4  10  19  34  56  81 110 146 183 222 272 328
#     4  11  21  35  56  82 109 142 184 229 275 321
#     4  11  23  36  54  81 113 149 184 222 273 330
#     4   9  17  30  52  82 108 135 180 231 274 318
#
# _framework density 22.920859
#
# number of rings (size 3 to 8) (size 9 to 14) (size 15 to 20)
#    0.000    2.000    1.667    2.500    0.000    3.667 
#    0.000    1.667    0.000    6.000    0.000    3.500 
#    0.000    0.000    0.000    0.000    0.000    0.000 
#
# Total GULP energy -267876.356601 kJ/mol
# GULP energy per Si atom -5580.757429 kJ/mol
# Density = 2.286869 g / cm^3
# Si number density = 22.920859 Si / 1000 Ang^3
#
#
#
# Elastic Constant Matrix: (Units=GPa)
#
#
# Indices 1 2 3 4 5 6 
#
# 1 146.7583 29.6623 23.5501 0.0000 0.0000 0.0000
# 2 29.6623 76.9924 10.6855 0.0000 0.0000 0.0000
# 3 23.5501 10.6855 53.7378 0.0000 0.0000 0.0000
# 4 0.0000 0.0000 0.0000 41.8822 0.0000 0.0000
# 5 0.0000 0.0000 0.0000 0.0000 12.7747 0.0000
# 6 0.0000 0.0000 0.0000 0.0000 0.0000 26.5159
#
#
#
# Elastic Compliance Matrix: (Units=1/GPa)
#
#
# Indices 1 2 3 4 5 6 
#
# 1 0.007806 -0.002605 -0.002903 0.000000 0.000000 0.000000
# 2 -0.002605 0.014226 -0.001687 0.000000 0.000000 0.000000
# 3 -0.002903 -0.001687 0.020217 0.000000 0.000000 0.000000
# 4 0.000000 0.000000 0.000000 0.023876 0.000000 0.000000
# 5 0.000000 0.000000 0.000000 0.000000 0.078280 0.000000
# 6 0.000000 0.000000 0.000000 0.000000 0.000000 0.037713
#
#
# Mechanical properties :
#
#
# Convention : Reuss Voigt Hill
#
# Bulk Modulus (GPa) = 35.89527 45.03159 40.46343
# Shear Modulus (GPa) = 24.29609 30.47394 27.38502
#
# Velocity S-wave (km/s) = 3.25929 3.65023 3.46029
# Velocity P-wave (km/s) = 5.46430 6.12003 5.80143
#
# Compressibility (1/GPa) = 0.02785882
#
# Stress axis : x y z
#
# Youngs Moduli (GPa) = 128.10334 70.29431 49.46424
#
# Poissons Ratio (x) = 0.18308 0.14360
# Poissons Ratio (y) = 0.33365 0.08346
# Poissons Ratio (z) = 0.37190 0.11861
#
# Static dielectric constant tensor:
#      x y z
#    x 1.921600 0.000000 0.000000 
#    y 0.000000 1.831400 0.000000 
#    z 0.000000 0.000000 1.854720 
# 
# From -- ./inp_files/31940.got.cif
#   From: 2010.05.17/outbox.cif.g08.bks.cpg/sg63_16_cif.got.tgz:31940.got - 2010.06.03 15:47:04.
