data_PCOD9471869
_publ_section_title
;
Structure prediction by ZEFSAII (Michael W. Deem and Ramdas Pophale) SiO2 
 PCOD9471869
Probable space group: C M C M
;
_chemical_formula_sum "Si O2"
_cell_formula_units_Z 96
_cell_length_a 19.200567
_cell_length_b 33.560934
_cell_length_c 8.799790
_cell_angle_alpha 90.000000
_cell_angle_beta 90.000000
_cell_angle_gamma 90.000000
_cell_volume 5670.487543
_symmetry_space_group_name_H-M "C M C M"
_symmetry_group_IT_number 63
_symmetry_cell_setting 'orthorhombic'
loop_
_space_group_symop_operation_xyz
x,y,z
-x,-y,1/2+z
x,-y,-z
-x,y,1/2-z
-x,-y,-z
x,y,1/2-z
-x,y,z
x,-y,1/2+z
1/2+x,1/2+y,z
1/2-x,1/2-y,1/2+z
1/2+x,1/2-y,-z
1/2-x,1/2+y,1/2-z
1/2-x,1/2-y,-z
1/2+x,1/2+y,1/2-z
1/2-x,1/2+y,z
1/2+x,1/2-y,1/2+z
loop_
_atom_site_type_symbol
_atom_site_label
_atom_site_fract_x
_atom_site_fract_y
_atom_site_fract_z
Si Si1 0.579477 0.328244 0.566862
Si Si2 0.578763 0.089447 0.066705
Si Si3 0.786566 0.123942 0.066462
Si Si4 0.715648 0.957235 0.567648
Si Si5 0.081875 0.741677 0.431179
Si Si6 0.152903 0.334690 0.431108
O O1 0.581076 0.324044 0.750000
O O2 0.500000 0.338376 0.522751
O O3 0.637022 0.360814 0.524027
O O4 0.597463 0.285641 0.494077
O O5 0.582422 0.094030 0.250000
O O6 0.500000 0.078235 0.025769
O O7 0.638032 0.057690 0.022529
O O8 0.600353 0.131391 0.993268
O O9 0.779711 0.126041 0.250000
O O10 0.766980 0.078807 0.021464
O O11 0.728094 0.152457 0.995026
O O12 0.717190 0.959999 0.750000
O O13 0.732058 0.000000 0.500000
O O14 0.090860 0.740715 0.250000
O O15 0.128214 0.707819 0.507487
O O16 0.000000 0.733776 0.464863
O O17 0.153385 0.335002 0.250000
#
# Coordination Sequence:
#
# PCOD9471869 Si02
#       6
#    16  16  16  16  16  16
#     4   9  18  34  56  78  96 119 158 205 246 287
#     4   9  18  33  50  68  96 134 170 204 246 290
#     4   9  19  36  54  72  98 129 158 194 246 300
#     4   9  18  32  50  72  97 127 161 196 238 289
#     4  10  20  33  49  70 100 137 169 199 242 290
#     4  11  21  31  47  72 100 132 172 211 239 272
#
# _framework density 16.929760999999999
#
# number of rings (size 3 to 8) (size 9 to 14) (size 15 to 20)
#    0.000    2.500    0.000    3.500    0.000    7.667 
#    0.000    0.000    0.000    0.500    0.000    0.000 
#    0.000    0.000    0.000    0.000    0.000    0.333 
#
# Total GULP energy -267759.768567 kJ/mol
# GULP energy per Si atom -5578.328512 kJ/mol
# Density = 1.689123 g / cm^3
# Si number density = 16.929761 Si / 1000 Ang^3
#
#
#
# Elastic Constant Matrix: (Units=GPa)
#
#
# Indices 1 2 3 4 5 6 
#
# 1 99.7423 98.6260 32.7471 0.0000 0.0000 0.0000
# 2 98.6260 137.9211 37.4919 0.0000 0.0000 0.0000
# 3 32.7471 37.4919 22.8605 0.0000 0.0000 0.0000
# 4 0.0000 0.0000 0.0000 29.6852 0.0000 0.0000
# 5 0.0000 0.0000 0.0000 0.0000 12.6216 0.0000
# 6 0.0000 0.0000 0.0000 0.0000 0.0000 8.3021
#
#
#
# Elastic Compliance Matrix: (Units=1/GPa)
#
#
# Indices 1 2 3 4 5 6 
#
# 1 0.037831 -0.022233 -0.017728 0.000000 0.000000 0.000000
# 2 -0.022233 0.026150 -0.011038 0.000000 0.000000 0.000000
# 3 -0.017728 -0.011038 0.087242 0.000000 0.000000 0.000000
# 4 0.000000 0.000000 0.000000 0.033687 0.000000 0.000000
# 5 0.000000 0.000000 0.000000 0.000000 0.079229 0.000000
# 6 0.000000 0.000000 0.000000 0.000000 0.000000 0.120451
#
#
# Mechanical properties :
#
#
# Convention : Reuss Voigt Hill
#
# Bulk Modulus (GPa) = 20.31565 66.47266 43.39415
# Shear Modulus (GPa) = 9.94042 16.23236 13.08639
#
# Velocity S-wave (km/s) = 2.42576 3.09982 2.78327
# Velocity P-wave (km/s) = 4.45778 7.22225 6.00136
#
# Compressibility (1/GPa) = 0.04922314
#
# Stress axis : x y z
#
# Youngs Moduli (GPa) = 26.43353 38.24121 11.46236
#
# Poissons Ratio (x) = 0.85022 0.20321
# Poissons Ratio (y) = 0.58770 0.12652
# Poissons Ratio (z) = 0.46863 0.42211
#
# Static dielectric constant tensor:
#      x y z
#    x 1.581090 0.000000 0.000000 
#    y 0.000000 1.544000 0.000000 
#    z 0.000000 0.000000 1.565600 
# 
# From -- ./inp_files/8541.got.cif
#   From: 2010.05.17/outbox.cif.g08.bks.cpg/sg63_5_cif.got.tgz:8541.got - 2010.06.03 15:47:04.
