data_PCOD9471675
_publ_section_title
;
Structure prediction by ZEFSAII (Michael W. Deem and Ramdas Pophale) SiO2 
 PCOD9471675
Probable space group: C M C M
;
_chemical_formula_sum "Si O2"
_cell_formula_units_Z 104
_cell_length_a 20.932228
_cell_length_b 31.558540
_cell_length_c 9.144161
_cell_angle_alpha 90.000000
_cell_angle_beta 90.000000
_cell_angle_gamma 90.000000
_cell_volume 6040.546387
_symmetry_space_group_name_H-M "C M C M"
_symmetry_group_IT_number 63
_symmetry_cell_setting 'orthorhombic'
loop_
_space_group_symop_operation_xyz
x,y,z
-x,-y,1/2+z
x,-y,-z
-x,y,1/2-z
-x,-y,-z
x,y,1/2-z
-x,y,z
x,-y,1/2+z
1/2+x,1/2+y,z
1/2-x,1/2-y,1/2+z
1/2+x,1/2-y,-z
1/2-x,1/2+y,1/2-z
1/2-x,1/2-y,-z
1/2+x,1/2+y,1/2-z
1/2-x,1/2+y,z
1/2+x,1/2-y,1/2+z
loop_
_atom_site_type_symbol
_atom_site_label
_atom_site_fract_x
_atom_site_fract_y
_atom_site_fract_z
Si Si1 0.572761 0.824646 0.076920
Si Si2 0.805934 0.636862 0.075243
Si Si3 0.137988 0.925758 0.418666
Si Si4 0.683471 0.671099 0.918665
Si Si5 0.000000 0.954727 0.074399
Si Si6 0.072611 0.776732 0.576010
Si Si7 0.759774 0.457408 0.576084
O O1 0.582603 0.832651 0.250000
O O2 0.500000 0.837099 0.039820
O O3 0.577517 0.773916 0.055671
O O4 0.626238 0.848050 0.984399
O O5 0.801752 0.640374 0.250000
O O6 0.793668 0.587273 0.036455
O O7 0.750464 0.665880 0.003304
O O8 0.145340 0.940688 0.250000
O O9 0.155286 0.876434 0.420917
O O10 0.065290 0.931567 0.466416
O O11 0.187392 0.950393 0.520292
O O12 0.694435 0.683653 0.750000
O O13 0.630291 0.700573 0.992909
O O14 0.000000 0.958830 0.250000
O O15 0.000000 0.000000 0.000000
O O16 0.077654 0.785232 0.750000
O O17 0.000000 0.789450 0.529817
O O18 0.785274 0.500000 0.500000
O O19 0.761839 0.462253 0.750000
#
# Coordination Sequence:
#
# PCOD9471675 Si02
#       7
#    16  16  16  16   8  16  16
#     4   9  19  37  59  81 106 137 172 210 258 315
#     4  10  21  36  55  80 109 137 171 215 261 311
#     4   9  19  33  48  67  96 132 170 216 262 303
#     4  10  20  33  52  76 103 138 180 222 264 307
#     4  10  20  32  44  62  90 124 166 214 260 304
#     4   9  19  35  53  75 106 142 178 219 264 310
#     4  10  20  34  53  76 102 131 167 209 254 306
#
# _framework density 17.216985000000001
#
# number of rings (size 3 to 8) (size 9 to 14) (size 15 to 20)
#    0.000    2.462    0.000    2.769    1.077    6.154 
#    0.000    1.538    0.000    0.462    0.000    0.000 
#    0.000    0.000    0.000    0.000    0.000    0.000 
#
# Total GULP energy -290019.210995 kJ/mol
# GULP energy per Si atom -5577.292519 kJ/mol
# Density = 1.717780 g / cm^3
# Si number density = 17.216985 Si / 1000 Ang^3
#
#
#
# Elastic Constant Matrix: (Units=GPa)
#
#
# Indices 1 2 3 4 5 6 
#
# 1 132.2770 53.2498 64.1886 0.0000 0.0000 0.0000
# 2 53.2498 49.5412 45.2833 0.0000 0.0000 0.0000
# 3 64.1886 45.2833 68.6764 0.0000 0.0000 0.0000
# 4 0.0000 0.0000 0.0000 29.0445 0.0000 0.0000
# 5 0.0000 0.0000 0.0000 0.0000 32.0181 0.0000
# 6 0.0000 0.0000 0.0000 0.0000 0.0000 11.0850
#
#
#
# Elastic Compliance Matrix: (Units=1/GPa)
#
#
# Indices 1 2 3 4 5 6 
#
# 1 0.015102 -0.008383 -0.008587 0.000000 0.000000 0.000000
# 2 -0.008383 0.055459 -0.028733 0.000000 0.000000 0.000000
# 3 -0.008587 -0.028733 0.041533 0.000000 0.000000 0.000000
# 4 0.000000 0.000000 0.000000 0.034430 0.000000 0.000000
# 5 0.000000 0.000000 0.000000 0.000000 0.031232 0.000000
# 6 0.000000 0.000000 0.000000 0.000000 0.000000 0.090212
#
#
# Mechanical properties :
#
#
# Convention : Reuss Voigt Hill
#
# Bulk Modulus (GPa) = 48.33918 63.99311 56.16614
# Shear Modulus (GPa) = 13.65110 20.28104 16.96607
#
# Velocity S-wave (km/s) = 2.81888 3.43588 3.14256
# Velocity P-wave (km/s) = 6.22352 7.27940 6.77207
#
# Compressibility (1/GPa) = 0.02068715
#
# Stress axis : x y z
#
# Youngs Moduli (GPa) = 66.21818 18.03128 24.07710
#
# Poissons Ratio (x) = 0.15115 0.20676
# Poissons Ratio (y) = 0.55509 0.69181
# Poissons Ratio (z) = 0.56864 0.51810
#
# Static dielectric constant tensor:
#      x y z
#    x 1.562140 0.000000 0.000000 
#    y 0.000000 1.578100 0.000000 
#    z 0.000000 0.000000 1.584570 
# 
# From -- ./inp_files/9107.got.cif
#   From: 2010.05.17/outbox.cif.g08.bks.cpg/sg63_5_cif.got.tgz:9107.got - 2010.06.03 15:47:04.
