data_PCOD9471922
_publ_section_title
;
Structure prediction by ZEFSAII (Michael W. Deem and Ramdas Pophale) SiO2 
 PCOD9471922
Probable space group: C M C M
;
_chemical_formula_sum "Si O2"
_cell_formula_units_Z 112
_cell_length_a 12.935178
_cell_length_b 14.811273
_cell_length_c 29.636352
_cell_angle_alpha 90.000000
_cell_angle_beta 90.000000
_cell_angle_gamma 90.000000
_cell_volume 5677.923550
_symmetry_space_group_name_H-M "C M C M"
_symmetry_group_IT_number 63
_symmetry_cell_setting 'orthorhombic'
loop_
_space_group_symop_operation_xyz
x,y,z
-x,-y,1/2+z
x,-y,-z
-x,y,1/2-z
-x,-y,-z
x,y,1/2-z
-x,y,z
x,-y,1/2+z
1/2+x,1/2+y,z
1/2-x,1/2-y,1/2+z
1/2+x,1/2-y,-z
1/2-x,1/2+y,1/2-z
1/2-x,1/2-y,-z
1/2+x,1/2+y,1/2-z
1/2-x,1/2+y,z
1/2+x,1/2-y,1/2+z
loop_
_atom_site_type_symbol
_atom_site_label
_atom_site_fract_x
_atom_site_fract_y
_atom_site_fract_z
Si Si1 0.781012 0.741813 0.146209
Si Si2 0.311563 0.444227 0.140211
Si Si3 0.690582 0.759337 0.047672
Si Si4 0.376970 0.069982 0.109642
Si Si5 0.110437 0.603421 0.489703
Si Si6 0.500000 0.635976 0.027183
Si Si7 0.500000 0.561542 0.930099
Si Si8 0.120325 0.882575 0.696738
O O1 0.745431 0.759291 0.094863
O O2 0.863705 0.659550 0.141097
O O3 0.689689 0.694926 0.174180
O O4 0.805369 0.843839 0.162026
O O5 0.201412 0.489905 0.124880
O O6 0.396160 0.432415 0.099949
O O7 0.355457 0.521478 0.173363
O O8 0.600179 0.686743 0.045481
O O9 0.750000 0.750000 0.000000
O O10 0.647978 0.858035 0.036952
O O11 0.500000 0.045979 0.107043
O O12 0.338267 0.102922 0.059623
O O13 0.100453 0.500000 0.500000
O O14 0.000000 0.650224 0.481641
O O15 0.500000 0.536386 0.047154
O O16 0.500000 0.630011 0.972568
O O17 0.140992 0.887735 0.750000
O O18 0.000000 0.862069 0.689462
#
# Coordination Sequence:
#
# PCOD9471922 Si02
#       8
#    16  16  16  16  16   8   8  16
#     4  11  24  38  66  95 128 169 219 273 323 398
#     4  11  23  42  66  97 127 168 217 277 324 402
#     4  12  22  36  55  85 124 170 216 257 316 374
#     4  10  22  39  58  84 127 172 212 264 323 379
#     4  10  20  33  50  73 111 160 210 255 302 363
#     4  11  24  38  55  84 128 177 218 279 309 375
#     4  11  24  38  61  92 126 169 226 267 331 371
#     4  10  23  45  71  98 130 168 212 277 348 407
#
# _framework density 19.725521000000001
#
# number of rings (size 3 to 8) (size 9 to 14) (size 15 to 20)
#    0.000    1.286    2.857    3.429    2.000    1.143 
#    0.000    0.000    0.000    6.857    0.000    0.000 
#    0.000    0.000    0.000    0.000    0.000    0.000 
#
# Total GULP energy -311902.695547 kJ/mol
# GULP energy per Si atom -5569.690992 kJ/mol
# Density = 1.968063 g / cm^3
# Si number density = 19.725521 Si / 1000 Ang^3
#
#
#
# Elastic Constant Matrix: (Units=GPa)
#
#
# Indices 1 2 3 4 5 6 
#
# 1 76.8436 19.6848 19.5835 0.0000 0.0000 0.0000
# 2 19.6848 118.3267 13.1169 0.0000 0.0000 0.0000
# 3 19.5835 13.1169 51.5438 0.0000 0.0000 0.0000
# 4 0.0000 0.0000 0.0000 18.3487 0.0000 0.0000
# 5 0.0000 0.0000 0.0000 0.0000 14.3335 0.0000
# 6 0.0000 0.0000 0.0000 0.0000 0.0000 21.2481
#
#
#
# Elastic Compliance Matrix: (Units=1/GPa)
#
#
# Indices 1 2 3 4 5 6 
#
# 1 0.014810 -0.001893 -0.005145 0.000000 0.000000 0.000000
# 2 -0.001893 0.008939 -0.001555 0.000000 0.000000 0.000000
# 3 -0.005145 -0.001555 0.021752 0.000000 0.000000 0.000000
# 4 0.000000 0.000000 0.000000 0.054500 0.000000 0.000000
# 5 0.000000 0.000000 0.000000 0.000000 0.069766 0.000000
# 6 0.000000 0.000000 0.000000 0.000000 0.000000 0.047063
#
#
# Mechanical properties :
#
#
# Convention : Reuss Voigt Hill
#
# Bulk Modulus (GPa) = 35.32014 39.05384 37.18699
# Shear Modulus (GPa) = 20.53779 23.74133 22.13956
#
# Velocity S-wave (km/s) = 3.23023 3.47304 3.35383
# Velocity P-wave (km/s) = 5.64422 5.99368 5.82157
#
# Compressibility (1/GPa) = 0.02831246
#
# Stress axis : x y z
#
# Youngs Moduli (GPa) = 67.52351 111.87465 45.97382
#
# Poissons Ratio (x) = 0.21182 0.23653
# Poissons Ratio (y) = 0.12785 0.07150
# Poissons Ratio (z) = 0.34740 0.17400
#
# Static dielectric constant tensor:
#      x y z
#    x 1.824660 0.000000 0.000000 
#    y 0.000000 1.682240 0.000000 
#    z 0.000000 0.000000 1.074500 
# 
# From -- ./inp_files/69455.got.cif
#   From: 2010.05.17/outbox.cif.g08.bks.cpg/sg63_35_cif.got.tgz:69455.got - 2010.06.03 15:47:04.
