data_PCOD9471131
_publ_section_title
;
Structure prediction by ZEFSAII (Michael W. Deem and Ramdas Pophale) SiO2 
 PCOD9471131
Probable space group: C M C M
;
_chemical_formula_sum "Si O2"
_cell_formula_units_Z 88
_cell_length_a 17.215685
_cell_length_b 14.984757
_cell_length_c 18.936230
_cell_angle_alpha 90.000000
_cell_angle_beta 90.000000
_cell_angle_gamma 90.000000
_cell_volume 4885.033341
_symmetry_space_group_name_H-M "C M C M"
_symmetry_group_IT_number 63
_symmetry_cell_setting 'orthorhombic'
loop_
_space_group_symop_operation_xyz
x,y,z
-x,-y,1/2+z
x,-y,-z
-x,y,1/2-z
-x,-y,-z
x,y,1/2-z
-x,y,z
x,-y,1/2+z
1/2+x,1/2+y,z
1/2-x,1/2-y,1/2+z
1/2+x,1/2-y,-z
1/2-x,1/2+y,1/2-z
1/2-x,1/2-y,-z
1/2+x,1/2+y,1/2-z
1/2-x,1/2+y,z
1/2+x,1/2-y,1/2+z
loop_
_atom_site_type_symbol
_atom_site_label
_atom_site_fract_x
_atom_site_fract_y
_atom_site_fract_z
Si Si1 0.693202 0.072181 0.750000
Si Si2 0.407411 0.686341 0.883222
Si Si3 0.090453 0.691272 0.670528
Si Si4 0.091200 0.972856 0.871411
Si Si5 0.689716 0.732991 0.750000
Si Si6 0.204878 0.905238 0.750000
Si Si7 0.093230 0.810641 0.960873
O O1 0.641341 0.103068 0.683170
O O2 0.766683 0.137913 0.750000
O O3 0.722511 0.973180 0.750000
O O4 0.500000 0.703323 0.877791
O O5 0.397831 0.578736 0.877085
O O6 0.362504 0.733987 0.820081
O O7 0.377699 0.712599 0.961285
O O8 0.093173 0.734809 0.750000
O O9 0.119566 0.751204 0.605877
O O10 0.000000 0.670580 0.658585
O O11 0.150255 0.930754 0.815692
O O12 0.104761 0.914516 0.941722
O O13 0.000000 0.957744 0.851334
O O14 0.754928 0.809043 0.750000
O O15 0.000000 0.798963 0.963859
#
# Coordination Sequence:
#
# PCOD9471131 Si02
#       7
#     8  16  16  16   8   8  16
#     4  10  19  36  53  78 112 146 188 228 275 328
#     4  10  20  37  57  81 113 149 184 227 278 334
#     4   8  16  32  55  80 105 138 182 232 276 316
#     4  10  19  34  57  85 111 142 185 230 282 334
#     4  12  23  37  54  78 113 153 186 225 278 331
#     4  12  23  35  56  82 113 153 186 231 274 329
#     4   9  17  30  57  89 110 135 182 235 281 328
#
# _framework density 18.014206999999999
#
# number of rings (size 3 to 8) (size 9 to 14) (size 15 to 20)
#    0.545    1.636    1.818    2.182    1.273    3.636 
#    0.000    5.455    0.000    0.000    0.000    3.818 
#    0.000    0.000    0.000    0.000    0.000    0.000 
#
# Total GULP energy -245026.192678 kJ/mol
# GULP energy per Si atom -5568.777106 kJ/mol
# Density = 1.797321 g / cm^3
# Si number density = 18.014207 Si / 1000 Ang^3
#
#
#
# Elastic Constant Matrix: (Units=GPa)
#
#
# Indices 1 2 3 4 5 6 
#
# 1 56.4033 16.3650 36.8927 0.0000 0.0000 0.0000
# 2 16.3650 34.8867 17.7148 0.0000 0.0000 0.0000
# 3 36.8927 17.7148 127.1900 0.0000 0.0000 0.0000
# 4 0.0000 0.0000 0.0000 12.4536 0.0000 0.0000
# 5 0.0000 0.0000 0.0000 0.0000 -2.0245 0.0000
# 6 0.0000 0.0000 0.0000 0.0000 0.0000 32.6591
#
#
#
# Elastic Compliance Matrix: (Units=1/GPa)
#
#
# Indices 1 2 3 4 5 6 
#
# 1 0.023915 -0.008282 -0.005783 0.000000 0.000000 0.000000
# 2 -0.008282 0.033714 -0.002293 0.000000 0.000000 0.000000
# 3 -0.005783 -0.002293 0.009859 0.000000 0.000000 0.000000
# 4 0.000000 0.000000 0.000000 0.080298 0.000000 0.000000
# 5 0.000000 0.000000 0.000000 0.000000 -0.493954 0.000000
# 6 0.000000 0.000000 0.000000 0.000000 0.000000 0.030619
#
#
# Mechanical properties :
#
#
# Convention : Reuss Voigt Hill
#
# Bulk Modulus (GPa) = 28.75951 40.04721 34.40336
# Shear Modulus (GPa) = -18.43371 18.45150 0.00890
#
# Velocity S-wave (km/s) = -3.20236 3.20390 0.07035
# Velocity P-wave (km/s) = 1.52516 5.99715 4.37561
#
# Compressibility (1/GPa) = 0.03477111
#
# Stress axis : x y z
#
# Youngs Moduli (GPa) = 41.81455 29.66162 101.42823
#
# Poissons Ratio (x) = 0.24565 0.58660
# Poissons Ratio (y) = 0.34629 0.23261
# Poissons Ratio (z) = 0.24183 0.06803
#
# Static dielectric constant tensor:
#      x y z
#    x 1.621850 0.000000 0.000000 
#    y 0.000000 1.616470 0.000000 
#    z 0.000000 0.000000 1.665090 
# 
# From -- ./inp_files/45595.got.cif
#   From: 2010.05.17/outbox.cif.g08.bks.cpg/sg63_23_cif.got.tgz:45595.got - 2010.06.03 15:47:04.
