data_PCOD9471290
_publ_section_title
;
Structure prediction by ZEFSAII (Michael W. Deem and Ramdas Pophale) SiO2 
 PCOD9471290
Probable space group: C M C M
;
_chemical_formula_sum "Si O2"
_cell_formula_units_Z 96
_cell_length_a 8.570544
_cell_length_b 25.826858
_cell_length_c 24.315296
_cell_angle_alpha 90.000000
_cell_angle_beta 90.000000
_cell_angle_gamma 90.000000
_cell_volume 5382.196189
_symmetry_space_group_name_H-M "C M C M"
_symmetry_group_IT_number 63
_symmetry_cell_setting 'orthorhombic'
loop_
_space_group_symop_operation_xyz
x,y,z
-x,-y,1/2+z
x,-y,-z
-x,y,1/2-z
-x,-y,-z
x,y,1/2-z
-x,y,z
x,-y,1/2+z
1/2+x,1/2+y,z
1/2-x,1/2-y,1/2+z
1/2+x,1/2-y,-z
1/2-x,1/2+y,1/2-z
1/2-x,1/2-y,-z
1/2+x,1/2+y,1/2-z
1/2-x,1/2+y,z
1/2+x,1/2-y,1/2+z
loop_
_atom_site_type_symbol
_atom_site_label
_atom_site_fract_x
_atom_site_fract_y
_atom_site_fract_z
Si Si1 0.187068 0.101827 0.635647
Si Si2 0.311502 0.312004 0.555799
Si Si3 0.309891 0.495712 0.062769
Si Si4 0.312891 0.940482 0.250000
Si Si5 0.311377 0.404820 0.634193
Si Si6 0.313369 0.807273 0.435452
Si Si7 0.186531 0.561003 0.250000
O O1 0.239288 0.056584 0.593411
O O2 0.252224 0.087490 0.695308
O O3 0.244034 0.156006 0.611128
O O4 0.000000 0.101264 0.637851
O O5 0.500000 0.313755 0.551775
O O6 0.262531 0.353315 0.601573
O O7 0.265419 0.253042 0.569821
O O8 0.244817 0.324978 0.495675
O O9 0.500000 0.495539 0.061569
O O10 0.262009 0.545292 0.098439
O O11 0.255621 0.500000 0.000000
O O12 0.500000 0.940228 0.250000
O O13 0.259116 0.000730 0.250000
O O14 0.500000 0.404957 0.636892
O O15 0.246645 0.411379 0.695136
O O16 0.500000 0.809669 0.433665
O O17 0.000000 0.560643 0.250000
#
# Coordination Sequence:
#
# PCOD9471290 Si02
#       7
#    16  16  16   8  16  16   8
#     4  11  21  35  57  82 109 144 190 229 269 329
#     4   9  19  36  59  84 110 147 190 228 270 327
#     4   9  17  29  50  80 108 133 170 223 271 315
#     4  11  23  39  56  77 112 149 182 226 281 334
#     4  10  19  35  58  80 106 142 189 230 265 319
#     4  10  20  35  56  84 117 149 181 225 282 330
#     4  11  23  37  54  79 114 147 178 222 283 338
#
# _framework density 17.836584999999999
#
# number of rings (size 3 to 8) (size 9 to 14) (size 15 to 20)
#    0.000    2.000    1.667    2.500    0.000    4.667 
#    0.000    0.833    0.000    4.500    0.000    0.000 
#    0.000    0.000    0.000    0.000    0.000    0.000 
#
# Total GULP energy -268028.075013 kJ/mol
# GULP energy per Si atom -5583.918229 kJ/mol
# Density = 1.779599 g / cm^3
# Si number density = 17.836585 Si / 1000 Ang^3
#
#
#
# Elastic Constant Matrix: (Units=GPa)
#
#
# Indices 1 2 3 4 5 6 
#
# 1 23.8169 23.6172 25.6713 0.0000 0.0000 0.0000
# 2 23.6172 86.8764 56.7053 0.0000 0.0000 0.0000
# 3 25.6713 56.7053 132.3567 0.0000 0.0000 0.0000
# 4 0.0000 0.0000 0.0000 26.5131 0.0000 0.0000
# 5 0.0000 0.0000 0.0000 0.0000 24.5249 0.0000
# 6 0.0000 0.0000 0.0000 0.0000 0.0000 20.8077
#
#
#
# Elastic Compliance Matrix: (Units=1/GPa)
#
#
# Indices 1 2 3 4 5 6 
#
# 1 0.061374 -0.012375 -0.006602 0.000000 0.000000 0.000000
# 2 -0.012375 0.018474 -0.005515 0.000000 0.000000 0.000000
# 3 -0.006602 -0.005515 0.011198 0.000000 0.000000 0.000000
# 4 0.000000 0.000000 0.000000 0.037717 0.000000 0.000000
# 5 0.000000 0.000000 0.000000 0.000000 0.040775 0.000000
# 6 0.000000 0.000000 0.000000 0.000000 0.000000 0.048059
#
#
# Mechanical properties :
#
#
# Convention : Reuss Voigt Hill
#
# Bulk Modulus (GPa) = 23.77367 50.55971 37.16669
# Shear Modulus (GPa) = 17.81875 23.50623 20.66249
#
# Velocity S-wave (km/s) = 3.16412 3.63418 3.40727
# Velocity P-wave (km/s) = 5.16783 6.78361 6.03008
#
# Compressibility (1/GPa) = 0.04206334
#
# Stress axis : x y z
#
# Youngs Moduli (GPa) = 16.29342 54.12934 89.29810
#
# Poissons Ratio (x) = 0.66987 0.58954
# Poissons Ratio (y) = 0.20164 0.49245
# Poissons Ratio (z) = 0.10757 0.29850
#
# Static dielectric constant tensor:
#      x y z
#    x 1.605340 0.000000 0.000000 
#    y 0.000000 1.609030 0.000000 
#    z 0.000000 0.000000 1.572200 
# 
# From -- ./inp_files/60024.got.cif
#   From: 2010.05.17/outbox.cif.g08.bks.cpg/sg63_31_cif.got.tgz:60024.got - 2010.06.03 15:47:04.
