data_PCOD9471961
_publ_section_title
;
Structure prediction by ZEFSAII (Michael W. Deem and Ramdas Pophale) SiO2 
 PCOD9471961
Probable space group: C M C M
;
_chemical_formula_sum "Si O2"
_cell_formula_units_Z 72
_cell_length_a 24.857019
_cell_length_b 5.365197
_cell_length_c 27.425986
_cell_angle_alpha 90.000000
_cell_angle_beta 90.000000
_cell_angle_gamma 90.000000
_cell_volume 3657.606389
_symmetry_space_group_name_H-M "C M C M"
_symmetry_group_IT_number 63
_symmetry_cell_setting 'orthorhombic'
loop_
_space_group_symop_operation_xyz
x,y,z
-x,-y,1/2+z
x,-y,-z
-x,y,1/2-z
-x,-y,-z
x,y,1/2-z
-x,y,z
x,-y,1/2+z
1/2+x,1/2+y,z
1/2-x,1/2-y,1/2+z
1/2+x,1/2-y,-z
1/2-x,1/2+y,1/2-z
1/2-x,1/2-y,-z
1/2+x,1/2+y,1/2-z
1/2-x,1/2+y,z
1/2+x,1/2-y,1/2+z
loop_
_atom_site_type_symbol
_atom_site_label
_atom_site_fract_x
_atom_site_fract_y
_atom_site_fract_z
Si Si1 0.565059 0.250212 0.136068
Si Si2 0.935202 0.240517 0.305496
Si Si3 0.391812 0.924619 0.056235
Si Si4 0.500000 0.254526 0.967467
Si Si5 0.772838 0.753652 0.556686
O O1 0.500000 0.258993 0.125754
O O2 0.575040 0.010812 0.171145
O O3 0.597847 0.170896 0.088039
O O4 0.582539 0.504628 0.162145
O O5 0.915001 0.225571 0.250000
O O6 0.000000 0.216981 0.303522
O O7 0.445590 0.760184 0.063491
O O8 0.336165 0.783186 0.062670
O O9 0.390013 0.000000 0.000000
O O10 0.500000 0.500000 0.000000
O O11 0.500000 0.000000 0.000000
O O12 0.750000 0.750000 0.500000
O O13 0.745502 0.511425 0.579014
#
# Coordination Sequence:
#
# PCOD9471961 Si02
#       5
#    16  16  16   8  16
#     4  10  20  33  50  81 109 143 186 220 268 337
#     4   9  18  34  54  74 106 144 180 225 274 326
#     4  11  22  38  55  78 119 153 190 224 276 328
#     4  10  24  34  50  74 103 154 187 210 264 324
#     4  10  21  37  55  73  97 148 194 237 266 305
#
# _framework density 19.685006999999999
#
# number of rings (size 3 to 8) (size 9 to 14) (size 15 to 20)
#    0.000    2.000    3.333    0.667    3.111    8.000 
#    0.000    0.000    0.000    0.000    0.000    0.000 
#    0.000   17.778    0.000    0.000    0.000    0.000 
#
# Total GULP energy -200946.979835 kJ/mol
# GULP energy per Si atom -5581.860551 kJ/mol
# Density = 1.964020 g / cm^3
# Si number density = 19.685007 Si / 1000 Ang^3
#
#
#
# Elastic Constant Matrix: (Units=GPa)
#
#
# Indices 1 2 3 4 5 6 
#
# 1 123.5732 27.5413 0.2327 0.0000 0.0000 0.0000
# 2 27.5413 126.2510 25.6580 0.0000 0.0000 0.0000
# 3 0.2327 25.6580 91.6025 0.0000 0.0000 0.0000
# 4 0.0000 0.0000 0.0000 22.8142 0.0000 0.0000
# 5 0.0000 0.0000 0.0000 0.0000 -6.1564 0.0000
# 6 0.0000 0.0000 0.0000 0.0000 0.0000 11.8437
#
#
#
# Elastic Compliance Matrix: (Units=1/GPa)
#
#
# Indices 1 2 3 4 5 6 
#
# 1 0.008530 -0.001968 0.000530 0.000000 0.000000 0.000000
# 2 -0.001968 0.008853 -0.002475 0.000000 0.000000 0.000000
# 3 0.000530 -0.002475 0.011609 0.000000 0.000000 0.000000
# 4 0.000000 0.000000 0.000000 0.043832 0.000000 0.000000
# 5 0.000000 0.000000 0.000000 0.000000 -0.162432 0.000000
# 6 0.000000 0.000000 0.000000 0.000000 0.000000 0.084433
#
#
# Mechanical properties :
#
#
# Convention : Reuss Voigt Hill
#
# Bulk Modulus (GPa) = 47.24850 49.81009 48.52929
# Shear Modulus (GPa) = 515.07945 24.89994 269.98969
#
# Velocity S-wave (km/s) = 16.19348 3.56043 11.72402
# Velocity P-wave (km/s) = 19.33114 6.50082 14.42140
#
# Compressibility (1/GPa) = 0.02116469
#
# Stress axis : x y z
#
# Youngs Moduli (GPa) = 117.23199 112.95491 86.14320
#
# Poissons Ratio (x) = 0.22235 -0.04563
# Poissons Ratio (y) = 0.23077 0.21318
# Poissons Ratio (z) = -0.06210 0.27954
#
# Static dielectric constant tensor:
#      x y z
#    x 1.722670 0.000000 0.000000 
#    y 0.000000 1.737080 0.000000 
#    z 0.000000 0.000000 1.738990 
# 
# From -- ./inp_files/74176.got.cif
#   From: 2010.05.17/outbox.cif.g08.bks.cpg/sg63_38_cif.got.tgz:74176.got - 2010.06.03 15:47:04.
