data_PCOD9471414
_publ_section_title
;
Structure prediction by ZEFSAII (Michael W. Deem and Ramdas Pophale) SiO2 
 PCOD9471414
Probable space group: C M C M
;
_chemical_formula_sum "Si O2"
_cell_formula_units_Z 68
_cell_length_a 7.237246
_cell_length_b 14.339146
_cell_length_c 24.157515
_cell_angle_alpha 90.000000
_cell_angle_beta 90.000000
_cell_angle_gamma 90.000000
_cell_volume 2506.968514
_symmetry_space_group_name_H-M "C M C M"
_symmetry_group_IT_number 63
_symmetry_cell_setting 'orthorhombic'
loop_
_space_group_symop_operation_xyz
x,y,z
-x,-y,1/2+z
x,-y,-z
-x,y,1/2-z
-x,-y,-z
x,y,1/2-z
-x,y,z
x,-y,1/2+z
1/2+x,1/2+y,z
1/2-x,1/2-y,1/2+z
1/2+x,1/2-y,-z
1/2-x,1/2+y,1/2-z
1/2-x,1/2-y,-z
1/2+x,1/2+y,1/2-z
1/2-x,1/2+y,z
1/2+x,1/2-y,1/2+z
loop_
_atom_site_type_symbol
_atom_site_label
_atom_site_fract_x
_atom_site_fract_y
_atom_site_fract_z
Si Si1 0.279946 0.375868 0.691739
Si Si2 0.000000 0.820724 0.250000
Si Si3 0.281899 0.673768 0.071237
Si Si4 0.218886 0.587587 0.833891
Si Si5 0.220555 0.380676 0.043702
O O1 0.197672 0.338702 0.750000
O O2 0.500000 0.357553 0.692758
O O3 0.206076 0.347443 0.631821
O O4 0.250754 0.486702 0.692316
O O5 0.161155 0.839878 0.299271
O O6 0.500000 0.684605 0.078134
O O7 0.209621 0.774261 0.052335
O O8 0.261043 0.600096 0.021036
O O9 0.279361 0.574470 0.898276
O O10 0.000000 0.611722 0.832377
O O11 0.000000 0.384774 0.045181
#
# Coordination Sequence:
#
# PCOD9471414 Si02
#       5
#    16   4  16  16  16
#     4  10  19  36  57  84 117 156 195 240 296 353
#     4  12  22  40  60  88 124 156 188 244 292 348
#     4   9  19  36  61  83 115 157 197 243 295 346
#     4  11  22  38  63  87 118 156 196 239 293 350
#     4   9  20  38  57  86 116 153 198 245 295 345
#
# _framework density 27.124393999999999
#
# number of rings (size 3 to 8) (size 9 to 14) (size 15 to 20)
#    0.000    2.118    2.353    0.353    1.647    1.882 
#    2.118    4.706    0.000    0.000    0.000    0.000 
#    0.000    0.000    0.000    0.000    0.000    0.000 
#
# Total GULP energy -189539.503921 kJ/mol
# GULP energy per Si atom -5574.691292 kJ/mol
# Density = 2.706266 g / cm^3
# Si number density = 27.124394 Si / 1000 Ang^3
#
#
#
# Elastic Constant Matrix: (Units=GPa)
#
#
# Indices 1 2 3 4 5 6 
#
# 1 170.0664 -37.4691 16.0415 0.0000 0.0000 0.0000
# 2 -37.4691 33.5099 41.3084 0.0000 0.0000 0.0000
# 3 16.0415 41.3084 338.9392 0.0000 0.0000 0.0000
# 4 0.0000 0.0000 0.0000 56.0633 0.0000 0.0000
# 5 0.0000 0.0000 0.0000 0.0000 31.0767 0.0000
# 6 0.0000 0.0000 0.0000 0.0000 0.0000 -35.8479
#
#
#
# Elastic Compliance Matrix: (Units=1/GPa)
#
#
# Indices 1 2 3 4 5 6 
#
# 1 0.008717 0.012068 -0.001883 0.000000 0.000000 0.000000
# 2 0.012068 0.051826 -0.006888 0.000000 0.000000 0.000000
# 3 -0.001883 -0.006888 0.003879 0.000000 0.000000 0.000000
# 4 0.000000 0.000000 0.000000 0.017837 0.000000 0.000000
# 5 0.000000 0.000000 0.000000 0.000000 0.032178 0.000000
# 6 0.000000 0.000000 0.000000 0.000000 0.000000 -0.027896
#
#
# Mechanical properties :
#
#
# Convention : Reuss Voigt Hill
#
# Bulk Modulus (GPa) = 14.08132 64.69746 39.38939
# Shear Modulus (GPa) = 48.25366 45.10074 46.67720
#
# Velocity S-wave (km/s) = 4.22237 4.08209 4.15282
# Velocity P-wave (km/s) = 5.38274 6.79131 6.12763
#
# Compressibility (1/GPa) = 0.07101605
#
# Stress axis : x y z
#
# Youngs Moduli (GPa) = 114.72440 19.29526 257.80250
#
# Poissons Ratio (x) = -0.23286 0.48553
# Poissons Ratio (y) = -1.38450 1.77562
# Poissons Ratio (z) = 0.21607 0.13290
#
# Static dielectric constant tensor:
#      x y z
#    x 2.062060 0.000000 0.000000 
#    y 0.000000 2.203470 0.000000 
#    z 0.000000 0.000000 2.203380 
# 
# From -- ./inp_files/40206.got.cif
#   From: 2010.05.17/outbox.cif.g08.bks.cpg/sg63_21_cif.got.tgz:40206.got - 2010.06.03 15:47:04.
