data_PCOD9471952
_publ_section_title
;
Structure prediction by ZEFSAII (Michael W. Deem and Ramdas Pophale) SiO2 
 PCOD9471952
Probable space group: C M C M
;
_chemical_formula_sum "Si O2"
_cell_formula_units_Z 120
_cell_length_a 14.664149
_cell_length_b 30.678006
_cell_length_c 14.175190
_cell_angle_alpha 90.000000
_cell_angle_beta 90.000000
_cell_angle_gamma 90.000000
_cell_volume 6376.948088
_symmetry_space_group_name_H-M "C M C M"
_symmetry_group_IT_number 63
_symmetry_cell_setting 'orthorhombic'
loop_
_space_group_symop_operation_xyz
x,y,z
-x,-y,1/2+z
x,-y,-z
-x,y,1/2-z
-x,-y,-z
x,y,1/2-z
-x,y,z
x,-y,1/2+z
1/2+x,1/2+y,z
1/2-x,1/2-y,1/2+z
1/2+x,1/2-y,-z
1/2-x,1/2+y,1/2-z
1/2-x,1/2-y,-z
1/2+x,1/2+y,1/2-z
1/2-x,1/2+y,z
1/2+x,1/2-y,1/2+z
loop_
_atom_site_type_symbol
_atom_site_label
_atom_site_fract_x
_atom_site_fract_y
_atom_site_fract_z
Si Si1 0.106569 0.929114 0.861397
Si Si2 0.794410 0.838307 0.638868
Si Si3 0.743761 0.430546 0.140795
Si Si4 0.105425 0.643414 0.645482
Si Si5 0.899761 0.312704 0.947003
Si Si6 0.840714 0.222137 0.982926
Si Si7 0.604580 0.643719 0.637501
Si Si8 0.810938 0.000000 0.500000
O O1 0.120579 0.940363 0.750000
O O2 0.168772 0.886780 0.882824
O O3 0.000000 0.917577 0.872480
O O4 0.131328 0.968810 0.930428
O O5 0.801881 0.831311 0.750000
O O6 0.688819 0.831222 0.607073
O O7 0.854900 0.803336 0.581000
O O8 0.738640 0.444898 0.250000
O O9 0.827060 0.396949 0.132397
O O10 0.653281 0.402136 0.118606
O O11 0.748258 0.469521 0.068063
O O12 0.124876 0.662521 0.750000
O O13 0.114469 0.675373 0.557247
O O14 0.000000 0.628945 0.645657
O O15 0.903382 0.260303 0.943058
O O16 0.000000 0.329955 0.917666
O O17 0.838939 0.182677 0.909216
O O18 0.750000 0.250000 0.000000
O O19 0.605186 0.649297 0.750000
O O20 0.500000 0.645016 0.603823
#
# Coordination Sequence:
#
# PCOD9471952 Si02
#       8
#    16  16  16  16  16  16  16   8
#     4  10  22  38  55  78 107 140 179 218 261 321
#     4  10  22  39  55  74 108 152 189 220 262 320
#     4  10  21  36  55  80 108 138 176 220 266 323
#     4   9  18  35  58  81 108 143 180 221 272 324
#     4  10  20  34  55  84 112 139 181 233 275 314
#     4  10  20  33  50  77 109 141 180 223 262 308
#     4  10  21  37  57  80 109 145 181 221 273 328
#     4  12  21  34  57  82 108 138 169 218 277 320
#
# _framework density 18.817778000000001
#
# number of rings (size 3 to 8) (size 9 to 14) (size 15 to 20)
#    0.000    2.000    0.000    4.200    0.000    6.133 
#    0.000    1.667    0.000    0.800    0.000    1.867 
#    0.000    0.000    0.000    0.000    0.000    0.000 
#
# Total GULP energy -334570.931756 kJ/mol
# GULP energy per Si atom -5576.182196 kJ/mol
# Density = 1.877495 g / cm^3
# Si number density = 18.817778 Si / 1000 Ang^3
#
#
#
# Elastic Constant Matrix: (Units=GPa)
#
#
# Indices 1 2 3 4 5 6 
#
# 1 44.4862 2.9318 -6.7017 0.0000 0.0000 0.0000
# 2 2.9318 81.3239 42.2239 0.0000 0.0000 0.0000
# 3 -6.7017 42.2239 75.7829 0.0000 0.0000 0.0000
# 4 0.0000 0.0000 0.0000 20.7884 0.0000 0.0000
# 5 0.0000 0.0000 0.0000 0.0000 21.0637 0.0000
# 6 0.0000 0.0000 0.0000 0.0000 0.0000 10.8317
#
#
#
# Elastic Compliance Matrix: (Units=1/GPa)
#
#
# Indices 1 2 3 4 5 6 
#
# 1 0.023188 -0.002674 0.003541 0.000000 0.000000 0.000000
# 2 -0.002674 0.017610 -0.010048 0.000000 0.000000 0.000000
# 3 0.003541 -0.010048 0.019107 0.000000 0.000000 0.000000
# 4 0.000000 0.000000 0.000000 0.048104 0.000000 0.000000
# 5 0.000000 0.000000 0.000000 0.000000 0.047475 0.000000
# 6 0.000000 0.000000 0.000000 0.000000 0.000000 0.092322
#
#
# Mechanical properties :
#
#
# Convention : Reuss Voigt Hill
#
# Bulk Modulus (GPa) = 24.07202 30.94456 27.50829
# Shear Modulus (GPa) = 17.85602 21.41269 19.63435
#
# Velocity S-wave (km/s) = 3.08375 3.37693 3.23367
# Velocity P-wave (km/s) = 5.04968 5.62894 5.34716
#
# Compressibility (1/GPa) = 0.04154201
#
# Stress axis : x y z
#
# Youngs Moduli (GPa) = 43.12484 56.78573 52.33602
#
# Poissons Ratio (x) = 0.15186 -0.18530
# Poissons Ratio (y) = 0.11533 0.52589
# Poissons Ratio (z) = -0.15269 0.57060
#
# Static dielectric constant tensor:
#      x y z
#    x 1.700280 0.000000 0.000000 
#    y 0.000000 1.633290 0.000000 
#    z 0.000000 0.000000 1.671820 
# 
# From -- ./inp_files/32848.got.cif
#   From: 2010.05.17/outbox.cif.g08.bks.cpg/sg63_17_cif.got.tgz:32848.got - 2010.06.03 15:47:04.
