data_PCOD9471742
_publ_section_title
;
Structure prediction by ZEFSAII (Michael W. Deem and Ramdas Pophale) SiO2 
 PCOD9471742
Probable space group: C M C M
;
_chemical_formula_sum "Si O2"
_cell_formula_units_Z 96
_cell_length_a 19.407808
_cell_length_b 25.428082
_cell_length_c 10.626177
_cell_angle_alpha 90.000000
_cell_angle_beta 90.000000
_cell_angle_gamma 90.000000
_cell_volume 5244.053769
_symmetry_space_group_name_H-M "C M C M"
_symmetry_group_IT_number 63
_symmetry_cell_setting 'orthorhombic'
loop_
_space_group_symop_operation_xyz
x,y,z
-x,-y,1/2+z
x,-y,-z
-x,y,1/2-z
-x,-y,-z
x,y,1/2-z
-x,y,z
x,-y,1/2+z
1/2+x,1/2+y,z
1/2-x,1/2-y,1/2+z
1/2+x,1/2-y,-z
1/2-x,1/2+y,1/2-z
1/2-x,1/2-y,-z
1/2+x,1/2+y,1/2-z
1/2-x,1/2+y,z
1/2+x,1/2-y,1/2+z
loop_
_atom_site_type_symbol
_atom_site_label
_atom_site_fract_x
_atom_site_fract_y
_atom_site_fract_z
Si Si1 0.921273 0.758052 0.982407
Si Si2 0.280050 0.281183 0.883677
Si Si3 0.826557 0.455617 0.898955
Si Si4 0.919313 0.130428 0.893843
Si Si5 0.420928 0.144036 0.399669
Si Si6 0.185655 0.900028 0.606695
O O1 0.914954 0.806517 0.080794
O O2 0.907332 0.700672 0.039292
O O3 0.000000 0.759181 0.935374
O O4 0.861600 0.769840 0.884290
O O5 0.248612 0.265454 0.750000
O O6 0.275047 0.343680 0.898894
O O7 0.250000 0.250000 0.000000
O O8 0.840053 0.467961 0.750000
O O9 0.869607 0.403049 0.931680
O O10 0.745243 0.442767 0.910210
O O11 0.844930 0.500000 0.000000
O O12 0.898428 0.119166 0.750000
O O13 0.000000 0.116402 0.909028
O O14 0.871851 0.102653 0.998568
O O15 0.416670 0.151502 0.250000
O O16 0.500000 0.129360 0.431015
O O17 0.157424 0.904131 0.750000
#
# Coordination Sequence:
#
# PCOD9471742 Si02
#       6
#    16  16  16  16  16  16
#     4   9  17  30  49  74 106 141 172 200 235 285
#     4  10  20  32  48  72 102 135 168 203 244 292
#     4  10  21  37  55  74  96 125 168 219 265 306
#     4   9  17  29  49  80 112 137 164 199 237 283
#     4   9  17  31  52  75 101 136 173 206 245 298
#     4   9  19  34  50  70  98 133 169 203 245 301
#
# _framework density 18.306449000000001
#
# number of rings (size 3 to 8) (size 9 to 14) (size 15 to 20)
#    0.000    2.667    0.000    1.500    0.000    8.333 
#    0.000    5.833    0.000    1.500    0.000    0.000 
#    0.000    0.000    0.000    0.000    0.000    0.000 
#
# Total GULP energy -267483.138679 kJ/mol
# GULP energy per Si atom -5572.565389 kJ/mol
# Density = 1.826478 g / cm^3
# Si number density = 18.306449 Si / 1000 Ang^3
#
#
#
# Elastic Constant Matrix: (Units=GPa)
#
#
# Indices 1 2 3 4 5 6 
#
# 1 56.9974 22.5265 33.5811 0.0000 0.0000 0.0000
# 2 22.5265 33.9376 6.3726 0.0000 0.0000 0.0000
# 3 33.5811 6.3726 83.4281 0.0000 0.0000 0.0000
# 4 0.0000 0.0000 0.0000 1.3596 0.0000 0.0000
# 5 0.0000 0.0000 0.0000 0.0000 19.7429 0.0000
# 6 0.0000 0.0000 0.0000 0.0000 0.0000 20.9235
#
#
#
# Elastic Compliance Matrix: (Units=1/GPa)
#
#
# Indices 1 2 3 4 5 6 
#
# 1 0.031677 -0.018903 -0.011307 0.000000 0.000000 0.000000
# 2 -0.018903 0.041175 0.004464 0.000000 0.000000 0.000000
# 3 -0.011307 0.004464 0.016196 0.000000 0.000000 0.000000
# 4 0.000000 0.000000 0.000000 0.735533 0.000000 0.000000
# 5 0.000000 0.000000 0.000000 0.000000 0.050651 0.000000
# 6 0.000000 0.000000 0.000000 0.000000 0.000000 0.047793
#
#
# Mechanical properties :
#
#
# Convention : Reuss Voigt Hill
#
# Bulk Modulus (GPa) = 26.62658 33.25815 29.94236
# Shear Modulus (GPa) = 5.06567 15.86406 10.46487
#
# Velocity S-wave (km/s) = 1.66528 2.94697 2.39351
# Velocity P-wave (km/s) = 4.27481 5.45769 4.90206
#
# Compressibility (1/GPa) = 0.03755646
#
# Stress axis : x y z
#
# Youngs Moduli (GPa) = 31.56880 24.28678 61.74188
#
# Poissons Ratio (x) = 0.45909 0.69809
# Poissons Ratio (y) = 0.59674 -0.27559
# Poissons Ratio (z) = 0.35693 -0.10841
#
# Static dielectric constant tensor:
#      x y z
#    x 1.667500 0.000000 0.000000 
#    y 0.000000 1.621160 0.000000 
#    z 0.000000 0.000000 1.629550 
# 
# From -- ./inp_files/21330.got.cif
#   From: 2010.05.17/outbox.cif.g08.bks.cpg/sg63_11_cif.got.tgz:21330.got - 2010.06.03 15:47:04.
