data_PCOD9471894
_publ_section_title
;
Structure prediction by ZEFSAII (Michael W. Deem and Ramdas Pophale) SiO2 
 PCOD9471894
Probable space group: C M C M
;
_chemical_formula_sum "Si O2"
_cell_formula_units_Z 116
_cell_length_a 27.256389
_cell_length_b 28.542612
_cell_length_c 8.168722
_cell_angle_alpha 90.000000
_cell_angle_beta 90.000000
_cell_angle_gamma 90.000000
_cell_volume 6355.008693
_symmetry_space_group_name_H-M "C M C M"
_symmetry_group_IT_number 63
_symmetry_cell_setting 'orthorhombic'
loop_
_space_group_symop_operation_xyz
x,y,z
-x,-y,1/2+z
x,-y,-z
-x,y,1/2-z
-x,-y,-z
x,y,1/2-z
-x,y,z
x,-y,1/2+z
1/2+x,1/2+y,z
1/2-x,1/2-y,1/2+z
1/2+x,1/2-y,-z
1/2-x,1/2+y,1/2-z
1/2-x,1/2-y,-z
1/2+x,1/2+y,1/2-z
1/2-x,1/2+y,z
1/2+x,1/2-y,1/2+z
loop_
_atom_site_type_symbol
_atom_site_label
_atom_site_fract_x
_atom_site_fract_y
_atom_site_fract_z
Si Si1 0.709260 0.312367 0.059113
Si Si2 0.053302 0.794677 0.561125
Si Si3 0.446996 0.446195 0.944545
Si Si4 0.852640 0.268410 0.059868
Si Si5 0.000000 0.832200 0.250000
Si Si6 0.692632 0.143440 0.439532
Si Si7 0.846957 0.901547 0.444198
Si Si8 0.754310 0.552568 0.445612
O O1 0.720996 0.320445 0.250000
O O2 0.666242 0.348466 0.007650
O O3 0.688482 0.260965 0.035871
O O4 0.756483 0.327746 0.958506
O O5 0.060671 0.814818 0.750000
O O6 0.095896 0.757344 0.527642
O O7 0.042840 0.827216 0.400412
O O8 0.000000 0.769886 0.570612
O O9 0.449880 0.445372 0.750000
O O10 0.500000 0.429102 0.012882
O O11 0.441785 0.500000 0.000000
O O12 0.398746 0.418750 0.992463
O O13 0.841273 0.261930 0.250000
O O14 0.847813 0.323191 0.020349
O O15 0.679952 0.138207 0.250000
O O16 0.707805 0.092392 0.508743
O O17 0.848308 0.904538 0.250000
O O18 0.800723 0.932712 0.501665
O O19 0.765158 0.500000 0.500000
O O20 0.755441 0.554872 0.250000
#
# Coordination Sequence:
#
# PCOD9471894 Si02
#       8
#    16  16  16  16   4  16  16  16
#     4  10  21  34  49  68  95 129 167 203 243 291
#     4   8  17  30  46  72  96 124 166 204 243 289
#     4  10  20  33  50  70  91 118 152 199 253 305
#     4  11  21  33  51  72 100 132 163 203 246 286
#     4   8  14  28  52  66  96 128 156 208 252 270
#     4  10  21  34  50  72  99 128 165 200 239 290
#     4  10  20  34  50  69  91 121 158 200 242 292
#     4  10  20  34  52  73  96 126 157 195 236 284
#
# _framework density 18.253319000000001
#
# number of rings (size 3 to 8) (size 9 to 14) (size 15 to 20)
#    0.414    1.793    0.000    3.310    1.931    4.138 
#    0.000    0.690    0.000    2.483    0.000    0.000 
#    0.000    0.552    0.000    2.759    0.000    5.103 
#
# Total GULP energy -322884.609841 kJ/mol
# GULP energy per Si atom -5566.976032 kJ/mol
# Density = 1.821177 g / cm^3
# Si number density = 18.253319 Si / 1000 Ang^3
#
#
#
# Elastic Constant Matrix: (Units=GPa)
#
#
# Indices 1 2 3 4 5 6 
#
# 1 39.6843 31.5465 7.8790 0.0000 0.0000 0.0000
# 2 31.5465 106.6332 10.9762 0.0000 0.0000 0.0000
# 3 7.8790 10.9762 59.2259 0.0000 0.0000 0.0000
# 4 0.0000 0.0000 0.0000 11.6436 0.0000 0.0000
# 5 0.0000 0.0000 0.0000 0.0000 19.2803 0.0000
# 6 0.0000 0.0000 0.0000 0.0000 0.0000 19.1103
#
#
#
# Elastic Compliance Matrix: (Units=1/GPa)
#
#
# Indices 1 2 3 4 5 6 
#
# 1 0.033353 -0.009593 -0.002659 0.000000 0.000000 0.000000
# 2 -0.009593 0.012320 -0.001007 0.000000 0.000000 0.000000
# 3 -0.002659 -0.001007 0.017425 0.000000 0.000000 0.000000
# 4 0.000000 0.000000 0.000000 0.085884 0.000000 0.000000
# 5 0.000000 0.000000 0.000000 0.000000 0.051867 0.000000
# 6 0.000000 0.000000 0.000000 0.000000 0.000000 0.052328
#
#
# Mechanical properties :
#
#
# Convention : Reuss Voigt Hill
#
# Bulk Modulus (GPa) = 27.33840 34.03852 30.68846
# Shear Modulus (GPa) = 17.12989 20.34964 18.73976
#
# Velocity S-wave (km/s) = 3.06674 3.34255 3.20761
# Velocity P-wave (km/s) = 5.24877 5.79528 5.52878
#
# Compressibility (1/GPa) = 0.03657858
#
# Stress axis : x y z
#
# Youngs Moduli (GPa) = 29.98231 81.17058 57.38929
#
# Poissons Ratio (x) = 0.77871 0.15260
# Poissons Ratio (y) = 0.28763 0.05779
# Poissons Ratio (z) = 0.07973 0.08173
#
# Static dielectric constant tensor:
#      x y z
#    x 1.663420 0.000000 0.000000 
#    y 0.000000 1.675550 0.000000 
#    z 0.000000 0.000000 1.663110 
# 
# From -- ./inp_files/14950.got.cif
#   From: 2010.05.17/outbox.cif.g08.bks.cpg/sg63_8_cif.got.tgz:14950.got - 2010.06.03 15:47:04.
