data_PCOD9471838
_publ_section_title
;
Structure prediction by ZEFSAII (Michael W. Deem and Ramdas Pophale) SiO2 
 PCOD9471838
Probable space group: C M C M
;
_chemical_formula_sum "Si O2"
_cell_formula_units_Z 112
_cell_length_a 27.078769
_cell_length_b 11.377140
_cell_length_c 20.204845
_cell_angle_alpha 90.000000
_cell_angle_beta 90.000000
_cell_angle_gamma 90.000000
_cell_volume 6224.687350
_symmetry_space_group_name_H-M "C M C M"
_symmetry_group_IT_number 63
_symmetry_cell_setting 'orthorhombic'
loop_
_space_group_symop_operation_xyz
x,y,z
-x,-y,1/2+z
x,-y,-z
-x,y,1/2-z
-x,-y,-z
x,y,1/2-z
-x,y,z
x,-y,1/2+z
1/2+x,1/2+y,z
1/2-x,1/2-y,1/2+z
1/2+x,1/2-y,-z
1/2-x,1/2+y,1/2-z
1/2-x,1/2-y,-z
1/2+x,1/2+y,1/2-z
1/2-x,1/2+y,z
1/2+x,1/2-y,1/2+z
loop_
_atom_site_type_symbol
_atom_site_label
_atom_site_fract_x
_atom_site_fract_y
_atom_site_fract_z
Si Si1 0.294868 0.558911 0.400122
Si Si2 0.883881 0.928855 0.327734
Si Si3 0.641209 0.256201 0.967351
Si Si4 0.057776 0.072208 0.431809
Si Si5 0.251813 0.762107 0.322562
Si Si6 0.348647 0.794723 0.617806
Si Si7 0.308579 0.954668 0.388556
O O1 0.335947 0.474157 0.369106
O O2 0.318453 0.639806 0.457143
O O3 0.284022 0.648929 0.339698
O O4 0.242460 0.504046 0.420120
O O5 0.882418 0.959298 0.250000
O O6 0.882018 0.787692 0.336084
O O7 0.927289 0.992024 0.368952
O O8 0.592503 0.312685 0.934599
O O9 0.662263 0.138867 0.933079
O O10 0.633591 0.227204 0.043548
O O11 0.000000 0.100443 0.430608
O O12 0.068219 0.000000 0.500000
O O13 0.229442 0.756225 0.250000
O O14 0.207475 0.752944 0.374346
O O15 0.285454 0.876484 0.329813
O O16 0.341830 0.933701 0.630593
#
# Coordination Sequence:
#
# PCOD9471838 Si02
#       7
#    16  16  16  16  16  16  16
#     4   9  20  34  51  75 110 156 197 237 274 327
#     4  11  21  36  57  86 117 146 187 241 292 349
#     4  10  21  37  55  79 112 149 198 242 286 339
#     4  10  21  41  67  88 109 141 187 250 310 354
#     4  10  20  33  46  68 107 160 206 233 268 329
#     4  11  21  32  49  76 112 151 191 238 282 336
#     4  10  21  33  49  77 114 161 196 233 270 335
#
# _framework density 17.992871000000001
#
# number of rings (size 3 to 8) (size 9 to 14) (size 15 to 20)
#    0.000    1.857    2.857    1.286    0.000    9.429 
#    0.000    0.000    0.000    2.571    0.000    0.000 
#    0.000    0.000    0.000    0.000    0.000    0.000 
#
# Total GULP energy -312083.024152 kJ/mol
# GULP energy per Si atom -5572.911146 kJ/mol
# Density = 1.795192 g / cm^3
# Si number density = 17.992871 Si / 1000 Ang^3
#
#
#
# Elastic Constant Matrix: (Units=GPa)
#
#
# Indices 1 2 3 4 5 6 
#
# 1 72.7670 39.6450 10.7669 0.0000 0.0000 0.0000
# 2 39.6450 107.3675 17.9459 0.0000 0.0000 0.0000
# 3 10.7669 17.9459 59.7639 0.0000 0.0000 0.0000
# 4 0.0000 0.0000 0.0000 4.3564 0.0000 0.0000
# 5 0.0000 0.0000 0.0000 0.0000 0.0045 0.0000
# 6 0.0000 0.0000 0.0000 0.0000 0.0000 17.1358
#
#
#
# Elastic Compliance Matrix: (Units=1/GPa)
#
#
# Indices 1 2 3 4 5 6 
#
# 1 0.017293 -0.006175 -0.001261 0.000000 0.000000 0.000000
# 2 -0.006175 0.012011 -0.002494 0.000000 0.000000 0.000000
# 3 -0.001261 -0.002494 0.017709 0.000000 0.000000 0.000000
# 4 0.000000 0.000000 0.000000 0.229549 0.000000 0.000000
# 5 0.000000 0.000000 0.000000 0.000000223.444561 0.000000
# 6 0.000000 0.000000 0.000000 0.000000 0.000000 0.058357
#
#
# Mechanical properties :
#
#
# Convention : Reuss Voigt Hill
#
# Bulk Modulus (GPa) = 36.82939 41.84600 39.33769
# Shear Modulus (GPa) = 0.02234 15.73538 7.87886
#
# Velocity S-wave (km/s) = 0.11155 2.96046 2.09485
# Velocity P-wave (km/s) = 4.53099 5.91551 5.26893
#
# Compressibility (1/GPa) = 0.02715223
#
# Stress axis : x y z
#
# Youngs Moduli (GPa) = 57.82627 83.25956 56.46943
#
# Poissons Ratio (x) = 0.51409 0.07123
# Poissons Ratio (y) = 0.35705 0.14084
# Poissons Ratio (z) = 0.07294 0.20766
#
# Static dielectric constant tensor:
#      x y z
#    x 1.606320 0.000000 0.000000 
#    y 0.000000 1.684590 0.000000 
#    z 0.000000 0.000000 1.620460 
# 
# From -- ./inp_files/58312.got.cif
#   From: 2010.05.17/outbox.cif.g08.bks.cpg/sg63_30_cif.got.tgz:58312.got - 2010.06.03 15:47:04.
