data_PCOD9471208
_publ_section_title
;
Structure prediction by ZEFSAII (Michael W. Deem and Ramdas Pophale) SiO2 
 PCOD9471208
Probable space group: C M C M
;
_chemical_formula_sum "Si O2"
_cell_formula_units_Z 56
_cell_length_a 22.193258
_cell_length_b 8.004638
_cell_length_c 17.349393
_cell_angle_alpha 90.000000
_cell_angle_beta 90.000000
_cell_angle_gamma 90.000000
_cell_volume 3082.102253
_symmetry_space_group_name_H-M "C M C M"
_symmetry_group_IT_number 63
_symmetry_cell_setting 'orthorhombic'
loop_
_space_group_symop_operation_xyz
x,y,z
-x,-y,1/2+z
x,-y,-z
-x,y,1/2-z
-x,-y,-z
x,y,1/2-z
-x,y,z
x,-y,1/2+z
1/2+x,1/2+y,z
1/2-x,1/2-y,1/2+z
1/2+x,1/2-y,-z
1/2-x,1/2+y,1/2-z
1/2-x,1/2-y,-z
1/2+x,1/2+y,1/2-z
1/2-x,1/2+y,z
1/2+x,1/2-y,1/2+z
loop_
_atom_site_type_symbol
_atom_site_label
_atom_site_fract_x
_atom_site_fract_y
_atom_site_fract_z
Si Si1 0.070091 0.176759 0.044396
Si Si2 0.756754 0.337450 0.084083
Si Si3 0.357523 0.000000 0.500000
Si Si4 0.332580 0.429258 0.838841
O O1 0.102177 0.332512 0.000997
O O2 0.107276 0.142676 0.122428
O O3 0.000000 0.216051 0.056822
O O4 0.073797 0.000000 0.000000
O O5 0.695006 0.420621 0.110357
O O6 0.782053 0.212619 0.147743
O O7 0.750000 0.250000 0.000000
O O8 0.810830 0.471289 0.070541
O O9 0.339658 0.472445 0.750000
#
# Coordination Sequence:
#
# PCOD9471208 Si02
#       4
#    16  16   8  16
#     4  10  22  38  59  84 110 153 208 244 279 343
#     4  11  19  35  57  85 113 152 193 239 295 360
#     4  10  19  34  62  82 111 144 194 246 290 330
#     4  11  22  34  54  86 118 150 185 243 310 356
#
# _framework density 18.169415999999998
#
# number of rings (size 3 to 8) (size 9 to 14) (size 15 to 20)
#    0.000    1.429    2.857    4.714    0.000    0.571 
#    0.000    0.000    0.000    0.000    0.000    8.000 
#    0.000    0.000    0.000    0.000    0.000    0.000 
#
# Total GULP energy -156023.460234 kJ/mol
# GULP energy per Si atom -5572.266437 kJ/mol
# Density = 1.812806 g / cm^3
# Si number density = 18.169416 Si / 1000 Ang^3
#
#
#
# Elastic Constant Matrix: (Units=GPa)
#
#
# Indices 1 2 3 4 5 6 
#
# 1 130.3278 47.3063 42.1092 0.0000 0.0000 0.0000
# 2 47.3063 93.5824 40.1275 0.0000 0.0000 0.0000
# 3 42.1092 40.1275 95.5790 0.0000 0.0000 0.0000
# 4 0.0000 0.0000 0.0000 21.9697 0.0000 0.0000
# 5 0.0000 0.0000 0.0000 0.0000 13.5895 0.0000
# 6 0.0000 0.0000 0.0000 0.0000 0.0000 41.0124
#
#
#
# Elastic Compliance Matrix: (Units=1/GPa)
#
#
# Indices 1 2 3 4 5 6 
#
# 1 0.009966 -0.003848 -0.002775 0.000000 0.000000 0.000000
# 2 -0.003848 0.014517 -0.004400 0.000000 0.000000 0.000000
# 3 -0.002775 -0.004400 0.013532 0.000000 0.000000 0.000000
# 4 0.000000 0.000000 0.000000 0.045517 0.000000 0.000000
# 5 0.000000 0.000000 0.000000 0.000000 0.073586 0.000000
# 6 0.000000 0.000000 0.000000 0.000000 0.000000 0.024383
#
#
# Mechanical properties :
#
#
# Convention : Reuss Voigt Hill
#
# Bulk Modulus (GPa) = 62.61628 64.28613 63.45121
# Shear Modulus (GPa) = 23.93810 27.97740 25.95775
#
# Velocity S-wave (km/s) = 3.63367 3.92830 3.78385
# Velocity P-wave (km/s) = 7.22094 7.48556 7.35444
#
# Compressibility (1/GPa) = 0.01597029
#
# Stress axis : x y z
#
# Youngs Moduli (GPa) = 100.33673 68.88244 73.89653
#
# Poissons Ratio (x) = 0.26506 0.20509
# Poissons Ratio (y) = 0.38610 0.32512
# Poissons Ratio (z) = 0.27847 0.30306
#
# Static dielectric constant tensor:
#      x y z
#    x 1.633750 0.000000 0.000000 
#    y 0.000000 1.735920 0.000000 
#    z 0.000000 0.000000 1.601530 
# 
# From -- ./inp_files/34785.got.cif
#   From: 2010.05.17/outbox.cif.g08.bks.cpg/sg63_18_cif.got.tgz:34785.got - 2010.06.03 15:47:04.
