data_PCOD9471433
_publ_section_title
;
Structure prediction by ZEFSAII (Michael W. Deem and Ramdas Pophale) SiO2 
 PCOD9471433
Probable space group: C M C M
;
_chemical_formula_sum "Si O2"
_cell_formula_units_Z 96
_cell_length_a 16.273874
_cell_length_b 18.674588
_cell_length_c 18.555253
_cell_angle_alpha 90.000000
_cell_angle_beta 90.000000
_cell_angle_gamma 90.000000
_cell_volume 5639.087827
_symmetry_space_group_name_H-M "C M C M"
_symmetry_group_IT_number 63
_symmetry_cell_setting 'orthorhombic'
loop_
_space_group_symop_operation_xyz
x,y,z
-x,-y,1/2+z
x,-y,-z
-x,y,1/2-z
-x,-y,-z
x,y,1/2-z
-x,y,z
x,-y,1/2+z
1/2+x,1/2+y,z
1/2-x,1/2-y,1/2+z
1/2+x,1/2-y,-z
1/2-x,1/2+y,1/2-z
1/2-x,1/2-y,-z
1/2+x,1/2+y,1/2-z
1/2-x,1/2+y,z
1/2+x,1/2-y,1/2+z
loop_
_atom_site_type_symbol
_atom_site_label
_atom_site_fract_x
_atom_site_fract_y
_atom_site_fract_z
Si Si1 0.906445 0.392762 0.663759
Si Si2 0.667680 0.360534 0.942068
Si Si3 0.500000 0.423901 0.336260
Si Si4 0.177799 0.129905 0.891338
Si Si5 0.290148 0.007628 0.082394
Si Si6 0.500000 0.556325 0.067816
Si Si7 0.267854 0.776540 0.833069
O O1 0.907972 0.398499 0.750000
O O2 0.863321 0.463209 0.631548
O O3 0.847888 0.324797 0.646954
O O4 0.000000 0.383249 0.638069
O O5 0.724712 0.428156 0.922355
O O6 0.577609 0.392360 0.934471
O O7 0.695756 0.298893 0.887753
O O8 0.678987 0.342527 0.026044
O O9 0.500000 0.415853 0.250000
O O10 0.415184 0.391516 0.368732
O O11 0.500000 0.506248 0.362031
O O12 0.209241 0.193944 0.841895
O O13 0.239481 0.061714 0.891058
O O14 0.319820 0.000000 0.000000
O O15 0.500000 0.500000 0.000000
O O16 0.246817 0.793159 0.750000
#
# Coordination Sequence:
#
# PCOD9471433 Si02
#       7
#    16  16   8  16  16   8  16
#     4   9  19  35  52  72 102 140 175 215 273 329
#     4  10  19  36  59  79 110 153 188 217 279 344
#     4  12  24  32  54  92 118 141 179 237 299 331
#     4  11  20  36  56  82 114 145 182 230 284 338
#     4   9  18  33  57  80 103 136 181 230 268 321
#     4  12  18  38  60  84 116 149 185 234 274 339
#     4  10  22  36  53  79 112 144 184 233 279 333
#
# _framework density 17.02403
#
# number of rings (size 3 to 8) (size 9 to 14) (size 15 to 20)
#    0.000    1.833    3.333    1.500    1.167    2.333 
#    0.000    0.000    1.833    0.000    0.000    0.000 
#    0.000    0.000    0.000    0.000    0.000    0.000 
#
# Total GULP energy -267566.822748 kJ/mol
# GULP energy per Si atom -5574.308807 kJ/mol
# Density = 1.698528 g / cm^3
# Si number density = 17.024030 Si / 1000 Ang^3
#
#
#
# Elastic Constant Matrix: (Units=GPa)
#
#
# Indices 1 2 3 4 5 6 
#
# 1 78.2916 12.5238 34.5167 0.0000 0.0000 0.0000
# 2 12.5238 53.9039 23.7150 0.0000 0.0000 0.0000
# 3 34.5167 23.7150 61.4656 0.0000 0.0000 0.0000
# 4 0.0000 0.0000 0.0000 31.2613 0.0000 0.0000
# 5 0.0000 0.0000 0.0000 0.0000 20.8835 0.0000
# 6 0.0000 0.0000 0.0000 0.0000 0.0000 11.9353
#
#
#
# Elastic Compliance Matrix: (Units=1/GPa)
#
#
# Indices 1 2 3 4 5 6 
#
# 1 0.016980 0.000301 -0.009651 0.000000 0.000000 0.000000
# 2 0.000301 0.022350 -0.008792 0.000000 0.000000 0.000000
# 3 -0.009651 -0.008792 0.025081 0.000000 0.000000 0.000000
# 4 0.000000 0.000000 0.000000 0.031988 0.000000 0.000000
# 5 0.000000 0.000000 0.000000 0.000000 0.047885 0.000000
# 6 0.000000 0.000000 0.000000 0.000000 0.000000 0.083785
#
#
# Mechanical properties :
#
#
# Convention : Reuss Voigt Hill
#
# Bulk Modulus (GPa) = 35.55440 37.24134 36.39787
# Shear Modulus (GPa) = 18.26627 21.00973 19.63800
#
# Velocity S-wave (km/s) = 3.27918 3.51682 3.40007
# Velocity P-wave (km/s) = 5.93864 6.19790 6.06965
#
# Compressibility (1/GPa) = 0.02812592
#
# Stress axis : x y z
#
# Youngs Moduli (GPa) = 58.89420 44.74338 39.87038
#
# Poissons Ratio (x) = -0.01347 0.38480
# Poissons Ratio (y) = -0.01773 0.35055
# Poissons Ratio (z) = 0.56840 0.39339
#
# Static dielectric constant tensor:
#      x y z
#    x 1.606030 0.000000 0.000000 
#    y 0.000000 1.563070 0.000000 
#    z 0.000000 0.000000 1.606870 
# 
# From -- ./inp_files/45815.got.cif
#   From: 2010.05.17/outbox.cif.g08.bks.cpg/sg63_23_cif.got.tgz:45815.got - 2010.06.03 15:47:04.
