data_PCOD9471882
_publ_section_title
;
Structure prediction by ZEFSAII (Michael W. Deem and Ramdas Pophale) SiO2 
 PCOD9471882
Probable space group: C M C M
;
_chemical_formula_sum "Si O2"
_cell_formula_units_Z 80
_cell_length_a 25.822005
_cell_length_b 9.473208
_cell_length_c 16.943375
_cell_angle_alpha 90.000000
_cell_angle_beta 90.000000
_cell_angle_gamma 90.000000
_cell_volume 4144.641363
_symmetry_space_group_name_H-M "C M C M"
_symmetry_group_IT_number 63
_symmetry_cell_setting 'orthorhombic'
loop_
_space_group_symop_operation_xyz
x,y,z
-x,-y,1/2+z
x,-y,-z
-x,y,1/2-z
-x,-y,-z
x,y,1/2-z
-x,y,z
x,-y,1/2+z
1/2+x,1/2+y,z
1/2-x,1/2-y,1/2+z
1/2+x,1/2-y,-z
1/2-x,1/2+y,1/2-z
1/2-x,1/2-y,-z
1/2+x,1/2+y,1/2-z
1/2-x,1/2+y,z
1/2+x,1/2-y,1/2+z
loop_
_atom_site_type_symbol
_atom_site_label
_atom_site_fract_x
_atom_site_fract_y
_atom_site_fract_z
Si Si1 0.273173 0.661919 0.572103
Si Si2 0.057837 0.383266 0.068950
Si Si3 0.213652 0.426562 0.839551
Si Si4 0.407407 0.868757 0.840059
Si Si5 0.107104 0.154560 0.975416
O O1 0.250000 0.750000 0.500000
O O2 0.241928 0.524043 0.596786
O O3 0.268853 0.766503 0.646493
O O4 0.333165 0.635313 0.550905
O O5 0.062766 0.485033 0.144002
O O6 0.000000 0.322303 0.064328
O O7 0.064112 0.500000 0.000000
O O8 0.098794 0.260894 0.049492
O O9 0.223688 0.472017 0.750000
O O10 0.152128 0.417326 0.853468
O O11 0.413514 0.821107 0.750000
O O12 0.418535 0.742178 0.902215
O O13 0.086963 0.000000 0.000000
#
# Coordination Sequence:
#
# PCOD9471882 Si02
#       5
#    16  16  16  16  16
#     4  11  20  32  50  74 102 138 179 218 256 306
#     4   9  18  34  56  78 101 135 178 220 265 319
#     4  10  20  33  49  72 104 138 173 215 266 315
#     4   9  19  35  54  76 104 139 180 226 270 318
#     4  10  20  34  52  78 109 141 177 219 270 326
#
# _framework density 19.302030999999999
#
# number of rings (size 3 to 8) (size 9 to 14) (size 15 to 20)
#    0.000    2.200    0.000    3.600    0.000    4.800 
#    0.000    1.000    0.000    0.000    0.000    0.000 
#    0.000    0.000    0.000    0.000    0.000    0.000 
#
# Total GULP energy -222781.091485 kJ/mol
# GULP energy per Si atom -5569.527287 kJ/mol
# Density = 1.925810 g / cm^3
# Si number density = 19.302031 Si / 1000 Ang^3
#
#
#
# Elastic Constant Matrix: (Units=GPa)
#
#
# Indices 1 2 3 4 5 6 
#
# 1 20.7896 25.5080 23.5491 0.0000 0.0000 0.0000
# 2 25.5080 123.3821 47.4357 0.0000 0.0000 0.0000
# 3 23.5491 47.4357 70.9128 0.0000 0.0000 0.0000
# 4 0.0000 0.0000 0.0000 35.8341 0.0000 0.0000
# 5 0.0000 0.0000 0.0000 0.0000 10.0741 0.0000
# 6 0.0000 0.0000 0.0000 0.0000 0.0000 7.3093
#
#
#
# Elastic Compliance Matrix: (Units=1/GPa)
#
#
# Indices 1 2 3 4 5 6 
#
# 1 0.083816 -0.008921 -0.021866 0.000000 0.000000 0.000000
# 2 -0.008921 0.011861 -0.004971 0.000000 0.000000 0.000000
# 3 -0.021866 -0.004971 0.024689 0.000000 0.000000 0.000000
# 4 0.000000 0.000000 0.000000 0.027906 0.000000 0.000000
# 5 0.000000 0.000000 0.000000 0.000000 0.099265 0.000000
# 6 0.000000 0.000000 0.000000 0.000000 0.000000 0.136812
#
#
# Mechanical properties :
#
#
# Convention : Reuss Voigt Hill
#
# Bulk Modulus (GPa) = 20.47187 45.34111 32.90649
# Shear Modulus (GPa) = 10.58987 18.54959 14.56973
#
# Velocity S-wave (km/s) = 2.34485 3.10339 2.75040
# Velocity P-wave (km/s) = 4.23795 6.03181 5.21262
#
# Compressibility (1/GPa) = 0.04884751
#
# Stress axis : x y z
#
# Youngs Moduli (GPa) = 11.93087 84.31322 40.50424
#
# Poissons Ratio (x) = 0.75219 0.88568
# Poissons Ratio (y) = 0.10644 0.20136
# Poissons Ratio (z) = 0.26089 0.41914
#
# Static dielectric constant tensor:
#      x y z
#    x 1.699490 0.000000 0.000000 
#    y 0.000000 1.693860 0.000000 
#    z 0.000000 0.000000 1.720430 
# 
# From -- ./inp_files/48800.got.cif
#   From: 2010.05.17/outbox.cif.g08.bks.cpg/sg63_25_cif.got.tgz:48800.got - 2010.06.03 15:47:04.
