data_PCOD9471176
_publ_section_title
;
Structure prediction by ZEFSAII (Michael W. Deem and Ramdas Pophale) SiO2 
 PCOD9471176
Probable space group: C M C M
;
_chemical_formula_sum "Si O2"
_cell_formula_units_Z 48
_cell_length_a 8.120197
_cell_length_b 20.776421
_cell_length_c 17.259402
_cell_angle_alpha 90.000000
_cell_angle_beta 90.000000
_cell_angle_gamma 90.000000
_cell_volume 2911.810091
_symmetry_space_group_name_H-M "C M C M"
_symmetry_group_IT_number 63
_symmetry_cell_setting 'orthorhombic'
loop_
_space_group_symop_operation_xyz
x,y,z
-x,-y,1/2+z
x,-y,-z
-x,y,1/2-z
-x,-y,-z
x,y,1/2-z
-x,y,z
x,-y,1/2+z
1/2+x,1/2+y,z
1/2-x,1/2-y,1/2+z
1/2+x,1/2-y,-z
1/2-x,1/2+y,1/2-z
1/2-x,1/2-y,-z
1/2+x,1/2+y,1/2-z
1/2-x,1/2+y,z
1/2+x,1/2-y,1/2+z
loop_
_atom_site_type_symbol
_atom_site_label
_atom_site_fract_x
_atom_site_fract_y
_atom_site_fract_z
Si Si1 0.000000 0.137930 0.841310
Si Si2 0.817352 0.556412 0.436169
Si Si3 0.000000 0.016676 0.158956
Si Si4 0.313590 0.320672 0.018725
O O1 0.155391 0.166332 0.889538
O O2 0.000000 0.151707 0.750000
O O3 0.000000 0.060852 0.853257
O O4 0.807112 0.500000 0.500000
O O5 0.664726 0.545045 0.379319
O O6 0.794362 0.623970 0.480325
O O7 0.000000 0.553597 0.400105
O O8 0.000000 0.028761 0.250000
O O9 0.500000 0.327649 0.986706
O O10 0.250000 0.250000 0.000000
#
# Coordination Sequence:
#
# PCOD9471176 Si02
#       4
#     8  16   8  16
#     4   9  19  35  59  83 113 150 190 242 300 340
#     4  11  20  35  59  86 111 146 195 237 282 342
#     4  11  20  38  60  84 118 150 183 242 301 343
#     4  10  19  34  59  80 111 151 200 235 285 338
#
# _framework density 16.484591999999999
#
# number of rings (size 3 to 8) (size 9 to 14) (size 15 to 20)
#    1.000    0.667    5.000    1.500    0.000    0.667 
#    0.000    1.667    0.000    3.000    0.000    0.000 
#    0.000    0.000    0.000    0.000    0.000    0.000 
#
# Total GULP energy -133619.568133 kJ/mol
# GULP energy per Si atom -5567.482006 kJ/mol
# Density = 1.644707 g / cm^3
# Si number density = 16.484592 Si / 1000 Ang^3
#
#
#
# Elastic Constant Matrix: (Units=GPa)
#
#
# Indices 1 2 3 4 5 6 
#
# 1 130.8294 34.1382 55.9117 0.0000 0.0000 0.0000
# 2 34.1382 125.9409 55.2116 0.0000 0.0000 0.0000
# 3 55.9117 55.2116 110.4484 0.0000 0.0000 0.0000
# 4 0.0000 0.0000 0.0000 21.0593 0.0000 0.0000
# 5 0.0000 0.0000 0.0000 0.0000 -0.3633 0.0000
# 6 0.0000 0.0000 0.0000 0.0000 0.0000 33.3429
#
#
#
# Elastic Compliance Matrix: (Units=1/GPa)
#
#
# Indices 1 2 3 4 5 6 
#
# 1 0.009791 -0.000616 -0.004648 0.000000 0.000000 0.000000
# 2 -0.000616 0.010207 -0.004791 0.000000 0.000000 0.000000
# 3 -0.004648 -0.004791 0.013802 0.000000 0.000000 0.000000
# 4 0.000000 0.000000 0.000000 0.047485 0.000000 0.000000
# 5 0.000000 0.000000 0.000000 0.000000 -2.752855 0.000000
# 6 0.000000 0.000000 0.000000 0.000000 0.000000 0.029991
#
#
# Mechanical properties :
#
#
# Convention : Reuss Voigt Hill
#
# Bulk Modulus (GPa) = 73.04674 73.08241 73.06457
# Shear Modulus (GPa) = -1.91065 25.60493 11.84714
#
# Velocity S-wave (km/s) = -1.07776 3.94542 2.68373
# Velocity P-wave (km/s) = 6.54672 8.07373 7.34999
#
# Compressibility (1/GPa) = 0.01368987
#
# Stress axis : x y z
#
# Youngs Moduli (GPa) = 102.13603 97.96787 72.45383
#
# Poissons Ratio (x) = 0.06036 0.33679
# Poissons Ratio (y) = 0.06293 0.34710
# Poissons Ratio (z) = 0.47477 0.46933
#
# Static dielectric constant tensor:
#      x y z
#    x 1.578070 0.000000 0.000000 
#    y 0.000000 1.541820 0.000000 
#    z 0.000000 0.000000 1.536550 
# 
# From -- ./inp_files/50217.got.cif
#   From: 2010.05.17/outbox.cif.g08.bks.cpg/sg63_26_cif.got.tgz:50217.got - 2010.06.03 15:47:04.
