data_PCOD9471629
_publ_section_title
;
Structure prediction by ZEFSAII (Michael W. Deem and Ramdas Pophale) SiO2 
 PCOD9471629
Probable space group: C M C M
;
_chemical_formula_sum "Si O2"
_cell_formula_units_Z 56
_cell_length_a 23.466481
_cell_length_b 19.585940
_cell_length_c 5.388782
_cell_angle_alpha 90.000000
_cell_angle_beta 90.000000
_cell_angle_gamma 90.000000
_cell_volume 2476.754740
_symmetry_space_group_name_H-M "C M C M"
_symmetry_group_IT_number 63
_symmetry_cell_setting 'orthorhombic'
loop_
_space_group_symop_operation_xyz
x,y,z
-x,-y,1/2+z
x,-y,-z
-x,y,1/2-z
-x,-y,-z
x,y,1/2-z
-x,y,z
x,-y,1/2+z
1/2+x,1/2+y,z
1/2-x,1/2-y,1/2+z
1/2+x,1/2-y,-z
1/2-x,1/2+y,1/2-z
1/2-x,1/2-y,-z
1/2+x,1/2+y,1/2-z
1/2-x,1/2+y,z
1/2+x,1/2-y,1/2+z
loop_
_atom_site_type_symbol
_atom_site_label
_atom_site_fract_x
_atom_site_fract_y
_atom_site_fract_z
Si Si1 0.737377 0.958589 0.250000
Si Si2 0.436120 0.022977 0.250000
Si Si3 0.435555 0.319903 0.250000
Si Si4 0.827559 0.317811 0.250000
Si Si5 0.359500 0.484392 0.750000
Si Si6 0.360781 0.666282 0.250000
Si Si7 0.401109 0.829633 0.750000
O O1 0.718890 0.878882 0.250000
O O2 0.719679 0.000000 0.500000
O O3 0.806058 0.964382 0.250000
O O4 0.500000 0.991480 0.250000
O O5 0.438232 0.103183 0.250000
O O6 0.406858 0.000000 0.500000
O O7 0.500000 0.347751 0.250000
O O8 0.399991 0.334365 0.501827
O O9 0.437873 0.237924 0.250000
O O10 0.820316 0.234015 0.250000
O O11 0.863199 0.329747 0.501497
O O12 0.392995 0.500000 0.500000
O O13 0.333274 0.408408 0.750000
#
# Coordination Sequence:
#
# PCOD9471629 Si02
#       7
#     8   8   8   8   8   8   8
#     4  10  21  37  56  83 115 151 196 242 293 348
#     4  10  20  31  43  64  97 139 186 228 270 330
#     4  10  20  36  60  87 116 150 191 242 293 344
#     4  10  21  35  54  82 113 145 191 240 284 336
#     4  10  21  40  63  86 114 155 193 232 296 357
#     4  10  21  38  61  88 118 154 196 240 288 348
#     4  10  20  33  51  76 107 148 187 232 288 337
#
# _framework density 22.610233000000001
#
# number of rings (size 3 to 8) (size 9 to 14) (size 15 to 20)
#    0.000    2.000    0.000    3.429    0.000    3.429 
#    0.000   10.000    0.000    8.571    0.000    0.000 
#    0.000    0.000    0.000    0.000    0.000    0.000 
#
# Total GULP energy -156107.747105 kJ/mol
# GULP energy per Si atom -5575.276682 kJ/mol
# Density = 2.255877 g / cm^3
# Si number density = 22.610233 Si / 1000 Ang^3
#
#
#
# Elastic Constant Matrix: (Units=GPa)
#
#
# Indices 1 2 3 4 5 6 
#
# 1 33.0567 8.5692 16.1035 0.0000 0.0000 0.0000
# 2 8.5692 145.0165 33.1162 0.0000 0.0000 0.0000
# 3 16.1035 33.1162 220.9766 0.0000 0.0000 0.0000
# 4 0.0000 0.0000 0.0000 26.5753 0.0000 0.0000
# 5 0.0000 0.0000 0.0000 0.0000 9.2333 0.0000
# 6 0.0000 0.0000 0.0000 0.0000 0.0000 -10.0794
#
#
#
# Elastic Compliance Matrix: (Units=1/GPa)
#
#
# Indices 1 2 3 4 5 6 
#
# 1 0.031633 -0.001390 -0.002097 0.000000 0.000000 0.000000
# 2 -0.001390 0.007201 -0.000978 0.000000 0.000000 0.000000
# 3 -0.002097 -0.000978 0.004825 0.000000 0.000000 0.000000
# 4 0.000000 0.000000 0.000000 0.037629 0.000000 0.000000
# 5 0.000000 0.000000 0.000000 0.000000 0.108304 0.000000
# 6 0.000000 0.000000 0.000000 0.000000 0.000000 -0.099212
#
#
# Mechanical properties :
#
#
# Convention : Reuss Voigt Hill
#
# Bulk Modulus (GPa) = 28.79466 57.18084 42.98775
# Shear Modulus (GPa) = 45.09135 27.89657 36.49396
#
# Velocity S-wave (km/s) = 4.47059 3.51636 4.02188
# Velocity P-wave (km/s) = 6.27783 6.46770 6.37347
#
# Compressibility (1/GPa) = 0.03472866
#
# Stress axis : x y z
#
# Youngs Moduli (GPa) = 31.61263 138.86507 207.26594
#
# Poissons Ratio (x) = 0.19308 0.43461
# Poissons Ratio (y) = 0.04395 0.20268
# Poissons Ratio (z) = 0.06629 0.13579
#
# Static dielectric constant tensor:
#      x y z
#    x 1.802150 0.000000 0.000000 
#    y 0.000000 1.844250 0.000000 
#    z 0.000000 0.000000 1.959860 
# 
# From -- ./inp_files/1247.got.cif
#   From: 2010.05.17/outbox.cif.g08.bks.cpg/sg63_1_cif.got.tgz:1247.got - 2010.06.03 15:47:04.
