data_PCOD9471133
_publ_section_title
;
Structure prediction by ZEFSAII (Michael W. Deem and Ramdas Pophale) SiO2 
 PCOD9471133
Probable space group: C M C M
;
_chemical_formula_sum "Si O2"
_cell_formula_units_Z 96
_cell_length_a 21.613239
_cell_length_b 12.595039
_cell_length_c 18.521394
_cell_angle_alpha 90.000000
_cell_angle_beta 90.000000
_cell_angle_gamma 90.000000
_cell_volume 5041.886246
_symmetry_space_group_name_H-M "C M C M"
_symmetry_group_IT_number 63
_symmetry_cell_setting 'orthorhombic'
loop_
_space_group_symop_operation_xyz
x,y,z
-x,-y,1/2+z
x,-y,-z
-x,y,1/2-z
-x,-y,-z
x,y,1/2-z
-x,y,z
x,-y,1/2+z
1/2+x,1/2+y,z
1/2-x,1/2-y,1/2+z
1/2+x,1/2-y,-z
1/2-x,1/2+y,1/2-z
1/2-x,1/2-y,-z
1/2+x,1/2+y,1/2-z
1/2-x,1/2+y,z
1/2+x,1/2-y,1/2+z
loop_
_atom_site_type_symbol
_atom_site_label
_atom_site_fract_x
_atom_site_fract_y
_atom_site_fract_z
Si Si1 0.893692 0.088946 0.445932
Si Si2 0.358356 0.426649 0.336191
Si Si3 0.212328 0.381795 0.165169
Si Si4 0.849534 0.553033 0.421942
Si Si5 0.428403 0.743467 0.937086
Si Si6 0.268556 0.684901 0.069820
O O1 0.919564 0.198294 0.480450
O O2 0.820591 0.104587 0.455680
O O3 0.919530 0.000000 0.500000
O O4 0.892617 0.033194 0.367180
O O5 0.367514 0.415104 0.250000
O O6 0.283419 0.423254 0.349206
O O7 0.387643 0.331002 0.383701
O O8 0.206659 0.372920 0.250000
O O9 0.158787 0.457660 0.134035
O O10 0.206310 0.267588 0.127812
O O11 0.839621 0.500000 0.500000
O O12 0.906023 0.635110 0.428170
O O13 0.791619 0.627173 0.402313
O O14 0.500000 0.732805 0.918199
O O15 0.250000 0.750000 0.000000
#
# Coordination Sequence:
#
# PCOD9471133 Si02
#       6
#    16  16  16  16  16  16
#     4  10  19  34  57  85 113 145 187 249 297 341
#     4  10  21  36  56  85 118 153 192 241 299 353
#     4  11  23  35  54  91 126 148 189 246 299 354
#     4  12  22  36  63  88 117 158 194 240 296 352
#     4  11  24  40  58  83 118 160 203 240 280 347
#     4  12  18  33  59  86 116 151 189 238 302 358
#
# _framework density 19.040493000000001
#
# number of rings (size 3 to 8) (size 9 to 14) (size 15 to 20)
#    0.000    1.000    6.667    1.500    0.000    5.667 
#    0.000    0.000    0.000    0.000    0.000    0.000 
#    0.000    0.000    0.000    0.000    0.000    0.000 
#
# Total GULP energy -267303.828574 kJ/mol
# GULP energy per Si atom -5568.829762 kJ/mol
# Density = 1.899716 g / cm^3
# Si number density = 19.040493 Si / 1000 Ang^3
#
#
#
# Elastic Constant Matrix: (Units=GPa)
#
#
# Indices 1 2 3 4 5 6 
#
# 1 55.1454 19.4234 9.4034 0.0000 0.0000 0.0000
# 2 19.4234 81.7719 49.5321 0.0000 0.0000 0.0000
# 3 9.4034 49.5321 96.3253 0.0000 0.0000 0.0000
# 4 0.0000 0.0000 0.0000 19.5711 0.0000 0.0000
# 5 0.0000 0.0000 0.0000 0.0000 4.0924 0.0000
# 6 0.0000 0.0000 0.0000 0.0000 0.0000 8.4656
#
#
#
# Elastic Compliance Matrix: (Units=1/GPa)
#
#
# Indices 1 2 3 4 5 6 
#
# 1 0.019823 -0.005136 0.000706 0.000000 0.000000 0.000000
# 2 -0.005136 0.019092 -0.009316 0.000000 0.000000 0.000000
# 3 0.000706 -0.009316 0.015103 0.000000 0.000000 0.000000
# 4 0.000000 0.000000 0.000000 0.051096 0.000000 0.000000
# 5 0.000000 0.000000 0.000000 0.000000 0.244358 0.000000
# 6 0.000000 0.000000 0.000000 0.000000 0.000000 0.118126
#
#
# Mechanical properties :
#
#
# Convention : Reuss Voigt Hill
#
# Bulk Modulus (GPa) = 37.69986 43.32893 40.51440
# Shear Modulus (GPa) = 9.92199 16.75139 13.33669
#
# Velocity S-wave (km/s) = 2.28524 2.96932 2.64945
# Velocity P-wave (km/s) = 5.17744 5.87890 5.53928
#
# Compressibility (1/GPa) = 0.02652530
#
# Stress axis : x y z
#
# Youngs Moduli (GPa) = 50.44758 52.37730 66.21161
#
# Poissons Ratio (x) = 0.26902 -0.04674
# Poissons Ratio (y) = 0.25910 0.61684
# Poissons Ratio (z) = -0.03561 0.48796
#
# Static dielectric constant tensor:
#      x y z
#    x 1.655850 0.000000 0.000000 
#    y 0.000000 1.722200 0.000000 
#    z 0.000000 0.000000 1.641210 
# 
# From -- ./inp_files/48031.got.cif
#   From: 2010.05.17/outbox.cif.g08.bks.cpg/sg63_25_cif.got.tgz:48031.got - 2010.06.03 15:47:04.
