data_PCOD9471909
_publ_section_title
;
Structure prediction by ZEFSAII (Michael W. Deem and Ramdas Pophale) SiO2 
 PCOD9471909
Probable space group: C M C M
;
_chemical_formula_sum "Si O2"
_cell_formula_units_Z 96
_cell_length_a 9.447367
_cell_length_b 31.715746
_cell_length_c 14.489107
_cell_angle_alpha 90.000000
_cell_angle_beta 90.000000
_cell_angle_gamma 90.000000
_cell_volume 4341.375363
_symmetry_space_group_name_H-M "C M C M"
_symmetry_group_IT_number 63
_symmetry_cell_setting 'orthorhombic'
loop_
_space_group_symop_operation_xyz
x,y,z
-x,-y,1/2+z
x,-y,-z
-x,y,1/2-z
-x,-y,-z
x,y,1/2-z
-x,y,z
x,-y,1/2+z
1/2+x,1/2+y,z
1/2-x,1/2-y,1/2+z
1/2+x,1/2-y,-z
1/2-x,1/2+y,1/2-z
1/2-x,1/2-y,-z
1/2+x,1/2+y,1/2-z
1/2-x,1/2+y,z
1/2+x,1/2-y,1/2+z
loop_
_atom_site_type_symbol
_atom_site_label
_atom_site_fract_x
_atom_site_fract_y
_atom_site_fract_z
Si Si1 0.839550 0.783458 0.614453
Si Si2 0.161062 0.795059 0.395533
Si Si3 0.662258 0.446089 0.863150
Si Si4 0.841257 0.633164 0.141647
Si Si5 0.837801 0.890242 0.361524
Si Si6 0.162029 0.528547 0.862889
O O1 0.848701 0.784498 0.503552
O O2 0.766102 0.739924 0.644128
O O3 0.738612 0.822494 0.637298
O O4 0.000000 0.788508 0.648544
O O5 0.211694 0.843174 0.386319
O O6 0.000000 0.792751 0.357830
O O7 0.658647 0.445604 0.750000
O O8 0.500000 0.447691 0.894255
O O9 0.741721 0.403912 0.895881
O O10 0.750167 0.487301 0.890562
O O11 0.856782 0.623285 0.250000
O O12 0.000000 0.634793 0.101241
O O13 0.841688 0.891981 0.250000
O O14 0.740399 0.928744 0.392325
O O15 0.000000 0.894969 0.394802
O O16 0.160192 0.528528 0.750000
O O17 0.000000 0.526884 0.894205
#
# Coordination Sequence:
#
# PCOD9471909 Si02
#       6
#    16  16  16  16  16  16
#     4  10  20  34  52  72  96 128 165 203 243 291
#     4   9  19  35  52  71  97 130 166 201 241 291
#     4   9  16  27  45  69  97 128 161 195 234 284
#     4  10  20  33  50  73 100 128 160 201 247 291
#     4   9  17  30  49  72  97 126 161 199 238 281
#     4   9  16  26  42  67  99 130 159 193 235 282
#
# _framework density 22.112808000000001
#
# number of rings (size 3 to 8) (size 9 to 14) (size 15 to 20)
#    0.000    2.667    0.000    2.000    0.000    7.000 
#    0.000    1.667    0.000    1.000    0.000    7.000 
#    0.000    0.000    0.000    0.000    0.000    0.000 
#
# Total GULP energy -268200.015916 kJ/mol
# GULP energy per Si atom -5587.500332 kJ/mol
# Density = 2.206248 g / cm^3
# Si number density = 22.112808 Si / 1000 Ang^3
#
#
#
# Elastic Constant Matrix: (Units=GPa)
#
#
# Indices 1 2 3 4 5 6 
#
# 1 211.8622 142.8549 -2.9490 0.0000 0.0000 0.0000
# 2 142.8549 218.6009 -11.4615 0.0000 0.0000 0.0000
# 3 -2.9490 -11.4615 52.5170 0.0000 0.0000 0.0000
# 4 0.0000 0.0000 0.0000 24.5597 0.0000 0.0000
# 5 0.0000 0.0000 0.0000 0.0000 6.1991 0.0000
# 6 0.0000 0.0000 0.0000 0.0000 0.0000 42.1332
#
#
#
# Elastic Compliance Matrix: (Units=1/GPa)
#
#
# Indices 1 2 3 4 5 6 
#
# 1 0.008467 -0.005572 -0.000741 0.000000 0.000000 0.000000
# 2 -0.005572 0.008294 0.001497 0.000000 0.000000 0.000000
# 3 -0.000741 0.001497 0.019327 0.000000 0.000000 0.000000
# 4 0.000000 0.000000 0.000000 0.040717 0.000000 0.000000
# 5 0.000000 0.000000 0.000000 0.000000 0.161314 0.000000
# 6 0.000000 0.000000 0.000000 0.000000 0.000000 0.023734
#
#
# Mechanical properties :
#
#
# Convention : Reuss Voigt Hill
#
# Bulk Modulus (GPa) = 37.79662 82.20765 60.00213
# Shear Modulus (GPa) = 17.83790 38.21412 28.02601
#
# Velocity S-wave (km/s) = 2.84329 4.16161 3.56393
# Velocity P-wave (km/s) = 5.28288 7.76847 6.64296
#
# Compressibility (1/GPa) = 0.02645739
#
# Stress axis : x y z
#
# Youngs Moduli (GPa) = 118.10984 120.56626 51.74201
#
# Poissons Ratio (x) = 0.67177 0.03832
# Poissons Ratio (y) = 0.65808 -0.07747
# Poissons Ratio (z) = 0.08747 -0.18052
#
# Static dielectric constant tensor:
#      x y z
#    x 1.786320 0.000000 0.000000 
#    y 0.000000 1.758060 0.000000 
#    z 0.000000 0.000000 1.870110 
# 
# From -- ./inp_files/51343.got.cif
#   From: 2010.05.17/outbox.cif.g08.bks.cpg/sg63_26_cif.got.tgz:51343.got - 2010.06.03 15:47:04.
