data_PCOD9471619
_publ_section_title
;
Structure prediction by ZEFSAII (Michael W. Deem and Ramdas Pophale) SiO2 
 PCOD9471619
Probable space group: C M C M
;
_chemical_formula_sum "Si O2"
_cell_formula_units_Z 80
_cell_length_a 7.364728
_cell_length_b 27.291168
_cell_length_c 18.496693
_cell_angle_alpha 90.000000
_cell_angle_beta 90.000000
_cell_angle_gamma 90.000000
_cell_volume 3717.687858
_symmetry_space_group_name_H-M "C M C M"
_symmetry_group_IT_number 63
_symmetry_cell_setting 'orthorhombic'
loop_
_space_group_symop_operation_xyz
x,y,z
-x,-y,1/2+z
x,-y,-z
-x,y,1/2-z
-x,-y,-z
x,y,1/2-z
-x,y,z
x,-y,1/2+z
1/2+x,1/2+y,z
1/2-x,1/2-y,1/2+z
1/2+x,1/2-y,-z
1/2-x,1/2+y,1/2-z
1/2-x,1/2-y,-z
1/2+x,1/2+y,1/2-z
1/2-x,1/2+y,z
1/2+x,1/2-y,1/2+z
loop_
_atom_site_type_symbol
_atom_site_label
_atom_site_fract_x
_atom_site_fract_y
_atom_site_fract_z
Si Si1 0.777934 0.164658 0.560070
Si Si2 0.718090 0.453331 0.595068
Si Si3 0.782113 0.058049 0.922143
Si Si4 0.281365 0.347403 0.605515
Si Si5 0.285679 0.744445 0.671151
O O1 0.719898 0.112836 0.595696
O O2 0.719237 0.164719 0.476420
O O3 0.714032 0.210893 0.606150
O O4 0.000000 0.164638 0.557986
O O5 0.500000 0.454854 0.605981
O O6 0.747992 0.447167 0.508636
O O7 0.787497 0.507771 0.613839
O O8 0.784014 0.401848 0.627540
O O9 0.000000 0.058032 0.912058
O O10 0.500000 0.350276 0.603122
O O11 0.234338 0.301798 0.655027
O O12 0.209434 0.732555 0.750000
O O13 0.500000 0.734124 0.673554
#
# Coordination Sequence:
#
# PCOD9471619 Si02
#       5
#    16  16  16  16  16
#     4   8  14  25  42  63  84 107 137 171 204 240
#     4   7  10  17  33  60  86 102 121 156 202 244
#     4   7   9  16  33  58  85 105 122 154 202 245
#     4   9  16  27  45  66  84 104 135 173 207 240
#     4  10  20  31  41  56  82 114 143 170 203 244
#
# _framework density 21.518749
#
# number of rings (size 3 to 8) (size 9 to 14) (size 15 to 20)
#    0.000    3.800    0.000    4.200    0.000    0.400 
#    0.000    0.000    0.000    1.200    0.000   18.200 
#    0.000    0.000    0.000    0.000    0.000    0.000 
#
# Total GULP energy -222677.309476 kJ/mol
# GULP energy per Si atom -5566.932737 kJ/mol
# Density = 2.146977 g / cm^3
# Si number density = 21.518749 Si / 1000 Ang^3
#
#
#
# Elastic Constant Matrix: (Units=GPa)
#
#
# Indices 1 2 3 4 5 6 
#
# 1 72.0780 -9.7262 -0.5031 0.0000 0.0000 0.0000
# 2 -9.7262 87.7730 -0.5245 0.0000 0.0000 0.0000
# 3 -0.5031 -0.5245 22.4963 0.0000 0.0000 0.0000
# 4 0.0000 0.0000 0.0000 -5.2279 0.0000 0.0000
# 5 0.0000 0.0000 0.0000 0.0000 -2.8641 0.0000
# 6 0.0000 0.0000 0.0000 0.0000 0.0000 5.7272
#
#
#
# Elastic Compliance Matrix: (Units=1/GPa)
#
#
# Indices 1 2 3 4 5 6 
#
# 1 0.014087 0.001563 0.000351 0.000000 0.000000 0.000000
# 2 0.001563 0.011568 0.000305 0.000000 0.000000 0.000000
# 3 0.000351 0.000305 0.044467 0.000000 0.000000 0.000000
# 4 0.000000 0.000000 0.000000 -0.191283 0.000000 0.000000
# 5 0.000000 0.000000 0.000000 0.000000 -0.349150 0.000000
# 6 0.000000 0.000000 0.000000 0.000000 0.000000 0.174606
#
#
# Mechanical properties :
#
#
# Convention : Reuss Voigt Hill
#
# Bulk Modulus (GPa) = 13.41194 17.87110 15.64152
# Shear Modulus (GPa) = -18.16272 12.40045 -2.88113
#
# Velocity S-wave (km/s) = -2.90839 2.40315 -1.15836
# Velocity P-wave (km/s) = 2.24324 4.00289 2.34425
#
# Compressibility (1/GPa) = 0.07456044
#
# Stress axis : x y z
#
# Youngs Moduli (GPa) = 70.98627 86.44499 22.48875
#
# Poissons Ratio (x) = -0.13512 -0.00790
# Poissons Ratio (y) = -0.11096 -0.00685
# Poissons Ratio (z) = -0.02495 -0.02633
#
# Static dielectric constant tensor:
#      x y z
#    x 1.883520 0.000000 0.000000 
#    y 0.000000 1.848220 0.000000 
#    z 0.000000 0.000000 1.741260 
# 
# From -- ./inp_files/40537.got.cif
#   From: 2010.05.17/outbox.cif.g08.bks.cpg/sg63_21_cif.got.tgz:40537.got - 2010.06.03 15:47:04.
