data_PCOD9471596
_publ_section_title
;
Structure prediction by ZEFSAII (Michael W. Deem and Ramdas Pophale) SiO2 
 PCOD9471596
Probable space group: C M C M
;
_chemical_formula_sum "Si O2"
_cell_formula_units_Z 92
_cell_length_a 13.376562
_cell_length_b 17.987850
_cell_length_c 21.158222
_cell_angle_alpha 90.000000
_cell_angle_beta 90.000000
_cell_angle_gamma 90.000000
_cell_volume 5090.998086
_symmetry_space_group_name_H-M "C M C M"
_symmetry_group_IT_number 63
_symmetry_cell_setting 'orthorhombic'
loop_
_space_group_symop_operation_xyz
x,y,z
-x,-y,1/2+z
x,-y,-z
-x,y,1/2-z
-x,-y,-z
x,y,1/2-z
-x,y,z
x,-y,1/2+z
1/2+x,1/2+y,z
1/2-x,1/2-y,1/2+z
1/2+x,1/2-y,-z
1/2-x,1/2+y,1/2-z
1/2-x,1/2-y,-z
1/2+x,1/2+y,1/2-z
1/2-x,1/2+y,z
1/2+x,1/2-y,1/2+z
loop_
_atom_site_type_symbol
_atom_site_label
_atom_site_fract_x
_atom_site_fract_y
_atom_site_fract_z
Si Si1 0.120135 0.891554 0.561353
Si Si2 0.115328 0.355161 0.750000
Si Si3 0.256623 0.721382 0.146299
Si Si4 0.832797 0.475650 0.250000
Si Si5 0.384903 0.334372 0.421096
Si Si6 0.000000 0.028195 0.250000
Si Si7 0.162900 0.017967 0.647859
Si Si8 0.614407 0.193353 0.750000
O O1 0.169684 0.832040 0.608119
O O2 0.140617 0.868103 0.489501
O O3 0.000000 0.895064 0.567711
O O4 0.165090 0.969864 0.584153
O O5 0.179653 0.324853 0.809477
O O6 0.113464 0.444767 0.750000
O O7 0.000000 0.327734 0.750000
O O8 0.190281 0.770267 0.099117
O O9 0.324009 0.774529 0.190525
O O10 0.764348 0.475753 0.312956
O O11 0.886723 0.396131 0.250000
O O12 0.500000 0.308499 0.422647
O O13 0.375787 0.400339 0.369775
O O14 0.086579 0.022822 0.305056
O O15 0.500000 0.221350 0.750000
#
# Coordination Sequence:
#
# PCOD9471596 Si02
#       8
#    16   8  16   8  16   4  16   8
#     4  11  22  38  60  85 117 155 194 236 283 346
#     4  11  23  39  62  86 115 153 193 243 287 350
#     4  11  23  40  56  88 121 149 190 238 298 343
#     4  11  21  39  59  82 116 148 194 236 288 338
#     4  11  22  38  60  85 117 155 194 236 283 346
#     4  10  20  28  60  84 118 144 174 252 290 332
#     4  11  20  36  57  88 114 150 192 236 290 339
#     4  11  23  39  62  86 115 153 193 243 287 350
#
# _framework density 18.071111999999999
#
# number of rings (size 3 to 8) (size 9 to 14) (size 15 to 20)
#    0.000    1.043    5.217    2.348    0.000    1.391 
#    3.130    0.000    0.000    0.000    0.000    2.435 
#    0.000    0.000    0.000    0.000    0.000    0.000 
#
# Total GULP energy -256279.222863 kJ/mol
# GULP energy per Si atom -5571.287454 kJ/mol
# Density = 1.802998 g / cm^3
# Si number density = 18.071112 Si / 1000 Ang^3
#
#
#
# Elastic Constant Matrix: (Units=GPa)
#
#
# Indices 1 2 3 4 5 6 
#
# 1 80.4906 19.1160 26.1128 0.0000 0.0000 0.0000
# 2 19.1160 72.2194 6.7513 0.0000 0.0000 0.0000
# 3 26.1128 6.7513 73.1299 0.0000 0.0000 0.0000
# 4 0.0000 0.0000 0.0000 20.7166 0.0000 0.0000
# 5 0.0000 0.0000 0.0000 0.0000 29.5130 0.0000
# 6 0.0000 0.0000 0.0000 0.0000 0.0000 14.3555
#
#
#
# Elastic Compliance Matrix: (Units=1/GPa)
#
#
# Indices 1 2 3 4 5 6 
#
# 1 0.014866 -0.003469 -0.004988 0.000000 0.000000 0.000000
# 2 -0.003469 0.014777 -0.000126 0.000000 0.000000 0.000000
# 3 -0.004988 -0.000126 0.015467 0.000000 0.000000 0.000000
# 4 0.000000 0.000000 0.000000 0.048271 0.000000 0.000000
# 5 0.000000 0.000000 0.000000 0.000000 0.033883 0.000000
# 6 0.000000 0.000000 0.000000 0.000000 0.000000 0.069660
#
#
# Mechanical properties :
#
#
# Convention : Reuss Voigt Hill
#
# Bulk Modulus (GPa) = 35.78463 36.64445 36.21454
# Shear Modulus (GPa) = 22.38115 24.50766 23.44440
#
# Velocity S-wave (km/s) = 3.52306 3.68663 3.60577
# Velocity P-wave (km/s) = 6.03277 6.20029 6.11710
#
# Compressibility (1/GPa) = 0.02794496
#
# Stress axis : x y z
#
# Youngs Moduli (GPa) = 67.26860 67.67482 64.65393
#
# Poissons Ratio (x) = 0.23474 0.32249
# Poissons Ratio (y) = 0.23333 0.00812
# Poissons Ratio (z) = 0.33553 0.00850
#
# Static dielectric constant tensor:
#      x y z
#    x 1.596560 0.000000 0.000000 
#    y 0.000000 1.627090 0.000000 
#    z 0.000000 0.000000 1.617180 
# 
# From -- ./inp_files/52624.got.cif
#   From: 2010.05.17/outbox.cif.g08.bks.cpg/sg63_27_cif.got.tgz:52624.got - 2010.06.03 15:47:04.
