data_PCOD9471382
_publ_section_title
;
Structure prediction by ZEFSAII (Michael W. Deem and Ramdas Pophale) SiO2 
 PCOD9471382
Probable space group: C M C M
;
_chemical_formula_sum "Si O2"
_cell_formula_units_Z 112
_cell_length_a 17.349411
_cell_length_b 14.721331
_cell_length_c 27.409260
_cell_angle_alpha 90.000000
_cell_angle_beta 90.000000
_cell_angle_gamma 90.000000
_cell_volume 7000.501026
_symmetry_space_group_name_H-M "C M C M"
_symmetry_group_IT_number 63
_symmetry_cell_setting 'orthorhombic'
loop_
_space_group_symop_operation_xyz
x,y,z
-x,-y,1/2+z
x,-y,-z
-x,y,1/2-z
-x,-y,-z
x,y,1/2-z
-x,y,z
x,-y,1/2+z
1/2+x,1/2+y,z
1/2-x,1/2-y,1/2+z
1/2+x,1/2-y,-z
1/2-x,1/2+y,1/2-z
1/2-x,1/2-y,-z
1/2+x,1/2+y,1/2-z
1/2-x,1/2+y,z
1/2+x,1/2-y,1/2+z
loop_
_atom_site_type_symbol
_atom_site_label
_atom_site_fract_x
_atom_site_fract_y
_atom_site_fract_z
Si Si1 0.589200 0.719486 0.804200
Si Si2 0.086651 0.000413 0.693639
Si Si3 0.587542 0.200123 0.499511
Si Si4 0.232012 0.632930 0.941959
Si Si5 0.674241 0.201957 0.101927
Si Si6 0.367104 0.595054 0.018062
Si Si7 0.286339 0.540645 0.384482
O O1 0.619642 0.744651 0.750000
O O2 0.500000 0.748688 0.806402
O O3 0.589350 0.610083 0.807052
O O4 0.632529 0.756735 0.851114
O O5 0.092737 0.971363 0.750000
O O6 0.000000 0.974273 0.675808
O O7 0.158833 0.968526 0.662075
O O8 0.500000 0.168880 0.505256
O O9 0.647710 0.150593 0.535832
O O10 0.617539 0.185988 0.444060
O O11 0.591046 0.309243 0.509745
O O12 0.263785 0.726034 0.919064
O O13 0.248185 0.553523 0.903027
O O14 0.288087 0.607356 0.987062
O O15 0.718121 0.112446 0.118780
O O16 0.342990 0.577029 0.073142
O O17 0.404366 0.500000 0.000000
#
# Coordination Sequence:
#
# PCOD9471382 Si02
#       7
#    16  16  16  16  16  16  16
#     4   9  18  34  54  77 105 131 161 214 273 311
#     4   9  19  35  54  80 108 129 159 213 275 320
#     4  11  21  34  50  73 109 143 174 214 260 304
#     4  10  19  36  50  73 106 142 173 208 252 301
#     4  11  19  34  53  76 103 137 180 210 251 307
#     4   9  18  32  51  73 101 133 172 214 254 302
#     4  11  19  32  58  75 101 140 174 209 251 307
#
# _framework density 15.998854
#
# number of rings (size 3 to 8) (size 9 to 14) (size 15 to 20)
#    0.000    2.000    4.286    2.143    0.000    1.429 
#    0.000    2.143    0.000    0.000    0.000    0.000 
#    0.000    3.429    0.000    0.000    0.000    0.000 
#
# Total GULP energy -312016.913668 kJ/mol
# GULP energy per Si atom -5571.730601 kJ/mol
# Density = 1.596244 g / cm^3
# Si number density = 15.998854 Si / 1000 Ang^3
#
#
#
# Elastic Constant Matrix: (Units=GPa)
#
#
# Indices 1 2 3 4 5 6 
#
# 1 111.0427 34.2229 49.6883 0.0000 0.0000 0.0000
# 2 34.2229 52.5288 18.2749 0.0000 0.0000 0.0000
# 3 49.6883 18.2749 78.3070 0.0000 0.0000 0.0000
# 4 0.0000 0.0000 0.0000 14.3633 0.0000 0.0000
# 5 0.0000 0.0000 0.0000 0.0000 17.2706 0.0000
# 6 0.0000 0.0000 0.0000 0.0000 0.0000 11.2914
#
#
#
# Elastic Compliance Matrix: (Units=1/GPa)
#
#
# Indices 1 2 3 4 5 6 
#
# 1 0.014513 -0.006804 -0.007621 0.000000 0.000000 0.000000
# 2 -0.006804 0.023909 -0.001263 0.000000 0.000000 0.000000
# 3 -0.007621 -0.001263 0.017901 0.000000 0.000000 0.000000
# 4 0.000000 0.000000 0.000000 0.069622 0.000000 0.000000
# 5 0.000000 0.000000 0.000000 0.000000 0.057902 0.000000
# 6 0.000000 0.000000 0.000000 0.000000 0.000000 0.088563
#
#
# Mechanical properties :
#
#
# Convention : Reuss Voigt Hill
#
# Bulk Modulus (GPa) = 40.08357 49.58340 44.83349
# Shear Modulus (GPa) = 16.02057 17.89791 16.95924
#
# Velocity S-wave (km/s) = 3.16786 3.34832 3.25934
# Velocity P-wave (km/s) = 6.20394 6.78288 6.49986
#
# Compressibility (1/GPa) = 0.02494788
#
# Stress axis : x y z
#
# Youngs Moduli (GPa) = 68.90604 41.82509 55.86414
#
# Poissons Ratio (x) = 0.28457 0.42573
# Poissons Ratio (y) = 0.46882 0.07053
# Poissons Ratio (z) = 0.52512 0.05281
#
# Static dielectric constant tensor:
#      x y z
#    x 1.533010 0.000000 0.000000 
#    y 0.000000 1.556380 0.000000 
#    z 0.000000 0.000000 1.537080 
# 
# From -- ./inp_files/73539.got.cif
#   From: 2010.05.17/outbox.cif.g08.bks.cpg/sg63_37_cif.got.tgz:73539.got - 2010.06.03 15:47:04.
