data_PCOD9471892
_publ_section_title
;
Structure prediction by ZEFSAII (Michael W. Deem and Ramdas Pophale) SiO2 
 PCOD9471892
Probable space group: C M C M
;
_chemical_formula_sum "Si O2"
_cell_formula_units_Z 112
_cell_length_a 20.896869
_cell_length_b 19.648024
_cell_length_c 15.239524
_cell_angle_alpha 90.000000
_cell_angle_beta 90.000000
_cell_angle_gamma 90.000000
_cell_volume 6257.077042
_symmetry_space_group_name_H-M "C M C M"
_symmetry_group_IT_number 63
_symmetry_cell_setting 'orthorhombic'
loop_
_space_group_symop_operation_xyz
x,y,z
-x,-y,1/2+z
x,-y,-z
-x,y,1/2-z
-x,-y,-z
x,y,1/2-z
-x,y,z
x,-y,1/2+z
1/2+x,1/2+y,z
1/2-x,1/2-y,1/2+z
1/2+x,1/2-y,-z
1/2-x,1/2+y,1/2-z
1/2-x,1/2-y,-z
1/2+x,1/2+y,1/2-z
1/2-x,1/2+y,z
1/2+x,1/2-y,1/2+z
loop_
_atom_site_type_symbol
_atom_site_label
_atom_site_fract_x
_atom_site_fract_y
_atom_site_fract_z
Si Si1 0.423016 0.179392 0.148352
Si Si2 0.768401 0.662468 0.912461
Si Si3 0.773553 0.052203 0.349979
Si Si4 0.650055 0.929399 0.970101
Si Si5 0.314955 0.693808 0.412013
Si Si6 0.151861 0.921337 0.150208
Si Si7 0.075888 0.184268 0.540368
O O1 0.401822 0.177819 0.250000
O O2 0.500000 0.173042 0.146679
O O3 0.391180 0.119748 0.091766
O O4 0.406717 0.251781 0.103578
O O5 0.793810 0.733488 0.874798
O O6 0.717811 0.621937 0.854410
O O7 0.825373 0.614386 0.946789
O O8 0.728602 0.680558 0.001091
O O9 0.754690 0.035703 0.250000
O O10 0.713249 0.049633 0.414574
O O11 0.801481 0.128187 0.353929
O O12 0.826697 0.996942 0.377191
O O13 0.618388 0.000000 0.000000
O O14 0.386521 0.695343 0.449788
O O15 0.127705 0.922205 0.250000
O O16 0.102763 0.883585 0.086480
O O17 0.000000 0.182376 0.530396
#
# Coordination Sequence:
#
# PCOD9471892 Si02
#       7
#    16  16  16  16  16  16  16
#     4  10  21  36  54  80 111 142 179 224 273 324
#     4   9  17  31  48  76 100 136 171 217 257 315
#     4  10  21  34  51  77 109 142 176 224 279 322
#     4  11  19  33  55  77 108 143 176 215 268 323
#     4   9  18  32  52  72 103 133 180 217 261 318
#     4  10  20  33  49  76 111 141 175 221 271 321
#     4  10  20  35  56  79 105 140 179 221 269 323
#
# _framework density 17.899732
#
# number of rings (size 3 to 8) (size 9 to 14) (size 15 to 20)
#    0.000    2.143    2.857    0.857    2.000    1.714 
#    0.000    1.429    0.000    1.286    0.000    0.000 
#    0.000    0.000    0.000    0.000    0.000    0.000 
#
# Total GULP energy -312348.012141 kJ/mol
# GULP energy per Si atom -5577.643074 kJ/mol
# Density = 1.785899 g / cm^3
# Si number density = 17.899732 Si / 1000 Ang^3
#
#
#
# Elastic Constant Matrix: (Units=GPa)
#
#
# Indices 1 2 3 4 5 6 
#
# 1 30.7663 19.4249 4.5123 0.0000 0.0000 0.0000
# 2 19.4249 115.3150 8.2935 0.0000 0.0000 0.0000
# 3 4.5123 8.2935 28.1485 0.0000 0.0000 0.0000
# 4 0.0000 0.0000 0.0000 21.2971 0.0000 0.0000
# 5 0.0000 0.0000 0.0000 0.0000 15.4292 0.0000
# 6 0.0000 0.0000 0.0000 0.0000 0.0000 21.0495
#
#
#
# Elastic Compliance Matrix: (Units=1/GPa)
#
#
# Indices 1 2 3 4 5 6 
#
# 1 0.036843 -0.005907 -0.004166 0.000000 0.000000 0.000000
# 2 -0.005907 0.009807 -0.001943 0.000000 0.000000 0.000000
# 3 -0.004166 -0.001943 0.036766 0.000000 0.000000 0.000000
# 4 0.000000 0.000000 0.000000 0.046955 0.000000 0.000000
# 5 0.000000 0.000000 0.000000 0.000000 0.064812 0.000000
# 6 0.000000 0.000000 0.000000 0.000000 0.000000 0.047507
#
#
# Mechanical properties :
#
#
# Convention : Reuss Voigt Hill
#
# Bulk Modulus (GPa) = 16.83896 26.52123 21.68010
# Shear Modulus (GPa) = 17.45107 21.02175 19.23641
#
# Velocity S-wave (km/s) = 3.12578 3.43069 3.28178
# Velocity P-wave (km/s) = 4.73869 5.52645 5.14766
#
# Compressibility (1/GPa) = 0.05938609
#
# Stress axis : x y z
#
# Youngs Moduli (GPa) = 27.14193 101.97228 27.19902
#
# Poissons Ratio (x) = 0.60232 0.11330
# Poissons Ratio (y) = 0.16032 0.05283
# Poissons Ratio (z) = 0.11307 0.19808
#
# Static dielectric constant tensor:
#      x y z
#    x 1.600850 0.000000 0.000000 
#    y 0.000000 1.639640 0.000000 
#    z 0.000000 0.000000 1.607440 
# 
# From -- ./inp_files/47330.got.cif
#   From: 2010.05.17/outbox.cif.g08.bks.cpg/sg63_24_cif.got.tgz:47330.got - 2010.06.03 15:47:04.
