data_PCOD9471938
_publ_section_title
;
Structure prediction by ZEFSAII (Michael W. Deem and Ramdas Pophale) SiO2 
 PCOD9471938
Probable space group: C M C M
;
_chemical_formula_sum "Si O2"
_cell_formula_units_Z 64
_cell_length_a 24.788987
_cell_length_b 13.041790
_cell_length_c 8.920005
_cell_angle_alpha 90.000000
_cell_angle_beta 90.000000
_cell_angle_gamma 90.000000
_cell_volume 2883.773060
_symmetry_space_group_name_H-M "C M C M"
_symmetry_group_IT_number 63
_symmetry_cell_setting 'orthorhombic'
loop_
_space_group_symop_operation_xyz
x,y,z
-x,-y,1/2+z
x,-y,-z
-x,y,1/2-z
-x,-y,-z
x,y,1/2-z
-x,y,z
x,-y,1/2+z
1/2+x,1/2+y,z
1/2-x,1/2-y,1/2+z
1/2+x,1/2-y,-z
1/2-x,1/2+y,1/2-z
1/2-x,1/2-y,-z
1/2+x,1/2+y,1/2-z
1/2-x,1/2+y,z
1/2+x,1/2-y,1/2+z
loop_
_atom_site_type_symbol
_atom_site_label
_atom_site_fract_x
_atom_site_fract_y
_atom_site_fract_z
Si Si1 0.211470 0.108400 0.071597
Si Si2 0.939524 0.679270 0.928951
Si Si3 0.331685 0.184252 0.427799
Si Si4 0.936273 0.899682 0.417768
O O1 0.201900 0.110205 0.250000
O O2 0.275373 0.126774 0.043711
O O3 0.179740 0.202549 0.995873
O O4 0.198349 0.000000 0.000000
O O5 0.937069 0.672642 0.750000
O O6 0.000000 0.643237 0.976830
O O7 0.885074 0.633989 0.000270
O O8 0.934920 0.797354 0.983409
O O9 0.339304 0.190230 0.250000
O O10 0.913608 0.885392 0.250000
O O11 0.000000 0.918757 0.398728
O O12 0.914528 0.000000 0.500000
#
# Coordination Sequence:
#
# PCOD9471938 Si02
#       4
#    16  16  16  16
#     4  10  21  38  61  87 114 145 183 231 284 335
#     4  10  20  33  50  74 106 144 183 224 272 326
#     4  10  21  37  58  85 115 147 186 231 278 332
#     4   9  16  26  40  59  87 125 169 214 258 309
#
# _framework density 22.193147
#
# number of rings (size 3 to 8) (size 9 to 14) (size 15 to 20)
#    0.000    2.250    0.000    3.000    0.000    8.500 
#    0.000    5.000    0.000    0.750    0.000    0.000 
#    0.000    0.000    0.000    0.000    0.000    0.000 
#
# Total GULP energy -178724.665695 kJ/mol
# GULP energy per Si atom -5585.145803 kJ/mol
# Density = 2.214263 g / cm^3
# Si number density = 22.193147 Si / 1000 Ang^3
#
#
#
# Elastic Constant Matrix: (Units=GPa)
#
#
# Indices 1 2 3 4 5 6 
#
# 1 203.9947 11.9789 73.4276 0.0000 0.0000 0.0000
# 2 11.9789 46.6985 10.4558 0.0000 0.0000 0.0000
# 3 73.4276 10.4558 72.1130 0.0000 0.0000 0.0000
# 4 0.0000 0.0000 0.0000 16.2704 0.0000 0.0000
# 5 0.0000 0.0000 0.0000 0.0000 35.4657 0.0000
# 6 0.0000 0.0000 0.0000 0.0000 0.0000 -9.4494
#
#
#
# Elastic Compliance Matrix: (Units=1/GPa)
#
#
# Indices 1 2 3 4 5 6 
#
# 1 0.007741 -0.000228 -0.007849 0.000000 0.000000 0.000000
# 2 -0.000228 0.022139 -0.002978 0.000000 0.000000 0.000000
# 3 -0.007849 -0.002978 0.022290 0.000000 0.000000 0.000000
# 4 0.000000 0.000000 0.000000 0.061461 0.000000 0.000000
# 5 0.000000 0.000000 0.000000 0.000000 0.028196 0.000000
# 6 0.000000 0.000000 0.000000 0.000000 0.000000 -0.105827
#
#
# Mechanical properties :
#
#
# Convention : Reuss Voigt Hill
#
# Bulk Modulus (GPa) = 33.26522 57.17009 45.21765
# Shear Modulus (GPa) = 73.38904 23.58695 48.48800
#
# Velocity S-wave (km/s) = 5.75675 3.26360 4.67928
# Velocity P-wave (km/s) = 7.69470 6.32595 7.04365
#
# Compressibility (1/GPa) = 0.03006143
#
# Stress axis : x y z
#
# Youngs Moduli (GPa) = 129.18939 45.16877 44.86221
#
# Poissons Ratio (x) = 0.01031 0.35210
# Poissons Ratio (y) = 0.02949 0.13358
# Poissons Ratio (z) = 1.01395 0.13449
#
# Static dielectric constant tensor:
#      x y z
#    x 1.901680 0.000000 0.000000 
#    y 0.000000 1.791820 0.000000 
#    z 0.000000 0.000000 1.766920 
# 
# From -- ./inp_files/9628.got.cif
#   From: 2010.05.17/outbox.cif.g08.bks.cpg/sg63_5_cif.got.tgz:9628.got - 2010.06.03 15:47:04.
