data_PCOD9471141
_publ_section_title
;
Structure prediction by ZEFSAII (Michael W. Deem and Ramdas Pophale) SiO2 
 PCOD9471141
Probable space group: C M C M
;
_chemical_formula_sum "Si O2"
_cell_formula_units_Z 44
_cell_length_a 17.424104
_cell_length_b 5.074229
_cell_length_c 19.505517
_cell_angle_alpha 90.000000
_cell_angle_beta 90.000000
_cell_angle_gamma 90.000000
_cell_volume 1724.558709
_symmetry_space_group_name_H-M "C M C M"
_symmetry_group_IT_number 63
_symmetry_cell_setting 'orthorhombic'
loop_
_space_group_symop_operation_xyz
x,y,z
-x,-y,1/2+z
x,-y,-z
-x,y,1/2-z
-x,-y,-z
x,y,1/2-z
-x,y,z
x,-y,1/2+z
1/2+x,1/2+y,z
1/2-x,1/2-y,1/2+z
1/2+x,1/2-y,-z
1/2-x,1/2+y,1/2-z
1/2-x,1/2-y,-z
1/2+x,1/2+y,1/2-z
1/2-x,1/2+y,z
1/2+x,1/2-y,1/2+z
loop_
_atom_site_type_symbol
_atom_site_label
_atom_site_fract_x
_atom_site_fract_y
_atom_site_fract_z
Si Si1 0.195397 0.095247 0.828257
Si Si2 0.500000 0.920941 0.250000
Si Si3 0.693467 0.000000 0.500000
Si Si4 0.416113 0.782143 0.112247
O O1 0.167103 0.088081 0.750000
O O2 0.258541 0.863798 0.836977
O O3 0.125792 0.996886 0.874919
O O4 0.434245 0.902922 0.187924
O O5 0.750000 0.250000 0.500000
O O6 0.636923 0.045958 0.563734
O O7 0.500000 0.742077 0.080638
#
# Coordination Sequence:
#
# PCOD9471141 Si02
#       4
#    16   4   8  16
#     4  10  19  34  57  87 124 167 214 268 325 390
#     4   8  20  38  76  98 148 172 238 282 364 396
#     4  12  27  48  73 102 140 188 236 286 345 418
#     4  10  20  42  68 103 136 184 227 286 349 413
#
# _framework density 25.513771999999999
#
# number of rings (size 3 to 8) (size 9 to 14) (size 15 to 20)
#    1.091    0.727    1.818    2.727    0.000    0.000 
#    0.000    9.091    0.000   15.273    0.000    0.000 
#    0.000    0.000    0.000    0.000    0.000    0.000 
#
# Total GULP energy -122639.147871 kJ/mol
# GULP energy per Si atom -5574.506721 kJ/mol
# Density = 2.545570 g / cm^3
# Si number density = 25.513772 Si / 1000 Ang^3
#
#
#
# Elastic Constant Matrix: (Units=GPa)
#
#
# Indices 1 2 3 4 5 6 
#
# 1 174.5839 55.7939 58.1851 0.0000 0.0000 0.0000
# 2 55.7939 127.6353 33.5171 0.0000 0.0000 0.0000
# 3 58.1851 33.5171 117.4065 0.0000 0.0000 0.0000
# 4 0.0000 0.0000 0.0000 20.3954 0.0000 0.0000
# 5 0.0000 0.0000 0.0000 0.0000 83.3128 0.0000
# 6 0.0000 0.0000 0.0000 0.0000 0.0000 -1.0786
#
#
#
# Elastic Compliance Matrix: (Units=1/GPa)
#
#
# Indices 1 2 3 4 5 6 
#
# 1 0.007533 -0.002500 -0.003020 0.000000 0.000000 0.000000
# 2 -0.002500 0.009299 -0.001416 0.000000 0.000000 0.000000
# 3 -0.003020 -0.001416 0.010418 0.000000 0.000000 0.000000
# 4 0.000000 0.000000 0.000000 0.049031 0.000000 0.000000
# 5 0.000000 0.000000 0.000000 0.000000 0.012003 0.000000
# 6 0.000000 0.000000 0.000000 0.000000 0.000000 -0.927124
#
#
# Mechanical properties :
#
#
# Convention : Reuss Voigt Hill
#
# Bulk Modulus (GPa) = 74.73979 79.40199 77.07089
# Shear Modulus (GPa) = -6.09378 38.66788 16.28705
#
# Velocity S-wave (km/s) = -1.54713 3.89725 2.52933
# Velocity P-wave (km/s) = 5.11527 7.17219 6.22922
#
# Compressibility (1/GPa) = 0.01337975
#
# Stress axis : x y z
#
# Youngs Moduli (GPa) = 132.74417 107.53267 95.98679
#
# Poissons Ratio (x) = 0.26884 0.28985
# Poissons Ratio (y) = 0.33187 0.13590
# Poissons Ratio (z) = 0.40084 0.15224
#
# Static dielectric constant tensor:
#      x y z
#    x 1.998900 0.000000 0.000000 
#    y 0.000000 2.056920 0.000000 
#    z 0.000000 0.000000 2.114310 
# 
# From -- ./inp_files/63356.got.cif
#   From: 2010.05.17/outbox.cif.g08.bks.cpg/sg63_32_cif.got.tgz:63356.got - 2010.06.03 15:47:04.
