data_PCOD9471811
_publ_section_title
;
Structure prediction by ZEFSAII (Michael W. Deem and Ramdas Pophale) SiO2 
 PCOD9471811
Probable space group: C M C M
;
_chemical_formula_sum "Si O2"
_cell_formula_units_Z 56
_cell_length_a 13.396248
_cell_length_b 26.780360
_cell_length_c 9.574891
_cell_angle_alpha 90.000000
_cell_angle_beta 90.000000
_cell_angle_gamma 90.000000
_cell_volume 3435.052890
_symmetry_space_group_name_H-M "C M C M"
_symmetry_group_IT_number 63
_symmetry_cell_setting 'orthorhombic'
loop_
_space_group_symop_operation_xyz
x,y,z
-x,-y,1/2+z
x,-y,-z
-x,y,1/2-z
-x,-y,-z
x,y,1/2-z
-x,y,z
x,-y,1/2+z
1/2+x,1/2+y,z
1/2-x,1/2-y,1/2+z
1/2+x,1/2-y,-z
1/2-x,1/2+y,1/2-z
1/2-x,1/2-y,-z
1/2+x,1/2+y,1/2-z
1/2-x,1/2+y,z
1/2+x,1/2-y,1/2+z
loop_
_atom_site_type_symbol
_atom_site_label
_atom_site_fract_x
_atom_site_fract_y
_atom_site_fract_z
Si Si1 0.617526 0.322677 0.250000
Si Si2 0.220599 0.351376 0.480432
Si Si3 0.216004 0.281103 0.750000
Si Si4 0.383406 0.948601 0.583900
Si Si5 0.891143 0.297465 0.250000
O O1 0.500000 0.335060 0.250000
O O2 0.679810 0.343357 0.114857
O O3 0.631324 0.262119 0.250000
O O4 0.218730 0.315661 0.614460
O O5 0.192751 0.406927 0.527652
O O6 0.131966 0.331699 0.382107
O O7 0.314029 0.247317 0.750000
O O8 0.369125 0.955835 0.750000
O O9 0.500000 0.932691 0.564311
O O10 0.370334 0.000000 0.500000
O O11 0.000000 0.276682 0.250000
#
# Coordination Sequence:
#
# PCOD9471811 Si02
#       5
#     8  16   8  16   8
#     4  10  22  36  55  78 109 152 188 223 261 313
#     4  10  20  36  54  78 111 144 178 222 268 322
#     4  10  20  34  52  79 109 141 184 221 267 315
#     4  10  21  35  56  85 111 137 171 214 273 337
#     4  10  20  32  51  77 110 145 174 214 264 320
#
# _framework density 16.302513999999999
#
# number of rings (size 3 to 8) (size 9 to 14) (size 15 to 20)
#    0.000    2.286    1.429    4.286    4.000    5.714 
#    0.000    0.000    0.000    0.857    0.000    0.000 
#    0.000    0.000    0.000    0.000    0.000    0.000 
#
# Total GULP energy -156013.578115 kJ/mol
# GULP energy per Si atom -5571.913504 kJ/mol
# Density = 1.626541 g / cm^3
# Si number density = 16.302514 Si / 1000 Ang^3
#
#
#
# Elastic Constant Matrix: (Units=GPa)
#
#
# Indices 1 2 3 4 5 6 
#
# 1 87.3954 41.1534 38.2711 0.0000 0.0000 0.0000
# 2 41.1534 107.1629 61.3558 0.0000 0.0000 0.0000
# 3 38.2711 61.3558 138.2128 0.0000 0.0000 0.0000
# 4 0.0000 0.0000 0.0000 33.6944 0.0000 0.0000
# 5 0.0000 0.0000 0.0000 0.0000 -1.3165 0.0000
# 6 0.0000 0.0000 0.0000 0.0000 0.0000 1.7212
#
#
#
# Elastic Compliance Matrix: (Units=1/GPa)
#
#
# Indices 1 2 3 4 5 6 
#
# 1 0.014390 -0.004351 -0.002053 0.000000 0.000000 0.000000
# 2 -0.004351 0.013827 -0.004933 0.000000 0.000000 0.000000
# 3 -0.002053 -0.004933 0.009994 0.000000 0.000000 0.000000
# 4 0.000000 0.000000 0.000000 0.029679 0.000000 0.000000
# 5 0.000000 0.000000 0.000000 0.000000 -0.759593 0.000000
# 6 0.000000 0.000000 0.000000 0.000000 0.000000 0.580979
#
#
# Mechanical properties :
#
#
# Convention : Reuss Voigt Hill
#
# Bulk Modulus (GPa) = 64.36550 68.25906 66.31228
# Shear Modulus (GPa) = -60.33457 19.61921 -20.35768
#
# Velocity S-wave (km/s) = -6.09013 3.47284 -3.53759
# Velocity P-wave (km/s) = 3.14409 7.61853 4.90697
#
# Compressibility (1/GPa) = 0.01553627
#
# Stress axis : x y z
#
# Youngs Moduli (GPa) = 69.49257 72.32261 100.06174
#
# Poissons Ratio (x) = 0.31464 0.20546
# Poissons Ratio (y) = 0.30233 0.49365
# Poissons Ratio (z) = 0.14269 0.35680
#
# Static dielectric constant tensor:
#      x y z
#    x 1.540210 0.000000 0.000000 
#    y 0.000000 1.540060 0.000000 
#    z 0.000000 0.000000 1.587530 
# 
# From -- ./inp_files/4482.got.cif
#   From: 2010.05.17/outbox.cif.g08.bks.cpg/sg63_3_cif.got.tgz:4482.got - 2010.06.03 15:47:04.
