data_PCOD9471534
_publ_section_title
;
Structure prediction by ZEFSAII (Michael W. Deem and Ramdas Pophale) SiO2 
 PCOD9471534
Probable space group: C M C M
;
_chemical_formula_sum "Si O2"
_cell_formula_units_Z 88
_cell_length_a 19.300134
_cell_length_b 28.078921
_cell_length_c 7.617070
_cell_angle_alpha 90.000000
_cell_angle_beta 90.000000
_cell_angle_gamma 90.000000
_cell_volume 4127.895421
_symmetry_space_group_name_H-M "C M C M"
_symmetry_group_IT_number 63
_symmetry_cell_setting 'orthorhombic'
loop_
_space_group_symop_operation_xyz
x,y,z
-x,-y,1/2+z
x,-y,-z
-x,y,1/2-z
-x,-y,-z
x,y,1/2-z
-x,y,z
x,-y,1/2+z
1/2+x,1/2+y,z
1/2-x,1/2-y,1/2+z
1/2+x,1/2-y,-z
1/2-x,1/2+y,1/2-z
1/2-x,1/2-y,-z
1/2+x,1/2+y,1/2-z
1/2-x,1/2+y,z
1/2+x,1/2-y,1/2+z
loop_
_atom_site_type_symbol
_atom_site_label
_atom_site_fract_x
_atom_site_fract_y
_atom_site_fract_z
Si Si1 0.309363 0.288323 0.959191
Si Si2 0.500000 0.944301 0.543248
Si Si3 0.924038 0.056055 0.961135
Si Si4 0.079336 0.715160 0.535231
Si Si5 0.285810 0.604207 0.548385
Si Si6 0.136557 0.614602 0.957994
O O1 0.311735 0.295967 0.750000
O O2 0.379813 0.262368 0.017632
O O3 0.250000 0.250000 0.000000
O O4 0.294854 0.338826 0.045417
O O5 0.500000 0.938336 0.750000
O O6 0.430235 0.918764 0.477179
O O7 0.500000 0.000000 0.500000
O O8 0.925174 0.062699 0.750000
O O9 0.855220 0.081660 0.031962
O O10 0.000000 0.072490 0.027308
O O11 0.918941 0.000000 0.000000
O O12 0.080066 0.713920 0.750000
O O13 0.117407 0.667114 0.472526
O O14 0.000000 0.714317 0.478733
O O15 0.283826 0.586734 0.750000
O O16 0.209433 0.595115 0.468957
O O17 0.148303 0.620793 0.750000
#
# Coordination Sequence:
#
# PCOD9471534 Si02
#       6
#    16   8  16  16  16  16
#     4  11  21  34  54  82 114 150 190 234 282 333
#     4  12  26  42  60  86 116 148 192 242 293 346
#     4   9  19  37  60  84 114 150 188 234 291 347
#     4   9  17  32  55  78 104 146 193 230 275 332
#     4  10  21  37  58  86 119 153 190 235 290 347
#     4  10  19  37  61  81 108 151 192 234 289 343
#
# _framework density 21.318370000000002
#
# number of rings (size 3 to 8) (size 9 to 14) (size 15 to 20)
#    0.000    2.000    2.727    1.364    0.000    2.909 
#    0.000    1.818    0.000    0.000    0.000    0.000 
#    0.000    0.000    0.000    0.000    0.000    0.000 
#
# Total GULP energy -245630.123786 kJ/mol
# GULP energy per Si atom -5582.502813 kJ/mol
# Density = 2.126985 g / cm^3
# Si number density = 21.318370 Si / 1000 Ang^3
#
#
#
# Elastic Constant Matrix: (Units=GPa)
#
#
# Indices 1 2 3 4 5 6 
#
# 1 230.0423 57.9201 2.2565 0.0000 0.0000 0.0000
# 2 57.9201 61.2879 -16.5817 0.0000 0.0000 0.0000
# 3 2.2565 -16.5817 50.3728 0.0000 0.0000 0.0000
# 4 0.0000 0.0000 0.0000 21.7661 0.0000 0.0000
# 5 0.0000 0.0000 0.0000 0.0000 6.2915 0.0000
# 6 0.0000 0.0000 0.0000 0.0000 0.0000 46.5335
#
#
#
# Elastic Compliance Matrix: (Units=1/GPa)
#
#
# Indices 1 2 3 4 5 6 
#
# 1 0.005942 -0.006243 -0.002321 0.000000 0.000000 0.000000
# 2 -0.006243 0.024472 0.008335 0.000000 0.000000 0.000000
# 3 -0.002321 0.008335 0.022700 0.000000 0.000000 0.000000
# 4 0.000000 0.000000 0.000000 0.045943 0.000000 0.000000
# 5 0.000000 0.000000 0.000000 0.000000 0.158944 0.000000
# 6 0.000000 0.000000 0.000000 0.000000 0.000000 0.021490
#
#
# Mechanical properties :
#
#
# Convention : Reuss Voigt Hill
#
# Bulk Modulus (GPa) = 18.99167 47.65476 33.32322
# Shear Modulus (GPa) = 16.80669 34.79210 25.79940
#
# Velocity S-wave (km/s) = 2.81083 4.04421 3.48256
# Velocity P-wave (km/s) = 4.41161 6.64906 5.64235
#
# Compressibility (1/GPa) = 0.05265466
#
# Stress axis : x y z
#
# Youngs Moduli (GPa) = 168.30116 40.86340 44.05331
#
# Poissons Ratio (x) = 0.25512 0.10226
# Poissons Ratio (y) = 1.05075 -0.36720
# Poissons Ratio (z) = 0.39068 -0.34061
#
# Static dielectric constant tensor:
#      x y z
#    x 1.865860 0.000000 0.000000 
#    y 0.000000 1.705140 0.000000 
#    z 0.000000 0.000000 1.801030 
# 
# From -- ./inp_files/6888.got.cif
#   From: 2010.05.17/outbox.cif.g08.bks.cpg/sg63_4_cif.got.tgz:6888.got - 2010.06.03 15:47:04.
