data_PCOD9471043
_publ_section_title
;
Structure prediction by ZEFSAII (Michael W. Deem and Ramdas Pophale) SiO2 
 PCOD9471043
Probable space group: C M C M
;
_chemical_formula_sum "Si O2"
_cell_formula_units_Z 112
_cell_length_a 19.268832
_cell_length_b 17.511231
_cell_length_c 14.685390
_cell_angle_alpha 90.000000
_cell_angle_beta 90.000000
_cell_angle_gamma 90.000000
_cell_volume 4955.158513
_symmetry_space_group_name_H-M "C M C M"
_symmetry_group_IT_number 63
_symmetry_cell_setting 'orthorhombic'
loop_
_space_group_symop_operation_xyz
x,y,z
-x,-y,1/2+z
x,-y,-z
-x,y,1/2-z
-x,-y,-z
x,y,1/2-z
-x,y,z
x,-y,1/2+z
1/2+x,1/2+y,z
1/2-x,1/2-y,1/2+z
1/2+x,1/2-y,-z
1/2-x,1/2+y,1/2-z
1/2-x,1/2-y,-z
1/2+x,1/2+y,1/2-z
1/2-x,1/2+y,z
1/2+x,1/2-y,1/2+z
loop_
_atom_site_type_symbol
_atom_site_label
_atom_site_fract_x
_atom_site_fract_y
_atom_site_fract_z
Si Si1 0.079049 0.446486 0.862044
Si Si2 0.579689 0.650553 0.615956
Si Si3 0.303821 0.941848 0.358691
Si Si4 0.845450 0.996617 0.891511
Si Si5 0.420187 0.657495 0.103725
Si Si6 0.165383 0.303230 0.645534
Si Si7 0.699130 0.770293 0.358953
O O1 0.077098 0.445477 0.750000
O O2 0.126755 0.516985 0.891205
O O3 0.117919 0.369725 0.894285
O O4 0.000000 0.449801 0.893070
O O5 0.500000 0.654363 0.646126
O O6 0.616238 0.572035 0.645520
O O7 0.579038 0.651698 0.505951
O O8 0.623146 0.724069 0.645591
O O9 0.310564 0.934816 0.250000
O O10 0.294382 0.856286 0.395547
O O11 0.236253 0.993856 0.374683
O O12 0.880043 0.917708 0.860263
O O13 0.855240 0.000000 0.000000
O O14 0.500000 0.660044 0.134834
O O15 0.375004 0.731675 0.126557
O O16 0.178173 0.327450 0.750000
O O17 0.240039 0.284274 0.603181
O O18 0.711078 0.774678 0.250000
#
# Coordination Sequence:
#
# PCOD9471043 Si02
#       7
#    16  16  16  16  16  16  16
#     4   9  18  32  52  77 103 136 176 218 268 323
#     4  10  20  35  56  81 112 148 183 225 278 331
#     4  10  20  37  58  80 109 144 184 228 272 327
#     4  10  20  37  57  82 109 146 186 227 275 330
#     4  10  22  38  56  81 113 148 186 226 271 329
#     4  10  19  34  55  81 110 139 181 231 277 326
#     4  10  21  37  57  82 110 143 183 227 275 328
#
# _framework density 22.602706999999999
#
# number of rings (size 3 to 8) (size 9 to 14) (size 15 to 20)
#    0.000    2.143    1.429    1.714    0.000    5.714 
#    2.571    1.429    0.000    3.000    0.000    0.000 
#    0.000    0.000    0.000    0.000    0.000    0.000 
#
# Total GULP energy -313070.981846 kJ/mol
# GULP energy per Si atom -5590.553247 kJ/mol
# Density = 2.255126 g / cm^3
# Si number density = 22.602707 Si / 1000 Ang^3
#
#
#
# Elastic Constant Matrix: (Units=GPa)
#
#
# Indices 1 2 3 4 5 6 
#
# 1 193.4871 69.8869 -2.6133 0.0000 0.0000 0.0000
# 2 69.8869 83.4562 2.2787 0.0000 0.0000 0.0000
# 3 -2.6133 2.2787 58.1520 0.0000 0.0000 0.0000
# 4 0.0000 0.0000 0.0000 19.7719 0.0000 0.0000
# 5 0.0000 0.0000 0.0000 0.0000 18.2200 0.0000
# 6 0.0000 0.0000 0.0000 0.0000 0.0000 29.6603
#
#
#
# Elastic Compliance Matrix: (Units=1/GPa)
#
#
# Indices 1 2 3 4 5 6 
#
# 1 0.007429 -0.006237 0.000578 0.000000 0.000000 0.000000
# 2 -0.006237 0.017231 -0.000955 0.000000 0.000000 0.000000
# 3 0.000578 -0.000955 0.017260 0.000000 0.000000 0.000000
# 4 0.000000 0.000000 0.000000 0.050577 0.000000 0.000000
# 5 0.000000 0.000000 0.000000 0.000000 0.054885 0.000000
# 6 0.000000 0.000000 0.000000 0.000000 0.000000 0.033715
#
#
# Mechanical properties :
#
#
# Convention : Reuss Voigt Hill
#
# Bulk Modulus (GPa) = 34.85331 52.68891 43.77111
# Shear Modulus (GPa) = 24.52323 31.23329 27.87826
#
# Velocity S-wave (km/s) = 3.29746 3.72134 3.51579
# Velocity P-wave (km/s) = 5.47276 6.46730 5.99071
#
# Compressibility (1/GPa) = 0.02869168
#
# Stress axis : x y z
#
# Youngs Moduli (GPa) = 134.61122 58.03452 57.93831
#
# Poissons Ratio (x) = 0.36195 -0.03350
# Poissons Ratio (y) = 0.83953 0.05536
# Poissons Ratio (z) = -0.07784 0.05545
#
# Static dielectric constant tensor:
#      x y z
#    x 1.799700 0.000000 0.000000 
#    y 0.000000 1.811800 0.000000 
#    z 0.000000 0.000000 1.907030 
# 
# From -- ./inp_files/55828.got.cif
#   From: 2010.05.17/outbox.cif.g08.bks.cpg/sg63_28_cif.got.tgz:55828.got - 2010.06.03 15:47:04.
