data_PCOD9471854
_publ_section_title
;
Structure prediction by ZEFSAII (Michael W. Deem and Ramdas Pophale) SiO2 
 PCOD9471854
Probable space group: C M C M
;
_chemical_formula_sum "Si O2"
_cell_formula_units_Z 80
_cell_length_a 14.087824
_cell_length_b 19.161785
_cell_length_c 14.399316
_cell_angle_alpha 90.000000
_cell_angle_beta 90.000000
_cell_angle_gamma 90.000000
_cell_volume 3887.064462
_symmetry_space_group_name_H-M "C M C M"
_symmetry_group_IT_number 63
_symmetry_cell_setting 'orthorhombic'
loop_
_space_group_symop_operation_xyz
x,y,z
-x,-y,1/2+z
x,-y,-z
-x,y,1/2-z
-x,-y,-z
x,y,1/2-z
-x,y,z
x,-y,1/2+z
1/2+x,1/2+y,z
1/2-x,1/2-y,1/2+z
1/2+x,1/2-y,-z
1/2-x,1/2+y,1/2-z
1/2-x,1/2-y,-z
1/2+x,1/2+y,1/2-z
1/2-x,1/2+y,z
1/2+x,1/2-y,1/2+z
loop_
_atom_site_type_symbol
_atom_site_label
_atom_site_fract_x
_atom_site_fract_y
_atom_site_fract_z
Si Si1 0.285161 0.120996 0.855512
Si Si2 0.392712 0.459287 0.135701
Si Si3 0.708214 0.601296 0.361738
Si Si4 0.606263 0.980786 0.607460
Si Si5 0.890478 0.242843 0.363964
O O1 0.262556 0.142525 0.750000
O O2 0.186193 0.095479 0.898639
O O3 0.349609 0.051528 0.850366
O O4 0.341807 0.185536 0.897605
O O5 0.390432 0.458339 0.250000
O O6 0.500000 0.445655 0.106704
O O7 0.356913 0.536130 0.107148
O O8 0.700514 0.602439 0.250000
O O9 0.816760 0.580363 0.382165
O O10 0.669314 0.675464 0.394048
O O11 0.500000 0.965354 0.641273
O O12 0.600525 0.000000 0.500000
O O13 0.892399 0.244133 0.250000
O O14 0.000000 0.238349 0.393701
#
# Coordination Sequence:
#
# PCOD9471854 Si02
#       5
#    16  16  16  16  16
#     4   9  17  29  48  72  93 118 155 193 228 271
#     4   8  13  23  41  64  89 116 144 176 217 264
#     4   9  17  29  47  70  92 117 151 188 228 274
#     4  10  20  33  48  66  91 124 158 193 234 275
#     4   9  16  27  46  72  97 118 147 191 236 273
#
# _framework density 20.581084000000001
#
# number of rings (size 3 to 8) (size 9 to 14) (size 15 to 20)
#    0.000    3.000    0.000    3.000    0.000    4.800 
#    0.000    2.000    0.000   18.600    0.000    0.000 
#    0.000    0.000    0.000    0.000    0.000    0.000 
#
# Total GULP energy -223123.633346 kJ/mol
# GULP energy per Si atom -5578.090834 kJ/mol
# Density = 2.053424 g / cm^3
# Si number density = 20.581084 Si / 1000 Ang^3
#
#
#
# Elastic Constant Matrix: (Units=GPa)
#
#
# Indices 1 2 3 4 5 6 
#
# 1 230.8790 119.7518 -1.4796 0.0000 0.0000 0.0000
# 2 119.7518 145.3373 5.2348 0.0000 0.0000 0.0000
# 3 -1.4796 5.2348 39.8267 0.0000 0.0000 0.0000
# 4 0.0000 0.0000 0.0000 5.2089 0.0000 0.0000
# 5 0.0000 0.0000 0.0000 0.0000 3.9398 0.0000
# 6 0.0000 0.0000 0.0000 0.0000 0.0000 19.4017
#
#
#
# Elastic Compliance Matrix: (Units=1/GPa)
#
#
# Indices 1 2 3 4 5 6 
#
# 1 0.007613 -0.006312 0.001113 0.000000 0.000000 0.000000
# 2 -0.006312 0.012148 -0.001831 0.000000 0.000000 0.000000
# 3 0.001113 -0.001831 0.025391 0.000000 0.000000 0.000000
# 4 0.000000 0.000000 0.000000 0.191978 0.000000 0.000000
# 5 0.000000 0.000000 0.000000 0.000000 0.253822 0.000000
# 6 0.000000 0.000000 0.000000 0.000000 0.000000 0.051542
#
#
# Mechanical properties :
#
#
# Convention : Reuss Voigt Hill
#
# Bulk Modulus (GPa) = 32.16602 73.67302 52.91952
# Shear Modulus (GPa) = 8.81960 25.21247 17.01604
#
# Velocity S-wave (km/s) = 2.07234 3.50384 2.87850
# Velocity P-wave (km/s) = 4.62482 7.22796 6.06763
#
# Compressibility (1/GPa) = 0.03108871
#
# Stress axis : x y z
#
# Youngs Moduli (GPa) = 131.36194 82.31988 39.38436
#
# Poissons Ratio (x) = 0.51964 -0.04382
# Poissons Ratio (y) = 0.82922 0.07212
# Poissons Ratio (z) = -0.14614 0.15074
#
# Static dielectric constant tensor:
#      x y z
#    x 1.735740 0.000000 0.000000 
#    y 0.000000 1.707160 0.000000 
#    z 0.000000 0.000000 1.916250 
# 
# From -- ./inp_files/43927.got.cif
#   From: 2010.05.17/outbox.cif.g08.bks.cpg/sg63_22_cif.got.tgz:43927.got - 2010.06.03 15:47:04.
