data_PCOD9471536
_publ_section_title
;
Structure prediction by ZEFSAII (Michael W. Deem and Ramdas Pophale) SiO2 
 PCOD9471536
Probable space group: C M C M
;
_chemical_formula_sum "Si O2"
_cell_formula_units_Z 96
_cell_length_a 18.678399
_cell_length_b 16.688584
_cell_length_c 15.263964
_cell_angle_alpha 90.000000
_cell_angle_beta 90.000000
_cell_angle_gamma 90.000000
_cell_volume 4758.022271
_symmetry_space_group_name_H-M "C M C M"
_symmetry_group_IT_number 63
_symmetry_cell_setting 'orthorhombic'
loop_
_space_group_symop_operation_xyz
x,y,z
-x,-y,1/2+z
x,-y,-z
-x,y,1/2-z
-x,-y,-z
x,y,1/2-z
-x,y,z
x,-y,1/2+z
1/2+x,1/2+y,z
1/2-x,1/2-y,1/2+z
1/2+x,1/2-y,-z
1/2-x,1/2+y,1/2-z
1/2-x,1/2-y,-z
1/2+x,1/2+y,1/2-z
1/2-x,1/2+y,z
1/2+x,1/2-y,1/2+z
loop_
_atom_site_type_symbol
_atom_site_label
_atom_site_fract_x
_atom_site_fract_y
_atom_site_fract_z
Si Si1 0.915609 0.650544 0.853257
Si Si2 0.317794 0.636008 0.849417
Si Si3 0.581435 0.488485 0.896654
Si Si4 0.682991 0.184684 0.348733
Si Si5 0.855092 0.817835 0.649480
Si Si6 0.807052 0.588332 0.522384
O O1 0.897013 0.645308 0.750000
O O2 0.890846 0.738057 0.888881
O O3 0.872305 0.586882 0.909635
O O4 0.000000 0.642541 0.861622
O O5 0.286836 0.631498 0.750000
O O6 0.373430 0.563137 0.859086
O O7 0.348731 0.725820 0.857382
O O8 0.257838 0.629426 0.924644
O O9 0.500000 0.485036 0.861155
O O10 0.621300 0.403735 0.885315
O O11 0.576745 0.500000 0.000000
O O12 0.665678 0.154143 0.250000
O O13 0.769736 0.192176 0.352336
O O14 0.667843 0.131053 0.433185
O O15 0.879235 0.818865 0.750000
O O16 0.781212 0.500000 0.500000
#
# Coordination Sequence:
#
# PCOD9471536 Si02
#       6
#    16  16  16  16  16  16
#     4  10  22  40  63  89 117 154 203 260 313 361
#     4  11  22  39  61  87 124 166 208 253 304 367
#     4  11  24  37  55  89 129 168 206 249 308 375
#     4  10  22  39  62  91 123 162 208 253 302 366
#     4  10  19  37  61  85 115 154 206 256 300 356
#     4  12  24  38  63  92 122 156 202 256 315 365
#
# _framework density 20.176452000000001
#
# number of rings (size 3 to 8) (size 9 to 14) (size 15 to 20)
#    0.000    1.333    1.667    4.500    2.333    5.000 
#    0.000    0.000    0.000    1.500    0.000    0.000 
#    0.000    0.000    0.000    0.000    0.000    0.000 
#
# Total GULP energy -267974.535377 kJ/mol
# GULP energy per Si atom -5582.802820 kJ/mol
# Density = 2.013053 g / cm^3
# Si number density = 20.176452 Si / 1000 Ang^3
#
#
#
# Elastic Constant Matrix: (Units=GPa)
#
#
# Indices 1 2 3 4 5 6 
#
# 1 39.8169 -6.1079 3.4615 0.0000 0.0000 0.0000
# 2 -6.1079 50.7118 24.1799 0.0000 0.0000 0.0000
# 3 3.4615 24.1799 101.7488 0.0000 0.0000 0.0000
# 4 0.0000 0.0000 0.0000 33.1111 0.0000 0.0000
# 5 0.0000 0.0000 0.0000 0.0000 27.9221 0.0000
# 6 0.0000 0.0000 0.0000 0.0000 0.0000 15.1076
#
#
#
# Elastic Compliance Matrix: (Units=1/GPa)
#
#
# Indices 1 2 3 4 5 6 
#
# 1 0.025886 0.003990 -0.001829 0.000000 0.000000 0.000000
# 2 0.003990 0.022854 -0.005567 0.000000 0.000000 0.000000
# 3 -0.001829 -0.005567 0.011213 0.000000 0.000000 0.000000
# 4 0.000000 0.000000 0.000000 0.030201 0.000000 0.000000
# 5 0.000000 0.000000 0.000000 0.000000 0.035814 0.000000
# 6 0.000000 0.000000 0.000000 0.000000 0.000000 0.066192
#
#
# Mechanical properties :
#
#
# Convention : Reuss Voigt Hill
#
# Bulk Modulus (GPa) = 18.81764 26.14940 22.48352
# Shear Modulus (GPa) = 23.07485 26.61110 24.84298
#
# Velocity S-wave (km/s) = 3.38546 3.63563 3.51277
# Velocity P-wave (km/s) = 4.96272 5.53283 5.25551
#
# Compressibility (1/GPa) = 0.05314163
#
# Stress axis : x y z
#
# Youngs Moduli (GPa) = 38.63097 43.75575 89.18009
#
# Poissons Ratio (x) = -0.17458 0.16309
# Poissons Ratio (y) = -0.15413 0.49645
# Poissons Ratio (z) = 0.07065 0.24358
#
# Static dielectric constant tensor:
#      x y z
#    x 1.701620 0.000000 0.000000 
#    y 0.000000 1.751620 0.000000 
#    z 0.000000 0.000000 1.779420 
# 
# From -- ./inp_files/35294.got.cif
#   From: 2010.05.17/outbox.cif.g08.bks.cpg/sg63_18_cif.got.tgz:35294.got - 2010.06.03 15:47:04.
