data_PCOD9471218
_publ_section_title
;
Structure prediction by ZEFSAII (Michael W. Deem and Ramdas Pophale) SiO2 
 PCOD9471218
Probable space group: C M C M
;
_chemical_formula_sum "Si O2"
_cell_formula_units_Z 96
_cell_length_a 26.845477
_cell_length_b 9.295442
_cell_length_c 23.421015
_cell_angle_alpha 90.000000
_cell_angle_beta 90.000000
_cell_angle_gamma 90.000000
_cell_volume 5844.493537
_symmetry_space_group_name_H-M "C M C M"
_symmetry_group_IT_number 63
_symmetry_cell_setting 'orthorhombic'
loop_
_space_group_symop_operation_xyz
x,y,z
-x,-y,1/2+z
x,-y,-z
-x,y,1/2-z
-x,-y,-z
x,y,1/2-z
-x,y,z
x,-y,1/2+z
1/2+x,1/2+y,z
1/2-x,1/2-y,1/2+z
1/2+x,1/2-y,-z
1/2-x,1/2+y,1/2-z
1/2-x,1/2-y,-z
1/2+x,1/2+y,1/2-z
1/2-x,1/2+y,z
1/2+x,1/2-y,1/2+z
loop_
_atom_site_type_symbol
_atom_site_label
_atom_site_fract_x
_atom_site_fract_y
_atom_site_fract_z
Si Si1 0.203843 0.202614 0.624017
Si Si2 0.639529 0.355392 0.468973
Si Si3 0.296556 0.139597 0.540938
Si Si4 0.267270 0.747147 0.750000
Si Si5 0.361196 0.009206 0.371795
Si Si6 0.442166 0.116762 0.051053
Si Si7 0.677787 0.054925 0.750000
O O1 0.161982 0.107748 0.593259
O O2 0.253679 0.179912 0.586630
O O3 0.212786 0.179601 0.690848
O O4 0.179263 0.361419 0.619968
O O5 0.626759 0.500000 0.500000
O O6 0.684454 0.270299 0.501527
O O7 0.592712 0.250536 0.465342
O O8 0.343450 0.102425 0.580712
O O9 0.285357 0.000000 0.500000
O O10 0.209488 0.701789 0.750000
O O11 0.284233 0.915214 0.750000
O O12 0.354308 0.958165 0.307421
O O13 0.415595 0.058717 0.391424
O O14 0.500000 0.151590 0.058981
O O15 0.438425 0.000000 0.000000
#
# Coordination Sequence:
#
# PCOD9471218 Si02
#       7
#    16  16  16   8  16  16   8
#     4  10  21  31  48  71 106 138 176 208 244 304
#     4  11  22  32  49  79 105 131 169 216 259 314
#     4  12  19  32  50  71 106 140 170 204 258 311
#     4  10  20  32  46  68  96 150 170 202 244 290
#     4  10  19  35  52  76 101 137 174 214 248 306
#     4  10  19  37  58  75  98 132 171 215 267 311
#     4  10  20  34  51  70 110 134 179 206 242 296
#
# _framework density 16.425716999999999
#
# number of rings (size 3 to 8) (size 9 to 14) (size 15 to 20)
#    0.000    1.500    6.667    1.000    2.333    0.333 
#    0.000    0.417    0.000    0.000    0.000    0.000 
#    0.000    0.000    0.000    0.000    0.000    0.000 
#
# Total GULP energy -267347.824454 kJ/mol
# GULP energy per Si atom -5569.746343 kJ/mol
# Density = 1.638833 g / cm^3
# Si number density = 16.425717 Si / 1000 Ang^3
#
#
#
# Elastic Constant Matrix: (Units=GPa)
#
#
# Indices 1 2 3 4 5 6 
#
# 1 100.5305 22.2591 42.9613 0.0000 0.0000 0.0000
# 2 22.2591 28.9014 18.7978 0.0000 0.0000 0.0000
# 3 42.9613 18.7978 122.1502 0.0000 0.0000 0.0000
# 4 0.0000 0.0000 0.0000 13.1078 0.0000 0.0000
# 5 0.0000 0.0000 0.0000 0.0000 16.1300 0.0000
# 6 0.0000 0.0000 0.0000 0.0000 0.0000 14.4617
#
#
#
# Elastic Compliance Matrix: (Units=1/GPa)
#
#
# Indices 1 2 3 4 5 6 
#
# 1 0.013157 -0.007916 -0.003409 0.000000 0.000000 0.000000
# 2 -0.007916 0.043211 -0.003866 0.000000 0.000000 0.000000
# 3 -0.003409 -0.003866 0.009981 0.000000 0.000000 0.000000
# 4 0.000000 0.000000 0.000000 0.076290 0.000000 0.000000
# 5 0.000000 0.000000 0.000000 0.000000 0.061996 0.000000
# 6 0.000000 0.000000 0.000000 0.000000 0.000000 0.069148
#
#
# Mechanical properties :
#
#
# Convention : Reuss Voigt Hill
#
# Bulk Modulus (GPa) = 27.80305 46.62426 37.21365
# Shear Modulus (GPa) = 15.81508 19.91082 17.86295
#
# Velocity S-wave (km/s) = 3.10631 3.48541 3.30130
# Velocity P-wave (km/s) = 5.46158 6.68161 6.10216
#
# Compressibility (1/GPa) = 0.03596728
#
# Stress axis : x y z
#
# Youngs Moduli (GPa) = 76.00637 23.14218 100.19434
#
# Poissons Ratio (x) = 0.18318 0.34158
# Poissons Ratio (y) = 0.60164 0.38733
# Poissons Ratio (z) = 0.25912 0.08946
#
# Static dielectric constant tensor:
#      x y z
#    x 1.538810 0.000000 0.000000 
#    y 0.000000 1.595540 0.000000 
#    z 0.000000 0.000000 1.580800 
# 
# From -- ./inp_files/65380.got.cif
#   From: 2010.05.17/outbox.cif.g08.bks.cpg/sg63_33_cif.got.tgz:65380.got - 2010.06.03 15:47:04.
