data_PCOD9471591
_publ_section_title
;
Structure prediction by ZEFSAII (Michael W. Deem and Ramdas Pophale) SiO2 
 PCOD9471591
Probable space group: C M C M
;
_chemical_formula_sum "Si O2"
_cell_formula_units_Z 72
_cell_length_a 9.642501
_cell_length_b 14.350791
_cell_length_c 29.036087
_cell_angle_alpha 90.000000
_cell_angle_beta 90.000000
_cell_angle_gamma 90.000000
_cell_volume 4017.941610
_symmetry_space_group_name_H-M "C M C M"
_symmetry_group_IT_number 63
_symmetry_cell_setting 'orthorhombic'
loop_
_space_group_symop_operation_xyz
x,y,z
-x,-y,1/2+z
x,-y,-z
-x,y,1/2-z
-x,-y,-z
x,y,1/2-z
-x,y,z
x,-y,1/2+z
1/2+x,1/2+y,z
1/2-x,1/2-y,1/2+z
1/2+x,1/2-y,-z
1/2-x,1/2+y,1/2-z
1/2-x,1/2-y,-z
1/2+x,1/2+y,1/2-z
1/2-x,1/2+y,z
1/2+x,1/2-y,1/2+z
loop_
_atom_site_type_symbol
_atom_site_label
_atom_site_fract_x
_atom_site_fract_y
_atom_site_fract_z
Si Si1 0.333987 0.998178 0.750000
Si Si2 0.708121 0.893193 0.577139
Si Si3 0.000000 0.705950 0.491294
Si Si4 0.500000 0.042156 0.948125
Si Si5 0.330995 0.211718 0.750000
Si Si6 0.665042 0.837761 0.819111
Si Si7 0.000000 0.092191 0.030819
O O1 0.500000 0.004714 0.750000
O O2 0.285798 0.103818 0.750000
O O3 0.297383 0.935678 0.705752
O O4 0.630527 0.829957 0.538723
O O5 0.688595 0.847507 0.626752
O O6 0.864376 0.905272 0.562117
O O7 0.631212 0.994005 0.576004
O O8 0.000000 0.651170 0.540544
O O9 0.000000 0.815109 0.499548
O O10 0.500000 0.000000 0.000000
O O11 0.500000 0.219641 0.750000
O O12 0.261291 0.262237 0.793988
O O13 0.500000 0.820337 0.810641
O O14 0.000000 0.000000 0.000000
#
# Coordination Sequence:
#
# PCOD9471591 Si02
#       7
#     8  16   8   8   8  16   8
#     4   8  18  37  60  83 112 151 183 224 284 346
#     4  10  20  37  60  86 112 147 201 239 278 338
#     4  10  20  40  60  80 112 159 196 230 281 346
#     4   8  16  36  60  78 105 149 193 232 268 330
#     4  10  21  37  60  89 124 143 181 234 300 342
#     4  10  19  40  63  84 114 154 195 233 273 342
#     4  12  24  38  54  83 127 155 183 238 307 332
#
# _framework density 17.919623999999999
#
# number of rings (size 3 to 8) (size 9 to 14) (size 15 to 20)
#    0.000    2.444    2.222    3.667    1.556    0.000 
#    8.000    4.444    0.000    0.000    0.000    0.000 
#    0.000    0.000    0.000    0.000    0.000    0.000 
#
# Total GULP energy -200649.495267 kJ/mol
# GULP energy per Si atom -5573.597091 kJ/mol
# Density = 1.787884 g / cm^3
# Si number density = 17.919624 Si / 1000 Ang^3
#
#
#
# Elastic Constant Matrix: (Units=GPa)
#
#
# Indices 1 2 3 4 5 6 
#
# 1 136.9760 38.1341 35.3339 0.0000 0.0000 0.0000
# 2 38.1341 142.6355 29.8721 0.0000 0.0000 0.0000
# 3 35.3339 29.8721 63.2186 0.0000 0.0000 0.0000
# 4 0.0000 0.0000 0.0000 5.7240 0.0000 0.0000
# 5 0.0000 0.0000 0.0000 0.0000 36.7542 0.0000
# 6 0.0000 0.0000 0.0000 0.0000 0.0000 13.9475
#
#
#
# Elastic Compliance Matrix: (Units=1/GPa)
#
#
# Indices 1 2 3 4 5 6 
#
# 1 0.008799 -0.001468 -0.004224 0.000000 0.000000 0.000000
# 2 -0.001468 0.008026 -0.002972 0.000000 0.000000 0.000000
# 3 -0.004224 -0.002972 0.019583 0.000000 0.000000 0.000000
# 4 0.000000 0.000000 0.000000 0.174703 0.000000 0.000000
# 5 0.000000 0.000000 0.000000 0.000000 0.027208 0.000000
# 6 0.000000 0.000000 0.000000 0.000000 0.000000 0.071697
#
#
# Mechanical properties :
#
#
# Convention : Reuss Voigt Hill
#
# Bulk Modulus (GPa) = 52.41078 61.05671 56.73374
# Shear Modulus (GPa) = 14.98332 27.25113 21.11723
#
# Velocity S-wave (km/s) = 2.89475 3.90390 3.43657
# Velocity P-wave (km/s) = 6.36270 7.38018 6.89025
#
# Compressibility (1/GPa) = 0.01908005
#
# Stress axis : x y z
#
# Youngs Moduli (GPa) = 113.65131 124.59973 51.06342
#
# Poissons Ratio (x) = 0.18288 0.21571
# Poissons Ratio (y) = 0.16681 0.15176
# Poissons Ratio (z) = 0.48010 0.37031
#
# Static dielectric constant tensor:
#      x y z
#    x 1.618340 0.000000 0.000000 
#    y 0.000000 1.644520 0.000000 
#    z 0.000000 0.000000 1.604740 
# 
# From -- ./inp_files/71509.got.cif
#   From: 2010.05.17/outbox.cif.g08.bks.cpg/sg63_36_cif.got.tgz:71509.got - 2010.06.03 15:47:04.
