data_PCOD9471468
_publ_section_title
;
Structure prediction by ZEFSAII (Michael W. Deem and Ramdas Pophale) SiO2 
 PCOD9471468
Probable space group: C M C M
;
_chemical_formula_sum "Si O2"
_cell_formula_units_Z 96
_cell_length_a 23.659544
_cell_length_b 28.855389
_cell_length_c 7.737220
_cell_angle_alpha 90.000000
_cell_angle_beta 90.000000
_cell_angle_gamma 90.000000
_cell_volume 5282.241455
_symmetry_space_group_name_H-M "C M C M"
_symmetry_group_IT_number 63
_symmetry_cell_setting 'orthorhombic'
loop_
_space_group_symop_operation_xyz
x,y,z
-x,-y,1/2+z
x,-y,-z
-x,y,1/2-z
-x,-y,-z
x,y,1/2-z
-x,y,z
x,-y,1/2+z
1/2+x,1/2+y,z
1/2-x,1/2-y,1/2+z
1/2+x,1/2-y,-z
1/2-x,1/2+y,1/2-z
1/2-x,1/2-y,-z
1/2+x,1/2+y,1/2-z
1/2-x,1/2+y,z
1/2+x,1/2-y,1/2+z
loop_
_atom_site_type_symbol
_atom_site_label
_atom_site_fract_x
_atom_site_fract_y
_atom_site_fract_z
Si Si1 0.746952 0.195981 0.455588
Si Si2 0.932036 0.253285 0.250000
Si Si3 0.244275 0.553879 0.957900
Si Si4 0.567230 0.137895 0.750000
Si Si5 0.162140 0.121076 0.948556
Si Si6 0.850551 0.625719 0.051705
Si Si7 0.567414 0.315568 0.045380
O O1 0.754213 0.190703 0.250000
O O2 0.750000 0.250000 0.500000
O O3 0.796048 0.165516 0.542546
O O4 0.687943 0.170388 0.499778
O O5 0.920240 0.307140 0.250000
O O6 0.913245 0.226570 0.422753
O O7 0.000000 0.249644 0.250000
O O8 0.241489 0.560242 0.750000
O O9 0.301418 0.579114 0.024790
O O10 0.242942 0.500000 0.000000
O O11 0.192126 0.582407 0.036138
O O12 0.500000 0.130586 0.750000
O O13 0.598228 0.119217 0.579653
O O14 0.151418 0.108437 0.750000
O O15 0.102714 0.139768 0.016846
O O16 0.868736 0.631579 0.250000
O O17 0.579097 0.307221 0.250000
O O18 0.500000 0.321723 0.028600
#
# Coordination Sequence:
#
# PCOD9471468 Si02
#       7
#    16   8  16   8  16  16  16
#     4  10  21  31  48  75 108 147 177 221 280 324
#     4   9  20  34  50  75 104 148 194 224 263 312
#     4  10  19  36  60  86 113 141 176 226 284 340
#     4  11  24  40  60  81 114 156 187 228 277 322
#     4   9  19  32  49  75 106 139 181 226 273 329
#     4  10  22  39  57  84 113 144 187 225 275 337
#     4   9  18  33  51  73 107 150 195 237 272 312
#
# _framework density 18.174102999999999
#
# number of rings (size 3 to 8) (size 9 to 14) (size 15 to 20)
#    0.000    2.333    0.833    1.000    5.833    1.667 
#    0.000    1.667    0.000    1.000    0.000    0.000 
#    0.000    0.000    0.000    0.000    0.000    0.000 
#
# Total GULP energy -267667.894396 kJ/mol
# GULP energy per Si atom -5576.414467 kJ/mol
# Density = 1.813274 g / cm^3
# Si number density = 18.174103 Si / 1000 Ang^3
#
#
#
# Elastic Constant Matrix: (Units=GPa)
#
#
# Indices 1 2 3 4 5 6 
#
# 1 47.0402 13.2412 20.8071 0.0000 0.0000 0.0000
# 2 13.2412 96.7443 -1.2449 0.0000 0.0000 0.0000
# 3 20.8071 -1.2449 64.6387 0.0000 0.0000 0.0000
# 4 0.0000 0.0000 0.0000 14.0021 0.0000 0.0000
# 5 0.0000 0.0000 0.0000 0.0000 8.9007 0.0000
# 6 0.0000 0.0000 0.0000 0.0000 0.0000 14.8934
#
#
#
# Elastic Compliance Matrix: (Units=1/GPa)
#
#
# Indices 1 2 3 4 5 6 
#
# 1 0.026029 -0.003671 -0.008449 0.000000 0.000000 0.000000
# 2 -0.003671 0.010857 0.001391 0.000000 0.000000 0.000000
# 3 -0.008449 0.001391 0.018217 0.000000 0.000000 0.000000
# 4 0.000000 0.000000 0.000000 0.071418 0.000000 0.000000
# 5 0.000000 0.000000 0.000000 0.000000 0.112351 0.000000
# 6 0.000000 0.000000 0.000000 0.000000 0.000000 0.067144
#
#
# Mechanical properties :
#
#
# Convention : Reuss Voigt Hill
#
# Bulk Modulus (GPa) = 29.72330 30.44777 30.08554
# Shear Modulus (GPa) = 14.76277 19.26724 17.01500
#
# Velocity S-wave (km/s) = 2.85317 3.25952 3.06309
# Velocity P-wave (km/s) = 5.21962 5.56379 5.39445
#
# Compressibility (1/GPa) = 0.03364364
#
# Stress axis : x y z
#
# Youngs Moduli (GPa) = 38.41835 92.10728 54.89302
#
# Poissons Ratio (x) = 0.33815 0.46382
# Poissons Ratio (y) = 0.14105 -0.07635
# Poissons Ratio (z) = 0.32461 -0.12811
#
# Static dielectric constant tensor:
#      x y z
#    x 1.637540 0.000000 0.000000 
#    y 0.000000 1.608700 0.000000 
#    z 0.000000 0.000000 1.679010 
# 
# From -- ./inp_files/10786.got.cif
#   From: 2010.05.17/outbox.cif.g08.bks.cpg/sg63_6_cif.got.tgz:10786.got - 2010.06.03 15:47:04.
