data_PCOD9471745
_publ_section_title
;
Structure prediction by ZEFSAII (Michael W. Deem and Ramdas Pophale) SiO2 
 PCOD9471745
Probable space group: C M C M
;
_chemical_formula_sum "Si O2"
_cell_formula_units_Z 96
_cell_length_a 9.022339
_cell_length_b 25.662177
_cell_length_c 25.942025
_cell_angle_alpha 90.000000
_cell_angle_beta 90.000000
_cell_angle_gamma 90.000000
_cell_volume 6006.431252
_symmetry_space_group_name_H-M "C M C M"
_symmetry_group_IT_number 63
_symmetry_cell_setting 'orthorhombic'
loop_
_space_group_symop_operation_xyz
x,y,z
-x,-y,1/2+z
x,-y,-z
-x,y,1/2-z
-x,-y,-z
x,y,1/2-z
-x,y,z
x,-y,1/2+z
1/2+x,1/2+y,z
1/2-x,1/2-y,1/2+z
1/2+x,1/2-y,-z
1/2-x,1/2+y,1/2-z
1/2-x,1/2-y,-z
1/2+x,1/2+y,1/2-z
1/2-x,1/2+y,z
1/2+x,1/2-y,1/2+z
loop_
_atom_site_type_symbol
_atom_site_label
_atom_site_fract_x
_atom_site_fract_y
_atom_site_fract_z
Si Si1 0.324494 0.885827 0.311250
Si Si2 0.329655 0.507420 0.687476
Si Si3 0.677722 0.192781 0.996317
Si Si4 0.323003 0.187119 0.111062
Si Si5 0.177386 0.810042 0.391675
Si Si6 0.820975 0.108626 0.309697
O O1 0.294702 0.879988 0.250000
O O2 0.500000 0.880684 0.319289
O O3 0.269408 0.943457 0.327206
O O4 0.237624 0.843219 0.344191
O O5 0.332639 0.505899 0.750000
O O6 0.500000 0.515216 0.670304
O O7 0.276526 0.449716 0.672325
O O8 0.500000 0.196775 0.991325
O O9 0.748045 0.169628 0.944635
O O10 0.750000 0.250000 0.000000
O O11 0.710462 0.168623 0.052436
O O12 0.500000 0.183515 0.118229
O O13 0.283797 0.248621 0.114755
O O14 0.242312 0.152499 0.153233
O O15 0.000000 0.813399 0.395860
O O16 0.774240 0.116082 0.250000
O O17 0.000000 0.109450 0.310309
#
# Coordination Sequence:
#
# PCOD9471745 Si02
#       6
#    16  16  16  16  16  16
#     4  10  20  32  48  72  98 125 158 195 237 283
#     4   8  15  30  49  67  90 122 159 195 230 273
#     4   9  17  31  49  69  93 122 160 200 236 279
#     4   9  19  32  47  70  97 125 156 191 234 281
#     4  10  20  33  49  70  96 128 162 195 237 284
#     4   9  18  31  48  71  97 126 159 193 231 276
#
# _framework density 15.982868
#
# number of rings (size 3 to 8) (size 9 to 14) (size 15 to 20)
#    0.000    2.833    0.000    3.500    0.000    6.667 
#    0.000    5.000    0.000    1.000    0.000    7.000 
#    0.000    0.000    0.000    0.000    0.000    0.000 
#
# Total GULP energy -267295.650091 kJ/mol
# GULP energy per Si atom -5568.659377 kJ/mol
# Density = 1.594649 g / cm^3
# Si number density = 15.982868 Si / 1000 Ang^3
#
#
#
# Elastic Constant Matrix: (Units=GPa)
#
#
# Indices 1 2 3 4 5 6 
#
# 1 52.8619 42.2331 48.8348 0.0000 0.0000 0.0000
# 2 42.2331 87.8818 57.2008 0.0000 0.0000 0.0000
# 3 48.8348 57.2008 87.8931 0.0000 0.0000 0.0000
# 4 0.0000 0.0000 0.0000 -3.9335 0.0000 0.0000
# 5 0.0000 0.0000 0.0000 0.0000 29.7503 0.0000
# 6 0.0000 0.0000 0.0000 0.0000 0.0000 28.0792
#
#
#
# Elastic Compliance Matrix: (Units=1/GPa)
#
#
# Indices 1 2 3 4 5 6 
#
# 1 0.042423 -0.008753 -0.017875 0.000000 0.000000 0.000000
# 2 -0.008753 0.021547 -0.009160 0.000000 0.000000 0.000000
# 3 -0.017875 -0.009160 0.027270 0.000000 0.000000 0.000000
# 4 0.000000 0.000000 0.000000 -0.254228 0.000000 0.000000
# 5 0.000000 0.000000 0.000000 0.000000 0.033613 0.000000
# 6 0.000000 0.000000 0.000000 0.000000 0.000000 0.035614
#
#
# Mechanical properties :
#
#
# Convention : Reuss Voigt Hill
#
# Bulk Modulus (GPa) = 50.84920 58.35268 54.60094
# Shear Modulus (GPa) = -319.86524 16.13708 -151.86408
#
# Velocity S-wave (km/s) = -14.16208 3.18094 -9.75823
# Velocity P-wave (km/s) = 15.34717 7.07672 9.62953
#
# Compressibility (1/GPa) = 0.01966599
#
# Stress axis : x y z
#
# Youngs Moduli (GPa) = 23.57209 46.41007 36.67046
#
# Poissons Ratio (x) = 0.40622 0.65547
# Poissons Ratio (y) = 0.20632 0.33589
# Poissons Ratio (z) = 0.42134 0.42510
#
# Static dielectric constant tensor:
#      x y z
#    x 1.531460 0.000000 0.000000 
#    y 0.000000 1.531670 0.000000 
#    z 0.000000 0.000000 1.548290 
# 
# From -- ./inp_files/67505.got.cif
#   From: 2010.05.17/outbox.cif.g08.bks.cpg/sg63_34_cif.got.tgz:67505.got - 2010.06.03 15:47:04.
