data_PCOD9471628
_publ_section_title
;
Structure prediction by ZEFSAII (Michael W. Deem and Ramdas Pophale) SiO2 
 PCOD9471628
Probable space group: C M C M
;
_chemical_formula_sum "Si O2"
_cell_formula_units_Z 96
_cell_length_a 7.848342
_cell_length_b 28.640076
_cell_length_c 24.611163
_cell_angle_alpha 90.000000
_cell_angle_beta 90.000000
_cell_angle_gamma 90.000000
_cell_volume 5532.026126
_symmetry_space_group_name_H-M "C M C M"
_symmetry_group_IT_number 63
_symmetry_cell_setting 'orthorhombic'
loop_
_space_group_symop_operation_xyz
x,y,z
-x,-y,1/2+z
x,-y,-z
-x,y,1/2-z
-x,-y,-z
x,y,1/2-z
-x,y,z
x,-y,1/2+z
1/2+x,1/2+y,z
1/2-x,1/2-y,1/2+z
1/2+x,1/2-y,-z
1/2-x,1/2+y,1/2-z
1/2-x,1/2-y,-z
1/2+x,1/2+y,1/2-z
1/2-x,1/2+y,z
1/2+x,1/2-y,1/2+z
loop_
_atom_site_type_symbol
_atom_site_label
_atom_site_fract_x
_atom_site_fract_y
_atom_site_fract_z
Si Si1 0.794565 0.178450 0.475883
Si Si2 0.702435 0.073364 0.688862
Si Si3 0.708393 0.427066 0.522136
Si Si4 0.202185 0.821306 0.189069
Si Si5 0.705037 0.268747 0.415697
Si Si6 0.704973 0.517339 0.915500
O O1 0.732720 0.125633 0.468501
O O2 0.746773 0.215326 0.429442
O O3 0.732206 0.200493 0.533013
O O4 0.000000 0.176971 0.478480
O O5 0.763542 0.061531 0.750000
O O6 0.500000 0.078725 0.690891
O O7 0.776013 0.124225 0.674188
O O8 0.743516 0.035688 0.643145
O O9 0.500000 0.426556 0.522497
O O10 0.763246 0.465846 0.566049
O O11 0.760716 0.446857 0.463059
O O12 0.274133 0.814766 0.250000
O O13 0.272050 0.788948 0.141059
O O14 0.000000 0.812356 0.192339
O O15 0.500000 0.273307 0.415041
O O16 0.500000 0.516861 0.917161
#
# Coordination Sequence:
#
# PCOD9471628 Si02
#       6
#    16  16  16  16  16  16
#     4   9  16  27  43  63  89 117 141 170 213 259
#     4  10  20  31  43  64  94 120 142 175 219 262
#     4   8  15  28  47  69  89 112 145 184 220 254
#     4   9  17  30  48  66  84 111 147 182 215 255
#     4   9  17  28  43  65  89 112 142 178 212 251
#     4   9  16  29  49  68  87 114 148 182 216 257
#
# _framework density 17.353497999999998
#
# number of rings (size 3 to 8) (size 9 to 14) (size 15 to 20)
#    0.000    3.000    0.000    2.500    0.000    4.333 
#    0.000    6.667    0.000    1.000    0.000    4.667 
#    0.000    0.000    0.000    0.000    0.000    0.000 
#
# Total GULP energy -267481.012696 kJ/mol
# GULP energy per Si atom -5572.521098 kJ/mol
# Density = 1.731400 g / cm^3
# Si number density = 17.353498 Si / 1000 Ang^3
#
#
#
# Elastic Constant Matrix: (Units=GPa)
#
#
# Indices 1 2 3 4 5 6 
#
# 1 15.6988 1.4708 6.7126 0.0000 0.0000 0.0000
# 2 1.4708 151.0275 89.5117 0.0000 0.0000 0.0000
# 3 6.7126 89.5117 116.0343 0.0000 0.0000 0.0000
# 4 0.0000 0.0000 0.0000 26.7004 0.0000 0.0000
# 5 0.0000 0.0000 0.0000 0.0000 13.5784 0.0000
# 6 0.0000 0.0000 0.0000 0.0000 0.0000 17.2426
#
#
#
# Elastic Compliance Matrix: (Units=1/GPa)
#
#
# Indices 1 2 3 4 5 6 
#
# 1 0.066038 0.002987 -0.006124 0.000000 0.000000 0.000000
# 2 0.002987 0.012334 -0.009687 0.000000 0.000000 0.000000
# 3 -0.006124 -0.009687 0.016445 0.000000 0.000000 0.000000
# 4 0.000000 0.000000 0.000000 0.037453 0.000000 0.000000
# 5 0.000000 0.000000 0.000000 0.000000 0.073646 0.000000
# 6 0.000000 0.000000 0.000000 0.000000 0.000000 0.057996
#
#
# Mechanical properties :
#
#
# Convention : Reuss Voigt Hill
#
# Bulk Modulus (GPa) = 14.45768 53.12786 33.79277
# Shear Modulus (GPa) = 15.99397 23.84198 19.91797
#
# Velocity S-wave (km/s) = 3.03917 3.71064 3.39156
# Velocity P-wave (km/s) = 4.54585 7.00285 5.90359
#
# Compressibility (1/GPa) = 0.06916739
#
# Stress axis : x y z
#
# Youngs Moduli (GPa) = 15.14277 81.07828 60.80697
#
# Poissons Ratio (x) = -0.24215 0.37240
# Poissons Ratio (y) = -0.04523 0.58906
# Poissons Ratio (z) = 0.09274 0.78543
#
# Static dielectric constant tensor:
#      x y z
#    x 1.642780 0.000000 0.000000 
#    y 0.000000 1.578000 0.000000 
#    z 0.000000 0.000000 1.606420 
# 
# From -- ./inp_files/60194.got.cif
#   From: 2010.05.17/outbox.cif.g08.bks.cpg/sg63_31_cif.got.tgz:60194.got - 2010.06.03 15:47:04.
