data_PCOD9471879
_publ_section_title
;
Structure prediction by ZEFSAII (Michael W. Deem and Ramdas Pophale) SiO2 
 PCOD9471879
Probable space group: C M C M
;
_chemical_formula_sum "Si O2"
_cell_formula_units_Z 80
_cell_length_a 14.257825
_cell_length_b 9.644060
_cell_length_c 24.594553
_cell_angle_alpha 90.000000
_cell_angle_beta 90.000000
_cell_angle_gamma 90.000000
_cell_volume 3381.832686
_symmetry_space_group_name_H-M "C M C M"
_symmetry_group_IT_number 63
_symmetry_cell_setting 'orthorhombic'
loop_
_space_group_symop_operation_xyz
x,y,z
-x,-y,1/2+z
x,-y,-z
-x,y,1/2-z
-x,-y,-z
x,y,1/2-z
-x,y,z
x,-y,1/2+z
1/2+x,1/2+y,z
1/2-x,1/2-y,1/2+z
1/2+x,1/2-y,-z
1/2-x,1/2+y,1/2-z
1/2-x,1/2-y,-z
1/2+x,1/2+y,1/2-z
1/2-x,1/2+y,z
1/2+x,1/2-y,1/2+z
loop_
_atom_site_type_symbol
_atom_site_label
_atom_site_fract_x
_atom_site_fract_y
_atom_site_fract_z
Si Si1 0.612123 0.802830 0.808486
Si Si2 0.691741 0.476733 0.578967
Si Si3 0.387131 0.516853 0.310917
Si Si4 0.104300 0.199122 0.990245
Si Si5 0.394201 0.030259 0.080265
O O1 0.645186 0.861393 0.750000
O O2 0.500000 0.788917 0.804585
O O3 0.645352 0.644340 0.813064
O O4 0.623336 0.892950 0.862078
O O5 0.665009 0.417912 0.637900
O O6 0.619787 0.596779 0.560983
O O7 0.676963 0.355362 0.534829
O O8 0.794794 0.544612 0.574355
O O9 0.367896 0.570120 0.250000
O O10 0.500000 0.524207 0.318392
O O11 0.106275 0.353364 0.966907
O O12 0.000000 0.175557 0.012880
O O13 0.500000 0.968273 0.081195
#
# Coordination Sequence:
#
# PCOD9471879 Si02
#       5
#    16  16  16  16  16
#     4   8  14  27  47  69  95 126 158 197 243 283
#     4  11  19  30  52  77  99 126 168 202 244 289
#     4   9  16  28  49  76 101 124 158 206 250 287
#     4  10  20  35  53  73 100 130 161 204 249 292
#     4  10  20  33  49  72 102 131 166 203 240 288
#
# _framework density 23.655812000000001
#
# number of rings (size 3 to 8) (size 9 to 14) (size 15 to 20)
#    0.000    2.400    2.000    4.200    0.000    0.800 
#    0.000    2.000    0.000    3.600    0.000    0.000 
#    0.000    0.000    0.000    0.000    0.000    0.000 
#
# Total GULP energy -223210.747691 kJ/mol
# GULP energy per Si atom -5580.268692 kJ/mol
# Density = 2.360197 g / cm^3
# Si number density = 23.655812 Si / 1000 Ang^3
#
#
#
# Elastic Constant Matrix: (Units=GPa)
#
#
# Indices 1 2 3 4 5 6 
#
# 1 135.4529 -1.0989 28.3170 0.0000 0.0000 0.0000
# 2 -1.0989 25.8597 2.6528 0.0000 0.0000 0.0000
# 3 28.3170 2.6528 159.7577 0.0000 0.0000 0.0000
# 4 0.0000 0.0000 0.0000 15.8907 0.0000 0.0000
# 5 0.0000 0.0000 0.0000 0.0000 6.5906 0.0000
# 6 0.0000 0.0000 0.0000 0.0000 0.0000 6.4261
#
#
#
# Elastic Compliance Matrix: (Units=1/GPa)
#
#
# Indices 1 2 3 4 5 6 
#
# 1 0.007672 0.000466 -0.001368 0.000000 0.000000 0.000000
# 2 0.000466 0.038764 -0.000726 0.000000 0.000000 0.000000
# 3 -0.001368 -0.000726 0.006514 0.000000 0.000000 0.000000
# 4 0.000000 0.000000 0.000000 0.062930 0.000000 0.000000
# 5 0.000000 0.000000 0.000000 0.000000 0.151730 0.000000
# 6 0.000000 0.000000 0.000000 0.000000 0.000000 0.155616
#
#
# Mechanical properties :
#
#
# Convention : Reuss Voigt Hill
#
# Bulk Modulus (GPa) = 20.12257 42.31246 31.21752
# Shear Modulus (GPa) = 11.28549 25.19479 18.24014
#
# Velocity S-wave (km/s) = 2.18656 3.26706 2.77982
# Velocity P-wave (km/s) = 3.86000 5.67073 4.85061
#
# Compressibility (1/GPa) = 0.04969544
#
# Stress axis : x y z
#
# Youngs Moduli (GPa) = 130.33839 25.79680 153.51653
#
# Poissons Ratio (x) = -0.01203 0.20996
# Poissons Ratio (y) = -0.06078 0.11150
# Poissons Ratio (z) = 0.17826 0.01874
#
# Static dielectric constant tensor:
#      x y z
#    x 1.889760 0.000000 0.000000 
#    y 0.000000 1.908030 0.000000 
#    z 0.000000 0.000000 2.003980 
# 
# From -- ./inp_files/61134.got.cif
#   From: 2010.05.17/outbox.cif.g08.bks.cpg/sg63_31_cif.got.tgz:61134.got - 2010.06.03 15:47:04.
