data_PCOD9471857
_publ_section_title
;
Structure prediction by ZEFSAII (Michael W. Deem and Ramdas Pophale) SiO2 
 PCOD9471857
Probable space group: C M C M
;
_chemical_formula_sum "Si O2"
_cell_formula_units_Z 80
_cell_length_a 7.423075
_cell_length_b 19.011737
_cell_length_c 26.940801
_cell_angle_alpha 90.000000
_cell_angle_beta 90.000000
_cell_angle_gamma 90.000000
_cell_volume 3802.035349
_symmetry_space_group_name_H-M "C M C M"
_symmetry_group_IT_number 63
_symmetry_cell_setting 'orthorhombic'
loop_
_space_group_symop_operation_xyz
x,y,z
-x,-y,1/2+z
x,-y,-z
-x,y,1/2-z
-x,-y,-z
x,y,1/2-z
-x,y,z
x,-y,1/2+z
1/2+x,1/2+y,z
1/2-x,1/2-y,1/2+z
1/2+x,1/2-y,-z
1/2-x,1/2+y,1/2-z
1/2-x,1/2-y,-z
1/2+x,1/2+y,1/2-z
1/2-x,1/2+y,z
1/2+x,1/2-y,1/2+z
loop_
_atom_site_type_symbol
_atom_site_label
_atom_site_fract_x
_atom_site_fract_y
_atom_site_fract_z
Si Si1 0.720975 0.698701 0.358326
Si Si2 0.218131 0.036058 0.141700
Si Si3 0.215537 0.707610 0.949800
Si Si4 0.709101 0.701859 0.250000
Si Si5 0.288531 0.950054 0.456920
Si Si6 0.290750 0.469217 0.750000
O O1 0.500000 0.698468 0.357314
O O2 0.774706 0.617285 0.366290
O O3 0.782887 0.748539 0.402521
O O4 0.783983 0.722614 0.303578
O O5 0.273055 0.988255 0.095884
O O6 0.284616 0.010827 0.196066
O O7 0.000000 0.036561 0.143816
O O8 0.287958 0.628499 0.954281
O O9 0.000000 0.702941 0.943049
O O10 0.250000 0.750000 0.000000
O O11 0.500000 0.723801 0.250000
O O12 0.712248 0.616329 0.250000
O O13 0.500000 0.941428 0.468861
O O14 0.211014 0.000000 0.500000
O O15 0.500000 0.491383 0.750000
#
# Coordination Sequence:
#
# PCOD9471857 Si02
#       6
#    16  16  16   8  16   8
#     4   8  14  26  46  70  90 111 147 191 226 260
#     4   9  16  29  51  73  91 115 151 191 226 267
#     4  10  20  33  48  67  91 119 154 193 230 271
#     4   7  10  20  41  67  91 111 136 181 234 266
#     4  10  21  34  45  63  96 130 154 185 234 283
#     4   7  12  24  44  71  95 113 140 183 230 268
#
# _framework density 21.041360999999998
#
# number of rings (size 3 to 8) (size 9 to 14) (size 15 to 20)
#    0.000    3.200    0.000    3.600    0.000    1.200 
#    0.000    1.500    0.000    2.400    0.000    2.100 
#    0.000    0.000    0.000    0.000    0.000    0.000 
#
# Total GULP energy -223052.217187 kJ/mol
# GULP energy per Si atom -5576.305430 kJ/mol
# Density = 2.099347 g / cm^3
# Si number density = 21.041361 Si / 1000 Ang^3
#
#
#
# Elastic Constant Matrix: (Units=GPa)
#
#
# Indices 1 2 3 4 5 6 
#
# 1 62.0437 -0.9183 -13.5371 0.0000 0.0000 0.0000
# 2 -0.9183 135.0539 108.4436 0.0000 0.0000 0.0000
# 3 -13.5371 108.4436 213.4471 0.0000 0.0000 0.0000
# 4 0.0000 0.0000 0.0000 33.0725 0.0000 0.0000
# 5 0.0000 0.0000 0.0000 0.0000 -12.8060 0.0000
# 6 0.0000 0.0000 0.0000 0.0000 0.0000 -21.2679
#
#
#
# Elastic Compliance Matrix: (Units=1/GPa)
#
#
# Indices 1 2 3 4 5 6 
#
# 1 0.016463 -0.001227 0.001668 0.000000 0.000000 0.000000
# 2 -0.001227 0.012598 -0.006478 0.000000 0.000000 0.000000
# 3 0.001668 -0.006478 0.008082 0.000000 0.000000 0.000000
# 4 0.000000 0.000000 0.000000 0.030237 0.000000 0.000000
# 5 0.000000 0.000000 0.000000 0.000000 -0.078088 0.000000
# 6 0.000000 0.000000 0.000000 0.000000 0.000000 -0.047019
#
#
# Mechanical properties :
#
#
# Convention : Reuss Voigt Hill
#
# Bulk Modulus (GPa) = 39.89178 66.50232 53.19705
# Shear Modulus (GPa) = -134.06311 20.90349 -56.57981
#
# Velocity S-wave (km/s) = -7.99077 3.15532 -5.19116
# Velocity P-wave (km/s) = 8.13244 6.70439 3.25483
#
# Compressibility (1/GPa) = 0.02506782
#
# Stress axis : x y z
#
# Youngs Moduli (GPa) = 60.74098 79.37777 123.72975
#
# Poissons Ratio (x) = 0.09740 -0.20632
# Poissons Ratio (y) = 0.07453 0.80156
# Poissons Ratio (z) = -0.10129 0.51424
#
# Static dielectric constant tensor:
#      x y z
#    x 1.723260 0.000000 0.000000 
#    y 0.000000 1.724900 0.000000 
#    z 0.000000 0.000000 1.761780 
# 
# From -- ./inp_files/66689.got.cif
#   From: 2010.05.17/outbox.cif.g08.bks.cpg/sg63_34_cif.got.tgz:66689.got - 2010.06.03 15:47:04.
