data_PCOD9471701
_publ_section_title
;
Structure prediction by ZEFSAII (Michael W. Deem and Ramdas Pophale) SiO2 
 PCOD9471701
Probable space group: C M C M
;
_chemical_formula_sum "Si O2"
_cell_formula_units_Z 88
_cell_length_a 31.676104
_cell_length_b 17.879922
_cell_length_c 8.739801
_cell_angle_alpha 90.000000
_cell_angle_beta 90.000000
_cell_angle_gamma 90.000000
_cell_volume 4949.928482
_symmetry_space_group_name_H-M "C M C M"
_symmetry_group_IT_number 63
_symmetry_cell_setting 'orthorhombic'
loop_
_space_group_symop_operation_xyz
x,y,z
-x,-y,1/2+z
x,-y,-z
-x,y,1/2-z
-x,-y,-z
x,y,1/2-z
-x,y,z
x,-y,1/2+z
1/2+x,1/2+y,z
1/2-x,1/2-y,1/2+z
1/2+x,1/2-y,-z
1/2-x,1/2+y,1/2-z
1/2-x,1/2-y,-z
1/2+x,1/2+y,1/2-z
1/2-x,1/2+y,z
1/2+x,1/2-y,1/2+z
loop_
_atom_site_type_symbol
_atom_site_label
_atom_site_fract_x
_atom_site_fract_y
_atom_site_fract_z
Si Si1 0.048091 0.083533 0.433417
Si Si2 0.328416 0.078657 0.569645
Si Si3 0.909962 0.636847 0.429907
Si Si4 0.500000 0.917743 0.566223
Si Si5 0.881048 0.191964 0.570688
Si Si6 0.204007 0.734387 0.434223
O O1 0.049120 0.080304 0.250000
O O2 0.086422 0.136038 0.489487
O O3 0.000000 0.108908 0.478700
O O4 0.053352 0.000000 0.500000
O O5 0.321034 0.080437 0.750000
O O6 0.377843 0.089173 0.530636
O O7 0.308487 0.151557 0.490435
O O8 0.313748 0.000000 0.500000
O O9 0.904418 0.615857 0.250000
O O10 0.899554 0.724249 0.441157
O O11 0.957462 0.623279 0.480123
O O12 0.500000 0.921000 0.750000
O O13 0.500000 0.000000 0.500000
O O14 0.879455 0.170900 0.750000
O O15 0.832549 0.206026 0.515871
O O16 0.204067 0.735395 0.250000
O O17 0.250000 0.750000 0.500000
#
# Coordination Sequence:
#
# PCOD9471701 Si02
#       6
#    16  16  16   8  16  16
#     4  10  21  36  55  81 112 147 188 234 282 335
#     4  11  21  35  56  80 108 143 182 226 273 323
#     4   9  19  34  51  74 104 141 183 223 267 320
#     4  10  20  32  46  68 101 140 179 218 263 308
#     4   9  19  35  57  81 108 142 180 223 273 331
#     4  10  21  39  61  86 114 145 183 227 281 340
#
# _framework density 17.778034999999999
#
# number of rings (size 3 to 8) (size 9 to 14) (size 15 to 20)
#    0.000    2.182    0.000    4.364    1.273    6.909 
#    0.000    0.909    0.000    4.364    0.000    0.000 
#    0.000    0.000    0.000    0.000    0.000    0.000 
#
# Total GULP energy -245349.153683 kJ/mol
# GULP energy per Si atom -5576.117129 kJ/mol
# Density = 1.773757 g / cm^3
# Si number density = 17.778035 Si / 1000 Ang^3
#
#
#
# Elastic Constant Matrix: (Units=GPa)
#
#
# Indices 1 2 3 4 5 6 
#
# 1 158.3486 56.7601 43.5197 0.0000 0.0000 0.0000
# 2 56.7601 70.5811 33.8656 0.0000 0.0000 0.0000
# 3 43.5197 33.8656 66.8768 0.0000 0.0000 0.0000
# 4 0.0000 0.0000 0.0000 32.4114 0.0000 0.0000
# 5 0.0000 0.0000 0.0000 0.0000 31.2502 0.0000
# 6 0.0000 0.0000 0.0000 0.0000 0.0000 15.6960
#
#
#
# Elastic Compliance Matrix: (Units=1/GPa)
#
#
# Indices 1 2 3 4 5 6 
#
# 1 0.009305 -0.006047 -0.002993 0.000000 0.000000 0.000000
# 2 -0.006047 0.022645 -0.007532 0.000000 0.000000 0.000000
# 3 -0.002993 -0.007532 0.020715 0.000000 0.000000 0.000000
# 4 0.000000 0.000000 0.000000 0.030853 0.000000 0.000000
# 5 0.000000 0.000000 0.000000 0.000000 0.032000 0.000000
# 6 0.000000 0.000000 0.000000 0.000000 0.000000 0.063711
#
#
# Mechanical properties :
#
#
# Convention : Reuss Voigt Hill
#
# Bulk Modulus (GPa) = 51.22826 62.67749 56.95288
# Shear Modulus (GPa) = 22.84351 26.64893 24.74622
#
# Velocity S-wave (km/s) = 3.58848 3.87587 3.73494
# Velocity P-wave (km/s) = 6.78584 7.44056 7.12073
#
# Compressibility (1/GPa) = 0.01952047
#
# Stress axis : x y z
#
# Youngs Moduli (GPa) = 107.46455 44.15993 48.27444
#
# Poissons Ratio (x) = 0.26704 0.14450
# Poissons Ratio (y) = 0.64984 0.36361
# Poissons Ratio (z) = 0.32167 0.33262
#
# Static dielectric constant tensor:
#      x y z
#    x 1.640840 0.000000 0.000000 
#    y 0.000000 1.580410 0.000000 
#    z 0.000000 0.000000 1.598620 
# 
# From -- ./inp_files/14228.got.cif
#   From: 2010.05.17/outbox.cif.g08.bks.cpg/sg63_8_cif.got.tgz:14228.got - 2010.06.03 15:47:04.
