data_PCOD9471038
_publ_section_title
;
Structure prediction by ZEFSAII (Michael W. Deem and Ramdas Pophale) SiO2 
 PCOD9471038
Probable space group: C M C M
;
_chemical_formula_sum "Si O2"
_cell_formula_units_Z 96
_cell_length_a 8.312449
_cell_length_b 24.444371
_cell_length_c 26.000590
_cell_angle_alpha 90.000000
_cell_angle_beta 90.000000
_cell_angle_gamma 90.000000
_cell_volume 5283.127153
_symmetry_space_group_name_H-M "C M C M"
_symmetry_group_IT_number 63
_symmetry_cell_setting 'orthorhombic'
loop_
_space_group_symop_operation_xyz
x,y,z
-x,-y,1/2+z
x,-y,-z
-x,y,1/2-z
-x,-y,-z
x,y,1/2-z
-x,y,z
x,-y,1/2+z
1/2+x,1/2+y,z
1/2-x,1/2-y,1/2+z
1/2+x,1/2-y,-z
1/2-x,1/2+y,1/2-z
1/2-x,1/2-y,-z
1/2+x,1/2+y,1/2-z
1/2-x,1/2+y,z
1/2+x,1/2-y,1/2+z
loop_
_atom_site_type_symbol
_atom_site_label
_atom_site_fract_x
_atom_site_fract_y
_atom_site_fract_z
Si Si1 0.694053 0.560730 0.808605
Si Si2 0.305627 0.366932 0.900627
Si Si3 0.694622 0.366212 0.402489
Si Si4 0.807750 0.560157 0.308863
Si Si5 0.696408 0.562700 0.000868
Si Si6 0.192568 0.250081 0.440881
O O1 0.752656 0.569220 0.750000
O O2 0.500000 0.562744 0.807676
O O3 0.750518 0.605457 0.849708
O O4 0.742437 0.499480 0.825066
O O5 0.500000 0.366921 0.900423
O O6 0.247921 0.393314 0.847781
O O7 0.252365 0.405558 0.947890
O O8 0.250597 0.305341 0.912792
O O9 0.500000 0.366214 0.402326
O O10 0.747362 0.403747 0.450568
O O11 0.750667 0.304796 0.412609
O O12 0.752304 0.569569 0.250000
O O13 0.000000 0.557666 0.308878
O O14 0.500000 0.562264 0.000762
O O15 0.750633 0.500000 0.000000
O O16 0.250000 0.250000 0.500000
O O17 0.000000 0.249072 0.441666
#
# Coordination Sequence:
#
# PCOD9471038 Si02
#       6
#    16  16  16  16  16  16
#     4   9  18  34  58  84 109 144 185 220 263 323
#     4  10  20  35  54  77 105 142 186 221 262 325
#     4  10  19  34  55  79 110 145 182 223 266 316
#     4  10  21  36  55  81 112 143 176 222 278 323
#     4   9  16  28  49  76 104 136 173 214 262 315
#     4  11  22  37  56  78 108 145 184 224 271 323
#
# _framework density 18.171057000000001
#
# number of rings (size 3 to 8) (size 9 to 14) (size 15 to 20)
#    0.000    2.167    1.667    2.000    0.000    5.667 
#    0.000    0.833    0.000    5.000    0.000    0.000 
#    0.000    0.000    0.000    0.000    0.000    0.000 
#
# Total GULP energy -267928.857226 kJ/mol
# GULP energy per Si atom -5581.851192 kJ/mol
# Density = 1.812970 g / cm^3
# Si number density = 18.171057 Si / 1000 Ang^3
#
#
#
# Elastic Constant Matrix: (Units=GPa)
#
#
# Indices 1 2 3 4 5 6 
#
# 1 8.2490 16.4219 15.5685 0.0000 0.0000 0.0000
# 2 16.4219 195.4241 100.6820 0.0000 0.0000 0.0000
# 3 15.5685 100.6820 118.5741 0.0000 0.0000 0.0000
# 4 0.0000 0.0000 0.0000 27.2853 0.0000 0.0000
# 5 0.0000 0.0000 0.0000 0.0000 18.0000 0.0000
# 6 0.0000 0.0000 0.0000 0.0000 0.0000 28.9045
#
#
#
# Elastic Compliance Matrix: (Units=1/GPa)
#
#
# Indices 1 2 3 4 5 6 
#
# 1 0.163623 -0.004767 -0.017436 0.000000 0.000000 0.000000
# 2 -0.004767 0.009235 -0.007216 0.000000 0.000000 0.000000
# 3 -0.017436 -0.007216 0.016850 0.000000 0.000000 0.000000
# 4 0.000000 0.000000 0.000000 0.036650 0.000000 0.000000
# 5 0.000000 0.000000 0.000000 0.000000 0.055556 0.000000
# 6 0.000000 0.000000 0.000000 0.000000 0.000000 0.034597
#
#
# Mechanical properties :
#
#
# Convention : Reuss Voigt Hill
#
# Bulk Modulus (GPa) = 7.64112 65.28802 36.46457
# Shear Modulus (GPa) = 11.93403 27.47627 19.70515
#
# Velocity S-wave (km/s) = 2.56551 3.89278 3.29663
# Velocity P-wave (km/s) = 3.60417 7.49751 5.88229
#
# Compressibility (1/GPa) = 0.13087087
#
# Stress axis : x y z
#
# Youngs Moduli (GPa) = 6.11163 108.28137 59.34780
#
# Poissons Ratio (x) = 0.51614 1.03478
# Poissons Ratio (y) = 0.02913 0.42824
# Poissons Ratio (z) = 0.10656 0.78134
#
# Static dielectric constant tensor:
#      x y z
#    x 1.637120 0.000000 0.000000 
#    y 0.000000 1.602940 0.000000 
#    z 0.000000 0.000000 1.619790 
# 
# From -- ./inp_files/51330.got.cif
#   From: 2010.05.17/outbox.cif.g08.bks.cpg/sg63_26_cif.got.tgz:51330.got - 2010.06.03 15:47:04.
