data_PCOD9471624
_publ_section_title
;
Structure prediction by ZEFSAII (Michael W. Deem and Ramdas Pophale) SiO2 
 PCOD9471624
Probable space group: C M C M
;
_chemical_formula_sum "Si O2"
_cell_formula_units_Z 72
_cell_length_a 17.881530
_cell_length_b 8.918287
_cell_length_c 15.528159
_cell_angle_alpha 90.000000
_cell_angle_beta 90.000000
_cell_angle_gamma 90.000000
_cell_volume 2476.316146
_symmetry_space_group_name_H-M "C M C M"
_symmetry_group_IT_number 63
_symmetry_cell_setting 'orthorhombic'
loop_
_space_group_symop_operation_xyz
x,y,z
-x,-y,1/2+z
x,-y,-z
-x,y,1/2-z
-x,-y,-z
x,y,1/2-z
-x,y,z
x,-y,1/2+z
1/2+x,1/2+y,z
1/2-x,1/2-y,1/2+z
1/2+x,1/2-y,-z
1/2-x,1/2+y,1/2-z
1/2-x,1/2-y,-z
1/2+x,1/2+y,1/2-z
1/2-x,1/2+y,z
1/2+x,1/2-y,1/2+z
loop_
_atom_site_type_symbol
_atom_site_label
_atom_site_fract_x
_atom_site_fract_y
_atom_site_fract_z
Si Si1 0.751808 0.653259 0.250000
Si Si2 0.081491 0.639451 0.915582
Si Si3 0.584951 0.640355 0.250000
Si Si4 0.739916 0.143860 0.917479
Si Si5 0.580899 0.778837 0.750000
Si Si6 0.601211 0.375525 0.434765
O O1 0.669836 0.568960 0.250000
O O2 0.744667 0.754998 0.166193
O O3 0.842702 0.619583 0.250000
O O4 0.083240 0.756187 0.835904
O O5 0.161752 0.557454 0.912222
O O6 0.000000 0.564782 0.912481
O O7 0.089240 0.730289 0.005057
O O8 0.500000 0.569853 0.250000
O O9 0.816299 0.055249 0.918746
O O10 0.750000 0.250000 0.000000
O O11 0.500000 0.860842 0.750000
O O12 0.580669 0.678946 0.661748
O O13 0.569479 0.500000 0.500000
#
# Coordination Sequence:
#
# PCOD9471624 Si02
#       6
#     8  16   8  16   8  16
#     4   8  14  26  42  60  84 112 144 178 210 252
#     4   9  16  27  45  68  91 113 140 176 216 257
#     4   8  14  25  44  69  91 111 140 179 218 252
#     4   8  15  28  44  61  83 113 145 176 211 252
#     4  10  20  31  42  59  87 121 150 175 212 264
#     4  10  20  32  45  62  87 118 149 180 215 258
#
# _framework density 29.075448000000002
#
# number of rings (size 3 to 8) (size 9 to 14) (size 15 to 20)
#    0.000    3.111    0.000    0.667    0.000    2.667 
#    0.000    2.222    0.000    0.667    0.000    0.000 
#    0.000    0.000    0.000   40.444    0.000    0.222 
#
# Total GULP energy -200645.123054 kJ/mol
# GULP energy per Si atom -5573.475640 kJ/mol
# Density = 2.900927 g / cm^3
# Si number density = 29.075448 Si / 1000 Ang^3
#
#
#
# Elastic Constant Matrix: (Units=GPa)
#
#
# Indices 1 2 3 4 5 6 
#
# 1 390.3750 21.7468 -1.4586 0.0000 0.0000 0.0000
# 2 21.7468 57.1134 70.2223 0.0000 0.0000 0.0000
# 3 -1.4586 70.2223 321.5273 0.0000 0.0000 0.0000
# 4 0.0000 0.0000 0.0000 80.3688 0.0000 0.0000
# 5 0.0000 0.0000 0.0000 0.0000 60.9071 0.0000
# 6 0.0000 0.0000 0.0000 0.0000 0.0000 1.5455
#
#
#
# Elastic Compliance Matrix: (Units=1/GPa)
#
#
# Indices 1 2 3 4 5 6 
#
# 1 0.002641 -0.001395 0.000317 0.000000 0.000000 0.000000
# 2 -0.001395 0.024673 -0.005395 0.000000 0.000000 0.000000
# 3 0.000317 -0.005395 0.004290 0.000000 0.000000 0.000000
# 4 0.000000 0.000000 0.000000 0.012443 0.000000 0.000000
# 5 0.000000 0.000000 0.000000 0.000000 0.016418 0.000000
# 6 0.000000 0.000000 0.000000 0.000000 0.000000 0.647051
#
#
# Mechanical properties :
#
#
# Convention : Reuss Voigt Hill
#
# Bulk Modulus (GPa) = 53.59764 105.55964 79.57864
# Shear Modulus (GPa) = 6.88059 73.79795 40.33927
#
# Velocity S-wave (km/s) = 1.54000 5.04347 3.72882
# Velocity P-wave (km/s) = 4.65147 8.38449 6.77997
#
# Compressibility (1/GPa) = 0.01865754
#
# Stress axis : x y z
#
# Youngs Moduli (GPa) = 378.71401 40.52947 233.10650
#
# Poissons Ratio (x) = 0.05652 -0.07380
# Poissons Ratio (y) = 0.52817 1.25762
# Poissons Ratio (z) = -0.11989 0.21866
#
# Static dielectric constant tensor:
#      x y z
#    x 2.404620 0.000000 0.000000 
#    y 0.000000 2.243860 0.000000 
#    z 0.000000 0.000000 2.152830 
# 
# From -- ./inp_files/33720.got.cif
#   From: 2010.05.17/outbox.cif.g08.bks.cpg/sg63_17_cif.got.tgz:33720.got - 2010.06.03 15:47:04.
