data_PCOD9471239
_publ_section_title
;
Structure prediction by ZEFSAII (Michael W. Deem and Ramdas Pophale) SiO2 
 PCOD9471239
Probable space group: C M C M
;
_chemical_formula_sum "Si O2"
_cell_formula_units_Z 88
_cell_length_a 17.668961
_cell_length_b 31.635579
_cell_length_c 8.977558
_cell_angle_alpha 90.000000
_cell_angle_beta 90.000000
_cell_angle_gamma 90.000000
_cell_volume 5018.165948
_symmetry_space_group_name_H-M "C M C M"
_symmetry_group_IT_number 63
_symmetry_cell_setting 'orthorhombic'
loop_
_space_group_symop_operation_xyz
x,y,z
-x,-y,1/2+z
x,-y,-z
-x,y,1/2-z
-x,-y,-z
x,y,1/2-z
-x,y,z
x,-y,1/2+z
1/2+x,1/2+y,z
1/2-x,1/2-y,1/2+z
1/2+x,1/2-y,-z
1/2-x,1/2+y,1/2-z
1/2-x,1/2-y,-z
1/2+x,1/2+y,1/2-z
1/2-x,1/2+y,z
1/2+x,1/2-y,1/2+z
loop_
_atom_site_type_symbol
_atom_site_label
_atom_site_fract_x
_atom_site_fract_y
_atom_site_fract_z
Si Si1 0.763984 0.794757 0.575884
Si Si2 0.909433 0.546201 0.571368
Si Si3 0.793071 0.612664 0.069342
Si Si4 0.412951 0.314080 0.083509
Si Si5 0.363292 0.589520 0.918471
Si Si6 0.500000 0.455397 0.925137
O O1 0.750641 0.791050 0.750000
O O2 0.750000 0.750000 0.500000
O O3 0.716656 0.837013 0.526705
O O4 0.852228 0.801673 0.538844
O O5 0.890022 0.500000 0.500000
O O6 0.895665 0.545119 0.750000
O O7 0.861857 0.584737 0.497558
O O8 0.000000 0.552357 0.547931
O O9 0.793990 0.610519 0.250000
O O10 0.716869 0.592560 0.000525
O O11 0.395844 0.296269 0.250000
O O12 0.500000 0.304722 0.048398
O O13 0.399357 0.363979 0.095404
O O14 0.354948 0.572407 0.750000
O O15 0.423889 0.565773 0.016454
O O16 0.500000 0.456834 0.750000
O O17 0.500000 0.500000 0.000000
#
# Coordination Sequence:
#
# PCOD9471239 Si02
#       6
#    16  16  16  16  16   8
#     4  10  21  36  55  81 113 149 188 234 285 338
#     4  10  21  38  61  88 116 149 190 238 293 352
#     4  10  21  37  58  86 114 147 189 233 287 342
#     4   9  17  32  55  79 103 135 175 219 269 325
#     4  10  19  35  55  77 105 139 180 222 270 325
#     4  12  24  36  50  72 106 144 182 226 272 318
#
# _framework density 17.536286
#
# number of rings (size 3 to 8) (size 9 to 14) (size 15 to 20)
#    0.000    2.000    0.909    3.000    0.000    5.091 
#    0.000    4.545    0.000    1.091    0.000    0.000 
#    0.000    0.000    0.000    0.000    0.000    0.000 
#
# Total GULP energy -245024.110774 kJ/mol
# GULP energy per Si atom -5568.729790 kJ/mol
# Density = 1.749637 g / cm^3
# Si number density = 17.536286 Si / 1000 Ang^3
#
#
#
# Elastic Constant Matrix: (Units=GPa)
#
#
# Indices 1 2 3 4 5 6 
#
# 1 90.0951 67.4259 49.7354 0.0000 0.0000 0.0000
# 2 67.4259 105.4009 68.1339 0.0000 0.0000 0.0000
# 3 49.7354 68.1339 115.8338 0.0000 0.0000 0.0000
# 4 0.0000 0.0000 0.0000 31.2019 0.0000 0.0000
# 5 0.0000 0.0000 0.0000 0.0000 -10.9207 0.0000
# 6 0.0000 0.0000 0.0000 0.0000 0.0000 24.8716
#
#
#
# Elastic Compliance Matrix: (Units=1/GPa)
#
#
# Indices 1 2 3 4 5 6 
#
# 1 0.021535 -0.012584 -0.001845 0.000000 0.000000 0.000000
# 2 -0.012584 0.022661 -0.007926 0.000000 0.000000 0.000000
# 3 -0.001845 -0.007926 0.014087 0.000000 0.000000 0.000000
# 4 0.000000 0.000000 0.000000 0.032049 0.000000 0.000000
# 5 0.000000 0.000000 0.000000 0.000000 -0.091569 0.000000
# 6 0.000000 0.000000 0.000000 0.000000 0.000000 0.040206
#
#
# Mechanical properties :
#
#
# Convention : Reuss Voigt Hill
#
# Bulk Modulus (GPa) = 73.66906 75.76891 74.71898
# Shear Modulus (GPa) = 56.68573 17.43287 37.05930
#
# Velocity S-wave (km/s) = 5.69166 3.15636 4.60204
# Velocity P-wave (km/s) = 9.23548 7.52225 8.42254
#
# Compressibility (1/GPa) = 0.01357422
#
# Stress axis : x y z
#
# Youngs Moduli (GPa) = 46.43535 44.12776 70.98508
#
# Poissons Ratio (x) = 0.55530 0.13095
# Poissons Ratio (y) = 0.58434 0.56266
# Poissons Ratio (z) = 0.08566 0.34978
#
# Static dielectric constant tensor:
#      x y z
#    x 1.570930 0.000000 0.000000 
#    y 0.000000 1.612710 0.000000 
#    z 0.000000 0.000000 1.595490 
# 
# From -- ./inp_files/6856.got.cif
#   From: 2010.05.17/outbox.cif.g08.bks.cpg/sg63_4_cif.got.tgz:6856.got - 2010.06.03 15:47:04.
