data_PCOD9471461
_publ_section_title
;
Structure prediction by ZEFSAII (Michael W. Deem and Ramdas Pophale) SiO2 
 PCOD9471461
Probable space group: C M C M
;
_chemical_formula_sum "Si O2"
_cell_formula_units_Z 116
_cell_length_a 9.506252
_cell_length_b 23.862171
_cell_length_c 27.834325
_cell_angle_alpha 90.000000
_cell_angle_beta 90.000000
_cell_angle_gamma 90.000000
_cell_volume 6313.933017
_symmetry_space_group_name_H-M "C M C M"
_symmetry_group_IT_number 63
_symmetry_cell_setting 'orthorhombic'
loop_
_space_group_symop_operation_xyz
x,y,z
-x,-y,1/2+z
x,-y,-z
-x,y,1/2-z
-x,-y,-z
x,y,1/2-z
-x,y,z
x,-y,1/2+z
1/2+x,1/2+y,z
1/2-x,1/2-y,1/2+z
1/2+x,1/2-y,-z
1/2-x,1/2+y,1/2-z
1/2-x,1/2-y,-z
1/2+x,1/2+y,1/2-z
1/2-x,1/2+y,z
1/2+x,1/2-y,1/2+z
loop_
_atom_site_type_symbol
_atom_site_label
_atom_site_fract_x
_atom_site_fract_y
_atom_site_fract_z
Si Si1 0.835998 0.968819 0.192524
Si Si2 0.838640 0.970725 0.448415
Si Si3 0.835569 0.158842 0.526441
Si Si4 0.331278 0.043314 0.375380
Si Si5 0.000000 0.189681 0.750000
Si Si6 0.229691 0.654292 0.803682
Si Si7 0.668474 0.349122 0.585910
Si Si8 0.158729 0.724698 0.895874
O O1 0.838736 0.969661 0.250000
O O2 0.765216 0.909090 0.179797
O O3 0.000000 0.970175 0.176862
O O4 0.743828 0.019402 0.172250
O O5 0.819323 0.904768 0.454979
O O6 0.000000 0.981228 0.431588
O O7 0.827910 0.000000 0.500000
O O8 0.723479 0.998162 0.414398
O O9 0.793411 0.159241 0.470356
O O10 0.754408 0.198640 0.562739
O O11 0.000000 0.173242 0.527602
O O12 0.500000 0.046051 0.372264
O O13 0.260727 0.101632 0.391403
O O14 0.122772 0.183660 0.708955
O O15 0.159902 0.651579 0.750000
O O16 0.163650 0.688983 0.846881
O O17 0.500000 0.362999 0.587871
O O18 0.693235 0.289986 0.612094
O O19 0.000000 0.723932 0.914863
#
# Coordination Sequence:
#
# PCOD9471461 Si02
#       8
#    16  16  16  16   4  16  16  16
#     4  10  19  38  65  89 113 151 195 234 278 348
#     4  10  19  36  60  82 109 152 198 233 272 340
#     4  10  21  36  62  85 109 151 202 241 281 334
#     4  12  25  37  55  88 120 153 186 239 304 344
#     4   8  16  36  62  92 116 142 186 242 276 330
#     4   9  18  36  62  90 115 143 188 233 282 335
#     4  10  22  44  59  76 111 161 207 238 273 340
#     4  11  24  37  58  87 119 150 189 241 295 343
#
# _framework density 18.372067000000001
#
# number of rings (size 3 to 8) (size 9 to 14) (size 15 to 20)
#    0.414    1.379    2.069    2.483    0.966    5.241 
#    0.000    2.069    0.000    0.828    0.000    0.000 
#    0.000    0.000    0.000    0.000    0.000    0.000 
#
# Total GULP energy -322894.115026 kJ/mol
# GULP energy per Si atom -5567.139914 kJ/mol
# Density = 1.833025 g / cm^3
# Si number density = 18.372067 Si / 1000 Ang^3
#
#
#
# Elastic Constant Matrix: (Units=GPa)
#
#
# Indices 1 2 3 4 5 6 
#
# 1 87.0460 58.7353 24.6633 0.0000 0.0000 0.0000
# 2 58.7353 92.9992 50.1433 0.0000 0.0000 0.0000
# 3 24.6633 50.1433 62.3090 0.0000 0.0000 0.0000
# 4 0.0000 0.0000 0.0000 16.3920 0.0000 0.0000
# 5 0.0000 0.0000 0.0000 0.0000 25.7914 0.0000
# 6 0.0000 0.0000 0.0000 0.0000 0.0000 29.3243
#
#
#
# Elastic Compliance Matrix: (Units=1/GPa)
#
#
# Indices 1 2 3 4 5 6 
#
# 1 0.020593 -0.015211 0.004090 0.000000 0.000000 0.000000
# 2 -0.015211 0.030231 -0.018307 0.000000 0.000000 0.000000
# 3 0.004090 -0.018307 0.029163 0.000000 0.000000 0.000000
# 4 0.000000 0.000000 0.000000 0.061005 0.000000 0.000000
# 5 0.000000 0.000000 0.000000 0.000000 0.038773 0.000000
# 6 0.000000 0.000000 0.000000 0.000000 0.000000 0.034101
#
#
# Mechanical properties :
#
#
# Convention : Reuss Voigt Hill
#
# Bulk Modulus (GPa) = 47.32631 56.60421 51.96526
# Shear Modulus (GPa) = 17.87206 21.55571 19.71389
#
# Velocity S-wave (km/s) = 3.12233 3.42904 3.27928
# Velocity P-wave (km/s) = 6.23013 6.82309 6.53334
#
# Compressibility (1/GPa) = 0.02112989
#
# Stress axis : x y z
#
# Youngs Moduli (GPa) = 48.55933 33.07903 34.29024
#
# Poissons Ratio (x) = 0.50318 -0.14025
# Poissons Ratio (y) = 0.73865 0.62776
# Poissons Ratio (z) = -0.19861 0.60558
#
# Static dielectric constant tensor:
#      x y z
#    x 1.618730 0.000000 0.000000 
#    y 0.000000 1.632640 0.000000 
#    z 0.000000 0.000000 1.668780 
# 
# From -- ./inp_files/72134.got.cif
#   From: 2010.05.17/outbox.cif.g08.bks.cpg/sg63_37_cif.got.tgz:72134.got - 2010.06.03 15:47:04.
