data_PCOD9471690
_publ_section_title
;
Structure prediction by ZEFSAII (Michael W. Deem and Ramdas Pophale) SiO2 
 PCOD9471690
Probable space group: C M C M
;
_chemical_formula_sum "Si O2"
_cell_formula_units_Z 80
_cell_length_a 13.930847
_cell_length_b 24.936033
_cell_length_c 13.511770
_cell_angle_alpha 90.000000
_cell_angle_beta 90.000000
_cell_angle_gamma 90.000000
_cell_volume 4693.719480
_symmetry_space_group_name_H-M "C M C M"
_symmetry_group_IT_number 63
_symmetry_cell_setting 'orthorhombic'
loop_
_space_group_symop_operation_xyz
x,y,z
-x,-y,1/2+z
x,-y,-z
-x,y,1/2-z
-x,-y,-z
x,y,1/2-z
-x,y,z
x,-y,1/2+z
1/2+x,1/2+y,z
1/2-x,1/2-y,1/2+z
1/2+x,1/2-y,-z
1/2-x,1/2+y,1/2-z
1/2-x,1/2-y,-z
1/2+x,1/2+y,1/2-z
1/2-x,1/2+y,z
1/2+x,1/2-y,1/2+z
loop_
_atom_site_type_symbol
_atom_site_label
_atom_site_fract_x
_atom_site_fract_y
_atom_site_fract_z
Si Si1 0.885487 0.969345 0.130760
Si Si2 0.732666 0.693046 0.366747
Si Si3 0.884109 0.147236 0.862822
Si Si4 0.610197 0.413034 0.869733
Si Si5 0.113504 0.253875 0.990058
O O1 0.872078 0.966966 0.250000
O O2 0.850145 0.910738 0.096565
O O3 0.000000 0.971649 0.113479
O O4 0.852740 0.028346 0.096716
O O5 0.752143 0.697080 0.250000
O O6 0.678431 0.637181 0.387219
O O7 0.828317 0.700584 0.431815
O O8 0.660854 0.739911 0.404657
O O9 0.849432 0.154813 0.750000
O O10 0.865547 0.199586 0.926948
O O11 0.000000 0.142943 0.857790
O O12 0.603033 0.416908 0.750000
O O13 0.500000 0.403299 0.905572
O O14 0.000000 0.262425 0.994999
#
# Coordination Sequence:
#
# PCOD9471690 Si02
#       5
#    16  16  16  16  16
#     4   7  10  18  35  59  85 114 144 170 204 255
#     4  10  20  32  46  64  88 119 153 186 221 263
#     4   8  13  23  40  61  87 118 146 173 211 259
#     4   8  13  23  40  61  87 118 147 176 212 254
#     4  10  20  32  46  66  91 118 150 186 222 263
#
# _framework density 17.044053000000002
#
# number of rings (size 3 to 8) (size 9 to 14) (size 15 to 20)
#    0.000    3.400    0.000    3.600    0.000    2.400 
#    0.000    1.000    0.000    4.800    0.000    0.000 
#    0.000   14.400    0.000   47.000    0.000    3.200 
#
# Total GULP energy -222783.434574 kJ/mol
# GULP energy per Si atom -5569.585864 kJ/mol
# Density = 1.700526 g / cm^3
# Si number density = 17.044053 Si / 1000 Ang^3
#
#
#
# Elastic Constant Matrix: (Units=GPa)
#
#
# Indices 1 2 3 4 5 6 
#
# 1 65.0503 16.9363 2.2350 0.0000 0.0000 0.0000
# 2 16.9363 63.5660 2.2586 0.0000 0.0000 0.0000
# 3 2.2350 2.2586 48.1347 0.0000 0.0000 0.0000
# 4 0.0000 0.0000 0.0000 28.8860 0.0000 0.0000
# 5 0.0000 0.0000 0.0000 0.0000 12.8133 0.0000
# 6 0.0000 0.0000 0.0000 0.0000 0.0000 10.0995
#
#
#
# Elastic Compliance Matrix: (Units=1/GPa)
#
#
# Indices 1 2 3 4 5 6 
#
# 1 0.016534 -0.004385 -0.000562 0.000000 0.000000 0.000000
# 2 -0.004385 0.016921 -0.000590 0.000000 0.000000 0.000000
# 3 -0.000562 -0.000590 0.020829 0.000000 0.000000 0.000000
# 4 0.000000 0.000000 0.000000 0.034619 0.000000 0.000000
# 5 0.000000 0.000000 0.000000 0.000000 0.078044 0.000000
# 6 0.000000 0.000000 0.000000 0.000000 0.000000 0.099015
#
#
# Mechanical properties :
#
#
# Convention : Reuss Voigt Hill
#
# Bulk Modulus (GPa) = 23.14355 24.40119 23.77237
# Shear Modulus (GPa) = 17.15625 20.71451 18.93538
#
# Velocity S-wave (km/s) = 3.17611 3.48997 3.33673
# Velocity P-wave (km/s) = 5.20177 5.53060 5.36870
#
# Compressibility (1/GPa) = 0.04320859
#
# Stress axis : x y z
#
# Youngs Moduli (GPa) = 60.48238 59.09803 48.01040
#
# Poissons Ratio (x) = 0.25916 0.02698
# Poissons Ratio (y) = 0.26523 0.02834
# Poissons Ratio (z) = 0.03399 0.03489
#
# Static dielectric constant tensor:
#      x y z
#    x 1.537520 0.000000 0.000000 
#    y 0.000000 1.635480 0.000000 
#    z 0.000000 0.000000 1.691710 
# 
# From -- ./inp_files/32046.got.cif
#   From: 2010.05.17/outbox.cif.g08.bks.cpg/sg63_17_cif.got.tgz:32046.got - 2010.06.03 15:47:04.
