data_PCOD9471753
_publ_section_title
;
Structure prediction by ZEFSAII (Michael W. Deem and Ramdas Pophale) SiO2 
 PCOD9471753
Probable space group: C M C M
;
_chemical_formula_sum "Si O2"
_cell_formula_units_Z 112
_cell_length_a 14.377972
_cell_length_b 14.363463
_cell_length_c 27.396967
_cell_angle_alpha 90.000000
_cell_angle_beta 90.000000
_cell_angle_gamma 90.000000
_cell_volume 5657.952279
_symmetry_space_group_name_H-M "C M C M"
_symmetry_group_IT_number 63
_symmetry_cell_setting 'orthorhombic'
loop_
_space_group_symop_operation_xyz
x,y,z
-x,-y,1/2+z
x,-y,-z
-x,y,1/2-z
-x,-y,-z
x,y,1/2-z
-x,y,z
x,-y,1/2+z
1/2+x,1/2+y,z
1/2-x,1/2-y,1/2+z
1/2+x,1/2-y,-z
1/2-x,1/2+y,1/2-z
1/2-x,1/2-y,-z
1/2+x,1/2+y,1/2-z
1/2-x,1/2+y,z
1/2+x,1/2-y,1/2+z
loop_
_atom_site_type_symbol
_atom_site_label
_atom_site_fract_x
_atom_site_fract_y
_atom_site_fract_z
Si Si1 0.393959 0.940931 0.808182
Si Si2 0.829757 0.271218 0.961908
Si Si3 0.743348 0.682652 0.140190
Si Si4 0.605181 0.517012 0.358252
Si Si5 0.894995 0.415041 0.035908
Si Si6 0.397799 0.432977 0.462587
Si Si7 0.711803 0.898861 0.361836
O O1 0.389316 0.948947 0.750000
O O2 0.500000 0.919518 0.822714
O O3 0.323684 0.860853 0.826145
O O4 0.360871 0.037458 0.832512
O O5 0.787178 0.321823 0.914647
O O6 0.865876 0.169426 0.947305
O O7 0.750000 0.250000 0.000000
O O8 0.895958 0.330587 0.996876
O O9 0.653102 0.617505 0.146952
O O10 0.717052 0.789604 0.149194
O O11 0.500000 0.508735 0.336868
O O12 0.594929 0.495582 0.415196
O O13 0.688005 0.443463 0.346499
O O14 0.822226 0.407664 0.081012
O O15 0.000000 0.426063 0.056102
O O16 0.873068 0.500000 0.000000
O O17 0.343712 0.500000 0.500000
O O18 0.500000 0.414403 0.484703
#
# Coordination Sequence:
#
# PCOD9471753 Si02
#       7
#    16  16  16  16  16  16  16
#     4  10  24  46  71  96 124 161 210 269 335 399
#     4  12  21  35  54  85 126 169 213 253 299 374
#     4  11  23  39  65  95 128 166 210 266 318 376
#     4  10  21  37  56  83 121 162 204 249 306 368
#     4  11  23  37  57  87 128 174 218 265 316 372
#     4  10  20  32  48  73 111 160 208 248 287 347
#     4  11  22  41  64  93 125 164 211 267 318 380
#
# _framework density 19.795148000000001
#
# number of rings (size 3 to 8) (size 9 to 14) (size 15 to 20)
#    0.000    1.286    2.857    3.429    0.000    5.714 
#    0.000    0.000    0.000    6.857    0.000    0.000 
#    0.000    0.000    0.000    0.000    0.000    0.000 
#
# Total GULP energy -311899.160672 kJ/mol
# GULP energy per Si atom -5569.627869 kJ/mol
# Density = 1.975009 g / cm^3
# Si number density = 19.795148 Si / 1000 Ang^3
#
#
#
# Elastic Constant Matrix: (Units=GPa)
#
#
# Indices 1 2 3 4 5 6 
#
# 1 132.0238 47.8589 12.3948 0.0000 0.0000 0.0000
# 2 47.8589 140.9301 12.3852 0.0000 0.0000 0.0000
# 3 12.3948 12.3852 38.6986 0.0000 0.0000 0.0000
# 4 0.0000 0.0000 0.0000 21.1287 0.0000 0.0000
# 5 0.0000 0.0000 0.0000 0.0000 25.3587 0.0000
# 6 0.0000 0.0000 0.0000 0.0000 0.0000 15.2425
#
#
#
# Elastic Compliance Matrix: (Units=1/GPa)
#
#
# Indices 1 2 3 4 5 6 
#
# 1 0.008773 -0.002811 -0.001910 0.000000 0.000000 0.000000
# 2 -0.002811 0.008202 -0.001725 0.000000 0.000000 0.000000
# 3 -0.001910 -0.001725 0.027004 0.000000 0.000000 0.000000
# 4 0.000000 0.000000 0.000000 0.047329 0.000000 0.000000
# 5 0.000000 0.000000 0.000000 0.000000 0.039434 0.000000
# 6 0.000000 0.000000 0.000000 0.000000 0.000000 0.065606
#
#
# Mechanical properties :
#
#
# Convention : Reuss Voigt Hill
#
# Bulk Modulus (GPa) = 32.16748 50.77004 41.46876
# Shear Modulus (GPa) = 22.76834 28.28019 25.52427
#
# Velocity S-wave (km/s) = 3.39514 3.78384 3.59475
# Velocity P-wave (km/s) = 5.62625 6.69278 6.18256
#
# Compressibility (1/GPa) = 0.03108729
#
# Stress axis : x y z
#
# Youngs Moduli (GPa) = 113.98823 121.92176 37.03092
#
# Poissons Ratio (x) = 0.34276 0.07073
# Poissons Ratio (y) = 0.32046 0.06386
# Poissons Ratio (z) = 0.21773 0.21026
#
# Static dielectric constant tensor:
#      x y z
#    x 1.904210 0.000000 0.000000 
#    y 0.000000 1.852950 0.000000 
#    z 0.000000 0.000000 1.678650 
# 
# From -- ./inp_files/62984.got.cif
#   From: 2010.05.17/outbox.cif.g08.bks.cpg/sg63_32_cif.got.tgz:62984.got - 2010.06.03 15:47:04.
