data_PCOD9471075
_publ_section_title
;
Structure prediction by ZEFSAII (Michael W. Deem and Ramdas Pophale) SiO2 
 PCOD9471075
Probable space group: C M C M
;
_chemical_formula_sum "Si O2"
_cell_formula_units_Z 96
_cell_length_a 7.731280
_cell_length_b 21.056386
_cell_length_c 28.852019
_cell_angle_alpha 90.000000
_cell_angle_beta 90.000000
_cell_angle_gamma 90.000000
_cell_volume 4696.901419
_symmetry_space_group_name_H-M "C M C M"
_symmetry_group_IT_number 63
_symmetry_cell_setting 'orthorhombic'
loop_
_space_group_symop_operation_xyz
x,y,z
-x,-y,1/2+z
x,-y,-z
-x,y,1/2-z
-x,-y,-z
x,y,1/2-z
-x,y,z
x,-y,1/2+z
1/2+x,1/2+y,z
1/2-x,1/2-y,1/2+z
1/2+x,1/2-y,-z
1/2-x,1/2+y,1/2-z
1/2-x,1/2-y,-z
1/2+x,1/2+y,1/2-z
1/2-x,1/2+y,z
1/2+x,1/2-y,1/2+z
loop_
_atom_site_type_symbol
_atom_site_label
_atom_site_fract_x
_atom_site_fract_y
_atom_site_fract_z
Si Si1 0.293336 0.017123 0.899692
Si Si2 0.701723 0.108657 0.447989
Si Si3 0.297063 0.268968 0.896493
Si Si4 0.208183 0.058448 0.801513
Si Si5 0.290929 0.704590 0.697824
Si Si6 0.712226 0.855369 0.450346
O O1 0.500000 0.017511 0.905819
O O2 0.260230 0.016136 0.844901
O O3 0.229663 0.083937 0.920385
O O4 0.222708 0.956334 0.927304
O O5 0.500000 0.095368 0.457501
O O6 0.713472 0.165035 0.411033
O O7 0.772130 0.133462 0.497054
O O8 0.500000 0.275867 0.906005
O O9 0.273037 0.248588 0.843383
O O10 0.228217 0.210463 0.927677
O O11 0.268033 0.039109 0.750000
O O12 0.267149 0.131432 0.809721
O O13 0.000000 0.060020 0.800433
O O14 0.237850 0.723045 0.750000
O O15 0.500000 0.704615 0.696570
O O16 0.500000 0.853305 0.449151
#
# Coordination Sequence:
#
# PCOD9471075 Si02
#       6
#    16  16  16  16  16  16
#     4  10  19  34  56  81 106 137 179 222 261 306
#     4  10  21  36  54  75 108 149 181 213 259 317
#     4  11  21  34  54  81 111 138 173 223 269 310
#     4   9  18  33  54  80 108 137 169 212 267 320
#     4   9  18  34  56  80 105 136 175 215 260 319
#     4   9  18  34  55  79 104 138 182 222 261 307
#
# _framework density 20.439005999999999
#
# number of rings (size 3 to 8) (size 9 to 14) (size 15 to 20)
#    0.000    2.333    1.667    2.500    0.000    3.333 
#    0.000    4.167    0.000    3.000    0.000    0.000 
#    0.000    0.000    0.000    0.000    0.000    0.000 
#
# Total GULP energy -267945.441826 kJ/mol
# GULP energy per Si atom -5582.196705 kJ/mol
# Density = 2.039249 g / cm^3
# Si number density = 20.439006 Si / 1000 Ang^3
#
#
#
# Elastic Constant Matrix: (Units=GPa)
#
#
# Indices 1 2 3 4 5 6 
#
# 1 28.5781 -7.4777 -12.8924 0.0000 0.0000 0.0000
# 2 -7.4777 38.0917 -9.1037 0.0000 0.0000 0.0000
# 3 -12.8924 -9.1037 80.3651 0.0000 0.0000 0.0000
# 4 0.0000 0.0000 0.0000 2.3538 0.0000 0.0000
# 5 0.0000 0.0000 0.0000 0.0000 7.6153 0.0000
# 6 0.0000 0.0000 0.0000 0.0000 0.0000 4.2042
#
#
#
# Elastic Compliance Matrix: (Units=1/GPa)
#
#
# Indices 1 2 3 4 5 6 
#
# 1 0.041061 0.009903 0.007709 0.000000 0.000000 0.000000
# 2 0.009903 0.029371 0.004916 0.000000 0.000000 0.000000
# 3 0.007709 0.004916 0.014237 0.000000 0.000000 0.000000
# 4 0.000000 0.000000 0.000000 0.424845 0.000000 0.000000
# 5 0.000000 0.000000 0.000000 0.000000 0.131314 0.000000
# 6 0.000000 0.000000 0.000000 0.000000 0.000000 0.237860
#
#
# Mechanical properties :
#
#
# Convention : Reuss Voigt Hill
#
# Bulk Modulus (GPa) = 7.70866 9.78746 8.74806
# Shear Modulus (GPa) = 5.70207 14.60191 10.15199
#
# Velocity S-wave (km/s) = 1.67208 2.67575 2.23109
# Velocity P-wave (km/s) = 2.73999 3.78751 3.30551
#
# Compressibility (1/GPa) = 0.12972423
#
# Stress axis : x y z
#
# Youngs Moduli (GPa) = 24.35417 34.04680 70.24073
#
# Poissons Ratio (x) = -0.33716 -0.54148
# Poissons Ratio (y) = -0.24118 -0.34529
# Poissons Ratio (z) = -0.18774 -0.16737
#
# Static dielectric constant tensor:
#      x y z
#    x 1.770360 0.000000 0.000000 
#    y 0.000000 1.701560 0.000000 
#    z 0.000000 0.000000 1.730140 
# 
# From -- ./inp_files/59952.got.cif
#   From: 2010.05.17/outbox.cif.g08.bks.cpg/sg63_30_cif.got.tgz:59952.got - 2010.06.03 15:47:04.
