data_PCOD9471326
_publ_section_title
;
Structure prediction by ZEFSAII (Michael W. Deem and Ramdas Pophale) SiO2 
 PCOD9471326
Probable space group: C M C M
;
_chemical_formula_sum "Si O2"
_cell_formula_units_Z 96
_cell_length_a 12.425888
_cell_length_b 25.259643
_cell_length_c 16.436319
_cell_angle_alpha 90.000000
_cell_angle_beta 90.000000
_cell_angle_gamma 90.000000
_cell_volume 5158.924887
_symmetry_space_group_name_H-M "C M C M"
_symmetry_group_IT_number 63
_symmetry_cell_setting 'orthorhombic'
loop_
_space_group_symop_operation_xyz
x,y,z
-x,-y,1/2+z
x,-y,-z
-x,y,1/2-z
-x,-y,-z
x,y,1/2-z
-x,y,z
x,-y,1/2+z
1/2+x,1/2+y,z
1/2-x,1/2-y,1/2+z
1/2+x,1/2-y,-z
1/2-x,1/2+y,1/2-z
1/2-x,1/2-y,-z
1/2+x,1/2+y,1/2-z
1/2-x,1/2+y,z
1/2+x,1/2-y,1/2+z
loop_
_atom_site_type_symbol
_atom_site_label
_atom_site_fract_x
_atom_site_fract_y
_atom_site_fract_z
Si Si1 0.500000 0.711147 0.342900
Si Si2 0.265972 0.576369 0.154063
Si Si3 0.500000 0.415761 0.656913
Si Si4 0.624991 0.983399 0.405775
Si Si5 0.278653 0.241639 0.906526
Si Si6 0.373030 0.134223 0.652301
Si Si7 0.621473 0.827016 0.846644
O O1 0.500000 0.731956 0.250000
O O2 0.500000 0.647891 0.339521
O O3 0.608495 0.730265 0.385105
O O4 0.282046 0.588479 0.250000
O O5 0.385493 0.569756 0.118028
O O6 0.198768 0.523273 0.144087
O O7 0.195919 0.625332 0.119608
O O8 0.500000 0.437239 0.750000
O O9 0.500000 0.990914 0.382008
O O10 0.651215 0.922327 0.388411
O O11 0.635589 0.000000 0.500000
O O12 0.298856 0.181023 0.881845
O O13 0.183932 0.272254 0.859539
O O14 0.250000 0.250000 0.000000
O O15 0.361244 0.130335 0.750000
O O16 0.500000 0.146413 0.635901
O O17 0.612593 0.835926 0.750000
O O18 0.500000 0.827436 0.880970
#
# Coordination Sequence:
#
# PCOD9471326 Si02
#       7
#     8  16   8  16  16  16  16
#     4  11  20  40  64  87 119 167 219 259 312 379
#     4  10  19  35  59  86 116 150 195 248 301 362
#     4   9  18  32  59  89 109 143 202 255 291 347
#     4  10  22  37  58  87 122 157 196 253 317 371
#     4  12  25  36  60  90 125 159 202 266 314 370
#     4  10  21  39  63  88 117 165 222 260 304 382
#     4  10  21  36  58  86 119 157 195 242 311 380
#
# _framework density 18.608526999999999
#
# number of rings (size 3 to 8) (size 9 to 14) (size 15 to 20)
#    0.000    1.667    2.500    2.500    3.500    1.667 
#    0.000    0.417    1.833    0.000    0.000    0.000 
#    0.000    0.000    0.000    0.000    0.000    0.000 
#
# Total GULP energy -267882.637584 kJ/mol
# GULP energy per Si atom -5580.888283 kJ/mol
# Density = 1.856617 g / cm^3
# Si number density = 18.608527 Si / 1000 Ang^3
#
#
#
# Elastic Constant Matrix: (Units=GPa)
#
#
# Indices 1 2 3 4 5 6 
#
# 1 142.5770 59.5467 22.0331 0.0000 0.0000 0.0000
# 2 59.5467 121.4722 11.5906 0.0000 0.0000 0.0000
# 3 22.0331 11.5906 44.7477 0.0000 0.0000 0.0000
# 4 0.0000 0.0000 0.0000 23.3183 0.0000 0.0000
# 5 0.0000 0.0000 0.0000 0.0000 20.0202 0.0000
# 6 0.0000 0.0000 0.0000 0.0000 0.0000 34.0796
#
#
#
# Elastic Compliance Matrix: (Units=1/GPa)
#
#
# Indices 1 2 3 4 5 6 
#
# 1 0.009323 -0.004237 -0.003493 0.000000 0.000000 0.000000
# 2 -0.004237 0.010366 -0.000599 0.000000 0.000000 0.000000
# 3 -0.003493 -0.000599 0.024223 0.000000 0.000000 0.000000
# 4 0.000000 0.000000 0.000000 0.042885 0.000000 0.000000
# 5 0.000000 0.000000 0.000000 0.000000 0.049950 0.000000
# 6 0.000000 0.000000 0.000000 0.000000 0.000000 0.029343
#
#
# Mechanical properties :
#
#
# Convention : Reuss Voigt Hill
#
# Bulk Modulus (GPa) = 36.69156 55.01531 45.85344
# Shear Modulus (GPa) = 26.06444 29.85872 27.96158
#
# Velocity S-wave (km/s) = 3.74661 4.01006 3.88057
# Velocity P-wave (km/s) = 6.20295 7.14629 6.69127
#
# Compressibility (1/GPa) = 0.02725422
#
# Stress axis : x y z
#
# Youngs Moduli (GPa) = 107.26028 96.46475 41.28377
#
# Poissons Ratio (x) = 0.40872 0.14421
# Poissons Ratio (y) = 0.45446 0.02473
# Poissons Ratio (z) = 0.37467 0.05777
#
# Static dielectric constant tensor:
#      x y z
#    x 1.651770 0.000000 0.000000 
#    y 0.000000 1.636810 0.000000 
#    z 0.000000 0.000000 2.077930 
# 
# From -- ./inp_files/42567.got.cif
#   From: 2010.05.17/outbox.cif.g08.bks.cpg/sg63_22_cif.got.tgz:42567.got - 2010.06.03 15:47:04.
