data_PCOD9471996
_publ_section_title
;
Structure prediction by ZEFSAII (Michael W. Deem and Ramdas Pophale) SiO2 
 PCOD9471996
Probable space group: C M C M
;
_chemical_formula_sum "Si O2"
_cell_formula_units_Z 96
_cell_length_a 14.661455
_cell_length_b 26.233938
_cell_length_c 13.812149
_cell_angle_alpha 90.000000
_cell_angle_beta 90.000000
_cell_angle_gamma 90.000000
_cell_volume 5312.535122
_symmetry_space_group_name_H-M "C M C M"
_symmetry_group_IT_number 63
_symmetry_cell_setting 'orthorhombic'
loop_
_space_group_symop_operation_xyz
x,y,z
-x,-y,1/2+z
x,-y,-z
-x,y,1/2-z
-x,-y,-z
x,y,1/2-z
-x,y,z
x,-y,1/2+z
1/2+x,1/2+y,z
1/2-x,1/2-y,1/2+z
1/2+x,1/2-y,-z
1/2-x,1/2+y,1/2-z
1/2-x,1/2-y,-z
1/2+x,1/2+y,1/2-z
1/2-x,1/2+y,z
1/2+x,1/2-y,1/2+z
loop_
_atom_site_type_symbol
_atom_site_label
_atom_site_fract_x
_atom_site_fract_y
_atom_site_fract_z
Si Si1 0.334801 0.320426 0.996145
Si Si2 0.894377 0.663842 0.635940
Si Si3 0.000000 0.037217 0.139906
Si Si4 0.267196 0.083087 0.960463
Si Si5 0.500000 0.340018 0.639857
Si Si6 0.707300 0.518868 0.364407
Si Si7 0.737274 0.749982 0.862345
O O1 0.415011 0.321647 0.920592
O O2 0.252776 0.299143 0.928811
O O3 0.314239 0.375895 0.037076
O O4 0.342010 0.282463 0.086386
O O5 0.890594 0.649554 0.750000
O O6 0.853037 0.617182 0.573270
O O7 0.826461 0.712611 0.627459
O O8 0.000000 0.675301 0.611982
O O9 0.000000 0.098611 0.141093
O O10 0.899681 0.021408 0.102967
O O11 0.000000 0.017633 0.250000
O O12 0.245945 0.037162 0.887203
O O13 0.264013 0.057486 0.067084
O O14 0.500000 0.321278 0.750000
O O15 0.711443 0.531168 0.250000
O O16 0.724077 0.760944 0.750000
#
# Coordination Sequence:
#
# PCOD9471996 Si02
#       7
#    16  16   8  16   8  16  16
#     4  10  20  33  51  81 109 138 177 223 268 313
#     4   9  18  34  56  80 104 133 174 221 266 312
#     4   9  18  32  50  73 103 143 185 214 249 303
#     4  10  20  33  53  77 104 138 173 215 266 317
#     4  11  20  31  52  84 114 139 180 227 258 302
#     4  10  20  34  51  75 107 143 179 216 260 312
#     4   9  19  35  54  77 107 143 180 221 267 317
#
# _framework density 18.070468000000002
#
# number of rings (size 3 to 8) (size 9 to 14) (size 15 to 20)
#    0.000    2.333    1.667    1.000    1.167    3.333 
#    0.000    2.083    0.000    1.500    0.000    0.000 
#    0.000    0.000    0.000    0.000    0.000    0.000 
#
# Total GULP energy -267245.734340 kJ/mol
# GULP energy per Si atom -5567.619465 kJ/mol
# Density = 1.802934 g / cm^3
# Si number density = 18.070468 Si / 1000 Ang^3
#
#
#
# Elastic Constant Matrix: (Units=GPa)
#
#
# Indices 1 2 3 4 5 6 
#
# 1 48.6941 -5.8520 12.5997 0.0000 0.0000 0.0000
# 2 -5.8520 38.2238 -7.2590 0.0000 0.0000 0.0000
# 3 12.5997 -7.2590 95.0637 0.0000 0.0000 0.0000
# 4 0.0000 0.0000 0.0000 21.3899 0.0000 0.0000
# 5 0.0000 0.0000 0.0000 0.0000 28.6012 0.0000
# 6 0.0000 0.0000 0.0000 0.0000 0.0000 23.6926
#
#
#
# Elastic Compliance Matrix: (Units=1/GPa)
#
#
# Indices 1 2 3 4 5 6 
#
# 1 0.021557 0.002798 -0.002643 0.000000 0.000000 0.000000
# 2 0.002798 0.026910 0.001684 0.000000 0.000000 0.000000
# 3 -0.002643 0.001684 0.010998 0.000000 0.000000 0.000000
# 4 0.000000 0.000000 0.000000 0.046751 0.000000 0.000000
# 5 0.000000 0.000000 0.000000 0.000000 0.034964 0.000000
# 6 0.000000 0.000000 0.000000 0.000000 0.000000 0.042207
#
#
# Mechanical properties :
#
#
# Convention : Reuss Voigt Hill
#
# Bulk Modulus (GPa) = 15.83723 20.10655 17.97189
# Shear Modulus (GPa) = 24.90580 26.90294 25.90437
#
# Velocity S-wave (km/s) = 3.71652 3.86266 3.79029
# Velocity P-wave (km/s) = 5.21535 5.57175 5.39649
#
# Compressibility (1/GPa) = 0.06314235
#
# Stress axis : x y z
#
# Youngs Moduli (GPa) = 46.38943 37.16100 90.92395
#
# Poissons Ratio (x) = -0.10399 0.24035
# Poissons Ratio (y) = -0.12981 -0.15311
# Poissons Ratio (z) = 0.12263 -0.06258
#
# Static dielectric constant tensor:
#      x y z
#    x 3.862040 0.000000 0.000000 
#    y 0.000000 1.626930 0.000000 
#    z 0.000000 0.000000 1.636280 
# 
# From -- ./inp_files/32463.got.cif
#   From: 2010.05.17/outbox.cif.g08.bks.cpg/sg63_17_cif.got.tgz:32463.got - 2010.06.03 15:47:04.
