data_PCOD9471621
_publ_section_title
;
Structure prediction by ZEFSAII (Michael W. Deem and Ramdas Pophale) SiO2 
 PCOD9471621
Probable space group: C M C M
;
_chemical_formula_sum "Si O2"
_cell_formula_units_Z 80
_cell_length_a 25.270015
_cell_length_b 24.402593
_cell_length_c 7.449122
_cell_angle_alpha 90.000000
_cell_angle_beta 90.000000
_cell_angle_gamma 90.000000
_cell_volume 4593.530067
_symmetry_space_group_name_H-M "C M C M"
_symmetry_group_IT_number 63
_symmetry_cell_setting 'orthorhombic'
loop_
_space_group_symop_operation_xyz
x,y,z
-x,-y,1/2+z
x,-y,-z
-x,y,1/2-z
-x,-y,-z
x,y,1/2-z
-x,y,z
x,-y,1/2+z
1/2+x,1/2+y,z
1/2-x,1/2-y,1/2+z
1/2+x,1/2-y,-z
1/2-x,1/2+y,1/2-z
1/2-x,1/2-y,-z
1/2+x,1/2+y,1/2-z
1/2-x,1/2+y,z
1/2+x,1/2-y,1/2+z
loop_
_atom_site_type_symbol
_atom_site_label
_atom_site_fract_x
_atom_site_fract_y
_atom_site_fract_z
Si Si1 0.941711 0.904968 0.960756
Si Si2 0.234534 0.166372 0.468465
Si Si3 0.334975 0.226526 0.040606
Si Si4 0.441095 0.275925 0.032286
Si Si5 0.671264 0.438965 0.535447
O O1 0.943950 0.918886 0.750000
O O2 0.888670 0.931928 0.037323
O O3 0.000000 0.918288 0.037727
O O4 0.934233 0.839247 0.975496
O O5 0.235460 0.167207 0.250000
O O6 0.293512 0.182024 0.532914
O O7 0.196128 0.215726 0.526500
O O8 0.209597 0.109264 0.530003
O O9 0.342331 0.213093 0.250000
O O10 0.393020 0.238593 0.964635
O O11 0.439396 0.276245 0.250000
O O12 0.500000 0.258607 0.976678
O O13 0.690596 0.500000 0.500000
O O14 0.667809 0.431446 0.750000
#
# Coordination Sequence:
#
# PCOD9471621 Si02
#       5
#    16  16  16  16  16
#     4   9  17  29  42  55  75 105 138 169 199 230
#     4   9  17  29  42  59  80 103 132 164 200 238
#     4   9  16  26  43  62  81 104 129 160 197 240
#     4   9  16  25  39  61  85 106 129 159 195 234
#     4  10  20  31  42  56  77 104 136 173 204 234
#
# _framework density 17.415799
#
# number of rings (size 3 to 8) (size 9 to 14) (size 15 to 20)
#    0.000    2.800    2.000    0.000    0.000    2.000 
#    0.000    0.000    0.000    0.000    0.000    0.000 
#    0.000    0.800    0.000    0.600    0.000    1.200 
#
# Total GULP energy -222946.140772 kJ/mol
# GULP energy per Si atom -5573.653519 kJ/mol
# Density = 1.737616 g / cm^3
# Si number density = 17.415799 Si / 1000 Ang^3
#
#
#
# Elastic Constant Matrix: (Units=GPa)
#
#
# Indices 1 2 3 4 5 6 
#
# 1 98.8863 47.2172 -8.7710 0.0000 0.0000 0.0000
# 2 47.2172 82.1276 -8.0920 0.0000 0.0000 0.0000
# 3 -8.7710 -8.0920 52.1128 0.0000 0.0000 0.0000
# 4 0.0000 0.0000 0.0000 12.8049 0.0000 0.0000
# 5 0.0000 0.0000 0.0000 0.0000 2.5944 0.0000
# 6 0.0000 0.0000 0.0000 0.0000 0.0000 19.6788
#
#
#
# Elastic Compliance Matrix: (Units=1/GPa)
#
#
# Indices 1 2 3 4 5 6 
#
# 1 0.014004 -0.007940 0.001124 0.000000 0.000000 0.000000
# 2 -0.007940 0.016868 0.001283 0.000000 0.000000 0.000000
# 3 0.001124 0.001283 0.019577 0.000000 0.000000 0.000000
# 4 0.000000 0.000000 0.000000 0.078095 0.000000 0.000000
# 5 0.000000 0.000000 0.000000 0.000000 0.385440 0.000000
# 6 0.000000 0.000000 0.000000 0.000000 0.000000 0.050816
#
#
# Mechanical properties :
#
#
# Convention : Reuss Voigt Hill
#
# Bulk Modulus (GPa) = 25.39255 32.64837 29.02046
# Shear Modulus (GPa) = 8.48903 20.53378 14.51141
#
# Velocity S-wave (km/s) = 2.21018 3.43743 2.88971
# Velocity P-wave (km/s) = 4.59620 5.87722 5.27573
#
# Compressibility (1/GPa) = 0.03938164
#
# Stress axis : x y z
#
# Youngs Moduli (GPa) = 71.40929 59.28494 51.07909
#
# Poissons Ratio (x) = 0.47075 -0.05741
# Poissons Ratio (y) = 0.56702 -0.06552
# Poissons Ratio (z) = -0.08026 -0.07605
#
# Static dielectric constant tensor:
#      x y z
#    x 1.647450 0.000000 0.000000 
#    y 0.000000 1.561020 0.000000 
#    z 0.000000 0.000000 1.645040 
# 
# From -- ./inp_files/12052.got.cif
#   From: 2010.05.17/outbox.cif.g08.bks.cpg/sg63_7_cif.got.tgz:12052.got - 2010.06.03 15:47:04.
