data_PCOD9471082
_publ_section_title
;
Structure prediction by ZEFSAII (Michael W. Deem and Ramdas Pophale) SiO2 
 PCOD9471082
Probable space group: C M C M
;
_chemical_formula_sum "Si O2"
_cell_formula_units_Z 96
_cell_length_a 22.487023
_cell_length_b 10.379764
_cell_length_c 19.570036
_cell_angle_alpha 90.000000
_cell_angle_beta 90.000000
_cell_angle_gamma 90.000000
_cell_volume 4567.841942
_symmetry_space_group_name_H-M "C M C M"
_symmetry_group_IT_number 63
_symmetry_cell_setting 'orthorhombic'
loop_
_space_group_symop_operation_xyz
x,y,z
-x,-y,1/2+z
x,-y,-z
-x,y,1/2-z
-x,-y,-z
x,y,1/2-z
-x,y,z
x,-y,1/2+z
1/2+x,1/2+y,z
1/2-x,1/2-y,1/2+z
1/2+x,1/2-y,-z
1/2-x,1/2+y,1/2-z
1/2-x,1/2-y,-z
1/2+x,1/2+y,1/2-z
1/2-x,1/2+y,z
1/2+x,1/2-y,1/2+z
loop_
_atom_site_type_symbol
_atom_site_label
_atom_site_fract_x
_atom_site_fract_y
_atom_site_fract_z
Si Si1 0.765636 0.757789 0.329921
Si Si2 0.069137 0.407387 0.585708
Si Si3 0.095624 0.177245 0.675724
Si Si4 0.610531 0.535813 0.425326
Si Si5 0.752744 0.500688 0.580269
Si Si6 0.427871 0.814238 0.438983
O O1 0.743770 0.741935 0.250000
O O2 0.832992 0.808717 0.323020
O O3 0.769286 0.624500 0.373556
O O4 0.734009 0.867689 0.377088
O O5 0.074591 0.313932 0.648431
O O6 0.092408 0.551568 0.595138
O O7 0.092351 0.334827 0.518052
O O8 0.000000 0.427004 0.569962
O O9 0.072640 0.150293 0.750000
O O10 0.080044 0.061353 0.626332
O O11 0.587143 0.500000 0.500000
O O12 0.681004 0.509826 0.424971
O O13 0.599481 0.684694 0.410268
O O14 0.774141 0.500000 0.500000
O O15 0.500000 0.800236 0.435790
#
# Coordination Sequence:
#
# PCOD9471082 Si02
#       6
#    16  16  16  16  16  16
#     4  10  21  38  56  77 109 147 181 219 270 333
#     4   9  18  34  54  79 108 140 178 221 264 314
#     4  10  21  36  53  78 110 143 178 220 271 324
#     4  10  19  34  56  82 110 140 176 223 271 318
#     4  10  21  36  55  81 111 139 182 229 274 313
#     4   9  18  33  55  81 107 137 179 222 263 313
#
# _framework density 21.016490000000001
#
# number of rings (size 3 to 8) (size 9 to 14) (size 15 to 20)
#    0.000    2.333    1.667    2.000    0.000    3.333 
#    3.000    0.833    0.000    1.000    0.000    0.000 
#    0.000    0.000    0.000    0.000    0.000    0.000 
#
# Total GULP energy -267653.969941 kJ/mol
# GULP energy per Si atom -5576.124374 kJ/mol
# Density = 2.096866 g / cm^3
# Si number density = 21.016490 Si / 1000 Ang^3
#
#
#
# Elastic Constant Matrix: (Units=GPa)
#
#
# Indices 1 2 3 4 5 6 
#
# 1 24.8838 -8.0843 8.4179 0.0000 0.0000 0.0000
# 2 -8.0843 166.1312 94.6780 0.0000 0.0000 0.0000
# 3 8.4179 94.6780 171.6285 0.0000 0.0000 0.0000
# 4 0.0000 0.0000 0.0000 30.4751 0.0000 0.0000
# 5 0.0000 0.0000 0.0000 0.0000 108.8748 0.0000
# 6 0.0000 0.0000 0.0000 0.0000 0.0000 27.9789
#
#
#
# Elastic Compliance Matrix: (Units=1/GPa)
#
#
# Indices 1 2 3 4 5 6 
#
# 1 0.043387 0.004848 -0.004802 0.000000 0.000000 0.000000
# 2 0.004848 0.009321 -0.005380 0.000000 0.000000 0.000000
# 3 -0.004802 -0.005380 0.009030 0.000000 0.000000 0.000000
# 4 0.000000 0.000000 0.000000 0.032814 0.000000 0.000000
# 5 0.000000 0.000000 0.000000 0.000000 0.009185 0.000000
# 6 0.000000 0.000000 0.000000 0.000000 0.000000 0.035741
#
#
# Mechanical properties :
#
#
# Convention : Reuss Voigt Hill
#
# Bulk Modulus (GPa) = 19.58117 61.40742 40.49429
# Shear Modulus (GPa) = 29.90992 51.30789 40.60890
#
# Velocity S-wave (km/s) = 3.77658 4.94633 4.40049
# Velocity P-wave (km/s) = 5.32485 7.86789 6.71780
#
# Compressibility (1/GPa) = 0.05106948
#
# Stress axis : x y z
#
# Youngs Moduli (GPa) = 23.04860 107.28245 110.74428
#
# Poissons Ratio (x) = -0.52013 0.53185
# Poissons Ratio (y) = -0.11174 0.59578
# Poissons Ratio (z) = 0.11069 0.57716
#
# Static dielectric constant tensor:
#      x y z
#    x 1.809490 0.000000 0.000000 
#    y 0.000000 1.746500 0.000000 
#    z 0.000000 0.000000 1.768760 
# 
# From -- ./inp_files/58115.got.cif
#   From: 2010.05.17/outbox.cif.g08.bks.cpg/sg63_30_cif.got.tgz:58115.got - 2010.06.03 15:47:04.
