data_PCOD9471063
_publ_section_title
;
Structure prediction by ZEFSAII (Michael W. Deem and Ramdas Pophale) SiO2 
 PCOD9471063
Probable space group: C M C M
;
_chemical_formula_sum "Si O2"
_cell_formula_units_Z 88
_cell_length_a 19.142598
_cell_length_b 29.117099
_cell_length_c 7.618163
_cell_angle_alpha 90.000000
_cell_angle_beta 90.000000
_cell_angle_gamma 90.000000
_cell_volume 4246.188237
_symmetry_space_group_name_H-M "C M C M"
_symmetry_group_IT_number 63
_symmetry_cell_setting 'orthorhombic'
loop_
_space_group_symop_operation_xyz
x,y,z
-x,-y,1/2+z
x,-y,-z
-x,y,1/2-z
-x,-y,-z
x,y,1/2-z
-x,y,z
x,-y,1/2+z
1/2+x,1/2+y,z
1/2-x,1/2-y,1/2+z
1/2+x,1/2-y,-z
1/2-x,1/2+y,1/2-z
1/2-x,1/2-y,-z
1/2+x,1/2+y,1/2-z
1/2-x,1/2+y,z
1/2+x,1/2-y,1/2+z
loop_
_atom_site_type_symbol
_atom_site_label
_atom_site_fract_x
_atom_site_fract_y
_atom_site_fract_z
Si Si1 0.314427 0.283100 0.042637
Si Si2 0.500000 0.053897 0.960526
Si Si3 0.922670 0.053777 0.960681
Si Si4 0.078189 0.707512 0.540876
Si Si5 0.291844 0.613299 0.534350
Si Si6 0.135849 0.610336 0.964641
O O1 0.316681 0.288180 0.250000
O O2 0.303862 0.334339 0.972713
O O3 0.250000 0.250000 0.000000
O O4 0.382838 0.255166 0.989009
O O5 0.500000 0.059520 0.750000
O O6 0.570991 0.078864 0.024099
O O7 0.500000 0.000000 0.000000
O O8 0.923913 0.059215 0.750000
O O9 0.856405 0.082295 0.026150
O O10 0.000000 0.067894 0.026657
O O11 0.914128 0.000000 0.000000
O O12 0.073713 0.701481 0.750000
O O13 0.120586 0.662838 0.478165
O O14 0.000000 0.707078 0.468421
O O15 0.291855 0.612914 0.750000
O O16 0.214240 0.597290 0.480050
O O17 0.135768 0.609343 0.750000
#
# Coordination Sequence:
#
# PCOD9471063 Si02
#       6
#    16   8  16  16  16  16
#     4  11  21  34  54  80 111 144 180 223 269 316
#     4  10  20  34  54  76 102 136 176 224 269 318
#     4   9  18  34  55  77 101 132 169 211 261 315
#     4  10  19  34  56  78 103 142 188 223 260 320
#     4   9  18  32  54  78 102 137 178 214 254 320
#     4   9  16  31  54  74  95 136 182 211 255 323
#
# _framework density 20.724471000000001
#
# number of rings (size 3 to 8) (size 9 to 14) (size 15 to 20)
#    0.000    2.364    2.727    0.545    0.000    1.818 
#    0.000    4.545    0.000    2.182    0.000    0.000 
#    0.000    0.000    0.000    0.000    0.000    0.000 
#
# Total GULP energy -245533.271926 kJ/mol
# GULP energy per Si atom -5580.301635 kJ/mol
# Density = 2.067730 g / cm^3
# Si number density = 20.724471 Si / 1000 Ang^3
#
#
#
# Elastic Constant Matrix: (Units=GPa)
#
#
# Indices 1 2 3 4 5 6 
#
# 1 231.7834 104.8477 7.8039 0.0000 0.0000 0.0000
# 2 104.8477 116.2047 -2.2558 0.0000 0.0000 0.0000
# 3 7.8039 -2.2558 38.1837 0.0000 0.0000 0.0000
# 4 0.0000 0.0000 0.0000 22.6787 0.0000 0.0000
# 5 0.0000 0.0000 0.0000 0.0000 8.9277 0.0000
# 6 0.0000 0.0000 0.0000 0.0000 0.0000 36.4970
#
#
#
# Elastic Compliance Matrix: (Units=1/GPa)
#
#
# Indices 1 2 3 4 5 6 
#
# 1 0.007427 -0.006738 -0.001916 0.000000 0.000000 0.000000
# 2 -0.006738 0.014729 0.002247 0.000000 0.000000 0.000000
# 3 -0.001916 0.002247 0.026714 0.000000 0.000000 0.000000
# 4 0.000000 0.000000 0.000000 0.044094 0.000000 0.000000
# 5 0.000000 0.000000 0.000000 0.000000 0.112011 0.000000
# 6 0.000000 0.000000 0.000000 0.000000 0.000000 0.027400
#
#
# Mechanical properties :
#
#
# Convention : Reuss Voigt Hill
#
# Bulk Modulus (GPa) = 27.73507 67.44038 47.58772
# Shear Modulus (GPa) = 19.43964 32.00575 25.72269
#
# Velocity S-wave (km/s) = 3.06601 3.93408 3.52685
# Velocity P-wave (km/s) = 5.09369 7.29713 6.29260
#
# Compressibility (1/GPa) = 0.03605543
#
# Stress axis : x y z
#
# Youngs Moduli (GPa) = 134.64448 67.89383 37.43420
#
# Poissons Ratio (x) = 0.45749 0.07172
# Poissons Ratio (y) = 0.90728 -0.08413
# Poissons Ratio (z) = 0.25798 -0.15258
#
# Static dielectric constant tensor:
#      x y z
#    x 1.749550 0.000000 0.000000 
#    y 0.000000 1.708920 0.000000 
#    z 0.000000 0.000000 1.715700 
# 
# From -- ./inp_files/6796.got.cif
#   From: 2010.05.17/outbox.cif.g08.bks.cpg/sg63_4_cif.got.tgz:6796.got - 2010.06.03 15:47:04.
