data_PCOD9471283
_publ_section_title
;
Structure prediction by ZEFSAII (Michael W. Deem and Ramdas Pophale) SiO2 
 PCOD9471283
Probable space group: C M C M
;
_chemical_formula_sum "Si O2"
_cell_formula_units_Z 112
_cell_length_a 22.888501
_cell_length_b 17.032945
_cell_length_c 15.414597
_cell_angle_alpha 90.000000
_cell_angle_beta 90.000000
_cell_angle_gamma 90.000000
_cell_volume 6009.512877
_symmetry_space_group_name_H-M "C M C M"
_symmetry_group_IT_number 63
_symmetry_cell_setting 'orthorhombic'
loop_
_space_group_symop_operation_xyz
x,y,z
-x,-y,1/2+z
x,-y,-z
-x,y,1/2-z
-x,-y,-z
x,y,1/2-z
-x,y,z
x,-y,1/2+z
1/2+x,1/2+y,z
1/2-x,1/2-y,1/2+z
1/2+x,1/2-y,-z
1/2-x,1/2+y,1/2-z
1/2-x,1/2-y,-z
1/2+x,1/2+y,1/2-z
1/2-x,1/2+y,z
1/2+x,1/2-y,1/2+z
loop_
_atom_site_type_symbol
_atom_site_label
_atom_site_fract_x
_atom_site_fract_y
_atom_site_fract_z
Si Si1 0.685388 0.015501 0.355371
Si Si2 0.067781 0.249695 0.486644
Si Si3 0.357753 0.149920 0.649270
Si Si4 0.133365 0.315026 0.849252
Si Si5 0.308856 0.427685 0.646857
Si Si6 0.257574 0.740623 0.102853
Si Si7 0.065163 0.069449 0.430452
O O1 0.687282 0.010656 0.250000
O O2 0.651796 0.096202 0.375566
O O3 0.752974 0.021643 0.386310
O O4 0.650631 0.938711 0.384292
O O5 0.102504 0.297017 0.412545
O O6 0.091826 0.276666 0.579739
O O7 0.073390 0.155994 0.472227
O O8 0.000000 0.269431 0.479693
O O9 0.377140 0.150901 0.750000
O O10 0.293779 0.188482 0.642650
O O11 0.111651 0.315162 0.750000
O O12 0.194700 0.269065 0.854195
O O13 0.305618 0.430439 0.750000
O O14 0.293610 0.339002 0.619110
O O15 0.375032 0.446918 0.621220
O O16 0.250000 0.750000 0.000000
O O17 0.000000 0.071170 0.386845
O O18 0.062389 0.000000 0.500000
#
# Coordination Sequence:
#
# PCOD9471283 Si02
#       7
#    16  16  16  16  16  16  16
#     4   8  19  35  56  87 121 152 190 244 302 354
#     4  11  24  41  61  88 117 158 211 246 290 359
#     4  11  21  38  61  89 123 156 193 247 304 360
#     4  10  20  39  60  83 120 160 200 248 295 349
#     4  10  19  35  57  85 116 151 198 244 293 361
#     4  11  19  33  56  87 119 153 191 242 302 355
#     4  10  22  40  58  81 119 158 196 249 303 358
#
# _framework density 18.637118999999998
#
# number of rings (size 3 to 8) (size 9 to 14) (size 15 to 20)
#    0.000    1.857    2.857    2.143    0.000    3.714 
#    0.000    5.000    0.000    5.143    0.000    0.000 
#    0.000    0.000    0.000    0.000    0.000    0.000 
#
# Total GULP energy -312299.123642 kJ/mol
# GULP energy per Si atom -5576.770065 kJ/mol
# Density = 1.859470 g / cm^3
# Si number density = 18.637119 Si / 1000 Ang^3
#
#
#
# Elastic Constant Matrix: (Units=GPa)
#
#
# Indices 1 2 3 4 5 6 
#
# 1 73.0600 52.4462 32.0055 0.0000 0.0000 0.0000
# 2 52.4462 89.1055 30.8528 0.0000 0.0000 0.0000
# 3 32.0055 30.8528 85.3509 0.0000 0.0000 0.0000
# 4 0.0000 0.0000 0.0000 40.2121 0.0000 0.0000
# 5 0.0000 0.0000 0.0000 0.0000 0.3825 0.0000
# 6 0.0000 0.0000 0.0000 0.0000 0.0000 13.7326
#
#
#
# Elastic Compliance Matrix: (Units=1/GPa)
#
#
# Indices 1 2 3 4 5 6 
#
# 1 0.025238 -0.013234 -0.004680 0.000000 0.000000 0.000000
# 2 -0.013234 0.019768 -0.002183 0.000000 0.000000 0.000000
# 3 -0.004680 -0.002183 0.014260 0.000000 0.000000 0.000000
# 4 0.000000 0.000000 0.000000 0.024868 0.000000 0.000000
# 5 0.000000 0.000000 0.000000 0.000000 2.614655 0.000000
# 6 0.000000 0.000000 0.000000 0.000000 0.000000 0.072819
#
#
# Mechanical properties :
#
#
# Convention : Reuss Voigt Hill
#
# Bulk Modulus (GPa) = 52.43364 53.12503 52.77933
# Shear Modulus (GPa) = 1.77421 19.67957 10.72689
#
# Velocity S-wave (km/s) = 0.97675 3.25304 2.40170
# Velocity P-wave (km/s) = 5.42836 6.53273 6.00598
#
# Compressibility (1/GPa) = 0.01907173
#
# Stress axis : x y z
#
# Youngs Moduli (GPa) = 39.62343 50.58697 70.12418
#
# Poissons Ratio (x) = 0.66947 0.32817
# Poissons Ratio (y) = 0.52438 0.15309
# Poissons Ratio (z) = 0.18543 0.11044
#
# Static dielectric constant tensor:
#      x y z
#    x 1.657340 0.000000 0.000000 
#    y 0.000000 1.644120 0.000000 
#    z 0.000000 0.000000 1.656840 
# 
# From -- ./inp_files/36859.got.cif
#   From: 2010.05.17/outbox.cif.g08.bks.cpg/sg63_19_cif.got.tgz:36859.got - 2010.06.03 15:47:04.
