data_PCOD9471797
_publ_section_title
;
Structure prediction by ZEFSAII (Michael W. Deem and Ramdas Pophale) SiO2 
 PCOD9471797
Probable space group: C M C M
;
_chemical_formula_sum "Si O2"
_cell_formula_units_Z 96
_cell_length_a 26.854226
_cell_length_b 8.564322
_cell_length_c 19.904643
_cell_angle_alpha 90.000000
_cell_angle_beta 90.000000
_cell_angle_gamma 90.000000
_cell_volume 4577.833782
_symmetry_space_group_name_H-M "C M C M"
_symmetry_group_IT_number 63
_symmetry_cell_setting 'orthorhombic'
loop_
_space_group_symop_operation_xyz
x,y,z
-x,-y,1/2+z
x,-y,-z
-x,y,1/2-z
-x,-y,-z
x,y,1/2-z
-x,y,z
x,-y,1/2+z
1/2+x,1/2+y,z
1/2-x,1/2-y,1/2+z
1/2+x,1/2-y,-z
1/2-x,1/2+y,1/2-z
1/2-x,1/2-y,-z
1/2+x,1/2+y,1/2-z
1/2-x,1/2+y,z
1/2+x,1/2-y,1/2+z
loop_
_atom_site_type_symbol
_atom_site_label
_atom_site_fract_x
_atom_site_fract_y
_atom_site_fract_z
Si Si1 0.134366 0.560467 0.321398
Si Si2 0.341559 0.421792 0.176365
Si Si3 0.055302 0.565037 0.074796
Si Si4 0.196885 0.315462 0.476142
Si Si5 0.725189 0.141525 0.826557
Si Si6 0.392840 0.376310 0.049890
O O1 0.114761 0.502498 0.250000
O O2 0.136105 0.746385 0.321175
O O3 0.099900 0.498205 0.380251
O O4 0.191775 0.513659 0.325033
O O5 0.349691 0.494285 0.250000
O O6 0.282680 0.402210 0.164585
O O7 0.369215 0.478334 0.110402
O O8 0.066895 0.748829 0.071289
O O9 0.000000 0.534824 0.101663
O O10 0.058336 0.500000 0.000000
O O11 0.193097 0.500000 0.500000
O O12 0.250000 0.250000 0.500000
O O13 0.201936 0.286546 0.394914
O O14 0.152545 0.220862 0.513650
O O15 0.720682 0.211747 0.750000
O O16 0.415633 0.500000 0.000000
#
# Coordination Sequence:
#
# PCOD9471797 Si02
#       6
#    16  16  16  16  16  16
#     4   9  18  33  53  79 111 146 189 236 278 333
#     4   9  18  32  49  74 109 150 186 224 272 331
#     4  10  21  39  61  83 108 144 186 239 296 341
#     4  12  23  36  54  79 114 155 198 238 281 338
#     4  10  20  32  50  77 112 153 191 228 276 331
#     4  11  22  37  57  83 113 145 189 237 283 348
#
# _framework density 20.970617000000001
#
# number of rings (size 3 to 8) (size 9 to 14) (size 15 to 20)
#    0.000    1.833    1.667    4.000    0.000    0.667 
#    0.000    0.833    0.000    1.000    0.000    0.000 
#    0.000    0.000    0.000    0.000    0.000    0.000 
#
# Total GULP energy -267448.432736 kJ/mol
# GULP energy per Si atom -5571.842349 kJ/mol
# Density = 2.092289 g / cm^3
# Si number density = 20.970617 Si / 1000 Ang^3
#
#
#
# Elastic Constant Matrix: (Units=GPa)
#
#
# Indices 1 2 3 4 5 6 
#
# 1 70.1904 -5.0679 21.5527 0.0000 0.0000 0.0000
# 2 -5.0679 29.3437 -3.3576 0.0000 0.0000 0.0000
# 3 21.5527 -3.3576 121.2871 0.0000 0.0000 0.0000
# 4 0.0000 0.0000 0.0000 14.8681 0.0000 0.0000
# 5 0.0000 0.0000 0.0000 0.0000 20.3594 0.0000
# 6 0.0000 0.0000 0.0000 0.0000 0.0000 16.3874
#
#
#
# Elastic Compliance Matrix: (Units=1/GPa)
#
#
# Indices 1 2 3 4 5 6 
#
# 1 0.015226 0.002327 -0.002641 0.000000 0.000000 0.000000
# 2 0.002327 0.034543 0.000543 0.000000 0.000000 0.000000
# 3 -0.002641 0.000543 0.008729 0.000000 0.000000 0.000000
# 4 0.000000 0.000000 0.000000 0.067258 0.000000 0.000000
# 5 0.000000 0.000000 0.000000 0.000000 0.049117 0.000000
# 6 0.000000 0.000000 0.000000 0.000000 0.000000 0.061022
#
#
# Mechanical properties :
#
#
# Convention : Reuss Voigt Hill
#
# Bulk Modulus (GPa) = 16.96182 27.45284 22.20733
# Shear Modulus (GPa) = 19.60092 24.16927 21.88510
#
# Velocity S-wave (km/s) = 3.06058 3.39858 3.23400
# Velocity P-wave (km/s) = 4.53822 5.34041 4.95557
#
# Compressibility (1/GPa) = 0.05895594
#
# Stress axis : x y z
#
# Youngs Moduli (GPa) = 65.67702 28.94952 114.55710
#
# Poissons Ratio (x) = -0.06738 0.30257
# Poissons Ratio (y) = -0.15286 -0.06217
# Poissons Ratio (z) = 0.17347 -0.01571
#
# Static dielectric constant tensor:
#      x y z
#    x 1.697570 0.000000 0.000000 
#    y 0.000000 1.798360 0.000000 
#    z 0.000000 0.000000 1.931930 
# 
# From -- ./inp_files/58078.got.cif
#   From: 2010.05.17/outbox.cif.g08.bks.cpg/sg63_30_cif.got.tgz:58078.got - 2010.06.03 15:47:04.
