data_PCOD9471805
_publ_section_title
;
Structure prediction by ZEFSAII (Michael W. Deem and Ramdas Pophale) SiO2 
 PCOD9471805
Probable space group: C M C M
;
_chemical_formula_sum "Si O2"
_cell_formula_units_Z 64
_cell_length_a 21.605488
_cell_length_b 9.201870
_cell_length_c 15.120652
_cell_angle_alpha 90.000000
_cell_angle_beta 90.000000
_cell_angle_gamma 90.000000
_cell_volume 3006.150310
_symmetry_space_group_name_H-M "C M C M"
_symmetry_group_IT_number 63
_symmetry_cell_setting 'orthorhombic'
loop_
_space_group_symop_operation_xyz
x,y,z
-x,-y,1/2+z
x,-y,-z
-x,y,1/2-z
-x,-y,-z
x,y,1/2-z
-x,y,z
x,-y,1/2+z
1/2+x,1/2+y,z
1/2-x,1/2-y,1/2+z
1/2+x,1/2-y,-z
1/2-x,1/2+y,1/2-z
1/2-x,1/2-y,-z
1/2+x,1/2+y,1/2-z
1/2-x,1/2+y,z
1/2+x,1/2-y,1/2+z
loop_
_atom_site_type_symbol
_atom_site_label
_atom_site_fract_x
_atom_site_fract_y
_atom_site_fract_z
Si Si1 0.769448 0.572570 0.153498
Si Si2 0.567474 0.238579 0.012202
Si Si3 0.593066 0.973244 0.354499
Si Si4 0.700040 0.657110 0.943264
O O1 0.742485 0.556659 0.250000
O O2 0.832065 0.478304 0.142580
O O3 0.721128 0.502331 0.085963
O O4 0.793086 0.736619 0.142312
O O5 0.500000 0.309767 0.019733
O O6 0.629904 0.329554 0.024472
O O7 0.571379 0.114236 0.089273
O O8 0.571868 0.159396 0.916482
O O9 0.575562 0.971832 0.250000
O O10 0.750000 0.750000 0.000000
#
# Coordination Sequence:
#
# PCOD9471805 Si02
#       4
#    16  16  16  16
#     4  10  20  34  56  84 111 143 189 235 279 331
#     4  10  20  32  50  80 112 145 186 231 280 338
#     4   9  17  31  51  78 111 144 180 229 285 334
#     4  11  20  36  57  81 112 147 185 230 284 334
#
# _framework density 21.289688000000002
#
# number of rings (size 3 to 8) (size 9 to 14) (size 15 to 20)
#    0.000    2.000    2.500    3.000    0.000    3.000 
#    0.000    0.000    0.000    3.000    0.000    0.000 
#    0.000    0.000    0.000    0.000    0.000    0.000 
#
# Total GULP energy -178314.986743 kJ/mol
# GULP energy per Si atom -5572.343336 kJ/mol
# Density = 2.124123 g / cm^3
# Si number density = 21.289688 Si / 1000 Ang^3
#
#
#
# Elastic Constant Matrix: (Units=GPa)
#
#
# Indices 1 2 3 4 5 6 
#
# 1 143.8417 27.3505 17.5976 0.0000 0.0000 0.0000
# 2 27.3505 79.7538 -0.4663 0.0000 0.0000 0.0000
# 3 17.5976 -0.4663 127.6670 0.0000 0.0000 0.0000
# 4 0.0000 0.0000 0.0000 12.1532 0.0000 0.0000
# 5 0.0000 0.0000 0.0000 0.0000 8.7764 0.0000
# 6 0.0000 0.0000 0.0000 0.0000 0.0000 15.7004
#
#
#
# Elastic Compliance Matrix: (Units=1/GPa)
#
#
# Indices 1 2 3 4 5 6 
#
# 1 0.007576 -0.002604 -0.001054 0.000000 0.000000 0.000000
# 2 -0.002604 0.013434 0.000408 0.000000 0.000000 0.000000
# 3 -0.001054 0.000408 0.007980 0.000000 0.000000 0.000000
# 4 0.000000 0.000000 0.000000 0.082283 0.000000 0.000000
# 5 0.000000 0.000000 0.000000 0.000000 0.113942 0.000000
# 6 0.000000 0.000000 0.000000 0.000000 0.000000 0.063693
#
#
# Mechanical properties :
#
#
# Convention : Reuss Voigt Hill
#
# Bulk Modulus (GPa) = 44.46470 48.91400 46.68935
# Shear Modulus (GPa) = 16.50687 27.77805 22.14246
#
# Velocity S-wave (km/s) = 2.78752 3.61607 3.22849
# Velocity P-wave (km/s) = 5.59386 6.36081 5.98963
#
# Compressibility (1/GPa) = 0.02248975
#
# Stress axis : x y z
#
# Youngs Moduli (GPa) = 131.99229 74.43750 125.31918
#
# Poissons Ratio (x) = 0.19386 0.13206
# Poissons Ratio (y) = 0.34375 -0.05114
# Poissons Ratio (z) = 0.13910 -0.03037
#
# Static dielectric constant tensor:
#      x y z
#    x 1.781670 0.000000 0.000000 
#    y 0.000000 1.828510 0.000000 
#    z 0.000000 0.000000 1.900710 
# 
# From -- ./inp_files/34906.got.cif
#   From: 2010.05.17/outbox.cif.g08.bks.cpg/sg63_18_cif.got.tgz:34906.got - 2010.06.03 15:47:04.
