data_PCOD9471317
_publ_section_title
;
Structure prediction by ZEFSAII (Michael W. Deem and Ramdas Pophale) SiO2 
 PCOD9471317
Probable space group: C M C M
;
_chemical_formula_sum "Si O2"
_cell_formula_units_Z 80
_cell_length_a 11.835510
_cell_length_b 24.547662
_cell_length_c 14.124950
_cell_angle_alpha 90.000000
_cell_angle_beta 90.000000
_cell_angle_gamma 90.000000
_cell_volume 4103.779623
_symmetry_space_group_name_H-M "C M C M"
_symmetry_group_IT_number 63
_symmetry_cell_setting 'orthorhombic'
loop_
_space_group_symop_operation_xyz
x,y,z
-x,-y,1/2+z
x,-y,-z
-x,y,1/2-z
-x,-y,-z
x,y,1/2-z
-x,y,z
x,-y,1/2+z
1/2+x,1/2+y,z
1/2-x,1/2-y,1/2+z
1/2+x,1/2-y,-z
1/2-x,1/2+y,1/2-z
1/2-x,1/2-y,-z
1/2+x,1/2+y,1/2-z
1/2-x,1/2+y,z
1/2+x,1/2-y,1/2+z
loop_
_atom_site_type_symbol
_atom_site_label
_atom_site_fract_x
_atom_site_fract_y
_atom_site_fract_z
Si Si1 0.750171 0.637681 0.863568
Si Si2 0.866206 0.563786 0.492008
Si Si3 0.500000 0.220994 0.364808
Si Si4 0.127548 0.251512 0.134752
Si Si5 0.500000 0.653759 0.865396
Si Si6 0.277309 0.153418 0.363668
O O1 0.756523 0.634384 0.750000
O O2 0.833052 0.594945 0.912000
O O3 0.790389 0.698672 0.891295
O O4 0.620049 0.628537 0.893531
O O5 0.841104 0.500000 0.500000
O O6 0.793170 0.595730 0.413534
O O7 0.000000 0.569684 0.471669
O O8 0.500000 0.223118 0.250000
O O9 0.500000 0.283207 0.396228
O O10 0.388293 0.188317 0.391162
O O11 0.127245 0.251156 0.250000
O O12 0.173916 0.192293 0.106819
O O13 0.000000 0.262089 0.102557
O O14 0.500000 0.653862 0.750000
O O15 0.275253 0.147348 0.250000
#
# Coordination Sequence:
#
# PCOD9471317 Si02
#       6
#    16  16   8  16   8  16
#     4  10  20  37  60  85 116 149 181 225 280 333
#     4  11  25  41  56  80 110 145 196 242 274 322
#     4   9  14  28  55  84 109 141 180 222 273 329
#     4   9  17  31  55  88 120 146 175 219 280 343
#     4   9  16  32  59  88 115 145 182 222 271 337
#     4  10  19  35  59  83 113 148 181 225 280 333
#
# _framework density 19.494225
#
# number of rings (size 3 to 8) (size 9 to 14) (size 15 to 20)
#    0.000    2.200    3.000    0.600    0.000    2.800 
#    1.800    2.500    0.000    0.000    0.000    0.000 
#    0.000    0.000    0.000    0.000    0.000    0.000 
#
# Total GULP energy -223364.547127 kJ/mol
# GULP energy per Si atom -5584.113678 kJ/mol
# Density = 1.944986 g / cm^3
# Si number density = 19.494225 Si / 1000 Ang^3
#
#
#
# Elastic Constant Matrix: (Units=GPa)
#
#
# Indices 1 2 3 4 5 6 
#
# 1 85.9416 31.0529 11.0357 0.0000 0.0000 0.0000
# 2 31.0529 118.8105 21.1853 0.0000 0.0000 0.0000
# 3 11.0357 21.1853 66.6323 0.0000 0.0000 0.0000
# 4 0.0000 0.0000 0.0000 29.1959 0.0000 0.0000
# 5 0.0000 0.0000 0.0000 0.0000 18.7726 0.0000
# 6 0.0000 0.0000 0.0000 0.0000 0.0000 16.6341
#
#
#
# Elastic Compliance Matrix: (Units=1/GPa)
#
#
# Indices 1 2 3 4 5 6 
#
# 1 0.012929 -0.003178 -0.001131 0.000000 0.000000 0.000000
# 2 -0.003178 0.009704 -0.002559 0.000000 0.000000 0.000000
# 3 -0.001131 -0.002559 0.016009 0.000000 0.000000 0.000000
# 4 0.000000 0.000000 0.000000 0.034251 0.000000 0.000000
# 5 0.000000 0.000000 0.000000 0.000000 0.053269 0.000000
# 6 0.000000 0.000000 0.000000 0.000000 0.000000 0.060117
#
#
# Mechanical properties :
#
#
# Convention : Reuss Voigt Hill
#
# Bulk Modulus (GPa) = 40.15042 44.21469 42.18255
# Shear Modulus (GPa) = 24.00194 26.79455 25.39825
#
# Velocity S-wave (km/s) = 3.51270 3.71143 3.61343
# Velocity P-wave (km/s) = 6.09039 6.41065 6.25257
#
# Compressibility (1/GPa) = 0.02490634
#
# Stress axis : x y z
#
# Youngs Moduli (GPa) = 77.34438 103.05508 62.46618
#
# Poissons Ratio (x) = 0.32746 0.07065
# Poissons Ratio (y) = 0.24577 0.15985
# Poissons Ratio (z) = 0.08748 0.26371
#
# Static dielectric constant tensor:
#      x y z
#    x 1.683570 0.000000 0.000000 
#    y 0.000000 1.631500 0.000000 
#    z 0.000000 0.000000 1.748200 
# 
# From -- ./inp_files/29764.got.cif
#   From: 2010.05.17/outbox.cif.g08.bks.cpg/sg63_15_cif.got.tgz:29764.got - 2010.06.03 15:47:04.
