data_PCOD9471560
_publ_section_title
;
Structure prediction by ZEFSAII (Michael W. Deem and Ramdas Pophale) SiO2 
 PCOD9471560
Probable space group: C M C M
;
_chemical_formula_sum "Si O2"
_cell_formula_units_Z 88
_cell_length_a 13.813044
_cell_length_b 11.370019
_cell_length_c 26.169812
_cell_angle_alpha 90.000000
_cell_angle_beta 90.000000
_cell_angle_gamma 90.000000
_cell_volume 4110.088642
_symmetry_space_group_name_H-M "C M C M"
_symmetry_group_IT_number 63
_symmetry_cell_setting 'orthorhombic'
loop_
_space_group_symop_operation_xyz
x,y,z
-x,-y,1/2+z
x,-y,-z
-x,y,1/2-z
-x,-y,-z
x,y,1/2-z
-x,y,z
x,-y,1/2+z
1/2+x,1/2+y,z
1/2-x,1/2-y,1/2+z
1/2+x,1/2-y,-z
1/2-x,1/2+y,1/2-z
1/2-x,1/2-y,-z
1/2+x,1/2+y,1/2-z
1/2-x,1/2+y,z
1/2+x,1/2-y,1/2+z
loop_
_atom_site_type_symbol
_atom_site_label
_atom_site_fract_x
_atom_site_fract_y
_atom_site_fract_z
Si Si1 0.834838 0.500000 0.500000
Si Si2 0.000000 0.999215 0.117918
Si Si3 0.788060 0.234157 0.333338
Si Si4 0.000000 0.744867 0.652583
Si Si5 0.214595 0.702971 0.055195
Si Si6 0.320326 0.526159 0.692261
Si Si7 0.500000 0.702103 0.544226
Si Si8 0.000000 0.656417 0.951232
O O1 0.776403 0.436234 0.544530
O O2 0.906241 0.409759 0.472521
O O3 0.094511 0.967461 0.150883
O O4 0.000000 0.928805 0.065509
O O5 0.000000 0.138681 0.117430
O O6 0.900164 0.250618 0.318096
O O7 0.774308 0.239020 0.395098
O O8 0.734415 0.348950 0.312092
O O9 0.763278 0.098420 0.317935
O O10 0.000000 0.646434 0.609324
O O11 0.101126 0.737915 0.063263
O O12 0.250000 0.750000 0.000000
O O13 0.358644 0.516184 0.750000
O O14 0.500000 0.722693 0.483634
#
# Coordination Sequence:
#
# PCOD9471560 Si02
#       8
#     8   8  16   8  16  16   8   8
#     4   9  20  34  54  81 120 174 210 253 312 371
#     4  10  21  41  66  92 127 165 213 274 342 390
#     4  11  24  42  68  97 130 174 219 271 332 397
#     4  10  23  38  59  93 129 175 213 257 327 404
#     4  11  23  36  61  91 131 174 218 266 321 392
#     4  11  24  45  69  96 127 168 222 280 339 396
#     4  10  19  38  57  92 122 164 221 262 308 390
#     4   9  18  35  56  81 128 167 208 255 317 375
#
# _framework density 21.410730999999998
#
# number of rings (size 3 to 8) (size 9 to 14) (size 15 to 20)
#    0.000    1.636    1.818    3.545    5.091    0.364 
#    0.000    2.273    0.000    0.000    0.000    0.000 
#    0.000    0.000    0.000    0.000    0.000    0.000 
#
# Total GULP energy -245192.483865 kJ/mol
# GULP energy per Si atom -5572.556451 kJ/mol
# Density = 2.136200 g / cm^3
# Si number density = 21.410731 Si / 1000 Ang^3
#
#
#
# Elastic Constant Matrix: (Units=GPa)
#
#
# Indices 1 2 3 4 5 6 
#
# 1 80.1659 21.5513 -0.6252 0.0000 0.0000 0.0000
# 2 21.5513 93.4805 11.6397 0.0000 0.0000 0.0000
# 3 -0.6252 11.6397 72.4318 0.0000 0.0000 0.0000
# 4 0.0000 0.0000 0.0000 28.9585 0.0000 0.0000
# 5 0.0000 0.0000 0.0000 0.0000 -2.5170 0.0000
# 6 0.0000 0.0000 0.0000 0.0000 0.0000 21.8112
#
#
#
# Elastic Compliance Matrix: (Units=1/GPa)
#
#
# Indices 1 2 3 4 5 6 
#
# 1 0.013326 -0.003149 0.000621 0.000000 0.000000 0.000000
# 2 -0.003149 0.011660 -0.001901 0.000000 0.000000 0.000000
# 3 0.000621 -0.001901 0.014117 0.000000 0.000000 0.000000
# 4 0.000000 0.000000 0.000000 0.034532 0.000000 0.000000
# 5 0.000000 0.000000 0.000000 0.000000 -0.397297 0.000000
# 6 0.000000 0.000000 0.000000 0.000000 0.000000 0.045848
#
#
# Mechanical properties :
#
#
# Convention : Reuss Voigt Hill
#
# Bulk Modulus (GPa) = 33.06423 34.57889 33.82156
# Shear Modulus (GPa) = -19.31445 23.88469 2.28512
#
# Velocity S-wave (km/s) = -3.00674 3.34360 1.03421
# Velocity P-wave (km/s) = 1.84996 5.57598 4.15415
#
# Compressibility (1/GPa) = 0.03024417
#
# Stress axis : x y z
#
# Youngs Moduli (GPa) = 75.04316 85.76177 70.83692
#
# Poissons Ratio (x) = 0.27011 -0.04400
# Poissons Ratio (y) = 0.23635 0.13466
# Poissons Ratio (z) = -0.04661 0.16303
#
# Static dielectric constant tensor:
#      x y z
#    x 1.829800 0.000000 0.000000 
#    y 0.000000 1.898970 0.000000 
#    z 0.000000 0.000000 1.748640 
# 
# From -- ./inp_files/69281.got.cif
#   From: 2010.05.17/outbox.cif.g08.bks.cpg/sg63_35_cif.got.tgz:69281.got - 2010.06.03 15:47:04.
