data_PCOD9471394
_publ_section_title
;
Structure prediction by ZEFSAII (Michael W. Deem and Ramdas Pophale) SiO2 
 PCOD9471394
Probable space group: C M C M
;
_chemical_formula_sum "Si O2"
_cell_formula_units_Z 64
_cell_length_a 7.576200
_cell_length_b 39.717810
_cell_length_c 10.479992
_cell_angle_alpha 90.000000
_cell_angle_beta 90.000000
_cell_angle_gamma 90.000000
_cell_volume 3153.535149
_symmetry_space_group_name_H-M "C M C M"
_symmetry_group_IT_number 63
_symmetry_cell_setting 'orthorhombic'
loop_
_space_group_symop_operation_xyz
x,y,z
-x,-y,1/2+z
x,-y,-z
-x,y,1/2-z
-x,-y,-z
x,y,1/2-z
-x,y,z
x,-y,1/2+z
1/2+x,1/2+y,z
1/2-x,1/2-y,1/2+z
1/2+x,1/2-y,-z
1/2-x,1/2+y,1/2-z
1/2-x,1/2-y,-z
1/2+x,1/2+y,1/2-z
1/2-x,1/2+y,z
1/2+x,1/2-y,1/2+z
loop_
_atom_site_type_symbol
_atom_site_label
_atom_site_fract_x
_atom_site_fract_y
_atom_site_fract_z
Si Si1 0.792304 0.329458 0.507779
Si Si2 0.283103 0.787673 0.750000
Si Si3 0.789431 0.026000 0.895172
Si Si4 0.712988 0.897530 0.396322
Si Si5 0.211991 0.210156 0.750000
O O1 0.721274 0.307639 0.624721
O O2 0.719727 0.366919 0.482788
O O3 0.773429 0.309078 0.376340
O O4 0.000000 0.333572 0.534803
O O5 0.500000 0.786751 0.750000
O O6 0.226487 0.748841 0.750000
O O7 0.719104 0.022052 0.750000
O O8 0.000000 0.020772 0.887585
O O9 0.760103 0.064679 0.935393
O O10 0.718588 0.000000 0.000000
O O11 0.775455 0.892749 0.250000
O O12 0.500000 0.895454 0.393473
O O13 0.000000 0.209868 0.750000
#
# Coordination Sequence:
#
# PCOD9471394 Si02
#       5
#    16   8  16  16   8
#     4  10  19  36  56  75 103 141 176 214 263 313
#     4   9  20  35  53  77 106 137 174 217 264 313
#     4   9  18  33  52  73  99 132 164 197 244 299
#     4   9  17  31  52  76  98 128 171 209 245 295
#     4  11  21  33  53  81 104 133 178 221 258 311
#
# _framework density 20.294684
#
# number of rings (size 3 to 8) (size 9 to 14) (size 15 to 20)
#    0.000    2.500    1.250    1.125    0.000    1.500 
#    2.250    1.875    0.000    0.000    0.000    0.000 
#    0.000    0.000    0.000    0.000    0.000    0.000 
#
# Total GULP energy -178583.682465 kJ/mol
# GULP energy per Si atom -5580.740077 kJ/mol
# Density = 2.024849 g / cm^3
# Si number density = 20.294684 Si / 1000 Ang^3
#
#
#
# Elastic Constant Matrix: (Units=GPa)
#
#
# Indices 1 2 3 4 5 6 
#
# 1 41.6331 -9.9744 -15.1862 0.0000 0.0000 0.0000
# 2 -9.9744 193.5672 93.9452 0.0000 0.0000 0.0000
# 3 -15.1862 93.9452 116.5265 0.0000 0.0000 0.0000
# 4 0.0000 0.0000 0.0000 94.3126 0.0000 0.0000
# 5 0.0000 0.0000 0.0000 0.0000 25.4990 0.0000
# 6 0.0000 0.0000 0.0000 0.0000 0.0000 12.4960
#
#
#
# Elastic Compliance Matrix: (Units=1/GPa)
#
#
# Indices 1 2 3 4 5 6 
#
# 1 0.025246 -0.000486 0.003682 0.000000 0.000000 0.000000
# 2 -0.000486 0.008496 -0.006913 0.000000 0.000000 0.000000
# 3 0.003682 -0.006913 0.014635 0.000000 0.000000 0.000000
# 4 0.000000 0.000000 0.000000 0.010603 0.000000 0.000000
# 5 0.000000 0.000000 0.000000 0.000000 0.039217 0.000000
# 6 0.000000 0.000000 0.000000 0.000000 0.000000 0.080025
#
#
# Mechanical properties :
#
#
# Convention : Reuss Voigt Hill
#
# Bulk Modulus (GPa) = 24.42427 54.36623 39.39525
# Shear Modulus (GPa) = 25.08713 45.32433 35.20573
#
# Velocity S-wave (km/s) = 3.51970 4.73092 4.16952
# Velocity P-wave (km/s) = 5.34590 7.52919 6.52945
#
# Compressibility (1/GPa) = 0.04094287
#
# Stress axis : x y z
#
# Youngs Moduli (GPa) = 39.61030 117.69750 68.32872
#
# Poissons Ratio (x) = 0.05722 -0.25159
# Poissons Ratio (y) = 0.01926 0.47237
# Poissons Ratio (z) = -0.14585 0.81367
#
# Static dielectric constant tensor:
#      x y z
#    x 1.752850 0.000000 0.000000 
#    y 0.000000 1.709780 0.000000 
#    z 0.000000 0.000000 1.688440 
# 
# From -- ./inp_files/16272.got.cif
#   From: 2010.05.17/outbox.cif.g08.bks.cpg/sg63_9_cif.got.tgz:16272.got - 2010.06.03 15:47:04.
