data_PCOD9471527
_publ_section_title
;
Structure prediction by ZEFSAII (Michael W. Deem and Ramdas Pophale) SiO2 
 PCOD9471527
Probable space group: C M C M
;
_chemical_formula_sum "Si O2"
_cell_formula_units_Z 52
_cell_length_a 9.812271
_cell_length_b 16.325736
_cell_length_c 19.265207
_cell_angle_alpha 90.000000
_cell_angle_beta 90.000000
_cell_angle_gamma 90.000000
_cell_volume 3086.142557
_symmetry_space_group_name_H-M "C M C M"
_symmetry_group_IT_number 63
_symmetry_cell_setting 'orthorhombic'
loop_
_space_group_symop_operation_xyz
x,y,z
-x,-y,1/2+z
x,-y,-z
-x,y,1/2-z
-x,-y,-z
x,y,1/2-z
-x,y,z
x,-y,1/2+z
1/2+x,1/2+y,z
1/2-x,1/2-y,1/2+z
1/2+x,1/2-y,-z
1/2-x,1/2+y,1/2-z
1/2-x,1/2-y,-z
1/2+x,1/2+y,1/2-z
1/2-x,1/2+y,z
1/2+x,1/2-y,1/2+z
loop_
_atom_site_type_symbol
_atom_site_label
_atom_site_fract_x
_atom_site_fract_y
_atom_site_fract_z
Si Si1 0.268577 0.664688 0.383911
Si Si2 0.345794 0.920487 0.750000
Si Si3 0.000000 0.270912 0.962111
Si Si4 0.500000 0.793343 0.126204
Si Si5 0.000000 0.579718 0.750000
Si Si6 0.000000 0.905326 0.520211
O O1 0.226884 0.610950 0.318444
O O2 0.364956 0.739503 0.360161
O O3 0.365059 0.612852 0.434812
O O4 0.135242 0.697429 0.423678
O O5 0.500000 0.885050 0.750000
O O6 0.371586 0.017696 0.750000
O O7 0.000000 0.304085 0.042103
O O8 0.000000 0.171280 0.966037
O O9 0.500000 0.867976 0.179542
O O10 0.000000 0.000000 0.500000
#
# Coordination Sequence:
#
# PCOD9471527 Si02
#       6
#    16   8   8   8   4   8
#     4  10  20  38  59  79 112 150 184 226 273 336
#     4  10  21  36  55  82 111 141 192 230 271 322
#     4  10  19  37  59  83 107 148 185 223 267 341
#     4  10  20  35  58  82 108 145 184 222 281 329
#     4  10  22  36  52  84 108 142 186 232 266 328
#     4  10  22  36  56  87 115 140 182 236 289 324
#
# _framework density 16.849513000000002
#
# number of rings (size 3 to 8) (size 9 to 14) (size 15 to 20)
#    0.462    1.846    1.538    4.615    0.000    6.769 
#    0.000    2.308    0.000    3.692    0.000    0.000 
#    0.000    0.000    0.000    0.000    0.000    0.000 
#
# Total GULP energy -144816.805854 kJ/mol
# GULP energy per Si atom -5569.877148 kJ/mol
# Density = 1.681116 g / cm^3
# Si number density = 16.849513 Si / 1000 Ang^3
#
#
#
# Elastic Constant Matrix: (Units=GPa)
#
#
# Indices 1 2 3 4 5 6 
#
# 1 142.1421 77.5979 54.0352 0.0000 0.0000 0.0000
# 2 77.5979 153.5158 100.3283 0.0000 0.0000 0.0000
# 3 54.0352 100.3283 85.0139 0.0000 0.0000 0.0000
# 4 0.0000 0.0000 0.0000 26.6108 0.0000 0.0000
# 5 0.0000 0.0000 0.0000 0.0000 456.5138 0.0000
# 6 0.0000 0.0000 0.0000 0.0000 0.0000 12.1835
#
#
#
# Elastic Compliance Matrix: (Units=1/GPa)
#
#
# Indices 1 2 3 4 5 6 
#
# 1 0.009770 -0.003848 -0.001669 0.000000 0.000000 0.000000
# 2 -0.003848 0.029994 -0.032951 0.000000 0.000000 0.000000
# 3 -0.001669 -0.032951 0.051711 0.000000 0.000000 0.000000
# 4 0.000000 0.000000 0.000000 0.037579 0.000000 0.000000
# 5 0.000000 0.000000 0.000000 0.000000 0.002191 0.000000
# 6 0.000000 0.000000 0.000000 0.000000 0.000000 0.082079
#
#
# Mechanical properties :
#
#
# Convention : Reuss Voigt Hill
#
# Bulk Modulus (GPa) = 68.78245 93.84387 81.31316
# Shear Modulus (GPa) = 16.94312 108.97564 62.95938
#
# Velocity S-wave (km/s) = 3.17449 8.05085 6.11938
# Velocity P-wave (km/s) = 7.37203 11.92635 9.91425
#
# Compressibility (1/GPa) = 0.01453859
#
# Stress axis : x y z
#
# Youngs Moduli (GPa) = 102.35100 33.34025 19.33834
#
# Poissons Ratio (x) = 0.12829 0.03228
# Poissons Ratio (y) = 0.39382 0.63722
# Poissons Ratio (z) = 0.17084 1.09860
#
# Static dielectric constant tensor:
#      x y z
#    x 1.564190 0.000000 0.000000 
#    y 0.000000 1.563510 0.000000 
#    z 0.000000 0.000000 1.563850 
# 
# From -- ./inp_files/39563.got.cif
#   From: 2010.05.17/outbox.cif.g08.bks.cpg/sg63_20_cif.got.tgz:39563.got - 2010.06.03 15:47:04.
