data_PCOD9471391
_publ_section_title
;
Structure prediction by ZEFSAII (Michael W. Deem and Ramdas Pophale) SiO2 
 PCOD9471391
Probable space group: C M C M
;
_chemical_formula_sum "Si O2"
_cell_formula_units_Z 116
_cell_length_a 14.994337
_cell_length_b 25.922441
_cell_length_c 16.940880
_cell_angle_alpha 90.000000
_cell_angle_beta 90.000000
_cell_angle_gamma 90.000000
_cell_volume 6584.747534
_symmetry_space_group_name_H-M "C M C M"
_symmetry_group_IT_number 63
_symmetry_cell_setting 'orthorhombic'
loop_
_space_group_symop_operation_xyz
x,y,z
-x,-y,1/2+z
x,-y,-z
-x,y,1/2-z
-x,-y,-z
x,y,1/2-z
-x,y,z
x,-y,1/2+z
1/2+x,1/2+y,z
1/2-x,1/2-y,1/2+z
1/2+x,1/2-y,-z
1/2-x,1/2+y,1/2-z
1/2-x,1/2-y,-z
1/2+x,1/2+y,1/2-z
1/2-x,1/2+y,z
1/2+x,1/2-y,1/2+z
loop_
_atom_site_type_symbol
_atom_site_label
_atom_site_fract_x
_atom_site_fract_y
_atom_site_fract_z
Si Si1 0.714573 0.712609 0.432021
Si Si2 0.500000 0.872287 0.750000
Si Si3 0.656617 0.875494 0.618872
Si Si4 0.602233 0.384093 0.512138
Si Si5 0.395449 0.795646 0.341245
Si Si6 0.773399 0.962392 0.076125
Si Si7 0.896538 0.599880 0.560702
Si Si8 0.170244 0.058224 0.161222
O O1 0.750000 0.750000 0.500000
O O2 0.794103 0.679292 0.394000
O O3 0.647271 0.670698 0.469525
O O4 0.663869 0.748047 0.369221
O O5 0.577899 0.872668 0.680919
O O6 0.623298 0.893416 0.532398
O O7 0.733606 0.914586 0.647878
O O8 0.500000 0.379785 0.487378
O O9 0.663136 0.415385 0.450175
O O10 0.609064 0.416587 0.593798
O O11 0.378237 0.808829 0.250000
O O12 0.500000 0.781852 0.348888
O O13 0.380411 0.845414 0.396323
O O14 0.675258 0.940685 0.093271
O O15 0.815549 0.997922 0.143346
O O16 0.766761 0.000000 0.000000
O O17 0.000000 0.585440 0.572845
O O18 0.139424 0.067728 0.250000
#
# Coordination Sequence:
#
# PCOD9471391 Si02
#       8
#    16   4  16  16  16  16  16  16
#     4  11  20  37  61  84 112 150 198 239 292 349
#     4  12  24  36  56  86 128 156 184 240 314 350
#     4  11  21  36  56  83 115 151 185 237 291 347
#     4  10  21  36  58  84 115 145 190 241 291 341
#     4  10  22  37  56  83 115 148 191 241 290 341
#     4  10  19  36  55  82 112 146 192 234 285 345
#     4  11  20  37  58  82 113 152 194 239 286 347
#     4  10  21  37  56  82 116 148 190 235 290 344
#
# _framework density 17.616468999999999
#
# number of rings (size 3 to 8) (size 9 to 14) (size 15 to 20)
#    0.000    1.517    6.897    0.414    0.966    4.138 
#    2.483    0.000    0.000    0.000    0.000    0.000 
#    0.000    0.000    0.000    0.000    0.000    0.000 
#
# Total GULP energy -323181.534363 kJ/mol
# GULP energy per Si atom -5572.095420 kJ/mol
# Density = 1.757637 g / cm^3
# Si number density = 17.616469 Si / 1000 Ang^3
#
#
#
# Elastic Constant Matrix: (Units=GPa)
#
#
# Indices 1 2 3 4 5 6 
#
# 1 81.3013 17.6698 -2.8759 0.0000 0.0000 0.0000
# 2 17.6698 48.4091 10.2960 0.0000 0.0000 0.0000
# 3 -2.8759 10.2960 61.4702 0.0000 0.0000 0.0000
# 4 0.0000 0.0000 0.0000 16.7003 0.0000 0.0000
# 5 0.0000 0.0000 0.0000 0.0000 20.1787 0.0000
# 6 0.0000 0.0000 0.0000 0.0000 0.0000 15.4222
#
#
#
# Elastic Compliance Matrix: (Units=1/GPa)
#
#
# Indices 1 2 3 4 5 6 
#
# 1 0.013494 -0.005246 0.001510 0.000000 0.000000 0.000000
# 2 -0.005246 0.023460 -0.004175 0.000000 0.000000 0.000000
# 3 0.001510 -0.004175 0.017038 0.000000 0.000000 0.000000
# 4 0.000000 0.000000 0.000000 0.059879 0.000000 0.000000
# 5 0.000000 0.000000 0.000000 0.000000 0.049557 0.000000
# 6 0.000000 0.000000 0.000000 0.000000 0.000000 0.064841
#
#
# Mechanical properties :
#
#
# Convention : Reuss Voigt Hill
#
# Bulk Modulus (GPa) = 26.19921 26.81784 26.50852
# Shear Modulus (GPa) = 19.46925 21.53296 20.50111
#
# Velocity S-wave (km/s) = 3.32802 3.49996 3.41507
# Velocity P-wave (km/s) = 5.44719 5.62043 5.53449
#
# Compressibility (1/GPa) = 0.03816909
#
# Stress axis : x y z
#
# Youngs Moduli (GPa) = 74.10925 42.62527 58.69243
#
# Poissons Ratio (x) = 0.22363 -0.08863
# Poissons Ratio (y) = 0.38881 0.24504
# Poissons Ratio (z) = -0.11191 0.17796
#
# Static dielectric constant tensor:
#      x y z
#    x 1.594260 0.000000 0.000000 
#    y 0.000000 1.595450 0.000000 
#    z 0.000000 0.000000 1.598610 
# 
# From -- ./inp_files/44638.got.cif
#   From: 2010.05.17/outbox.cif.g08.bks.cpg/sg63_23_cif.got.tgz:44638.got - 2010.06.03 15:47:04.
