data_PCOD9471487
_publ_section_title
;
Structure prediction by ZEFSAII (Michael W. Deem and Ramdas Pophale) SiO2 
 PCOD9471487
Probable space group: C M C M
;
_chemical_formula_sum "Si O2"
_cell_formula_units_Z 92
_cell_length_a 22.717068
_cell_length_b 28.215715
_cell_length_c 7.795947
_cell_angle_alpha 90.000000
_cell_angle_beta 90.000000
_cell_angle_gamma 90.000000
_cell_volume 4997.032982
_symmetry_space_group_name_H-M "C M C M"
_symmetry_group_IT_number 63
_symmetry_cell_setting 'orthorhombic'
loop_
_space_group_symop_operation_xyz
x,y,z
-x,-y,1/2+z
x,-y,-z
-x,y,1/2-z
-x,-y,-z
x,y,1/2-z
-x,y,z
x,-y,1/2+z
1/2+x,1/2+y,z
1/2-x,1/2-y,1/2+z
1/2+x,1/2-y,-z
1/2-x,1/2+y,1/2-z
1/2-x,1/2-y,-z
1/2+x,1/2+y,1/2-z
1/2-x,1/2+y,z
1/2+x,1/2-y,1/2+z
loop_
_atom_site_type_symbol
_atom_site_label
_atom_site_fract_x
_atom_site_fract_y
_atom_site_fract_z
Si Si1 0.000000 0.055195 0.047328
Si Si2 0.297872 0.150831 0.452805
Si Si3 0.876685 0.100853 0.952366
Si Si4 0.821714 0.802908 0.948905
Si Si5 0.500000 0.209630 0.250000
Si Si6 0.601201 0.213926 0.547868
Si Si7 0.258091 0.553376 0.545914
O O1 0.000000 0.059299 0.250000
O O2 0.940847 0.079987 0.981926
O O3 0.000000 0.000000 0.000000
O O4 0.303513 0.159914 0.250000
O O5 0.241090 0.180333 0.523378
O O6 0.357051 0.167847 0.541811
O O7 0.281986 0.095652 0.475198
O O8 0.868903 0.108059 0.750000
O O9 0.825010 0.065355 0.013564
O O10 0.864166 0.151486 0.036693
O O11 0.810065 0.793192 0.750000
O O12 0.855921 0.757080 0.012365
O O13 0.550888 0.210122 0.404898
O O14 0.583211 0.222046 0.750000
O O15 0.241697 0.500000 0.500000
O O16 0.256961 0.557220 0.750000
#
# Coordination Sequence:
#
# PCOD9471487 Si02
#       7
#     8  16  16  16   4  16  16
#     4  12  24  37  52  68  98 143 201 249 294 348
#     4  10  19  36  61  90 122 155 196 244 304 359
#     4  10  21  35  53  76 107 149 198 243 297 352
#     4   9  20  36  58  86 118 155 195 250 302 348
#     4  12  26  42  60  86 122 162 204 236 302 350
#     4  11  23  41  62  89 123 160 206 246 295 360
#     4  10  20  34  54  84 117 149 187 242 303 356
#
# _framework density 18.410926
#
# number of rings (size 3 to 8) (size 9 to 14) (size 15 to 20)
#    0.000    1.739    0.870    3.652    1.217    4.870 
#    0.000    0.870    0.000    0.000    0.000    0.609 
#    0.000    0.000    0.000    0.000    0.000    0.000 
#
# Total GULP energy -256152.677881 kJ/mol
# GULP energy per Si atom -5568.536476 kJ/mol
# Density = 1.836902 g / cm^3
# Si number density = 18.410926 Si / 1000 Ang^3
#
#
#
# Elastic Constant Matrix: (Units=GPa)
#
#
# Indices 1 2 3 4 5 6 
#
# 1 90.0904 53.1639 31.9372 0.0000 0.0000 0.0000
# 2 53.1639 81.4603 15.1048 0.0000 0.0000 0.0000
# 3 31.9372 15.1048 89.3146 0.0000 0.0000 0.0000
# 4 0.0000 0.0000 0.0000 23.8617 0.0000 0.0000
# 5 0.0000 0.0000 0.0000 0.0000 27.3141 0.0000
# 6 0.0000 0.0000 0.0000 0.0000 0.0000 3.8343
#
#
#
# Elastic Compliance Matrix: (Units=1/GPa)
#
#
# Indices 1 2 3 4 5 6 
#
# 1 0.020097 -0.012165 -0.005129 0.000000 0.000000 0.000000
# 2 -0.012165 0.020037 0.000961 0.000000 0.000000 0.000000
# 3 -0.005129 0.000961 0.012868 0.000000 0.000000 0.000000
# 4 0.000000 0.000000 0.000000 0.041908 0.000000 0.000000
# 5 0.000000 0.000000 0.000000 0.000000 0.036611 0.000000
# 6 0.000000 0.000000 0.000000 0.000000 0.000000 0.260802
#
#
# Mechanical properties :
#
#
# Convention : Reuss Voigt Hill
#
# Bulk Modulus (GPa) = 49.17257 51.25299 50.21278
# Shear Modulus (GPa) = 11.58033 21.71267 16.64650
#
# Velocity S-wave (km/s) = 2.51069 3.43787 3.01019
# Velocity P-wave (km/s) = 5.93052 6.60738 6.27808
#
# Compressibility (1/GPa) = 0.02033654
#
# Stress axis : x y z
#
# Youngs Moduli (GPa) = 49.75893 49.90792 77.71332
#
# Poissons Ratio (x) = 0.60712 0.39859
# Poissons Ratio (y) = 0.60531 -0.07471
# Poissons Ratio (z) = 0.25521 -0.04798
#
# Static dielectric constant tensor:
#      x y z
#    x 1.624140 0.000000 0.000000 
#    y 0.000000 1.649660 0.000000 
#    z 0.000000 0.000000 1.500460 
# 
# From -- ./inp_files/8680.got.cif
#   From: 2010.05.17/outbox.cif.g08.bks.cpg/sg63_5_cif.got.tgz:8680.got - 2010.06.03 15:47:04.
