data_PCOD9471957
_publ_section_title
;
Structure prediction by ZEFSAII (Michael W. Deem and Ramdas Pophale) SiO2 
 PCOD9471957
Probable space group: C M C M
;
_chemical_formula_sum "Si O2"
_cell_formula_units_Z 96
_cell_length_a 25.911399
_cell_length_b 24.285975
_cell_length_c 8.621393
_cell_angle_alpha 90.000000
_cell_angle_beta 90.000000
_cell_angle_gamma 90.000000
_cell_volume 5425.301123
_symmetry_space_group_name_H-M "C M C M"
_symmetry_group_IT_number 63
_symmetry_cell_setting 'orthorhombic'
loop_
_space_group_symop_operation_xyz
x,y,z
-x,-y,1/2+z
x,-y,-z
-x,y,1/2-z
-x,-y,-z
x,y,1/2-z
-x,y,z
x,-y,1/2+z
1/2+x,1/2+y,z
1/2-x,1/2-y,1/2+z
1/2+x,1/2-y,-z
1/2-x,1/2+y,1/2-z
1/2-x,1/2-y,-z
1/2+x,1/2+y,1/2-z
1/2-x,1/2+y,z
1/2+x,1/2-y,1/2+z
loop_
_atom_site_type_symbol
_atom_site_label
_atom_site_fract_x
_atom_site_fract_y
_atom_site_fract_z
Si Si1 0.806085 0.060177 0.563400
Si Si2 0.500000 0.561574 0.562869
Si Si3 0.808202 0.560303 0.434910
Si Si4 0.060027 0.248885 0.437218
Si Si5 0.100100 0.368141 0.437818
Si Si6 0.598236 0.634299 0.937168
Si Si7 0.000000 0.561416 0.563209
O O1 0.803914 0.057588 0.750000
O O2 0.749128 0.071934 0.498754
O O3 0.848321 0.105355 0.516589
O O4 0.821573 0.000000 0.500000
O O5 0.500000 0.500000 0.500000
O O6 0.500000 0.559377 0.750000
O O7 0.449303 0.595275 0.513146
O O8 0.823532 0.500000 0.500000
O O9 0.806806 0.557410 0.250000
O O10 0.848824 0.605469 0.491320
O O11 0.059436 0.248066 0.250000
O O12 0.087639 0.305563 0.484976
O O13 0.088502 0.194803 0.497517
O O14 0.000000 0.248647 0.489204
O O15 0.103857 0.369666 0.250000
O O16 0.051074 0.405416 0.484579
O O17 0.597273 0.637123 0.750000
O O18 0.000000 0.500000 0.500000
O O19 0.000000 0.559729 0.750000
#
# Coordination Sequence:
#
# PCOD9471957 Si02
#       7
#    16   8  16  16  16  16   8
#     4  10  20  36  58  83 111 147 185 227 279 330
#     4  10  20  33  50  78 112 143 175 222 275 326
#     4  11  22  37  58  84 112 146 185 227 278 331
#     4  10  20  36  58  82 109 148 189 225 273 327
#     4  10  20  37  57  80 112 145 183 229 273 326
#     4  10  21  36  55  80 113 146 182 227 277 328
#     4  10  20  33  52  78 110 141 173 218 271 324
#
# _framework density 17.694869000000001
#
# number of rings (size 3 to 8) (size 9 to 14) (size 15 to 20)
#    0.000    1.833    1.667    4.000    0.000    4.667 
#    0.000    0.833    0.000    0.000    0.000    0.000 
#    0.000    0.000    0.000    0.000    0.000    0.000 
#
# Total GULP energy -268094.767822 kJ/mol
# GULP energy per Si atom -5585.307663 kJ/mol
# Density = 1.765459 g / cm^3
# Si number density = 17.694869 Si / 1000 Ang^3
#
#
#
# Elastic Constant Matrix: (Units=GPa)
#
#
# Indices 1 2 3 4 5 6 
#
# 1 124.1481 109.7419 40.0878 0.0000 0.0000 0.0000
# 2 109.7419 196.2216 43.4024 0.0000 0.0000 0.0000
# 3 40.0878 43.4024 44.1427 0.0000 0.0000 0.0000
# 4 0.0000 0.0000 0.0000 31.8322 0.0000 0.0000
# 5 0.0000 0.0000 0.0000 0.0000 11.7390 0.0000
# 6 0.0000 0.0000 0.0000 0.0000 0.0000 21.9824
#
#
#
# Elastic Compliance Matrix: (Units=1/GPa)
#
#
# Indices 1 2 3 4 5 6 
#
# 1 0.018008 -0.008248 -0.008244 0.000000 0.000000 0.000000
# 2 -0.008248 0.010290 -0.002628 0.000000 0.000000 0.000000
# 3 -0.008244 -0.002628 0.032724 0.000000 0.000000 0.000000
# 4 0.000000 0.000000 0.000000 0.031415 0.000000 0.000000
# 5 0.000000 0.000000 0.000000 0.000000 0.085186 0.000000
# 6 0.000000 0.000000 0.000000 0.000000 0.000000 0.045491
#
#
# Mechanical properties :
#
#
# Convention : Reuss Voigt Hill
#
# Bulk Modulus (GPa) = 43.89196 83.44183 63.66689
# Shear Modulus (GPa) = 18.59107 24.52941 21.56024
#
# Velocity S-wave (km/s) = 3.24489 3.72727 3.49441
# Velocity P-wave (km/s) = 6.23681 8.11059 7.23462
#
# Compressibility (1/GPa) = 0.02278322
#
# Stress axis : x y z
#
# Youngs Moduli (GPa) = 55.53238 97.18004 30.55861
#
# Poissons Ratio (x) = 0.80151 0.25193
# Poissons Ratio (y) = 0.45801 0.08029
# Poissons Ratio (z) = 0.45781 0.25535
#
# Static dielectric constant tensor:
#      x y z
#    x 1.591680 0.000000 0.000000 
#    y 0.000000 1.573490 0.000000 
#    z 0.000000 0.000000 1.600330 
# 
# From -- ./inp_files/10513.got.cif
#   From: 2010.05.17/outbox.cif.g08.bks.cpg/sg63_6_cif.got.tgz:10513.got - 2010.06.03 15:47:04.
