data_PCOD9471077
_publ_section_title
;
Structure prediction by ZEFSAII (Michael W. Deem and Ramdas Pophale) SiO2 
 PCOD9471077
Probable space group: C M C M
;
_chemical_formula_sum "Si O2"
_cell_formula_units_Z 96
_cell_length_a 7.742535
_cell_length_b 20.705185
_cell_length_c 28.568841
_cell_angle_alpha 90.000000
_cell_angle_beta 90.000000
_cell_angle_gamma 90.000000
_cell_volume 4579.888600
_symmetry_space_group_name_H-M "C M C M"
_symmetry_group_IT_number 63
_symmetry_cell_setting 'orthorhombic'
loop_
_space_group_symop_operation_xyz
x,y,z
-x,-y,1/2+z
x,-y,-z
-x,y,1/2-z
-x,-y,-z
x,y,1/2-z
-x,y,z
x,-y,1/2+z
1/2+x,1/2+y,z
1/2-x,1/2-y,1/2+z
1/2+x,1/2-y,-z
1/2-x,1/2+y,1/2-z
1/2-x,1/2-y,-z
1/2+x,1/2+y,1/2-z
1/2-x,1/2+y,z
1/2+x,1/2-y,1/2+z
loop_
_atom_site_type_symbol
_atom_site_label
_atom_site_fract_x
_atom_site_fract_y
_atom_site_fract_z
Si Si1 0.291878 0.344935 0.128773
Si Si2 0.294356 0.914708 0.460722
Si Si3 0.209864 0.441110 0.936396
Si Si4 0.797083 0.262623 0.698243
Si Si5 0.298898 0.402312 0.834111
Si Si6 0.789131 0.042110 0.802548
O O1 0.500000 0.344617 0.129344
O O2 0.243454 0.357718 0.075207
O O3 0.227087 0.281768 0.156217
O O4 0.230311 0.406386 0.159229
O O5 0.500000 0.921575 0.463858
O O6 0.234230 0.909415 0.514348
O O7 0.232134 0.983713 0.439892
O O8 0.279763 0.408021 0.889993
O O9 0.000000 0.439611 0.933379
O O10 0.721830 0.250264 0.750000
O O11 0.783319 0.337682 0.685693
O O12 0.000000 0.246396 0.701307
O O13 0.500000 0.398958 0.821395
O O14 0.228495 0.469744 0.813782
O O15 0.740254 0.061226 0.750000
O O16 0.000000 0.041253 0.804488
#
# Coordination Sequence:
#
# PCOD9471077 Si02
#       6
#    16  16  16  16  16  16
#     4  10  19  34  56  81 107 140 183 226 269 321
#     4   9  18  33  55  82 112 144 176 220 276 327
#     4   9  18  34  55  80 112 147 179 216 272 335
#     4  10  22  39  57  77 108 151 188 219 266 329
#     4  11  21  34  55  83 111 142 181 229 277 318
#     4   9  17  30  50  77 106 134 171 221 271 317
#
# _framework density 20.961207000000002
#
# number of rings (size 3 to 8) (size 9 to 14) (size 15 to 20)
#    0.000    2.333    1.667    2.500    0.000    4.333 
#    0.000    2.500    0.000    2.500    0.000    0.000 
#    0.000    0.000    0.000    0.000    0.000    0.000 
#
# Total GULP energy -267925.209694 kJ/mol
# GULP energy per Si atom -5581.775202 kJ/mol
# Density = 2.091350 g / cm^3
# Si number density = 20.961207 Si / 1000 Ang^3
#
#
#
# Elastic Constant Matrix: (Units=GPa)
#
#
# Indices 1 2 3 4 5 6 
#
# 1 27.3330 -6.2773 -9.8531 0.0000 0.0000 0.0000
# 2 -6.2773 28.6956 -17.7779 0.0000 0.0000 0.0000
# 3 -9.8531 -17.7779 68.1985 0.0000 0.0000 0.0000
# 4 0.0000 0.0000 0.0000 21.4530 0.0000 0.0000
# 5 0.0000 0.0000 0.0000 0.0000 48.6736 0.0000
# 6 0.0000 0.0000 0.0000 0.0000 0.0000 13.6974
#
#
#
# Elastic Compliance Matrix: (Units=1/GPa)
#
#
# Indices 1 2 3 4 5 6 
#
# 1 0.044136 0.016226 0.010606 0.000000 0.000000 0.000000
# 2 0.016226 0.047526 0.014733 0.000000 0.000000 0.000000
# 3 0.010606 0.014733 0.020036 0.000000 0.000000 0.000000
# 4 0.000000 0.000000 0.000000 0.046613 0.000000 0.000000
# 5 0.000000 0.000000 0.000000 0.000000 0.020545 0.000000
# 6 0.000000 0.000000 0.000000 0.000000 0.000000 0.073007
#
#
# Mechanical properties :
#
#
# Convention : Reuss Voigt Hill
#
# Bulk Modulus (GPa) = 5.13274 6.26785 5.70030
# Shear Modulus (GPa) = 21.39726 27.30715 24.35221
#
# Velocity S-wave (km/s) = 3.19847 3.61327 3.41218
# Velocity P-wave (km/s) = 4.01176 4.51712 4.27192
#
# Compressibility (1/GPa) = 0.19482765
#
# Stress axis : x y z
#
# Youngs Moduli (GPa) = 22.65748 21.04124 49.91005
#
# Poissons Ratio (x) = -0.34141 -0.52936
# Poissons Ratio (y) = -0.36763 -0.73533
# Poissons Ratio (z) = -0.24031 -0.31000
#
# Static dielectric constant tensor:
#      x y z
#    x 1.784930 0.000000 0.000000 
#    y 0.000000 1.734030 0.000000 
#    z 0.000000 0.000000 1.778790 
# 
# From -- ./inp_files/66973.got.cif
#   From: 2010.05.17/outbox.cif.g08.bks.cpg/sg63_34_cif.got.tgz:66973.got - 2010.06.03 15:47:04.
