data_PCOD9471277
_publ_section_title
;
Structure prediction by ZEFSAII (Michael W. Deem and Ramdas Pophale) SiO2 
 PCOD9471277
Probable space group: C M C M
;
_chemical_formula_sum "Si O2"
_cell_formula_units_Z 80
_cell_length_a 20.945012
_cell_length_b 23.721852
_cell_length_c 7.617968
_cell_angle_alpha 90.000000
_cell_angle_beta 90.000000
_cell_angle_gamma 90.000000
_cell_volume 3785.021490
_symmetry_space_group_name_H-M "C M C M"
_symmetry_group_IT_number 63
_symmetry_cell_setting 'orthorhombic'
loop_
_space_group_symop_operation_xyz
x,y,z
-x,-y,1/2+z
x,-y,-z
-x,y,1/2-z
-x,-y,-z
x,y,1/2-z
-x,y,z
x,-y,1/2+z
1/2+x,1/2+y,z
1/2-x,1/2-y,1/2+z
1/2+x,1/2-y,-z
1/2-x,1/2+y,1/2-z
1/2-x,1/2-y,-z
1/2+x,1/2+y,1/2-z
1/2-x,1/2+y,z
1/2+x,1/2-y,1/2+z
loop_
_atom_site_type_symbol
_atom_site_label
_atom_site_fract_x
_atom_site_fract_y
_atom_site_fract_z
Si Si1 0.880911 0.361344 0.953126
Si Si2 0.739046 0.934911 0.458922
Si Si3 0.500000 0.066550 0.038274
Si Si4 0.500000 0.433660 0.460917
Si Si5 0.869141 0.122789 0.964748
Si Si6 0.674496 0.254194 0.038526
O O1 0.898473 0.351155 0.750000
O O2 0.937582 0.399847 0.028341
O O3 0.863456 0.300357 0.031135
O O4 0.816042 0.397056 0.959288
O O5 0.735532 0.926270 0.250000
O O6 0.808895 0.915163 0.518933
O O7 0.728647 0.000000 0.500000
O O8 0.500000 0.068918 0.250000
O O9 0.500000 0.000000 0.000000
O O10 0.500000 0.500000 0.500000
O O11 0.500000 0.427978 0.250000
O O12 0.564312 0.403444 0.526078
O O13 0.870286 0.122913 0.750000
O O14 0.854555 0.186546 0.022613
O O15 0.669522 0.253629 0.250000
O O16 0.750000 0.250000 0.000000
#
# Coordination Sequence:
#
# PCOD9471277 Si02
#       6
#    16  16   8   8  16  16
#     4  10  21  36  57  82 109 143 183 227 276 327
#     4  11  21  34  53  79 110 142 185 230 272 325
#     4  10  22  39  55  79 111 144 183 226 274 325
#     4  10  20  37  57  79 111 148 185 226 273 326
#     4   9  19  34  55  81 109 143 181 223 273 324
#     4  10  19  35  57  83 112 142 180 227 276 327
#
# _framework density 21.135943000000001
#
# number of rings (size 3 to 8) (size 9 to 14) (size 15 to 20)
#    0.000    2.000    2.000    1.800    0.000    3.200 
#    0.000    6.000    0.000    0.000    0.000    2.800 
#    0.000    0.000    0.000    0.000    0.000    0.000 
#
# Total GULP energy -223447.823920 kJ/mol
# GULP energy per Si atom -5586.195598 kJ/mol
# Density = 2.108784 g / cm^3
# Si number density = 21.135943 Si / 1000 Ang^3
#
#
#
# Elastic Constant Matrix: (Units=GPa)
#
#
# Indices 1 2 3 4 5 6 
#
# 1 132.1841 43.3793 -3.3692 0.0000 0.0000 0.0000
# 2 43.3793 143.1430 -6.7908 0.0000 0.0000 0.0000
# 3 -3.3692 -6.7908 47.6413 0.0000 0.0000 0.0000
# 4 0.0000 0.0000 0.0000 6.3977 0.0000 0.0000
# 5 0.0000 0.0000 0.0000 0.0000 24.8745 0.0000
# 6 0.0000 0.0000 0.0000 0.0000 0.0000 44.1433
#
#
#
# Elastic Compliance Matrix: (Units=1/GPa)
#
#
# Indices 1 2 3 4 5 6 
#
# 1 0.008403 -0.002536 0.000233 0.000000 0.000000 0.000000
# 2 -0.002536 0.007799 0.000932 0.000000 0.000000 0.000000
# 3 0.000233 0.000932 0.021140 0.000000 0.000000 0.000000
# 4 0.000000 0.000000 0.000000 0.156307 0.000000 0.000000
# 5 0.000000 0.000000 0.000000 0.000000 0.040202 0.000000
# 6 0.000000 0.000000 0.000000 0.000000 0.000000 0.022653
#
#
# Mechanical properties :
#
#
# Convention : Reuss Voigt Hill
#
# Bulk Modulus (GPa) = 28.90117 43.26747 36.08432
# Shear Modulus (GPa) = 18.46533 34.39969 26.43251
#
# Velocity S-wave (km/s) = 2.95896 4.03866 3.54021
# Velocity P-wave (km/s) = 5.03761 6.50101 5.81553
#
# Compressibility (1/GPa) = 0.03460067
#
# Stress axis : x y z
#
# Youngs Moduli (GPa) = 119.00175 128.22742 47.30467
#
# Poissons Ratio (x) = 0.32513 -0.01102
# Poissons Ratio (y) = 0.30173 -0.04410
# Poissons Ratio (z) = -0.02771 -0.11955
#
# Static dielectric constant tensor:
#      x y z
#    x 1.731280 0.000000 0.000000 
#    y 0.000000 1.735990 0.000000 
#    z 0.000000 0.000000 1.800390 
# 
# From -- ./inp_files/8093.got.cif
#   From: 2010.05.17/outbox.cif.g08.bks.cpg/sg63_5_cif.got.tgz:8093.got - 2010.06.03 15:47:04.
