data_PCOD9471477
_publ_section_title
;
Structure prediction by ZEFSAII (Michael W. Deem and Ramdas Pophale) SiO2 
 PCOD9471477
Probable space group: C M C M
;
_chemical_formula_sum "Si O2"
_cell_formula_units_Z 64
_cell_length_a 7.818271
_cell_length_b 24.774483
_cell_length_c 18.059138
_cell_angle_alpha 90.000000
_cell_angle_beta 90.000000
_cell_angle_gamma 90.000000
_cell_volume 3497.939849
_symmetry_space_group_name_H-M "C M C M"
_symmetry_group_IT_number 63
_symmetry_cell_setting 'orthorhombic'
loop_
_space_group_symop_operation_xyz
x,y,z
-x,-y,1/2+z
x,-y,-z
-x,y,1/2-z
-x,-y,-z
x,y,1/2-z
-x,y,z
x,-y,1/2+z
1/2+x,1/2+y,z
1/2-x,1/2-y,1/2+z
1/2+x,1/2-y,-z
1/2-x,1/2+y,1/2-z
1/2-x,1/2-y,-z
1/2+x,1/2+y,1/2-z
1/2-x,1/2+y,z
1/2+x,1/2-y,1/2+z
loop_
_atom_site_type_symbol
_atom_site_label
_atom_site_fract_x
_atom_site_fract_y
_atom_site_fract_z
Si Si1 0.304078 0.807719 0.403976
Si Si2 0.000000 0.001307 0.159912
Si Si3 0.000000 0.877791 0.338611
Si Si4 0.794863 0.813787 0.573553
Si Si5 0.805237 0.420410 0.838761
O O1 0.500000 0.817235 0.380555
O O2 0.167442 0.846610 0.366759
O O3 0.289846 0.815122 0.492711
O O4 0.258419 0.744723 0.390845
O O5 0.000000 0.939700 0.133965
O O6 0.000000 0.999839 0.250000
O O7 0.832762 0.035035 0.137121
O O8 0.000000 0.878161 0.250000
O O9 0.734539 0.863718 0.622349
O O10 0.000000 0.816625 0.563283
O O11 0.788382 0.413750 0.750000
O O12 0.000000 0.436822 0.854803
#
# Coordination Sequence:
#
# PCOD9471477 Si02
#       5
#    16   8   8  16  16
#     4  10  22  38  58  86 117 156 194 229 289 350
#     4   9  20  39  57  79 115 155 194 239 290 341
#     4  11  24  41  61  85 118 155 195 239 286 345
#     4  10  19  36  61  85 119 154 189 237 287 349
#     4  10  20  34  57  87 114 149 194 243 293 338
#
# _framework density 18.296484
#
# number of rings (size 3 to 8) (size 9 to 14) (size 15 to 20)
#    0.000    2.000    2.500    0.750    3.500    2.500 
#    0.000    7.500    0.000    3.000    0.000    0.000 
#    0.000    0.000    0.000    0.000    0.000    0.000 
#
# Total GULP energy -178654.771442 kJ/mol
# GULP energy per Si atom -5582.961608 kJ/mol
# Density = 1.825484 g / cm^3
# Si number density = 18.296484 Si / 1000 Ang^3
#
#
#
# Elastic Constant Matrix: (Units=GPa)
#
#
# Indices 1 2 3 4 5 6 
#
# 1 145.1233 109.1871 34.9618 0.0000 0.0000 0.0000
# 2 109.1871 175.4813 47.1898 0.0000 0.0000 0.0000
# 3 34.9618 47.1898 22.1934 0.0000 0.0000 0.0000
# 4 0.0000 0.0000 0.0000 60.6101 0.0000 0.0000
# 5 0.0000 0.0000 0.0000 0.0000 25.0645 0.0000
# 6 0.0000 0.0000 0.0000 0.0000 0.0000 25.9347
#
#
#
# Elastic Compliance Matrix: (Units=1/GPa)
#
#
# Indices 1 2 3 4 5 6 
#
# 1 0.013534 -0.006277 -0.007975 0.000000 0.000000 0.000000
# 2 -0.006277 0.016219 -0.024599 0.000000 0.000000 0.000000
# 3 -0.007975 -0.024599 0.109926 0.000000 0.000000 0.000000
# 4 0.000000 0.000000 0.000000 0.016499 0.000000 0.000000
# 5 0.000000 0.000000 0.000000 0.000000 0.039897 0.000000
# 6 0.000000 0.000000 0.000000 0.000000 0.000000 0.038558
#
#
# Mechanical properties :
#
#
# Convention : Reuss Voigt Hill
#
# Bulk Modulus (GPa) = 16.13454 80.60839 48.37147
# Shear Modulus (GPa) = 15.01524 32.41914 23.71719
#
# Velocity S-wave (km/s) = 2.86783 4.21393 3.60428
# Velocity P-wave (km/s) = 4.45011 8.23582 6.61937
#
# Compressibility (1/GPa) = 0.06197883
#
# Stress axis : x y z
#
# Youngs Moduli (GPa) = 73.88602 61.65557 9.09700
#
# Poissons Ratio (x) = 0.38699 0.07255
# Poissons Ratio (y) = 0.46376 0.22378
# Poissons Ratio (z) = 0.58923 1.51666
#
# Static dielectric constant tensor:
#      x y z
#    x 1.639500 0.000000 0.000000 
#    y 0.000000 1.609780 0.000000 
#    z 0.000000 0.000000 1.606070 
# 
# From -- ./inp_files/39892.got.cif
#   From: 2010.05.17/outbox.cif.g08.bks.cpg/sg63_20_cif.got.tgz:39892.got - 2010.06.03 15:47:04.
