data_PCOD9471933
_publ_section_title
;
Structure prediction by ZEFSAII (Michael W. Deem and Ramdas Pophale) SiO2 
 PCOD9471933
Probable space group: C M C M
;
_chemical_formula_sum "Si O2"
_cell_formula_units_Z 80
_cell_length_a 27.302878
_cell_length_b 18.972840
_cell_length_c 8.869540
_cell_angle_alpha 90.000000
_cell_angle_beta 90.000000
_cell_angle_gamma 90.000000
_cell_volume 4594.538229
_symmetry_space_group_name_H-M "C M C M"
_symmetry_group_IT_number 63
_symmetry_cell_setting 'orthorhombic'
loop_
_space_group_symop_operation_xyz
x,y,z
-x,-y,1/2+z
x,-y,-z
-x,y,1/2-z
-x,-y,-z
x,y,1/2-z
-x,y,z
x,-y,1/2+z
1/2+x,1/2+y,z
1/2-x,1/2-y,1/2+z
1/2+x,1/2-y,-z
1/2-x,1/2+y,1/2-z
1/2-x,1/2-y,-z
1/2+x,1/2+y,1/2-z
1/2-x,1/2+y,z
1/2+x,1/2-y,1/2+z
loop_
_atom_site_type_symbol
_atom_site_label
_atom_site_fract_x
_atom_site_fract_y
_atom_site_fract_z
Si Si1 0.201236 0.718507 0.430162
Si Si2 0.941023 0.074342 0.426890
Si Si3 0.096593 0.782869 0.430395
Si Si4 0.651207 0.074594 0.431191
Si Si5 0.055617 0.357328 0.430608
O O1 0.206467 0.718116 0.250000
O O2 0.250000 0.750000 0.500000
O O3 0.153088 0.764627 0.466376
O O4 0.187130 0.638747 0.476883
O O5 0.928713 0.075750 0.250000
O O6 0.917979 0.140683 0.511252
O O7 0.000000 0.079716 0.440540
O O8 0.926188 0.000000 0.500000
O O9 0.090090 0.777294 0.250000
O O10 0.064793 0.722184 0.510757
O O11 0.649791 0.071476 0.250000
O O12 0.597353 0.095762 0.491609
O O13 0.665800 0.000000 0.500000
O O14 0.061689 0.359504 0.250000
O O15 0.000000 0.378879 0.467205
#
# Coordination Sequence:
#
# PCOD9471933 Si02
#       5
#    16  16  16  16  16
#     4   9  20  37  57  80 103 131 170 214 260 310
#     4  10  20  33  50  74 104 139 177 215 259 310
#     4  10  20  34  52  76 105 136 173 216 261 310
#     4  10  21  37  56  80 108 138 173 212 258 309
#     4  10  20  33  51  77 107 141 179 214 252 301
#
# _framework density 17.411978999999999
#
# number of rings (size 3 to 8) (size 9 to 14) (size 15 to 20)
#    0.000    2.200    0.000    4.200    0.000   10.400 
#    0.000    1.000    0.000    2.400    0.000    0.000 
#    0.000    0.000    0.000    0.000    0.000    0.000 
#
# Total GULP energy -223284.721997 kJ/mol
# GULP energy per Si atom -5582.118050 kJ/mol
# Density = 1.737235 g / cm^3
# Si number density = 17.411979 Si / 1000 Ang^3
#
#
#
# Elastic Constant Matrix: (Units=GPa)
#
#
# Indices 1 2 3 4 5 6 
#
# 1 85.2641 39.6587 39.4234 0.0000 0.0000 0.0000
# 2 39.6587 118.9862 38.5022 0.0000 0.0000 0.0000
# 3 39.4234 38.5022 62.5473 0.0000 0.0000 0.0000
# 4 0.0000 0.0000 0.0000 35.8613 0.0000 0.0000
# 5 0.0000 0.0000 0.0000 0.0000 29.5631 0.0000
# 6 0.0000 0.0000 0.0000 0.0000 0.0000 8.2547
#
#
#
# Elastic Compliance Matrix: (Units=1/GPa)
#
#
# Indices 1 2 3 4 5 6 
#
# 1 0.017262 -0.002788 -0.009164 0.000000 0.000000 0.000000
# 2 -0.002788 0.010945 -0.004980 0.000000 0.000000 0.000000
# 3 -0.009164 -0.004980 0.024830 0.000000 0.000000 0.000000
# 4 0.000000 0.000000 0.000000 0.027885 0.000000 0.000000
# 5 0.000000 0.000000 0.000000 0.000000 0.033826 0.000000
# 6 0.000000 0.000000 0.000000 0.000000 0.000000 0.121143
#
#
# Mechanical properties :
#
#
# Convention : Reuss Voigt Hill
#
# Bulk Modulus (GPa) = 52.15857 55.77401 53.96629
# Shear Modulus (GPa) = 18.10631 24.68336 21.39484
#
# Velocity S-wave (km/s) = 3.22821 3.76920 3.50915
# Velocity P-wave (km/s) = 6.62689 7.14451 6.89056
#
# Compressibility (1/GPa) = 0.01917230
#
# Stress axis : x y z
#
# Youngs Moduli (GPa) = 57.92966 91.36454 40.27466
#
# Poissons Ratio (x) = 0.25475 0.36908
# Poissons Ratio (y) = 0.16152 0.20057
# Poissons Ratio (z) = 0.53087 0.45500
#
# Static dielectric constant tensor:
#      x y z
#    x 1.575250 0.000000 0.000000 
#    y 0.000000 1.582730 0.000000 
#    z 0.000000 0.000000 1.582440 
# 
# From -- ./inp_files/11998.got.cif
#   From: 2010.05.17/outbox.cif.g08.bks.cpg/sg63_6_cif.got.tgz:11998.got - 2010.06.03 15:47:04.
