data_PCOD9471445
_publ_section_title
;
Structure prediction by ZEFSAII (Michael W. Deem and Ramdas Pophale) SiO2 
 PCOD9471445
Probable space group: C M C M
;
_chemical_formula_sum "Si O2"
_cell_formula_units_Z 72
_cell_length_a 25.759017
_cell_length_b 17.107233
_cell_length_c 9.039101
_cell_angle_alpha 90.000000
_cell_angle_beta 90.000000
_cell_angle_gamma 90.000000
_cell_volume 3983.220013
_symmetry_space_group_name_H-M "C M C M"
_symmetry_group_IT_number 63
_symmetry_cell_setting 'orthorhombic'
loop_
_space_group_symop_operation_xyz
x,y,z
-x,-y,1/2+z
x,-y,-z
-x,y,1/2-z
-x,-y,-z
x,y,1/2-z
-x,y,z
x,-y,1/2+z
1/2+x,1/2+y,z
1/2-x,1/2-y,1/2+z
1/2+x,1/2-y,-z
1/2-x,1/2+y,1/2-z
1/2-x,1/2-y,-z
1/2+x,1/2+y,1/2-z
1/2-x,1/2+y,z
1/2+x,1/2-y,1/2+z
loop_
_atom_site_type_symbol
_atom_site_label
_atom_site_fract_x
_atom_site_fract_y
_atom_site_fract_z
Si Si1 0.056693 0.373421 0.575560
Si Si2 0.409822 0.693353 0.573817
Si Si3 0.500000 0.587308 0.069750
Si Si4 0.342806 0.929685 0.081489
Si Si5 0.194343 0.748259 0.577508
O O1 0.059443 0.389781 0.750000
O O2 0.065603 0.280187 0.559078
O O3 0.101655 0.417532 0.492709
O O4 0.000000 0.393819 0.518198
O O5 0.406958 0.675196 0.750000
O O6 0.448797 0.633722 0.490947
O O7 0.352001 0.703808 0.504015
O O8 0.500000 0.585354 0.250000
O O9 0.500000 0.500000 0.000000
O O10 0.348338 0.952520 0.250000
O O11 0.319064 0.843802 0.072561
O O12 0.313723 0.000000 0.000000
O O13 0.196783 0.772186 0.750000
O O14 0.250000 0.750000 0.500000
#
# Coordination Sequence:
#
# PCOD9471445 Si02
#       5
#    16  16   8  16  16
#     4   9  17  31  52  77 106 143 181 216 262 320
#     4  10  19  36  59  84 114 149 190 237 288 346
#     4  12  24  38  58  86 121 158 197 246 300 358
#     4  10  21  35  52  77 108 141 179 222 272 324
#     4  10  21  38  60  87 112 146 194 241 290 349
#
# _framework density 18.075828000000001
#
# number of rings (size 3 to 8) (size 9 to 14) (size 15 to 20)
#    0.000    2.000    1.111    3.000    0.000    4.444 
#    0.000    1.111    0.000    2.667    0.000    0.000 
#    0.000    0.000    0.000    0.000    0.000    0.000 
#
# Total GULP energy -200727.632589 kJ/mol
# GULP energy per Si atom -5575.767572 kJ/mol
# Density = 1.803469 g / cm^3
# Si number density = 18.075828 Si / 1000 Ang^3
#
#
#
# Elastic Constant Matrix: (Units=GPa)
#
#
# Indices 1 2 3 4 5 6 
#
# 1 126.0842 26.4435 67.6981 0.0000 0.0000 0.0000
# 2 26.4435 77.7665 59.0329 0.0000 0.0000 0.0000
# 3 67.6981 59.0329 139.5392 0.0000 0.0000 0.0000
# 4 0.0000 0.0000 0.0000 30.2907 0.0000 0.0000
# 5 0.0000 0.0000 0.0000 0.0000 26.4214 0.0000
# 6 0.0000 0.0000 0.0000 0.0000 0.0000 1.0033
#
#
#
# Elastic Compliance Matrix: (Units=1/GPa)
#
#
# Indices 1 2 3 4 5 6 
#
# 1 0.010736 0.000447 -0.005397 0.000000 0.000000 0.000000
# 2 0.000447 0.018961 -0.008238 0.000000 0.000000 0.000000
# 3 -0.005397 -0.008238 0.013270 0.000000 0.000000 0.000000
# 4 0.000000 0.000000 0.000000 0.033013 0.000000 0.000000
# 5 0.000000 0.000000 0.000000 0.000000 0.037848 0.000000
# 6 0.000000 0.000000 0.000000 0.000000 0.000000 0.996718
#
#
# Mechanical properties :
#
#
# Convention : Reuss Voigt Hill
#
# Bulk Modulus (GPa) = 60.28170 72.19320 66.23745
# Shear Modulus (GPa) = 4.37655 24.22410 14.30032
#
# Velocity S-wave (km/s) = 1.55771 3.66476 2.81575
# Velocity P-wave (km/s) = 6.05451 7.61138 6.87714
#
# Compressibility (1/GPa) = 0.01658878
#
# Stress axis : x y z
#
# Youngs Moduli (GPa) = 93.14877 52.74055 75.35687
#
# Poissons Ratio (x) = -0.02356 0.40673
# Poissons Ratio (y) = -0.04161 0.62080
# Poissons Ratio (z) = 0.50276 0.43448
#
# Static dielectric constant tensor:
#      x y z
#    x 1.614560 0.000000 0.000000 
#    y 0.000000 1.659520 0.000000 
#    z 0.000000 0.000000 1.623980 
# 
# From -- ./inp_files/9871.got.cif
#   From: 2010.05.17/outbox.cif.g08.bks.cpg/sg63_5_cif.got.tgz:9871.got - 2010.06.03 15:47:04.
