data_PCOD9471684
_publ_section_title
;
Structure prediction by ZEFSAII (Michael W. Deem and Ramdas Pophale) SiO2 
 PCOD9471684
Probable space group: C M C M
;
_chemical_formula_sum "Si O2"
_cell_formula_units_Z 80
_cell_length_a 30.102953
_cell_length_b 15.779039
_cell_length_c 8.869658
_cell_angle_alpha 90.000000
_cell_angle_beta 90.000000
_cell_angle_gamma 90.000000
_cell_volume 4213.049139
_symmetry_space_group_name_H-M "C M C M"
_symmetry_group_IT_number 63
_symmetry_cell_setting 'orthorhombic'
loop_
_space_group_symop_operation_xyz
x,y,z
-x,-y,1/2+z
x,-y,-z
-x,y,1/2-z
-x,-y,-z
x,y,1/2-z
-x,y,z
x,-y,1/2+z
1/2+x,1/2+y,z
1/2-x,1/2-y,1/2+z
1/2+x,1/2-y,-z
1/2-x,1/2+y,1/2-z
1/2-x,1/2-y,-z
1/2+x,1/2+y,1/2-z
1/2-x,1/2+y,z
1/2+x,1/2-y,1/2+z
loop_
_atom_site_type_symbol
_atom_site_label
_atom_site_fract_x
_atom_site_fract_y
_atom_site_fract_z
Si Si1 0.642237 0.774957 0.069483
Si Si2 0.771352 0.334519 0.569403
Si Si3 0.949564 0.262786 0.929384
Si Si4 0.680330 0.588404 0.069756
Si Si5 0.947440 0.082821 0.081279
O O1 0.643697 0.777030 0.250000
O O2 0.655497 0.676788 0.023588
O O3 0.679964 0.836538 0.002233
O O4 0.593581 0.800730 0.010455
O O5 0.774851 0.328101 0.750000
O O6 0.750000 0.250000 0.500000
O O7 0.732862 0.401538 0.532689
O O8 0.946428 0.272699 0.750000
O O9 0.000000 0.288914 0.976232
O O10 0.944857 0.164371 0.976267
O O11 0.676715 0.584056 0.250000
O O12 0.664991 0.500000 0.000000
O O13 0.928892 0.097819 0.250000
O O14 0.000000 0.068352 0.100501
O O15 0.929400 0.000000 0.000000
#
# Coordination Sequence:
#
# PCOD9471684 Si02
#       5
#    16  16  16  16  16
#     4  10  20  33  48  68  93 125 162 196 236 284
#     4   9  17  31  49  70  94 121 154 191 234 284
#     4  10  20  32  45  62  85 116 155 198 240 277
#     4   9  19  32  48  71  96 121 152 190 232 279
#     4   9  16  26  39  53  71  99 137 181 226 269
#
# _framework density 18.988621999999999
#
# number of rings (size 3 to 8) (size 9 to 14) (size 15 to 20)
#    0.000    2.600    0.000    3.600    0.000    9.200 
#    0.000    2.000    0.000    0.000    0.000    0.000 
#    0.000    0.800    0.000    2.600    0.000    3.200 
#
# Total GULP energy -222801.188323 kJ/mol
# GULP energy per Si atom -5570.029708 kJ/mol
# Density = 1.894540 g / cm^3
# Si number density = 18.988622 Si / 1000 Ang^3
#
#
#
# Elastic Constant Matrix: (Units=GPa)
#
#
# Indices 1 2 3 4 5 6 
#
# 1 193.3563 19.5385 43.4380 0.0000 0.0000 0.0000
# 2 19.5385 17.6774 7.0055 0.0000 0.0000 0.0000
# 3 43.4380 7.0055 51.4681 0.0000 0.0000 0.0000
# 4 0.0000 0.0000 0.0000 14.1298 0.0000 0.0000
# 5 0.0000 0.0000 0.0000 0.0000 21.8771 0.0000
# 6 0.0000 0.0000 0.0000 0.0000 0.0000 -8.8109
#
#
#
# Elastic Compliance Matrix: (Units=1/GPa)
#
#
# Indices 1 2 3 4 5 6 
#
# 1 0.006868 -0.005596 -0.005035 0.000000 0.000000 0.000000
# 2 -0.005596 0.064354 -0.004036 0.000000 0.000000 0.000000
# 3 -0.005035 -0.004036 0.024228 0.000000 0.000000 0.000000
# 4 0.000000 0.000000 0.000000 0.070772 0.000000 0.000000
# 5 0.000000 0.000000 0.000000 0.000000 0.045710 0.000000
# 6 0.000000 0.000000 0.000000 0.000000 0.000000 -0.113495
#
#
# Mechanical properties :
#
#
# Convention : Reuss Voigt Hill
#
# Bulk Modulus (GPa) = 15.12499 44.71841 29.92170
# Shear Modulus (GPa) = 33.37522 18.27386 25.82454
#
# Velocity S-wave (km/s) = 4.19697 3.10556 3.69182
# Velocity P-wave (km/s) = 5.60970 6.03826 5.82792
#
# Compressibility (1/GPa) = 0.06611575
#
# Stress axis : x y z
#
# Youngs Moduli (GPa) = 145.59352 15.53901 41.27383
#
# Poissons Ratio (x) = 0.08696 0.20782
# Poissons Ratio (y) = 0.81476 0.16660
# Poissons Ratio (z) = 0.73308 0.06272
#
# Static dielectric constant tensor:
#      x y z
#    x 1.760130 0.000000 0.000000 
#    y 0.000000 1.634590 0.000000 
#    z 0.000000 0.000000 1.662690 
# 
# From -- ./inp_files/14039.got.cif
#   From: 2010.05.17/outbox.cif.g08.bks.cpg/sg63_8_cif.got.tgz:14039.got - 2010.06.03 15:47:04.
