data_PCOD9471387
_publ_section_title
;
Structure prediction by ZEFSAII (Michael W. Deem and Ramdas Pophale) SiO2 
 PCOD9471387
Probable space group: C M C M
;
_chemical_formula_sum "Si O2"
_cell_formula_units_Z 116
_cell_length_a 29.206764
_cell_length_b 11.145855
_cell_length_c 15.121578
_cell_angle_alpha 90.000000
_cell_angle_beta 90.000000
_cell_angle_gamma 90.000000
_cell_volume 4922.593164
_symmetry_space_group_name_H-M "C M C M"
_symmetry_group_IT_number 63
_symmetry_cell_setting 'orthorhombic'
loop_
_space_group_symop_operation_xyz
x,y,z
-x,-y,1/2+z
x,-y,-z
-x,y,1/2-z
-x,-y,-z
x,y,1/2-z
-x,y,z
x,-y,1/2+z
1/2+x,1/2+y,z
1/2-x,1/2-y,1/2+z
1/2+x,1/2-y,-z
1/2-x,1/2+y,1/2-z
1/2-x,1/2-y,-z
1/2+x,1/2+y,1/2-z
1/2-x,1/2+y,z
1/2+x,1/2-y,1/2+z
loop_
_atom_site_type_symbol
_atom_site_label
_atom_site_fract_x
_atom_site_fract_y
_atom_site_fract_z
Si Si1 0.449791 0.214540 0.101158
Si Si2 0.081521 0.021197 0.893427
Si Si3 0.331182 0.255396 0.544517
Si Si4 0.318119 0.526467 0.152129
Si Si5 0.861407 0.585414 0.411949
Si Si6 0.500000 0.845587 0.250000
Si Si7 0.067988 0.750738 0.607710
Si Si8 0.781821 0.421286 0.346007
O O1 0.500000 0.172403 0.127988
O O2 0.443201 0.354200 0.128874
O O3 0.410117 0.121355 0.129358
O O4 0.446723 0.225453 0.993648
O O5 0.132763 0.035336 0.856868
O O6 0.061058 0.891602 0.864818
O O7 0.083565 0.000000 0.000000
O O8 0.317282 0.387217 0.567819
O O9 0.344478 0.214673 0.447796
O O10 0.377060 0.233399 0.604003
O O11 0.291474 0.169832 0.576363
O O12 0.319005 0.586800 0.250000
O O13 0.270616 0.458064 0.150541
O O14 0.868168 0.500000 0.500000
O O15 0.820043 0.525380 0.358758
O O16 0.459988 0.831364 0.173024
O O17 0.790267 0.365968 0.250000
#
# Coordination Sequence:
#
# PCOD9471387 Si02
#       8
#    16  16  16  16  16   4  16  16
#     4  10  19  36  55  76 111 152 188 223 272 332
#     4   9  20  34  52  78 113 147 176 217 272 336
#     4   9  19  37  57  79 111 142 176 233 283 327
#     4  10  21  36  56  87 112 141 187 234 283 334
#     4   9  20  38  58  82 105 143 194 236 276 331
#     4  12  20  28  54  88 110 138 180 240 288 332
#     4   9  20  32  52  83 111 136 179 233 281 330
#     4  10  21  36  58  80 111 146 178 230 290 338
#
# _framework density 23.564814999999999
#
# number of rings (size 3 to 8) (size 9 to 14) (size 15 to 20)
#    0.000    2.483    0.690    1.241    5.793    4.414 
#    0.000    2.069    0.000    1.241    0.000    0.000 
#    0.000    0.000    0.000    0.000    0.000    0.000 
#
# Total GULP energy -323145.535680 kJ/mol
# GULP energy per Si atom -5571.474753 kJ/mol
# Density = 2.351118 g / cm^3
# Si number density = 23.564815 Si / 1000 Ang^3
#
#
#
# Elastic Constant Matrix: (Units=GPa)
#
#
# Indices 1 2 3 4 5 6 
#
# 1 105.7174 -0.0682 4.9437 0.0000 0.0000 0.0000
# 2 -0.0682 30.9482 6.2274 0.0000 0.0000 0.0000
# 3 4.9437 6.2274 28.4668 0.0000 0.0000 0.0000
# 4 0.0000 0.0000 0.0000 -7.4691 0.0000 0.0000
# 5 0.0000 0.0000 0.0000 0.0000 -75.9398 0.0000
# 6 0.0000 0.0000 0.0000 0.0000 0.0000 7.6215
#
#
#
# Elastic Compliance Matrix: (Units=1/GPa)
#
#
# Indices 1 2 3 4 5 6 
#
# 1 0.009541 0.000371 -0.001738 0.000000 0.000000 0.000000
# 2 0.000371 0.033814 -0.007462 0.000000 0.000000 0.000000
# 3 -0.001738 -0.007462 0.037063 0.000000 0.000000 0.000000
# 4 0.000000 0.000000 0.000000 -0.133886 0.000000 0.000000
# 5 0.000000 0.000000 0.000000 0.000000 -0.013168 0.000000
# 6 0.000000 0.000000 0.000000 0.000000 0.000000 0.131207
#
#
# Mechanical properties :
#
#
# Convention : Reuss Voigt Hill
#
# Bulk Modulus (GPa) = 15.93373 20.81538 18.37456
# Shear Modulus (GPa) = 48.47356 -4.88884 21.79236
#
# Velocity S-wave (km/s) = 4.54037 -1.44192 3.04433
# Velocity P-wave (km/s) = 5.85346 2.46581 4.49128
#
# Compressibility (1/GPa) = 0.06275993
#
# Stress axis : x y z
#
# Youngs Moduli (GPa) = 104.81416 29.57327 26.98128
#
# Poissons Ratio (x) = -0.01096 0.04689
# Poissons Ratio (y) = -0.03886 0.20132
# Poissons Ratio (z) = 0.18217 0.22067
#
# Static dielectric constant tensor:
#      x y z
#    x 1.917960 0.000000 0.000000 
#    y 0.000000 1.978790 0.000000 
#    z 0.000000 0.000000 1.881150 
# 
# From -- ./inp_files/49628.got.cif
#   From: 2010.05.17/outbox.cif.g08.bks.cpg/sg63_25_cif.got.tgz:49628.got - 2010.06.03 15:47:04.
