data_PCOD9471943
_publ_section_title
;
Structure prediction by ZEFSAII (Michael W. Deem and Ramdas Pophale) SiO2 
 PCOD9471943
Probable space group: C M C M
;
_chemical_formula_sum "Si O2"
_cell_formula_units_Z 104
_cell_length_a 21.471338
_cell_length_b 28.872010
_cell_length_c 8.837844
_cell_angle_alpha 90.000000
_cell_angle_beta 90.000000
_cell_angle_gamma 90.000000
_cell_volume 5478.762310
_symmetry_space_group_name_H-M "C M C M"
_symmetry_group_IT_number 63
_symmetry_cell_setting 'orthorhombic'
loop_
_space_group_symop_operation_xyz
x,y,z
-x,-y,1/2+z
x,-y,-z
-x,y,1/2-z
-x,-y,-z
x,y,1/2-z
-x,y,z
x,-y,1/2+z
1/2+x,1/2+y,z
1/2-x,1/2-y,1/2+z
1/2+x,1/2-y,-z
1/2-x,1/2+y,1/2-z
1/2-x,1/2-y,-z
1/2+x,1/2+y,1/2-z
1/2-x,1/2+y,z
1/2+x,1/2-y,1/2+z
loop_
_atom_site_type_symbol
_atom_site_label
_atom_site_fract_x
_atom_site_fract_y
_atom_site_fract_z
Si Si1 0.000000 0.550890 0.930763
Si Si2 0.926914 0.307708 0.430752
Si Si3 0.573557 0.454571 0.420020
Si Si4 0.358425 0.622245 0.428612
Si Si5 0.572289 0.706299 0.931255
Si Si6 0.119043 0.398457 0.931107
Si Si7 0.750786 0.551523 0.431859
O O1 0.000000 0.549756 0.750000
O O2 0.000000 0.500000 0.000000
O O3 0.061130 0.576568 0.990374
O O4 0.918993 0.308089 0.250000
O O5 0.916464 0.256573 0.496367
O O6 0.883486 0.346004 0.507930
O O7 0.000000 0.319237 0.462690
O O8 0.600589 0.500000 0.500000
O O9 0.598671 0.447434 0.250000
O O10 0.500000 0.461236 0.405162
O O11 0.585207 0.411687 0.528234
O O12 0.352663 0.630136 0.250000
O O13 0.376885 0.669815 0.509557
O O14 0.299904 0.590461 0.480216
O O15 0.575220 0.708933 0.750000
O O16 0.500000 0.692926 0.970722
O O17 0.111272 0.398279 0.750000
O O18 0.181820 0.426505 0.966955
O O19 0.744626 0.500000 0.500000
O O20 0.744708 0.547184 0.250000
#
# Coordination Sequence:
#
# PCOD9471943 Si02
#       7
#     8  16  16  16  16  16  16
#     4  12  24  38  58  90 124 154 192 240 293 350
#     4  10  20  36  60  91 123 153 190 238 294 353
#     4  10  20  33  50  75 106 140 183 235 291 350
#     4  11  22  37  56  80 112 150 195 243 292 345
#     4  10  21  37  59  88 120 154 196 244 296 351
#     4  11  22  39  62  88 119 155 194 238 292 350
#     4  10  24  42  60  84 115 155 199 243 290 348
#
# _framework density 18.982389999999999
#
# number of rings (size 3 to 8) (size 9 to 14) (size 15 to 20)
#    0.000    1.538    0.769    4.385    0.000    9.231 
#    0.000    0.769    0.000    0.000    0.000    0.000 
#    0.000    0.000    0.000    0.000    0.000    0.000 
#
# Total GULP energy -290307.238011 kJ/mol
# GULP energy per Si atom -5582.831500 kJ/mol
# Density = 1.893919 g / cm^3
# Si number density = 18.982390 Si / 1000 Ang^3
#
#
#
# Elastic Constant Matrix: (Units=GPa)
#
#
# Indices 1 2 3 4 5 6 
#
# 1 101.4984 69.3574 53.3162 0.0000 0.0000 0.0000
# 2 69.3574 147.7515 48.7933 0.0000 0.0000 0.0000
# 3 53.3162 48.7933 74.3022 0.0000 0.0000 0.0000
# 4 0.0000 0.0000 0.0000 37.4583 0.0000 0.0000
# 5 0.0000 0.0000 0.0000 0.0000 12.9312 0.0000
# 6 0.0000 0.0000 0.0000 0.0000 0.0000 25.4244
#
#
#
# Elastic Compliance Matrix: (Units=1/GPa)
#
#
# Indices 1 2 3 4 5 6 
#
# 1 0.018851 -0.005596 -0.009853 0.000000 0.000000 0.000000
# 2 -0.005596 0.010303 -0.002751 0.000000 0.000000 0.000000
# 3 -0.009853 -0.002751 0.022335 0.000000 0.000000 0.000000
# 4 0.000000 0.000000 0.000000 0.026696 0.000000 0.000000
# 5 0.000000 0.000000 0.000000 0.000000 0.077332 0.000000
# 6 0.000000 0.000000 0.000000 0.000000 0.000000 0.039332
#
#
# Mechanical properties :
#
#
# Convention : Reuss Voigt Hill
#
# Bulk Modulus (GPa) = 66.26197 74.05397 70.15797
# Shear Modulus (GPa) = 21.16145 25.30180 23.23163
#
# Velocity S-wave (km/s) = 3.34248 3.65486 3.50215
# Velocity P-wave (km/s) = 7.06251 7.54369 7.30706
#
# Compressibility (1/GPa) = 0.01509161
#
# Stress axis : x y z
#
# Youngs Moduli (GPa) = 53.04634 97.05711 44.77327
#
# Poissons Ratio (x) = 0.54309 0.44113
# Poissons Ratio (y) = 0.29682 0.12316
# Poissons Ratio (z) = 0.52264 0.26699
#
# Static dielectric constant tensor:
#      x y z
#    x 1.684260 0.000000 0.000000 
#    y 0.000000 1.573880 0.000000 
#    z 0.000000 0.000000 1.651660 
# 
# From -- ./inp_files/8751.got.cif
#   From: 2010.05.17/outbox.cif.g08.bks.cpg/sg63_5_cif.got.tgz:8751.got - 2010.06.03 15:47:04.
