data_PCOD9471390
_publ_section_title
;
Structure prediction by ZEFSAII (Michael W. Deem and Ramdas Pophale) SiO2 
 PCOD9471390
Probable space group: C M C M
;
_chemical_formula_sum "Si O2"
_cell_formula_units_Z 60
_cell_length_a 22.414765
_cell_length_b 23.637867
_cell_length_c 5.344847
_cell_angle_alpha 90.000000
_cell_angle_beta 90.000000
_cell_angle_gamma 90.000000
_cell_volume 2831.898950
_symmetry_space_group_name_H-M "C M C M"
_symmetry_group_IT_number 63
_symmetry_cell_setting 'orthorhombic'
loop_
_space_group_symop_operation_xyz
x,y,z
-x,-y,1/2+z
x,-y,-z
-x,y,1/2-z
-x,-y,-z
x,y,1/2-z
-x,y,z
x,-y,1/2+z
1/2+x,1/2+y,z
1/2-x,1/2-y,1/2+z
1/2+x,1/2-y,-z
1/2-x,1/2+y,1/2-z
1/2-x,1/2-y,-z
1/2+x,1/2+y,1/2-z
1/2-x,1/2+y,z
1/2+x,1/2-y,1/2+z
loop_
_atom_site_type_symbol
_atom_site_label
_atom_site_fract_x
_atom_site_fract_y
_atom_site_fract_z
Si Si1 0.169575 0.356465 0.750000
Si Si2 0.569158 0.688853 0.250000
Si Si3 0.121178 0.703868 0.750000
Si Si4 0.708645 0.533654 0.750000
Si Si5 0.657021 0.988671 0.750000
Si Si6 0.272288 0.720178 0.250000
Si Si7 0.000000 0.962634 0.250000
Si Si8 0.609472 0.375754 0.250000
O O1 0.138138 0.331014 0.499818
O O2 0.171330 0.423123 0.750000
O O3 0.239415 0.338975 0.750000
O O4 0.500000 0.667592 0.250000
O O5 0.562728 0.758258 0.250000
O O6 0.597915 0.661635 0.503015
O O7 0.160336 0.761942 0.750000
O O8 0.690182 0.500000 0.500000
O O9 0.782048 0.527525 0.750000
O O10 0.675188 0.594107 0.750000
O O11 0.622094 0.000000 0.500000
O O12 0.250000 0.750000 0.500000
O O13 0.059633 0.924628 0.250000
O O14 0.000000 0.000000 0.500000
#
# Coordination Sequence:
#
# PCOD9471390 Si02
#       8
#     8   8   8   8   8   8   4   8
#     4  10  19  36  55  80 113 143 183 229 286 343
#     4  12  24  42  59  84 116 150 201 246 296 339
#     4  10  21  35  57  81 107 147 183 233 287 351
#     4  10  21  37  53  81 109 146 201 239 281 335
#     4  10  21  35  55  82 117 150 182 228 282 338
#     4   8  16  30  49  75 103 135 177 222 275 334
#     4  12  22  36  56  74 102 148 198 250 286 326
#     4  12  23  39  57  78 110 152 199 249 304 325
#
# _framework density 21.187197999999999
#
# number of rings (size 3 to 8) (size 9 to 14) (size 15 to 20)
#    0.000    1.600    1.333    4.000    0.000    4.267 
#    0.000    8.000    0.000    0.000    0.000    0.000 
#    0.000   10.667    0.000    0.000    0.000    0.000 
#
# Total GULP energy -167093.299041 kJ/mol
# GULP energy per Si atom -5569.776635 kJ/mol
# Density = 2.113898 g / cm^3
# Si number density = 21.187198 Si / 1000 Ang^3
#
#
#
# Elastic Constant Matrix: (Units=GPa)
#
#
# Indices 1 2 3 4 5 6 
#
# 1 48.2391 7.6191 15.9219 0.0000 0.0000 0.0000
# 2 7.6191 75.9756 46.7133 0.0000 0.0000 0.0000
# 3 15.9219 46.7133 215.7363 0.0000 0.0000 0.0000
# 4 0.0000 0.0000 0.0000 42.0379 0.0000 0.0000
# 5 0.0000 0.0000 0.0000 0.0000 11.1643 0.0000
# 6 0.0000 0.0000 0.0000 0.0000 0.0000 -10.9139
#
#
#
# Elastic Compliance Matrix: (Units=1/GPa)
#
#
# Indices 1 2 3 4 5 6 
#
# 1 0.021368 -0.001353 -0.001284 0.000000 0.000000 0.000000
# 2 -0.001353 0.015269 -0.003206 0.000000 0.000000 0.000000
# 3 -0.001284 -0.003206 0.005424 0.000000 0.000000 0.000000
# 4 0.000000 0.000000 0.000000 0.023788 0.000000 0.000000
# 5 0.000000 0.000000 0.000000 0.000000 0.089571 0.000000
# 6 0.000000 0.000000 0.000000 0.000000 0.000000 -0.091626
#
#
# Mechanical properties :
#
#
# Convention : Reuss Voigt Hill
#
# Bulk Modulus (GPa) = 32.92309 53.38439 43.15374
# Shear Modulus (GPa) = 58.40682 26.43744 42.42213
#
# Velocity S-wave (km/s) = 5.25613 3.53626 4.47951
# Velocity P-wave (km/s) = 7.23939 6.47493 6.86780
#
# Compressibility (1/GPa) = 0.03037382
#
# Stress axis : x y z
#
# Youngs Moduli (GPa) = 46.79982 65.49106 184.35495
#
# Poissons Ratio (x) = 0.08863 0.23670
# Poissons Ratio (y) = 0.06334 0.59111
# Poissons Ratio (z) = 0.06009 0.20999
#
# Static dielectric constant tensor:
#      x y z
#    x 2.769820 0.000000 0.000000 
#    y 0.000000 1.771640 0.000000 
#    z 0.000000 0.000000 1.811570 
# 
# From -- ./inp_files/1263.got.cif
#   From: 2010.05.17/outbox.cif.g08.bks.cpg/sg63_1_cif.got.tgz:1263.got - 2010.06.03 15:47:04.
