data_PCOD9471905
_publ_section_title
;
Structure prediction by ZEFSAII (Michael W. Deem and Ramdas Pophale) SiO2 
 PCOD9471905
Probable space group: C M C M
;
_chemical_formula_sum "Si O2"
_cell_formula_units_Z 96
_cell_length_a 21.141482
_cell_length_b 26.652114
_cell_length_c 7.454555
_cell_angle_alpha 90.000000
_cell_angle_beta 90.000000
_cell_angle_gamma 90.000000
_cell_volume 4200.382237
_symmetry_space_group_name_H-M "C M C M"
_symmetry_group_IT_number 63
_symmetry_cell_setting 'orthorhombic'
loop_
_space_group_symop_operation_xyz
x,y,z
-x,-y,1/2+z
x,-y,-z
-x,y,1/2-z
-x,-y,-z
x,y,1/2-z
-x,y,z
x,-y,1/2+z
1/2+x,1/2+y,z
1/2-x,1/2-y,1/2+z
1/2+x,1/2-y,-z
1/2-x,1/2+y,1/2-z
1/2-x,1/2-y,-z
1/2+x,1/2+y,1/2-z
1/2-x,1/2+y,z
1/2+x,1/2-y,1/2+z
loop_
_atom_site_type_symbol
_atom_site_label
_atom_site_fract_x
_atom_site_fract_y
_atom_site_fract_z
Si Si1 0.568941 0.940391 0.535376
Si Si2 0.168505 0.055494 0.035108
Si Si3 0.929112 0.862037 0.968460
Si Si4 0.070598 0.746180 0.968536
Si Si5 0.297399 0.092545 0.043444
Si Si6 0.297212 0.796053 0.463254
O O1 0.566679 0.932608 0.750000
O O2 0.500000 0.923824 0.463998
O O3 0.632620 0.914515 0.463861
O O4 0.574443 0.000000 0.500000
O O5 0.172078 0.062041 0.250000
O O6 0.123034 0.099230 0.966317
O O7 0.239643 0.061533 0.961762
O O8 0.143706 0.000000 0.000000
O O9 0.927608 0.862004 0.750000
O O10 0.919555 0.804275 0.022155
O O11 0.000000 0.877035 0.022041
O O12 0.070554 0.744968 0.750000
O O13 0.131760 0.715855 0.030068
O O14 0.000000 0.730164 0.026448
O O15 0.303557 0.076082 0.250000
O O16 0.276801 0.150577 0.040036
O O17 0.299906 0.802014 0.250000
O O18 0.250000 0.750000 0.500000
#
# Coordination Sequence:
#
# PCOD9471905 Si02
#       6
#    16  16  16  16  16  16
#     4   9  18  33  53  76 103 136 172 212 260 312
#     4  10  20  33  50  72  98 129 165 205 248 294
#     4   8  14  27  48  71  95 125 159 195 239 290
#     4   8  15  30  52  76 101 131 169 209 247 294
#     4  10  21  36  52  72 101 135 171 211 256 305
#     4  11  22  35  54  79 106 136 172 214 259 307
#
# _framework density 22.855062
#
# number of rings (size 3 to 8) (size 9 to 14) (size 15 to 20)
#    0.000    2.667    0.000    3.000    0.000    5.000 
#    0.000    0.000    0.000    1.500    0.000    4.667 
#    0.000    0.000    0.000    0.000    0.000    0.000 
#
# Total GULP energy -268050.143213 kJ/mol
# GULP energy per Si atom -5584.377984 kJ/mol
# Density = 2.280304 g / cm^3
# Si number density = 22.855062 Si / 1000 Ang^3
#
#
#
# Elastic Constant Matrix: (Units=GPa)
#
#
# Indices 1 2 3 4 5 6 
#
# 1 72.6691 7.4702 4.3324 0.0000 0.0000 0.0000
# 2 7.4702 36.8406 -15.3000 0.0000 0.0000 0.0000
# 3 4.3324 -15.3000 75.6178 0.0000 0.0000 0.0000
# 4 0.0000 0.0000 0.0000 17.2080 0.0000 0.0000
# 5 0.0000 0.0000 0.0000 0.0000 -7.7094 0.0000
# 6 0.0000 0.0000 0.0000 0.0000 0.0000 40.1763
#
#
#
# Elastic Compliance Matrix: (Units=1/GPa)
#
#
# Indices 1 2 3 4 5 6 
#
# 1 0.014213 -0.003516 -0.001526 0.000000 0.000000 0.000000
# 2 -0.003516 0.030504 0.006373 0.000000 0.000000 0.000000
# 3 -0.001526 0.006373 0.014601 0.000000 0.000000 0.000000
# 4 0.000000 0.000000 0.000000 0.058113 0.000000 0.000000
# 5 0.000000 0.000000 0.000000 0.000000 -0.129712 0.000000
# 6 0.000000 0.000000 0.000000 0.000000 0.000000 0.024890
#
#
# Mechanical properties :
#
#
# Convention : Reuss Voigt Hill
#
# Bulk Modulus (GPa) = 16.13362 19.79252 17.96307
# Shear Modulus (GPa) = 163.36728 22.50999 92.93863
#
# Velocity S-wave (km/s) = 8.46374 3.14172 6.38378
# Velocity P-wave (km/s) = 10.12855 4.67326 7.88755
#
# Compressibility (1/GPa) = 0.06198239
#
# Stress axis : x y z
#
# Youngs Moduli (GPa) = 70.35631 32.78294 68.48686
#
# Poissons Ratio (x) = 0.11525 0.10449
# Poissons Ratio (y) = 0.24735 -0.43649
# Poissons Ratio (z) = 0.10734 -0.20894
#
# Static dielectric constant tensor:
#      x y z
#    x 1.883220 0.000000 0.000000 
#    y 0.000000 1.819380 0.000000 
#    z 0.000000 0.000000 1.855870 
# 
# From -- ./inp_files/8588.got.cif
#   From: 2010.05.17/outbox.cif.g08.bks.cpg/sg63_5_cif.got.tgz:8588.got - 2010.06.03 15:47:04.
