data_PCOD9471062
_publ_section_title
;
Structure prediction by ZEFSAII (Michael W. Deem and Ramdas Pophale) SiO2 
 PCOD9471062
Probable space group: C M C M
;
_chemical_formula_sum "Si O2"
_cell_formula_units_Z 96
_cell_length_a 7.967764
_cell_length_b 25.781051
_cell_length_c 24.506356
_cell_angle_alpha 90.000000
_cell_angle_beta 90.000000
_cell_angle_gamma 90.000000
_cell_volume 5034.030219
_symmetry_space_group_name_H-M "C M C M"
_symmetry_group_IT_number 63
_symmetry_cell_setting 'orthorhombic'
loop_
_space_group_symop_operation_xyz
x,y,z
-x,-y,1/2+z
x,-y,-z
-x,y,1/2-z
-x,-y,-z
x,y,1/2-z
-x,y,z
x,-y,1/2+z
1/2+x,1/2+y,z
1/2-x,1/2-y,1/2+z
1/2+x,1/2-y,-z
1/2-x,1/2+y,1/2-z
1/2-x,1/2-y,-z
1/2+x,1/2+y,1/2-z
1/2-x,1/2+y,z
1/2+x,1/2-y,1/2+z
loop_
_atom_site_type_symbol
_atom_site_label
_atom_site_fract_x
_atom_site_fract_y
_atom_site_fract_z
Si Si1 0.697482 0.593992 0.631229
Si Si2 0.703824 0.310046 0.558510
Si Si3 0.795672 0.062034 0.750000
Si Si4 0.699550 0.191657 0.934957
Si Si5 0.793908 0.058874 0.250000
Si Si6 0.197998 0.098568 0.365387
Si Si7 0.303499 0.996975 0.561766
O O1 0.500000 0.581192 0.631008
O O2 0.760044 0.587938 0.693372
O O3 0.722556 0.650729 0.606411
O O4 0.783077 0.551599 0.592328
O O5 0.500000 0.310355 0.558061
O O6 0.759113 0.251176 0.571026
O O7 0.760933 0.323772 0.497394
O O8 0.766707 0.352054 0.601912
O O9 0.000000 0.063829 0.750000
O O10 0.745460 0.001618 0.750000
O O11 0.500000 0.190805 0.927302
O O12 0.733705 0.086083 0.194639
O O13 0.000000 0.059167 0.250000
O O14 0.000000 0.108298 0.358278
O O15 0.218419 0.047671 0.402557
O O16 0.500000 0.983562 0.558505
O O17 0.236506 0.000000 0.500000
#
# Coordination Sequence:
#
# PCOD9471062 Si02
#       7
#    16  16   8  16   8  16  16
#     4  11  21  36  57  78 103 139 184 222 260 316
#     4   9  19  35  56  81 107 142 182 217 261 318
#     4   9  18  34  55  78 102 136 180 222 263 310
#     4  10  20  35  54  80 113 142 174 220 271 318
#     4   9  16  32  55  78 102 134 174 220 265 304
#     4  10  19  34  56  78 102 135 178 217 255 313
#     4  11  23  35  49  76 111 139 166 213 273 320
#
# _framework density 19.070208999999998
#
# number of rings (size 3 to 8) (size 9 to 14) (size 15 to 20)
#    0.000    2.000    1.667    2.500    0.000    5.333 
#    0.000    3.750    0.000    2.000    0.000    0.000 
#    0.000    0.000    0.000    0.000    0.000    0.000 
#
# Total GULP energy -268010.932742 kJ/mol
# GULP energy per Si atom -5583.561099 kJ/mol
# Density = 1.902680 g / cm^3
# Si number density = 19.070209 Si / 1000 Ang^3
#
#
#
# Elastic Constant Matrix: (Units=GPa)
#
#
# Indices 1 2 3 4 5 6 
#
# 1 12.9338 -4.1245 2.5508 0.0000 0.0000 0.0000
# 2 -4.1245 94.2711 77.6239 0.0000 0.0000 0.0000
# 3 2.5508 77.6239 173.2947 0.0000 0.0000 0.0000
# 4 0.0000 0.0000 0.0000 21.6125 0.0000 0.0000
# 5 0.0000 0.0000 0.0000 0.0000 -270.1240 0.0000
# 6 0.0000 0.0000 0.0000 0.0000 0.0000 22.6552
#
#
#
# Elastic Compliance Matrix: (Units=1/GPa)
#
#
# Indices 1 2 3 4 5 6 
#
# 1 0.080450 0.007121 -0.004374 0.000000 0.000000 0.000000
# 2 0.007121 0.017437 -0.007915 0.000000 0.000000 0.000000
# 3 -0.004374 -0.007915 0.009380 0.000000 0.000000 0.000000
# 4 0.000000 0.000000 0.000000 0.046270 0.000000 0.000000
# 5 0.000000 0.000000 0.000000 0.000000 -0.003702 0.000000
# 6 0.000000 0.000000 0.000000 0.000000 0.000000 0.044140
#
#
# Mechanical properties :
#
#
# Convention : Reuss Voigt Hill
#
# Bulk Modulus (GPa) = 10.31655 48.06666 29.19161
# Shear Modulus (GPa) = 21.13081 -31.54129 -5.20524
#
# Velocity S-wave (km/s) = 3.33235 -4.07130 -1.65392
# Velocity P-wave (km/s) = 4.49751 1.77741 3.41956
#
# Compressibility (1/GPa) = 0.09693162
#
# Stress axis : x y z
#
# Youngs Moduli (GPa) = 12.43005 57.34993 106.60535
#
# Poissons Ratio (x) = -0.40842 0.46630
# Poissons Ratio (y) = -0.08852 0.84381
# Poissons Ratio (z) = 0.05437 0.45394
#
# Static dielectric constant tensor:
#      x y z
#    x 1.686030 0.000000 0.000000 
#    y 0.000000 1.640500 0.000000 
#    z 0.000000 0.000000 1.657360 
# 
# From -- ./inp_files/59988.got.cif
#   From: 2010.05.17/outbox.cif.g08.bks.cpg/sg63_30_cif.got.tgz:59988.got - 2010.06.03 15:47:04.
