data_PCOD9471470
_publ_section_title
;
Structure prediction by ZEFSAII (Michael W. Deem and Ramdas Pophale) SiO2 
 PCOD9471470
Probable space group: C M C M
;
_chemical_formula_sum "Si O2"
_cell_formula_units_Z 104
_cell_length_a 20.582454
_cell_length_b 11.868646
_cell_length_c 23.983756
_cell_angle_alpha 90.000000
_cell_angle_beta 90.000000
_cell_angle_gamma 90.000000
_cell_volume 5858.892469
_symmetry_space_group_name_H-M "C M C M"
_symmetry_group_IT_number 63
_symmetry_cell_setting 'orthorhombic'
loop_
_space_group_symop_operation_xyz
x,y,z
-x,-y,1/2+z
x,-y,-z
-x,y,1/2-z
-x,-y,-z
x,y,1/2-z
-x,y,z
x,-y,1/2+z
1/2+x,1/2+y,z
1/2-x,1/2-y,1/2+z
1/2+x,1/2-y,-z
1/2-x,1/2+y,1/2-z
1/2-x,1/2-y,-z
1/2+x,1/2+y,1/2-z
1/2-x,1/2+y,z
1/2+x,1/2-y,1/2+z
loop_
_atom_site_type_symbol
_atom_site_label
_atom_site_fract_x
_atom_site_fract_y
_atom_site_fract_z
Si Si1 0.074459 0.215096 0.107141
Si Si2 0.119242 0.500000 0.500000
Si Si3 0.786905 0.602275 0.314331
Si Si4 0.926692 0.247774 0.980238
Si Si5 0.326235 0.316287 0.384700
Si Si6 0.182820 0.596599 0.608126
Si Si7 0.862117 0.963473 0.684333
O O1 0.127539 0.311173 0.118638
O O2 0.089212 0.110932 0.147482
O O3 0.000000 0.253992 0.114381
O O4 0.082468 0.190773 0.040993
O O5 0.080780 0.616785 0.489844
O O6 0.161985 0.524099 0.554552
O O7 0.803606 0.615238 0.250000
O O8 0.817094 0.702678 0.349660
O O9 0.810903 0.484396 0.339041
O O10 0.708545 0.597440 0.319252
O O11 0.873584 0.205895 0.936490
O O12 0.000000 0.224718 0.960778
O O13 0.253428 0.350565 0.403193
O O14 0.352861 0.415485 0.344876
O O15 0.878833 0.972170 0.750000
#
# Coordination Sequence:
#
# PCOD9471470 Si02
#       7
#    16   8  16  16  16  16  16
#     4  10  22  40  60  86 121 157 197 241 292 353
#     4  10  19  36  60  86 117 150 190 244 295 350
#     4  10  20  37  59  86 117 151 195 249 297 343
#     4  10  22  38  60  87 118 157 194 242 300 354
#     4  11  21  37  62  88 118 155 196 245 293 352
#     4  10  21  36  59  91 115 148 198 243 298 345
#     4  10  22  38  59  85 118 158 198 240 291 352
#
# _framework density 17.750795
#
# number of rings (size 3 to 8) (size 9 to 14) (size 15 to 20)
#    0.000    1.846    3.077    0.692    0.000    8.308 
#    0.000    1.538    0.000    2.308    0.000    0.000 
#    0.000    0.000    0.000    0.000    0.000    0.000 
#
# Total GULP energy -290124.255308 kJ/mol
# GULP energy per Si atom -5579.312602 kJ/mol
# Density = 1.771039 g / cm^3
# Si number density = 17.750795 Si / 1000 Ang^3
#
#
#
# Elastic Constant Matrix: (Units=GPa)
#
#
# Indices 1 2 3 4 5 6 
#
# 1 108.7293 46.9740 63.8011 0.0000 0.0000 0.0000
# 2 46.9740 64.1533 42.4410 0.0000 0.0000 0.0000
# 3 63.8011 42.4410 99.5128 0.0000 0.0000 0.0000
# 4 0.0000 0.0000 0.0000 24.9173 0.0000 0.0000
# 5 0.0000 0.0000 0.0000 0.0000 -48.9052 0.0000
# 6 0.0000 0.0000 0.0000 0.0000 0.0000 7.3425
#
#
#
# Elastic Compliance Matrix: (Units=1/GPa)
#
#
# Indices 1 2 3 4 5 6 
#
# 1 0.016851 -0.007232 -0.007720 0.000000 0.000000 0.000000
# 2 -0.007232 0.024818 -0.005948 0.000000 0.000000 0.000000
# 3 -0.007720 -0.005948 0.017535 0.000000 0.000000 0.000000
# 4 0.000000 0.000000 0.000000 0.040133 0.000000 0.000000
# 5 0.000000 0.000000 0.000000 0.000000 -0.020448 0.000000
# 6 0.000000 0.000000 0.000000 0.000000 0.000000 0.136194
#
#
# Mechanical properties :
#
#
# Convention : Reuss Voigt Hill
#
# Bulk Modulus (GPa) = 57.45371 64.31418 60.88394
# Shear Modulus (GPa) = 19.03434 4.61622 11.82528
#
# Velocity S-wave (km/s) = 3.27817 1.61438 2.58385
# Velocity P-wave (km/s) = 6.83854 6.30756 6.57841
#
# Compressibility (1/GPa) = 0.01740532
#
# Stress axis : x y z
#
# Youngs Moduli (GPa) = 59.34263 40.29377 57.02866
#
# Poissons Ratio (x) = 0.29139 0.44024
# Poissons Ratio (y) = 0.42915 0.33920
# Poissons Ratio (z) = 0.45811 0.23966
#
# Static dielectric constant tensor:
#      x y z
#    x 1.592040 0.000000 0.000000 
#    y 0.000000 1.608180 0.000000 
#    z 0.000000 0.000000 1.582890 
# 
# From -- ./inp_files/69969.got.cif
#   From: 2010.05.17/outbox.cif.g08.bks.cpg/sg63_35_cif.got.tgz:69969.got - 2010.06.03 15:47:04.
