data_PCOD9471287
_publ_section_title
;
Structure prediction by ZEFSAII (Michael W. Deem and Ramdas Pophale) SiO2 
 PCOD9471287
Probable space group: C M C M
;
_chemical_formula_sum "Si O2"
_cell_formula_units_Z 80
_cell_length_a 7.578343
_cell_length_b 21.125998
_cell_length_c 23.691145
_cell_angle_alpha 90.000000
_cell_angle_beta 90.000000
_cell_angle_gamma 90.000000
_cell_volume 3792.953714
_symmetry_space_group_name_H-M "C M C M"
_symmetry_group_IT_number 63
_symmetry_cell_setting 'orthorhombic'
loop_
_space_group_symop_operation_xyz
x,y,z
-x,-y,1/2+z
x,-y,-z
-x,y,1/2-z
-x,-y,-z
x,y,1/2-z
-x,y,z
x,-y,1/2+z
1/2+x,1/2+y,z
1/2-x,1/2-y,1/2+z
1/2+x,1/2-y,-z
1/2-x,1/2+y,1/2-z
1/2-x,1/2-y,-z
1/2+x,1/2+y,1/2-z
1/2-x,1/2+y,z
1/2+x,1/2-y,1/2+z
loop_
_atom_site_type_symbol
_atom_site_label
_atom_site_fract_x
_atom_site_fract_y
_atom_site_fract_z
Si Si1 0.214108 0.869867 0.552058
Si Si2 0.794101 0.620760 0.579302
Si Si3 0.293892 0.485926 0.872288
Si Si4 0.784003 0.752249 0.870533
Si Si5 0.714671 0.695286 0.250000
Si Si6 0.215465 0.047317 0.250000
O O1 0.274237 0.871556 0.487706
O O2 0.278810 0.931383 0.586638
O O3 0.269401 0.806880 0.585506
O O4 0.000000 0.870603 0.550599
O O5 0.716993 0.554670 0.600306
O O6 0.721737 0.683492 0.609626
O O7 0.000000 0.617238 0.593207
O O8 0.500000 0.469281 0.866757
O O9 0.220891 0.482930 0.808679
O O10 0.727273 0.771382 0.807654
O O11 0.000000 0.751868 0.870879
O O12 0.500000 0.696482 0.250000
O O13 0.763680 0.621448 0.250000
O O14 0.000000 0.043181 0.250000
#
# Coordination Sequence:
#
# PCOD9471287 Si02
#       6
#    16  16  16  16   8   8
#     4  10  19  35  58  79 101 136 183 226 257 297
#     4  11  23  35  49  78 116 147 172 207 264 322
#     4  10  20  35  57  82 104 133 177 224 264 305
#     4   9  18  32  53  80 106 134 173 220 266 311
#     4   9  14  29  56  81 101 126 173 228 264 302
#     4   9  16  31  57  83 101 126 173 228 268 302
#
# _framework density 21.091740000000001
#
# number of rings (size 3 to 8) (size 9 to 14) (size 15 to 20)
#    0.000    2.200    2.000    1.800    0.000    4.000 
#    0.000    2.500    0.000    0.000    0.000    3.500 
#    0.000    0.000    0.000    0.000    0.000    0.000 
#
# Total GULP energy -223447.582224 kJ/mol
# GULP energy per Si atom -5586.189556 kJ/mol
# Density = 2.104373 g / cm^3
# Si number density = 21.091740 Si / 1000 Ang^3
#
#
#
# Elastic Constant Matrix: (Units=GPa)
#
#
# Indices 1 2 3 4 5 6 
#
# 1 40.0329 -14.3068 -15.4099 0.0000 0.0000 0.0000
# 2 -14.3068 97.9697 26.3763 0.0000 0.0000 0.0000
# 3 -15.4099 26.3763 119.7864 0.0000 0.0000 0.0000
# 4 0.0000 0.0000 0.0000 -35.4654 0.0000 0.0000
# 5 0.0000 0.0000 0.0000 0.0000 7.2928 0.0000
# 6 0.0000 0.0000 0.0000 0.0000 0.0000 8.2390
#
#
#
# Elastic Compliance Matrix: (Units=1/GPa)
#
#
# Indices 1 2 3 4 5 6 
#
# 1 0.027205 0.003222 0.002790 0.000000 0.000000 0.000000
# 2 0.003222 0.011232 -0.002059 0.000000 0.000000 0.000000
# 3 0.002790 -0.002059 0.009160 0.000000 0.000000 0.000000
# 4 0.000000 0.000000 0.000000 -0.028197 0.000000 0.000000
# 5 0.000000 0.000000 0.000000 0.000000 0.137122 0.000000
# 6 0.000000 0.000000 0.000000 0.000000 0.000000 0.121374
#
#
# Mechanical properties :
#
#
# Convention : Reuss Voigt Hill
#
# Bulk Modulus (GPa) = 18.01682 27.90090 22.95886
# Shear Modulus (GPa) = 17.33154 13.42191 15.37673
#
# Velocity S-wave (km/s) = 2.86968 2.52535 2.70300
# Velocity P-wave (km/s) = 4.42049 4.66479 4.54428
#
# Compressibility (1/GPa) = 0.05550370
#
# Stress axis : x y z
#
# Youngs Moduli (GPa) = 36.75810 89.03156 109.16438
#
# Poissons Ratio (x) = -0.28682 -0.30461
# Poissons Ratio (y) = -0.11842 0.22475
# Poissons Ratio (z) = -0.10257 0.18330
#
# Static dielectric constant tensor:
#      x y z
#    x 1.824250 0.000000 0.000000 
#    y 0.000000 1.716390 0.000000 
#    z 0.000000 0.000000 1.725910 
# 
# From -- ./inp_files/50897.got.cif
#   From: 2010.05.17/outbox.cif.g08.bks.cpg/sg63_26_cif.got.tgz:50897.got - 2010.06.03 15:47:04.
