data_PCOD9471446
_publ_section_title
;
Structure prediction by ZEFSAII (Michael W. Deem and Ramdas Pophale) SiO2 
 PCOD9471446
Probable space group: C M C M
;
_chemical_formula_sum "Si O2"
_cell_formula_units_Z 100
_cell_length_a 20.845620
_cell_length_b 33.889062
_cell_length_c 7.775438
_cell_angle_alpha 90.000000
_cell_angle_beta 90.000000
_cell_angle_gamma 90.000000
_cell_volume 5492.868824
_symmetry_space_group_name_H-M "C M C M"
_symmetry_group_IT_number 63
_symmetry_cell_setting 'orthorhombic'
loop_
_space_group_symop_operation_xyz
x,y,z
-x,-y,1/2+z
x,-y,-z
-x,y,1/2-z
-x,-y,-z
x,y,1/2-z
-x,y,z
x,-y,1/2+z
1/2+x,1/2+y,z
1/2-x,1/2-y,1/2+z
1/2+x,1/2-y,-z
1/2-x,1/2+y,1/2-z
1/2-x,1/2-y,-z
1/2+x,1/2+y,1/2-z
1/2-x,1/2+y,z
1/2+x,1/2-y,1/2+z
loop_
_atom_site_type_symbol
_atom_site_label
_atom_site_fract_x
_atom_site_fract_y
_atom_site_fract_z
Si Si1 0.279008 0.617071 0.548993
Si Si2 0.174761 0.752146 0.455874
Si Si3 0.696167 0.954677 0.456876
Si Si4 0.071569 0.409019 0.456732
Si Si5 0.346550 0.164779 0.044302
Si Si6 0.895286 0.831463 0.559214
Si Si7 0.000000 0.163827 0.750000
O O1 0.295075 0.612815 0.750000
O O2 0.250892 0.575581 0.481042
O O3 0.218709 0.646951 0.533910
O O4 0.339927 0.635430 0.457283
O O5 0.168313 0.756333 0.250000
O O6 0.250000 0.750000 0.500000
O O7 0.144816 0.710033 0.509073
O O8 0.140838 0.789432 0.539892
O O9 0.695304 0.950681 0.250000
O O10 0.627224 0.938494 0.521203
O O11 0.706396 0.000000 0.500000
O O12 0.069437 0.412984 0.250000
O O13 0.096671 0.365051 0.496586
O O14 0.000000 0.416106 0.524113
O O15 0.338566 0.164311 0.250000
O O16 0.923831 0.833819 0.750000
O O17 0.944342 0.835485 0.402612
#
# Coordination Sequence:
#
# PCOD9471446 Si02
#       7
#    16  16  16  16  16  16   4
#     4  10  19  36  59  84 117 150 189 248 301 346
#     4  11  21  35  56  85 118 153 201 260 308 353
#     4   9  19  33  54  84 118 149 185 244 302 353
#     4   9  19  36  52  70 106 158 206 242 294 358
#     4  10  20  32  52  81 110 147 198 253 303 350
#     4  12  24  41  65  90 119 164 206 243 304 366
#     4  12  26  48  60  86 134 160 194 256 292 362
#
# _framework density 18.205424000000001
#
# number of rings (size 3 to 8) (size 9 to 14) (size 15 to 20)
#    0.000    1.760    3.200    2.640    0.000    5.760 
#    1.440    0.000    0.000    0.000    0.000    0.560 
#    0.000    0.000    0.000    0.000    0.000    0.000 
#
# Total GULP energy -278573.921663 kJ/mol
# GULP energy per Si atom -5571.478433 kJ/mol
# Density = 1.816399 g / cm^3
# Si number density = 18.205424 Si / 1000 Ang^3
#
#
#
# Elastic Constant Matrix: (Units=GPa)
#
#
# Indices 1 2 3 4 5 6 
#
# 1 108.9751 61.0028 35.3438 0.0000 0.0000 0.0000
# 2 61.0028 136.0770 22.5252 0.0000 0.0000 0.0000
# 3 35.3438 22.5252 89.6245 0.0000 0.0000 0.0000
# 4 0.0000 0.0000 0.0000 20.8911 0.0000 0.0000
# 5 0.0000 0.0000 0.0000 0.0000 20.9208 0.0000
# 6 0.0000 0.0000 0.0000 0.0000 0.0000 4.0096
#
#
#
# Elastic Compliance Matrix: (Units=1/GPa)
#
#
# Indices 1 2 3 4 5 6 
#
# 1 0.013476 -0.005385 -0.003961 0.000000 0.000000 0.000000
# 2 -0.005385 0.009820 -0.000344 0.000000 0.000000 0.000000
# 3 -0.003961 -0.000344 0.012806 0.000000 0.000000 0.000000
# 4 0.000000 0.000000 0.000000 0.047867 0.000000 0.000000
# 5 0.000000 0.000000 0.000000 0.000000 0.047799 0.000000
# 6 0.000000 0.000000 0.000000 0.000000 0.000000 0.249399
#
#
# Mechanical properties :
#
#
# Convention : Reuss Voigt Hill
#
# Bulk Modulus (GPa) = 59.80506 63.60226 61.70366
# Shear Modulus (GPa) = 12.31159 23.55130 17.93145
#
# Velocity S-wave (km/s) = 2.60332 3.60063 3.14180
# Velocity P-wave (km/s) = 6.47749 7.23172 6.86497
#
# Compressibility (1/GPa) = 0.01672099
#
# Stress axis : x y z
#
# Youngs Moduli (GPa) = 74.20772 101.83231 78.08777
#
# Poissons Ratio (x) = 0.54842 0.30928
# Poissons Ratio (y) = 0.39964 0.02688
# Poissons Ratio (z) = 0.29391 0.03506
#
# Static dielectric constant tensor:
#      x y z
#    x 1.605310 0.000000 0.000000 
#    y 0.000000 1.626980 0.000000 
#    z 0.000000 0.000000 1.654990 
# 
# From -- ./inp_files/9091.got.cif
#   From: 2010.05.17/outbox.cif.g08.bks.cpg/sg63_5_cif.got.tgz:9091.got - 2010.06.03 15:47:04.
