data_PCOD9471785
_publ_section_title
;
Structure prediction by ZEFSAII (Michael W. Deem and Ramdas Pophale) SiO2 
 PCOD9471785
Probable space group: C M C M
;
_chemical_formula_sum "Si O2"
_cell_formula_units_Z 96
_cell_length_a 24.485101
_cell_length_b 26.142316
_cell_length_c 7.902384
_cell_angle_alpha 90.000000
_cell_angle_beta 90.000000
_cell_angle_gamma 90.000000
_cell_volume 5058.294248
_symmetry_space_group_name_H-M "C M C M"
_symmetry_group_IT_number 63
_symmetry_cell_setting 'orthorhombic'
loop_
_space_group_symop_operation_xyz
x,y,z
-x,-y,1/2+z
x,-y,-z
-x,y,1/2-z
-x,-y,-z
x,y,1/2-z
-x,y,z
x,-y,1/2+z
1/2+x,1/2+y,z
1/2-x,1/2-y,1/2+z
1/2+x,1/2-y,-z
1/2-x,1/2+y,1/2-z
1/2-x,1/2-y,-z
1/2+x,1/2+y,1/2-z
1/2-x,1/2+y,z
1/2+x,1/2-y,1/2+z
loop_
_atom_site_type_symbol
_atom_site_label
_atom_site_fract_x
_atom_site_fract_y
_atom_site_fract_z
Si Si1 0.865219 0.650964 0.546962
Si Si2 0.750647 0.809937 0.454610
Si Si3 0.562171 0.941943 0.454029
Si Si4 0.562424 0.248632 0.455032
Si Si5 0.061698 0.941920 0.951501
Si Si6 0.368102 0.345571 0.047260
O O1 0.860874 0.645690 0.750000
O O2 0.804572 0.663180 0.481169
O O3 0.895376 0.600212 0.481361
O O4 0.903383 0.699494 0.510082
O O5 0.750121 0.812925 0.250000
O O6 0.750000 0.750000 0.500000
O O7 0.806695 0.835835 0.516694
O O8 0.560844 0.938405 0.250000
O O9 0.500000 0.932031 0.515348
O O10 0.576625 0.000000 0.500000
O O11 0.561726 0.249549 0.250000
O O12 0.500000 0.246346 0.514568
O O13 0.592759 0.299919 0.515757
O O14 0.059214 0.939239 0.750000
O O15 0.000000 0.931409 0.019118
O O16 0.104700 0.899823 0.009853
O O17 0.075956 0.000000 0.000000
O O18 0.365707 0.340443 0.250000
#
# Coordination Sequence:
#
# PCOD9471785 Si02
#       6
#    16  16  16  16  16  16
#     4  10  20  34  53  77 105 137 174 219 267 313
#     4  10  20  35  55  77 105 143 181 218 261 314
#     4   9  18  33  52  74 101 133 169 210 259 310
#     4  10  20  32  49  76 108 140 174 215 265 319
#     4  10  21  37  58  83 109 140 179 223 272 325
#     4  10  20  35  54  77 108 144 179 218 265 319
#
# _framework density 18.978729999999999
#
# number of rings (size 3 to 8) (size 9 to 14) (size 15 to 20)
#    0.000    2.167    1.667    1.500    0.000    4.667 
#    0.000    2.500    0.000    2.000    0.000    0.000 
#    0.000    0.000    0.000    0.000    0.000    0.000 
#
# Total GULP energy -267947.423574 kJ/mol
# GULP energy per Si atom -5582.237991 kJ/mol
# Density = 1.893553 g / cm^3
# Si number density = 18.978730 Si / 1000 Ang^3
#
#
#
# Elastic Constant Matrix: (Units=GPa)
#
#
# Indices 1 2 3 4 5 6 
#
# 1 198.0493 122.1675 9.5575 0.0000 0.0000 0.0000
# 2 122.1675 157.3913 -2.9873 0.0000 0.0000 0.0000
# 3 9.5575 -2.9873 14.0033 0.0000 0.0000 0.0000
# 4 0.0000 0.0000 0.0000 20.0728 0.0000 0.0000
# 5 0.0000 0.0000 0.0000 0.0000 17.0092 0.0000
# 6 0.0000 0.0000 0.0000 0.0000 0.0000 19.8636
#
#
#
# Elastic Compliance Matrix: (Units=1/GPa)
#
#
# Indices 1 2 3 4 5 6 
#
# 1 0.010740 -0.008510 -0.009146 0.000000 0.000000 0.000000
# 2 -0.008510 0.013122 0.008608 0.000000 0.000000 0.000000
# 3 -0.009146 0.008608 0.079490 0.000000 0.000000 0.000000
# 4 0.000000 0.000000 0.000000 0.049819 0.000000 0.000000
# 5 0.000000 0.000000 0.000000 0.000000 0.058792 0.000000
# 6 0.000000 0.000000 0.000000 0.000000 0.000000 0.050343
#
#
# Mechanical properties :
#
#
# Convention : Reuss Voigt Hill
#
# Bulk Modulus (GPa) = 11.72933 69.65769 40.69351
# Shear Modulus (GPa) = 16.19061 27.43621 21.81341
#
# Velocity S-wave (km/s) = 2.92394 3.80627 3.39390
# Velocity P-wave (km/s) = 4.19439 7.48997 6.07011
#
# Compressibility (1/GPa) = 0.08525636
#
# Stress axis : x y z
#
# Youngs Moduli (GPa) = 93.10936 76.20506 12.58020
#
# Poissons Ratio (x) = 0.64851 0.11505
# Poissons Ratio (y) = 0.79237 -0.10829
# Poissons Ratio (z) = 0.85155 -0.65594
#
# Static dielectric constant tensor:
#      x y z
#    x 1.676060 0.000000 0.000000 
#    y 0.000000 1.626940 0.000000 
#    z 0.000000 0.000000 1.690360 
# 
# From -- ./inp_files/8605.got.cif
#   From: 2010.05.17/outbox.cif.g08.bks.cpg/sg63_5_cif.got.tgz:8605.got - 2010.06.03 15:47:04.
