data_PCOD9471292
_publ_section_title
;
Structure prediction by ZEFSAII (Michael W. Deem and Ramdas Pophale) SiO2 
 PCOD9471292
Probable space group: C M C M
;
_chemical_formula_sum "Si O2"
_cell_formula_units_Z 72
_cell_length_a 7.591572
_cell_length_b 32.268307
_cell_length_c 17.704830
_cell_angle_alpha 90.000000
_cell_angle_beta 90.000000
_cell_angle_gamma 90.000000
_cell_volume 4337.102205
_symmetry_space_group_name_H-M "C M C M"
_symmetry_group_IT_number 63
_symmetry_cell_setting 'orthorhombic'
loop_
_space_group_symop_operation_xyz
x,y,z
-x,-y,1/2+z
x,-y,-z
-x,y,1/2-z
-x,-y,-z
x,y,1/2-z
-x,y,z
x,-y,1/2+z
1/2+x,1/2+y,z
1/2-x,1/2-y,1/2+z
1/2+x,1/2-y,-z
1/2-x,1/2+y,1/2-z
1/2-x,1/2-y,-z
1/2+x,1/2+y,1/2-z
1/2-x,1/2+y,z
1/2+x,1/2-y,1/2+z
loop_
_atom_site_type_symbol
_atom_site_label
_atom_site_fract_x
_atom_site_fract_y
_atom_site_fract_z
Si Si1 0.707644 0.435898 0.162134
Si Si2 0.500000 0.181355 0.160613
Si Si3 0.793637 0.791890 0.955485
Si Si4 0.000000 0.408038 0.911666
Si Si5 0.793557 0.120300 0.975848
Si Si6 0.500000 0.998208 0.659571
O O1 0.745652 0.426466 0.250000
O O2 0.500000 0.445953 0.156201
O O3 0.744360 0.397421 0.107083
O O4 0.829617 0.474337 0.138530
O O5 0.500000 0.189138 0.250000
O O6 0.668461 0.200430 0.116543
O O7 0.500000 0.131722 0.144188
O O8 0.000000 0.792199 0.934795
O O9 0.750000 0.750000 0.000000
O O10 0.760561 0.831051 0.011031
O O11 0.000000 0.452670 0.874105
O O12 0.170207 0.402892 0.964782
O O13 0.000000 0.112860 0.991359
O O14 0.500000 0.994310 0.750000
#
# Coordination Sequence:
#
# PCOD9471292 Si02
#       6
#    16   8  16   8  16   8
#     4   9  18  33  50  70 100 136 170 211 258 306
#     4  10  21  37  57  81 110 141 179 224 268 314
#     4  10  19  35  58  81 106 143 177 216 268 326
#     4  10  20  34  52  75 102 137 174 217 260 309
#     4   9  19  33  51  75 101 134 175 210 256 314
#     4  10  20  33  50  72 100 134 173 213 261 309
#
# _framework density 16.600946
#
# number of rings (size 3 to 8) (size 9 to 14) (size 15 to 20)
#    0.000    2.444    1.111    1.000    0.000    3.111 
#    0.000    3.333    0.000    4.000    0.000    0.000 
#    0.000    0.000    0.000    0.000    0.000    0.000 
#
# Total GULP energy -200670.681492 kJ/mol
# GULP energy per Si atom -5574.185597 kJ/mol
# Density = 1.656316 g / cm^3
# Si number density = 16.600946 Si / 1000 Ang^3
#
#
#
# Elastic Constant Matrix: (Units=GPa)
#
#
# Indices 1 2 3 4 5 6 
#
# 1 87.0091 68.9709 63.8383 0.0000 0.0000 0.0000
# 2 68.9709 129.4763 85.7342 0.0000 0.0000 0.0000
# 3 63.8383 85.7342 107.1756 0.0000 0.0000 0.0000
# 4 0.0000 0.0000 0.0000 21.3400 0.0000 0.0000
# 5 0.0000 0.0000 0.0000 0.0000 20.4572 0.0000
# 6 0.0000 0.0000 0.0000 0.0000 0.0000 22.6376
#
#
#
# Elastic Compliance Matrix: (Units=1/GPa)
#
#
# Indices 1 2 3 4 5 6 
#
# 1 0.022873 -0.006725 -0.008244 0.000000 0.000000 0.000000
# 2 -0.006725 0.018399 -0.010713 0.000000 0.000000 0.000000
# 3 -0.008244 -0.010713 0.022811 0.000000 0.000000 0.000000
# 4 0.000000 0.000000 0.000000 0.046860 0.000000 0.000000
# 5 0.000000 0.000000 0.000000 0.000000 0.048883 0.000000
# 6 0.000000 0.000000 0.000000 0.000000 0.000000 0.044174
#
#
# Mechanical properties :
#
#
# Convention : Reuss Voigt Hill
#
# Bulk Modulus (GPa) = 78.62470 84.52755 81.57613
# Shear Modulus (GPa) = 19.26014 19.89479 19.57746
#
# Velocity S-wave (km/s) = 3.40984 3.46557 3.43782
# Velocity P-wave (km/s) = 7.93518 8.18788 8.06252
#
# Compressibility (1/GPa) = 0.01271865
#
# Stress axis : x y z
#
# Youngs Moduli (GPa) = 43.72017 54.34993 43.83914
#
# Poissons Ratio (x) = 0.36550 0.36143
# Poissons Ratio (y) = 0.29402 0.46963
# Poissons Ratio (z) = 0.36044 0.58223
#
# Static dielectric constant tensor:
#      x y z
#    x 1.578580 0.000000 0.000000 
#    y 0.000000 1.539550 0.000000 
#    z 0.000000 0.000000 1.538220 
# 
# From -- ./inp_files/28147.got.cif
#   From: 2010.05.17/outbox.cif.g08.bks.cpg/sg63_15_cif.got.tgz:28147.got - 2010.06.03 15:47:04.
