data_PCOD9471337
_publ_section_title
;
Structure prediction by ZEFSAII (Michael W. Deem and Ramdas Pophale) SiO2 
 PCOD9471337
Probable space group: C M C M
;
_chemical_formula_sum "Si O2"
_cell_formula_units_Z 128
_cell_length_a 9.578506
_cell_length_b 26.925439
_cell_length_c 27.794883
_cell_angle_alpha 90.000000
_cell_angle_beta 90.000000
_cell_angle_gamma 90.000000
_cell_volume 7168.452614
_symmetry_space_group_name_H-M "C M C M"
_symmetry_group_IT_number 63
_symmetry_cell_setting 'orthorhombic'
loop_
_space_group_symop_operation_xyz
x,y,z
-x,-y,1/2+z
x,-y,-z
-x,y,1/2-z
-x,-y,-z
x,y,1/2-z
-x,y,z
x,-y,1/2+z
1/2+x,1/2+y,z
1/2-x,1/2-y,1/2+z
1/2+x,1/2-y,-z
1/2-x,1/2+y,1/2-z
1/2-x,1/2-y,-z
1/2+x,1/2+y,1/2-z
1/2-x,1/2+y,z
1/2+x,1/2-y,1/2+z
loop_
_atom_site_type_symbol
_atom_site_label
_atom_site_fract_x
_atom_site_fract_y
_atom_site_fract_z
Si Si1 0.330671 0.265882 0.695034
Si Si2 0.831128 0.129152 0.353225
Si Si3 0.655628 0.791368 0.476714
Si Si4 0.330525 0.523987 0.195014
Si Si5 0.154044 0.055986 0.517715
Si Si6 0.830991 0.328329 0.129155
Si Si7 0.156756 0.618436 0.050373
Si Si8 0.666770 0.570899 0.631052
O O1 0.281849 0.260730 0.750000
O O2 0.500000 0.265805 0.695666
O O3 0.290875 0.319674 0.673624
O O4 0.290566 0.218676 0.662400
O O5 0.754600 0.127389 0.404127
O O6 0.000000 0.129222 0.358861
O O7 0.792242 0.078410 0.325186
O O8 0.500000 0.771309 0.466969
O O9 0.750000 0.750000 0.500000
O O10 0.705430 0.814100 0.426066
O O11 0.648101 0.833384 0.516947
O O12 0.282824 0.517978 0.250000
O O13 0.500000 0.523402 0.195129
O O14 0.288149 0.477434 0.161744
O O15 0.271515 0.079432 0.484830
O O16 0.185303 0.059522 0.574301
O O17 0.000000 0.079910 0.509998
O O18 0.143172 0.000000 0.500000
O O19 0.752427 0.379159 0.142624
O O20 0.000000 0.335077 0.131708
O O21 0.000000 0.604166 0.065241
O O22 0.500000 0.578552 0.639006
#
# Coordination Sequence:
#
# PCOD9471337 Si02
#       8
#    16  16  16  16  16  16  16  16
#     4   9  18  33  57  86 109 138 185 236 283 329
#     4  10  19  35  60  85 111 142 183 234 284 335
#     4  10  21  35  52  76 107 143 182 223 269 322
#     4   9  18  34  58  86 112 140 181 236 287 328
#     4  10  20  35  55  79 108 143 186 231 271 320
#     4  10  20  36  54  76 113 150 184 226 271 329
#     4  11  22  35  52  79 113 146 179 217 272 336
#     4  10  20  34  54  81 112 145 184 229 274 327
#
# _framework density 17.856013999999998
#
# number of rings (size 3 to 8) (size 9 to 14) (size 15 to 20)
#    0.000    2.125    1.250    2.250    0.000    6.750 
#    0.000    2.500    0.000    3.000    0.000    0.000 
#    0.000    0.000    0.000    0.000    0.000    0.000 
#
# Total GULP energy -356815.801809 kJ/mol
# GULP energy per Si atom -5575.246903 kJ/mol
# Density = 1.781537 g / cm^3
# Si number density = 17.856014 Si / 1000 Ang^3
#
#
#
# Elastic Constant Matrix: (Units=GPa)
#
#
# Indices 1 2 3 4 5 6 
#
# 1 36.0212 43.0851 30.9209 0.0000 0.0000 0.0000
# 2 43.0851 153.1930 72.9241 0.0000 0.0000 0.0000
# 3 30.9209 72.9241 131.0697 0.0000 0.0000 0.0000
# 4 0.0000 0.0000 0.0000 31.7571 0.0000 0.0000
# 5 0.0000 0.0000 0.0000 0.0000 23.0371 0.0000
# 6 0.0000 0.0000 0.0000 0.0000 0.0000 43.1403
#
#
#
# Elastic Compliance Matrix: (Units=1/GPa)
#
#
# Indices 1 2 3 4 5 6 
#
# 1 0.043901 -0.010089 -0.004743 0.000000 0.000000 0.000000
# 2 -0.010089 0.011198 -0.003850 0.000000 0.000000 0.000000
# 3 -0.004743 -0.003850 0.010891 0.000000 0.000000 0.000000
# 4 0.000000 0.000000 0.000000 0.031489 0.000000 0.000000
# 5 0.000000 0.000000 0.000000 0.000000 0.043408 0.000000
# 6 0.000000 0.000000 0.000000 0.000000 0.000000 0.023180
#
#
# Mechanical properties :
#
#
# Convention : Reuss Voigt Hill
#
# Bulk Modulus (GPa) = 34.93540 68.23822 51.58681
# Shear Modulus (GPa) = 23.69966 31.14383 27.42174
#
# Velocity S-wave (km/s) = 3.64712 4.18085 3.92307
# Velocity P-wave (km/s) = 6.11088 7.84887 7.03376
#
# Compressibility (1/GPa) = 0.02862426
#
# Stress axis : x y z
#
# Youngs Moduli (GPa) = 22.77868 89.30161 91.82132
#
# Poissons Ratio (x) = 0.90096 0.43555
# Poissons Ratio (y) = 0.22981 0.35353
# Poissons Ratio (z) = 0.10805 0.34383
#
# Static dielectric constant tensor:
#      x y z
#    x 1.562310 0.000000 0.000000 
#    y 0.000000 1.592350 0.000000 
#    z 0.000000 0.000000 1.597910 
# 
# From -- ./inp_files/62024.got.cif
#   From: 2010.05.17/outbox.cif.g08.bks.cpg/sg63_32_cif.got.tgz:62024.got - 2010.06.03 15:47:04.
