data_PCOD9471199
_publ_section_title
;
Structure prediction by ZEFSAII (Michael W. Deem and Ramdas Pophale) SiO2 
 PCOD9471199
Probable space group: C M C M
;
_chemical_formula_sum "Si O2"
_cell_formula_units_Z 84
_cell_length_a 7.366823
_cell_length_b 19.432553
_cell_length_c 24.234470
_cell_angle_alpha 90.000000
_cell_angle_beta 90.000000
_cell_angle_gamma 90.000000
_cell_volume 3469.314110
_symmetry_space_group_name_H-M "C M C M"
_symmetry_group_IT_number 63
_symmetry_cell_setting 'orthorhombic'
loop_
_space_group_symop_operation_xyz
x,y,z
-x,-y,1/2+z
x,-y,-z
-x,y,1/2-z
-x,-y,-z
x,y,1/2-z
-x,y,z
x,-y,1/2+z
1/2+x,1/2+y,z
1/2-x,1/2-y,1/2+z
1/2+x,1/2-y,-z
1/2-x,1/2+y,1/2-z
1/2-x,1/2-y,-z
1/2+x,1/2+y,1/2-z
1/2-x,1/2+y,z
1/2+x,1/2-y,1/2+z
loop_
_atom_site_type_symbol
_atom_site_label
_atom_site_fract_x
_atom_site_fract_y
_atom_site_fract_z
Si Si1 0.219411 0.584828 0.352521
Si Si2 0.781910 0.343916 0.417034
Si Si3 0.779014 0.564152 0.811446
Si Si4 0.000000 0.786679 0.250000
Si Si5 0.705995 0.261571 0.836036
Si Si6 0.779056 0.424227 0.978559
O O1 0.274738 0.515146 0.321940
O O2 0.279245 0.657221 0.327947
O O3 0.282435 0.584213 0.415954
O O4 0.000000 0.584980 0.351637
O O5 0.723299 0.393195 0.365911
O O6 0.747075 0.265891 0.397640
O O7 0.713771 0.369716 0.475886
O O8 0.000000 0.352141 0.420027
O O9 0.711738 0.585423 0.750000
O O10 0.000000 0.567030 0.809969
O O11 0.156514 0.776064 0.297045
O O12 0.500000 0.239704 0.824678
O O13 0.000000 0.421779 0.976411
O O14 0.730415 0.500000 0.000000
#
# Coordination Sequence:
#
# PCOD9471199 Si02
#       6
#    16  16  16   4  16  16
#     4  10  19  34  60  92 127 173 220 266 321 381
#     4   9  18  34  56  91 126 167 220 265 320 383
#     4   9  17  28  51  84 122 164 216 268 318 379
#     4  12  26  48  68  90 132 172 218 258 314 398
#     4  11  25  42  66  95 129 169 211 265 326 386
#     4   9  15  29  57  92 129 169 221 269 314 383
#
# _framework density 24.21228
#
# number of rings (size 3 to 8) (size 9 to 14) (size 15 to 20)
#    0.000    2.286    2.857    0.286    2.667    0.762 
#    0.000    0.000    4.190    0.571    0.000    0.000 
#    0.000    0.000    0.000    0.000    0.000    0.000 
#
# Total GULP energy -234286.952027 kJ/mol
# GULP energy per Si atom -5578.260763 kJ/mol
# Density = 2.415717 g / cm^3
# Si number density = 24.212280 Si / 1000 Ang^3
#
#
#
# Elastic Constant Matrix: (Units=GPa)
#
#
# Indices 1 2 3 4 5 6 
#
# 1 101.5151 -10.2514 4.8013 0.0000 0.0000 0.0000
# 2 -10.2514 91.3446 -1.5623 0.0000 0.0000 0.0000
# 3 4.8013 -1.5623 91.9542 0.0000 0.0000 0.0000
# 4 0.0000 0.0000 0.0000 23.1263 0.0000 0.0000
# 5 0.0000 0.0000 0.0000 0.0000 15.9009 0.0000
# 6 0.0000 0.0000 0.0000 0.0000 0.0000 -5.2508
#
#
#
# Elastic Compliance Matrix: (Units=1/GPa)
#
#
# Indices 1 2 3 4 5 6 
#
# 1 0.009987 0.001112 -0.000503 0.000000 0.000000 0.000000
# 2 0.001112 0.011075 0.000130 0.000000 0.000000 0.000000
# 3 -0.000503 0.000130 0.010903 0.000000 0.000000 0.000000
# 4 0.000000 0.000000 0.000000 0.043241 0.000000 0.000000
# 5 0.000000 0.000000 0.000000 0.000000 0.062889 0.000000
# 6 0.000000 0.000000 0.000000 0.000000 0.000000 -0.190446
#
#
# Mechanical properties :
#
#
# Convention : Reuss Voigt Hill
#
# Bulk Modulus (GPa) = 29.90044 30.08769 29.99406
# Shear Modulus (GPa) = -117.14435 26.21036 -45.46700
#
# Velocity S-wave (km/s) = -6.96328 3.29374 -4.33812
# Velocity P-wave (km/s) = 7.23005 5.18831 3.56055
#
# Compressibility (1/GPa) = 0.03344432
#
# Stress axis : x y z
#
# Youngs Moduli (GPa) = 100.13185 90.29670 91.71426
#
# Poissons Ratio (x) = -0.10043 0.04609
# Poissons Ratio (y) = -0.11137 -0.01193
# Poissons Ratio (z) = 0.05032 -0.01175
#
# Static dielectric constant tensor:
#      x y z
#    x 1.909100 0.000000 0.000000 
#    y 0.000000 1.938780 0.000000 
#    z 0.000000 0.000000 1.933280 
# 
# From -- ./inp_files/59503.got.cif
#   From: 2010.05.17/outbox.cif.g08.bks.cpg/sg63_30_cif.got.tgz:59503.got - 2010.06.03 15:47:04.
