data_PCOD9471444
_publ_section_title
;
Structure prediction by ZEFSAII (Michael W. Deem and Ramdas Pophale) SiO2 
 PCOD9471444
Probable space group: C M C M
;
_chemical_formula_sum "Si O2"
_cell_formula_units_Z 96
_cell_length_a 30.351112
_cell_length_b 19.093838
_cell_length_c 8.924583
_cell_angle_alpha 90.000000
_cell_angle_beta 90.000000
_cell_angle_gamma 90.000000
_cell_volume 5171.967340
_symmetry_space_group_name_H-M "C M C M"
_symmetry_group_IT_number 63
_symmetry_cell_setting 'orthorhombic'
loop_
_space_group_symop_operation_xyz
x,y,z
-x,-y,1/2+z
x,-y,-z
-x,y,1/2-z
-x,-y,-z
x,y,1/2-z
-x,y,z
x,-y,1/2+z
1/2+x,1/2+y,z
1/2-x,1/2-y,1/2+z
1/2+x,1/2-y,-z
1/2-x,1/2+y,1/2-z
1/2-x,1/2-y,-z
1/2+x,1/2+y,1/2-z
1/2-x,1/2+y,z
1/2+x,1/2-y,1/2+z
loop_
_atom_site_type_symbol
_atom_site_label
_atom_site_fract_x
_atom_site_fract_y
_atom_site_fract_z
Si Si1 0.050485 0.422838 0.070279
Si Si2 0.796534 0.229055 0.931377
Si Si3 0.672534 0.572268 0.569991
Si Si4 0.381492 0.183996 0.424077
Si Si5 0.047499 0.194716 0.584505
Si Si6 0.923968 0.066577 0.424141
O O1 0.052721 0.426403 0.250000
O O2 0.000000 0.398645 0.031268
O O3 0.055085 0.500000 0.000000
O O4 0.090411 0.374485 0.011103
O O5 0.795700 0.231804 0.750000
O O6 0.806917 0.147768 0.971409
O O7 0.834810 0.284344 0.979542
O O8 0.750000 0.250000 0.000000
O O9 0.691896 0.500000 0.500000
O O10 0.672725 0.566385 0.750000
O O11 0.622768 0.575253 0.508114
O O12 0.376195 0.161738 0.250000
O O13 0.413420 0.251121 0.426496
O O14 0.050923 0.160264 0.750000
O O15 0.050554 0.137134 0.457795
O O16 0.000000 0.230649 0.578052
O O17 0.916860 0.054657 0.250000
O O18 0.946332 0.000000 0.500000
#
# Coordination Sequence:
#
# PCOD9471444 Si02
#       6
#    16  16  16  16  16  16
#     4  10  21  37  59  89 122 156 196 240 289 353
#     4  10  22  39  61  87 118 150 191 241 294 352
#     4  10  19  36  59  84 112 146 189 234 279 338
#     4  10  20  38  60  83 114 152 190 235 288 345
#     4  10  20  35  55  78 109 148 188 230 278 332
#     4  11  21  33  52  76 107 146 187 232 274 323
#
# _framework density 18.561602000000001
#
# number of rings (size 3 to 8) (size 9 to 14) (size 15 to 20)
#    0.000    1.833    1.667    4.000    0.000    5.000 
#    0.000    0.833    0.000    2.000    0.000    0.000 
#    0.000    0.000    0.000    0.000    0.000    0.000 
#
# Total GULP energy -267596.988632 kJ/mol
# GULP energy per Si atom -5574.937263 kJ/mol
# Density = 1.851936 g / cm^3
# Si number density = 18.561602 Si / 1000 Ang^3
#
#
#
# Elastic Constant Matrix: (Units=GPa)
#
#
# Indices 1 2 3 4 5 6 
#
# 1 135.6133 59.0248 34.6525 0.0000 0.0000 0.0000
# 2 59.0248 109.7334 49.5717 0.0000 0.0000 0.0000
# 3 34.6525 49.5717 70.8359 0.0000 0.0000 0.0000
# 4 0.0000 0.0000 0.0000 32.9144 0.0000 0.0000
# 5 0.0000 0.0000 0.0000 0.0000 27.3057 0.0000
# 6 0.0000 0.0000 0.0000 0.0000 0.0000 44.7923
#
#
#
# Elastic Compliance Matrix: (Units=1/GPa)
#
#
# Indices 1 2 3 4 5 6 
#
# 1 0.009752 -0.004519 -0.001608 0.000000 0.000000 0.000000
# 2 -0.004519 0.015420 -0.008580 0.000000 0.000000 0.000000
# 3 -0.001608 -0.008580 0.020908 0.000000 0.000000 0.000000
# 4 0.000000 0.000000 0.000000 0.030382 0.000000 0.000000
# 5 0.000000 0.000000 0.000000 0.000000 0.036622 0.000000
# 6 0.000000 0.000000 0.000000 0.000000 0.000000 0.022325
#
#
# Mechanical properties :
#
#
# Convention : Reuss Voigt Hill
#
# Bulk Modulus (GPa) = 60.00507 66.96450 63.48478
# Shear Modulus (GPa) = 29.34635 32.53139 30.93887
#
# Velocity S-wave (km/s) = 3.98052 4.19097 4.08710
# Velocity P-wave (km/s) = 7.31600 7.71843 7.51991
#
# Compressibility (1/GPa) = 0.01666526
#
# Stress axis : x y z
#
# Youngs Moduli (GPa) = 102.54707 64.85170 47.82769
#
# Poissons Ratio (x) = 0.29306 0.07691
# Poissons Ratio (y) = 0.46340 0.41038
# Poissons Ratio (z) = 0.16490 0.55645
#
# Static dielectric constant tensor:
#      x y z
#    x 1.638910 0.000000 0.000000 
#    y 0.000000 1.666430 0.000000 
#    z 0.000000 0.000000 1.641760 
# 
# From -- ./inp_files/12359.got.cif
#   From: 2010.05.17/outbox.cif.g08.bks.cpg/sg63_7_cif.got.tgz:12359.got - 2010.06.03 15:47:04.
