data_PCOD9471863
_publ_section_title
;
Structure prediction by ZEFSAII (Michael W. Deem and Ramdas Pophale) SiO2 
 PCOD9471863
Probable space group: C M C M
;
_chemical_formula_sum "Si O2"
_cell_formula_units_Z 72
_cell_length_a 35.891729
_cell_length_b 5.052119
_cell_length_c 22.887189
_cell_angle_alpha 90.000000
_cell_angle_beta 90.000000
_cell_angle_gamma 90.000000
_cell_volume 4150.117640
_symmetry_space_group_name_H-M "C M C M"
_symmetry_group_IT_number 63
_symmetry_cell_setting 'orthorhombic'
loop_
_space_group_symop_operation_xyz
x,y,z
-x,-y,1/2+z
x,-y,-z
-x,y,1/2-z
-x,-y,-z
x,y,1/2-z
-x,y,z
x,-y,1/2+z
1/2+x,1/2+y,z
1/2-x,1/2-y,1/2+z
1/2+x,1/2-y,-z
1/2-x,1/2+y,1/2-z
1/2-x,1/2-y,-z
1/2+x,1/2+y,1/2-z
1/2-x,1/2+y,z
1/2+x,1/2-y,1/2+z
loop_
_atom_site_type_symbol
_atom_site_label
_atom_site_fract_x
_atom_site_fract_y
_atom_site_fract_z
Si Si1 0.414316 0.983136 0.928987
Si Si2 0.659321 0.747318 0.960436
Si Si3 0.224221 0.062176 0.876974
Si Si4 0.225352 0.174143 0.750000
Si Si5 0.957816 0.984864 0.571163
O O1 0.373292 0.864922 0.919198
O O2 0.444761 0.772060 0.908865
O O3 0.427505 0.269751 0.908988
O O4 0.415332 0.000000 0.000000
O O5 0.693810 0.631445 0.924952
O O6 0.644736 0.500000 0.000000
O O7 0.670641 0.000000 0.000000
O O8 0.258336 0.271060 0.882028
O O9 0.207297 0.106045 0.812002
O O10 0.238431 0.478465 0.750000
O O11 0.000000 0.917106 0.588190
O O12 0.957551 0.000000 0.500000
#
# Coordination Sequence:
#
# PCOD9471863 Si02
#       5
#    16  16  16   8  16
#     4   9  16  26  36  51  78 109 138 166 202 246
#     4  11  21  31  43  61  89 121 145 170 210 256
#     4  10  20  33  49  66  84 110 145 182 216 251
#     4   8  16  32  50  66  82 102 135 180 225 256
#     4   9  15  23  37  54  72 101 142 177 199 230
#
# _framework density 17.348905999999999
#
# number of rings (size 3 to 8) (size 9 to 14) (size 15 to 20)
#    0.000    2.444    0.000    5.333    0.000    5.333 
#    0.000    0.000    0.000    0.000    0.000    0.000 
#    0.000    0.000    0.000    6.000    0.000    6.889 
#
# Total GULP energy -200440.798366 kJ/mol
# GULP energy per Si atom -5567.799955 kJ/mol
# Density = 1.730942 g / cm^3
# Si number density = 17.348906 Si / 1000 Ang^3
#
#
#
# Elastic Constant Matrix: (Units=GPa)
#
#
# Indices 1 2 3 4 5 6 
#
# 1 48.8875 -1.3737 10.7083 0.0000 0.0000 0.0000
# 2 -1.3737 74.9565 -0.3809 0.0000 0.0000 0.0000
# 3 10.7083 -0.3809 19.2067 0.0000 0.0000 0.0000
# 4 0.0000 0.0000 0.0000 9.7877 0.0000 0.0000
# 5 0.0000 0.0000 0.0000 0.0000 -2.0201 0.0000
# 6 0.0000 0.0000 0.0000 0.0000 0.0000 25.0381
#
#
#
# Elastic Compliance Matrix: (Units=1/GPa)
#
#
# Indices 1 2 3 4 5 6 
#
# 1 0.023310 0.000361 -0.012989 0.000000 0.000000 0.000000
# 2 0.000361 0.013348 0.000063 0.000000 0.000000 0.000000
# 3 -0.012989 0.000063 0.059308 0.000000 0.000000 0.000000
# 4 0.000000 0.000000 0.000000 0.102169 0.000000 0.000000
# 5 0.000000 0.000000 0.000000 0.000000 -0.495030 0.000000
# 6 0.000000 0.000000 0.000000 0.000000 0.000000 0.039939
#
#
# Mechanical properties :
#
#
# Convention : Reuss Voigt Hill
#
# Bulk Modulus (GPa) = 14.11681 17.88424 16.00052
# Shear Modulus (GPa) = -24.01384 15.50095 -4.25645
#
# Velocity S-wave (km/s) = -3.72448 2.99236 -1.56804
# Velocity P-wave (km/s) = 3.21574 4.71910 2.44222
#
# Compressibility (1/GPa) = 0.07083755
#
# Stress axis : x y z
#
# Youngs Moduli (GPa) = 42.89926 74.91751 16.86105
#
# Poissons Ratio (x) = -0.02706 0.21901
# Poissons Ratio (y) = -0.01549 -0.00107
# Poissons Ratio (z) = 0.55722 -0.00475
#
# Static dielectric constant tensor:
#      x y z
#    x 1.615170 0.000000 0.000000 
#    y 0.000000 1.610320 0.000000 
#    z 0.000000 0.000000 1.599140 
# 
# From -- ./inp_files/65601.got.cif
#   From: 2010.05.17/outbox.cif.g08.bks.cpg/sg63_33_cif.got.tgz:65601.got - 2010.06.03 15:47:04.
