data_PCOD9471538
_publ_section_title
;
Structure prediction by ZEFSAII (Michael W. Deem and Ramdas Pophale) SiO2 
 PCOD9471538
Probable space group: C M C M
;
_chemical_formula_sum "Si O2"
_cell_formula_units_Z 88
_cell_length_a 10.869354
_cell_length_b 10.399816
_cell_length_c 31.161560
_cell_angle_alpha 90.000000
_cell_angle_beta 90.000000
_cell_angle_gamma 90.000000
_cell_volume 3522.480357
_symmetry_space_group_name_H-M "C M C M"
_symmetry_group_IT_number 63
_symmetry_cell_setting 'orthorhombic'
loop_
_space_group_symop_operation_xyz
x,y,z
-x,-y,1/2+z
x,-y,-z
-x,y,1/2-z
-x,-y,-z
x,y,1/2-z
-x,y,z
x,-y,1/2+z
1/2+x,1/2+y,z
1/2-x,1/2-y,1/2+z
1/2+x,1/2-y,-z
1/2-x,1/2+y,1/2-z
1/2-x,1/2-y,-z
1/2+x,1/2+y,1/2-z
1/2-x,1/2+y,z
1/2+x,1/2-y,1/2+z
loop_
_atom_site_type_symbol
_atom_site_label
_atom_site_fract_x
_atom_site_fract_y
_atom_site_fract_z
Si Si1 0.765621 0.468224 0.854330
Si Si2 0.500000 0.161883 0.104866
Si Si3 0.500000 0.346743 0.185485
Si Si4 0.267831 0.880999 0.027735
Si Si5 0.000000 0.946582 0.869415
Si Si6 0.270923 0.783525 0.202102
Si Si7 0.500000 0.337688 0.026083
Si Si8 0.500000 0.778804 0.431339
O O1 0.639759 0.493433 0.880303
O O2 0.807316 0.593232 0.827124
O O3 0.876957 0.414487 0.882739
O O4 0.723559 0.350963 0.822984
O O5 0.500000 0.282817 0.137735
O O6 0.500000 0.211039 0.056264
O O7 0.500000 0.499744 0.179465
O O8 0.624300 0.302900 0.206264
O O9 0.125508 0.909133 0.037807
O O10 0.369936 0.852349 0.063689
O O11 0.250000 0.750000 0.000000
O O12 0.315688 0.000000 0.000000
O O13 0.000000 0.804323 0.888562
O O14 0.325932 0.783158 0.250000
O O15 0.500000 0.305256 0.975519
#
# Coordination Sequence:
#
# PCOD9471538 Si02
#       8
#    16   8   8  16   8  16   8   8
#     4  10  22  38  59  87 119 154 189 232 291 342
#     4  10  20  38  56  84 119 153 191 242 292 341
#     4   8  19  34  58  83 117 158 193 224 286 352
#     4  10  21  37  55  81 110 139 184 241 289 333
#     4  10  20  39  57  82 118 157 193 234 284 353
#     4  10  19  37  61  89 117 151 192 235 279 343
#     4  10  21  37  60  85 111 152 203 247 283 335
#     4  10  21  38  59  84 115 154 195 241 295 343
#
# _framework density 24.982396000000001
#
# number of rings (size 3 to 8) (size 9 to 14) (size 15 to 20)
#    0.000    2.182    0.000    2.455    0.000    3.636 
#    0.000   20.000    0.000    0.000    0.000    0.000 
#    0.000    0.000    0.000    0.000    0.000    0.000 
#
# Total GULP energy -245528.368641 kJ/mol
# GULP energy per Si atom -5580.190196 kJ/mol
# Density = 2.492553 g / cm^3
# Si number density = 24.982396 Si / 1000 Ang^3
#
#
#
# Elastic Constant Matrix: (Units=GPa)
#
#
# Indices 1 2 3 4 5 6 
#
# 1 147.8335 -7.0380 15.2715 0.0000 0.0000 0.0000
# 2 -7.0380 135.7189 80.9963 0.0000 0.0000 0.0000
# 3 15.2715 80.9963 95.0880 0.0000 0.0000 0.0000
# 4 0.0000 0.0000 0.0000 -7.7374 0.0000 0.0000
# 5 0.0000 0.0000 0.0000 0.0000 2.3724 0.0000
# 6 0.0000 0.0000 0.0000 0.0000 0.0000 152.7257
#
#
#
# Elastic Compliance Matrix: (Units=1/GPa)
#
#
# Indices 1 2 3 4 5 6 
#
# 1 0.007176 0.002156 -0.002989 0.000000 0.000000 0.000000
# 2 0.002156 0.015634 -0.013664 0.000000 0.000000 0.000000
# 3 -0.002989 -0.013664 0.022635 0.000000 0.000000 0.000000
# 4 0.000000 0.000000 0.000000 -0.129243 0.000000 0.000000
# 5 0.000000 0.000000 0.000000 0.000000 0.421507 0.000000
# 6 0.000000 0.000000 0.000000 0.000000 0.000000 0.006548
#
#
# Mechanical properties :
#
#
# Convention : Reuss Voigt Hill
#
# Bulk Modulus (GPa) = 60.78212 61.89999 61.34106
# Shear Modulus (GPa) = 13.20185 48.76620 30.98402
#
# Velocity S-wave (km/s) = 2.30129 4.42296 3.52552
# Velocity P-wave (km/s) = 5.60750 7.13545 6.41712
#
# Compressibility (1/GPa) = 0.01645221
#
# Stress axis : x y z
#
# Youngs Moduli (GPa) = 139.35833 63.96174 44.17875
#
# Poissons Ratio (x) = -0.13789 0.13204
# Poissons Ratio (y) = -0.30043 0.60364
# Poissons Ratio (z) = 0.41651 0.87395
#
# Static dielectric constant tensor:
#      x y z
#    x 1.850730 0.000000 0.000000 
#    y 0.000000 2.118380 0.000000 
#    z 0.000000 0.000000 0.858130 
# 
# From -- ./inp_files/72667.got.cif
#   From: 2010.05.17/outbox.cif.g08.bks.cpg/sg63_37_cif.got.tgz:72667.got - 2010.06.03 15:47:04.
