data_PCOD9471883
_publ_section_title
;
Structure prediction by ZEFSAII (Michael W. Deem and Ramdas Pophale) SiO2 
 PCOD9471883
Probable space group: C M C M
;
_chemical_formula_sum "Si O2"
_cell_formula_units_Z 104
_cell_length_a 21.300866
_cell_length_b 29.723742
_cell_length_c 7.387888
_cell_angle_alpha 90.000000
_cell_angle_beta 90.000000
_cell_angle_gamma 90.000000
_cell_volume 4677.578086
_symmetry_space_group_name_H-M "C M C M"
_symmetry_group_IT_number 63
_symmetry_cell_setting 'orthorhombic'
loop_
_space_group_symop_operation_xyz
x,y,z
-x,-y,1/2+z
x,-y,-z
-x,y,1/2-z
-x,-y,-z
x,y,1/2-z
-x,y,z
x,-y,1/2+z
1/2+x,1/2+y,z
1/2-x,1/2-y,1/2+z
1/2+x,1/2-y,-z
1/2-x,1/2+y,1/2-z
1/2-x,1/2-y,-z
1/2+x,1/2+y,1/2-z
1/2-x,1/2+y,z
1/2+x,1/2-y,1/2+z
loop_
_atom_site_type_symbol
_atom_site_label
_atom_site_fract_x
_atom_site_fract_y
_atom_site_fract_z
Si Si1 0.429185 0.686354 0.470389
Si Si2 0.569510 0.791252 0.468272
Si Si3 0.571825 0.947430 0.966744
Si Si4 0.698970 0.362448 0.530067
Si Si5 0.365070 0.447844 0.965386
Si Si6 0.836554 0.630713 0.457659
Si Si7 0.500000 0.553802 0.034137
O O1 0.430271 0.682721 0.250000
O O2 0.500000 0.670864 0.527596
O O3 0.423468 0.739025 0.519135
O O4 0.364679 0.662663 0.531759
O O5 0.572689 0.792510 0.250000
O O6 0.500000 0.806103 0.523960
O O7 0.619632 0.825764 0.540736
O O8 0.569294 0.941439 0.750000
O O9 0.500000 0.939930 0.034696
O O10 0.622865 0.911090 0.036024
O O11 0.587839 0.000000 0.000000
O O12 0.698077 0.356518 0.750000
O O13 0.688345 0.414407 0.477059
O O14 0.769353 0.353322 0.465114
O O15 0.369758 0.443224 0.750000
O O16 0.432808 0.431794 0.038855
O O17 0.354937 0.500000 0.000000
O O18 0.822888 0.617127 0.250000
O O19 0.500000 0.562533 0.250000
O O20 0.500000 0.500000 0.000000
#
# Coordination Sequence:
#
# PCOD9471883 Si02
#       7
#    16  16  16  16  16  16   8
#     4   8  15  29  50  74  98 125 162 207 246 280
#     4   9  18  33  53  76  98 123 160 204 244 285
#     4   9  18  32  49  69  94 125 161 198 237 281
#     4   9  18  30  46  70  99 131 166 201 241 290
#     4   9  17  29  45  66  92 123 161 202 241 283
#     4  10  20  33  49  73 104 133 160 195 243 298
#     4   8  14  24  40  62  84 110 150 196 238 274
#
# _framework density 22.233727999999999
#
# number of rings (size 3 to 8) (size 9 to 14) (size 15 to 20)
#    0.000    3.077    0.000    1.385    1.077    2.769 
#    0.000    2.308    0.000    0.923    0.000    0.000 
#    0.000    0.000    0.000    0.000    0.000    0.000 
#
# Total GULP energy -289799.038746 kJ/mol
# GULP energy per Si atom -5573.058437 kJ/mol
# Density = 2.218312 g / cm^3
# Si number density = 22.233728 Si / 1000 Ang^3
#
#
#
# Elastic Constant Matrix: (Units=GPa)
#
#
# Indices 1 2 3 4 5 6 
#
# 1 213.3457 98.2040 4.8882 0.0000 0.0000 0.0000
# 2 98.2040 90.9222 -4.9830 0.0000 0.0000 0.0000
# 3 4.8882 -4.9830 72.9306 0.0000 0.0000 0.0000
# 4 0.0000 0.0000 0.0000 8.0676 0.0000 0.0000
# 5 0.0000 0.0000 0.0000 0.0000 2.9324 0.0000
# 6 0.0000 0.0000 0.0000 0.0000 0.0000 18.8476
#
#
#
# Elastic Compliance Matrix: (Units=1/GPa)
#
#
# Indices 1 2 3 4 5 6 
#
# 1 0.009450 -0.010280 -0.001336 0.000000 0.000000 0.000000
# 2 -0.010280 0.022222 0.002207 0.000000 0.000000 0.000000
# 3 -0.001336 0.002207 0.013952 0.000000 0.000000 0.000000
# 4 0.000000 0.000000 0.000000 0.123952 0.000000 0.000000
# 5 0.000000 0.000000 0.000000 0.000000 0.341017 0.000000
# 6 0.000000 0.000000 0.000000 0.000000 0.000000 0.053057
#
#
# Mechanical properties :
#
#
# Convention : Reuss Voigt Hill
#
# Bulk Modulus (GPa) = 37.30247 63.71300 50.50774
# Shear Modulus (GPa) = 8.45448 24.57548 16.51498
#
# Velocity S-wave (km/s) = 1.95213 3.32825 2.72837
# Velocity P-wave (km/s) = 4.67920 6.59453 5.71764
#
# Compressibility (1/GPa) = 0.02680788
#
# Stress axis : x y z
#
# Youngs Moduli (GPa) = 105.82499 45.00000 71.67427
#
# Poissons Ratio (x) = 0.46258 0.09574
# Poissons Ratio (y) = 1.08783 -0.15821
# Poissons Ratio (z) = 0.14135 -0.09933
#
# Static dielectric constant tensor:
#      x y z
#    x 1.843090 0.000000 0.000000 
#    y 0.000000 1.787630 0.000000 
#    z 0.000000 0.000000 2.028410 
# 
# From -- ./inp_files/21761.got.cif
#   From: 2010.05.17/outbox.cif.g08.bks.cpg/sg63_11_cif.got.tgz:21761.got - 2010.06.03 15:47:04.
