data_PCOD9471153
_publ_section_title
;
Structure prediction by ZEFSAII (Michael W. Deem and Ramdas Pophale) SiO2 
 PCOD9471153
Probable space group: C M C M
;
_chemical_formula_sum "Si O2"
_cell_formula_units_Z 96
_cell_length_a 31.522370
_cell_length_b 10.978230
_cell_length_c 15.115325
_cell_angle_alpha 90.000000
_cell_angle_beta 90.000000
_cell_angle_gamma 90.000000
_cell_volume 5230.806770
_symmetry_space_group_name_H-M "C M C M"
_symmetry_group_IT_number 63
_symmetry_cell_setting 'orthorhombic'
loop_
_space_group_symop_operation_xyz
x,y,z
-x,-y,1/2+z
x,-y,-z
-x,y,1/2-z
-x,-y,-z
x,y,1/2-z
-x,y,z
x,-y,1/2+z
1/2+x,1/2+y,z
1/2-x,1/2-y,1/2+z
1/2+x,1/2-y,-z
1/2-x,1/2+y,1/2-z
1/2-x,1/2-y,-z
1/2+x,1/2+y,1/2-z
1/2-x,1/2+y,z
1/2+x,1/2-y,1/2+z
loop_
_atom_site_type_symbol
_atom_site_label
_atom_site_fract_x
_atom_site_fract_y
_atom_site_fract_z
Si Si1 0.000000 0.945587 0.856672
Si Si2 0.250180 0.622006 0.445787
Si Si3 0.000000 0.774051 0.357374
Si Si4 0.844132 0.629959 0.021517
Si Si5 0.670205 0.706813 0.349887
Si Si6 0.407959 0.464587 0.898199
Si Si7 0.091826 0.241805 0.850290
O O1 0.953936 0.899171 0.887958
O O2 0.000000 0.941969 0.750000
O O3 0.000000 0.086251 0.889682
O O4 0.262866 0.500000 0.500000
O O5 0.250000 0.750000 0.500000
O O6 0.200277 0.605417 0.427119
O O7 0.284903 0.640226 0.369702
O O8 0.044907 0.717054 0.381607
O O9 0.000000 0.780198 0.250000
O O10 0.834865 0.694790 0.927953
O O11 0.864320 0.500000 0.000000
O O12 0.873307 0.713313 0.081864
O O13 0.669974 0.755216 0.250000
O O14 0.630728 0.615115 0.362631
O O15 0.409591 0.594664 0.849143
O O16 0.400935 0.500000 0.000000
O O17 0.099560 0.284550 0.750000
#
# Coordination Sequence:
#
# PCOD9471153 Si02
#       7
#     8  16   8  16  16  16  16
#     4   9  17  29  47  81 119 148 181 223 283 356
#     4   9  20  38  58  78 110 148 188 236 285 335
#     4   7  14  29  50  79 111 140 180 231 276 326
#     4  10  22  40  58  80 113 150 191 236 282 338
#     4  11  22  37  58  85 115 147 185 237 292 341
#     4  11  19  33  55  84 119 149 184 230 291 345
#     4  10  19  34  58  84 111 147 189 234 283 338
#
# _framework density 18.352810000000002
#
# number of rings (size 3 to 8) (size 9 to 14) (size 15 to 20)
#    0.000    2.167    1.667    3.250    2.333    1.333 
#    0.000    7.083    0.000    0.000    0.000    1.167 
#    0.000    0.000    0.000    0.000    0.000    0.000 
#
# Total GULP energy -267333.198231 kJ/mol
# GULP energy per Si atom -5569.441630 kJ/mol
# Density = 1.831104 g / cm^3
# Si number density = 18.352810 Si / 1000 Ang^3
#
#
#
# Elastic Constant Matrix: (Units=GPa)
#
#
# Indices 1 2 3 4 5 6 
#
# 1 108.0385 17.2401 44.4309 0.0000 0.0000 0.0000
# 2 17.2401 56.8591 13.7914 0.0000 0.0000 0.0000
# 3 44.4309 13.7914 103.9852 0.0000 0.0000 0.0000
# 4 0.0000 0.0000 0.0000 -0.9907 0.0000 0.0000
# 5 0.0000 0.0000 0.0000 0.0000 -25.3846 0.0000
# 6 0.0000 0.0000 0.0000 0.0000 0.0000 21.0362
#
#
#
# Elastic Compliance Matrix: (Units=1/GPa)
#
#
# Indices 1 2 3 4 5 6 
#
# 1 0.011532 -0.002378 -0.004612 0.000000 0.000000 0.000000
# 2 -0.002378 0.018662 -0.001459 0.000000 0.000000 0.000000
# 3 -0.004612 -0.001459 0.011781 0.000000 0.000000 0.000000
# 4 0.000000 0.000000 0.000000 -1.009396 0.000000 0.000000
# 5 0.000000 0.000000 0.000000 0.000000 -0.039394 0.000000
# 6 0.000000 0.000000 0.000000 0.000000 0.000000 0.047537
#
#
# Mechanical properties :
#
#
# Convention : Reuss Voigt Hill
#
# Bulk Modulus (GPa) = 39.87706 46.64528 43.26117
# Shear Modulus (GPa) = -5.35320 11.82686 3.23683
#
# Velocity S-wave (km/s) = -1.70973 2.54129 1.32947
# Velocity P-wave (km/s) = 4.22820 5.83797 5.09704
#
# Compressibility (1/GPa) = 0.02507707
#
# Stress axis : x y z
#
# Youngs Moduli (GPa) = 86.71417 53.58407 84.88296
#
# Poissons Ratio (x) = 0.12742 0.39149
# Poissons Ratio (y) = 0.20620 0.12385
# Poissons Ratio (z) = 0.39993 0.07818
#
# Static dielectric constant tensor:
#      x y z
#    x 1.681590 0.000000 0.000000 
#    y 0.000000 1.858660 0.000000 
#    z 0.000000 0.000000 1.649330 
# 
# From -- ./inp_files/38459.got.cif
#   From: 2010.05.17/outbox.cif.g08.bks.cpg/sg63_20_cif.got.tgz:38459.got - 2010.06.03 15:47:04.
