data_PCOD9471821
_publ_section_title
;
Structure prediction by ZEFSAII (Michael W. Deem and Ramdas Pophale) SiO2 
 PCOD9471821
Probable space group: C M C M
;
_chemical_formula_sum "Si O2"
_cell_formula_units_Z 80
_cell_length_a 8.129678
_cell_length_b 29.903850
_cell_length_c 14.016991
_cell_angle_alpha 90.000000
_cell_angle_beta 90.000000
_cell_angle_gamma 90.000000
_cell_volume 3407.652060
_symmetry_space_group_name_H-M "C M C M"
_symmetry_group_IT_number 63
_symmetry_cell_setting 'orthorhombic'
loop_
_space_group_symop_operation_xyz
x,y,z
-x,-y,1/2+z
x,-y,-z
-x,y,1/2-z
-x,-y,-z
x,y,1/2-z
-x,y,z
x,-y,1/2+z
1/2+x,1/2+y,z
1/2-x,1/2-y,1/2+z
1/2+x,1/2-y,-z
1/2-x,1/2+y,1/2-z
1/2-x,1/2-y,-z
1/2+x,1/2+y,1/2-z
1/2-x,1/2+y,z
1/2+x,1/2-y,1/2+z
loop_
_atom_site_type_symbol
_atom_site_label
_atom_site_fract_x
_atom_site_fract_y
_atom_site_fract_z
Si Si1 0.500000 0.378156 0.364711
Si Si2 0.690240 0.180662 0.632865
Si Si3 0.183610 0.526980 0.401399
Si Si4 0.197030 0.220852 0.359768
Si Si5 0.500000 0.482547 0.108692
Si Si6 0.196158 0.625744 0.360023
O O1 0.500000 0.375384 0.250000
O O2 0.331274 0.354000 0.395327
O O3 0.500000 0.429688 0.390752
O O4 0.684824 0.181841 0.750000
O O5 0.500000 0.171481 0.602514
O O6 0.745915 0.230575 0.601446
O O7 0.167897 0.500000 0.500000
O O8 0.331902 0.502108 0.349736
O O9 0.233801 0.579060 0.411882
O O10 0.000000 0.526543 0.357927
O O11 0.260650 0.219174 0.250000
O O12 0.245635 0.173057 0.401877
O O13 0.000000 0.222524 0.356651
O O14 0.500000 0.500000 0.000000
O O15 0.259035 0.621591 0.250000
O O16 0.000000 0.628851 0.356324
#
# Coordination Sequence:
#
# PCOD9471821 Si02
#       6
#     8  16  16  16   8  16
#     4  10  20  32  52  80 104 136 175 209 252 295
#     4   8  15  28  45  70 108 142 167 200 244 302
#     4   9  19  36  53  69  97 132 177 215 257 306
#     4   8  14  24  40  67 105 142 165 191 245 306
#     4  10  22  38  54  74  98 132 178 219 260 305
#     4   9  17  27  44  74 106 134 167 210 257 299
#
# _framework density 23.476576000000001
#
# number of rings (size 3 to 8) (size 9 to 14) (size 15 to 20)
#    0.000    3.200    0.000    1.200    2.800    1.600 
#    0.000    0.000    0.000    0.000    0.000    5.600 
#    0.000    0.000    0.000    0.000    0.000    0.400 
#
# Total GULP energy -223189.463258 kJ/mol
# GULP energy per Si atom -5579.736581 kJ/mol
# Density = 2.342314 g / cm^3
# Si number density = 23.476576 Si / 1000 Ang^3
#
#
#
# Elastic Constant Matrix: (Units=GPa)
#
#
# Indices 1 2 3 4 5 6 
#
# 1 140.5052 109.8058 17.0970 0.0000 0.0000 0.0000
# 2 109.8058 267.0880 20.4441 0.0000 0.0000 0.0000
# 3 17.0970 20.4441 69.0990 0.0000 0.0000 0.0000
# 4 0.0000 0.0000 0.0000 31.0528 0.0000 0.0000
# 5 0.0000 0.0000 0.0000 0.0000 -86.7107 0.0000
# 6 0.0000 0.0000 0.0000 0.0000 0.0000 -103.9478
#
#
#
# Elastic Compliance Matrix: (Units=1/GPa)
#
#
# Indices 1 2 3 4 5 6 
#
# 1 0.010611 -0.004258 -0.001366 0.000000 0.000000 0.000000
# 2 -0.004258 0.005539 -0.000585 0.000000 0.000000 0.000000
# 3 -0.001366 -0.000585 0.014983 0.000000 0.000000 0.000000
# 4 0.000000 0.000000 0.000000 0.032203 0.000000 0.000000
# 5 0.000000 0.000000 0.000000 0.000000 -0.011533 0.000000
# 6 0.000000 0.000000 0.000000 0.000000 0.000000 -0.009620
#
#
# Mechanical properties :
#
#
# Convention : Reuss Voigt Hill
#
# Bulk Modulus (GPa) = 53.43157 85.70955 69.57056
# Shear Modulus (GPa) = 82.18261 -9.96479 36.10891
#
# Velocity S-wave (km/s) = 5.92302 -2.06247 3.92609
# Velocity P-wave (km/s) = 8.34178 5.56022 7.08877
#
# Compressibility (1/GPa) = 0.01871553
#
# Stress axis : x y z
#
# Youngs Moduli (GPa) = 94.24284 180.52540 66.74183
#
# Poissons Ratio (x) = 0.76865 0.09115
# Poissons Ratio (y) = 0.40127 0.03907
# Poissons Ratio (z) = 0.12871 0.10568
#
# Static dielectric constant tensor:
#      x y z
#    x 1.899790 0.000000 0.000000 
#    y 0.000000 1.854480 0.000000 
#    z 0.000000 0.000000 1.458000 
# 
# From -- ./inp_files/40626.got.cif
#   From: 2010.05.17/outbox.cif.g08.bks.cpg/sg63_21_cif.got.tgz:40626.got - 2010.06.03 15:47:04.
