data_PCOD9471015
_publ_section_title
;
Structure prediction by ZEFSAII (Michael W. Deem and Ramdas Pophale) SiO2 
 PCOD9471015
Probable space group: C M C M
;
_chemical_formula_sum "Si O2"
_cell_formula_units_Z 64
_cell_length_a 14.156795
_cell_length_b 18.291953
_cell_length_c 11.527935
_cell_angle_alpha 90.000000
_cell_angle_beta 90.000000
_cell_angle_gamma 90.000000
_cell_volume 2985.221351
_symmetry_space_group_name_H-M "C M C M"
_symmetry_group_IT_number 63
_symmetry_cell_setting 'orthorhombic'
loop_
_space_group_symop_operation_xyz
x,y,z
-x,-y,1/2+z
x,-y,-z
-x,y,1/2-z
-x,-y,-z
x,y,1/2-z
-x,y,z
x,-y,1/2+z
1/2+x,1/2+y,z
1/2-x,1/2-y,1/2+z
1/2+x,1/2-y,-z
1/2-x,1/2+y,1/2-z
1/2-x,1/2-y,-z
1/2+x,1/2+y,1/2-z
1/2-x,1/2+y,z
1/2+x,1/2-y,1/2+z
loop_
_atom_site_type_symbol
_atom_site_label
_atom_site_fract_x
_atom_site_fract_y
_atom_site_fract_z
Si Si1 0.392108 0.690314 0.007175
Si Si2 0.301912 0.820995 0.875505
Si Si3 0.356926 0.989174 0.875401
Si Si4 0.357945 0.456702 0.117638
O O1 0.500000 0.690927 0.048462
O O2 0.358986 0.769590 0.962323
O O3 0.382532 0.627487 0.908897
O O4 0.309116 0.671292 0.096883
O O5 0.312940 0.785978 0.750000
O O6 0.340389 0.902459 0.872497
O O7 0.397972 0.010532 0.750000
O O8 0.255080 0.029917 0.881515
O O9 0.403123 0.000000 0.000000
O O10 0.389255 0.477389 0.250000
O O11 0.391369 0.500000 0.000000
#
# Coordination Sequence:
#
# PCOD9471015 Si02
#       4
#    16  16  16  16
#     4  11  23  38  58  87 119 155 199 245 293 350
#     4  10  21  39  59  82 116 159 199 240 293 351
#     4   9  16  32  55  82 112 149 192 235 287 349
#     4  10  19  34  54  83 118 152 190 236 292 354
#
# _framework density 21.438946000000001
#
# number of rings (size 3 to 8) (size 9 to 14) (size 15 to 20)
#    0.000    2.000    5.000    0.750    0.000    3.000 
#    0.000    0.000    0.000    0.750    0.000    0.000 
#    0.000    0.000    0.000    0.000    0.000    0.000 
#
# Total GULP energy -178187.892166 kJ/mol
# GULP energy per Si atom -5568.371630 kJ/mol
# Density = 2.139015 g / cm^3
# Si number density = 21.438946 Si / 1000 Ang^3
#
#
#
# Elastic Constant Matrix: (Units=GPa)
#
#
# Indices 1 2 3 4 5 6 
#
# 1 94.9837 30.7574 15.5059 0.0000 0.0000 0.0000
# 2 30.7574 60.0597 0.5640 0.0000 0.0000 0.0000
# 3 15.5059 0.5640 147.2829 0.0000 0.0000 0.0000
# 4 0.0000 0.0000 0.0000 10.8467 0.0000 0.0000
# 5 0.0000 0.0000 0.0000 0.0000 -64.3124 0.0000
# 6 0.0000 0.0000 0.0000 0.0000 0.0000 -56.8263
#
#
#
# Elastic Compliance Matrix: (Units=1/GPa)
#
#
# Indices 1 2 3 4 5 6 
#
# 1 0.012877 -0.006582 -0.001330 0.000000 0.000000 0.000000
# 2 -0.006582 0.020015 0.000616 0.000000 0.000000 0.000000
# 3 -0.001330 0.000616 0.006927 0.000000 0.000000 0.000000
# 4 0.000000 0.000000 0.000000 0.092194 0.000000 0.000000
# 5 0.000000 0.000000 0.000000 0.000000 -0.015549 0.000000
# 6 0.000000 0.000000 0.000000 0.000000 0.000000 -0.017597
#
#
# Mechanical properties :
#
#
# Convention : Reuss Voigt Hill
#
# Bulk Modulus (GPa) = 39.64004 43.99787 41.81896
# Shear Modulus (GPa) = 41.02828 -5.02512 18.00158
#
# Velocity S-wave (km/s) = 4.37936 -1.53265 2.90084
# Velocity P-wave (km/s) = 6.64091 4.17552 5.54692
#
# Compressibility (1/GPa) = 0.02522702
#
# Stress axis : x y z
#
# Youngs Moduli (GPa) = 77.66020 49.96273 144.35506
#
# Poissons Ratio (x) = 0.32884 0.19206
# Poissons Ratio (y) = 0.51114 -0.08896
# Poissons Ratio (z) = 0.10332 -0.03079
#
# Static dielectric constant tensor:
#      x y z
#    x 1.762140 0.000000 0.000000 
#    y 0.000000 1.743070 0.000000 
#    z 0.000000 0.000000 1.886990 
# 
# From -- ./inp_files/18935.got.cif
#   From: 2010.05.17/outbox.cif.g08.bks.cpg/sg63_10_cif.got.tgz:18935.got - 2010.06.03 15:47:04.
