data_PCOD9471786
_publ_section_title
;
Structure prediction by ZEFSAII (Michael W. Deem and Ramdas Pophale) SiO2 
 PCOD9471786
Probable space group: C M C M
;
_chemical_formula_sum "Si O2"
_cell_formula_units_Z 96
_cell_length_a 8.088489
_cell_length_b 23.832838
_cell_length_c 26.584422
_cell_angle_alpha 90.000000
_cell_angle_beta 90.000000
_cell_angle_gamma 90.000000
_cell_volume 5124.722840
_symmetry_space_group_name_H-M "C M C M"
_symmetry_group_IT_number 63
_symmetry_cell_setting 'orthorhombic'
loop_
_space_group_symop_operation_xyz
x,y,z
-x,-y,1/2+z
x,-y,-z
-x,y,1/2-z
-x,-y,-z
x,y,1/2-z
-x,y,z
x,-y,1/2+z
1/2+x,1/2+y,z
1/2-x,1/2-y,1/2+z
1/2+x,1/2-y,-z
1/2-x,1/2+y,1/2-z
1/2-x,1/2-y,-z
1/2+x,1/2+y,1/2-z
1/2-x,1/2+y,z
1/2+x,1/2-y,1/2+z
loop_
_atom_site_type_symbol
_atom_site_label
_atom_site_fract_x
_atom_site_fract_y
_atom_site_fract_z
Si Si1 0.688914 0.260298 0.555721
Si Si2 0.700531 0.813366 0.807364
Si Si3 0.303962 0.356164 0.407580
Si Si4 0.697850 0.183638 0.807632
Si Si5 0.697775 0.563261 0.501476
Si Si6 0.187109 0.628766 0.097154
O O1 0.500000 0.280949 0.557548
O O2 0.750000 0.250000 0.500000
O O3 0.704682 0.200330 0.580933
O O4 0.806878 0.307042 0.578338
O O5 0.750630 0.825475 0.750000
O O6 0.500000 0.813431 0.810015
O O7 0.756550 0.749264 0.818416
O O8 0.761700 0.860263 0.847221
O O9 0.500000 0.347058 0.416095
O O10 0.274580 0.359876 0.347750
O O11 0.247322 0.402169 0.448712
O O12 0.752095 0.173288 0.750000
O O13 0.500000 0.179214 0.809906
O O14 0.765194 0.500000 0.500000
O O15 0.500000 0.560064 0.506225
O O16 0.733849 0.593980 0.448492
O O17 0.000000 0.608117 0.102443
#
# Coordination Sequence:
#
# PCOD9471786 Si02
#       6
#    16  16  16  16  16  16
#     4  12  22  32  49  77 112 144 175 217 265 325
#     4   9  18  32  50  75 110 146 178 212 255 315
#     4  11  21  34  54  78 107 143 179 219 270 327
#     4  10  20  32  49  77 112 146 179 216 261 314
#     4  10  23  41  58  76 102 139 182 230 281 327
#     4  11  21  33  54  81 109 143 180 219 266 324
#
# _framework density 18.732721000000002
#
# number of rings (size 3 to 8) (size 9 to 14) (size 15 to 20)
#    0.000    1.500    3.333    3.000    0.000    2.667 
#    0.000    0.000    0.000    1.000    0.000    4.667 
#    0.000    0.000    0.000    0.000    0.000    0.000 
#
# Total GULP energy -267438.643337 kJ/mol
# GULP energy per Si atom -5571.638403 kJ/mol
# Density = 1.869008 g / cm^3
# Si number density = 18.732721 Si / 1000 Ang^3
#
#
#
# Elastic Constant Matrix: (Units=GPa)
#
#
# Indices 1 2 3 4 5 6 
#
# 1 35.1605 1.9888 4.3043 0.0000 0.0000 0.0000
# 2 1.9888 85.5927 58.6341 0.0000 0.0000 0.0000
# 3 4.3043 58.6341 162.1903 0.0000 0.0000 0.0000
# 4 0.0000 0.0000 0.0000 9.8010 0.0000 0.0000
# 5 0.0000 0.0000 0.0000 0.0000 20.0409 0.0000
# 6 0.0000 0.0000 0.0000 0.0000 0.0000 12.3277
#
#
#
# Elastic Compliance Matrix: (Units=1/GPa)
#
#
# Indices 1 2 3 4 5 6 
#
# 1 0.028536 -0.000192 -0.000688 0.000000 0.000000 0.000000
# 2 -0.000192 0.015530 -0.005609 0.000000 0.000000 0.000000
# 3 -0.000688 -0.005609 0.008212 0.000000 0.000000 0.000000
# 4 0.000000 0.000000 0.000000 0.102030 0.000000 0.000000
# 5 0.000000 0.000000 0.000000 0.000000 0.049898 0.000000
# 6 0.000000 0.000000 0.000000 0.000000 0.000000 0.081118
#
#
# Mechanical properties :
#
#
# Convention : Reuss Voigt Hill
#
# Bulk Modulus (GPa) = 25.44532 45.86643 35.65587
# Shear Modulus (GPa) = 16.05639 22.96834 19.51237
#
# Velocity S-wave (km/s) = 2.93086 3.50538 3.23091
# Velocity P-wave (km/s) = 5.00660 6.39698 5.74402
#
# Compressibility (1/GPa) = 0.03929996
#
# Stress axis : x y z
#
# Youngs Moduli (GPa) = 35.04332 64.39035 121.77740
#
# Poissons Ratio (x) = 0.01235 0.08378
# Poissons Ratio (y) = 0.00672 0.68309
# Poissons Ratio (z) = 0.02411 0.36119
#
# Static dielectric constant tensor:
#      x y z
#    x 1.647220 0.000000 0.000000 
#    y 0.000000 1.606830 0.000000 
#    z 0.000000 0.000000 1.770440 
# 
# From -- ./inp_files/67201.got.cif
#   From: 2010.05.17/outbox.cif.g08.bks.cpg/sg63_34_cif.got.tgz:67201.got - 2010.06.03 15:47:04.
