data_PCOD9471475
_publ_section_title
;
Structure prediction by ZEFSAII (Michael W. Deem and Ramdas Pophale) SiO2 
 PCOD9471475
Probable space group: C M C M
;
_chemical_formula_sum "Si O2"
_cell_formula_units_Z 100
_cell_length_a 22.875427
_cell_length_b 29.460449
_cell_length_c 7.829664
_cell_angle_alpha 90.000000
_cell_angle_beta 90.000000
_cell_angle_gamma 90.000000
_cell_volume 5276.569907
_symmetry_space_group_name_H-M "C M C M"
_symmetry_group_IT_number 63
_symmetry_cell_setting 'orthorhombic'
loop_
_space_group_symop_operation_xyz
x,y,z
-x,-y,1/2+z
x,-y,-z
-x,y,1/2-z
-x,-y,-z
x,y,1/2-z
-x,y,z
x,-y,1/2+z
1/2+x,1/2+y,z
1/2-x,1/2-y,1/2+z
1/2+x,1/2-y,-z
1/2-x,1/2+y,1/2-z
1/2-x,1/2-y,-z
1/2+x,1/2+y,1/2-z
1/2-x,1/2+y,z
1/2+x,1/2-y,1/2+z
loop_
_atom_site_type_symbol
_atom_site_label
_atom_site_fract_x
_atom_site_fract_y
_atom_site_fract_z
Si Si1 0.804387 0.696234 0.544754
Si Si2 0.062682 0.552850 0.044221
Si Si3 0.830428 0.206633 0.547735
Si Si4 0.181796 0.594627 0.049310
Si Si5 0.000000 0.114499 0.750000
Si Si6 0.194936 0.947186 0.447411
Si Si7 0.596010 0.621225 0.058622
O O1 0.804700 0.695714 0.750000
O O2 0.840562 0.740014 0.484451
O O3 0.736561 0.700194 0.486928
O O4 0.824439 0.648252 0.474978
O O5 0.063513 0.558076 0.250000
O O6 0.122582 0.573320 0.976107
O O7 0.000000 0.571791 0.982760
O O8 0.063094 0.500000 0.000000
O O9 0.832304 0.197633 0.750000
O O10 0.872882 0.170484 0.461856
O O11 0.186305 0.583693 0.250000
O O12 0.241123 0.575256 0.969019
O O13 0.949051 0.115202 0.597041
O O14 0.178609 0.945020 0.250000
O O15 0.147145 0.916713 0.543775
O O16 0.196457 0.000000 0.500000
O O17 0.570754 0.618057 0.250000
#
# Coordination Sequence:
#
# PCOD9471475 Si02
#       7
#    16  16  16  16   4  16  16
#     4  10  20  32  55  90 125 161 201 252 310 371
#     4   9  19  35  54  77 111 156 207 253 301 363
#     4  10  19  36  60  91 125 161 201 255 314 372
#     4  11  21  34  56  89 122 164 209 259 321 382
#     4  12  26  48  70  98 126 172 222 260 322 396
#     4  12  24  41  63  93 129 163 206 268 333 391
#     4  12  24  44  71  96 129 169 215 270 325 388
#
# _framework density 18.951706999999999
#
# number of rings (size 3 to 8) (size 9 to 14) (size 15 to 20)
#    0.000    1.280    3.200    3.600    0.000    3.840 
#    0.000    0.400    1.760    0.000    0.000    0.000 
#    0.000    0.000    0.000    0.000    0.000    0.000 
#
# Total GULP energy -278562.498773 kJ/mol
# GULP energy per Si atom -5571.249975 kJ/mol
# Density = 1.890857 g / cm^3
# Si number density = 18.951707 Si / 1000 Ang^3
#
#
#
# Elastic Constant Matrix: (Units=GPa)
#
#
# Indices 1 2 3 4 5 6 
#
# 1 120.5860 54.7200 28.1736 0.0000 0.0000 0.0000
# 2 54.7200 96.5706 9.1971 0.0000 0.0000 0.0000
# 3 28.1736 9.1971 101.9271 0.0000 0.0000 0.0000
# 4 0.0000 0.0000 0.0000 18.1468 0.0000 0.0000
# 5 0.0000 0.0000 0.0000 0.0000 21.9326 0.0000
# 6 0.0000 0.0000 0.0000 0.0000 0.0000 0.0277
#
#
#
# Elastic Compliance Matrix: (Units=1/GPa)
#
#
# Indices 1 2 3 4 5 6 
#
# 1 0.011854 -0.006460 -0.002694 0.000000 0.000000 0.000000
# 2 -0.006460 0.013966 0.000525 0.000000 0.000000 0.000000
# 3 -0.002694 0.000525 0.010508 0.000000 0.000000 0.000000
# 4 0.000000 0.000000 0.000000 0.055106 0.000000 0.000000
# 5 0.000000 0.000000 0.000000 0.000000 0.045594 0.000000
# 6 0.000000 0.000000 0.000000 0.000000 0.000000 36.097232
#
#
# Mechanical properties :
#
#
# Convention : Reuss Voigt Hill
#
# Bulk Modulus (GPa) = 52.43589 55.91835 54.17712
# Shear Modulus (GPa) = 0.13790 23.15428 11.64609
#
# Velocity S-wave (km/s) = 0.27004 3.49915 2.48163
# Velocity P-wave (km/s) = 5.27498 6.77460 6.07127
#
# Compressibility (1/GPa) = 0.01907091
#
# Stress axis : x y z
#
# Youngs Moduli (GPa) = 84.36208 71.60454 95.16523
#
# Poissons Ratio (x) = 0.46258 0.25633
# Poissons Ratio (y) = 0.54499 -0.05001
# Poissons Ratio (z) = 0.22723 -0.03763
#
# Static dielectric constant tensor:
#      x y z
#    x 1.659960 0.000000 0.000000 
#    y 0.000000 1.654050 0.000000 
#    z 0.000000 0.000000 1.689330 
# 
# From -- ./inp_files/9147.got.cif
#   From: 2010.05.17/outbox.cif.g08.bks.cpg/sg63_5_cif.got.tgz:9147.got - 2010.06.03 15:47:04.
