data_PCOD9471880
_publ_section_title
;
Structure prediction by ZEFSAII (Michael W. Deem and Ramdas Pophale) SiO2 
 PCOD9471880
Probable space group: C M C M
;
_chemical_formula_sum "Si O2"
_cell_formula_units_Z 88
_cell_length_a 19.970782
_cell_length_b 27.910964
_cell_length_c 7.762148
_cell_angle_alpha 90.000000
_cell_angle_beta 90.000000
_cell_angle_gamma 90.000000
_cell_volume 4326.650616
_symmetry_space_group_name_H-M "C M C M"
_symmetry_group_IT_number 63
_symmetry_cell_setting 'orthorhombic'
loop_
_space_group_symop_operation_xyz
x,y,z
-x,-y,1/2+z
x,-y,-z
-x,y,1/2-z
-x,-y,-z
x,y,1/2-z
-x,y,z
x,-y,1/2+z
1/2+x,1/2+y,z
1/2-x,1/2-y,1/2+z
1/2+x,1/2-y,-z
1/2-x,1/2+y,1/2-z
1/2-x,1/2-y,-z
1/2+x,1/2+y,1/2-z
1/2-x,1/2+y,z
1/2+x,1/2-y,1/2+z
loop_
_atom_site_type_symbol
_atom_site_label
_atom_site_fract_x
_atom_site_fract_y
_atom_site_fract_z
Si Si1 0.273404 0.447271 0.955320
Si Si2 0.000000 0.444637 0.456834
Si Si3 0.138808 0.597590 0.952685
Si Si4 0.326444 0.655404 0.458653
Si Si5 0.190506 0.301394 0.947466
Si Si6 0.424538 0.267294 0.455262
O O1 0.269470 0.444181 0.750000
O O2 0.313204 0.399451 0.015245
O O3 0.300050 0.500000 0.000000
O O4 0.198263 0.440700 0.026836
O O5 0.000000 0.500000 0.500000
O O6 0.068240 0.421003 0.520105
O O7 0.000000 0.439992 0.250000
O O8 0.133176 0.609196 0.750000
O O9 0.160847 0.645178 0.049731
O O10 0.323869 0.655879 0.250000
O O11 0.264656 0.689280 0.523502
O O12 0.395122 0.679698 0.515848
O O13 0.200555 0.285725 0.750000
O O14 0.133316 0.267852 0.028450
O O15 0.427758 0.258172 0.250000
O O16 0.500000 0.260904 0.523609
#
# Coordination Sequence:
#
# PCOD9471880 Si02
#       6
#    16   8  16  16  16  16
#     4  10  20  35  55  80 105 131 170 216 263 315
#     4  10  22  34  44  64  96 134 176 218 259 306
#     4  10  20  33  49  72 102 135 176 220 260 308
#     4   9  19  35  54  78 107 138 174 215 259 312
#     4   9  19  35  53  76 105 138 177 218 261 311
#     4  10  21  35  53  79 109 140 177 218 263 317
#
# _framework density 20.339057
#
# number of rings (size 3 to 8) (size 9 to 14) (size 15 to 20)
#    0.000    2.364    0.000    3.273    1.273    7.636 
#    0.000    0.000    0.000    0.545    0.000    0.000 
#    0.000    0.000    0.000    0.000    0.000    0.000 
#
# Total GULP energy -245447.007751 kJ/mol
# GULP energy per Si atom -5578.341085 kJ/mol
# Density = 2.029276 g / cm^3
# Si number density = 20.339057 Si / 1000 Ang^3
#
#
#
# Elastic Constant Matrix: (Units=GPa)
#
#
# Indices 1 2 3 4 5 6 
#
# 1 82.4497 47.2225 -1.9553 0.0000 0.0000 0.0000
# 2 47.2225 95.3801 2.3498 0.0000 0.0000 0.0000
# 3 -1.9553 2.3498 43.4955 0.0000 0.0000 0.0000
# 4 0.0000 0.0000 0.0000 24.3812 0.0000 0.0000
# 5 0.0000 0.0000 0.0000 0.0000 15.2051 0.0000
# 6 0.0000 0.0000 0.0000 0.0000 0.0000 14.0945
#
#
#
# Elastic Compliance Matrix: (Units=1/GPa)
#
#
# Indices 1 2 3 4 5 6 
#
# 1 0.016993 -0.008443 0.001220 0.000000 0.000000 0.000000
# 2 -0.008443 0.014694 -0.001173 0.000000 0.000000 0.000000
# 3 0.001220 -0.001173 0.023109 0.000000 0.000000 0.000000
# 4 0.000000 0.000000 0.000000 0.041015 0.000000 0.000000
# 5 0.000000 0.000000 0.000000 0.000000 0.065767 0.000000
# 6 0.000000 0.000000 0.000000 0.000000 0.000000 0.070950
#
#
# Mechanical properties :
#
#
# Convention : Reuss Voigt Hill
#
# Bulk Modulus (GPa) = 26.31395 35.17326 30.74361
# Shear Modulus (GPa) = 19.08470 22.31670 20.70070
#
# Velocity S-wave (km/s) = 3.06654 3.31605 3.19373
# Velocity P-wave (km/s) = 5.05014 5.65619 5.36174
#
# Compressibility (1/GPa) = 0.03800265
#
# Stress axis : x y z
#
# Youngs Moduli (GPa) = 58.84607 68.05667 43.27294
#
# Poissons Ratio (x) = 0.57464 -0.05280
# Poissons Ratio (y) = 0.49687 0.05078
# Poissons Ratio (z) = -0.07180 0.07986
#
# Static dielectric constant tensor:
#      x y z
#    x 1.782790 0.000000 0.000000 
#    y 0.000000 1.742610 0.000000 
#    z 0.000000 0.000000 1.750680 
# 
# From -- ./inp_files/6781.got.cif
#   From: 2010.05.17/outbox.cif.g08.bks.cpg/sg63_4_cif.got.tgz:6781.got - 2010.06.03 15:47:04.
