data_PCOD9471228
_publ_section_title
;
Structure prediction by ZEFSAII (Michael W. Deem and Ramdas Pophale) SiO2 
 PCOD9471228
Probable space group: C M C M
;
_chemical_formula_sum "Si O2"
_cell_formula_units_Z 64
_cell_length_a 7.905434
_cell_length_b 14.161195
_cell_length_c 32.100717
_cell_angle_alpha 90.000000
_cell_angle_beta 90.000000
_cell_angle_gamma 90.000000
_cell_volume 3593.687866
_symmetry_space_group_name_H-M "C M C M"
_symmetry_group_IT_number 63
_symmetry_cell_setting 'orthorhombic'
loop_
_space_group_symop_operation_xyz
x,y,z
-x,-y,1/2+z
x,-y,-z
-x,y,1/2-z
-x,-y,-z
x,y,1/2-z
-x,y,z
x,-y,1/2+z
1/2+x,1/2+y,z
1/2-x,1/2-y,1/2+z
1/2+x,1/2-y,-z
1/2-x,1/2+y,1/2-z
1/2-x,1/2-y,-z
1/2+x,1/2+y,1/2-z
1/2-x,1/2+y,z
1/2+x,1/2-y,1/2+z
loop_
_atom_site_type_symbol
_atom_site_label
_atom_site_fract_x
_atom_site_fract_y
_atom_site_fract_z
Si Si1 0.684231 0.274193 0.336954
Si Si2 0.000000 0.392139 0.700056
Si Si3 0.500000 0.887454 0.199928
Si Si4 0.204912 0.607591 0.004800
Si Si5 0.300773 0.756021 0.430340
O O1 0.500000 0.320047 0.328757
O O2 0.711240 0.263815 0.386238
O O3 0.835636 0.333300 0.317391
O O4 0.658207 0.169263 0.317451
O O5 0.000000 0.387513 0.750000
O O6 0.000000 0.501693 0.687332
O O7 0.500000 0.883766 0.250000
O O8 0.260357 0.667879 0.964560
O O9 0.000000 0.612059 0.006382
O O10 0.257182 0.500000 0.000000
O O11 0.272641 0.656931 0.046331
O O12 0.500000 0.771220 0.423396
#
# Coordination Sequence:
#
# PCOD9471228 Si02
#       5
#    16   8   8  16  16
#     4  10  22  40  63  89 125 162 196 252 305 358
#     4   9  22  42  63  92 121 156 203 246 298 371
#     4  11  22  42  67  90 123 158 201 252 300 363
#     4   9  19  34  54  77 111 157 197 242 298 351
#     4  10  19  35  54  82 118 151 198 247 292 351
#
# _framework density 17.809003000000001
#
# number of rings (size 3 to 8) (size 9 to 14) (size 15 to 20)
#    0.750    1.500    1.250    1.500    0.000    3.500 
#    2.250    2.500    0.000    0.000    0.000    0.000 
#    0.000    0.000    0.000    0.000    0.000    0.000 
#
# Total GULP energy -178333.987004 kJ/mol
# GULP energy per Si atom -5572.937094 kJ/mol
# Density = 1.776847 g / cm^3
# Si number density = 17.809003 Si / 1000 Ang^3
#
#
#
# Elastic Constant Matrix: (Units=GPa)
#
#
# Indices 1 2 3 4 5 6 
#
# 1 97.4039 45.8953 37.0861 0.0000 0.0000 0.0000
# 2 45.8953 127.2682 44.9783 0.0000 0.0000 0.0000
# 3 37.0861 44.9783 97.1390 0.0000 0.0000 0.0000
# 4 0.0000 0.0000 0.0000 4.4044 0.0000 0.0000
# 5 0.0000 0.0000 0.0000 0.0000 8.5727 0.0000
# 6 0.0000 0.0000 0.0000 0.0000 0.0000 0.4325
#
#
#
# Elastic Compliance Matrix: (Units=1/GPa)
#
#
# Indices 1 2 3 4 5 6 
#
# 1 0.013246 -0.003574 -0.003402 0.000000 0.000000 0.000000
# 2 -0.003574 0.010359 -0.003432 0.000000 0.000000 0.000000
# 3 -0.003402 -0.003432 0.013183 0.000000 0.000000 0.000000
# 4 0.000000 0.000000 0.000000 0.227048 0.000000 0.000000
# 5 0.000000 0.000000 0.000000 0.000000 0.116650 0.000000
# 6 0.000000 0.000000 0.000000 0.000000 0.000000 2.312367
#
#
# Mechanical properties :
#
#
# Convention : Reuss Voigt Hill
#
# Bulk Modulus (GPa) = 62.61400 64.19228 63.40314
# Shear Modulus (GPa) = 1.83892 15.60532 8.72212
#
# Velocity S-wave (km/s) = 1.01726 2.96338 2.21545
# Velocity P-wave (km/s) = 6.05101 6.91606 6.49795
#
# Compressibility (1/GPa) = 0.01597087
#
# Stress axis : x y z
#
# Youngs Moduli (GPa) = 75.49407 96.53102 75.85804
#
# Poissons Ratio (x) = 0.34504 0.25807
# Poissons Ratio (y) = 0.26985 0.26035
# Poissons Ratio (z) = 0.25684 0.33130
#
# Static dielectric constant tensor:
#      x y z
#    x 1.625940 0.000000 0.000000 
#    y 0.000000 1.598980 0.000000 
#    z 0.000000 0.000000 1.581630 
# 
# From -- ./inp_files/66246.got.cif
#   From: 2010.05.17/outbox.cif.g08.bks.cpg/sg63_34_cif.got.tgz:66246.got - 2010.06.03 15:47:04.
