data_PCOD9471235
_publ_section_title
;
Structure prediction by ZEFSAII (Michael W. Deem and Ramdas Pophale) SiO2 
 PCOD9471235
Probable space group: C M C M
;
_chemical_formula_sum "Si O2"
_cell_formula_units_Z 112
_cell_length_a 25.497140
_cell_length_b 16.778528
_cell_length_c 14.585057
_cell_angle_alpha 90.000000
_cell_angle_beta 90.000000
_cell_angle_gamma 90.000000
_cell_volume 6239.552688
_symmetry_space_group_name_H-M "C M C M"
_symmetry_group_IT_number 63
_symmetry_cell_setting 'orthorhombic'
loop_
_space_group_symop_operation_xyz
x,y,z
-x,-y,1/2+z
x,-y,-z
-x,y,1/2-z
-x,-y,-z
x,y,1/2-z
-x,y,z
x,-y,1/2+z
1/2+x,1/2+y,z
1/2-x,1/2-y,1/2+z
1/2+x,1/2-y,-z
1/2-x,1/2+y,1/2-z
1/2-x,1/2-y,-z
1/2+x,1/2+y,1/2-z
1/2-x,1/2+y,z
1/2+x,1/2-y,1/2+z
loop_
_atom_site_type_symbol
_atom_site_label
_atom_site_fract_x
_atom_site_fract_y
_atom_site_fract_z
Si Si1 0.761832 0.037441 0.898476
Si Si2 0.164255 0.899414 0.650646
Si Si3 0.559594 0.321291 0.644566
Si Si4 0.607328 0.804154 0.002364
Si Si5 0.939547 0.423451 0.857513
Si Si6 0.299023 0.303207 0.025733
Si Si7 0.856265 0.434691 0.353637
O O1 0.703636 0.034505 0.857190
O O2 0.807018 0.983817 0.853649
O O3 0.781750 0.128079 0.904526
O O4 0.756045 0.000000 0.000000
O O5 0.176531 0.863011 0.750000
O O6 0.101557 0.893243 0.639246
O O7 0.185905 0.847872 0.568000
O O8 0.563282 0.290054 0.750000
O O9 0.500000 0.346834 0.629641
O O10 0.575288 0.254668 0.569968
O O11 0.651522 0.751912 0.950774
O O12 0.635916 0.867029 0.070088
O O13 0.573796 0.853366 0.928739
O O14 0.934348 0.399399 0.750000
O O15 0.897942 0.494767 0.872504
O O16 0.000000 0.449917 0.871009
O O17 0.250000 0.250000 0.000000
O O18 0.866543 0.404985 0.250000
#
# Coordination Sequence:
#
# PCOD9471235 Si02
#       7
#    16  16  16  16  16  16  16
#     4  10  19  35  55  75 108 144 181 219 267 322
#     4   9  19  34  54  78 108 142 178 223 271 318
#     4   9  18  33  55  84 112 140 179 226 276 324
#     4  11  20  35  57  79 111 143 182 221 279 327
#     4  10  23  40  55  76 107 145 191 233 268 316
#     4  10  20  35  53  78 111 144 175 220 270 328
#     4  11  22  34  53  80 108 142 181 224 270 326
#
# _framework density 17.950004
#
# number of rings (size 3 to 8) (size 9 to 14) (size 15 to 20)
#    0.000    2.000    1.429    2.571    2.000    2.286 
#    0.000    2.857    0.000   11.571    0.000    2.000 
#    0.000    0.000    0.000    0.000    0.000    0.000 
#
# Total GULP energy -312108.604098 kJ/mol
# GULP energy per Si atom -5573.367930 kJ/mol
# Density = 1.790915 g / cm^3
# Si number density = 17.950004 Si / 1000 Ang^3
#
#
#
# Elastic Constant Matrix: (Units=GPa)
#
#
# Indices 1 2 3 4 5 6 
#
# 1 158.7348 65.8297 35.2855 0.0000 0.0000 0.0000
# 2 65.8297 76.1962 19.9971 0.0000 0.0000 0.0000
# 3 35.2855 19.9971 51.1755 0.0000 0.0000 0.0000
# 4 0.0000 0.0000 0.0000 15.2253 0.0000 0.0000
# 5 0.0000 0.0000 0.0000 0.0000 -6.3011 0.0000
# 6 0.0000 0.0000 0.0000 0.0000 0.0000 28.0555
#
#
#
# Elastic Compliance Matrix: (Units=1/GPa)
#
#
# Indices 1 2 3 4 5 6 
#
# 1 0.010549 -0.008028 -0.004136 0.000000 0.000000 0.000000
# 2 -0.008028 0.020733 -0.002566 0.000000 0.000000 0.000000
# 3 -0.004136 -0.002566 0.023395 0.000000 0.000000 0.000000
# 4 0.000000 0.000000 0.000000 0.065680 0.000000 0.000000
# 5 0.000000 0.000000 0.000000 0.000000 -0.158701 0.000000
# 6 0.000000 0.000000 0.000000 0.000000 0.000000 0.035644
#
#
# Mechanical properties :
#
#
# Convention : Reuss Voigt Hill
#
# Bulk Modulus (GPa) = 39.65725 58.70343 49.18034
# Shear Modulus (GPa) = 142.18231 18.39556 80.28893
#
# Velocity S-wave (km/s) = 8.90967 3.20476 6.69524
# Velocity P-wave (km/s) = 11.31300 6.81680 9.33951
#
# Compressibility (1/GPa) = 0.02521607
#
# Stress axis : x y z
#
# Youngs Moduli (GPa) = 94.79963 48.23173 42.74345
#
# Poissons Ratio (x) = 0.38720 0.17680
# Poissons Ratio (y) = 0.76104 0.10970
# Poissons Ratio (z) = 0.39212 0.12378
#
# Static dielectric constant tensor:
#      x y z
#    x 1.621990 0.000000 0.000000 
#    y 0.000000 1.614110 0.000000 
#    z 0.000000 0.000000 1.636180 
# 
# From -- ./inp_files/36939.got.cif
#   From: 2010.05.17/outbox.cif.g08.bks.cpg/sg63_19_cif.got.tgz:36939.got - 2010.06.03 15:47:04.
