data_PCOD9471868
_publ_section_title
;
Structure prediction by ZEFSAII (Michael W. Deem and Ramdas Pophale) SiO2 
 PCOD9471868
Probable space group: C M C M
;
_chemical_formula_sum "Si O2"
_cell_formula_units_Z 80
_cell_length_a 23.421069
_cell_length_b 18.076777
_cell_length_c 8.892784
_cell_angle_alpha 90.000000
_cell_angle_beta 90.000000
_cell_angle_gamma 90.000000
_cell_volume 3765.004137
_symmetry_space_group_name_H-M "C M C M"
_symmetry_group_IT_number 63
_symmetry_cell_setting 'orthorhombic'
loop_
_space_group_symop_operation_xyz
x,y,z
-x,-y,1/2+z
x,-y,-z
-x,y,1/2-z
-x,-y,-z
x,y,1/2-z
-x,y,z
x,-y,1/2+z
1/2+x,1/2+y,z
1/2-x,1/2-y,1/2+z
1/2+x,1/2-y,-z
1/2-x,1/2+y,1/2-z
1/2-x,1/2-y,-z
1/2+x,1/2+y,1/2-z
1/2-x,1/2+y,z
1/2+x,1/2-y,1/2+z
loop_
_atom_site_type_symbol
_atom_site_label
_atom_site_fract_x
_atom_site_fract_y
_atom_site_fract_z
Si Si1 0.438219 0.116098 0.923089
Si Si2 0.903417 0.075760 0.928343
Si Si3 0.222829 0.924056 0.930596
Si Si4 0.904848 0.219007 0.420573
Si Si5 0.168608 0.331443 0.927957
O O1 0.430605 0.091164 0.750000
O O2 0.500000 0.089029 0.980022
O O3 0.441193 0.205938 0.918508
O O4 0.380017 0.109146 0.017780
O O5 0.903778 0.069670 0.750000
O O6 0.838711 0.084273 0.992027
O O7 0.930238 0.152349 0.984134
O O8 0.926564 0.000000 0.000000
O O9 0.216049 0.930267 0.750000
O O10 0.268854 0.860985 0.963607
O O11 0.246660 0.000000 0.000000
O O12 0.895666 0.193645 0.250000
O O13 0.847220 0.254521 0.490851
O O14 0.162730 0.321788 0.750000
#
# Coordination Sequence:
#
# PCOD9471868 Si02
#       5
#    16  16  16  16  16
#     4   8  16  31  51  73  96 124 156 194 242 290
#     4  11  21  33  50  70  97 130 165 197 236 284
#     4  10  20  33  49  69  98 131 165 197 237 285
#     4   9  18  32  50  72  98 126 159 198 238 283
#     4   9  18  31  48  74  98 124 159 200 240 282
#
# _framework density 21.248315999999999
#
# number of rings (size 3 to 8) (size 9 to 14) (size 15 to 20)
#    1.200    1.400    0.000    4.200    0.000    4.400 
#    0.000    0.000    0.000    1.200    0.000    0.000 
#    0.000    0.000    0.000    0.000    0.000    0.000 
#
# Total GULP energy -222696.065828 kJ/mol
# GULP energy per Si atom -5567.401646 kJ/mol
# Density = 2.119995 g / cm^3
# Si number density = 21.248316 Si / 1000 Ang^3
#
#
#
# Elastic Constant Matrix: (Units=GPa)
#
#
# Indices 1 2 3 4 5 6 
#
# 1 61.4451 2.6816 16.0516 0.0000 0.0000 0.0000
# 2 2.6816 56.9189 19.1601 0.0000 0.0000 0.0000
# 3 16.0516 19.1601 99.0049 0.0000 0.0000 0.0000
# 4 0.0000 0.0000 0.0000 25.9565 0.0000 0.0000
# 5 0.0000 0.0000 0.0000 0.0000 -3.8439 0.0000
# 6 0.0000 0.0000 0.0000 0.0000 0.0000 -30.4253
#
#
#
# Elastic Compliance Matrix: (Units=1/GPa)
#
#
# Indices 1 2 3 4 5 6 
#
# 1 0.016995 0.000136 -0.002782 0.000000 0.000000 0.000000
# 2 0.000136 0.018794 -0.003659 0.000000 0.000000 0.000000
# 3 -0.002782 -0.003659 0.011260 0.000000 0.000000 0.000000
# 4 0.000000 0.000000 0.000000 0.038526 0.000000 0.000000
# 5 0.000000 0.000000 0.000000 0.000000 -0.260153 0.000000
# 6 0.000000 0.000000 0.000000 0.000000 0.000000 -0.032867
#
#
# Mechanical properties :
#
#
# Convention : Reuss Voigt Hill
#
# Bulk Modulus (GPa) = 29.03693 32.57282 30.80487
# Shear Modulus (GPa) = -27.26957 10.30249 -8.48354
#
# Velocity S-wave (km/s) = -3.58631 2.20435 -2.00031
# Velocity P-wave (km/s) = 1.85840 4.67351 3.03217
#
# Compressibility (1/GPa) = 0.03443891
#
# Stress axis : x y z
#
# Youngs Moduli (GPa) = 58.83933 53.20780 88.81262
#
# Poissons Ratio (x) = -0.00722 0.24705
# Poissons Ratio (y) = -0.00798 0.32498
# Poissons Ratio (z) = 0.16367 0.19470
#
# Static dielectric constant tensor:
#      x y z
#    x 1.822400 0.000000 0.000000 
#    y 0.000000 1.848370 0.000000 
#    z 0.000000 0.000000 1.730530 
# 
# From -- ./inp_files/12006.got.cif
#   From: 2010.05.17/outbox.cif.g08.bks.cpg/sg63_7_cif.got.tgz:12006.got - 2010.06.03 15:47:04.
