data_PCOD9471910
_publ_section_title
;
Structure prediction by ZEFSAII (Michael W. Deem and Ramdas Pophale) SiO2 
 PCOD9471910
Probable space group: C M C M
;
_chemical_formula_sum "Si O2"
_cell_formula_units_Z 96
_cell_length_a 14.644973
_cell_length_b 31.886341
_cell_length_c 9.414961
_cell_angle_alpha 90.000000
_cell_angle_beta 90.000000
_cell_angle_gamma 90.000000
_cell_volume 4396.547675
_symmetry_space_group_name_H-M "C M C M"
_symmetry_group_IT_number 63
_symmetry_cell_setting 'orthorhombic'
loop_
_space_group_symop_operation_xyz
x,y,z
-x,-y,1/2+z
x,-y,-z
-x,y,1/2-z
-x,-y,-z
x,y,1/2-z
-x,y,z
x,-y,1/2+z
1/2+x,1/2+y,z
1/2-x,1/2-y,1/2+z
1/2+x,1/2-y,-z
1/2-x,1/2+y,1/2-z
1/2-x,1/2-y,-z
1/2+x,1/2+y,1/2-z
1/2-x,1/2+y,z
1/2+x,1/2-y,1/2+z
loop_
_atom_site_type_symbol
_atom_site_label
_atom_site_fract_x
_atom_site_fract_y
_atom_site_fract_z
Si Si1 0.356255 0.207530 0.088872
Si Si2 0.111848 0.959149 0.411281
Si Si3 0.611669 0.041459 0.086436
Si Si4 0.138237 0.786512 0.911966
Si Si5 0.390212 0.123323 0.911918
Si Si6 0.891937 0.119632 0.410090
O O1 0.390234 0.202295 0.250000
O O2 0.247707 0.215028 0.096900
O O3 0.394269 0.248522 0.009440
O O4 0.370401 0.166067 0.995816
O O5 0.144219 0.961390 0.250000
O O6 0.143172 0.916900 0.489266
O O7 0.000000 0.958758 0.407353
O O8 0.138275 0.000000 0.500000
O O9 0.642903 0.041022 0.250000
O O10 0.500000 0.041574 0.089896
O O11 0.640666 0.083146 0.002461
O O12 0.638925 0.000000 0.000000
O O13 0.103335 0.782982 0.750000
O O14 0.117409 0.833181 0.966413
O O15 0.354390 0.123966 0.750000
O O16 0.500000 0.119998 0.902676
O O17 0.851889 0.118394 0.250000
O O18 0.000000 0.111837 0.396523
#
# Coordination Sequence:
#
# PCOD9471910 Si02
#       6
#    16  16  16  16  16  16
#     4  10  20  34  52  72  96 128 165 204 244 290
#     4   9  16  26  42  66  96 127 158 192 232 279
#     4   9  16  27  45  70 100 131 162 196 237 287
#     4   9  19  35  52  71  97 130 165 199 240 293
#     4  10  20  33  50  73 100 129 163 204 248 292
#     4   9  17  30  49  72  97 125 158 196 237 280
#
# _framework density 21.835315000000001
#
# number of rings (size 3 to 8) (size 9 to 14) (size 15 to 20)
#    0.000    2.667    0.000    2.000    0.000    7.000 
#    0.000    1.667    0.000    1.000    0.000    4.667 
#    0.000    0.000    0.000    0.000    0.000    0.000 
#
# Total GULP energy -268154.219748 kJ/mol
# GULP energy per Si atom -5586.546245 kJ/mol
# Density = 2.178562 g / cm^3
# Si number density = 21.835315 Si / 1000 Ang^3
#
#
#
# Elastic Constant Matrix: (Units=GPa)
#
#
# Indices 1 2 3 4 5 6 
#
# 1 57.9549 -3.5792 7.4181 0.0000 0.0000 0.0000
# 2 -3.5792 249.4374 161.6202 0.0000 0.0000 0.0000
# 3 7.4181 161.6202 212.9492 0.0000 0.0000 0.0000
# 4 0.0000 0.0000 0.0000 35.3177 0.0000 0.0000
# 5 0.0000 0.0000 0.0000 0.0000 13.3117 0.0000
# 6 0.0000 0.0000 0.0000 0.0000 0.0000 25.8420
#
#
#
# Elastic Compliance Matrix: (Units=1/GPa)
#
#
# Indices 1 2 3 4 5 6 
#
# 1 0.017535 0.001274 -0.001578 0.000000 0.000000 0.000000
# 2 0.001274 0.007981 -0.006101 0.000000 0.000000 0.000000
# 3 -0.001578 -0.006101 0.009382 0.000000 0.000000 0.000000
# 4 0.000000 0.000000 0.000000 0.028314 0.000000 0.000000
# 5 0.000000 0.000000 0.000000 0.000000 0.075122 0.000000
# 6 0.000000 0.000000 0.000000 0.000000 0.000000 0.038697
#
#
# Mechanical properties :
#
#
# Convention : Reuss Voigt Hill
#
# Bulk Modulus (GPa) = 45.27491 94.58444 69.92967
# Shear Modulus (GPa) = 25.35454 38.55310 31.95382
#
# Velocity S-wave (km/s) = 3.41129 4.20650 3.82959
# Velocity P-wave (km/s) = 6.02459 8.18560 7.18678
#
# Compressibility (1/GPa) = 0.02208729
#
# Stress axis : x y z
#
# Youngs Moduli (GPa) = 57.02752 125.30398 106.59171
#
# Poissons Ratio (x) = -0.15962 0.16816
# Poissons Ratio (y) = -0.07264 0.65035
# Poissons Ratio (z) = 0.08997 0.76452
#
# Static dielectric constant tensor:
#      x y z
#    x 1.847150 0.000000 0.000000 
#    y 0.000000 1.751290 0.000000 
#    z 0.000000 0.000000 1.777730 
# 
# From -- ./inp_files/10439.got.cif
#   From: 2010.05.17/outbox.cif.g08.bks.cpg/sg63_6_cif.got.tgz:10439.got - 2010.06.03 15:47:04.
