data_PCOD9471428
_publ_section_title
;
Structure prediction by ZEFSAII (Michael W. Deem and Ramdas Pophale) SiO2 
 PCOD9471428
Probable space group: C M C M
;
_chemical_formula_sum "Si O2"
_cell_formula_units_Z 116
_cell_length_a 8.031069
_cell_length_b 24.309259
_cell_length_c 31.093511
_cell_angle_alpha 90.000000
_cell_angle_beta 90.000000
_cell_angle_gamma 90.000000
_cell_volume 6070.365518
_symmetry_space_group_name_H-M "C M C M"
_symmetry_group_IT_number 63
_symmetry_cell_setting 'orthorhombic'
loop_
_space_group_symop_operation_xyz
x,y,z
-x,-y,1/2+z
x,-y,-z
-x,y,1/2-z
-x,-y,-z
x,y,1/2-z
-x,y,z
x,-y,1/2+z
1/2+x,1/2+y,z
1/2-x,1/2-y,1/2+z
1/2+x,1/2-y,-z
1/2-x,1/2+y,1/2-z
1/2-x,1/2-y,-z
1/2+x,1/2+y,1/2-z
1/2-x,1/2+y,z
1/2+x,1/2-y,1/2+z
loop_
_atom_site_type_symbol
_atom_site_label
_atom_site_fract_x
_atom_site_fract_y
_atom_site_fract_z
Si Si1 0.808231 0.853880 0.045432
Si Si2 0.310380 0.906539 0.809503
Si Si3 0.000000 0.938742 0.750000
Si Si4 0.695163 0.175651 0.454323
Si Si5 0.195014 0.732513 0.888251
Si Si6 0.201742 0.218283 0.202208
Si Si7 0.307750 0.573468 0.403530
Si Si8 0.305717 0.976762 0.454247
O O1 0.784615 0.817405 0.087807
O O2 0.713099 0.911488 0.048022
O O3 0.000000 0.867481 0.038757
O O4 0.749672 0.819421 0.003763
O O5 0.500000 0.922377 0.797223
O O6 0.151662 0.935115 0.786688
O O7 0.283867 0.841703 0.800289
O O8 0.290757 0.915420 0.860152
O O9 0.500000 0.186832 0.451278
O O10 0.782704 0.215069 0.419744
O O11 0.734655 0.113232 0.440275
O O12 0.252545 0.747613 0.840000
O O13 0.000000 0.719097 0.885815
O O14 0.236810 0.241678 0.250000
O O15 0.000000 0.210212 0.199621
O O16 0.500000 0.588415 0.397254
O O17 0.290021 0.510637 0.418021
O O18 0.500000 0.991330 0.450347
O O19 0.244816 0.000000 0.500000
#
# Coordination Sequence:
#
# PCOD9471428 Si02
#       8
#    16  16   4  16  16  16  16  16
#     4  12  25  41  59  84 117 160 207 254 304 361
#     4  12  22  36  60  89 126 163 200 249 311 374
#     4  12  22  40  56  90 126 164 198 256 306 390
#     4  12  23  37  58  85 122 161 204 245 297 367
#     4  11  23  38  59  85 122 162 197 248 306 365
#     4  10  19  36  58  87 120 156 199 248 303 366
#     4  12  23  38  59  91 126 161 201 249 305 365
#     4  11  23  40  63  88 116 154 204 255 298 356
#
# _framework density 19.109228999999999
#
# number of rings (size 3 to 8) (size 9 to 14) (size 15 to 20)
#    0.000    0.552    4.828    5.172    0.000    1.103 
#    0.000    0.000    0.000    0.000    1.793    0.000 
#    0.000    0.000    0.000    0.000    0.000    0.000 
#
# Total GULP energy -323591.282377 kJ/mol
# GULP energy per Si atom -5579.160041 kJ/mol
# Density = 1.906574 g / cm^3
# Si number density = 19.109229 Si / 1000 Ang^3
#
#
#
# Elastic Constant Matrix: (Units=GPa)
#
#
# Indices 1 2 3 4 5 6 
#
# 1 96.1404 -10.3255 17.1871 0.0000 0.0000 0.0000
# 2 -10.3255 57.9456 29.8775 0.0000 0.0000 0.0000
# 3 17.1871 29.8775 136.3973 0.0000 0.0000 0.0000
# 4 0.0000 0.0000 0.0000 20.3842 0.0000 0.0000
# 5 0.0000 0.0000 0.0000 0.0000 19.3869 0.0000
# 6 0.0000 0.0000 0.0000 0.0000 0.0000 24.5408
#
#
#
# Elastic Compliance Matrix: (Units=1/GPa)
#
#
# Indices 1 2 3 4 5 6 
#
# 1 0.011097 0.003042 -0.002065 0.000000 0.000000 0.000000
# 2 0.003042 0.020289 -0.004828 0.000000 0.000000 0.000000
# 3 -0.002065 -0.004828 0.008649 0.000000 0.000000 0.000000
# 4 0.000000 0.000000 0.000000 0.049057 0.000000 0.000000
# 5 0.000000 0.000000 0.000000 0.000000 0.051581 0.000000
# 6 0.000000 0.000000 0.000000 0.000000 0.000000 0.040748
#
#
# Mechanical properties :
#
#
# Convention : Reuss Voigt Hill
#
# Bulk Modulus (GPa) = 30.92639 40.44017 35.68328
# Shear Modulus (GPa) = 25.01239 29.77867 27.39553
#
# Velocity S-wave (km/s) = 3.62182 3.95186 3.79044
# Velocity P-wave (km/s) = 5.80597 6.48317 6.15389
#
# Compressibility (1/GPa) = 0.03233484
#
# Stress axis : x y z
#
# Youngs Moduli (GPa) = 90.11217 49.28830 115.61828
#
# Poissons Ratio (x) = -0.14994 0.23872
# Poissons Ratio (y) = -0.27412 0.55815
# Poissons Ratio (z) = 0.18605 0.23794
#
# Static dielectric constant tensor:
#      x y z
#    x 1.667240 0.000000 0.000000 
#    y 0.000000 1.667520 0.000000 
#    z 0.000000 0.000000 1.669060 
# 
# From -- ./inp_files/72097.got.cif
#   From: 2010.05.17/outbox.cif.g08.bks.cpg/sg63_37_cif.got.tgz:72097.got - 2010.06.03 15:47:04.
