data_PCOD9471521
_publ_section_title
;
Structure prediction by ZEFSAII (Michael W. Deem and Ramdas Pophale) SiO2 
 PCOD9471521
Probable space group: C M C M
;
_chemical_formula_sum "Si O2"
_cell_formula_units_Z 84
_cell_length_a 16.505865
_cell_length_b 12.424703
_cell_length_c 22.543774
_cell_angle_alpha 90.000000
_cell_angle_beta 90.000000
_cell_angle_gamma 90.000000
_cell_volume 4623.287776
_symmetry_space_group_name_H-M "C M C M"
_symmetry_group_IT_number 63
_symmetry_cell_setting 'orthorhombic'
loop_
_space_group_symop_operation_xyz
x,y,z
-x,-y,1/2+z
x,-y,-z
-x,y,1/2-z
-x,-y,-z
x,y,1/2-z
-x,y,z
x,-y,1/2+z
1/2+x,1/2+y,z
1/2-x,1/2-y,1/2+z
1/2+x,1/2-y,-z
1/2-x,1/2+y,1/2-z
1/2-x,1/2-y,-z
1/2+x,1/2+y,1/2-z
1/2-x,1/2+y,z
1/2+x,1/2-y,1/2+z
loop_
_atom_site_type_symbol
_atom_site_label
_atom_site_fract_x
_atom_site_fract_y
_atom_site_fract_z
Si Si1 0.173930 0.263103 0.682018
Si Si2 0.000000 0.756157 0.750000
Si Si3 0.402321 0.091742 0.082315
Si Si4 0.858153 0.799804 0.653355
Si Si5 0.404754 0.534876 0.821503
Si Si6 0.597673 0.849070 0.451395
O O1 0.147990 0.282581 0.750000
O O2 0.137384 0.350909 0.637925
O O3 0.270498 0.268828 0.678084
O O4 0.140745 0.145282 0.664646
O O5 0.071015 0.761469 0.802141
O O6 0.500000 0.098179 0.086941
O O7 0.380936 0.965914 0.075935
O O8 0.377725 0.148369 0.020351
O O9 0.868280 0.743942 0.589762
O O10 0.867151 0.928793 0.649779
O O11 0.400496 0.517867 0.750000
O O12 0.500000 0.542832 0.836526
O O13 0.500000 0.842247 0.450670
#
# Coordination Sequence:
#
# PCOD9471521 Si02
#       6
#    16   4  16  16  16  16
#     4  11  24  36  57  91 123 156 198 255 299 358
#     4  12  20  40  60  90 122 156 202 254 298 358
#     4   9  20  41  60  86 120 161 199 244 316 370
#     4  12  21  38  61  90 115 160 207 249 296 360
#     4  10  19  37  58  80 121 163 191 233 307 366
#     4   9  19  38  65  83 115 161 203 250 301 365
#
# _framework density 18.168887999999999
#
# number of rings (size 3 to 8) (size 9 to 14) (size 15 to 20)
#    0.000    1.714    3.810    1.714    2.667    1.905 
#    1.714    0.952    0.000    3.429    0.000    0.000 
#    0.000    0.000    0.000    0.000    0.000    0.000 
#
# Total GULP energy -233910.182006 kJ/mol
# GULP energy per Si atom -5569.290048 kJ/mol
# Density = 1.812753 g / cm^3
# Si number density = 18.168888 Si / 1000 Ang^3
#
#
#
# Elastic Constant Matrix: (Units=GPa)
#
#
# Indices 1 2 3 4 5 6 
#
# 1 70.7976 49.3958 25.8336 0.0000 0.0000 0.0000
# 2 49.3958 90.7769 57.8216 0.0000 0.0000 0.0000
# 3 25.8336 57.8216 90.9330 0.0000 0.0000 0.0000
# 4 0.0000 0.0000 0.0000 38.5530 0.0000 0.0000
# 5 0.0000 0.0000 0.0000 0.0000 20.1511 0.0000
# 6 0.0000 0.0000 0.0000 0.0000 0.0000 47.0841
#
#
#
# Elastic Compliance Matrix: (Units=1/GPa)
#
#
# Indices 1 2 3 4 5 6 
#
# 1 0.023077 -0.014087 0.002401 0.000000 0.000000 0.000000
# 2 -0.014087 0.027114 -0.013239 0.000000 0.000000 0.000000
# 3 0.002401 -0.013239 0.018733 0.000000 0.000000 0.000000
# 4 0.000000 0.000000 0.000000 0.025938 0.000000 0.000000
# 5 0.000000 0.000000 0.000000 0.000000 0.049625 0.000000
# 6 0.000000 0.000000 0.000000 0.000000 0.000000 0.021239
#
#
# Mechanical properties :
#
#
# Convention : Reuss Voigt Hill
#
# Bulk Modulus (GPa) = 52.42400 57.62327 55.02364
# Shear Modulus (GPa) = 22.52929 29.12142 25.82535
#
# Velocity S-wave (km/s) = 3.52517 4.00786 3.77424
# Velocity P-wave (km/s) = 6.74429 7.29394 7.02449
#
# Compressibility (1/GPa) = 0.01907523
#
# Stress axis : x y z
#
# Youngs Moduli (GPa) = 43.33331 36.88130 53.38116
#
# Poissons Ratio (x) = 0.51954 -0.12818
# Poissons Ratio (y) = 0.61042 0.70671
# Poissons Ratio (z) = -0.10406 0.48827
#
# Static dielectric constant tensor:
#      x y z
#    x 1.609920 0.000000 0.000000 
#    y 0.000000 1.620320 0.000000 
#    z 0.000000 0.000000 1.618250 
# 
# From -- ./inp_files/63641.got.cif
#   From: 2010.05.17/outbox.cif.g08.bks.cpg/sg63_32_cif.got.tgz:63641.got - 2010.06.03 15:47:04.
