data_PCOD9471261
_publ_section_title
;
Structure prediction by ZEFSAII (Michael W. Deem and Ramdas Pophale) SiO2 
 PCOD9471261
Probable space group: C M C M
;
_chemical_formula_sum "Si O2"
_cell_formula_units_Z 68
_cell_length_a 16.336609
_cell_length_b 6.943224
_cell_length_c 23.131039
_cell_angle_alpha 90.000000
_cell_angle_beta 90.000000
_cell_angle_gamma 90.000000
_cell_volume 2623.724509
_symmetry_space_group_name_H-M "C M C M"
_symmetry_group_IT_number 63
_symmetry_cell_setting 'orthorhombic'
loop_
_space_group_symop_operation_xyz
x,y,z
-x,-y,1/2+z
x,-y,-z
-x,y,1/2-z
-x,-y,-z
x,y,1/2-z
-x,y,z
x,-y,1/2+z
1/2+x,1/2+y,z
1/2-x,1/2-y,1/2+z
1/2+x,1/2-y,-z
1/2-x,1/2+y,1/2-z
1/2-x,1/2-y,-z
1/2+x,1/2+y,1/2-z
1/2-x,1/2+y,z
1/2+x,1/2-y,1/2+z
loop_
_atom_site_type_symbol
_atom_site_label
_atom_site_fract_x
_atom_site_fract_y
_atom_site_fract_z
Si Si1 0.337315 0.749283 0.465973
Si Si2 0.500000 0.469229 0.750000
Si Si3 0.168958 0.417297 0.687177
Si Si4 0.405824 0.842170 0.924206
Si Si5 0.644279 0.636425 0.162621
O O1 0.250000 0.750000 0.500000
O O2 0.398439 0.712336 0.519065
O O3 0.348224 0.626164 0.407704
O O4 0.358945 0.962231 0.442558
O O5 0.428754 0.455183 0.698652
O O6 0.140514 0.351405 0.750000
O O7 0.138458 0.284999 0.634723
O O8 0.266607 0.425455 0.685023
O O9 0.136544 0.633577 0.677261
O O10 0.500000 0.883775 0.911999
#
# Coordination Sequence:
#
# PCOD9471261 Si02
#       5
#    16   4  16  16  16
#     4  10  19  35  56  87 119 159 193 252 311 360
#     4  12  24  40  64 100 116 164 210 268 294 376
#     4  11  21  39  61  91 124 163 201 256 305 377
#     4  10  22  35  58  91 122 156 210 258 303 355
#     4  11  24  38  65  89 125 155 210 248 316 362
#
# _framework density 25.917356000000002
#
# number of rings (size 3 to 8) (size 9 to 14) (size 15 to 20)
#    0.000    1.412    4.706    1.412    8.235    0.471 
#    0.000    0.000    2.588    1.412    0.000   11.529 
#    0.000    0.000    0.000    0.000    0.000    0.000 
#
# Total GULP energy -189715.571683 kJ/mol
# GULP energy per Si atom -5579.869755 kJ/mol
# Density = 2.585837 g / cm^3
# Si number density = 25.917356 Si / 1000 Ang^3
#
#
#
# Elastic Constant Matrix: (Units=GPa)
#
#
# Indices 1 2 3 4 5 6 
#
# 1 181.0649 15.3911 87.6167 0.0000 0.0000 0.0000
# 2 15.3911 84.5106 42.0846 0.0000 0.0000 0.0000
# 3 87.6167 42.0846 304.3349 0.0000 0.0000 0.0000
# 4 0.0000 0.0000 0.0000 37.9467 0.0000 0.0000
# 5 0.0000 0.0000 0.0000 0.0000 53.5643 0.0000
# 6 0.0000 0.0000 0.0000 0.0000 0.0000 -1.4934
#
#
#
# Elastic Compliance Matrix: (Units=1/GPa)
#
#
# Indices 1 2 3 4 5 6 
#
# 1 0.006422 -0.000267 -0.001812 0.000000 0.000000 0.000000
# 2 -0.000267 0.012719 -0.001682 0.000000 0.000000 0.000000
# 3 -0.001812 -0.001682 0.004040 0.000000 0.000000 0.000000
# 4 0.000000 0.000000 0.000000 0.026353 0.000000 0.000000
# 5 0.000000 0.000000 0.000000 0.000000 0.018669 0.000000
# 6 0.000000 0.000000 0.000000 0.000000 0.000000 -0.669609
#
#
# Mechanical properties :
#
#
# Convention : Reuss Voigt Hill
#
# Bulk Modulus (GPa) = 63.86030 95.56613 79.71321
# Shear Modulus (GPa) = -8.49381 46.32471 18.91545
#
# Velocity S-wave (km/s) = -1.81229 4.23235 2.70448
# Velocity P-wave (km/s) = 4.50714 7.79982 6.36991
#
# Compressibility (1/GPa) = 0.01565918
#
# Stress axis : x y z
#
# Youngs Moduli (GPa) = 155.70411 78.62211 247.51817
#
# Poissons Ratio (x) = 0.02102 0.44851
# Poissons Ratio (y) = 0.04162 0.41630
# Poissons Ratio (z) = 0.28214 0.13223
#
# Static dielectric constant tensor:
#      x y z
#    x 1.953750 0.000000 0.000000 
#    y 0.000000 2.207360 0.000000 
#    z 0.000000 0.000000 2.106510 
# 
# From -- ./inp_files/62484.got.cif
#   From: 2010.05.17/outbox.cif.g08.bks.cpg/sg63_32_cif.got.tgz:62484.got - 2010.06.03 15:47:04.
