data_PCOD9471740
_publ_section_title
;
Structure prediction by ZEFSAII (Michael W. Deem and Ramdas Pophale) SiO2 
 PCOD9471740
Probable space group: C M C M
;
_chemical_formula_sum "Si O2"
_cell_formula_units_Z 72
_cell_length_a 22.933124
_cell_length_b 19.986573
_cell_length_c 7.641721
_cell_angle_alpha 90.000000
_cell_angle_beta 90.000000
_cell_angle_gamma 90.000000
_cell_volume 3502.617643
_symmetry_space_group_name_H-M "C M C M"
_symmetry_group_IT_number 63
_symmetry_cell_setting 'orthorhombic'
loop_
_space_group_symop_operation_xyz
x,y,z
-x,-y,1/2+z
x,-y,-z
-x,y,1/2-z
-x,-y,-z
x,y,1/2-z
-x,y,z
x,-y,1/2+z
1/2+x,1/2+y,z
1/2-x,1/2-y,1/2+z
1/2+x,1/2-y,-z
1/2-x,1/2+y,1/2-z
1/2-x,1/2-y,-z
1/2+x,1/2+y,1/2-z
1/2-x,1/2+y,z
1/2+x,1/2-y,1/2+z
loop_
_atom_site_type_symbol
_atom_site_label
_atom_site_fract_x
_atom_site_fract_y
_atom_site_fract_z
Si Si1 0.144770 0.576151 0.539622
Si Si2 0.113335 0.841965 0.460491
Si Si3 0.933696 0.302571 0.460250
Si Si4 0.000000 0.078264 0.960182
Si Si5 0.776975 0.923521 0.460196
O O1 0.127248 0.500000 0.500000
O O2 0.146892 0.582253 0.750000
O O3 0.100504 0.632272 0.473230
O O4 0.211040 0.586378 0.472567
O O5 0.114268 0.848731 0.250000
O O6 0.101557 0.764881 0.501033
O O7 0.058148 0.884963 0.526721
O O8 0.174016 0.872712 0.526903
O O9 0.937293 0.308261 0.250000
O O10 0.000000 0.297088 0.527789
O O11 0.000000 0.085602 0.750000
O O12 0.000000 0.000000 0.000000
O O13 0.774365 0.916933 0.250000
O O14 0.794398 0.000000 0.500000
#
# Coordination Sequence:
#
# PCOD9471740 Si02
#       5
#    16  16  16   8  16
#     4   9  19  36  55  77 103 131 168 212 258 307
#     4  10  20  34  51  74 104 136 170 209 253 301
#     4  10  21  36  53  74 103 137 172 212 255 302
#     4  10  20  32  48  72 101 132 169 208 243 290
#     4   9  18  33  53  76 104 135 168 210 255 302
#
# _framework density 20.556052999999999
#
# number of rings (size 3 to 8) (size 9 to 14) (size 15 to 20)
#    0.000    2.444    1.111    0.667    0.000    4.000 
#    0.000    0.000    0.000    0.000    0.000    0.000 
#    0.000    0.000    0.000    0.000    0.000    0.000 
#
# Total GULP energy -200991.023860 kJ/mol
# GULP energy per Si atom -5583.083996 kJ/mol
# Density = 2.050927 g / cm^3
# Si number density = 20.556053 Si / 1000 Ang^3
#
#
#
# Elastic Constant Matrix: (Units=GPa)
#
#
# Indices 1 2 3 4 5 6 
#
# 1 102.2773 96.9703 2.7164 0.0000 0.0000 0.0000
# 2 96.9703 170.8317 -9.4855 0.0000 0.0000 0.0000
# 3 2.7164 -9.4855 37.6669 0.0000 0.0000 0.0000
# 4 0.0000 0.0000 0.0000 24.1813 0.0000 0.0000
# 5 0.0000 0.0000 0.0000 0.0000 -28.1070 0.0000
# 6 0.0000 0.0000 0.0000 0.0000 0.0000 -76.1516
#
#
#
# Elastic Compliance Matrix: (Units=1/GPa)
#
#
# Indices 1 2 3 4 5 6 
#
# 1 0.021994 -0.012751 -0.004797 0.000000 0.000000 0.000000
# 2 -0.012751 0.013329 0.004276 0.000000 0.000000 0.000000
# 3 -0.004797 0.004276 0.027971 0.000000 0.000000 0.000000
# 4 0.000000 0.000000 0.000000 0.041354 0.000000 0.000000
# 5 0.000000 0.000000 0.000000 0.000000 -0.035578 0.000000
# 6 0.000000 0.000000 0.000000 0.000000 0.000000 -0.013132
#
#
# Mechanical properties :
#
#
# Convention : Reuss Voigt Hill
#
# Bulk Modulus (GPa) = 27.21054 54.57538 40.89296
# Shear Modulus (GPa) = 52.77983 -1.31046 25.73469
#
# Velocity S-wave (km/s) = 5.07265 -0.79931 3.54210
# Velocity P-wave (km/s) = 6.89747 5.07497 6.05518
#
# Compressibility (1/GPa) = 0.03675046
#
# Stress axis : x y z
#
# Youngs Moduli (GPa) = 45.46657 75.02370 35.75090
#
# Poissons Ratio (x) = 0.95663 0.17150
# Poissons Ratio (y) = 0.57975 -0.15288
# Poissons Ratio (z) = 0.21811 -0.32082
#
# Static dielectric constant tensor:
#      x y z
#    x 1.750930 0.000000 0.000000 
#    y 0.000000 1.679890 0.000000 
#    z 0.000000 0.000000 1.769970 
# 
# From -- ./inp_files/7795.got.cif
#   From: 2010.05.17/outbox.cif.g08.bks.cpg/sg63_4_cif.got.tgz:7795.got - 2010.06.03 15:47:04.
