data_PCOD9471280
_publ_section_title
;
Structure prediction by ZEFSAII (Michael W. Deem and Ramdas Pophale) SiO2 
 PCOD9471280
Probable space group: C M C M
;
_chemical_formula_sum "Si O2"
_cell_formula_units_Z 96
_cell_length_a 12.334343
_cell_length_b 22.970014
_cell_length_c 19.778058
_cell_angle_alpha 90.000000
_cell_angle_beta 90.000000
_cell_angle_gamma 90.000000
_cell_volume 5603.520013
_symmetry_space_group_name_H-M "C M C M"
_symmetry_group_IT_number 63
_symmetry_cell_setting 'orthorhombic'
loop_
_space_group_symop_operation_xyz
x,y,z
-x,-y,1/2+z
x,-y,-z
-x,y,1/2-z
-x,-y,-z
x,y,1/2-z
-x,y,z
x,-y,1/2+z
1/2+x,1/2+y,z
1/2-x,1/2-y,1/2+z
1/2+x,1/2-y,-z
1/2-x,1/2+y,1/2-z
1/2-x,1/2-y,-z
1/2+x,1/2+y,1/2-z
1/2-x,1/2+y,z
1/2+x,1/2-y,1/2+z
loop_
_atom_site_type_symbol
_atom_site_label
_atom_site_fract_x
_atom_site_fract_y
_atom_site_fract_z
Si Si1 0.876448 0.062292 0.536518
Si Si2 0.235185 0.033732 0.826258
Si Si3 0.126122 0.649957 0.673833
Si Si4 0.869788 0.585772 0.329302
Si Si5 0.874975 0.733670 0.938263
Si Si6 0.771862 0.345700 0.956099
O O1 0.848498 0.047677 0.614295
O O2 0.788458 0.104883 0.501312
O O3 0.000000 0.085284 0.530107
O O4 0.871228 0.000000 0.500000
O O5 0.188660 0.030472 0.750000
O O6 0.316451 0.088238 0.828627
O O7 0.305221 0.975243 0.837514
O O8 0.132240 0.672360 0.750000
O O9 0.174786 0.696757 0.623287
O O10 0.000000 0.641391 0.656119
O O11 0.854343 0.603970 0.250000
O O12 0.820221 0.627821 0.386957
O O13 0.000000 0.578706 0.339205
O O14 0.815045 0.794521 0.944958
O O15 0.000000 0.745493 0.925161
O O16 0.861848 0.689478 0.001091
#
# Coordination Sequence:
#
# PCOD9471280 Si02
#       6
#    16  16  16  16  16  16
#     4  11  22  37  56  80 111 146 185 229 276 324
#     4  10  19  35  57  83 113 144 179 219 272 329
#     4   9  17  31  53  81 111 140 172 215 268 322
#     4  10  21  37  58  84 113 142 176 224 278 330
#     4  10  21  35  55  80 107 142 185 229 269 317
#     4  11  21  37  56  80 108 146 184 226 277 328
#
# _framework density 17.132088
#
# number of rings (size 3 to 8) (size 9 to 14) (size 15 to 20)
#    0.000    1.833    3.333    1.500    0.000    3.000 
#    0.000    0.833    0.000    1.500    0.000    0.000 
#    0.000    0.000    0.000    0.000    0.000    0.000 
#
# Total GULP energy -267350.670530 kJ/mol
# GULP energy per Si atom -5569.805636 kJ/mol
# Density = 1.709310 g / cm^3
# Si number density = 17.132088 Si / 1000 Ang^3
#
#
#
# Elastic Constant Matrix: (Units=GPa)
#
#
# Indices 1 2 3 4 5 6 
#
# 1 44.1914 13.8676 22.7478 0.0000 0.0000 0.0000
# 2 13.8676 79.6437 42.3487 0.0000 0.0000 0.0000
# 3 22.7478 42.3487 97.6505 0.0000 0.0000 0.0000
# 4 0.0000 0.0000 0.0000 27.0137 0.0000 0.0000
# 5 0.0000 0.0000 0.0000 0.0000 25.6487 0.0000
# 6 0.0000 0.0000 0.0000 0.0000 0.0000 19.8116
#
#
#
# Elastic Compliance Matrix: (Units=1/GPa)
#
#
# Indices 1 2 3 4 5 6 
#
# 1 0.025886 -0.001691 -0.005297 0.000000 0.000000 0.000000
# 2 -0.001691 0.016429 -0.006731 0.000000 0.000000 0.000000
# 3 -0.005297 -0.006731 0.014394 0.000000 0.000000 0.000000
# 4 0.000000 0.000000 0.000000 0.037018 0.000000 0.000000
# 5 0.000000 0.000000 0.000000 0.000000 0.038988 0.000000
# 6 0.000000 0.000000 0.000000 0.000000 0.000000 0.050475
#
#
# Mechanical properties :
#
#
# Convention : Reuss Voigt Hill
#
# Bulk Modulus (GPa) = 34.16308 42.15712 38.16010
# Shear Modulus (GPa) = 22.68744 23.99623 23.34183
#
# Velocity S-wave (km/s) = 3.64299 3.74660 3.69516
# Velocity P-wave (km/s) = 6.13836 6.58609 6.36616
#
# Compressibility (1/GPa) = 0.02927136
#
# Stress axis : x y z
#
# Youngs Moduli (GPa) = 38.63087 60.86613 69.47480
#
# Poissons Ratio (x) = 0.10291 0.36800
# Poissons Ratio (y) = 0.06532 0.46765
# Poissons Ratio (z) = 0.20463 0.40970
#
# Static dielectric constant tensor:
#      x y z
#    x 1.573360 0.000000 0.000000 
#    y 0.000000 1.552760 0.000000 
#    z 0.000000 0.000000 1.620040 
# 
# From -- ./inp_files/42495.got.cif
#   From: 2010.05.17/outbox.cif.g08.bks.cpg/sg63_22_cif.got.tgz:42495.got - 2010.06.03 15:47:04.
