data_PCOD9471116
_publ_section_title
;
Structure prediction by ZEFSAII (Michael W. Deem and Ramdas Pophale) SiO2 
 PCOD9471116
Probable space group: C M C M
;
_chemical_formula_sum "Si O2"
_cell_formula_units_Z 80
_cell_length_a 15.641052
_cell_length_b 12.569991
_cell_length_c 18.388922
_cell_angle_alpha 90.000000
_cell_angle_beta 90.000000
_cell_angle_gamma 90.000000
_cell_volume 3615.407023
_symmetry_space_group_name_H-M "C M C M"
_symmetry_group_IT_number 63
_symmetry_cell_setting 'orthorhombic'
loop_
_space_group_symop_operation_xyz
x,y,z
-x,-y,1/2+z
x,-y,-z
-x,y,1/2-z
-x,-y,-z
x,y,1/2-z
-x,y,z
x,-y,1/2+z
1/2+x,1/2+y,z
1/2-x,1/2-y,1/2+z
1/2+x,1/2-y,-z
1/2-x,1/2+y,1/2-z
1/2-x,1/2-y,-z
1/2+x,1/2+y,1/2-z
1/2-x,1/2+y,z
1/2+x,1/2-y,1/2+z
loop_
_atom_site_type_symbol
_atom_site_label
_atom_site_fract_x
_atom_site_fract_y
_atom_site_fract_z
Si Si1 0.134241 0.149231 0.980725
Si Si2 0.407963 0.518697 0.376673
Si Si3 0.741545 0.661845 0.169173
Si Si4 0.823178 0.658057 0.558651
Si Si5 0.900335 0.483079 0.835323
O O1 0.093782 0.087128 0.048490
O O2 0.124758 0.273354 0.999394
O O3 0.235617 0.120260 0.978949
O O4 0.101035 0.101873 0.905203
O O5 0.500000 0.534960 0.340754
O O6 0.326111 0.563970 0.335356
O O7 0.739826 0.706773 0.250000
O O8 0.710773 0.752090 0.114624
O O9 0.834540 0.613701 0.154657
O O10 0.872966 0.571238 0.605144
O O11 0.889078 0.518895 0.750000
O O12 0.000000 0.456729 0.844237
#
# Coordination Sequence:
#
# PCOD9471116 Si02
#       5
#    16  16  16  16  16
#     4   9  18  32  52  81 115 141 180 225 283 334
#     4  10  19  34  57  81 112 150 183 225 285 342
#     4  10  21  37  58  83 116 149 187 240 290 334
#     4  10  19  34  58  82 109 152 186 231 281 344
#     4  10  21  38  59  83 112 150 195 241 289 340
#
# _framework density 22.127523
#
# number of rings (size 3 to 8) (size 9 to 14) (size 15 to 20)
#    0.000    2.200    2.000    1.800    0.000    4.400 
#    0.000    2.000    0.000   18.000    0.000    0.000 
#    0.000    0.000    0.000    0.000    0.000    0.000 
#
# Total GULP energy -223212.509994 kJ/mol
# GULP energy per Si atom -5580.312750 kJ/mol
# Density = 2.207716 g / cm^3
# Si number density = 22.127523 Si / 1000 Ang^3
#
#
#
# Elastic Constant Matrix: (Units=GPa)
#
#
# Indices 1 2 3 4 5 6 
#
# 1 127.8644 14.5940 19.2507 0.0000 0.0000 0.0000
# 2 14.5940 39.9003 20.3454 0.0000 0.0000 0.0000
# 3 19.2507 20.3454 71.3930 0.0000 0.0000 0.0000
# 4 0.0000 0.0000 0.0000 27.8033 0.0000 0.0000
# 5 0.0000 0.0000 0.0000 0.0000 21.4782 0.0000
# 6 0.0000 0.0000 0.0000 0.0000 0.0000 -213.4028
#
#
#
# Elastic Compliance Matrix: (Units=1/GPa)
#
#
# Indices 1 2 3 4 5 6 
#
# 1 0.008317 -0.002221 -0.001610 0.000000 0.000000 0.000000
# 2 -0.002221 0.029917 -0.007927 0.000000 0.000000 0.000000
# 3 -0.001610 -0.007927 0.016700 0.000000 0.000000 0.000000
# 4 0.000000 0.000000 0.000000 0.035967 0.000000 0.000000
# 5 0.000000 0.000000 0.000000 0.000000 0.046559 0.000000
# 6 0.000000 0.000000 0.000000 0.000000 0.000000 -0.004686
#
#
# Mechanical properties :
#
#
# Convention : Reuss Voigt Hill
#
# Bulk Modulus (GPa) = 31.82843 38.61534 35.22189
# Shear Modulus (GPa) = 29.98305 -20.49310 4.74498
#
# Velocity S-wave (km/s) = 3.68504 -3.04655 1.46596
# Velocity P-wave (km/s) = 5.70275 2.26139 4.33793
#
# Compressibility (1/GPa) = 0.03141845
#
# Stress axis : x y z
#
# Youngs Moduli (GPa) = 120.24098 33.42608 59.88052
#
# Poissons Ratio (x) = 0.07425 0.09638
# Poissons Ratio (y) = 0.26708 0.47465
# Poissons Ratio (z) = 0.19353 0.26496
#
# Static dielectric constant tensor:
#      x y z
#    x 1.827920 0.000000 0.000000 
#    y 0.000000 1.856040 0.000000 
#    z 0.000000 0.000000 1.849270 
# 
# From -- ./inp_files/54001.got.cif
#   From: 2010.05.17/outbox.cif.g08.bks.cpg/sg63_28_cif.got.tgz:54001.got - 2010.06.03 15:47:04.
