data_PCOD9471950
_publ_section_title
;
Structure prediction by ZEFSAII (Michael W. Deem and Ramdas Pophale) SiO2 
 PCOD9471950
Probable space group: C M C M
;
_chemical_formula_sum "Si O2"
_cell_formula_units_Z 96
_cell_length_a 25.950847
_cell_length_b 9.125181
_cell_length_c 23.164654
_cell_angle_alpha 90.000000
_cell_angle_beta 90.000000
_cell_angle_gamma 90.000000
_cell_volume 5485.533132
_symmetry_space_group_name_H-M "C M C M"
_symmetry_group_IT_number 63
_symmetry_cell_setting 'orthorhombic'
loop_
_space_group_symop_operation_xyz
x,y,z
-x,-y,1/2+z
x,-y,-z
-x,y,1/2-z
-x,-y,-z
x,y,1/2-z
-x,y,z
x,-y,1/2+z
1/2+x,1/2+y,z
1/2-x,1/2-y,1/2+z
1/2+x,1/2-y,-z
1/2-x,1/2+y,1/2-z
1/2-x,1/2-y,-z
1/2+x,1/2+y,1/2-z
1/2-x,1/2+y,z
1/2+x,1/2-y,1/2+z
loop_
_atom_site_type_symbol
_atom_site_label
_atom_site_fract_x
_atom_site_fract_y
_atom_site_fract_z
Si Si1 0.275111 0.138489 0.318611
Si Si2 0.364370 0.909821 0.318207
Si Si3 0.060776 0.329891 0.681153
Si Si4 0.147531 0.823354 0.384231
Si Si5 0.306300 0.175892 0.497169
Si Si6 0.331247 0.342423 0.611061
O O1 0.263294 0.136843 0.250000
O O2 0.311095 0.276987 0.334819
O O3 0.225088 0.146411 0.358708
O O4 0.311374 0.997977 0.333293
O O5 0.363290 0.895882 0.250000
O O6 0.365760 0.751032 0.345441
O O7 0.411774 0.015444 0.333268
O O8 0.069777 0.303844 0.750000
O O9 0.092285 0.216152 0.642267
O O10 0.000000 0.330591 0.671192
O O11 0.164126 0.727433 0.439657
O O12 0.151786 0.992628 0.399702
O O13 0.250000 0.250000 0.500000
O O14 0.331966 0.245461 0.553564
O O15 0.302592 0.000000 0.500000
#
# Coordination Sequence:
#
# PCOD9471950 Si02
#       6
#    16  16  16  16  16  16
#     4  10  20  33  50  76 114 156 187 220 273 343
#     4   9  19  34  53  80 111 148 191 230 279 341
#     4   9  19  39  64  85 110 149 194 240 290 340
#     4  11  22  36  56  83 114 150 191 237 286 339
#     4  12  24  38  55  79 113 155 198 233 276 338
#     4  12  22  33  53  81 117 151 187 232 281 341
#
# _framework density 17.500578000000001
#
# number of rings (size 3 to 8) (size 9 to 14) (size 15 to 20)
#    0.000    1.500    1.667    6.500    0.000    4.000 
#    0.000    0.833    0.000    8.500    0.000    0.000 
#    0.000    0.000    0.000    0.000    0.000    0.000 
#
# Total GULP energy -267939.866296 kJ/mol
# GULP energy per Si atom -5582.080548 kJ/mol
# Density = 1.746075 g / cm^3
# Si number density = 17.500578 Si / 1000 Ang^3
#
#
#
# Elastic Constant Matrix: (Units=GPa)
#
#
# Indices 1 2 3 4 5 6 
#
# 1 98.5157 38.1779 46.3763 0.0000 0.0000 0.0000
# 2 38.1779 156.4156 44.5737 0.0000 0.0000 0.0000
# 3 46.3763 44.5737 73.2958 0.0000 0.0000 0.0000
# 4 0.0000 0.0000 0.0000 27.8553 0.0000 0.0000
# 5 0.0000 0.0000 0.0000 0.0000 18.1677 0.0000
# 6 0.0000 0.0000 0.0000 0.0000 0.0000 5.2387
#
#
#
# Elastic Compliance Matrix: (Units=1/GPa)
#
#
# Indices 1 2 3 4 5 6 
#
# 1 0.014619 -0.001128 -0.008564 0.000000 0.000000 0.000000
# 2 -0.001128 0.007820 -0.004042 0.000000 0.000000 0.000000
# 3 -0.008564 -0.004042 0.021520 0.000000 0.000000 0.000000
# 4 0.000000 0.000000 0.000000 0.035900 0.000000 0.000000
# 5 0.000000 0.000000 0.000000 0.000000 0.055043 0.000000
# 6 0.000000 0.000000 0.000000 0.000000 0.000000 0.190887
#
#
# Mechanical properties :
#
#
# Convention : Reuss Voigt Hill
#
# Bulk Modulus (GPa) = 60.63689 65.16478 62.90084
# Shear Modulus (GPa) = 13.93708 23.52561 18.73135
#
# Velocity S-wave (km/s) = 2.82508 3.67042 3.27514
# Velocity P-wave (km/s) = 6.73537 7.43500 7.09381
#
# Compressibility (1/GPa) = 0.01649161
#
# Stress axis : x y z
#
# Youngs Moduli (GPa) = 68.40267 127.87036 46.46741
#
# Poissons Ratio (x) = 0.14420 0.39796
# Poissons Ratio (y) = 0.07714 0.18784
# Poissons Ratio (z) = 0.58582 0.51689
#
# Static dielectric constant tensor:
#      x y z
#    x 1.587180 0.000000 0.000000 
#    y 0.000000 1.617310 0.000000 
#    z 0.000000 0.000000 1.663680 
# 
# From -- ./inp_files/64928.got.cif
#   From: 2010.05.17/outbox.cif.g08.bks.cpg/sg63_33_cif.got.tgz:64928.got - 2010.06.03 15:47:04.
