data_PCOD9471951
_publ_section_title
;
Structure prediction by ZEFSAII (Michael W. Deem and Ramdas Pophale) SiO2 
 PCOD9471951
Probable space group: C M C M
;
_chemical_formula_sum "Si O2"
_cell_formula_units_Z 96
_cell_length_a 7.443534
_cell_length_b 20.579179
_cell_length_c 30.027486
_cell_angle_alpha 90.000000
_cell_angle_beta 90.000000
_cell_angle_gamma 90.000000
_cell_volume 4599.664913
_symmetry_space_group_name_H-M "C M C M"
_symmetry_group_IT_number 63
_symmetry_cell_setting 'orthorhombic'
loop_
_space_group_symop_operation_xyz
x,y,z
-x,-y,1/2+z
x,-y,-z
-x,y,1/2-z
-x,-y,-z
x,y,1/2-z
-x,y,z
x,-y,1/2+z
1/2+x,1/2+y,z
1/2-x,1/2-y,1/2+z
1/2+x,1/2-y,-z
1/2-x,1/2+y,1/2-z
1/2-x,1/2-y,-z
1/2+x,1/2+y,1/2-z
1/2-x,1/2+y,z
1/2+x,1/2-y,1/2+z
loop_
_atom_site_type_symbol
_atom_site_label
_atom_site_fract_x
_atom_site_fract_y
_atom_site_fract_z
Si Si1 0.219982 0.007206 0.127823
Si Si2 0.781137 0.887931 0.698904
Si Si3 0.713874 0.358854 0.120238
Si Si4 0.784942 0.181247 0.522579
Si Si5 0.281180 0.558436 0.032302
Si Si6 0.784356 0.741704 0.800771
O O1 0.279945 0.053715 0.167697
O O2 0.276136 0.041209 0.081881
O O3 0.000000 0.006052 0.128660
O O4 0.281109 0.932290 0.128659
O O5 0.728672 0.898161 0.750000
O O6 0.723221 0.814671 0.686157
O O7 0.000000 0.887831 0.697309
O O8 0.500000 0.365250 0.114990
O O9 0.782672 0.329676 0.073180
O O10 0.741761 0.311384 0.161999
O O11 0.750000 0.250000 0.500000
O O12 0.717456 0.124898 0.489719
O O13 0.000000 0.174091 0.524883
O O14 0.500000 0.560257 0.033316
O O15 0.229300 0.500000 0.000000
O O16 0.720631 0.727574 0.750000
O O17 0.000000 0.744383 0.798349
#
# Coordination Sequence:
#
# PCOD9471951 Si02
#       6
#    16  16  16  16  16  16
#     4   9  16  27  47  73  98 126 162 206 253 295
#     4   8  15  28  46  70  96 121 159 208 247 286
#     4  10  20  33  50  77 107 130 162 210 257 298
#     4  10  21  34  50  75 105 135 168 208 250 300
#     4   9  15  28  48  69  96 130 165 202 246 292
#     4   9  19  35  53  74 102 135 168 202 244 300
#
# _framework density 20.871085999999998
#
# number of rings (size 3 to 8) (size 9 to 14) (size 15 to 20)
#    0.000    2.833    1.667    1.000    2.333    1.667 
#    0.000    1.667    0.000    2.500    0.000    0.000 
#    0.000    0.000    0.000    0.000    0.000    0.000 
#
# Total GULP energy -267849.473613 kJ/mol
# GULP energy per Si atom -5580.197367 kJ/mol
# Density = 2.082358 g / cm^3
# Si number density = 20.871086 Si / 1000 Ang^3
#
#
#
# Elastic Constant Matrix: (Units=GPa)
#
#
# Indices 1 2 3 4 5 6 
#
# 1 62.2609 4.2228 3.3109 0.0000 0.0000 0.0000
# 2 4.2228 237.9880 156.0186 0.0000 0.0000 0.0000
# 3 3.3109 156.0186 184.8509 0.0000 0.0000 0.0000
# 4 0.0000 0.0000 0.0000 43.8986 0.0000 0.0000
# 5 0.0000 0.0000 0.0000 0.0000 8.7372 0.0000
# 6 0.0000 0.0000 0.0000 0.0000 0.0000 17.1410
#
#
#
# Elastic Compliance Matrix: (Units=1/GPa)
#
#
# Indices 1 2 3 4 5 6 
#
# 1 0.016082 -0.000216 -0.000106 0.000000 0.000000 0.000000
# 2 -0.000216 0.009410 -0.007938 0.000000 0.000000 0.000000
# 3 -0.000106 -0.007938 0.012112 0.000000 0.000000 0.000000
# 4 0.000000 0.000000 0.000000 0.022780 0.000000 0.000000
# 5 0.000000 0.000000 0.000000 0.000000 0.114454 0.000000
# 6 0.000000 0.000000 0.000000 0.000000 0.000000 0.058340
#
#
# Mechanical properties :
#
#
# Convention : Reuss Voigt Hill
#
# Bulk Modulus (GPa) = 47.43090 90.24493 68.83792
# Shear Modulus (GPa) = 19.47616 35.39185 27.43401
#
# Velocity S-wave (km/s) = 3.05809 4.12240 3.62947
# Velocity P-wave (km/s) = 5.93668 8.12354 7.11464
#
# Compressibility (1/GPa) = 0.02108330
#
# Stress axis : x y z
#
# Youngs Moduli (GPa) = 62.18236 106.27168 82.56449
#
# Poissons Ratio (x) = 0.02296 0.00872
# Poissons Ratio (y) = 0.01344 0.65542
# Poissons Ratio (z) = 0.00657 0.84361
#
# Static dielectric constant tensor:
#      x y z
#    x 1.831980 0.000000 0.000000 
#    y 0.000000 1.733800 0.000000 
#    z 0.000000 0.000000 1.723100 
# 
# From -- ./inp_files/66940.got.cif
#   From: 2010.05.17/outbox.cif.g08.bks.cpg/sg63_34_cif.got.tgz:66940.got - 2010.06.03 15:47:04.
