data_PCOD9471275
_publ_section_title
;
Structure prediction by ZEFSAII (Michael W. Deem and Ramdas Pophale) SiO2 
 PCOD9471275
Probable space group: C M C M
;
_chemical_formula_sum "Si O2"
_cell_formula_units_Z 128
_cell_length_a 22.693176
_cell_length_b 12.208808
_cell_length_c 24.947593
_cell_angle_alpha 90.000000
_cell_angle_beta 90.000000
_cell_angle_gamma 90.000000
_cell_volume 6911.896011
_symmetry_space_group_name_H-M "C M C M"
_symmetry_group_IT_number 63
_symmetry_cell_setting 'orthorhombic'
loop_
_space_group_symop_operation_xyz
x,y,z
-x,-y,1/2+z
x,-y,-z
-x,y,1/2-z
-x,-y,-z
x,y,1/2-z
-x,y,z
x,-y,1/2+z
1/2+x,1/2+y,z
1/2-x,1/2-y,1/2+z
1/2+x,1/2-y,-z
1/2-x,1/2+y,1/2-z
1/2-x,1/2-y,-z
1/2+x,1/2+y,1/2-z
1/2-x,1/2+y,z
1/2+x,1/2-y,1/2+z
loop_
_atom_site_type_symbol
_atom_site_label
_atom_site_fract_x
_atom_site_fract_y
_atom_site_fract_z
Si Si1 0.249925 0.587062 0.602781
Si Si2 0.328847 0.968157 0.809929
Si Si3 0.432617 0.172488 0.446004
Si Si4 0.432200 0.617949 0.633052
Si Si5 0.862735 0.037303 0.059034
Si Si6 0.641077 0.202725 0.948360
Si Si7 0.568358 0.953706 0.373979
Si Si8 0.325096 0.708260 0.809717
O O1 0.213962 0.508402 0.642983
O O2 0.300510 0.521057 0.572016
O O3 0.204041 0.646852 0.563572
O O4 0.281937 0.672217 0.642671
O O5 0.308097 0.996162 0.750000
O O6 0.391528 0.023214 0.822548
O O7 0.335185 0.837742 0.812859
O O8 0.500000 0.171666 0.468091
O O9 0.427347 0.278744 0.408035
O O10 0.384827 0.178718 0.492830
O O11 0.425534 0.062165 0.411463
O O12 0.500000 0.608357 0.649343
O O13 0.408774 0.511566 0.601734
O O14 0.386511 0.646140 0.679853
O O15 0.856468 0.167479 0.060388
O O16 0.882135 0.000000 0.000000
O O17 0.596085 0.146511 0.906701
O O18 0.500000 0.938197 0.362215
O O19 0.302440 0.683023 0.750000
#
# Coordination Sequence:
#
# PCOD9471275 Si02
#       8
#    16  16  16  16  16  16  16  16
#     4  10  23  38  55  80 114 149 187 238 280 331
#     4  10  20  35  57  82 108 144 188 237 291 333
#     4  10  19  35  57  82 114 149 185 225 277 330
#     4  10  21  37  57  83 116 146 179 232 281 329
#     4  11  23  39  55  84 114 150 192 228 275 328
#     4  11  22  37  58  82 113 156 191 223 274 341
#     4  10  21  36  56  85 117 147 186 234 283 338
#     4  10  20  37  59  82 108 143 189 237 288 337
#
# _framework density 18.518796999999999
#
# number of rings (size 3 to 8) (size 9 to 14) (size 15 to 20)
#    0.000    1.750    2.500    1.875    0.000    5.250 
#    0.000    1.250    0.000    6.750    0.000    7.000 
#    0.000    0.000    0.000    0.000    0.000    0.000 
#
# Total GULP energy -357414.591381 kJ/mol
# GULP energy per Si atom -5584.602990 kJ/mol
# Density = 1.847665 g / cm^3
# Si number density = 18.518797 Si / 1000 Ang^3
#
#
#
# Elastic Constant Matrix: (Units=GPa)
#
#
# Indices 1 2 3 4 5 6 
#
# 1 59.1505 -6.0814 -7.0783 0.0000 0.0000 0.0000
# 2 -6.0814 62.1523 0.2850 0.0000 0.0000 0.0000
# 3 -7.0783 0.2850 34.1121 0.0000 0.0000 0.0000
# 4 0.0000 0.0000 0.0000 9.6604 0.0000 0.0000
# 5 0.0000 0.0000 0.0000 0.0000 -5.1200 0.0000
# 6 0.0000 0.0000 0.0000 0.0000 0.0000 15.0871
#
#
#
# Elastic Compliance Matrix: (Units=1/GPa)
#
#
# Indices 1 2 3 4 5 6 
#
# 1 0.017514 0.001697 0.003620 0.000000 0.000000 0.000000
# 2 0.001697 0.016255 0.000216 0.000000 0.000000 0.000000
# 3 0.003620 0.000216 0.030064 0.000000 0.000000 0.000000
# 4 0.000000 0.000000 0.000000 0.103516 0.000000 0.000000
# 5 0.000000 0.000000 0.000000 0.000000 -0.195311 0.000000
# 6 0.000000 0.000000 0.000000 0.000000 0.000000 0.066282
#
#
# Mechanical properties :
#
#
# Convention : Reuss Voigt Hill
#
# Bulk Modulus (GPa) = 13.35123 14.40726 13.87925
# Shear Modulus (GPa) = 95.74964 15.14479 55.44722
#
# Velocity S-wave (km/s) = 7.19835 2.86283 5.47778
# Velocity P-wave (km/s) = 8.73576 4.32718 6.89340
#
# Compressibility (1/GPa) = 0.07489946
#
# Stress axis : x y z
#
# Youngs Moduli (GPa) = 57.09817 61.52119 33.26187
#
# Poissons Ratio (x) = -0.10441 -0.12041
# Poissons Ratio (y) = -0.09690 -0.00720
# Poissons Ratio (z) = -0.20669 -0.01331
#
# Static dielectric constant tensor:
#      x y z
#    x 1.647360 0.000000 0.000000 
#    y 0.000000 1.611130 0.000000 
#    z 0.000000 0.000000 1.621720 
# 
# From -- ./inp_files/65166.got.cif
#   From: 2010.05.17/outbox.cif.g08.bks.cpg/sg63_33_cif.got.tgz:65166.got - 2010.06.03 15:47:04.
