data_PCOD9471731
_publ_section_title
;
Structure prediction by ZEFSAII (Michael W. Deem and Ramdas Pophale) SiO2 
 PCOD9471731
Probable space group: C M C M
;
_chemical_formula_sum "Si O2"
_cell_formula_units_Z 96
_cell_length_a 13.896534
_cell_length_b 37.636200
_cell_length_c 11.831449
_cell_angle_alpha 90.000000
_cell_angle_beta 90.000000
_cell_angle_gamma 90.000000
_cell_volume 6187.998476
_symmetry_space_group_name_H-M "C M C M"
_symmetry_group_IT_number 63
_symmetry_cell_setting 'orthorhombic'
loop_
_space_group_symop_operation_xyz
x,y,z
-x,-y,1/2+z
x,-y,-z
-x,y,1/2-z
-x,-y,-z
x,y,1/2-z
-x,y,z
x,-y,1/2+z
1/2+x,1/2+y,z
1/2-x,1/2-y,1/2+z
1/2+x,1/2-y,-z
1/2-x,1/2+y,1/2-z
1/2-x,1/2-y,-z
1/2+x,1/2+y,1/2-z
1/2-x,1/2+y,z
1/2+x,1/2-y,1/2+z
loop_
_atom_site_type_symbol
_atom_site_label
_atom_site_fract_x
_atom_site_fract_y
_atom_site_fract_z
Si Si1 0.614770 0.296399 0.010260
Si Si2 0.115727 0.724317 0.880087
Si Si3 0.111085 0.601080 0.881529
Si Si4 0.883799 0.237580 0.750000
Si Si5 0.290848 0.839932 0.519517
Si Si6 0.615104 0.016278 0.620774
Si Si7 0.383853 0.179742 0.250000
O O1 0.500000 0.302533 0.005326
O O2 0.641582 0.283234 0.136365
O O3 0.638972 0.262913 0.930485
O O4 0.678681 0.329935 0.976713
O O5 0.144751 0.722177 0.750000
O O6 0.000000 0.720675 0.887331
O O7 0.161215 0.692843 0.951500
O O8 0.119631 0.611634 0.750000
O O9 0.127208 0.558876 0.887931
O O10 0.000000 0.608247 0.916094
O O11 0.182821 0.624139 0.955545
O O12 0.852284 0.278621 0.750000
O O13 0.000000 0.239610 0.750000
O O14 0.340443 0.838769 0.640629
O O15 0.649948 0.005897 0.750000
O O16 0.500000 0.009089 0.623022
O O17 0.651189 0.000000 0.500000
O O18 0.500000 0.178657 0.250000
#
# Coordination Sequence:
#
# PCOD9471731 Si02
#       7
#    16  16  16   8  16  16   8
#     4  10  22  35  47  64  85 115 157 201 240 279
#     4  10  20  32  48  67  84 109 153 200 236 283
#     4   9  18  32  48  68  95 123 152 186 222 269
#     4   9  18  34  48  61  85 112 147 198 246 279
#     4  12  22  31  49  64  90 122 153 187 240 285
#     4   8  14  27  47  69  94 123 152 180 215 261
#     4  11  22  34  47  65  91 118 148 194 245 285
#
# _framework density 15.513902
#
# number of rings (size 3 to 8) (size 9 to 14) (size 15 to 20)
#    0.000    2.167    1.667    3.500    3.500    1.333 
#    1.500    0.000    0.000    0.000    0.000    0.000 
#    0.000    0.667    0.000    0.500    0.000    0.667 
#
# Total GULP energy -267699.781609 kJ/mol
# GULP energy per Si atom -5577.078784 kJ/mol
# Density = 1.547859 g / cm^3
# Si number density = 15.513902 Si / 1000 Ang^3
#
#
#
# Elastic Constant Matrix: (Units=GPa)
#
#
# Indices 1 2 3 4 5 6 
#
# 1 42.9394 16.1973 27.9908 0.0000 0.0000 0.0000
# 2 16.1973 30.6125 27.6511 0.0000 0.0000 0.0000
# 3 27.9908 27.6511 112.1051 0.0000 0.0000 0.0000
# 4 0.0000 0.0000 0.0000 12.4577 0.0000 0.0000
# 5 0.0000 0.0000 0.0000 0.0000 17.0550 0.0000
# 6 0.0000 0.0000 0.0000 0.0000 0.0000 14.9585
#
#
#
# Elastic Compliance Matrix: (Units=1/GPa)
#
#
# Indices 1 2 3 4 5 6 
#
# 1 0.030940 -0.012085 -0.004744 0.000000 0.000000 0.000000
# 2 -0.012085 0.046751 -0.008514 0.000000 0.000000 0.000000
# 3 -0.004744 -0.008514 0.012205 0.000000 0.000000 0.000000
# 4 0.000000 0.000000 0.000000 0.080272 0.000000 0.000000
# 5 0.000000 0.000000 0.000000 0.000000 0.058634 0.000000
# 6 0.000000 0.000000 0.000000 0.000000 0.000000 0.066851
#
#
# Mechanical properties :
#
#
# Convention : Reuss Voigt Hill
#
# Bulk Modulus (GPa) = 25.50433 36.59282 31.04858
# Shear Modulus (GPa) = 13.91172 16.48209 15.19691
#
# Velocity S-wave (km/s) = 2.99779 3.26300 3.13320
# Velocity P-wave (km/s) = 5.33457 6.15098 5.75726
#
# Compressibility (1/GPa) = 0.03920902
#
# Stress axis : x y z
#
# Youngs Moduli (GPa) = 32.32054 21.38992 81.93520
#
# Poissons Ratio (x) = 0.25850 0.38873
# Poissons Ratio (y) = 0.39060 0.69758
# Poissons Ratio (z) = 0.15334 0.18211
#
# Static dielectric constant tensor:
#      x y z
#    x 1.540080 0.000000 0.000000 
#    y 0.000000 1.487870 0.000000 
#    z 0.000000 0.000000 1.406310 
# 
# From -- ./inp_files/19997.got.cif
#   From: 2010.05.17/outbox.cif.g08.bks.cpg/sg63_10_cif.got.tgz:19997.got - 2010.06.03 15:47:04.
