data_PCOD9471648
_publ_section_title
;
Structure prediction by ZEFSAII (Michael W. Deem and Ramdas Pophale) SiO2 
 PCOD9471648
Probable space group: C M C M
;
_chemical_formula_sum "Si O2"
_cell_formula_units_Z 112
_cell_length_a 22.749443
_cell_length_b 13.076499
_cell_length_c 20.969872
_cell_angle_alpha 90.000000
_cell_angle_beta 90.000000
_cell_angle_gamma 90.000000
_cell_volume 6238.181872
_symmetry_space_group_name_H-M "C M C M"
_symmetry_group_IT_number 63
_symmetry_cell_setting 'orthorhombic'
loop_
_space_group_symop_operation_xyz
x,y,z
-x,-y,1/2+z
x,-y,-z
-x,y,1/2-z
-x,-y,-z
x,y,1/2-z
-x,y,z
x,-y,1/2+z
1/2+x,1/2+y,z
1/2-x,1/2-y,1/2+z
1/2+x,1/2-y,-z
1/2-x,1/2+y,1/2-z
1/2-x,1/2-y,-z
1/2+x,1/2+y,1/2-z
1/2-x,1/2+y,z
1/2+x,1/2-y,1/2+z
loop_
_atom_site_type_symbol
_atom_site_label
_atom_site_fract_x
_atom_site_fract_y
_atom_site_fract_z
Si Si1 0.671591 0.143847 0.589446
Si Si2 0.653886 0.413876 0.366889
Si Si3 0.931166 0.700070 0.823215
Si Si4 0.270039 0.755448 0.677548
Si Si5 0.161065 0.840078 0.988612
Si Si6 0.742304 0.944738 0.593170
Si Si7 0.568508 0.418395 0.885428
O O1 0.610736 0.141722 0.627930
O O2 0.718119 0.200332 0.637030
O O3 0.664250 0.220789 0.529887
O O4 0.696522 0.032362 0.574995
O O5 0.675014 0.321768 0.323232
O O6 0.652791 0.366236 0.438122
O O7 0.706056 0.497786 0.367392
O O8 0.595079 0.478119 0.356053
O O9 0.914996 0.680325 0.750000
O O10 0.924218 0.820900 0.839031
O O11 0.000000 0.676014 0.832102
O O12 0.251548 0.775949 0.750000
O O13 0.283853 0.857808 0.638474
O O14 0.221726 0.891132 0.964048
O O15 0.108756 0.890300 0.946762
O O16 0.500000 0.428207 0.901509
#
# Coordination Sequence:
#
# PCOD9471648 Si02
#       7
#    16  16  16  16  16  16  16
#     4   9  18  31  49  69  93 125 155 189 237 282
#     4  10  20  31  47  71  98 126 155 192 236 280
#     4   9  17  29  46  70  96 121 157 201 236 273
#     4  10  21  33  45  67  96 123 156 194 229 276
#     4   9  18  31  46  73 102 120 153 197 233 279
#     4   9  18  30  47  67  92 125 156 189 231 277
#     4   9  17  30  49  72  98 128 157 189 234 284
#
# _framework density 17.953949000000001
#
# number of rings (size 3 to 8) (size 9 to 14) (size 15 to 20)
#    0.000    2.714    0.000    3.000    0.000   10.857 
#    0.000    0.000    0.000    0.857    0.000    0.000 
#    0.000   14.857    0.000    0.000    0.000    0.000 
#
# Total GULP energy -312435.886109 kJ/mol
# GULP energy per Si atom -5579.212252 kJ/mol
# Density = 1.791308 g / cm^3
# Si number density = 17.953949 Si / 1000 Ang^3
#
#
#
# Elastic Constant Matrix: (Units=GPa)
#
#
# Indices 1 2 3 4 5 6 
#
# 1 75.0823 22.8076 10.1378 0.0000 0.0000 0.0000
# 2 22.8076 44.3971 1.8800 0.0000 0.0000 0.0000
# 3 10.1378 1.8800 24.7340 0.0000 0.0000 0.0000
# 4 0.0000 0.0000 0.0000 2.3954 0.0000 0.0000
# 5 0.0000 0.0000 0.0000 0.0000 17.9770 0.0000
# 6 0.0000 0.0000 0.0000 0.0000 0.0000 27.9439
#
#
#
# Elastic Compliance Matrix: (Units=1/GPa)
#
#
# Indices 1 2 3 4 5 6 
#
# 1 0.016680 -0.008306 -0.006205 0.000000 0.000000 0.000000
# 2 -0.008306 0.026733 0.001372 0.000000 0.000000 0.000000
# 3 -0.006205 0.001372 0.042869 0.000000 0.000000 0.000000
# 4 0.000000 0.000000 0.000000 0.417469 0.000000 0.000000
# 5 0.000000 0.000000 0.000000 0.000000 0.055627 0.000000
# 6 0.000000 0.000000 0.000000 0.000000 0.000000 0.035786
#
#
# Mechanical properties :
#
#
# Convention : Reuss Voigt Hill
#
# Bulk Modulus (GPa) = 16.66550 23.76271 20.21410
# Shear Modulus (GPa) = 7.79494 16.95579 12.37536
#
# Velocity S-wave (km/s) = 2.08592 3.07645 2.62827
# Velocity P-wave (km/s) = 3.88638 5.08758 4.52700
#
# Compressibility (1/GPa) = 0.06000419
#
# Stress axis : x y z
#
# Youngs Moduli (GPa) = 59.95333 37.40723 23.32680
#
# Poissons Ratio (x) = 0.31070 0.14475
# Poissons Ratio (y) = 0.49797 -0.03201
# Poissons Ratio (z) = 0.37202 -0.05134
#
# Static dielectric constant tensor:
#      x y z
#    x 1.618710 0.000000 0.000000 
#    y 0.000000 1.635780 0.000000 
#    z 0.000000 0.000000 1.637780 
# 
# From -- ./inp_files/57642.got.cif
#   From: 2010.05.17/outbox.cif.g08.bks.cpg/sg63_29_cif.got.tgz:57642.got - 2010.06.03 15:47:04.
