data_PCOD9471947
_publ_section_title
;
Structure prediction by ZEFSAII (Michael W. Deem and Ramdas Pophale) SiO2 
 PCOD9471947
Probable space group: C M C M
;
_chemical_formula_sum "Si O2"
_cell_formula_units_Z 96
_cell_length_a 9.548915
_cell_length_b 30.064289
_cell_length_c 19.165672
_cell_angle_alpha 90.000000
_cell_angle_beta 90.000000
_cell_angle_gamma 90.000000
_cell_volume 5502.106804
_symmetry_space_group_name_H-M "C M C M"
_symmetry_group_IT_number 63
_symmetry_cell_setting 'orthorhombic'
loop_
_space_group_symop_operation_xyz
x,y,z
-x,-y,1/2+z
x,-y,-z
-x,y,1/2-z
-x,-y,-z
x,y,1/2-z
-x,y,z
x,-y,1/2+z
1/2+x,1/2+y,z
1/2-x,1/2-y,1/2+z
1/2+x,1/2-y,-z
1/2-x,1/2+y,1/2-z
1/2-x,1/2-y,-z
1/2+x,1/2+y,1/2-z
1/2-x,1/2+y,z
1/2+x,1/2-y,1/2+z
loop_
_atom_site_type_symbol
_atom_site_label
_atom_site_fract_x
_atom_site_fract_y
_atom_site_fract_z
Si Si1 0.667588 0.737027 0.168503
Si Si2 0.333257 0.656271 0.427754
Si Si3 0.333301 0.934165 0.554506
Si Si4 0.665303 0.395414 0.328726
Si Si5 0.832265 0.809857 0.420302
Si Si6 0.666058 0.029743 0.897261
O O1 0.705688 0.741197 0.250000
O O2 0.500000 0.744585 0.162135
O O3 0.695612 0.687865 0.138018
O O4 0.749485 0.771738 0.120111
O O5 0.500000 0.647301 0.431052
O O6 0.250598 0.610129 0.427994
O O7 0.297472 0.683865 0.498244
O O8 0.500000 0.926983 0.562679
O O9 0.310116 0.948997 0.474131
O O10 0.293253 0.977912 0.598967
O O11 0.691430 0.379567 0.250000
O O12 0.500000 0.404191 0.336303
O O13 0.702421 0.356521 0.382532
O O14 0.749699 0.439938 0.344330
O O15 0.000000 0.802593 0.414090
O O16 0.500000 0.031869 0.883939
#
# Coordination Sequence:
#
# PCOD9471947 Si02
#       6
#    16  16  16  16  16  16
#     4  10  22  38  54  76 107 140 175 217 266 319
#     4  10  20  35  56  81 106 137 177 220 264 312
#     4   9  18  33  54  79 105 133 171 218 261 304
#     4  10  20  33  50  76 110 142 174 217 266 315
#     4  10  20  35  55  79 105 137 178 221 264 312
#     4   9  18  33  52  76 106 138 172 213 260 309
#
# _framework density 17.447862000000001
#
# number of rings (size 3 to 8) (size 9 to 14) (size 15 to 20)
#    0.000    2.333    1.667    2.000    0.000    4.000 
#    0.000    2.500    0.000    3.000    0.000    0.000 
#    0.000    0.000    0.000    0.000    0.000    0.000 
#
# Total GULP energy -267743.198708 kJ/mol
# GULP energy per Si atom -5577.983306 kJ/mol
# Density = 1.740815 g / cm^3
# Si number density = 17.447862 Si / 1000 Ang^3
#
#
#
# Elastic Constant Matrix: (Units=GPa)
#
#
# Indices 1 2 3 4 5 6 
#
# 1 20.6161 43.7131 14.5007 0.0000 0.0000 0.0000
# 2 43.7131 111.3502 23.8599 0.0000 0.0000 0.0000
# 3 14.5007 23.8599 41.9939 0.0000 0.0000 0.0000
# 4 0.0000 0.0000 0.0000 18.8952 0.0000 0.0000
# 5 0.0000 0.0000 0.0000 0.0000 21.9403 0.0000
# 6 0.0000 0.0000 0.0000 0.0000 0.0000 37.8492
#
#
#
# Elastic Compliance Matrix: (Units=1/GPa)
#
#
# Indices 1 2 3 4 5 6 
#
# 1 0.364858 -0.132351 -0.050789 0.000000 0.000000 0.000000
# 2 -0.132351 0.058235 0.012614 0.000000 0.000000 0.000000
# 3 -0.050789 0.012614 0.034184 0.000000 0.000000 0.000000
# 4 0.000000 0.000000 0.000000 0.052924 0.000000 0.000000
# 5 0.000000 0.000000 0.000000 0.000000 0.045578 0.000000
# 6 0.000000 0.000000 0.000000 0.000000 0.000000 0.026421
#
#
# Mechanical properties :
#
#
# Convention : Reuss Voigt Hill
#
# Bulk Modulus (GPa) = 8.60400 37.56751 23.08575
# Shear Modulus (GPa) = 5.19754 21.86270 13.53012
#
# Velocity S-wave (km/s) = 1.72782 3.54366 2.78773
# Velocity P-wave (km/s) = 2.98705 6.19043 4.86024
#
# Compressibility (1/GPa) = 0.11622503
#
# Stress axis : x y z
#
# Youngs Moduli (GPa) = 2.74079 17.17175 29.25344
#
# Poissons Ratio (x) = 2.27269 1.48576
# Poissons Ratio (y) = 0.36275 -0.36899
# Poissons Ratio (z) = 0.13920 -0.21660
#
# Static dielectric constant tensor:
#      x y z
#    x 1.576970 0.000000 0.000000 
#    y 0.000000 1.575050 0.000000 
#    z 0.000000 0.000000 1.594200 
# 
# From -- ./inp_files/51298.got.cif
#   From: 2010.05.17/outbox.cif.g08.bks.cpg/sg63_26_cif.got.tgz:51298.got - 2010.06.03 15:47:04.
