data_PCOD9471231
_publ_section_title
;
Structure prediction by ZEFSAII (Michael W. Deem and Ramdas Pophale) SiO2 
 PCOD9471231
Probable space group: C M C M
;
_chemical_formula_sum "Si O2"
_cell_formula_units_Z 80
_cell_length_a 8.701643
_cell_length_b 21.072417
_cell_length_c 25.562670
_cell_angle_alpha 90.000000
_cell_angle_beta 90.000000
_cell_angle_gamma 90.000000
_cell_volume 4687.290035
_symmetry_space_group_name_H-M "C M C M"
_symmetry_group_IT_number 63
_symmetry_cell_setting 'orthorhombic'
loop_
_space_group_symop_operation_xyz
x,y,z
-x,-y,1/2+z
x,-y,-z
-x,y,1/2-z
-x,-y,-z
x,y,1/2-z
-x,y,z
x,-y,1/2+z
1/2+x,1/2+y,z
1/2-x,1/2-y,1/2+z
1/2+x,1/2-y,-z
1/2-x,1/2+y,1/2-z
1/2-x,1/2-y,-z
1/2+x,1/2+y,1/2-z
1/2-x,1/2+y,z
1/2+x,1/2-y,1/2+z
loop_
_atom_site_type_symbol
_atom_site_label
_atom_site_fract_x
_atom_site_fract_y
_atom_site_fract_z
Si Si1 0.822426 0.355652 0.750000
Si Si2 0.822613 0.489900 0.250000
Si Si3 0.317400 0.506541 0.860252
Si Si4 0.314778 0.186885 0.025708
Si Si5 0.185329 0.439960 0.036329
Si Si6 0.312881 0.135630 0.136650
O O1 0.820566 0.432743 0.750000
O O2 0.756654 0.338385 0.806916
O O3 0.000000 0.334401 0.750000
O O4 0.741058 0.470462 0.303608
O O5 0.000000 0.470246 0.250000
O O6 0.500000 0.501453 0.859980
O O7 0.260280 0.550467 0.907321
O O8 0.245682 0.436432 0.869396
O O9 0.500000 0.189537 0.025293
O O10 0.266795 0.175593 0.085949
O O11 0.250000 0.250000 0.000000
O O12 0.269091 0.124703 0.992576
O O13 0.000000 0.440696 0.041846
O O14 0.227521 0.500000 0.000000
O O15 0.500000 0.132653 0.138402
#
# Coordination Sequence:
#
# PCOD9471231 Si02
#       6
#     8   8  16  16  16  16
#     4   7  12  23  47  72  91 120 167 209 243 293
#     4   9  17  31  49  70 103 144 175 205 257 325
#     4  11  20  29  48  80 110 132 168 226 273 304
#     4  10  21  35  53  74 103 139 178 222 264 314
#     4  10  19  35  55  73 100 141 184 214 252 319
#     4   9  16  31  50  72 100 137 174 209 256 322
#
# _framework density 17.067430000000002
#
# number of rings (size 3 to 8) (size 9 to 14) (size 15 to 20)
#    0.000    2.400    2.000    3.300    0.000    2.000 
#    0.000    0.000    0.000    1.200    0.000    4.200 
#    0.000    0.000    0.000    0.000    0.000    0.000 
#
# Total GULP energy -222954.045348 kJ/mol
# GULP energy per Si atom -5573.851134 kJ/mol
# Density = 1.702858 g / cm^3
# Si number density = 17.067430 Si / 1000 Ang^3
#
#
#
# Elastic Constant Matrix: (Units=GPa)
#
#
# Indices 1 2 3 4 5 6 
#
# 1 31.7502 19.3079 40.4685 0.0000 0.0000 0.0000
# 2 19.3079 83.2848 69.1269 0.0000 0.0000 0.0000
# 3 40.4685 69.1269 205.6081 0.0000 0.0000 0.0000
# 4 0.0000 0.0000 0.0000 18.8796 0.0000 0.0000
# 5 0.0000 0.0000 0.0000 0.0000 15.6296 0.0000
# 6 0.0000 0.0000 0.0000 0.0000 0.0000 20.6070
#
#
#
# Elastic Compliance Matrix: (Units=1/GPa)
#
#
# Indices 1 2 3 4 5 6 
#
# 1 0.043023 -0.004086 -0.007094 0.000000 0.000000 0.000000
# 2 -0.004086 0.017042 -0.004926 0.000000 0.000000 0.000000
# 3 -0.007094 -0.004926 0.007916 0.000000 0.000000 0.000000
# 4 0.000000 0.000000 0.000000 0.052967 0.000000 0.000000
# 5 0.000000 0.000000 0.000000 0.000000 0.063981 0.000000
# 6 0.000000 0.000000 0.000000 0.000000 0.000000 0.048527
#
#
# Mechanical properties :
#
#
# Convention : Reuss Voigt Hill
#
# Bulk Modulus (GPa) = 27.95632 64.27218 46.11425
# Shear Modulus (GPa) = 18.01207 23.80587 20.90897
#
# Velocity S-wave (km/s) = 3.25214 3.73877 3.50391
# Velocity P-wave (km/s) = 5.52425 7.50849 6.59146
#
# Compressibility (1/GPa) = 0.03577008
#
# Stress axis : x y z
#
# Youngs Moduli (GPa) = 23.24348 58.67684 126.32680
#
# Poissons Ratio (x) = 0.23974 0.89620
# Poissons Ratio (y) = 0.09497 0.62224
# Poissons Ratio (z) = 0.16490 0.28902
#
# Static dielectric constant tensor:
#      x y z
#    x 1.575870 0.000000 0.000000 
#    y 0.000000 1.538600 0.000000 
#    z 0.000000 0.000000 1.619460 
# 
# From -- ./inp_files/66652.got.cif
#   From: 2010.05.17/outbox.cif.g08.bks.cpg/sg63_34_cif.got.tgz:66652.got - 2010.06.03 15:47:04.
