data_PCOD9471125
_publ_section_title
;
Structure prediction by ZEFSAII (Michael W. Deem and Ramdas Pophale) SiO2 
 PCOD9471125
Probable space group: C M C M
;
_chemical_formula_sum "Si O2"
_cell_formula_units_Z 96
_cell_length_a 23.818197
_cell_length_b 21.932433
_cell_length_c 8.157755
_cell_angle_alpha 90.000000
_cell_angle_beta 90.000000
_cell_angle_gamma 90.000000
_cell_volume 4261.537873
_symmetry_space_group_name_H-M "C M C M"
_symmetry_group_IT_number 63
_symmetry_cell_setting 'orthorhombic'
loop_
_space_group_symop_operation_xyz
x,y,z
-x,-y,1/2+z
x,-y,-z
-x,y,1/2-z
-x,-y,-z
x,y,1/2-z
-x,y,z
x,-y,1/2+z
1/2+x,1/2+y,z
1/2-x,1/2-y,1/2+z
1/2+x,1/2-y,-z
1/2-x,1/2+y,1/2-z
1/2-x,1/2-y,-z
1/2+x,1/2+y,1/2-z
1/2-x,1/2+y,z
1/2+x,1/2-y,1/2+z
loop_
_atom_site_type_symbol
_atom_site_label
_atom_site_fract_x
_atom_site_fract_y
_atom_site_fract_z
Si Si1 0.299347 0.711251 0.070166
Si Si2 0.648222 0.935777 0.552521
Si Si3 0.107992 0.062768 0.055897
Si Si4 0.938256 0.669452 0.050696
Si Si5 0.083034 0.805096 0.063280
Si Si6 0.229653 0.092423 0.562916
O O1 0.318554 0.730480 0.250000
O O2 0.250000 0.750000 0.000000
O O3 0.350563 0.707254 0.946880
O O4 0.273944 0.644376 0.072476
O O5 0.653508 0.933980 0.750000
O O6 0.611740 0.876270 0.499474
O O7 0.709994 0.936812 0.470322
O O8 0.620526 0.000000 0.500000
O O9 0.117786 0.938677 0.750000
O O10 0.077661 0.127771 0.017597
O O11 0.168388 0.062080 0.961347
O O12 0.078534 0.000000 0.000000
O O13 0.933900 0.673619 0.250000
O O14 0.937741 0.740275 0.991897
O O15 0.000000 0.643949 0.010714
O O16 0.063882 0.810706 0.250000
O O17 0.231147 0.114892 0.750000
#
# Coordination Sequence:
#
# PCOD9471125 Si02
#       6
#    16  16  16  16  16  16
#     4  11  20  31  48  74 110 148 186 226 272 325
#     4  11  22  37  57  82 114 150 190 234 282 334
#     4  11  21  35  55  83 120 156 190 224 267 324
#     4   9  20  39  62  84 107 140 184 236 292 345
#     4  10  19  34  57  83 109 141 184 230 281 337
#     4  11  21  34  52  78 113 151 191 228 272 327
#
# _framework density 22.527076999999998
#
# number of rings (size 3 to 8) (size 9 to 14) (size 15 to 20)
#    0.000    1.500    0.000    9.000    0.000    1.667 
#    0.000    2.500    0.000    8.000    0.000    0.000 
#    0.000    0.000    0.000    0.000    0.000    0.000 
#
# Total GULP energy -267445.129018 kJ/mol
# GULP energy per Si atom -5571.773521 kJ/mol
# Density = 2.247580 g / cm^3
# Si number density = 22.527077 Si / 1000 Ang^3
#
#
#
# Elastic Constant Matrix: (Units=GPa)
#
#
# Indices 1 2 3 4 5 6 
#
# 1 71.2787 36.9330 19.1937 0.0000 0.0000 0.0000
# 2 36.9330 110.9741 10.3811 0.0000 0.0000 0.0000
# 3 19.1937 10.3811 102.7880 0.0000 0.0000 0.0000
# 4 0.0000 0.0000 0.0000 29.3213 0.0000 0.0000
# 5 0.0000 0.0000 0.0000 0.0000 -6.5608 0.0000
# 6 0.0000 0.0000 0.0000 0.0000 0.0000 4.2920
#
#
#
# Elastic Compliance Matrix: (Units=1/GPa)
#
#
# Indices 1 2 3 4 5 6 
#
# 1 0.017682 -0.005629 -0.002733 0.000000 0.000000 0.000000
# 2 -0.005629 0.010889 -0.000049 0.000000 0.000000 0.000000
# 3 -0.002733 -0.000049 0.010244 0.000000 0.000000 0.000000
# 4 0.000000 0.000000 0.000000 0.034105 0.000000 0.000000
# 5 0.000000 0.000000 0.000000 0.000000 -0.152421 0.000000
# 6 0.000000 0.000000 0.000000 0.000000 0.000000 0.232991
#
#
# Mechanical properties :
#
#
# Convention : Reuss Voigt Hill
#
# Bulk Modulus (GPa) = 45.46840 46.45072 45.95956
# Shear Modulus (GPa) = 28.14622 19.97938 24.06280
#
# Velocity S-wave (km/s) = 3.53858 2.98133 3.27184
# Velocity P-wave (km/s) = 6.07644 5.70226 5.89232
#
# Compressibility (1/GPa) = 0.02199330
#
# Stress axis : x y z
#
# Youngs Moduli (GPa) = 56.55425 91.83532 97.61749
#
# Poissons Ratio (x) = 0.51695 0.26682
# Poissons Ratio (y) = 0.31835 0.00475
# Poissons Ratio (z) = 0.15458 0.00447
#
# Static dielectric constant tensor:
#      x y z
#    x 1.881890 0.000000 0.000000 
#    y 0.000000 1.850720 0.000000 
#    z 0.000000 0.000000 1.779790 
# 
# From -- ./inp_files/12433.got.cif
#   From: 2010.05.17/outbox.cif.g08.bks.cpg/sg63_7_cif.got.tgz:12433.got - 2010.06.03 15:47:04.
