data_PCOD9471852
_publ_section_title
;
Structure prediction by ZEFSAII (Michael W. Deem and Ramdas Pophale) SiO2 
 PCOD9471852
Probable space group: C M C M
;
_chemical_formula_sum "Si O2"
_cell_formula_units_Z 96
_cell_length_a 9.435283
_cell_length_b 32.852329
_cell_length_c 14.811044
_cell_angle_alpha 90.000000
_cell_angle_beta 90.000000
_cell_angle_gamma 90.000000
_cell_volume 4590.994436
_symmetry_space_group_name_H-M "C M C M"
_symmetry_group_IT_number 63
_symmetry_cell_setting 'orthorhombic'
loop_
_space_group_symop_operation_xyz
x,y,z
-x,-y,1/2+z
x,-y,-z
-x,y,1/2-z
-x,-y,-z
x,y,1/2-z
-x,y,z
x,-y,1/2+z
1/2+x,1/2+y,z
1/2-x,1/2-y,1/2+z
1/2+x,1/2-y,-z
1/2-x,1/2+y,1/2-z
1/2-x,1/2-y,-z
1/2+x,1/2+y,1/2-z
1/2-x,1/2+y,z
1/2+x,1/2-y,1/2+z
loop_
_atom_site_type_symbol
_atom_site_label
_atom_site_fract_x
_atom_site_fract_y
_atom_site_fract_z
Si Si1 0.162676 0.911133 0.606139
Si Si2 0.672877 0.498250 0.894473
Si Si3 0.341383 0.167038 0.643065
Si Si4 0.161531 0.177839 0.142048
Si Si5 0.337977 0.744039 0.639115
Si Si6 0.162312 0.913073 0.388908
O O1 0.222806 0.954269 0.641027
O O2 0.226493 0.866974 0.625437
O O3 0.156858 0.915228 0.497889
O O4 0.000000 0.908413 0.640187
O O5 0.500000 0.497138 0.890721
O O6 0.711730 0.542324 0.855594
O O7 0.713527 0.500000 0.000000
O O8 0.354391 0.174607 0.750000
O O9 0.500000 0.166640 0.604025
O O10 0.244533 0.203731 0.608011
O O11 0.263298 0.124040 0.633767
O O12 0.150778 0.182155 0.250000
O O13 0.255038 0.215480 0.110106
O O14 0.000000 0.179208 0.104765
O O15 0.340217 0.743811 0.750000
O O16 0.500000 0.743885 0.608581
O O17 0.000000 0.905749 0.358286
#
# Coordination Sequence:
#
# PCOD9471852 Si02
#       6
#    16  16  16  16  16  16
#     4   8  14  26  45  69  95 122 152 186 223 261
#     4   7  11  22  42  66  90 118 151 184 217 254
#     4  10  20  33  48  66  90 118 147 183 229 277
#     4   9  16  27  45  68  93 120 149 181 220 267
#     4   9  17  30  48  67  87 114 150 187 221 264
#     4   9  16  28  48  70  91 118 154 192 224 258
#
# _framework density 20.910501
#
# number of rings (size 3 to 8) (size 9 to 14) (size 15 to 20)
#    0.000    3.333    0.000    3.000    0.000    3.000 
#    0.000    2.500    0.000    8.500    0.000    2.333 
#    0.000    0.000    0.000    0.000    0.000    0.000 
#
# Total GULP energy -267417.021341 kJ/mol
# GULP energy per Si atom -5571.187945 kJ/mol
# Density = 2.086291 g / cm^3
# Si number density = 20.910501 Si / 1000 Ang^3
#
#
#
# Elastic Constant Matrix: (Units=GPa)
#
#
# Indices 1 2 3 4 5 6 
#
# 1 100.6483 102.2104 4.4279 0.0000 0.0000 0.0000
# 2 102.2104 253.6692 -2.0184 0.0000 0.0000 0.0000
# 3 4.4279 -2.0184 47.8042 0.0000 0.0000 0.0000
# 4 0.0000 0.0000 0.0000 22.9971 0.0000 0.0000
# 5 0.0000 0.0000 0.0000 0.0000 6.7159 0.0000
# 6 0.0000 0.0000 0.0000 0.0000 0.0000 20.1524
#
#
#
# Elastic Compliance Matrix: (Units=1/GPa)
#
#
# Indices 1 2 3 4 5 6 
#
# 1 0.016981 -0.006857 -0.001862 0.000000 0.000000 0.000000
# 2 -0.006857 0.006712 0.000919 0.000000 0.000000 0.000000
# 3 -0.001862 0.000919 0.021130 0.000000 0.000000 0.000000
# 4 0.000000 0.000000 0.000000 0.043484 0.000000 0.000000
# 5 0.000000 0.000000 0.000000 0.000000 0.148901 0.000000
# 6 0.000000 0.000000 0.000000 0.000000 0.000000 0.049622
#
#
# Mechanical properties :
#
#
# Convention : Reuss Voigt Hill
#
# Bulk Modulus (GPa) = 34.22126 67.92908 51.07517
# Shear Modulus (GPa) = 16.01685 29.80652 22.91169
#
# Velocity S-wave (km/s) = 2.77062 3.77959 3.31373
# Velocity P-wave (km/s) = 5.16103 7.18354 6.25458
#
# Compressibility (1/GPa) = 0.02922160
#
# Stress axis : x y z
#
# Youngs Moduli (GPa) = 58.89005 148.98091 47.32618
#
# Poissons Ratio (x) = 1.02154 0.08814
# Poissons Ratio (y) = 0.40380 -0.04347
# Poissons Ratio (z) = 0.10968 -0.13684
#
# Static dielectric constant tensor:
#      x y z
#    x 1.717280 0.000000 0.000000 
#    y 0.000000 1.796190 0.000000 
#    z 0.000000 0.000000 1.812210 
# 
# From -- ./inp_files/60260.got.cif
#   From: 2010.05.17/outbox.cif.g08.bks.cpg/sg63_31_cif.got.tgz:60260.got - 2010.06.03 15:47:04.
