data_PCOD9471867
_publ_section_title
;
Structure prediction by ZEFSAII (Michael W. Deem and Ramdas Pophale) SiO2 
 PCOD9471867
Probable space group: C M C M
;
_chemical_formula_sum "Si O2"
_cell_formula_units_Z 80
_cell_length_a 9.526047
_cell_length_b 26.786960
_cell_length_c 14.922858
_cell_angle_alpha 90.000000
_cell_angle_beta 90.000000
_cell_angle_gamma 90.000000
_cell_volume 3807.922979
_symmetry_space_group_name_H-M "C M C M"
_symmetry_group_IT_number 63
_symmetry_cell_setting 'orthorhombic'
loop_
_space_group_symop_operation_xyz
x,y,z
-x,-y,1/2+z
x,-y,-z
-x,y,1/2-z
-x,-y,-z
x,y,1/2-z
-x,y,z
x,-y,1/2+z
1/2+x,1/2+y,z
1/2-x,1/2-y,1/2+z
1/2+x,1/2-y,-z
1/2-x,1/2+y,1/2-z
1/2-x,1/2-y,-z
1/2+x,1/2+y,1/2-z
1/2-x,1/2+y,z
1/2+x,1/2-y,1/2+z
loop_
_atom_site_type_symbol
_atom_site_label
_atom_site_fract_x
_atom_site_fract_y
_atom_site_fract_z
Si Si1 0.829994 0.086410 0.645220
Si Si2 0.159366 0.804477 0.403130
Si Si3 0.837708 0.977123 0.860124
Si Si4 0.658846 0.713397 0.385576
Si Si5 0.157090 0.615687 0.355773
O O1 0.792038 0.090380 0.750000
O O2 0.787602 0.138495 0.600896
O O3 0.000000 0.084179 0.639891
O O4 0.784031 0.031929 0.611484
O O5 0.262816 0.764391 0.359389
O O6 0.148873 0.788991 0.506614
O O7 0.000000 0.802696 0.365201
O O8 0.839317 0.977815 0.750000
O O9 0.744244 0.931221 0.892647
O O10 0.000000 0.970009 0.888164
O O11 0.500000 0.709649 0.351268
O O12 0.753910 0.666106 0.362043
O O13 0.143212 0.605403 0.250000
O O14 0.000000 0.621158 0.393764
#
# Coordination Sequence:
#
# PCOD9471867 Si02
#       5
#    16  16  16  16  16
#     4   8  14  27  50  76  97 120 154 194 233 277
#     4   9  18  33  51  71  97 129 163 196 234 284
#     4   8  14  27  48  72  96 121 150 188 235 283
#     4  10  20  33  49  69  96 130 163 198 240 283
#     4  10  20  33  50  71  94 123 160 200 240 284
#
# _framework density 21.008827
#
# number of rings (size 3 to 8) (size 9 to 14) (size 15 to 20)
#    0.000    3.000    0.000    2.400    0.000    2.800 
#    0.000    4.000    0.000    7.200    0.000    0.000 
#    0.000    0.000    0.000    0.000    0.000    0.000 
#
# Total GULP energy -223049.439950 kJ/mol
# GULP energy per Si atom -5576.235999 kJ/mol
# Density = 2.096101 g / cm^3
# Si number density = 21.008827 Si / 1000 Ang^3
#
#
#
# Elastic Constant Matrix: (Units=GPa)
#
#
# Indices 1 2 3 4 5 6 
#
# 1 133.9473 104.9561 6.5533 0.0000 0.0000 0.0000
# 2 104.9561 200.6626 -2.2454 0.0000 0.0000 0.0000
# 3 6.5533 -2.2454 29.6409 0.0000 0.0000 0.0000
# 4 0.0000 0.0000 0.0000 26.5827 0.0000 0.0000
# 5 0.0000 0.0000 0.0000 0.0000 5.5176 0.0000
# 6 0.0000 0.0000 0.0000 0.0000 0.0000 34.7300
#
#
#
# Elastic Compliance Matrix: (Units=1/GPa)
#
#
# Indices 1 2 3 4 5 6 
#
# 1 0.012981 -0.006828 -0.003387 0.000000 0.000000 0.000000
# 2 -0.006828 0.008579 0.002159 0.000000 0.000000 0.000000
# 3 -0.003387 0.002159 0.034650 0.000000 0.000000 0.000000
# 4 0.000000 0.000000 0.000000 0.037619 0.000000 0.000000
# 5 0.000000 0.000000 0.000000 0.000000 0.181238 0.000000
# 6 0.000000 0.000000 0.000000 0.000000 0.000000 0.028794
#
#
# Mechanical properties :
#
#
# Convention : Reuss Voigt Hill
#
# Bulk Modulus (GPa) = 24.93845 64.75320 44.84583
# Shear Modulus (GPa) = 14.99983 30.36517 22.68250
#
# Velocity S-wave (km/s) = 2.67493 3.80590 3.28939
# Velocity P-wave (km/s) = 4.62997 7.08534 5.98492
#
# Compressibility (1/GPa) = 0.04009872
#
# Stress axis : x y z
#
# Youngs Moduli (GPa) = 77.03373 116.56509 28.86028
#
# Poissons Ratio (x) = 0.79588 0.09776
# Poissons Ratio (y) = 0.52597 -0.06232
# Poissons Ratio (z) = 0.26094 -0.25172
#
# Static dielectric constant tensor:
#      x y z
#    x 1.758070 0.000000 0.000000 
#    y 0.000000 1.752370 0.000000 
#    z 0.000000 0.000000 1.815330 
# 
# From -- ./inp_files/40441.got.cif
#   From: 2010.05.17/outbox.cif.g08.bks.cpg/sg63_21_cif.got.tgz:40441.got - 2010.06.03 15:47:04.
