data_PCOD9471769
_publ_section_title
;
Structure prediction by ZEFSAII (Michael W. Deem and Ramdas Pophale) SiO2 
 PCOD9471769
Probable space group: C M C M
;
_chemical_formula_sum "Si O2"
_cell_formula_units_Z 96
_cell_length_a 9.373219
_cell_length_b 25.765442
_cell_length_c 21.265841
_cell_angle_alpha 90.000000
_cell_angle_beta 90.000000
_cell_angle_gamma 90.000000
_cell_volume 5135.809706
_symmetry_space_group_name_H-M "C M C M"
_symmetry_group_IT_number 63
_symmetry_cell_setting 'orthorhombic'
loop_
_space_group_symop_operation_xyz
x,y,z
-x,-y,1/2+z
x,-y,-z
-x,y,1/2-z
-x,-y,-z
x,y,1/2-z
-x,y,z
x,-y,1/2+z
1/2+x,1/2+y,z
1/2-x,1/2-y,1/2+z
1/2+x,1/2-y,-z
1/2-x,1/2+y,1/2-z
1/2-x,1/2-y,-z
1/2+x,1/2+y,1/2-z
1/2-x,1/2+y,z
1/2+x,1/2-y,1/2+z
loop_
_atom_site_type_symbol
_atom_site_label
_atom_site_fract_x
_atom_site_fract_y
_atom_site_fract_z
Si Si1 0.825549 0.881634 0.750000
Si Si2 0.836607 0.302561 0.007552
Si Si3 0.173216 0.958886 0.639755
Si Si4 0.826688 0.237493 0.250000
Si Si5 0.329860 0.573811 0.633866
Si Si6 0.829914 0.903820 0.513211
Si Si7 0.163458 0.325484 0.155839
O O1 0.781162 0.914731 0.811199
O O2 0.775339 0.821856 0.750000
O O3 0.000000 0.880449 0.750000
O O4 0.837103 0.314868 0.081730
O O5 0.000000 0.297687 0.985981
O O6 0.750000 0.250000 0.000000
O O7 0.755103 0.350639 0.976245
O O8 0.210376 0.943582 0.568292
O O9 0.000000 0.960415 0.642128
O O10 0.220979 0.017153 0.655794
O O11 0.785040 0.273620 0.308963
O O12 0.000000 0.233880 0.250000
O O13 0.500000 0.577728 0.643171
O O14 0.304057 0.577031 0.558086
O O15 0.255027 0.622873 0.665749
O O16 0.000000 0.894081 0.518131
O O17 0.000000 0.334881 0.175473
#
# Coordination Sequence:
#
# PCOD9471769 Si02
#       7
#     8  16  16   8  16  16  16
#     4   9  18  29  46  73  99 129 172 215 248 290
#     4  10  20  32  49  74 102 130 166 208 250 296
#     4   9  17  29  48  74 104 134 168 208 250 297
#     4   9  18  33  51  71  99 131 170 211 248 294
#     4   9  17  31  51  78 106 129 162 206 255 304
#     4   9  17  30  50  74 102 134 164 201 252 301
#     4   9  19  34  52  74  98 129 169 208 245 293
#
# _framework density 18.692281999999999
#
# number of rings (size 3 to 8) (size 9 to 14) (size 15 to 20)
#    0.000    2.833    0.000    1.000    2.333    3.333 
#    0.000    2.083    0.000    4.000    0.000    1.750 
#    0.000    0.000    0.000    0.000    0.000    0.000 
#
# Total GULP energy -267494.481721 kJ/mol
# GULP energy per Si atom -5572.801703 kJ/mol
# Density = 1.864974 g / cm^3
# Si number density = 18.692282 Si / 1000 Ang^3
#
#
#
# Elastic Constant Matrix: (Units=GPa)
#
#
# Indices 1 2 3 4 5 6 
#
# 1 28.1902 47.5571 15.8165 0.0000 0.0000 0.0000
# 2 47.5571 195.3594 34.9143 0.0000 0.0000 0.0000
# 3 15.8165 34.9143 40.2815 0.0000 0.0000 0.0000
# 4 0.0000 0.0000 0.0000 22.2840 0.0000 0.0000
# 5 0.0000 0.0000 0.0000 0.0000 6.2462 0.0000
# 6 0.0000 0.0000 0.0000 0.0000 0.0000 29.6689
#
#
#
# Elastic Compliance Matrix: (Units=1/GPa)
#
#
# Indices 1 2 3 4 5 6 
#
# 1 0.066488 -0.013631 -0.014291 0.000000 0.000000 0.000000
# 2 -0.013631 0.008852 -0.002320 0.000000 0.000000 0.000000
# 3 -0.014291 -0.002320 0.032448 0.000000 0.000000 0.000000
# 4 0.000000 0.000000 0.000000 0.044875 0.000000 0.000000
# 5 0.000000 0.000000 0.000000 0.000000 0.160098 0.000000
# 6 0.000000 0.000000 0.000000 0.000000 0.000000 0.033705
#
#
# Mechanical properties :
#
#
# Convention : Reuss Voigt Hill
#
# Bulk Modulus (GPa) = 21.14078 51.15633 36.14855
# Shear Modulus (GPa) = 11.82819 22.67603 17.25211
#
# Velocity S-wave (km/s) = 2.51825 3.48677 3.04131
# Velocity P-wave (km/s) = 4.44858 6.60584 5.63147
#
# Compressibility (1/GPa) = 0.04730195
#
# Stress axis : x y z
#
# Youngs Moduli (GPa) = 15.04034 112.97258 30.81888
#
# Poissons Ratio (x) = 1.53996 0.44044
# Poissons Ratio (y) = 0.20502 0.07150
# Poissons Ratio (z) = 0.21495 0.26209
#
# Static dielectric constant tensor:
#      x y z
#    x 1.634530 0.000000 0.000000 
#    y 0.000000 1.640520 0.000000 
#    z 0.000000 0.000000 1.675770 
# 
# From -- ./inp_files/52909.got.cif
#   From: 2010.05.17/outbox.cif.g08.bks.cpg/sg63_27_cif.got.tgz:52909.got - 2010.06.03 15:47:04.
