data_PCOD9471779
_publ_section_title
;
Structure prediction by ZEFSAII (Michael W. Deem and Ramdas Pophale) SiO2 
 PCOD9471779
Probable space group: C M C M
;
_chemical_formula_sum "Si O2"
_cell_formula_units_Z 80
_cell_length_a 18.969164
_cell_length_b 27.568447
_cell_length_c 8.907114
_cell_angle_alpha 90.000000
_cell_angle_beta 90.000000
_cell_angle_gamma 90.000000
_cell_volume 4657.978761
_symmetry_space_group_name_H-M "C M C M"
_symmetry_group_IT_number 63
_symmetry_cell_setting 'orthorhombic'
loop_
_space_group_symop_operation_xyz
x,y,z
-x,-y,1/2+z
x,-y,-z
-x,y,1/2-z
-x,-y,-z
x,y,1/2-z
-x,y,z
x,-y,1/2+z
1/2+x,1/2+y,z
1/2-x,1/2-y,1/2+z
1/2+x,1/2-y,-z
1/2-x,1/2+y,1/2-z
1/2-x,1/2-y,-z
1/2+x,1/2+y,1/2-z
1/2-x,1/2+y,z
1/2+x,1/2-y,1/2+z
loop_
_atom_site_type_symbol
_atom_site_label
_atom_site_fract_x
_atom_site_fract_y
_atom_site_fract_z
Si Si1 0.920278 0.352357 0.430712
Si Si2 0.789594 0.106551 0.071219
Si Si3 0.720660 0.799211 0.070026
Si Si4 0.354253 0.052092 0.071486
Si Si5 0.080934 0.946764 0.428397
O O1 0.917136 0.357722 0.250000
O O2 0.860040 0.313396 0.472769
O O3 0.899700 0.403952 0.502962
O O4 0.000000 0.338632 0.472503
O O5 0.793478 0.113776 0.250000
O O6 0.727164 0.067502 0.042175
O O7 0.766102 0.155823 0.990982
O O8 0.862478 0.087484 0.005877
O O9 0.724465 0.796660 0.250000
O O10 0.750000 0.750000 0.000000
O O11 0.364734 0.050098 0.250000
O O12 0.369663 0.000000 0.000000
O O13 0.093499 0.949513 0.250000
O O14 0.000000 0.930924 0.452587
O O15 0.088230 0.000000 0.500000
#
# Coordination Sequence:
#
# PCOD9471779 Si02
#       5
#    16  16  16  16  16
#     4   9  19  36  56  77 102 133 169 209 253 300
#     4  10  20  34  53  76 102 134 174 217 260 308
#     4  10  20  36  58  80 103 132 169 214 262 312
#     4  10  20  32  49  75 105 138 174 209 248 297
#     4  10  20  33  50  74 105 140 176 214 259 310
#
# _framework density 17.174831999999999
#
# number of rings (size 3 to 8) (size 9 to 14) (size 15 to 20)
#    0.000    2.200    0.000    3.000    0.000    6.800 
#    0.000    1.000    0.000    3.600    0.000    0.000 
#    0.000    0.000    0.000    0.000    0.000    0.000 
#
# Total GULP energy -223251.087595 kJ/mol
# GULP energy per Si atom -5581.277190 kJ/mol
# Density = 1.713574 g / cm^3
# Si number density = 17.174832 Si / 1000 Ang^3
#
#
#
# Elastic Constant Matrix: (Units=GPa)
#
#
# Indices 1 2 3 4 5 6 
#
# 1 141.1856 77.4318 60.3253 0.0000 0.0000 0.0000
# 2 77.4318 112.2138 44.5130 0.0000 0.0000 0.0000
# 3 60.3253 44.5130 57.9373 0.0000 0.0000 0.0000
# 4 0.0000 0.0000 0.0000 34.1016 0.0000 0.0000
# 5 0.0000 0.0000 0.0000 0.0000 25.0928 0.0000
# 6 0.0000 0.0000 0.0000 0.0000 0.0000 9.6148
#
#
#
# Elastic Compliance Matrix: (Units=1/GPa)
#
#
# Indices 1 2 3 4 5 6 
#
# 1 0.015154 -0.006038 -0.011140 0.000000 0.000000 0.000000
# 2 -0.006038 0.015224 -0.005410 0.000000 0.000000 0.000000
# 3 -0.011140 -0.005410 0.033015 0.000000 0.000000 0.000000
# 4 0.000000 0.000000 0.000000 0.029324 0.000000 0.000000
# 5 0.000000 0.000000 0.000000 0.000000 0.039852 0.000000
# 6 0.000000 0.000000 0.000000 0.000000 0.000000 0.104007
#
#
# Mechanical properties :
#
#
# Convention : Reuss Voigt Hill
#
# Bulk Modulus (GPa) = 54.88948 75.09745 64.99347
# Shear Modulus (GPa) = 17.37175 22.36627 19.86901
#
# Velocity S-wave (km/s) = 3.18381 3.61261 3.40497
# Velocity P-wave (km/s) = 6.74864 7.82442 7.30635
#
# Compressibility (1/GPa) = 0.01821843
#
# Stress axis : x y z
#
# Youngs Moduli (GPa) = 65.98874 65.68629 30.28917
#
# Poissons Ratio (x) = 0.39661 0.33741
# Poissons Ratio (y) = 0.39844 0.16385
# Poissons Ratio (z) = 0.73510 0.35534
#
# Static dielectric constant tensor:
#      x y z
#    x 1.595060 0.000000 0.000000 
#    y 0.000000 1.546430 0.000000 
#    z 0.000000 0.000000 1.543560 
# 
# From -- ./inp_files/6366.got.cif
#   From: 2010.05.17/outbox.cif.g08.bks.cpg/sg63_4_cif.got.tgz:6366.got - 2010.06.03 15:47:04.
