data_PCOD9471222
_publ_section_title
;
Structure prediction by ZEFSAII (Michael W. Deem and Ramdas Pophale) SiO2 
 PCOD9471222
Probable space group: C M C M
;
_chemical_formula_sum "Si O2"
_cell_formula_units_Z 96
_cell_length_a 20.648231
_cell_length_b 22.054168
_cell_length_c 12.052086
_cell_angle_alpha 90.000000
_cell_angle_beta 90.000000
_cell_angle_gamma 90.000000
_cell_volume 5488.273564
_symmetry_space_group_name_H-M "C M C M"
_symmetry_group_IT_number 63
_symmetry_cell_setting 'orthorhombic'
loop_
_space_group_symop_operation_xyz
x,y,z
-x,-y,1/2+z
x,-y,-z
-x,y,1/2-z
-x,-y,-z
x,y,1/2-z
-x,y,z
x,-y,1/2+z
1/2+x,1/2+y,z
1/2-x,1/2-y,1/2+z
1/2+x,1/2-y,-z
1/2-x,1/2+y,1/2-z
1/2-x,1/2-y,-z
1/2+x,1/2+y,1/2-z
1/2-x,1/2+y,z
1/2+x,1/2-y,1/2+z
loop_
_atom_site_type_symbol
_atom_site_label
_atom_site_fract_x
_atom_site_fract_y
_atom_site_fract_z
Si Si1 0.688333 0.930715 0.969819
Si Si2 0.182790 0.033407 0.376999
Si Si3 0.231855 0.324363 0.120537
Si Si4 0.426071 0.636070 0.122935
Si Si5 0.642658 0.265217 0.476189
Si Si6 0.926893 0.349072 0.881132
O O1 0.747501 0.933138 0.882323
O O2 0.624469 0.896561 0.929554
O O3 0.716721 0.890391 0.070346
O O4 0.673656 0.000000 0.000000
O O5 0.178736 0.004718 0.250000
O O6 0.123735 0.080438 0.383456
O O7 0.181353 0.000000 0.500000
O O8 0.220271 0.323653 0.250000
O O9 0.184861 0.276219 0.060184
O O10 0.304783 0.303220 0.093408
O O11 0.423656 0.658597 0.250000
O O12 0.500000 0.617658 0.098993
O O13 0.402259 0.688536 0.042118
O O14 0.600622 0.217773 0.406610
O O15 0.928832 0.357798 0.750000
O O16 0.000000 0.355704 0.925887
#
# Coordination Sequence:
#
# PCOD9471222 Si02
#       6
#    16  16  16  16  16  16
#     4  10  21  37  57  82 109 147 188 238 282 334
#     4  10  21  38  58  83 111 149 193 240 288 339
#     4  10  20  33  55  83 111 142 185 235 286 336
#     4  10  20  35  56  80 110 147 186 228 279 339
#     4  10  19  35  53  80 111 145 182 227 283 335
#     4  10  21  36  55  80 111 147 184 228 285 345
#
# _framework density 17.491838999999999
#
# number of rings (size 3 to 8) (size 9 to 14) (size 15 to 20)
#    0.000    2.000    1.667    2.000    0.000    4.000 
#    0.000    0.000    0.000    6.500    0.000    0.000 
#    0.000    0.000    0.000    0.000    0.000    0.000 
#
# Total GULP energy -267402.334346 kJ/mol
# GULP energy per Si atom -5570.881966 kJ/mol
# Density = 1.745203 g / cm^3
# Si number density = 17.491839 Si / 1000 Ang^3
#
#
#
# Elastic Constant Matrix: (Units=GPa)
#
#
# Indices 1 2 3 4 5 6 
#
# 1 123.9916 36.4422 5.6113 0.0000 0.0000 0.0000
# 2 36.4422 73.7595 24.4121 0.0000 0.0000 0.0000
# 3 5.6113 24.4121 64.4492 0.0000 0.0000 0.0000
# 4 0.0000 0.0000 0.0000 13.0612 0.0000 0.0000
# 5 0.0000 0.0000 0.0000 0.0000 1.5113 0.0000
# 6 0.0000 0.0000 0.0000 0.0000 0.0000 -7.2340
#
#
#
# Elastic Compliance Matrix: (Units=1/GPa)
#
#
# Indices 1 2 3 4 5 6 
#
# 1 0.009501 -0.005054 0.001087 0.000000 0.000000 0.000000
# 2 -0.005054 0.018189 -0.006450 0.000000 0.000000 0.000000
# 3 0.001087 -0.006450 0.017864 0.000000 0.000000 0.000000
# 4 0.000000 0.000000 0.000000 0.076563 0.000000 0.000000
# 5 0.000000 0.000000 0.000000 0.000000 0.661664 0.000000
# 6 0.000000 0.000000 0.000000 0.000000 0.000000 -0.138236
#
#
# Mechanical properties :
#
#
# Convention : Reuss Voigt Hill
#
# Bulk Modulus (GPa) = 40.45020 43.90351 42.17685
# Shear Modulus (GPa) = 7.41158 14.51668 10.96413
#
# Velocity S-wave (km/s) = 2.06067 2.88394 2.50634
# Velocity P-wave (km/s) = 5.37003 6.02025 5.70441
#
# Compressibility (1/GPa) = 0.02472176
#
# Stress axis : x y z
#
# Youngs Moduli (GPa) = 105.24862 54.97733 55.97702
#
# Poissons Ratio (x) = 0.27786 -0.06086
# Poissons Ratio (y) = 0.53194 0.36104
# Poissons Ratio (z) = -0.11442 0.35459
#
# Static dielectric constant tensor:
#      x y z
#    x 1.596080 0.000000 0.000000 
#    y 0.000000 1.586180 0.000000 
#    z 0.000000 0.000000 1.603210 
# 
# From -- ./inp_files/21326.got.cif
#   From: 2010.05.17/outbox.cif.g08.bks.cpg/sg63_11_cif.got.tgz:21326.got - 2010.06.03 15:47:04.
