data_PCOD9471517
_publ_section_title
;
Structure prediction by ZEFSAII (Michael W. Deem and Ramdas Pophale) SiO2 
 PCOD9471517
Probable space group: C M C M
;
_chemical_formula_sum "Si O2"
_cell_formula_units_Z 104
_cell_length_a 20.389502
_cell_length_b 9.132053
_cell_length_c 23.858393
_cell_angle_alpha 90.000000
_cell_angle_beta 90.000000
_cell_angle_gamma 90.000000
_cell_volume 4442.385368
_symmetry_space_group_name_H-M "C M C M"
_symmetry_group_IT_number 63
_symmetry_cell_setting 'orthorhombic'
loop_
_space_group_symop_operation_xyz
x,y,z
-x,-y,1/2+z
x,-y,-z
-x,y,1/2-z
-x,-y,-z
x,y,1/2-z
-x,y,z
x,-y,1/2+z
1/2+x,1/2+y,z
1/2-x,1/2-y,1/2+z
1/2+x,1/2-y,-z
1/2-x,1/2+y,1/2-z
1/2-x,1/2-y,-z
1/2+x,1/2+y,1/2-z
1/2-x,1/2+y,z
1/2+x,1/2-y,1/2+z
loop_
_atom_site_type_symbol
_atom_site_label
_atom_site_fract_x
_atom_site_fract_y
_atom_site_fract_z
Si Si1 0.072191 0.655889 0.839876
Si Si2 0.333605 0.690492 0.750000
Si Si3 0.425542 0.494922 0.670503
Si Si4 0.110648 0.817052 0.424627
Si Si5 0.104740 0.657662 0.531967
Si Si6 0.755970 0.420496 0.441120
Si Si7 0.833047 0.407817 0.651941
O O1 0.084746 0.822821 0.822587
O O2 0.071322 0.655311 0.908009
O O3 0.129168 0.546377 0.821622
O O4 0.000000 0.611313 0.819624
O O5 0.371134 0.588437 0.702290
O O6 0.307368 0.801422 0.699953
O O7 0.500000 0.530671 0.688457
O O8 0.420557 0.545148 0.605803
O O9 0.084588 0.774896 0.485502
O O10 0.188522 0.844389 0.427288
O O11 0.109777 0.675317 0.383888
O O12 0.100876 0.500000 0.500000
O O13 0.181329 0.682627 0.547818
O O14 0.746365 0.500000 0.500000
O O15 0.779803 0.528332 0.391433
#
# Coordination Sequence:
#
# PCOD9471517 Si02
#       7
#    16   8  16  16  16  16  16
#     4  10  22  39  59  91 132 170 214 275 335 390
#     4  10  23  46  70  88 120 164 219 278 328 388
#     4  10  24  42  62  92 128 167 222 279 332 387
#     4  11  21  36  61  94 131 174 213 265 325 389
#     4  10  19  37  56  93 132 172 220 261 316 400
#     4  10  20  34  62  96 133 165 213 268 331 399
#     4  10  22  42  63  96 125 168 228 270 324 400
#
# _framework density 23.410844999999998
#
# number of rings (size 3 to 8) (size 9 to 14) (size 15 to 20)
#    0.000    1.846    4.615    0.692    2.154    5.846 
#    0.000    5.385    0.000    0.000    0.000    0.000 
#    0.000    0.000    0.000    0.000    0.000    0.000 
#
# Total GULP energy -289554.359707 kJ/mol
# GULP energy per Si atom -5568.353071 kJ/mol
# Density = 2.335756 g / cm^3
# Si number density = 23.410845 Si / 1000 Ang^3
#
#
#
# Elastic Constant Matrix: (Units=GPa)
#
#
# Indices 1 2 3 4 5 6 
#
# 1 51.0429 30.5395 4.4805 0.0000 0.0000 0.0000
# 2 30.5395 60.6521 6.6110 0.0000 0.0000 0.0000
# 3 4.4805 6.6110 104.4843 0.0000 0.0000 0.0000
# 4 0.0000 0.0000 0.0000 34.5408 0.0000 0.0000
# 5 0.0000 0.0000 0.0000 0.0000 37.3329 0.0000
# 6 0.0000 0.0000 0.0000 0.0000 0.0000 0.2318
#
#
#
# Elastic Compliance Matrix: (Units=1/GPa)
#
#
# Indices 1 2 3 4 5 6 
#
# 1 0.028048 -0.014089 -0.000311 0.000000 0.000000 0.000000
# 2 -0.014089 0.023679 -0.000894 0.000000 0.000000 0.000000
# 3 -0.000311 -0.000894 0.009641 0.000000 0.000000 0.000000
# 4 0.000000 0.000000 0.000000 0.028951 0.000000 0.000000
# 5 0.000000 0.000000 0.000000 0.000000 0.026786 0.000000
# 6 0.000000 0.000000 0.000000 0.000000 0.000000 4.314480
#
#
# Mechanical properties :
#
#
# Convention : Reuss Voigt Hill
#
# Bulk Modulus (GPa) = 32.48931 33.27125 32.88028
# Shear Modulus (GPa) = 1.11796 26.05766 13.58781
#
# Velocity S-wave (km/s) = 0.69179 3.33987 2.41178
# Velocity P-wave (km/s) = 3.81394 5.39590 4.67236
#
# Compressibility (1/GPa) = 0.03077936
#
# Stress axis : x y z
#
# Youngs Moduli (GPa) = 35.65292 42.23166 103.72650
#
# Poissons Ratio (x) = 0.59500 0.03229
# Poissons Ratio (y) = 0.50231 0.09274
# Poissons Ratio (z) = 0.01110 0.03776
#
# Static dielectric constant tensor:
#      x y z
#    x 1.880950 0.000000 0.000000 
#    y 0.000000 1.909840 0.000000 
#    z 0.000000 0.000000 1.927360 
# 
# From -- ./inp_files/70380.got.cif
#   From: 2010.05.17/outbox.cif.g08.bks.cpg/sg63_36_cif.got.tgz:70380.got - 2010.06.03 15:47:04.
