data_PCOD9471705
_publ_section_title
;
Structure prediction by ZEFSAII (Michael W. Deem and Ramdas Pophale) SiO2 
 PCOD9471705
Probable space group: C M C M
;
_chemical_formula_sum "Si O2"
_cell_formula_units_Z 112
_cell_length_a 31.026516
_cell_length_b 12.027773
_cell_length_c 14.282303
_cell_angle_alpha 90.000000
_cell_angle_beta 90.000000
_cell_angle_gamma 90.000000
_cell_volume 5329.868283
_symmetry_space_group_name_H-M "C M C M"
_symmetry_group_IT_number 63
_symmetry_cell_setting 'orthorhombic'
loop_
_space_group_symop_operation_xyz
x,y,z
-x,-y,1/2+z
x,-y,-z
-x,y,1/2-z
-x,-y,-z
x,y,1/2-z
-x,y,z
x,-y,1/2+z
1/2+x,1/2+y,z
1/2-x,1/2-y,1/2+z
1/2+x,1/2-y,-z
1/2-x,1/2+y,1/2-z
1/2-x,1/2-y,-z
1/2+x,1/2+y,1/2-z
1/2-x,1/2+y,z
1/2+x,1/2-y,1/2+z
loop_
_atom_site_type_symbol
_atom_site_label
_atom_site_fract_x
_atom_site_fract_y
_atom_site_fract_z
Si Si1 0.125604 0.571469 0.634577
Si Si2 0.669193 0.393985 0.137946
Si Si3 0.312962 0.261173 0.857739
Si Si4 0.337367 0.146892 0.144051
Si Si5 0.950927 0.734018 0.635359
Si Si6 0.751219 0.943823 0.592926
Si Si7 0.894508 0.071630 0.357712
O O1 0.126323 0.570533 0.750000
O O2 0.167439 0.645593 0.608535
O O3 0.131177 0.445343 0.600905
O O4 0.082640 0.637765 0.607227
O O5 0.665483 0.389703 0.250000
O O6 0.668460 0.268621 0.100024
O O7 0.712679 0.466001 0.124049
O O8 0.627813 0.462064 0.100623
O O9 0.296576 0.249235 0.750000
O O10 0.277436 0.328083 0.915063
O O11 0.354441 0.341992 0.853126
O O12 0.353113 0.165729 0.250000
O O13 0.290792 0.088257 0.150066
O O14 0.949602 0.737525 0.750000
O O15 0.000000 0.714548 0.606878
O O16 0.932827 0.853872 0.601517
O O17 0.734535 0.000000 0.500000
O O18 0.906675 0.044270 0.250000
#
# Coordination Sequence:
#
# PCOD9471705 Si02
#       7
#    16  16  16  16  16  16  16
#     4   8  15  27  44  66  89 118 155 191 221 264
#     4   9  18  33  49  63  85 122 164 194 220 270
#     4   8  14  28  47  62  82 118 159 189 222 267
#     4  10  20  32  47  63  84 126 169 192 220 269
#     4   8  12  20  40  70  98 117 137 177 232 277
#     4  11  22  32  44  65  92 118 151 207 244 272
#     4   7  11  22  40  61  84 112 144 179 217 260
#
# _framework density 21.013652
#
# number of rings (size 3 to 8) (size 9 to 14) (size 15 to 20)
#    0.000    3.286    0.000    3.857    2.000    0.571 
#    0.000    0.000    0.000    0.857    0.000    6.000 
#    0.000   46.857    0.000    0.000    0.000    0.000 
#
# Total GULP energy -312057.807120 kJ/mol
# GULP energy per Si atom -5572.460841 kJ/mol
# Density = 2.096582 g / cm^3
# Si number density = 21.013652 Si / 1000 Ang^3
#
#
#
# Elastic Constant Matrix: (Units=GPa)
#
#
# Indices 1 2 3 4 5 6 
#
# 1 103.2067 72.3442 10.1677 0.0000 0.0000 0.0000
# 2 72.3442 179.0592 16.0017 0.0000 0.0000 0.0000
# 3 10.1677 16.0017 39.0814 0.0000 0.0000 0.0000
# 4 0.0000 0.0000 0.0000 11.6157 0.0000 0.0000
# 5 0.0000 0.0000 0.0000 0.0000 0.9828 0.0000
# 6 0.0000 0.0000 0.0000 0.0000 0.0000 20.6202
#
#
#
# Elastic Compliance Matrix: (Units=1/GPa)
#
#
# Indices 1 2 3 4 5 6 
#
# 1 0.013584 -0.005369 -0.001336 0.000000 0.000000 0.000000
# 2 -0.005369 0.007919 -0.001846 0.000000 0.000000 0.000000
# 3 -0.001336 -0.001846 0.026691 0.000000 0.000000 0.000000
# 4 0.000000 0.000000 0.000000 0.086090 0.000000 0.000000
# 5 0.000000 0.000000 0.000000 0.000000 1.017520 0.000000
# 6 0.000000 0.000000 0.000000 0.000000 0.000000 0.048496
#
#
# Mechanical properties :
#
#
# Convention : Reuss Voigt Hill
#
# Bulk Modulus (GPa) = 32.16133 57.59716 44.87925
# Shear Modulus (GPa) = 4.07244 21.49933 12.78589
#
# Velocity S-wave (km/s) = 1.39363 3.20208 2.46937
# Velocity P-wave (km/s) = 4.23412 6.41405 5.43451
#
# Compressibility (1/GPa) = 0.03109324
#
# Stress axis : x y z
#
# Youngs Moduli (GPa) = 73.61384 126.28038 37.46604
#
# Poissons Ratio (x) = 0.67800 0.05005
# Poissons Ratio (y) = 0.39524 0.06914
# Poissons Ratio (z) = 0.09834 0.23305
#
# Static dielectric constant tensor:
#      x y z
#    x 1.722790 0.000000 0.000000 
#    y 0.000000 1.826170 0.000000 
#    z 0.000000 0.000000 1.820540 
# 
# From -- ./inp_files/38540.got.cif
#   From: 2010.05.17/outbox.cif.g08.bks.cpg/sg63_20_cif.got.tgz:38540.got - 2010.06.03 15:47:04.
