data_PCOD9471383
_publ_section_title
;
Structure prediction by ZEFSAII (Michael W. Deem and Ramdas Pophale) SiO2 
 PCOD9471383
Probable space group: C M C M
;
_chemical_formula_sum "Si O2"
_cell_formula_units_Z 104
_cell_length_a 22.525829
_cell_length_b 9.213012
_cell_length_c 28.398563
_cell_angle_alpha 90.000000
_cell_angle_beta 90.000000
_cell_angle_gamma 90.000000
_cell_volume 5893.574592
_symmetry_space_group_name_H-M "C M C M"
_symmetry_group_IT_number 63
_symmetry_cell_setting 'orthorhombic'
loop_
_space_group_symop_operation_xyz
x,y,z
-x,-y,1/2+z
x,-y,-z
-x,y,1/2-z
-x,-y,-z
x,y,1/2-z
-x,y,z
x,-y,1/2+z
1/2+x,1/2+y,z
1/2-x,1/2-y,1/2+z
1/2+x,1/2-y,-z
1/2-x,1/2+y,1/2-z
1/2-x,1/2-y,-z
1/2+x,1/2+y,1/2-z
1/2-x,1/2+y,z
1/2+x,1/2-y,1/2+z
loop_
_atom_site_type_symbol
_atom_site_label
_atom_site_fract_x
_atom_site_fract_y
_atom_site_fract_z
Si Si1 0.566699 0.744528 0.945166
Si Si2 0.240543 0.901539 0.140900
Si Si3 0.646307 0.176853 0.586266
Si Si4 0.163845 0.006265 0.052948
Si Si5 0.183704 0.360637 0.694241
Si Si6 0.874707 0.500000 0.500000
Si Si7 0.568038 0.962018 0.857775
O O1 0.500000 0.694146 0.953639
O O2 0.612425 0.613797 0.946366
O O3 0.585347 0.866811 0.982662
O O4 0.569091 0.830964 0.895724
O O5 0.298031 0.817108 0.121144
O O6 0.208240 0.966300 0.095074
O O7 0.197781 0.791190 0.168304
O O8 0.267731 0.025794 0.174193
O O9 0.638257 0.334353 0.563960
O O10 0.660678 0.061904 0.544504
O O11 0.591300 0.104889 0.614171
O O12 0.190253 0.000000 0.000000
O O13 0.188609 0.345543 0.750000
O O14 0.118727 0.421364 0.679791
O O15 0.500000 0.979103 0.841311
#
# Coordination Sequence:
#
# PCOD9471383 Si02
#       7
#    16  16  16  16  16   8  16
#     4  10  20  35  54  78 116 155 198 242 281 334
#     4  11  23  40  57  88 122 148 192 245 295 354
#     4  10  22  36  56  80 117 156 194 242 290 332
#     4  12  23  36  55  87 120 161 200 235 284 345
#     4  11  22  40  66  89 113 150 192 246 304 355
#     4  10  19  36  52  80 108 158 205 238 282 334
#     4   9  20  39  60  84 114 152 192 240 295 348
#
# _framework density 17.646336999999999
#
# number of rings (size 3 to 8) (size 9 to 14) (size 15 to 20)
#    0.000    1.538    4.615    0.692    1.077    2.462 
#    0.000    0.000    0.000    0.000    0.000    0.000 
#    0.000    0.000    0.000    0.000    0.000    0.000 
#
# Total GULP energy -290080.290260 kJ/mol
# GULP energy per Si atom -5578.467120 kJ/mol
# Density = 1.760617 g / cm^3
# Si number density = 17.646337 Si / 1000 Ang^3
#
#
#
# Elastic Constant Matrix: (Units=GPa)
#
#
# Indices 1 2 3 4 5 6 
#
# 1 105.4794 44.5621 49.0694 0.0000 0.0000 0.0000
# 2 44.5621 89.2592 33.8647 0.0000 0.0000 0.0000
# 3 49.0694 33.8647 112.2201 0.0000 0.0000 0.0000
# 4 0.0000 0.0000 0.0000 19.3385 0.0000 0.0000
# 5 0.0000 0.0000 0.0000 0.0000 15.0541 0.0000
# 6 0.0000 0.0000 0.0000 0.0000 0.0000 13.2795
#
#
#
# Elastic Compliance Matrix: (Units=1/GPa)
#
#
# Indices 1 2 3 4 5 6 
#
# 1 0.013732 -0.005169 -0.004445 0.000000 0.000000 0.000000
# 2 -0.005169 0.014598 -0.002145 0.000000 0.000000 0.000000
# 3 -0.004445 -0.002145 0.011502 0.000000 0.000000 0.000000
# 4 0.000000 0.000000 0.000000 0.051710 0.000000 0.000000
# 5 0.000000 0.000000 0.000000 0.000000 0.066427 0.000000
# 6 0.000000 0.000000 0.000000 0.000000 0.000000 0.075304
#
#
# Mechanical properties :
#
#
# Convention : Reuss Voigt Hill
#
# Bulk Modulus (GPa) = 61.29650 62.43901 61.86776
# Shear Modulus (GPa) = 19.06733 21.49859 20.28296
#
# Velocity S-wave (km/s) = 3.29070 3.49421 3.39398
# Velocity P-wave (km/s) = 7.01782 7.19303 7.10597
#
# Compressibility (1/GPa) = 0.01631415
#
# Stress axis : x y z
#
# Youngs Moduli (GPa) = 72.82232 68.50316 86.94361
#
# Poissons Ratio (x) = 0.35412 0.38642
# Poissons Ratio (y) = 0.37645 0.18648
# Poissons Ratio (z) = 0.32366 0.14693
#
# Static dielectric constant tensor:
#      x y z
#    x 1.595350 0.000000 0.000000 
#    y 0.000000 1.592720 0.000000 
#    z 0.000000 0.000000 1.603570 
# 
# From -- ./inp_files/74085.got.cif
#   From: 2010.05.17/outbox.cif.g08.bks.cpg/sg63_38_cif.got.tgz:74085.got - 2010.06.03 15:47:04.
