data_PCOD9471405
_publ_section_title
;
Structure prediction by ZEFSAII (Michael W. Deem and Ramdas Pophale) SiO2 
 PCOD9471405
Probable space group: C M C M
;
_chemical_formula_sum "Si O2"
_cell_formula_units_Z 44
_cell_length_a 20.465427
_cell_length_b 9.373854
_cell_length_c 9.747683
_cell_angle_alpha 90.000000
_cell_angle_beta 90.000000
_cell_angle_gamma 90.000000
_cell_volume 1869.994773
_symmetry_space_group_name_H-M "C M C M"
_symmetry_group_IT_number 63
_symmetry_cell_setting 'orthorhombic'
loop_
_space_group_symop_operation_xyz
x,y,z
-x,-y,1/2+z
x,-y,-z
-x,y,1/2-z
-x,-y,-z
x,y,1/2-z
-x,y,z
x,-y,1/2+z
1/2+x,1/2+y,z
1/2-x,1/2-y,1/2+z
1/2+x,1/2-y,-z
1/2-x,1/2+y,1/2-z
1/2-x,1/2-y,-z
1/2+x,1/2+y,1/2-z
1/2-x,1/2+y,z
1/2+x,1/2-y,1/2+z
loop_
_atom_site_type_symbol
_atom_site_label
_atom_site_fract_x
_atom_site_fract_y
_atom_site_fract_z
Si Si1 0.500000 0.393881 0.250000
Si Si2 0.572031 0.708764 0.008424
Si Si3 0.335535 0.603555 0.250000
Si Si4 0.769890 0.611906 0.750000
Si Si5 0.143410 0.500000 0.000000
O O1 0.444480 0.379288 0.372055
O O2 0.500000 0.722286 0.078233
O O3 0.622628 0.644422 0.116053
O O4 0.597811 0.864765 0.965118
O O5 0.302334 0.450381 0.250000
O O6 0.275364 0.717663 0.250000
O O7 0.809773 0.552645 0.620634
#
# Coordination Sequence:
#
# PCOD9471405 Si02
#       5
#     4  16   8   8   8
#     4   8  18  28  52  92 122 144 190 254 350 322
#     4   9  18  32  56  90 122 155 189 269 312 360
#     4  10  21  40  58  90 132 154 213 232 312 360
#     4  10  23  36  60  88 126 173 192 252 286 382
#     4  10  19  36  56  92 129 150 204 242 324 358
#
# _framework density 23.529478000000001
#
# number of rings (size 3 to 8) (size 9 to 14) (size 15 to 20)
#    1.091    1.455    0.000    2.182    0.000    5.818 
#    0.000    1.818    0.000    0.000    0.000   43.273 
#    0.000    0.000    0.000    0.000    0.000    0.000 
#
# Total GULP energy -122514.358688 kJ/mol
# GULP energy per Si atom -5568.834486 kJ/mol
# Density = 2.347592 g / cm^3
# Si number density = 23.529478 Si / 1000 Ang^3
#
#
#
# Elastic Constant Matrix: (Units=GPa)
#
#
# Indices 1 2 3 4 5 6 
#
# 1 125.7397 33.3764 9.3858 0.0000 0.0000 0.0000
# 2 33.3764 89.7677 0.9102 0.0000 0.0000 0.0000
# 3 9.3858 0.9102 121.7111 0.0000 0.0000 0.0000
# 4 0.0000 0.0000 0.0000-1058.1404 0.0000 0.0000
# 5 0.0000 0.0000 0.0000 0.0000 15.6009 0.0000
# 6 0.0000 0.0000 0.0000 0.0000 0.0000 11.8211
#
#
#
# Elastic Compliance Matrix: (Units=1/GPa)
#
#
# Indices 1 2 3 4 5 6 
#
# 1 0.008876 -0.003294 -0.000660 0.000000 0.000000 0.000000
# 2 -0.003294 0.012363 0.000162 0.000000 0.000000 0.000000
# 3 -0.000660 0.000162 0.008266 0.000000 0.000000 0.000000
# 4 0.000000 0.000000 0.000000 -0.000945 0.000000 0.000000
# 5 0.000000 0.000000 0.000000 0.000000 0.064099 0.000000
# 6 0.000000 0.000000 0.000000 0.000000 0.000000 0.084595
#
#
# Mechanical properties :
#
#
# Convention : Reuss Voigt Hill
#
# Bulk Modulus (GPa) = 45.61801 47.17369 46.39585
# Shear Modulus (GPa) = 26.02206 -186.57394 -80.27594
#
# Velocity S-wave (km/s) = 3.32917 -8.91436 -5.84733
# Velocity P-wave (km/s) = 5.84872 9.26618 5.08206
#
# Compressibility (1/GPa) = 0.02192117
#
# Stress axis : x y z
#
# Youngs Moduli (GPa) = 112.65744 80.88757 120.97965
#
# Poissons Ratio (x) = 0.26642 0.07983
# Poissons Ratio (y) = 0.37105 -0.01954
# Poissons Ratio (z) = 0.07434 -0.01307
#
# Static dielectric constant tensor:
#      x y z
#    x 1.904770 0.000000 0.000000 
#    y 0.000000 1.938160 0.000000 
#    z 0.000000 0.000000 1.827990 
# 
# From -- ./inp_files/9435.got.cif
#   From: 2010.05.17/outbox.cif.g08.bks.cpg/sg63_5_cif.got.tgz:9435.got - 2010.06.03 15:47:04.
