data_PCOD9471737
_publ_section_title
;
Structure prediction by ZEFSAII (Michael W. Deem and Ramdas Pophale) SiO2 
 PCOD9471737
Probable space group: C M C M
;
_chemical_formula_sum "Si O2"
_cell_formula_units_Z 96
_cell_length_a 9.212654
_cell_length_b 25.378275
_cell_length_c 25.545534
_cell_angle_alpha 90.000000
_cell_angle_beta 90.000000
_cell_angle_gamma 90.000000
_cell_volume 5972.578208
_symmetry_space_group_name_H-M "C M C M"
_symmetry_group_IT_number 63
_symmetry_cell_setting 'orthorhombic'
loop_
_space_group_symop_operation_xyz
x,y,z
-x,-y,1/2+z
x,-y,-z
-x,y,1/2-z
-x,-y,-z
x,y,1/2-z
-x,y,z
x,-y,1/2+z
1/2+x,1/2+y,z
1/2-x,1/2-y,1/2+z
1/2+x,1/2-y,-z
1/2-x,1/2+y,1/2-z
1/2-x,1/2-y,-z
1/2+x,1/2+y,1/2-z
1/2-x,1/2+y,z
1/2+x,1/2-y,1/2+z
loop_
_atom_site_type_symbol
_atom_site_label
_atom_site_fract_x
_atom_site_fract_y
_atom_site_fract_z
Si Si1 0.327615 0.564733 0.894164
Si Si2 0.328618 0.136394 0.312501
Si Si3 0.166116 0.758114 0.686511
Si Si4 0.672253 0.560924 0.392182
Si Si5 0.333006 0.936028 0.998964
Si Si6 0.674640 0.861003 0.311678
O O1 0.500000 0.573455 0.897370
O O2 0.304020 0.501974 0.886498
O O3 0.250543 0.580480 0.948592
O O4 0.257075 0.597297 0.847164
O O5 0.304392 0.130816 0.250000
O O6 0.500000 0.132298 0.322254
O O7 0.268873 0.193904 0.328825
O O8 0.242727 0.092443 0.344530
O O9 0.163495 0.757094 0.750000
O O10 0.210901 0.699004 0.671243
O O11 0.000000 0.767764 0.669175
O O12 0.500000 0.569913 0.394911
O O13 0.748835 0.578626 0.446110
O O14 0.500000 0.918023 0.998580
O O15 0.334431 0.000000 0.000000
O O16 0.709628 0.866937 0.250000
O O17 0.500000 0.866751 0.316731
#
# Coordination Sequence:
#
# PCOD9471737 Si02
#       6
#    16  16  16  16  16  16
#     4  10  20  32  48  72 100 129 161 197 238 284
#     4  10  20  32  48  72  99 127 161 200 240 283
#     4   8  15  30  50  69  91 123 162 199 236 281
#     4  10  20  33  49  70  98 130 162 197 238 285
#     4   9  17  31  51  71  92 122 161 201 238 280
#     4   9  18  32  50  72  98 129 163 198 238 284
#
# _framework density 16.073461000000002
#
# number of rings (size 3 to 8) (size 9 to 14) (size 15 to 20)
#    0.000    2.667    0.000    3.000    0.000    6.667 
#    0.000    5.000    0.000    1.000    0.000    0.000 
#    0.000    0.000    0.000    0.000    0.000    0.000 
#
# Total GULP energy -267531.370336 kJ/mol
# GULP energy per Si atom -5573.570215 kJ/mol
# Density = 1.603688 g / cm^3
# Si number density = 16.073461 Si / 1000 Ang^3
#
#
#
# Elastic Constant Matrix: (Units=GPa)
#
#
# Indices 1 2 3 4 5 6 
#
# 1 111.8207 70.9987 73.1856 0.0000 0.0000 0.0000
# 2 70.9987 72.1336 54.9434 0.0000 0.0000 0.0000
# 3 73.1856 54.9434 83.4223 0.0000 0.0000 0.0000
# 4 0.0000 0.0000 0.0000 -5.6167 0.0000 0.0000
# 5 0.0000 0.0000 0.0000 0.0000 29.5239 0.0000
# 6 0.0000 0.0000 0.0000 0.0000 0.0000 25.8982
#
#
#
# Elastic Compliance Matrix: (Units=1/GPa)
#
#
# Indices 1 2 3 4 5 6 
#
# 1 0.030159 -0.019127 -0.013861 0.000000 0.000000 0.000000
# 2 -0.019127 0.039949 -0.009531 0.000000 0.000000 0.000000
# 3 -0.013861 -0.009531 0.030425 0.000000 0.000000 0.000000
# 4 0.000000 0.000000 0.000000 -0.178040 0.000000 0.000000
# 5 0.000000 0.000000 0.000000 0.000000 0.033871 0.000000
# 6 0.000000 0.000000 0.000000 0.000000 0.000000 0.038613
#
#
# Mechanical properties :
#
#
# Convention : Reuss Voigt Hill
#
# Bulk Modulus (GPa) = 64.53874 73.95913 69.24893
# Shear Modulus (GPa) = 58.69978 14.51101 36.60540
#
# Velocity S-wave (km/s) = 6.04971 3.00791 4.77737
# Velocity P-wave (km/s) = 9.43600 7.62735 8.57947
#
# Compressibility (1/GPa) = 0.01549457
#
# Stress axis : x y z
#
# Youngs Moduli (GPa) = 33.15772 25.03195 32.86786
#
# Poissons Ratio (x) = 0.47878 0.45558
# Poissons Ratio (y) = 0.63420 0.31328
# Poissons Ratio (z) = 0.45960 0.23859
#
# Static dielectric constant tensor:
#      x y z
#    x 1.534700 0.000000 0.000000 
#    y 0.000000 1.530010 0.000000 
#    z 0.000000 0.000000 1.519180 
# 
# From -- ./inp_files/51349.got.cif
#   From: 2010.05.17/outbox.cif.g08.bks.cpg/sg63_26_cif.got.tgz:51349.got - 2010.06.03 15:47:04.
