data_PCOD9471582
_publ_section_title
;
Structure prediction by ZEFSAII (Michael W. Deem and Ramdas Pophale) SiO2 
 PCOD9471582
Probable space group: C M C M
;
_chemical_formula_sum "Si O2"
_cell_formula_units_Z 80
_cell_length_a 15.301074
_cell_length_b 18.874284
_cell_length_c 14.297084
_cell_angle_alpha 90.000000
_cell_angle_beta 90.000000
_cell_angle_gamma 90.000000
_cell_volume 4128.952340
_symmetry_space_group_name_H-M "C M C M"
_symmetry_group_IT_number 63
_symmetry_cell_setting 'orthorhombic'
loop_
_space_group_symop_operation_xyz
x,y,z
-x,-y,1/2+z
x,-y,-z
-x,y,1/2-z
-x,-y,-z
x,y,1/2-z
-x,y,z
x,-y,1/2+z
1/2+x,1/2+y,z
1/2-x,1/2-y,1/2+z
1/2+x,1/2-y,-z
1/2-x,1/2+y,1/2-z
1/2-x,1/2-y,-z
1/2+x,1/2+y,1/2-z
1/2-x,1/2+y,z
1/2+x,1/2-y,1/2+z
loop_
_atom_site_type_symbol
_atom_site_label
_atom_site_fract_x
_atom_site_fract_y
_atom_site_fract_z
Si Si1 0.662467 0.711871 0.535941
Si Si2 0.899961 0.129304 0.146780
Si Si3 0.743036 0.029955 0.102884
Si Si4 0.204628 0.374767 0.147060
Si Si5 0.400692 0.141205 0.459728
O O1 0.750000 0.750000 0.500000
O O2 0.618881 0.676786 0.444765
O O3 0.702295 0.655206 0.608364
O O4 0.607096 0.777550 0.574904
O O5 0.889920 0.164398 0.250000
O O6 0.828649 0.067204 0.142391
O O7 0.000000 0.104232 0.140888
O O8 0.710826 0.959519 0.152705
O O9 0.667427 0.089254 0.091904
O O10 0.763987 0.000000 0.000000
O O11 0.186300 0.345253 0.250000
O O12 0.131994 0.358287 0.068120
O O13 0.500000 0.116215 0.452614
#
# Coordination Sequence:
#
# PCOD9471582 Si02
#       5
#    16  16  16  16  16
#     4  10  19  39  57  84 119 158 190 242 303 354
#     4  11  22  36  60  90 115 148 198 251 300 352
#     4  10  19  39  60  86 121 164 195 241 298 356
#     4  10  21  37  61  88 120 163 202 243 295 350
#     4  10  21  38  62  89 121 160 200 246 301 356
#
# _framework density 19.375374999999998
#
# number of rings (size 3 to 8) (size 9 to 14) (size 15 to 20)
#    0.000    1.800    6.000    1.200    0.000    7.600 
#    0.000    0.000    0.000    7.800    0.000    0.000 
#    0.000    0.000    0.000    0.000    0.000    0.000 
#
# Total GULP energy -222796.521046 kJ/mol
# GULP energy per Si atom -5569.913026 kJ/mol
# Density = 1.933128 g / cm^3
# Si number density = 19.375375 Si / 1000 Ang^3
#
#
#
# Elastic Constant Matrix: (Units=GPa)
#
#
# Indices 1 2 3 4 5 6 
#
# 1 131.1551 24.2388 13.6440 0.0000 0.0000 0.0000
# 2 24.2388 79.4779 -1.1454 0.0000 0.0000 0.0000
# 3 13.6440 -1.1454 48.9878 0.0000 0.0000 0.0000
# 4 0.0000 0.0000 0.0000 -9.0821 0.0000 0.0000
# 5 0.0000 0.0000 0.0000 0.0000 -3.8515 0.0000
# 6 0.0000 0.0000 0.0000 0.0000 0.0000 8.5766
#
#
#
# Elastic Compliance Matrix: (Units=1/GPa)
#
#
# Indices 1 2 3 4 5 6 
#
# 1 0.008350 -0.002581 -0.002386 0.000000 0.000000 0.000000
# 2 -0.002581 0.013384 0.001032 0.000000 0.000000 0.000000
# 3 -0.002386 0.001032 0.021102 0.000000 0.000000 0.000000
# 4 0.000000 0.000000 0.000000 -0.110107 0.000000 0.000000
# 5 0.000000 0.000000 0.000000 0.000000 -0.259636 0.000000
# 6 0.000000 0.000000 0.000000 0.000000 0.000000 0.116596
#
#
# Mechanical properties :
#
#
# Convention : Reuss Voigt Hill
#
# Bulk Modulus (GPa) = 28.59943 37.01061 32.80502
# Shear Modulus (GPa) = -26.20746 13.98749 -6.10999
#
# Velocity S-wave (km/s) = -3.68178 2.68977 -1.77773
# Velocity P-wave (km/s) = 1.81143 5.36562 3.57131
#
# Compressibility (1/GPa) = 0.03496573
#
# Stress axis : x y z
#
# Youngs Moduli (GPa) = 119.76439 74.71568 47.38910
#
# Poissons Ratio (x) = 0.19283 0.11307
# Poissons Ratio (y) = 0.30909 -0.04889
# Poissons Ratio (z) = 0.28575 -0.07709
#
# Static dielectric constant tensor:
#      x y z
#    x 1.680990 0.000000 0.000000 
#    y 0.000000 1.731340 0.000000 
#    z 0.000000 0.000000 1.808810 
# 
# From -- ./inp_files/31655.got.cif
#   From: 2010.05.17/outbox.cif.g08.bks.cpg/sg63_16_cif.got.tgz:31655.got - 2010.06.03 15:47:04.
