data_PCOD9471991
_publ_section_title
;
Structure prediction by ZEFSAII (Michael W. Deem and Ramdas Pophale) SiO2 
 PCOD9471991
Probable space group: C M C M
;
_chemical_formula_sum "Si O2"
_cell_formula_units_Z 96
_cell_length_a 23.578796
_cell_length_b 26.542429
_cell_length_c 8.545866
_cell_angle_alpha 90.000000
_cell_angle_beta 90.000000
_cell_angle_gamma 90.000000
_cell_volume 5348.332119
_symmetry_space_group_name_H-M "C M C M"
_symmetry_group_IT_number 63
_symmetry_cell_setting 'orthorhombic'
loop_
_space_group_symop_operation_xyz
x,y,z
-x,-y,1/2+z
x,-y,-z
-x,y,1/2-z
-x,-y,-z
x,y,1/2-z
-x,y,z
x,-y,1/2+z
1/2+x,1/2+y,z
1/2-x,1/2-y,1/2+z
1/2+x,1/2-y,-z
1/2-x,1/2+y,1/2-z
1/2-x,1/2-y,-z
1/2+x,1/2+y,1/2-z
1/2-x,1/2+y,z
1/2+x,1/2-y,1/2+z
loop_
_atom_site_type_symbol
_atom_site_label
_atom_site_fract_x
_atom_site_fract_y
_atom_site_fract_z
Si Si1 0.242696 0.194950 0.932093
Si Si2 0.317244 0.555532 0.564240
Si Si3 0.809876 0.445506 0.564922
Si Si4 0.932791 0.747177 0.562583
Si Si5 0.868527 0.151534 0.432314
Si Si6 0.642996 0.157927 0.435269
O O1 0.274440 0.306436 0.250000
O O2 0.195370 0.170231 0.039690
O O3 0.303722 0.171398 0.957195
O O4 0.250000 0.250000 0.000000
O O5 0.330550 0.500000 0.500000
O O6 0.315046 0.554949 0.750000
O O7 0.252554 0.567204 0.506259
O O8 0.363819 0.596787 0.511597
O O9 0.826428 0.500000 0.500000
O O10 0.800374 0.449454 0.750000
O O11 0.857797 0.402563 0.540627
O O12 0.921439 0.743851 0.750000
O O13 0.906103 0.800969 0.508482
O O14 0.905279 0.697823 0.482769
O O15 0.000000 0.747850 0.537900
O O16 0.881844 0.144873 0.250000
O O17 0.655299 0.165685 0.250000
#
# Coordination Sequence:
#
# PCOD9471991 Si02
#       6
#    16  16  16  16  16  16
#     4  12  22  32  50  79 113 147 182 221 274 336
#     4  11  21  33  52  79 114 151 186 221 271 327
#     4  10  20  33  51  78 114 149 184 221 269 326
#     4  10  23  41  60  81 107 144 188 234 285 336
#     4  11  21  35  55  80 113 146 183 227 274 335
#     4  11  22  35  55  81 113 148 183 227 277 331
#
# _framework density 17.94952
#
# number of rings (size 3 to 8) (size 9 to 14) (size 15 to 20)
#    0.000    1.167    3.333    5.500    0.000    3.000 
#    0.000    0.000    0.000    1.000    0.000    0.000 
#    0.000    0.000    0.000    0.000    0.000    0.000 
#
# Total GULP energy -267496.172646 kJ/mol
# GULP energy per Si atom -5572.836930 kJ/mol
# Density = 1.790867 g / cm^3
# Si number density = 17.949520 Si / 1000 Ang^3
#
#
#
# Elastic Constant Matrix: (Units=GPa)
#
#
# Indices 1 2 3 4 5 6 
#
# 1 54.2931 46.2177 17.4353 0.0000 0.0000 0.0000
# 2 46.2177 166.4550 50.6705 0.0000 0.0000 0.0000
# 3 17.4353 50.6705 81.5618 0.0000 0.0000 0.0000
# 4 0.0000 0.0000 0.0000 20.8681 0.0000 0.0000
# 5 0.0000 0.0000 0.0000 0.0000 16.0966 0.0000
# 6 0.0000 0.0000 0.0000 0.0000 0.0000 12.2011
#
#
#
# Elastic Compliance Matrix: (Units=1/GPa)
#
#
# Indices 1 2 3 4 5 6 
#
# 1 0.024220 -0.006350 -0.001233 0.000000 0.000000 0.000000
# 2 -0.006350 0.009073 -0.004280 0.000000 0.000000 0.000000
# 3 -0.001233 -0.004280 0.015183 0.000000 0.000000 0.000000
# 4 0.000000 0.000000 0.000000 0.047920 0.000000 0.000000
# 5 0.000000 0.000000 0.000000 0.000000 0.062125 0.000000
# 6 0.000000 0.000000 0.000000 0.000000 0.000000 0.081960
#
#
# Mechanical properties :
#
#
# Convention : Reuss Voigt Hill
#
# Bulk Modulus (GPa) = 40.40044 58.99520 49.69782
# Shear Modulus (GPa) = 18.35166 22.36557 20.35861
#
# Velocity S-wave (km/s) = 3.20097 3.53374 3.37146
# Velocity P-wave (km/s) = 6.01817 7.04190 6.55006
#
# Compressibility (1/GPa) = 0.02475221
#
# Stress axis : x y z
#
# Youngs Moduli (GPa) = 41.28899 110.21277 65.86392
#
# Poissons Ratio (x) = 0.69980 0.08119
# Poissons Ratio (y) = 0.26217 0.28187
# Poissons Ratio (z) = 0.05090 0.47166
#
# Static dielectric constant tensor:
#      x y z
#    x 1.588810 0.000000 0.000000 
#    y 0.000000 1.671100 0.000000 
#    z 0.000000 0.000000 1.612030 
# 
# From -- ./inp_files/10449.got.cif
#   From: 2010.05.17/outbox.cif.g08.bks.cpg/sg63_6_cif.got.tgz:10449.got - 2010.06.03 15:47:04.
