data_PCOD9471826
_publ_section_title
;
Structure prediction by ZEFSAII (Michael W. Deem and Ramdas Pophale) SiO2 
 PCOD9471826
Probable space group: C M C M
;
_chemical_formula_sum "Si O2"
_cell_formula_units_Z 80
_cell_length_a 29.071924
_cell_length_b 10.584380
_cell_length_c 13.884044
_cell_angle_alpha 90.000000
_cell_angle_beta 90.000000
_cell_angle_gamma 90.000000
_cell_volume 4272.235451
_symmetry_space_group_name_H-M "C M C M"
_symmetry_group_IT_number 63
_symmetry_cell_setting 'orthorhombic'
loop_
_space_group_symop_operation_xyz
x,y,z
-x,-y,1/2+z
x,-y,-z
-x,y,1/2-z
-x,-y,-z
x,y,1/2-z
-x,y,z
x,-y,1/2+z
1/2+x,1/2+y,z
1/2-x,1/2-y,1/2+z
1/2+x,1/2-y,-z
1/2-x,1/2+y,1/2-z
1/2-x,1/2-y,-z
1/2+x,1/2+y,1/2-z
1/2-x,1/2+y,z
1/2+x,1/2-y,1/2+z
loop_
_atom_site_type_symbol
_atom_site_label
_atom_site_fract_x
_atom_site_fract_y
_atom_site_fract_z
Si Si1 0.639922 0.141506 0.465989
Si Si2 0.071598 0.063315 0.359540
Si Si3 0.833470 0.178245 0.356141
Si Si4 0.949481 0.794393 0.052628
Si Si5 0.238796 0.626763 0.063951
O O1 0.655357 0.221852 0.560307
O O2 0.594107 0.206407 0.426077
O O3 0.686156 0.140104 0.400678
O O4 0.629823 0.000000 0.500000
O O5 0.058565 0.094793 0.250000
O O6 0.127216 0.071671 0.366160
O O7 0.053930 0.159834 0.440816
O O8 0.055370 0.924169 0.387745
O O9 0.838892 0.235978 0.250000
O O10 0.782288 0.123425 0.365711
O O11 0.000000 0.738576 0.069772
O O12 0.239565 0.500000 0.000000
O O13 0.250000 0.750000 0.000000
#
# Coordination Sequence:
#
# PCOD9471826 Si02
#       5
#    16  16  16  16  16
#     4   9  19  36  52  70 105 144 174 214 268 312
#     4   9  18  32  52  79 109 132 165 225 280 318
#     4   9  18  32  54  80 103 133 174 220 265 321
#     4  10  20  32  53  78 102 139 182 220 264 323
#     4   9  18  31  52  73 100 142 173 207 261 321
#
# _framework density 18.725559000000001
#
# number of rings (size 3 to 8) (size 9 to 14) (size 15 to 20)
#    0.000    2.800    0.000    1.200    8.400    2.000 
#    0.000   11.000    0.000    0.000    0.000    2.800 
#    0.000    0.000    0.000    0.000    0.000    0.000 
#
# Total GULP energy -222711.236672 kJ/mol
# GULP energy per Si atom -5567.780917 kJ/mol
# Density = 1.868294 g / cm^3
# Si number density = 18.725559 Si / 1000 Ang^3
#
#
#
# Elastic Constant Matrix: (Units=GPa)
#
#
# Indices 1 2 3 4 5 6 
#
# 1 172.9584 33.4475 7.0343 0.0000 0.0000 0.0000
# 2 33.4475 63.0742 -10.3952 0.0000 0.0000 0.0000
# 3 7.0343 -10.3952 43.8981 0.0000 0.0000 0.0000
# 4 0.0000 0.0000 0.0000 5.9250 0.0000 0.0000
# 5 0.0000 0.0000 0.0000 0.0000 4.5614 0.0000
# 6 0.0000 0.0000 0.0000 0.0000 0.0000 -11.8007
#
#
#
# Elastic Compliance Matrix: (Units=1/GPa)
#
#
# Indices 1 2 3 4 5 6 
#
# 1 0.006601 -0.003824 -0.001963 0.000000 0.000000 0.000000
# 2 -0.003824 0.018714 0.005044 0.000000 0.000000 0.000000
# 3 -0.001963 0.005044 0.024289 0.000000 0.000000 0.000000
# 4 0.000000 0.000000 0.000000 0.168776 0.000000 0.000000
# 5 0.000000 0.000000 0.000000 0.000000 0.219230 0.000000
# 6 0.000000 0.000000 0.000000 0.000000 0.000000 -0.084741
#
#
# Mechanical properties :
#
#
# Convention : Reuss Voigt Hill
#
# Bulk Modulus (GPa) = 20.78254 37.78934 29.28594
# Shear Modulus (GPa) = 13.49913 16.39343 14.94628
#
# Velocity S-wave (km/s) = 2.68786 2.96202 2.82826
# Velocity P-wave (km/s) = 4.55580 5.65000 5.13215
#
# Compressibility (1/GPa) = 0.04811731
#
# Stress axis : x y z
#
# Youngs Moduli (GPa) = 151.48994 53.43732 41.17075
#
# Poissons Ratio (x) = 0.20435 0.08083
# Poissons Ratio (y) = 0.57931 -0.20767
# Poissons Ratio (z) = 0.29742 -0.26955
#
# Static dielectric constant tensor:
#      x y z
#    x 1.723520 0.000000 0.000000 
#    y 0.000000 1.603380 0.000000 
#    z 0.000000 0.000000 1.652560 
# 
# From -- ./inp_files/37717.got.cif
#   From: 2010.05.17/outbox.cif.g08.bks.cpg/sg63_19_cif.got.tgz:37717.got - 2010.06.03 15:47:04.
