data_PCOD9471610
_publ_section_title
;
Structure prediction by ZEFSAII (Michael W. Deem and Ramdas Pophale) SiO2 
 PCOD9471610
Probable space group: C M C M
;
_chemical_formula_sum "Si O2"
_cell_formula_units_Z 96
_cell_length_a 7.295026
_cell_length_b 34.368329
_cell_length_c 16.887880
_cell_angle_alpha 90.000000
_cell_angle_beta 90.000000
_cell_angle_gamma 90.000000
_cell_volume 4234.093026
_symmetry_space_group_name_H-M "C M C M"
_symmetry_group_IT_number 63
_symmetry_cell_setting 'orthorhombic'
loop_
_space_group_symop_operation_xyz
x,y,z
-x,-y,1/2+z
x,-y,-z
-x,y,1/2-z
-x,-y,-z
x,y,1/2-z
-x,y,z
x,-y,1/2+z
1/2+x,1/2+y,z
1/2-x,1/2-y,1/2+z
1/2+x,1/2-y,-z
1/2-x,1/2+y,1/2-z
1/2-x,1/2-y,-z
1/2+x,1/2+y,1/2-z
1/2-x,1/2+y,z
1/2+x,1/2-y,1/2+z
loop_
_atom_site_type_symbol
_atom_site_label
_atom_site_fract_x
_atom_site_fract_y
_atom_site_fract_z
Si Si1 0.223131 0.762331 0.156957
Si Si2 0.776308 0.983149 0.250000
Si Si3 0.219129 0.677600 0.342869
Si Si4 0.276562 0.478697 0.917703
Si Si5 0.777647 0.893480 0.250000
Si Si6 0.207519 0.107597 0.450018
Si Si7 0.775976 0.844332 0.097312
O O1 0.275214 0.766807 0.250000
O O2 0.282079 0.719888 0.126085
O O3 0.284201 0.799831 0.108100
O O4 0.000000 0.761913 0.157091
O O5 0.718425 0.938079 0.250000
O O6 0.000000 0.984202 0.250000
O O7 0.718046 0.002814 0.166595
O O8 0.258033 0.678331 0.250000
O O9 0.297672 0.638990 0.380595
O O10 0.000000 0.675522 0.353230
O O11 0.500000 0.480277 0.915417
O O12 0.215005 0.433820 0.924686
O O13 0.222344 0.500000 0.000000
O O14 0.722725 0.869266 0.173466
O O15 0.000000 0.894235 0.250000
O O16 0.291508 0.131964 0.521802
O O17 0.000000 0.098059 0.476086
O O18 0.000000 0.842781 0.094108
#
# Coordination Sequence:
#
# PCOD9471610 Si02
#       7
#    16   8  16  16   8  16  16
#     4   8  13  25  44  64  88 122 160 195 231 273
#     4   9  16  24  38  57  83 127 161 179 225 285
#     4   9  19  34  50  66  89 126 166 197 229 279
#     4   9  17  29  42  62  96 129 155 186 230 288
#     4   9  14  22  40  65  93 121 157 197 231 273
#     4  10  20  30  46  73 101 124 152 196 244 280
#     4   9  15  24  41  68  96 121 152 196 239 275
#
# _framework density 22.673095
#
# number of rings (size 3 to 8) (size 9 to 14) (size 15 to 20)
#    0.000    3.000    0.833    2.000    1.167    5.000 
#    0.000    0.000    0.000    0.500    0.000    0.583 
#    0.000    0.000    0.000    0.000    0.000    0.000 
#
# Total GULP energy -267917.272427 kJ/mol
# GULP energy per Si atom -5581.609842 kJ/mol
# Density = 2.262149 g / cm^3
# Si number density = 22.673095 Si / 1000 Ang^3
#
#
#
# Elastic Constant Matrix: (Units=GPa)
#
#
# Indices 1 2 3 4 5 6 
#
# 1 86.0313 7.6333 10.2939 0.0000 0.0000 0.0000
# 2 7.6333 229.0702 77.3690 0.0000 0.0000 0.0000
# 3 10.2939 77.3690 91.0791 0.0000 0.0000 0.0000
# 4 0.0000 0.0000 0.0000 29.5918 0.0000 0.0000
# 5 0.0000 0.0000 0.0000 0.0000 -8.8785 0.0000
# 6 0.0000 0.0000 0.0000 0.0000 0.0000 15.6623
#
#
#
# Elastic Compliance Matrix: (Units=1/GPa)
#
#
# Indices 1 2 3 4 5 6 
#
# 1 0.011784 0.000080 -0.001400 0.000000 0.000000 0.000000
# 2 0.000080 0.006122 -0.005210 0.000000 0.000000 0.000000
# 3 -0.001400 -0.005210 0.015563 0.000000 0.000000 0.000000
# 4 0.000000 0.000000 0.000000 0.033793 0.000000 0.000000
# 5 0.000000 0.000000 0.000000 0.000000 -0.112632 0.000000
# 6 0.000000 0.000000 0.000000 0.000000 0.000000 0.063848
#
#
# Mechanical properties :
#
#
# Convention : Reuss Voigt Hill
#
# Bulk Modulus (GPa) = 48.99440 66.30809 57.65125
# Shear Modulus (GPa) = 130.40735 28.00076 79.20405
#
# Velocity S-wave (km/s) = 7.59218 3.51804 5.91683
# Velocity P-wave (km/s) = 9.92527 6.76837 8.49476
#
# Compressibility (1/GPa) = 0.02041050
#
# Stress axis : x y z
#
# Youngs Moduli (GPa) = 84.86036 163.33294 64.25347
#
# Poissons Ratio (x) = -0.01309 0.08995
# Poissons Ratio (y) = -0.00680 0.33475
# Poissons Ratio (z) = 0.11880 0.85095
#
# Static dielectric constant tensor:
#      x y z
#    x 1.934320 0.000000 0.000000 
#    y 0.000000 1.810970 0.000000 
#    z 0.000000 0.000000 1.959790 
# 
# From -- ./inp_files/42744.got.cif
#   From: 2010.05.17/outbox.cif.g08.bks.cpg/sg63_22_cif.got.tgz:42744.got - 2010.06.03 15:47:04.
