data_PCOD9471126
_publ_section_title
;
Structure prediction by ZEFSAII (Michael W. Deem and Ramdas Pophale) SiO2 
 PCOD9471126
Probable space group: C M C M
;
_chemical_formula_sum "Si O2"
_cell_formula_units_Z 112
_cell_length_a 28.271399
_cell_length_b 14.661797
_cell_length_c 14.619279
_cell_angle_alpha 90.000000
_cell_angle_beta 90.000000
_cell_angle_gamma 90.000000
_cell_volume 6059.830219
_symmetry_space_group_name_H-M "C M C M"
_symmetry_group_IT_number 63
_symmetry_cell_setting 'orthorhombic'
loop_
_space_group_symop_operation_xyz
x,y,z
-x,-y,1/2+z
x,-y,-z
-x,y,1/2-z
-x,-y,-z
x,y,1/2-z
-x,y,z
x,-y,1/2+z
1/2+x,1/2+y,z
1/2-x,1/2-y,1/2+z
1/2+x,1/2-y,-z
1/2-x,1/2+y,1/2-z
1/2-x,1/2-y,-z
1/2+x,1/2+y,1/2-z
1/2-x,1/2+y,z
1/2+x,1/2-y,1/2+z
loop_
_atom_site_type_symbol
_atom_site_label
_atom_site_fract_x
_atom_site_fract_y
_atom_site_fract_z
Si Si1 0.822879 0.040156 0.852491
Si Si2 0.592668 0.397010 0.475717
Si Si3 0.135217 0.837639 0.851391
Si Si4 0.052607 0.735403 0.358340
Si Si5 0.301156 0.785014 0.027307
Si Si6 0.289179 0.037288 0.856917
Si Si7 0.350435 0.852614 0.855821
O O1 0.826830 0.082836 0.750000
O O2 0.854984 0.088638 0.929403
O O3 0.767379 0.024739 0.872445
O O4 0.845764 0.940444 0.846180
O O5 0.575483 0.500000 0.500000
O O6 0.595533 0.342635 0.571070
O O7 0.564838 0.331173 0.407392
O O8 0.121468 0.807304 0.750000
O O9 0.176402 0.777708 0.894961
O O10 0.052753 0.753029 0.250000
O O11 0.093363 0.659034 0.372856
O O12 0.000000 0.705303 0.385768
O O13 0.302464 0.885001 0.071693
O O14 0.250000 0.750000 0.000000
O O15 0.328808 0.787332 0.932070
O O16 0.293999 0.065918 0.750000
O O17 0.322737 0.948758 0.867337
O O18 0.341803 0.825584 0.750000
#
# Coordination Sequence:
#
# PCOD9471126 Si02
#       7
#    16  16  16  16  16  16  16
#     4   9  18  33  51  76 115 154 190 232 284 357
#     4  10  19  34  57  83 115 150 190 238 305 367
#     4  10  20  33  48  72 108 150 188 227 280 348
#     4  10  21  39  64  91 115 147 200 261 313 358
#     4  12  22  33  53  81 114 154 197 238 287 351
#     4  10  21  35  53  81 117 156 195 237 289 351
#     4  10  22  39  57  81 114 153 194 248 301 348
#
# _framework density 18.482365999999999
#
# number of rings (size 3 to 8) (size 9 to 14) (size 15 to 20)
#    0.000    1.857    1.429    3.000    0.000    5.429 
#    0.000    0.000    0.000    2.143    0.000    0.000 
#    0.000    0.000    0.000    0.000    0.000    0.000 
#
# Total GULP energy -312010.471667 kJ/mol
# GULP energy per Si atom -5571.615565 kJ/mol
# Density = 1.844030 g / cm^3
# Si number density = 18.482366 Si / 1000 Ang^3
#
#
#
# Elastic Constant Matrix: (Units=GPa)
#
#
# Indices 1 2 3 4 5 6 
#
# 1 89.3027 18.7214 40.0409 0.0000 0.0000 0.0000
# 2 18.7214 52.4256 27.9936 0.0000 0.0000 0.0000
# 3 40.0409 27.9936 101.5403 0.0000 0.0000 0.0000
# 4 0.0000 0.0000 0.0000 20.0756 0.0000 0.0000
# 5 0.0000 0.0000 0.0000 0.0000 17.5185 0.0000
# 6 0.0000 0.0000 0.0000 0.0000 0.0000 19.0245
#
#
#
# Elastic Compliance Matrix: (Units=1/GPa)
#
#
# Indices 1 2 3 4 5 6 
#
# 1 0.013852 -0.002380 -0.004806 0.000000 0.000000 0.000000
# 2 -0.002380 0.022776 -0.005341 0.000000 0.000000 0.000000
# 3 -0.004806 -0.005341 0.013216 0.000000 0.000000 0.000000
# 4 0.000000 0.000000 0.000000 0.049812 0.000000 0.000000
# 5 0.000000 0.000000 0.000000 0.000000 0.057083 0.000000
# 6 0.000000 0.000000 0.000000 0.000000 0.000000 0.052564
#
#
# Mechanical properties :
#
#
# Convention : Reuss Voigt Hill
#
# Bulk Modulus (GPa) = 40.33850 46.30892 43.32371
# Shear Modulus (GPa) = 20.60842 21.75788 21.18315
#
# Velocity S-wave (km/s) = 3.34283 3.43479 3.38912
# Velocity P-wave (km/s) = 6.06400 6.39066 6.22947
#
# Compressibility (1/GPa) = 0.02479022
#
# Stress axis : x y z
#
# Youngs Moduli (GPa) = 72.19302 43.90521 75.66684
#
# Poissons Ratio (x) = 0.10451 0.36366
# Poissons Ratio (y) = 0.17184 0.40410
# Poissons Ratio (z) = 0.34696 0.23448
#
# Static dielectric constant tensor:
#      x y z
#    x 1.659420 0.000000 0.000000 
#    y 0.000000 1.642090 0.000000 
#    z 0.000000 0.000000 1.695160 
# 
# From -- ./inp_files/37961.got.cif
#   From: 2010.05.17/outbox.cif.g08.bks.cpg/sg63_19_cif.got.tgz:37961.got - 2010.06.03 15:47:04.
