data_PCOD9471614
_publ_section_title
;
Structure prediction by ZEFSAII (Michael W. Deem and Ramdas Pophale) SiO2 
 PCOD9471614
Probable space group: C M C M
;
_chemical_formula_sum "Si O2"
_cell_formula_units_Z 116
_cell_length_a 7.351864
_cell_length_b 29.561441
_cell_length_c 23.105279
_cell_angle_alpha 90.000000
_cell_angle_beta 90.000000
_cell_angle_gamma 90.000000
_cell_volume 5021.509423
_symmetry_space_group_name_H-M "C M C M"
_symmetry_group_IT_number 63
_symmetry_cell_setting 'orthorhombic'
loop_
_space_group_symop_operation_xyz
x,y,z
-x,-y,1/2+z
x,-y,-z
-x,y,1/2-z
-x,-y,-z
x,y,1/2-z
-x,y,z
x,-y,1/2+z
1/2+x,1/2+y,z
1/2-x,1/2-y,1/2+z
1/2+x,1/2-y,-z
1/2-x,1/2+y,1/2-z
1/2-x,1/2-y,-z
1/2+x,1/2+y,1/2-z
1/2-x,1/2+y,z
1/2+x,1/2-y,1/2+z
loop_
_atom_site_type_symbol
_atom_site_label
_atom_site_fract_x
_atom_site_fract_y
_atom_site_fract_z
Si Si1 0.703303 0.215699 0.069185
Si Si2 0.287112 0.666102 0.313528
Si Si3 0.219563 0.608834 0.615029
Si Si4 0.500000 0.769708 0.250000
Si Si5 0.277278 0.126136 0.014475
Si Si6 0.713178 0.710442 0.851792
Si Si7 0.780638 0.574199 0.370896
Si Si8 0.722322 0.019863 0.683026
O O1 0.500000 0.223983 0.047075
O O2 0.698766 0.189784 0.131450
O O3 0.788349 0.177175 0.028828
O O4 0.777591 0.264133 0.088978
O O5 0.213896 0.676807 0.250000
O O6 0.500000 0.678865 0.313222
O O7 0.273763 0.612653 0.325124
O O8 0.279243 0.609282 0.548259
O O9 0.272435 0.656646 0.642270
O O10 0.281996 0.565598 0.651244
O O11 0.000000 0.607435 0.614890
O O12 0.658938 0.773446 0.300447
O O13 0.500000 0.127813 0.016026
O O14 0.220417 0.092920 0.066544
O O15 0.500000 0.721640 0.843432
O O16 0.718527 0.524934 0.351315
O O17 0.000000 0.573278 0.372113
O O18 0.778411 0.018417 0.750000
O O19 0.500000 0.019795 0.682840
#
# Coordination Sequence:
#
# PCOD9471614 Si02
#       8
#    16  16  16   4  16  16  16  16
#     4   9  20  37  55  82 117 153 201 252 303 371
#     4  10  20  30  48  76 110 146 191 241 302 374
#     4  10  20  36  59  85 118 164 212 263 318 366
#     4  12  26  44  68  90 132 166 206 266 314 366
#     4   8  16  33  57  84 117 156 205 261 312 369
#     4  11  25  42  64  93 125 167 211 256 313 374
#     4   9  17  33  53  77 111 152 198 252 310 370
#     4   9  18  30  52  83 116 156 207 257 313 378
#
# _framework density 23.100622000000001
#
# number of rings (size 3 to 8) (size 9 to 14) (size 15 to 20)
#    0.000    2.483    0.690    1.862    2.897    2.759 
#    0.000    6.207    0.000    0.828    0.000    4.828 
#    0.000    0.000    0.000    0.000    0.000    0.000 
#
# Total GULP energy -323633.791992 kJ/mol
# GULP energy per Si atom -5579.892965 kJ/mol
# Density = 2.304804 g / cm^3
# Si number density = 23.100622 Si / 1000 Ang^3
#
#
#
# Elastic Constant Matrix: (Units=GPa)
#
#
# Indices 1 2 3 4 5 6 
#
# 1 110.1218 11.7760 25.4951 0.0000 0.0000 0.0000
# 2 11.7760 176.3045 57.9514 0.0000 0.0000 0.0000
# 3 25.4951 57.9514 120.8388 0.0000 0.0000 0.0000
# 4 0.0000 0.0000 0.0000 -36.6720 0.0000 0.0000
# 5 0.0000 0.0000 0.0000 0.0000 2.7417 0.0000
# 6 0.0000 0.0000 0.0000 0.0000 0.0000 12.3974
#
#
#
# Elastic Compliance Matrix: (Units=1/GPa)
#
#
# Indices 1 2 3 4 5 6 
#
# 1 0.009547 0.000029 -0.002028 0.000000 0.000000 0.000000
# 2 0.000029 0.006734 -0.003235 0.000000 0.000000 0.000000
# 3 -0.002028 -0.003235 0.010255 0.000000 0.000000 0.000000
# 4 0.000000 0.000000 0.000000 -0.027269 0.000000 0.000000
# 5 0.000000 0.000000 0.000000 0.000000 0.364733 0.000000
# 6 0.000000 0.000000 0.000000 0.000000 0.000000 0.080662
#
#
# Mechanical properties :
#
#
# Convention : Reuss Voigt Hill
#
# Bulk Modulus (GPa) = 62.24075 66.41226 64.32650
# Shear Modulus (GPa) = 10.85806 16.49624 13.67715
#
# Velocity S-wave (km/s) = 2.17038 2.67517 2.43589
# Velocity P-wave (km/s) = 5.76910 6.19303 5.98482
#
# Compressibility (1/GPa) = 0.01606665
#
# Stress axis : x y z
#
# Youngs Moduli (GPa) = 104.74137 148.51040 97.51327
#
# Poissons Ratio (x) = -0.00430 0.19778
# Poissons Ratio (y) = -0.00304 0.31549
# Poissons Ratio (z) = 0.21244 0.48048
#
# Static dielectric constant tensor:
#      x y z
#    x 1.882480 0.000000 0.000000 
#    y 0.000000 1.866610 0.000000 
#    z 0.000000 0.000000 1.965590 
# 
# From -- ./inp_files/60595.got.cif
#   From: 2010.05.17/outbox.cif.g08.bks.cpg/sg63_31_cif.got.tgz:60595.got - 2010.06.03 15:47:04.
