data_PCOD9471784
_publ_section_title
;
Structure prediction by ZEFSAII (Michael W. Deem and Ramdas Pophale) SiO2 
 PCOD9471784
Probable space group: C M C M
;
_chemical_formula_sum "Si O2"
_cell_formula_units_Z 96
_cell_length_a 7.869154
_cell_length_b 26.148097
_cell_length_c 24.481119
_cell_angle_alpha 90.000000
_cell_angle_beta 90.000000
_cell_angle_gamma 90.000000
_cell_volume 5037.318333
_symmetry_space_group_name_H-M "C M C M"
_symmetry_group_IT_number 63
_symmetry_cell_setting 'orthorhombic'
loop_
_space_group_symop_operation_xyz
x,y,z
-x,-y,1/2+z
x,-y,-z
-x,y,1/2-z
-x,-y,-z
x,y,1/2-z
-x,y,z
x,-y,1/2+z
1/2+x,1/2+y,z
1/2-x,1/2-y,1/2+z
1/2+x,1/2-y,-z
1/2-x,1/2+y,1/2-z
1/2-x,1/2-y,-z
1/2+x,1/2+y,1/2-z
1/2-x,1/2+y,z
1/2+x,1/2-y,1/2+z
loop_
_atom_site_type_symbol
_atom_site_label
_atom_site_fract_x
_atom_site_fract_y
_atom_site_fract_z
Si Si1 0.202643 0.559251 0.811800
Si Si2 0.703426 0.649116 0.115202
Si Si3 0.206012 0.746838 0.312562
Si Si4 0.704154 0.556727 0.187980
Si Si5 0.703714 0.656057 0.617891
Si Si6 0.705410 0.690011 0.500069
O O1 0.268938 0.570011 0.750000
O O2 0.257231 0.501826 0.826633
O O3 0.257980 0.602236 0.854173
O O4 0.000000 0.560052 0.809398
O O5 0.500000 0.643120 0.109895
O O6 0.737319 0.697175 0.154371
O O7 0.770558 0.598281 0.145028
O O8 0.770580 0.662992 0.055026
O O9 0.264781 0.745712 0.250000
O O10 0.266750 0.797660 0.343809
O O11 0.000000 0.747485 0.312191
O O12 0.768940 0.565822 0.250000
O O13 0.500000 0.562142 0.190041
O O14 0.500000 0.661045 0.615553
O O15 0.767739 0.664470 0.556280
O O16 0.500000 0.686831 0.499384
O O17 0.750000 0.750000 0.500000
#
# Coordination Sequence:
#
# PCOD9471784 Si02
#       6
#    16  16  16  16  16  16
#     4  10  21  36  55  80 106 134 174 223 270 313
#     4  10  20  34  54  80 107 137 177 221 264 310
#     4  10  20  32  49  76 108 140 174 214 262 317
#     4   9  18  34  55  77 104 139 174 211 263 322
#     4  10  20  35  54  76 105 143 181 213 258 319
#     4  10  20  35  55  78 106 142 181 218 259 310
#
# _framework density 19.057759000000001
#
# number of rings (size 3 to 8) (size 9 to 14) (size 15 to 20)
#    0.000    2.167    1.667    1.500    0.000    4.667 
#    0.000    2.500    0.000    5.000    0.000    0.000 
#    0.000    0.000    0.000    0.000    0.000    0.000 
#
# Total GULP energy -267949.790858 kJ/mol
# GULP energy per Si atom -5582.287310 kJ/mol
# Density = 1.901438 g / cm^3
# Si number density = 19.057759 Si / 1000 Ang^3
#
#
#
# Elastic Constant Matrix: (Units=GPa)
#
#
# Indices 1 2 3 4 5 6 
#
# 1 15.2746 -3.8267 7.8894 0.0000 0.0000 0.0000
# 2 -3.8267 163.8366 126.4031 0.0000 0.0000 0.0000
# 3 7.8894 126.4031 197.4734 0.0000 0.0000 0.0000
# 4 0.0000 0.0000 0.0000 23.1839 0.0000 0.0000
# 5 0.0000 0.0000 0.0000 0.0000 16.0891 0.0000
# 6 0.0000 0.0000 0.0000 0.0000 0.0000 -1.1714
#
#
#
# Elastic Compliance Matrix: (Units=1/GPa)
#
#
# Indices 1 2 3 4 5 6 
#
# 1 0.071382 0.007641 -0.007743 0.000000 0.000000 0.000000
# 2 0.007641 0.012877 -0.008548 0.000000 0.000000 0.000000
# 3 -0.007743 -0.008548 0.010845 0.000000 0.000000 0.000000
# 4 0.000000 0.000000 0.000000 0.043133 0.000000 0.000000
# 5 0.000000 0.000000 0.000000 0.000000 0.062154 0.000000
# 6 0.000000 0.000000 0.000000 0.000000 0.000000 -0.853655
#
#
# Mechanical properties :
#
#
# Convention : Reuss Voigt Hill
#
# Bulk Modulus (GPa) = 12.85278 70.83513 41.84395
# Shear Modulus (GPa) = -8.19632 24.02823 7.91595
#
# Velocity S-wave (km/s) = -2.07608 3.55464 2.04027
# Velocity P-wave (km/s) = 1.00595 7.35504 5.24922
#
# Compressibility (1/GPa) = 0.07780417
#
# Stress axis : x y z
#
# Youngs Moduli (GPa) = 14.00918 77.65839 92.21022
#
# Poissons Ratio (x) = -0.59339 0.71397
# Poissons Ratio (y) = -0.10704 0.78820
# Poissons Ratio (z) = 0.10847 0.66381
#
# Static dielectric constant tensor:
#      x y z
#    x 1.695560 0.000000 0.000000 
#    y 0.000000 1.624640 0.000000 
#    z 0.000000 0.000000 1.673440 
# 
# From -- ./inp_files/51430.got.cif
#   From: 2010.05.17/outbox.cif.g08.bks.cpg/sg63_26_cif.got.tgz:51430.got - 2010.06.03 15:47:04.
