data_PCOD9471666
_publ_section_title
;
Structure prediction by ZEFSAII (Michael W. Deem and Ramdas Pophale) SiO2 
 PCOD9471666
Probable space group: C M C M
;
_chemical_formula_sum "Si O2"
_cell_formula_units_Z 96
_cell_length_a 15.137666
_cell_length_b 21.966993
_cell_length_c 14.177215
_cell_angle_alpha 90.000000
_cell_angle_beta 90.000000
_cell_angle_gamma 90.000000
_cell_volume 4714.335170
_symmetry_space_group_name_H-M "C M C M"
_symmetry_group_IT_number 63
_symmetry_cell_setting 'orthorhombic'
loop_
_space_group_symop_operation_xyz
x,y,z
-x,-y,1/2+z
x,-y,-z
-x,y,1/2-z
-x,-y,-z
x,y,1/2-z
-x,y,z
x,-y,1/2+z
1/2+x,1/2+y,z
1/2-x,1/2-y,1/2+z
1/2+x,1/2-y,-z
1/2-x,1/2+y,1/2-z
1/2-x,1/2-y,-z
1/2+x,1/2+y,1/2-z
1/2-x,1/2+y,z
1/2+x,1/2-y,1/2+z
loop_
_atom_site_type_symbol
_atom_site_label
_atom_site_fract_x
_atom_site_fract_y
_atom_site_fract_z
Si Si1 0.102160 0.564381 0.750000
Si Si2 0.152265 0.760431 0.956140
Si Si3 0.845454 0.701245 0.750000
Si Si4 0.901141 0.124401 0.936488
Si Si5 0.901382 0.641690 0.455425
Si Si6 0.856439 0.193198 0.750000
Si Si7 0.106021 0.666383 0.250000
Si Si8 0.279101 0.943907 0.429706
O O1 0.098745 0.638890 0.750000
O O2 0.161192 0.543725 0.838470
O O3 0.000000 0.542679 0.750000
O O4 0.144764 0.740253 0.846454
O O5 0.250000 0.750000 0.000000
O O6 0.123562 0.829240 0.978523
O O7 0.095558 0.712576 0.016980
O O8 0.746006 0.675197 0.750000
O O9 0.899588 0.166595 0.843332
O O10 0.822763 0.076176 0.918963
O O11 0.000000 0.099489 0.949547
O O12 0.871026 0.634552 0.347672
O O13 0.830100 0.612419 0.522884
O O14 0.000000 0.615629 0.467856
O O15 0.856344 0.265895 0.750000
O O16 0.000000 0.672672 0.250000
O O17 0.283690 0.000000 0.500000
#
# Coordination Sequence:
#
# PCOD9471666 Si02
#       8
#     8  16   8  16  16   8   8  16
#     4  12  24  44  71  98 129 167 214 272 338 407
#     4  12  20  37  62  97 137 169 206 264 333 403
#     4  12  22  36  65  98 135 170 211 253 328 405
#     4  12  24  41  67  99 134 174 224 274 329 389
#     4  11  21  37  61  94 133 169 207 264 332 395
#     4  12  18  35  66 101 129 163 212 265 327 393
#     4  10  20  31  57 101 137 166 208 260 324 399
#     4  12  27  47  66  91 128 174 231 276 327 382
#
# _framework density 20.363423000000001
#
# number of rings (size 3 to 8) (size 9 to 14) (size 15 to 20)
#    0.000    0.333    8.333    1.750    0.000    3.000 
#    0.000    1.667    0.000    0.000    0.000    0.000 
#    0.000    0.000    0.000    0.000    0.000    0.000 
#
# Total GULP energy -268179.612226 kJ/mol
# GULP energy per Si atom -5587.075255 kJ/mol
# Density = 2.031707 g / cm^3
# Si number density = 20.363423 Si / 1000 Ang^3
#
#
#
# Elastic Constant Matrix: (Units=GPa)
#
#
# Indices 1 2 3 4 5 6 
#
# 1 152.7864 24.3031 47.6154 0.0000 0.0000 0.0000
# 2 24.3031 37.4527 8.1714 0.0000 0.0000 0.0000
# 3 47.6154 8.1714 115.9700 0.0000 0.0000 0.0000
# 4 0.0000 0.0000 0.0000 22.1877 0.0000 0.0000
# 5 0.0000 0.0000 0.0000 0.0000 -3.0373 0.0000
# 6 0.0000 0.0000 0.0000 0.0000 0.0000 -1.4602
#
#
#
# Elastic Compliance Matrix: (Units=1/GPa)
#
#
# Indices 1 2 3 4 5 6 
#
# 1 0.008242 -0.004682 -0.003054 0.000000 0.000000 0.000000
# 2 -0.004682 0.029777 -0.000176 0.000000 0.000000 0.000000
# 3 -0.003054 -0.000176 0.009889 0.000000 0.000000 0.000000
# 4 0.000000 0.000000 0.000000 0.045070 0.000000 0.000000
# 5 0.000000 0.000000 0.000000 0.000000 -0.329235 0.000000
# 6 0.000000 0.000000 0.000000 0.000000 0.000000 -0.684846
#
#
# Mechanical properties :
#
#
# Convention : Reuss Voigt Hill
#
# Bulk Modulus (GPa) = 31.16779 51.82102 41.49441
# Shear Modulus (GPa) = -5.58918 18.61265 6.51173
#
# Velocity S-wave (km/s) = -1.65852 3.02656 1.79017
# Velocity P-wave (km/s) = 3.41635 6.14140 4.96932
#
# Compressibility (1/GPa) = 0.03208440
#
# Stress axis : x y z
#
# Youngs Moduli (GPa) = 121.33669 33.58334 101.12020
#
# Poissons Ratio (x) = 0.15722 0.30882
# Poissons Ratio (y) = 0.56805 0.01779
# Poissons Ratio (z) = 0.37056 0.00591
#
# Static dielectric constant tensor:
#      x y z
#    x 1.768610 0.000000 0.000000 
#    y 0.000000 1.724160 0.000000 
#    z 0.000000 0.000000 1.776910 
# 
# From -- ./inp_files/32004.got.cif
#   From: 2010.05.17/outbox.cif.g08.bks.cpg/sg63_17_cif.got.tgz:32004.got - 2010.06.03 15:47:04.
