data_PCOD9471402
_publ_section_title
;
Structure prediction by ZEFSAII (Michael W. Deem and Ramdas Pophale) SiO2 
 PCOD9471402
Probable space group: C M C M
;
_chemical_formula_sum "Si O2"
_cell_formula_units_Z 116
_cell_length_a 11.710859
_cell_length_b 17.758375
_cell_length_c 30.559009
_cell_angle_alpha 90.000000
_cell_angle_beta 90.000000
_cell_angle_gamma 90.000000
_cell_volume 6355.229539
_symmetry_space_group_name_H-M "C M C M"
_symmetry_group_IT_number 63
_symmetry_cell_setting 'orthorhombic'
loop_
_space_group_symop_operation_xyz
x,y,z
-x,-y,1/2+z
x,-y,-z
-x,y,1/2-z
-x,-y,-z
x,y,1/2-z
-x,y,z
x,-y,1/2+z
1/2+x,1/2+y,z
1/2-x,1/2-y,1/2+z
1/2+x,1/2-y,-z
1/2-x,1/2+y,1/2-z
1/2-x,1/2-y,-z
1/2+x,1/2+y,1/2-z
1/2-x,1/2+y,z
1/2+x,1/2-y,1/2+z
loop_
_atom_site_type_symbol
_atom_site_label
_atom_site_fract_x
_atom_site_fract_y
_atom_site_fract_z
Si Si1 0.247115 0.846237 0.455827
Si Si2 0.252297 0.627456 0.123118
Si Si3 0.701619 0.603361 0.821991
Si Si4 0.867113 0.714187 0.870124
Si Si5 0.627488 0.805353 0.956826
Si Si6 0.868684 0.022697 0.589074
Si Si7 0.000000 0.875173 0.250000
Si Si8 0.865475 0.536671 0.300470
O O1 0.336863 0.819435 0.418389
O O2 0.293579 0.836048 0.504459
O O3 0.147370 0.784016 0.451749
O O4 0.204133 0.929432 0.445483
O O5 0.336927 0.697415 0.130755
O O6 0.159369 0.657377 0.088921
O O7 0.317948 0.558527 0.100329
O O8 0.190965 0.596419 0.166507
O O9 0.781074 0.672783 0.836846
O O10 0.644437 0.570286 0.866031
O O11 0.602034 0.621810 0.787979
O O12 0.789297 0.538741 0.805286
O O13 0.000000 0.701042 0.860376
O O14 0.500000 0.822089 0.969674
O O15 0.000000 0.017457 0.575995
O O16 0.859165 0.561854 0.250000
O O17 0.000000 0.523832 0.310994
#
# Coordination Sequence:
#
# PCOD9471402 Si02
#       8
#    16  16  16  16  16  16   4  16
#     4   9  20  34  58  86 108 147 200 237 288 340
#     4  10  22  36  56  85 117 153 189 228 293 345
#     4  10  21  36  62  86 110 146 186 236 287 331
#     4  10  20  39  58  84 116 149 190 237 290 347
#     4  10  19  36  56  81 115 152 190 241 287 341
#     4  10  19  36  57  83 112 149 185 233 283 341
#     4  12  20  40  58  96 112 138 196 246 280 344
#     4  10  20  38  59  84 112 147 188 230 279 343
#
# _framework density 18.252685
#
# number of rings (size 3 to 8) (size 9 to 14) (size 15 to 20)
#    0.000    2.069    1.379    2.069    0.000    0.552 
#    3.724    5.517    0.000    0.000    0.000    0.000 
#    0.000    0.000    0.000    0.000    0.000    0.000 
#
# Total GULP energy -323012.413169 kJ/mol
# GULP energy per Si atom -5569.179537 kJ/mol
# Density = 1.821114 g / cm^3
# Si number density = 18.252685 Si / 1000 Ang^3
#
#
#
# Elastic Constant Matrix: (Units=GPa)
#
#
# Indices 1 2 3 4 5 6 
#
# 1 84.2434 28.3338 8.2966 0.0000 0.0000 0.0000
# 2 28.3338 90.5568 18.0467 0.0000 0.0000 0.0000
# 3 8.2966 18.0467 59.4916 0.0000 0.0000 0.0000
# 4 0.0000 0.0000 0.0000 15.3583 0.0000 0.0000
# 5 0.0000 0.0000 0.0000 0.0000 9.7995 0.0000
# 6 0.0000 0.0000 0.0000 0.0000 0.0000 4.4478
#
#
#
# Elastic Compliance Matrix: (Units=1/GPa)
#
#
# Indices 1 2 3 4 5 6 
#
# 1 0.013289 -0.004032 -0.000630 0.000000 0.000000 0.000000
# 2 -0.004032 0.012977 -0.003374 0.000000 0.000000 0.000000
# 3 -0.000630 -0.003374 0.017921 0.000000 0.000000 0.000000
# 4 0.000000 0.000000 0.000000 0.065111 0.000000 0.000000
# 5 0.000000 0.000000 0.000000 0.000000 0.102046 0.000000
# 6 0.000000 0.000000 0.000000 0.000000 0.000000 0.224832
#
#
# Mechanical properties :
#
#
# Convention : Reuss Voigt Hill
#
# Bulk Modulus (GPa) = 35.57067 38.18290 36.87679
# Shear Modulus (GPa) = 10.83142 17.89543 14.36342
#
# Velocity S-wave (km/s) = 2.43865 3.13457 2.80825
# Velocity P-wave (km/s) = 5.24019 5.83654 5.54639
#
# Compressibility (1/GPa) = 0.02811305
#
# Stress axis : x y z
#
# Youngs Moduli (GPa) = 75.25255 77.06038 55.80196
#
# Poissons Ratio (x) = 0.31073 0.03516
# Poissons Ratio (y) = 0.30344 0.18829
# Poissons Ratio (z) = 0.04741 0.26001
#
# Static dielectric constant tensor:
#      x y z
#    x 1.599930 0.000000 0.000000 
#    y 0.000000 1.624420 0.000000 
#    z 0.000000 0.000000 1.620210 
# 
# From -- ./inp_files/73024.got.cif
#   From: 2010.05.17/outbox.cif.g08.bks.cpg/sg63_37_cif.got.tgz:73024.got - 2010.06.03 15:47:04.
