data_PCOD9471381
_publ_section_title
;
Structure prediction by ZEFSAII (Michael W. Deem and Ramdas Pophale) SiO2 
 PCOD9471381
Probable space group: C M C M
;
_chemical_formula_sum "Si O2"
_cell_formula_units_Z 68
_cell_length_a 7.587445
_cell_length_b 23.318101
_cell_length_c 17.722858
_cell_angle_alpha 90.000000
_cell_angle_beta 90.000000
_cell_angle_gamma 90.000000
_cell_volume 3135.613264
_symmetry_space_group_name_H-M "C M C M"
_symmetry_group_IT_number 63
_symmetry_cell_setting 'orthorhombic'
loop_
_space_group_symop_operation_xyz
x,y,z
-x,-y,1/2+z
x,-y,-z
-x,y,1/2-z
-x,-y,-z
x,y,1/2-z
-x,y,z
x,-y,1/2+z
1/2+x,1/2+y,z
1/2-x,1/2-y,1/2+z
1/2+x,1/2-y,-z
1/2-x,1/2+y,1/2-z
1/2-x,1/2-y,-z
1/2+x,1/2+y,1/2-z
1/2-x,1/2+y,z
1/2+x,1/2-y,1/2+z
loop_
_atom_site_type_symbol
_atom_site_label
_atom_site_fract_x
_atom_site_fract_y
_atom_site_fract_z
Si Si1 0.000000 0.155645 0.750000
Si Si2 0.706672 0.125050 0.626513
Si Si3 0.707561 0.185918 0.025041
Si Si4 0.785617 0.999067 0.587601
Si Si5 0.707722 0.616884 0.333700
O O1 0.843544 0.152063 0.684611
O O2 0.500000 0.141524 0.637543
O O3 0.765451 0.143660 0.542056
O O4 0.721766 0.056190 0.629263
O O5 0.500000 0.179737 0.030259
O O6 0.775681 0.168043 0.106702
O O7 0.750000 0.250000 0.000000
O O8 0.000000 0.000266 0.588764
O O9 0.730114 0.000000 0.500000
O O10 0.721359 0.941204 0.628008
O O11 0.780311 0.627947 0.250000
O O12 0.500000 0.606742 0.325891
#
# Coordination Sequence:
#
# PCOD9471381 Si02
#       5
#     4  16  16  16  16
#     4  12  26  44  70  94 146 176 218 290 354 396
#     4  11  25  43  67 103 134 179 233 277 339 418
#     4  11  25  45  70  94 127 175 230 283 346 412
#     4  10  19  35  66  98 137 185 223 266 339 408
#     4  10  22  39  65 101 139 178 227 277 335 405
#
# _framework density 21.686347999999999
#
# number of rings (size 3 to 8) (size 9 to 14) (size 15 to 20)
#    0.000    1.412    3.529    1.059    4.941    1.882 
#    2.118    0.000    0.000    0.000    0.000    0.000 
#    0.000    0.000    0.000    0.000    0.000    0.000 
#
# Total GULP energy -189464.933130 kJ/mol
# GULP energy per Si atom -5572.498033 kJ/mol
# Density = 2.163699 g / cm^3
# Si number density = 21.686348 Si / 1000 Ang^3
#
#
#
# Elastic Constant Matrix: (Units=GPa)
#
#
# Indices 1 2 3 4 5 6 
#
# 1 90.4447 -12.7030 39.2649 0.0000 0.0000 0.0000
# 2 -12.7030 91.3207 44.2641 0.0000 0.0000 0.0000
# 3 39.2649 44.2641 186.9831 0.0000 0.0000 0.0000
# 4 0.0000 0.0000 0.0000 6.1399 0.0000 0.0000
# 5 0.0000 0.0000 0.0000 0.0000 28.6424 0.0000
# 6 0.0000 0.0000 0.0000 0.0000 0.0000 20.0052
#
#
#
# Elastic Compliance Matrix: (Units=1/GPa)
#
#
# Indices 1 2 3 4 5 6 
#
# 1 0.013121 0.003570 -0.003601 0.000000 0.000000 0.000000
# 2 0.003570 0.013341 -0.003908 0.000000 0.000000 0.000000
# 3 -0.003601 -0.003908 0.007029 0.000000 0.000000 0.000000
# 4 0.000000 0.000000 0.000000 0.162868 0.000000 0.000000
# 5 0.000000 0.000000 0.000000 0.000000 0.034913 0.000000
# 6 0.000000 0.000000 0.000000 0.000000 0.000000 0.049987
#
#
# Mechanical properties :
#
#
# Convention : Reuss Voigt Hill
#
# Bulk Modulus (GPa) = 39.03904 56.71116 47.87510
# Shear Modulus (GPa) = 16.79687 30.81901 23.80794
#
# Velocity S-wave (km/s) = 2.78607 3.77387 3.31695
# Velocity P-wave (km/s) = 5.32826 6.72286 6.06577
#
# Compressibility (1/GPa) = 0.02561539
#
# Stress axis : x y z
#
# Youngs Moduli (GPa) = 76.21344 74.95499 142.26177
#
# Poissons Ratio (x) = -0.26762 0.51222
# Poissons Ratio (y) = -0.27211 0.55596
# Poissons Ratio (z) = 0.27441 0.29293
#
# Static dielectric constant tensor:
#      x y z
#    x 1.862940 0.000000 0.000000 
#    y 0.000000 1.765170 0.000000 
#    z 0.000000 0.000000 1.800950 
# 
# From -- ./inp_files/39961.got.cif
#   From: 2010.05.17/outbox.cif.g08.bks.cpg/sg63_20_cif.got.tgz:39961.got - 2010.06.03 15:47:04.
