data_PCOD9471895
_publ_section_title
;
Structure prediction by ZEFSAII (Michael W. Deem and Ramdas Pophale) SiO2 
 PCOD9471895
Probable space group: C M C M
;
_chemical_formula_sum "Si O2"
_cell_formula_units_Z 96
_cell_length_a 9.467946
_cell_length_b 14.798615
_cell_length_c 32.708791
_cell_angle_alpha 90.000000
_cell_angle_beta 90.000000
_cell_angle_gamma 90.000000
_cell_volume 4582.910076
_symmetry_space_group_name_H-M "C M C M"
_symmetry_group_IT_number 63
_symmetry_cell_setting 'orthorhombic'
loop_
_space_group_symop_operation_xyz
x,y,z
-x,-y,1/2+z
x,-y,-z
-x,y,1/2-z
-x,-y,-z
x,y,1/2-z
-x,y,z
x,-y,1/2+z
1/2+x,1/2+y,z
1/2-x,1/2-y,1/2+z
1/2+x,1/2-y,-z
1/2-x,1/2+y,1/2-z
1/2-x,1/2-y,-z
1/2+x,1/2+y,1/2-z
1/2-x,1/2+y,z
1/2+x,1/2-y,1/2+z
loop_
_atom_site_type_symbol
_atom_site_label
_atom_site_fract_x
_atom_site_fract_y
_atom_site_fract_z
Si Si1 0.841098 0.116844 0.117915
Si Si2 0.661907 0.600345 0.626809
Si Si3 0.657192 0.856677 0.961877
Si Si4 0.658889 0.358461 0.036868
Si Si5 0.668751 0.607487 0.294319
Si Si6 0.168542 0.583189 0.795352
O O1 0.736041 0.133201 0.081050
O O2 0.801558 0.155938 0.162604
O O3 0.000000 0.146758 0.106912
O O4 0.844119 0.008721 0.124966
O O5 0.500000 0.633986 0.630564
O O6 0.719088 0.628062 0.582364
O O7 0.754479 0.626940 0.665812
O O8 0.500000 0.895489 0.960342
O O9 0.645716 0.749029 0.968808
O O10 0.747544 0.893671 0.999737
O O11 0.500000 0.398154 0.036386
O O12 0.689221 0.653246 0.250000
O O13 0.500000 0.583861 0.296352
O O14 0.764756 0.517777 0.293719
O O15 0.195586 0.622756 0.750000
O O16 0.000000 0.580044 0.801388
#
# Coordination Sequence:
#
# PCOD9471895 Si02
#       6
#    16  16  16  16  16  16
#     4   9  17  29  47  71  96 121 151 190 231 267
#     4   9  18  32  50  70  91 121 159 193 224 263
#     4  10  20  33  50  70  92 120 152 188 232 280
#     4   9  19  36  53  67  87 119 159 194 225 270
#     4   8  14  26  44  65  90 123 161 191 217 261
#     4   9  16  25  40  66  98 125 148 182 230 275
#
# _framework density 20.947389000000001
#
# number of rings (size 3 to 8) (size 9 to 14) (size 15 to 20)
#    0.000    3.000    0.000    2.000    0.000    5.667 
#    0.000    3.333    0.000    1.000    0.000    4.667 
#    0.000    0.000    0.000    0.000    0.000    0.000 
#
# Total GULP energy -267441.161264 kJ/mol
# GULP energy per Si atom -5571.690860 kJ/mol
# Density = 2.089971 g / cm^3
# Si number density = 20.947389 Si / 1000 Ang^3
#
#
#
# Elastic Constant Matrix: (Units=GPa)
#
#
# Indices 1 2 3 4 5 6 
#
# 1 102.9875 4.7450 119.4156 0.0000 0.0000 0.0000
# 2 4.7450 33.4087 -0.0733 0.0000 0.0000 0.0000
# 3 119.4156 -0.0733 244.3400 0.0000 0.0000 0.0000
# 4 0.0000 0.0000 0.0000 33.2044 0.0000 0.0000
# 5 0.0000 0.0000 0.0000 0.0000 15.6894 0.0000
# 6 0.0000 0.0000 0.0000 0.0000 0.0000 5.5964
#
#
#
# Elastic Compliance Matrix: (Units=1/GPa)
#
#
# Indices 1 2 3 4 5 6 
#
# 1 0.022757 -0.003257 -0.011123 0.000000 0.000000 0.000000
# 2 -0.003257 0.030398 0.001601 0.000000 0.000000 0.000000
# 3 -0.011123 0.001601 0.009529 0.000000 0.000000 0.000000
# 4 0.000000 0.000000 0.000000 0.030117 0.000000 0.000000
# 5 0.000000 0.000000 0.000000 0.000000 0.063737 0.000000
# 6 0.000000 0.000000 0.000000 0.000000 0.000000 0.178687
#
#
# Mechanical properties :
#
#
# Convention : Reuss Voigt Hill
#
# Bulk Modulus (GPa) = 26.93455 69.87897 48.40676
# Shear Modulus (GPa) = 13.39910 28.00796 20.70353
#
# Velocity S-wave (km/s) = 2.53188 3.66055 3.14723
# Velocity P-wave (km/s) = 4.62962 7.16225 6.03039
#
# Compressibility (1/GPa) = 0.03712703
#
# Stress axis : x y z
#
# Youngs Moduli (GPa) = 43.94171 32.89652 104.93929
#
# Poissons Ratio (x) = 0.10713 1.16725
# Poissons Ratio (y) = 0.14310 -0.16798
# Poissons Ratio (z) = 0.48877 -0.05266
#
# Static dielectric constant tensor:
#      x y z
#    x 1.737870 0.000000 0.000000 
#    y 0.000000 1.778080 0.000000 
#    z 0.000000 0.000000 1.800910 
# 
# From -- ./inp_files/67207.got.cif
#   From: 2010.05.17/outbox.cif.g08.bks.cpg/sg63_34_cif.got.tgz:67207.got - 2010.06.03 15:47:04.
