data_PCOD9471627
_publ_section_title
;
Structure prediction by ZEFSAII (Michael W. Deem and Ramdas Pophale) SiO2 
 PCOD9471627
Probable space group: C M C M
;
_chemical_formula_sum "Si O2"
_cell_formula_units_Z 96
_cell_length_a 7.308652
_cell_length_b 30.726563
_cell_length_c 19.589051
_cell_angle_alpha 90.000000
_cell_angle_beta 90.000000
_cell_angle_gamma 90.000000
_cell_volume 4399.108406
_symmetry_space_group_name_H-M "C M C M"
_symmetry_group_IT_number 63
_symmetry_cell_setting 'orthorhombic'
loop_
_space_group_symop_operation_xyz
x,y,z
-x,-y,1/2+z
x,-y,-z
-x,y,1/2-z
-x,-y,-z
x,y,1/2-z
-x,y,z
x,-y,1/2+z
1/2+x,1/2+y,z
1/2-x,1/2-y,1/2+z
1/2+x,1/2-y,-z
1/2-x,1/2+y,1/2-z
1/2-x,1/2-y,-z
1/2+x,1/2+y,1/2-z
1/2-x,1/2+y,z
1/2+x,1/2-y,1/2+z
loop_
_atom_site_type_symbol
_atom_site_label
_atom_site_fract_x
_atom_site_fract_y
_atom_site_fract_z
Si Si1 0.777768 0.920841 0.060058
Si Si2 0.779568 0.825798 0.600531
Si Si3 0.722722 0.575457 0.095017
Si Si4 0.777268 0.179141 0.946476
Si Si5 0.223483 0.010058 0.672526
Si Si6 0.213483 0.760519 0.174798
O O1 0.725378 0.870575 0.070411
O O2 0.716230 0.953350 0.118831
O O3 0.000000 0.921826 0.060297
O O4 0.722209 0.933866 0.983316
O O5 0.718929 0.875438 0.612717
O O6 0.717865 0.811849 0.524268
O O7 0.723690 0.790086 0.655052
O O8 0.000000 0.826521 0.599756
O O9 0.500000 0.575699 0.095616
O O10 0.781066 0.537219 0.145036
O O11 0.710168 0.212006 0.888702
O O12 0.000000 0.180801 0.947999
O O13 0.281595 0.017949 0.750000
O O14 0.000000 0.010449 0.672209
O O15 0.291984 0.768491 0.250000
O O16 0.000000 0.772529 0.178271
#
# Coordination Sequence:
#
# PCOD9471627 Si02
#       6
#    16  16  16  16  16  16
#     4   8  13  22  36  52  73 104 138 168 201 245
#     4   9  17  30  48  65  82 111 149 182 209 244
#     4   8  14  24  37  54  77 105 136 170 206 240
#     4   8  15  28  44  61  81 108 144 181 214 249
#     4   9  15  20  29  50  80 110 135 161 200 250
#     4  10  20  31  43  62  89 116 139 172 220 263
#
# _framework density 21.822603999999998
#
# number of rings (size 3 to 8) (size 9 to 14) (size 15 to 20)
#    0.000    3.333    0.000    3.000    0.000    3.667 
#    0.000    5.000    0.000    0.000    0.000    0.000 
#    0.000   12.000    0.000    2.667    0.000    1.333 
#
# Total GULP energy -267960.621651 kJ/mol
# GULP energy per Si atom -5582.512951 kJ/mol
# Density = 2.177293 g / cm^3
# Si number density = 21.822604 Si / 1000 Ang^3
#
#
#
# Elastic Constant Matrix: (Units=GPa)
#
#
# Indices 1 2 3 4 5 6 
#
# 1 87.3145 -8.5033 -3.4491 0.0000 0.0000 0.0000
# 2 -8.5033 34.6916 9.9341 0.0000 0.0000 0.0000
# 3 -3.4491 9.9341 38.7043 0.0000 0.0000 0.0000
# 4 0.0000 0.0000 0.0000 1.4775 0.0000 0.0000
# 5 0.0000 0.0000 0.0000 0.0000 -6.2401 0.0000
# 6 0.0000 0.0000 0.0000 0.0000 0.0000 19.3359
#
#
#
# Elastic Compliance Matrix: (Units=1/GPa)
#
#
# Indices 1 2 3 4 5 6 
#
# 1 0.011737 0.002782 0.000332 0.000000 0.000000 0.000000
# 2 0.002782 0.031771 -0.007907 0.000000 0.000000 0.000000
# 3 0.000332 -0.007907 0.027896 0.000000 0.000000 0.000000
# 4 0.000000 0.000000 0.000000 0.676829 0.000000 0.000000
# 5 0.000000 0.000000 0.000000 0.000000 -0.160254 0.000000
# 6 0.000000 0.000000 0.000000 0.000000 0.000000 0.051717
#
#
# Mechanical properties :
#
#
# Convention : Reuss Voigt Hill
#
# Bulk Modulus (GPa) = 16.17651 17.40821 16.79236
# Shear Modulus (GPa) = 7.46393 13.76324 10.61358
#
# Velocity S-wave (km/s) = 1.85140 2.51407 2.20774
# Velocity P-wave (km/s) = 3.46397 4.05239 3.76968
#
# Compressibility (1/GPa) = 0.06181805
#
# Stress axis : x y z
#
# Youngs Moduli (GPa) = 85.20158 31.47485 35.84751
#
# Poissons Ratio (x) = -0.08756 -0.01190
# Poissons Ratio (y) = -0.23701 0.28344
# Poissons Ratio (z) = -0.02828 0.24887
#
# Static dielectric constant tensor:
#      x y z
#    x 1.951000 0.000000 0.000000 
#    y 0.000000 1.757350 0.000000 
#    z 0.000000 0.000000 1.761470 
# 
# From -- ./inp_files/42666.got.cif
#   From: 2010.05.17/outbox.cif.g08.bks.cpg/sg63_22_cif.got.tgz:42666.got - 2010.06.03 15:47:04.
