data_PCOD9471862
_publ_section_title
;
Structure prediction by ZEFSAII (Michael W. Deem and Ramdas Pophale) SiO2 
 PCOD9471862
Probable space group: C M C M
;
_chemical_formula_sum "Si O2"
_cell_formula_units_Z 100
_cell_length_a 21.136840
_cell_length_b 27.751597
_cell_length_c 7.505771
_cell_angle_alpha 90.000000
_cell_angle_beta 90.000000
_cell_angle_gamma 90.000000
_cell_volume 4402.743151
_symmetry_space_group_name_H-M "C M C M"
_symmetry_group_IT_number 63
_symmetry_cell_setting 'orthorhombic'
loop_
_space_group_symop_operation_xyz
x,y,z
-x,-y,1/2+z
x,-y,-z
-x,y,1/2-z
-x,-y,-z
x,y,1/2-z
-x,y,z
x,-y,1/2+z
1/2+x,1/2+y,z
1/2-x,1/2-y,1/2+z
1/2+x,1/2-y,-z
1/2-x,1/2+y,1/2-z
1/2-x,1/2-y,-z
1/2+x,1/2+y,1/2-z
1/2-x,1/2+y,z
1/2+x,1/2-y,1/2+z
loop_
_atom_site_type_symbol
_atom_site_label
_atom_site_fract_x
_atom_site_fract_y
_atom_site_fract_z
Si Si1 0.000000 0.926515 0.250000
Si Si2 0.175207 0.290153 0.450839
Si Si3 0.764452 0.129939 0.533635
Si Si4 0.157049 0.555860 0.539011
Si Si5 0.931265 0.776856 0.966369
Si Si6 0.409373 0.612302 0.043739
Si Si7 0.570388 0.135599 0.455958
O O1 0.055349 0.922341 0.407134
O O2 0.192709 0.275484 0.250000
O O3 0.235725 0.318302 0.529225
O O4 0.132943 0.247876 0.535746
O O5 0.121964 0.332283 0.444652
O O6 0.764567 0.132004 0.750000
O O7 0.715842 0.088295 0.474559
O O8 0.833826 0.115840 0.472406
O O9 0.163963 0.500000 0.500000
O O10 0.154143 0.561744 0.750000
O O11 0.094331 0.580814 0.463538
O O12 0.929483 0.771857 0.750000
O O13 0.930730 0.833324 0.006180
O O14 0.000000 0.756888 0.025875
O O15 0.425643 0.602952 0.250000
O O16 0.571504 0.151097 0.250000
O O17 0.500000 0.140671 0.527425
#
# Coordination Sequence:
#
# PCOD9471862 Si02
#       7
#     4  16  16  16  16  16  16
#     4  12  22  40  60  86 118 144 182 248 272 342
#     4   9  18  33  53  74 108 153 191 238 284 324
#     4   9  19  36  55  82 115 146 182 227 280 337
#     4  10  21  37  59  82 110 142 181 230 278 337
#     4   9  17  31  50  76 109 146 196 240 278 330
#     4  11  22  37  60  85 115 151 189 230 286 336
#     4  10  20  33  48  74 109 147 194 240 282 331
#
# _framework density 22.713111000000001
#
# number of rings (size 3 to 8) (size 9 to 14) (size 15 to 20)
#    0.000    2.240    1.600    2.640    0.000    6.080 
#    1.440    0.000    0.000    0.000    0.000    0.560 
#    0.000    0.000    0.000    0.000    0.000    0.000 
#
# Total GULP energy -278659.590315 kJ/mol
# GULP energy per Si atom -5573.191806 kJ/mol
# Density = 2.266141 g / cm^3
# Si number density = 22.713111 Si / 1000 Ang^3
#
#
#
# Elastic Constant Matrix: (Units=GPa)
#
#
# Indices 1 2 3 4 5 6 
#
# 1 124.9764 -8.1853 6.2012 0.0000 0.0000 0.0000
# 2 -8.1853 24.3367 -5.1893 0.0000 0.0000 0.0000
# 3 6.2012 -5.1893 97.6724 0.0000 0.0000 0.0000
# 4 0.0000 0.0000 0.0000 9.5383 0.0000 0.0000
# 5 0.0000 0.0000 0.0000 0.0000 9.8840 0.0000
# 6 0.0000 0.0000 0.0000 0.0000 0.0000 9.1261
#
#
#
# Elastic Compliance Matrix: (Units=1/GPa)
#
#
# Indices 1 2 3 4 5 6 
#
# 1 0.008196 0.002676 -0.000378 0.000000 0.000000 0.000000
# 2 0.002676 0.042435 0.002085 0.000000 0.000000 0.000000
# 3 -0.000378 0.002085 0.010373 0.000000 0.000000 0.000000
# 4 0.000000 0.000000 0.000000 0.104841 0.000000 0.000000
# 5 0.000000 0.000000 0.000000 0.000000 0.101173 0.000000
# 6 0.000000 0.000000 0.000000 0.000000 0.000000 0.109576
#
#
# Mechanical properties :
#
#
# Convention : Reuss Voigt Hill
#
# Bulk Modulus (GPa) = 14.33323 25.84875 20.09099
# Shear Modulus (GPa) = 12.78495 22.65360 17.71928
#
# Velocity S-wave (km/s) = 2.37510 3.16156 2.79612
# Velocity P-wave (km/s) = 3.72099 4.97318 4.39194
#
# Compressibility (1/GPa) = 0.06976792
#
# Stress axis : x y z
#
# Youngs Moduli (GPa) = 122.01780 23.56560 96.40347
#
# Poissons Ratio (x) = -0.06306 0.03646
# Poissons Ratio (y) = -0.32650 -0.20097
# Poissons Ratio (z) = 0.04614 -0.04913
#
# Static dielectric constant tensor:
#      x y z
#    x 1.877190 0.000000 0.000000 
#    y 0.000000 1.869540 0.000000 
#    z 0.000000 0.000000 1.855330 
# 
# From -- ./inp_files/9138.got.cif
#   From: 2010.05.17/outbox.cif.g08.bks.cpg/sg63_5_cif.got.tgz:9138.got - 2010.06.03 15:47:04.
