data_PCOD9471669
_publ_section_title
;
Structure prediction by ZEFSAII (Michael W. Deem and Ramdas Pophale) SiO2 
 PCOD9471669
Probable space group: C M C M
;
_chemical_formula_sum "Si O2"
_cell_formula_units_Z 96
_cell_length_a 33.227783
_cell_length_b 13.862481
_cell_length_c 9.322022
_cell_angle_alpha 90.000000
_cell_angle_beta 90.000000
_cell_angle_gamma 90.000000
_cell_volume 4293.905211
_symmetry_space_group_name_H-M "C M C M"
_symmetry_group_IT_number 63
_symmetry_cell_setting 'orthorhombic'
loop_
_space_group_symop_operation_xyz
x,y,z
-x,-y,1/2+z
x,-y,-z
-x,y,1/2-z
-x,-y,-z
x,y,1/2-z
-x,y,z
x,-y,1/2+z
1/2+x,1/2+y,z
1/2-x,1/2-y,1/2+z
1/2+x,1/2-y,-z
1/2-x,1/2+y,1/2-z
1/2-x,1/2-y,-z
1/2+x,1/2+y,1/2-z
1/2-x,1/2+y,z
1/2+x,1/2-y,1/2+z
loop_
_atom_site_type_symbol
_atom_site_label
_atom_site_fract_x
_atom_site_fract_y
_atom_site_fract_z
Si Si1 0.853434 0.876174 0.096556
Si Si2 0.704537 0.865751 0.087007
Si Si3 0.444897 0.593349 0.915869
Si Si4 0.374904 0.148166 0.084682
Si Si5 0.282338 0.632505 0.409579
Si Si6 0.953966 0.702080 0.922249
O O1 0.832695 0.893829 0.250000
O O2 0.897023 0.920858 0.093895
O O3 0.863888 0.762082 0.091679
O O4 0.824922 0.902599 0.967024
O O5 0.701174 0.899695 0.250000
O O6 0.710832 0.748848 0.090259
O O7 0.664085 0.890967 0.999628
O O8 0.745565 0.895635 0.010217
O O9 0.458051 0.602736 0.750000
O O10 0.459916 0.500000 0.000000
O O11 0.452906 0.691211 0.005023
O O12 0.378586 0.113933 0.250000
O O13 0.417370 0.143749 0.998737
O O14 0.273179 0.601448 0.250000
O O15 0.946791 0.708603 0.750000
O O16 0.000000 0.665037 0.943500
#
# Coordination Sequence:
#
# PCOD9471669 Si02
#       6
#    16  16  16  16  16  16
#     4   8  15  26  37  50  67  86 106 130 163 202
#     4   9  15  22  33  49  70  92 110 129 154 188
#     4  10  20  32  45  57  69  86 110 142 180 221
#     4   9  16  26  39  53  69  87 108 134 164 201
#     4   9  15  21  32  50  69  89 110 130 153 186
#     4  10  20  32  44  56  69  86 110 141 179 222
#
# _framework density 22.35727
#
# number of rings (size 3 to 8) (size 9 to 14) (size 15 to 20)
#    0.000    2.833    0.000    3.500    0.000   10.333 
#    0.000    0.000    0.000    0.000    0.000    0.000 
#    0.000    0.000    0.000    0.000    0.000    0.000 
#
# Total GULP energy -267856.222881 kJ/mol
# GULP energy per Si atom -5580.337977 kJ/mol
# Density = 2.230638 g / cm^3
# Si number density = 22.357270 Si / 1000 Ang^3
#
#
#
# Elastic Constant Matrix: (Units=GPa)
#
#
# Indices 1 2 3 4 5 6 
#
# 1 201.3285 1.3422 102.8465 0.0000 0.0000 0.0000
# 2 1.3422 43.4077 5.2485 0.0000 0.0000 0.0000
# 3 102.8465 5.2485 184.2656 0.0000 0.0000 0.0000
# 4 0.0000 0.0000 0.0000 1.5015 0.0000 0.0000
# 5 0.0000 0.0000 0.0000 0.0000 119.8613 0.0000
# 6 0.0000 0.0000 0.0000 0.0000 0.0000 -13.1045
#
#
#
# Elastic Compliance Matrix: (Units=1/GPa)
#
#
# Indices 1 2 3 4 5 6 
#
# 1 0.006951 0.000255 -0.003887 0.000000 0.000000 0.000000
# 2 0.000255 0.023126 -0.000801 0.000000 0.000000 0.000000
# 3 -0.003887 -0.000801 0.007619 0.000000 0.000000 0.000000
# 4 0.000000 0.000000 0.000000 0.665996 0.000000 0.000000
# 5 0.000000 0.000000 0.000000 0.000000 0.008343 0.000000
# 6 0.000000 0.000000 0.000000 0.000000 0.000000 -0.076310
#
#
# Mechanical properties :
#
#
# Convention : Reuss Voigt Hill
#
# Bulk Modulus (GPa) = 34.68528 71.98624 53.33576
# Shear Modulus (GPa) = 7.64291 42.95598 25.29944
#
# Velocity S-wave (km/s) = 1.85093 4.38807 3.36757
# Velocity P-wave (km/s) = 4.48505 7.61193 6.24729
#
# Compressibility (1/GPa) = 0.02883067
#
# Stress axis : x y z
#
# Youngs Moduli (GPa) = 143.86721 43.24070 131.24783
#
# Poissons Ratio (x) = -0.01103 0.51014
# Poissons Ratio (y) = -0.03669 0.10514
# Poissons Ratio (z) = 0.55919 0.03464
#
# Static dielectric constant tensor:
#      x y z
#    x 1.802970 0.000000 0.000000 
#    y 0.000000 1.847900 0.000000 
#    z 0.000000 0.000000 1.808260 
# 
# From -- ./inp_files/12736.got.cif
#   From: 2010.05.17/outbox.cif.g08.bks.cpg/sg63_7_cif.got.tgz:12736.got - 2010.06.03 15:47:04.
