data_PCOD9471209
_publ_section_title
;
Structure prediction by ZEFSAII (Michael W. Deem and Ramdas Pophale) SiO2 
 PCOD9471209
Probable space group: C M C M
;
_chemical_formula_sum "Si O2"
_cell_formula_units_Z 72
_cell_length_a 21.713931
_cell_length_b 10.781234
_cell_length_c 17.992224
_cell_angle_alpha 90.000000
_cell_angle_beta 90.000000
_cell_angle_gamma 90.000000
_cell_volume 4212.033096
_symmetry_space_group_name_H-M "C M C M"
_symmetry_group_IT_number 63
_symmetry_cell_setting 'orthorhombic'
loop_
_space_group_symop_operation_xyz
x,y,z
-x,-y,1/2+z
x,-y,-z
-x,y,1/2-z
-x,-y,-z
x,y,1/2-z
-x,y,z
x,-y,1/2+z
1/2+x,1/2+y,z
1/2-x,1/2-y,1/2+z
1/2+x,1/2-y,-z
1/2-x,1/2+y,1/2-z
1/2-x,1/2-y,-z
1/2+x,1/2+y,1/2-z
1/2-x,1/2+y,z
1/2+x,1/2-y,1/2+z
loop_
_atom_site_type_symbol
_atom_site_label
_atom_site_fract_x
_atom_site_fract_y
_atom_site_fract_z
Si Si1 0.856036 0.407001 0.566362
Si Si2 0.234507 0.804674 0.418531
Si Si3 0.928691 0.224835 0.460660
Si Si4 0.862978 0.362202 0.337878
Si Si5 0.840113 0.000000 0.500000
O O1 0.830322 0.500000 0.500000
O O2 0.811760 0.305126 0.604768
O O3 0.906810 0.327987 0.521127
O O4 0.875874 0.500633 0.630259
O O5 0.250000 0.750000 0.500000
O O6 0.295230 0.822631 0.369552
O O7 0.200752 0.935205 0.435592
O O8 0.912824 0.277962 0.379684
O O9 0.000000 0.195454 0.469800
O O10 0.883952 0.108610 0.471409
O O11 0.864317 0.354692 0.250000
#
# Coordination Sequence:
#
# PCOD9471209 Si02
#       5
#    16  16  16  16   8
#     4   9  18  33  54  77 105 143 185 230 267 324
#     4  11  17  32  56  80 111 144 178 222 281 334
#     4  10  21  37  58  83 109 147 196 230 267 329
#     4  11  23  34  52  84 116 147 182 232 290 334
#     4  10  19  34  62  84 107 142 184 236 276 318
#
# _framework density 17.093882000000001
#
# number of rings (size 3 to 8) (size 9 to 14) (size 15 to 20)
#    0.000    1.778    6.667    1.667    0.000    5.333 
#    0.000    0.000    0.000    1.333    0.000    0.000 
#    0.000    0.000    0.000    0.000    0.000    0.000 
#
# Total GULP energy -200471.960319 kJ/mol
# GULP energy per Si atom -5568.665564 kJ/mol
# Density = 1.705498 g / cm^3
# Si number density = 17.093882 Si / 1000 Ang^3
#
#
#
# Elastic Constant Matrix: (Units=GPa)
#
#
# Indices 1 2 3 4 5 6 
#
# 1 64.1974 8.5409 3.8895 0.0000 0.0000 0.0000
# 2 8.5409 67.3345 7.0450 0.0000 0.0000 0.0000
# 3 3.8895 7.0450 86.7225 0.0000 0.0000 0.0000
# 4 0.0000 0.0000 0.0000 10.2134 0.0000 0.0000
# 5 0.0000 0.0000 0.0000 0.0000 12.5749 0.0000
# 6 0.0000 0.0000 0.0000 0.0000 0.0000 14.3969
#
#
#
# Elastic Compliance Matrix: (Units=1/GPa)
#
#
# Indices 1 2 3 4 5 6 
#
# 1 0.015871 -0.001955 -0.000553 0.000000 0.000000 0.000000
# 2 -0.001955 0.015219 -0.001149 0.000000 0.000000 0.000000
# 3 -0.000553 -0.001149 0.011649 0.000000 0.000000 0.000000
# 4 0.000000 0.000000 0.000000 0.097911 0.000000 0.000000
# 5 0.000000 0.000000 0.000000 0.000000 0.079524 0.000000
# 6 0.000000 0.000000 0.000000 0.000000 0.000000 0.069460
#
#
# Mechanical properties :
#
#
# Convention : Reuss Voigt Hill
#
# Bulk Modulus (GPa) = 28.22829 28.57835 28.40332
# Shear Modulus (GPa) = 16.19404 20.68896 18.44150
#
# Velocity S-wave (km/s) = 3.08126 3.48273 3.28813
# Velocity P-wave (km/s) = 5.40448 5.73823 5.57385
#
# Compressibility (1/GPa) = 0.03542545
#
# Stress axis : x y z
#
# Youngs Moduli (GPa) = 63.00970 65.70555 85.84323
#
# Poissons Ratio (x) = 0.12847 0.04747
# Poissons Ratio (y) = 0.12320 0.09861
# Poissons Ratio (z) = 0.03484 0.07547
#
# Static dielectric constant tensor:
#      x y z
#    x 1.645140 0.000000 0.000000 
#    y 0.000000 1.646600 0.000000 
#    z 0.000000 0.000000 1.558500 
# 
# From -- ./inp_files/47875.got.cif
#   From: 2010.05.17/outbox.cif.g08.bks.cpg/sg63_24_cif.got.tgz:47875.got - 2010.06.03 15:47:04.
