data_PCOD9471751
_publ_section_title
;
Structure prediction by ZEFSAII (Michael W. Deem and Ramdas Pophale) SiO2 
 PCOD9471751
Probable space group: C M C M
;
_chemical_formula_sum "Si O2"
_cell_formula_units_Z 104
_cell_length_a 29.610026
_cell_length_b 22.238556
_cell_length_c 8.857201
_cell_angle_alpha 90.000000
_cell_angle_beta 90.000000
_cell_angle_gamma 90.000000
_cell_volume 5832.327104
_symmetry_space_group_name_H-M "C M C M"
_symmetry_group_IT_number 63
_symmetry_cell_setting 'orthorhombic'
loop_
_space_group_symop_operation_xyz
x,y,z
-x,-y,1/2+z
x,-y,-z
-x,y,1/2-z
-x,-y,-z
x,y,1/2-z
-x,y,z
x,-y,1/2+z
1/2+x,1/2+y,z
1/2-x,1/2-y,1/2+z
1/2+x,1/2-y,-z
1/2-x,1/2+y,1/2-z
1/2-x,1/2-y,-z
1/2+x,1/2+y,1/2-z
1/2-x,1/2+y,z
1/2+x,1/2-y,1/2+z
loop_
_atom_site_type_symbol
_atom_site_label
_atom_site_fract_x
_atom_site_fract_y
_atom_site_fract_z
Si Si1 0.125724 0.732344 0.418204
Si Si2 0.447531 0.314713 0.571485
Si Si3 0.500000 0.065845 0.569791
Si Si4 0.189086 0.563912 0.567755
Si Si5 0.594092 0.096247 0.420901
Si Si6 0.554588 0.560011 0.578509
Si Si7 0.283523 0.799779 0.071720
O O1 0.141032 0.750870 0.250000
O O2 0.086689 0.774380 0.479579
O O3 0.105524 0.666042 0.407601
O O4 0.167442 0.726718 0.530904
O O5 0.442784 0.305494 0.750000
O O6 0.500000 0.302931 0.530871
O O7 0.436925 0.382998 0.525951
O O8 0.500000 0.066603 0.750000
O O9 0.546827 0.092407 0.507564
O O10 0.500000 0.000000 0.500000
O O11 0.206872 0.500000 0.500000
O O12 0.189558 0.560927 0.750000
O O13 0.137317 0.569183 0.507898
O O14 0.213538 0.628336 0.523210
O O15 0.590398 0.070382 0.250000
O O16 0.572245 0.500000 0.500000
O O17 0.571041 0.568024 0.750000
O O18 0.500000 0.554592 0.587589
O O19 0.275531 0.800985 0.250000
O O20 0.250000 0.750000 0.000000
#
# Coordination Sequence:
#
# PCOD9471751 Si02
#       7
#    16  16   8  16  16  16  16
#     4  10  21  36  55  78 106 140 179 222 270 323
#     4  10  20  32  48  73 105 141 179 220 267 320
#     4  12  24  36  50  68  98 140 185 228 271 316
#     4  10  20  35  57  85 114 145 182 227 274 328
#     4  10  21  36  52  73 103 141 184 229 274 322
#     4   9  16  27  44  66  93 127 169 216 262 311
#     4  10  21  38  61  87 114 144 181 224 277 335
#
# _framework density 17.831645999999999
#
# number of rings (size 3 to 8) (size 9 to 14) (size 15 to 20)
#    0.000    2.000    0.000    3.923    1.077    6.462 
#    0.000    0.000    0.000    0.923    0.000    4.308 
#    0.000    0.000    0.000    0.000    0.000    0.000 
#
# Total GULP energy -289723.133361 kJ/mol
# GULP energy per Si atom -5571.598718 kJ/mol
# Density = 1.779106 g / cm^3
# Si number density = 17.831646 Si / 1000 Ang^3
#
#
#
# Elastic Constant Matrix: (Units=GPa)
#
#
# Indices 1 2 3 4 5 6 
#
# 1 58.3969 41.3474 22.3283 0.0000 0.0000 0.0000
# 2 41.3474 103.3235 26.3679 0.0000 0.0000 0.0000
# 3 22.3283 26.3679 75.8631 0.0000 0.0000 0.0000
# 4 0.0000 0.0000 0.0000 30.2921 0.0000 0.0000
# 5 0.0000 0.0000 0.0000 0.0000 24.6804 0.0000
# 6 0.0000 0.0000 0.0000 0.0000 0.0000 15.5300
#
#
#
# Elastic Compliance Matrix: (Units=1/GPa)
#
#
# Indices 1 2 3 4 5 6 
#
# 1 0.025097 -0.008952 -0.004275 0.000000 0.000000 0.000000
# 2 -0.008952 0.013814 -0.002166 0.000000 0.000000 0.000000
# 3 -0.004275 -0.002166 0.015193 0.000000 0.000000 0.000000
# 4 0.000000 0.000000 0.000000 0.033012 0.000000 0.000000
# 5 0.000000 0.000000 0.000000 0.000000 0.040518 0.000000
# 6 0.000000 0.000000 0.000000 0.000000 0.000000 0.064391
#
#
# Mechanical properties :
#
#
# Convention : Reuss Voigt Hill
#
# Bulk Modulus (GPa) = 42.88855 46.40787 44.64821
# Shear Modulus (GPa) = 21.68396 23.93651 22.81024
#
# Velocity S-wave (km/s) = 3.49096 3.66780 3.58047
# Velocity P-wave (km/s) = 6.35242 6.63469 6.49508
#
# Compressibility (1/GPa) = 0.02331625
#
# Stress axis : x y z
#
# Youngs Moduli (GPa) = 39.84463 72.39192 65.82026
#
# Poissons Ratio (x) = 0.64808 0.28139
# Poissons Ratio (y) = 0.35670 0.14259
# Poissons Ratio (z) = 0.17034 0.15683
#
# Static dielectric constant tensor:
#      x y z
#    x 1.550330 0.000000 0.000000 
#    y 0.000000 1.647380 0.000000 
#    z 0.000000 0.000000 1.626510 
# 
# From -- ./inp_files/12495.got.cif
#   From: 2010.05.17/outbox.cif.g08.bks.cpg/sg63_7_cif.got.tgz:12495.got - 2010.06.03 15:47:04.
