data_PCOD9471325
_publ_section_title
;
Structure prediction by ZEFSAII (Michael W. Deem and Ramdas Pophale) SiO2 
 PCOD9471325
Probable space group: C M C M
;
_chemical_formula_sum "Si O2"
_cell_formula_units_Z 68
_cell_length_a 14.966406
_cell_length_b 20.740490
_cell_length_c 10.042050
_cell_angle_alpha 90.000000
_cell_angle_beta 90.000000
_cell_angle_gamma 90.000000
_cell_volume 3117.158705
_symmetry_space_group_name_H-M "C M C M"
_symmetry_group_IT_number 63
_symmetry_cell_setting 'orthorhombic'
loop_
_space_group_symop_operation_xyz
x,y,z
-x,-y,1/2+z
x,-y,-z
-x,y,1/2-z
-x,-y,-z
x,y,1/2-z
-x,y,z
x,-y,1/2+z
1/2+x,1/2+y,z
1/2-x,1/2-y,1/2+z
1/2+x,1/2-y,-z
1/2-x,1/2+y,1/2-z
1/2-x,1/2-y,-z
1/2+x,1/2+y,1/2-z
1/2-x,1/2+y,z
1/2+x,1/2-y,1/2+z
loop_
_atom_site_type_symbol
_atom_site_label
_atom_site_fract_x
_atom_site_fract_y
_atom_site_fract_z
Si Si1 0.000000 0.699945 0.750000
Si Si2 0.865208 0.689591 0.505855
Si Si3 0.356576 0.947152 0.604014
Si Si4 0.659091 0.326417 0.097051
Si Si5 0.861061 0.940619 0.905748
O O1 0.076380 0.698747 0.865325
O O2 0.888570 0.624169 0.429738
O O3 0.763213 0.679767 0.556009
O O4 0.875151 0.753659 0.418096
O O5 0.384313 0.967468 0.750000
O O6 0.247628 0.945051 0.600441
O O7 0.386956 0.000000 0.500000
O O8 0.650034 0.349507 0.250000
O O9 0.617788 0.375428 0.988267
O O10 0.890918 0.941269 0.750000
O O11 0.890729 0.000000 0.000000
#
# Coordination Sequence:
#
# PCOD9471325 Si02
#       5
#     4  16  16  16  16
#     4  12  24  40  56  88 116 158 188 250 292 360
#     4  10  22  35  58  81 119 152 198 240 299 345
#     4   9  18  32  53  78 109 154 201 246 288 334
#     4  10  19  35  59  86 115 152 195 244 290 347
#     4   9  17  28  49  84 122 149 186 241 294 340
#
# _framework density 21.814737999999998
#
# number of rings (size 3 to 8) (size 9 to 14) (size 15 to 20)
#    0.000    2.353    1.176    1.412    3.294    5.647 
#    0.000    2.941    0.000    0.000    0.000    0.824 
#    0.000    0.000    0.000    0.000    0.000    0.000 
#
# Total GULP energy -189349.099636 kJ/mol
# GULP energy per Si atom -5569.091166 kJ/mol
# Density = 2.176509 g / cm^3
# Si number density = 21.814738 Si / 1000 Ang^3
#
#
#
# Elastic Constant Matrix: (Units=GPa)
#
#
# Indices 1 2 3 4 5 6 
#
# 1 45.8362 7.4730 4.2412 0.0000 0.0000 0.0000
# 2 7.4730 160.4414 88.5854 0.0000 0.0000 0.0000
# 3 4.2412 88.5854 212.0589 0.0000 0.0000 0.0000
# 4 0.0000 0.0000 0.0000 -32.2539 0.0000 0.0000
# 5 0.0000 0.0000 0.0000 0.0000 21.8262 0.0000
# 6 0.0000 0.0000 0.0000 0.0000 0.0000 -14.0242
#
#
#
# Elastic Compliance Matrix: (Units=1/GPa)
#
#
# Indices 1 2 3 4 5 6 
#
# 1 0.021984 -0.001015 -0.000016 0.000000 0.000000 0.000000
# 2 -0.001015 0.008148 -0.003384 0.000000 0.000000 0.000000
# 3 -0.000016 -0.003384 0.006129 0.000000 0.000000 0.000000
# 4 0.000000 0.000000 0.000000 -0.031004 0.000000 0.000000
# 5 0.000000 0.000000 0.000000 0.000000 0.045817 0.000000
# 6 0.000000 0.000000 0.000000 0.000000 0.000000 -0.071305
#
#
# Mechanical properties :
#
#
# Convention : Reuss Voigt Hill
#
# Bulk Modulus (GPa) = 36.45300 68.77064 52.61182
# Shear Modulus (GPa) = -2214.33706 16.31208 -1099.01249
#
# Velocity S-wave (km/s) = -31.89464 2.73748 -22.46970
# Velocity P-wave (km/s) = 36.60070 6.44864 25.47574
#
# Compressibility (1/GPa) = 0.02743258
#
# Stress axis : x y z
#
# Youngs Moduli (GPa) = 45.48806 122.72532 163.14753
#
# Poissons Ratio (x) = 0.12461 0.00253
# Poissons Ratio (y) = 0.04619 0.55202
# Poissons Ratio (z) = 0.00071 0.41525
#
# Static dielectric constant tensor:
#      x y z
#    x 0.666260 0.000000 0.000000 
#    y 0.000000 1.829830 0.000000 
#    z 0.000000 0.000000 1.765010 
# 
# From -- ./inp_files/5833.got.cif
#   From: 2010.05.17/outbox.cif.g08.bks.cpg/sg63_3_cif.got.tgz:5833.got - 2010.06.03 15:47:04.
