data_PCOD9471995
_publ_section_title
;
Structure prediction by ZEFSAII (Michael W. Deem and Ramdas Pophale) SiO2 
 PCOD9471995
Probable space group: C M C M
;
_chemical_formula_sum "Si O2"
_cell_formula_units_Z 96
_cell_length_a 26.577069
_cell_length_b 23.789708
_cell_length_c 8.592390
_cell_angle_alpha 90.000000
_cell_angle_beta 90.000000
_cell_angle_gamma 90.000000
_cell_volume 5432.630611
_symmetry_space_group_name_H-M "C M C M"
_symmetry_group_IT_number 63
_symmetry_cell_setting 'orthorhombic'
loop_
_space_group_symop_operation_xyz
x,y,z
-x,-y,1/2+z
x,-y,-z
-x,y,1/2-z
-x,-y,-z
x,y,1/2-z
-x,y,z
x,-y,1/2+z
1/2+x,1/2+y,z
1/2-x,1/2-y,1/2+z
1/2+x,1/2-y,-z
1/2-x,1/2+y,1/2-z
1/2-x,1/2-y,-z
1/2+x,1/2+y,1/2-z
1/2-x,1/2+y,z
1/2+x,1/2-y,1/2+z
loop_
_atom_site_type_symbol
_atom_site_label
_atom_site_fract_x
_atom_site_fract_y
_atom_site_fract_z
Si Si1 0.556693 0.809445 0.936303
Si Si2 0.804900 0.242825 0.067947
Si Si3 0.158324 0.357232 0.937109
Si Si4 0.347298 0.368896 0.068434
Si Si5 0.748111 0.437150 0.936078
Si Si6 0.941999 0.183382 0.063994
O O1 0.556348 0.801129 0.750000
O O2 0.500000 0.824047 0.987765
O O3 0.598032 0.858335 0.965168
O O4 0.568769 0.747529 0.006536
O O5 0.805677 0.227182 0.250000
O O6 0.750000 0.250000 0.000000
O O7 0.828779 0.302776 0.037520
O O8 0.829136 0.194297 0.965901
O O9 0.164947 0.347186 0.750000
O O10 0.200094 0.403928 0.979326
O O11 0.349872 0.381435 0.250000
O O12 0.303123 0.407088 0.995093
O O13 0.403518 0.363766 0.998841
O O14 0.746022 0.437781 0.750000
O O15 0.750210 0.500000 0.000000
O O16 0.937627 0.184315 0.250000
O O17 0.000000 0.171771 0.019833
#
# Coordination Sequence:
#
# PCOD9471995 Si02
#       6
#    16  16  16  16  16  16
#     4   9  17  30  50  78 112 148 185 223 268 325
#     4  12  22  32  50  79 113 147 181 222 275 335
#     4  10  20  34  54  79 110 147 183 227 276 331
#     4  12  23  36  56  81 113 149 186 226 276 335
#     4  11  24  41  59  79 107 142 188 237 286 337
#     4  10  20  33  51  80 117 152 185 223 269 323
#
# _framework density 17.670995999999999
#
# number of rings (size 3 to 8) (size 9 to 14) (size 15 to 20)
#    0.000    1.333    3.333    4.000    0.000    1.667 
#    0.000    0.000    0.000    1.000    0.000    0.000 
#    0.000    0.000    0.000    0.000    0.000    0.167 
#
# Total GULP energy -267380.413155 kJ/mol
# GULP energy per Si atom -5570.425274 kJ/mol
# Density = 1.763078 g / cm^3
# Si number density = 17.670996 Si / 1000 Ang^3
#
#
#
# Elastic Constant Matrix: (Units=GPa)
#
#
# Indices 1 2 3 4 5 6 
#
# 1 168.6667 63.0639 37.0152 0.0000 0.0000 0.0000
# 2 63.0639 83.5007 22.8887 0.0000 0.0000 0.0000
# 3 37.0152 22.8887 37.8452 0.0000 0.0000 0.0000
# 4 0.0000 0.0000 0.0000 3.6880 0.0000 0.0000
# 5 0.0000 0.0000 0.0000 0.0000 21.8174 0.0000
# 6 0.0000 0.0000 0.0000 0.0000 0.0000 10.6622
#
#
#
# Elastic Compliance Matrix: (Units=1/GPa)
#
#
# Indices 1 2 3 4 5 6 
#
# 1 0.009199 -0.005372 -0.005748 0.000000 0.000000 0.000000
# 2 -0.005372 0.017493 -0.005326 0.000000 0.000000 0.000000
# 3 -0.005748 -0.005326 0.035267 0.000000 0.000000 0.000000
# 4 0.000000 0.000000 0.000000 0.271152 0.000000 0.000000
# 5 0.000000 0.000000 0.000000 0.000000 0.045835 0.000000
# 6 0.000000 0.000000 0.000000 0.000000 0.000000 0.093790
#
#
# Mechanical properties :
#
#
# Convention : Reuss Voigt Hill
#
# Bulk Modulus (GPa) = 34.40347 59.54979 46.97663
# Shear Modulus (GPa) = 9.70281 18.36982 14.03631
#
# Velocity S-wave (km/s) = 2.34579 3.22770 2.82141
# Velocity P-wave (km/s) = 5.18152 6.90384 6.10373
#
# Compressibility (1/GPa) = 0.02906684
#
# Stress axis : x y z
#
# Youngs Moduli (GPa) = 108.70952 57.16640 28.35545
#
# Poissons Ratio (x) = 0.30708 0.16299
# Poissons Ratio (y) = 0.58396 0.15101
# Poissons Ratio (z) = 0.62489 0.30445
#
# Static dielectric constant tensor:
#      x y z
#    x 1.675720 0.000000 0.000000 
#    y 0.000000 1.586270 0.000000 
#    z 0.000000 0.000000 1.678480 
# 
# From -- ./inp_files/12350.got.cif
#   From: 2010.05.17/outbox.cif.g08.bks.cpg/sg63_7_cif.got.tgz:12350.got - 2010.06.03 15:47:04.
