data_PCOD9471484
_publ_section_title
;
Structure prediction by ZEFSAII (Michael W. Deem and Ramdas Pophale) SiO2 
 PCOD9471484
Probable space group: C M C M
;
_chemical_formula_sum "Si O2"
_cell_formula_units_Z 96
_cell_length_a 13.816978
_cell_length_b 19.986023
_cell_length_c 18.104729
_cell_angle_alpha 90.000000
_cell_angle_beta 90.000000
_cell_angle_gamma 90.000000
_cell_volume 4999.556462
_symmetry_space_group_name_H-M "C M C M"
_symmetry_group_IT_number 63
_symmetry_cell_setting 'orthorhombic'
loop_
_space_group_symop_operation_xyz
x,y,z
-x,-y,1/2+z
x,-y,-z
-x,y,1/2-z
-x,-y,-z
x,y,1/2-z
-x,y,z
x,-y,1/2+z
1/2+x,1/2+y,z
1/2-x,1/2-y,1/2+z
1/2+x,1/2-y,-z
1/2-x,1/2+y,1/2-z
1/2-x,1/2-y,-z
1/2+x,1/2+y,1/2-z
1/2-x,1/2+y,z
1/2+x,1/2-y,1/2+z
loop_
_atom_site_type_symbol
_atom_site_label
_atom_site_fract_x
_atom_site_fract_y
_atom_site_fract_z
Si Si1 0.766547 0.590988 0.337283
Si Si2 0.103739 0.006660 0.662847
Si Si3 0.392441 0.667074 0.663896
Si Si4 0.786659 0.301289 0.438311
Si Si5 0.891496 0.791859 0.665191
Si Si6 0.614134 0.922195 0.521507
O O1 0.792231 0.584653 0.250000
O O2 0.699233 0.529303 0.364316
O O3 0.693445 0.653788 0.344587
O O4 0.855015 0.592503 0.393664
O O5 0.100597 0.988308 0.750000
O O6 0.109198 0.086368 0.659249
O O7 0.000000 0.985970 0.629562
O O8 0.381598 0.685534 0.750000
O O9 0.500000 0.689311 0.639346
O O10 0.304041 0.691750 0.616323
O O11 0.750000 0.250000 0.500000
O O12 0.872241 0.267093 0.391891
O O13 0.822119 0.371062 0.472740
O O14 0.885374 0.768068 0.750000
O O15 0.000000 0.820357 0.655279
O O16 0.500000 0.909062 0.511020
O O17 0.631231 0.000000 0.500000
#
# Coordination Sequence:
#
# PCOD9471484 Si02
#       6
#    16  16  16  16  16  16
#     4  10  19  36  61  89 119 158 204 251 305 368
#     4   8  14  28  54  86 116 143 178 233 296 354
#     4   9  19  36  59  88 117 148 191 242 299 363
#     4  12  23  40  60  85 121 162 203 253 306 369
#     4  10  21  38  61  89 119 154 202 256 310 368
#     4  11  25  44  62  86 125 169 212 259 309 364
#
# _framework density 19.201703999999999
#
# number of rings (size 3 to 8) (size 9 to 14) (size 15 to 20)
#    0.000    2.000    1.667    3.500    0.000    3.667 
#    0.000    0.833    0.000    5.500    0.000    0.000 
#    0.000    0.000    0.000    0.000    0.000    0.000 
#
# Total GULP energy -267715.030854 kJ/mol
# GULP energy per Si atom -5577.396476 kJ/mol
# Density = 1.915800 g / cm^3
# Si number density = 19.201704 Si / 1000 Ang^3
#
#
#
# Elastic Constant Matrix: (Units=GPa)
#
#
# Indices 1 2 3 4 5 6 
#
# 1 93.4667 30.9616 44.3876 0.0000 0.0000 0.0000
# 2 30.9616 59.6845 35.0346 0.0000 0.0000 0.0000
# 3 44.3876 35.0346 73.1736 0.0000 0.0000 0.0000
# 4 0.0000 0.0000 0.0000 27.2091 0.0000 0.0000
# 5 0.0000 0.0000 0.0000 0.0000 23.8962 0.0000
# 6 0.0000 0.0000 0.0000 0.0000 0.0000 -18.5177
#
#
#
# Elastic Compliance Matrix: (Units=1/GPa)
#
#
# Indices 1 2 3 4 5 6 
#
# 1 0.015541 -0.003517 -0.007744 0.000000 0.000000 0.000000
# 2 -0.003517 0.024100 -0.009406 0.000000 0.000000 0.000000
# 3 -0.007744 -0.009406 0.022867 0.000000 0.000000 0.000000
# 4 0.000000 0.000000 0.000000 0.036752 0.000000 0.000000
# 5 0.000000 0.000000 0.000000 0.000000 0.041848 0.000000
# 6 0.000000 0.000000 0.000000 0.000000 0.000000 -0.054002
#
#
# Mechanical properties :
#
#
# Convention : Reuss Voigt Hill
#
# Bulk Modulus (GPa) = 47.22259 49.67692 48.44976
# Shear Modulus (GPa) = 36.90111 14.24690 25.57401
#
# Velocity S-wave (km/s) = 4.38855 2.72685 3.65343
# Velocity P-wave (km/s) = 7.09404 5.98678 6.56380
#
# Compressibility (1/GPa) = 0.02117630
#
# Stress axis : x y z
#
# Youngs Moduli (GPa) = 64.34392 41.49360 43.73126
#
# Poissons Ratio (x) = 0.14592 0.33865
# Poissons Ratio (y) = 0.22627 0.41132
# Poissons Ratio (z) = 0.49827 0.39027
#
# Static dielectric constant tensor:
#      x y z
#    x 1.691300 0.000000 0.000000 
#    y 0.000000 1.678210 0.000000 
#    z 0.000000 0.000000 1.657850 
# 
# From -- ./inp_files/31889.got.cif
#   From: 2010.05.17/outbox.cif.g08.bks.cpg/sg63_16_cif.got.tgz:31889.got - 2010.06.03 15:47:04.
