data_PCOD9471008
_publ_section_title
;
Structure prediction by ZEFSAII (Michael W. Deem and Ramdas Pophale) SiO2 
 PCOD9471008
Probable space group: C M C M
;
_chemical_formula_sum "Si O2"
_cell_formula_units_Z 116
_cell_length_a 28.210622
_cell_length_b 28.925561
_cell_length_c 7.791701
_cell_angle_alpha 90.000000
_cell_angle_beta 90.000000
_cell_angle_gamma 90.000000
_cell_volume 6358.090876
_symmetry_space_group_name_H-M "C M C M"
_symmetry_group_IT_number 63
_symmetry_cell_setting 'orthorhombic'
loop_
_space_group_symop_operation_xyz
x,y,z
-x,-y,1/2+z
x,-y,-z
-x,y,1/2-z
-x,-y,-z
x,y,1/2-z
-x,y,z
x,-y,1/2+z
1/2+x,1/2+y,z
1/2-x,1/2-y,1/2+z
1/2+x,1/2-y,-z
1/2-x,1/2+y,1/2-z
1/2-x,1/2-y,-z
1/2+x,1/2+y,1/2-z
1/2-x,1/2+y,z
1/2+x,1/2-y,1/2+z
loop_
_atom_site_type_symbol
_atom_site_label
_atom_site_fract_x
_atom_site_fract_y
_atom_site_fract_z
Si Si1 0.685945 0.948207 0.954152
Si Si2 0.053764 0.296434 0.040794
Si Si3 0.759038 0.303208 0.044205
Si Si4 0.205703 0.948413 0.956437
Si Si5 0.929764 0.190195 0.943194
Si Si6 0.164656 0.855594 0.950495
Si Si7 0.000000 0.836290 0.750000
Si Si8 0.644809 0.851496 0.454316
O O1 0.688369 0.945407 0.750000
O O2 0.740088 0.942868 0.022643
O O3 0.654346 0.905500 0.014398
O O4 0.669700 0.000000 0.000000
O O5 0.054202 0.293697 0.250000
O O6 0.094950 0.331202 0.981838
O O7 0.000000 0.309153 0.990479
O O8 0.064886 0.245137 0.973767
O O9 0.757942 0.308487 0.250000
O O10 0.809566 0.322766 0.979990
O O11 0.750000 0.250000 0.000000
O O12 0.716006 0.332353 0.967651
O O13 0.207739 0.944188 0.750000
O O14 0.172018 0.907553 0.019655
O O15 0.189925 0.000000 0.000000
O O16 0.945941 0.179356 0.750000
O O17 0.875434 0.174145 0.958828
O O18 0.959223 0.167027 0.096842
O O19 0.152091 0.857512 0.750000
O O20 0.644073 0.844423 0.250000
#
# Coordination Sequence:
#
# PCOD9471008 Si02
#       8
#    16  16  16  16  16  16   4  16
#     4  10  19  34  54  78 107 144 187 233 284 348
#     4  10  19  37  58  81 115 151 194 251 298 341
#     4  11  22  34  49  75 112 155 192 229 279 353
#     4   9  19  33  54  79 112 150 184 231 286 341
#     4  12  23  38  63  89 116 158 199 242 299 345
#     4  11  21  37  55  81 120 153 189 237 289 344
#     4  12  22  44  60  86 126 148 198 260 282 342
#     4  10  21  34  53  79 110 151 191 235 293 345
#
# _framework density 18.244471000000001
#
# number of rings (size 3 to 8) (size 9 to 14) (size 15 to 20)
#    0.000    1.517    3.448    2.276    0.000    3.862 
#    0.000    0.000    0.000    0.414    0.000    0.483 
#    0.000    0.000    0.000    0.000    0.000    0.000 
#
# Total GULP energy -323251.928728 kJ/mol
# GULP energy per Si atom -5573.309116 kJ/mol
# Density = 1.820295 g / cm^3
# Si number density = 18.244471 Si / 1000 Ang^3
#
#
#
# Elastic Constant Matrix: (Units=GPa)
#
#
# Indices 1 2 3 4 5 6 
#
# 1 144.6328 65.6010 24.4547 0.0000 0.0000 0.0000
# 2 65.6010 93.1520 1.8094 0.0000 0.0000 0.0000
# 3 24.4547 1.8094 66.0495 0.0000 0.0000 0.0000
# 4 0.0000 0.0000 0.0000 21.3353 0.0000 0.0000
# 5 0.0000 0.0000 0.0000 0.0000 12.8801 0.0000
# 6 0.0000 0.0000 0.0000 0.0000 0.0000 30.4010
#
#
#
# Elastic Compliance Matrix: (Units=1/GPa)
#
#
# Indices 1 2 3 4 5 6 
#
# 1 0.011075 -0.007724 -0.003889 0.000000 0.000000 0.000000
# 2 -0.007724 0.016128 0.002418 0.000000 0.000000 0.000000
# 3 -0.003889 0.002418 0.016514 0.000000 0.000000 0.000000
# 4 0.000000 0.000000 0.000000 0.046871 0.000000 0.000000
# 5 0.000000 0.000000 0.000000 0.000000 0.077639 0.000000
# 6 0.000000 0.000000 0.000000 0.000000 0.000000 0.032894
#
#
# Mechanical properties :
#
#
# Convention : Reuss Voigt Hill
#
# Bulk Modulus (GPa) = 39.48402 54.17384 46.82893
# Shear Modulus (GPa) = 21.93451 27.05456 24.49453
#
# Velocity S-wave (km/s) = 3.47112 3.85501 3.66809
# Velocity P-wave (km/s) = 6.14439 7.04078 6.60780
#
# Compressibility (1/GPa) = 0.02532670
#
# Stress axis : x y z
#
# Youngs Moduli (GPa) = 90.29450 62.00572 60.55554
#
# Poissons Ratio (x) = 0.47892 0.23549
# Poissons Ratio (y) = 0.69742 -0.14642
# Poissons Ratio (z) = 0.35114 -0.14992
#
# Static dielectric constant tensor:
#      x y z
#    x 1.633360 0.000000 0.000000 
#    y 0.000000 1.665110 0.000000 
#    z 0.000000 0.000000 1.664560 
# 
# From -- ./inp_files/13365.got.cif
#   From: 2010.05.17/outbox.cif.g08.bks.cpg/sg63_7_cif.got.tgz:13365.got - 2010.06.03 15:47:04.
