data_PCOD9471503
_publ_section_title
;
Structure prediction by ZEFSAII (Michael W. Deem and Ramdas Pophale) SiO2 
 PCOD9471503
Probable space group: C M C M
;
_chemical_formula_sum "Si O2"
_cell_formula_units_Z 96
_cell_length_a 22.706510
_cell_length_b 15.063827
_cell_length_c 15.057644
_cell_angle_alpha 90.000000
_cell_angle_beta 90.000000
_cell_angle_gamma 90.000000
_cell_volume 5150.421030
_symmetry_space_group_name_H-M "C M C M"
_symmetry_group_IT_number 63
_symmetry_cell_setting 'orthorhombic'
loop_
_space_group_symop_operation_xyz
x,y,z
-x,-y,1/2+z
x,-y,-z
-x,y,1/2-z
-x,-y,-z
x,y,1/2-z
-x,y,z
x,-y,1/2+z
1/2+x,1/2+y,z
1/2-x,1/2-y,1/2+z
1/2+x,1/2-y,-z
1/2-x,1/2+y,1/2-z
1/2-x,1/2-y,-z
1/2+x,1/2+y,1/2-z
1/2-x,1/2+y,z
1/2+x,1/2-y,1/2+z
loop_
_atom_site_type_symbol
_atom_site_label
_atom_site_fract_x
_atom_site_fract_y
_atom_site_fract_z
Si Si1 0.931367 0.766898 0.250000
Si Si2 0.153437 0.402219 0.750000
Si Si3 0.117852 0.100750 0.105651
Si Si4 0.346564 0.097782 0.750000
Si Si5 0.931367 0.233101 0.250000
Si Si6 0.747509 0.856609 0.396830
Si Si7 0.752491 0.643390 0.103170
Si Si8 0.617852 0.600751 0.894349
O O1 0.892211 0.678395 0.250000
O O2 0.914861 0.827277 0.335046
O O3 0.000000 0.745858 0.250000
O O4 0.125938 0.500000 0.750000
O O5 0.196757 0.392493 0.665810
O O6 0.085140 0.172723 0.164954
O O7 0.187648 0.107692 0.126202
O O8 0.098032 1.000000 0.124220
O O9 0.111399 0.117449 1.000000
O O10 0.392212 0.178395 0.750000
O O11 0.303244 0.107508 0.834189
O O12 0.000000 0.254137 0.250000
O O13 0.750000 0.750000 0.386838
O O14 0.736218 0.877415 0.500000
O O15 0.812352 0.892307 0.373797
#
# Coordination Sequence:
#
# PCOD9471503 Si02
#       8
#     8   8  16   8   8  16  16  16
#     4  12  26  42  58  79 113 159 207 247 280 325
#     4  12  24  38  60  87 117 156 198 240 287 339
#     4  10  21  38  62  92 121 147 181 233 297 360
#     4  12  24  38  60  87 117 156 198 240 287 339
#     4  12  26  42  58  79 113 159 207 247 280 325
#     4  10  19  36  63  92 121 150 181 228 297 361
#     4  10  19  36  63  92 121 150 181 228 297 361
#     4  10  21  38  62  92 121 147 181 233 297 360
#
# _framework density 18.639251999999999
#
# number of rings (size 3 to 8) (size 9 to 14) (size 15 to 20)
#    0.000    1.333    3.333    3.000    0.000    4.333 
#    0.000    1.667    0.000    0.000    0.000    4.667 
#    0.000    0.000    0.000    0.000    0.000    0.000 
#
# Total GULP energy -268414.300824 kJ/mol
# GULP energy per Si atom -5591.964601 kJ/mol
# Density = 1.859683 g / cm^3
# Si number density = 18.639252 Si / 1000 Ang^3
#
#
#
# Elastic Constant Matrix: (Units=GPa)
#
#
# Indices 1 2 3 4 5 6 
#
# 1 82.8381 30.4781 44.9572 0.0000 0.0000 0.0000
# 2 30.4781 102.1063 44.1450 0.0000 0.0000 0.0000
# 3 44.9572 44.1450 71.8140 0.0000 0.0000 0.0000
# 4 0.0000 0.0000 0.0000 -24.5708 0.0000 0.0000
# 5 0.0000 0.0000 0.0000 0.0000 5.4542 0.0000
# 6 0.0000 0.0000 0.0000 0.0000 0.0000 -6.6628
#
#
#
# Elastic Compliance Matrix: (Units=1/GPa)
#
#
# Indices 1 2 3 4 5 6 
#
# 1 0.018320 -0.000695 -0.011042 0.000000 0.000000 0.000000
# 2 -0.000695 0.013365 -0.007781 0.000000 0.000000 0.000000
# 3 -0.011042 -0.007781 0.025620 0.000000 0.000000 0.000000
# 4 0.000000 0.000000 0.000000 -0.040699 0.000000 0.000000
# 5 0.000000 0.000000 0.000000 0.000000 0.183344 0.000000
# 6 0.000000 0.000000 0.000000 0.000000 0.000000 -0.150086
#
#
# Mechanical properties :
#
#
# Convention : Reuss Voigt Hill
#
# Bulk Modulus (GPa) = 54.73194 55.10211 54.91702
# Shear Modulus (GPa) = 52.63781 3.98932 28.31357
#
# Velocity S-wave (km/s) = 5.31993 1.46456 3.90170
# Velocity P-wave (km/s) = 8.19531 5.69969 7.05867
#
# Compressibility (1/GPa) = 0.01827087
#
# Stress axis : x y z
#
# Youngs Moduli (GPa) = 54.58617 74.82206 39.03186
#
# Poissons Ratio (x) = 0.05197 0.43097
# Poissons Ratio (y) = 0.03791 0.30370
# Poissons Ratio (z) = 0.60272 0.58218
#
# Static dielectric constant tensor:
#      x y z
#    x 1.600430 0.000000 0.000000 
#    y 0.000000 1.661600 0.000000 
#    z 0.000000 0.000000 1.666280 
# 
# From -- ./inp_files/36844.got.cif
#   From: 2010.05.17/outbox.cif.g08.bks.cpg/sg63_19_cif.got.tgz:36844.got - 2010.06.03 15:47:04.
