data_PCOD9471917
_publ_section_title
;
Structure prediction by ZEFSAII (Michael W. Deem and Ramdas Pophale) SiO2 
 PCOD9471917
Probable space group: C M C M
;
_chemical_formula_sum "Si O2"
_cell_formula_units_Z 96
_cell_length_a 7.390322
_cell_length_b 19.989271
_cell_length_c 24.610215
_cell_angle_alpha 90.000000
_cell_angle_beta 90.000000
_cell_angle_gamma 90.000000
_cell_volume 3635.596904
_symmetry_space_group_name_H-M "C M C M"
_symmetry_group_IT_number 63
_symmetry_cell_setting 'orthorhombic'
loop_
_space_group_symop_operation_xyz
x,y,z
-x,-y,1/2+z
x,-y,-z
-x,y,1/2-z
-x,-y,-z
x,y,1/2-z
-x,y,z
x,-y,1/2+z
1/2+x,1/2+y,z
1/2-x,1/2-y,1/2+z
1/2+x,1/2-y,-z
1/2-x,1/2+y,1/2-z
1/2-x,1/2-y,-z
1/2+x,1/2+y,1/2-z
1/2-x,1/2+y,z
1/2+x,1/2-y,1/2+z
loop_
_atom_site_type_symbol
_atom_site_label
_atom_site_fract_x
_atom_site_fract_y
_atom_site_fract_z
Si Si1 0.221869 0.373736 0.570151
Si Si2 0.293063 0.849323 0.808411
Si Si3 0.212179 0.945029 0.309034
Si Si4 0.206133 0.479792 0.425981
Si Si5 0.279189 0.167474 0.542360
Si Si6 0.282814 0.793085 0.157801
O O1 0.287742 0.363497 0.631788
O O2 0.279372 0.449475 0.554657
O O3 0.278825 0.325299 0.520389
O O4 0.000000 0.371969 0.571529
O O5 0.212444 0.870893 0.750000
O O6 0.500000 0.873570 0.809285
O O7 0.293849 0.768693 0.809628
O O8 0.286276 0.962535 0.250000
O O9 0.295084 0.981444 0.360516
O O10 0.234912 0.865514 0.318578
O O11 0.000000 0.960220 0.309992
O O12 0.283216 0.407862 0.441331
O O13 0.000000 0.476492 0.444635
O O14 0.500000 0.169534 0.543012
O O15 0.219699 0.209902 0.594637
O O16 0.500000 0.788360 0.158872
#
# Coordination Sequence:
#
# PCOD9471917 Si02
#       6
#    16  16  16  16  16  16
#     4   9  17  31  52  75 102 137 170 201 242 297
#     4  10  21  35  50  71 101 137 173 206 244 293
#     4  10  20  33  50  73 102 135 168 206 255 304
#     4   9  17  30  52  79 103 130 167 209 249 293
#     4   8  15  29  51  79 103 124 160 209 256 298
#     4  10  20  34  54  77  98 125 166 214 259 301
#
# _framework density 26.405569
#
# number of rings (size 3 to 8) (size 9 to 14) (size 15 to 20)
#    0.000    2.667    0.000    3.000    0.000    7.000 
#    0.000    2.500    0.000   13.000    0.000    0.000 
#    0.000    0.000    0.000    0.000    0.000    0.000 
#
# Total GULP energy -268248.640964 kJ/mol
# GULP energy per Si atom -5588.513353 kJ/mol
# Density = 2.634547 g / cm^3
# Si number density = 26.405569 Si / 1000 Ang^3
#
#
#
# Elastic Constant Matrix: (Units=GPa)
#
#
# Indices 1 2 3 4 5 6 
#
# 1 105.7537 -11.0452 8.9944 0.0000 0.0000 0.0000
# 2 -11.0452 53.8546 10.7022 0.0000 0.0000 0.0000
# 3 8.9944 10.7022 223.8192 0.0000 0.0000 0.0000
# 4 0.0000 0.0000 0.0000 10.8922 0.0000 0.0000
# 5 0.0000 0.0000 0.0000 0.0000 -15.4604 0.0000
# 6 0.0000 0.0000 0.0000 0.0000 0.0000 -1.0513
#
#
#
# Elastic Compliance Matrix: (Units=1/GPa)
#
#
# Indices 1 2 3 4 5 6 
#
# 1 0.009716 0.002090 -0.000490 0.000000 0.000000 0.000000
# 2 0.002090 0.019196 -0.001002 0.000000 0.000000 0.000000
# 3 -0.000490 -0.001002 0.004536 0.000000 0.000000 0.000000
# 4 0.000000 0.000000 0.000000 0.091809 0.000000 0.000000
# 5 0.000000 0.000000 0.000000 0.000000 -0.064681 0.000000
# 6 0.000000 0.000000 0.000000 0.000000 0.000000 -0.951167
#
#
# Mechanical properties :
#
#
# Convention : Reuss Voigt Hill
#
# Bulk Modulus (GPa) = 28.86550 44.52559 36.69555
# Shear Modulus (GPa) = -5.68027 23.86116 9.09045
#
# Velocity S-wave (km/s) = -1.46828 3.00932 1.85744
# Velocity P-wave (km/s) = 2.84269 5.38270 4.30432
#
# Compressibility (1/GPa) = 0.03464343
#
# Stress axis : x y z
#
# Youngs Moduli (GPa) = 102.92361 52.09339 220.48257
#
# Poissons Ratio (x) = -0.10888 0.10812
# Poissons Ratio (y) = -0.21512 0.22090
# Poissons Ratio (z) = 0.05047 0.05219
#
# Static dielectric constant tensor:
#      x y z
#    x 2.010350 0.000000 0.000000 
#    y 0.000000 2.042410 0.000000 
#    z 0.000000 0.000000 2.159800 
# 
# From -- ./inp_files/59828.got.cif
#   From: 2010.05.17/outbox.cif.g08.bks.cpg/sg63_30_cif.got.tgz:59828.got - 2010.06.03 15:47:04.
