data_PCOD9471335
_publ_section_title
;
Structure prediction by ZEFSAII (Michael W. Deem and Ramdas Pophale) SiO2 
 PCOD9471335
Probable space group: C M C M
;
_chemical_formula_sum "Si O2"
_cell_formula_units_Z 80
_cell_length_a 7.659755
_cell_length_b 25.664261
_cell_length_c 18.797884
_cell_angle_alpha 90.000000
_cell_angle_beta 90.000000
_cell_angle_gamma 90.000000
_cell_volume 3695.324721
_symmetry_space_group_name_H-M "C M C M"
_symmetry_group_IT_number 63
_symmetry_cell_setting 'orthorhombic'
loop_
_space_group_symop_operation_xyz
x,y,z
-x,-y,1/2+z
x,-y,-z
-x,y,1/2-z
-x,-y,-z
x,y,1/2-z
-x,y,z
x,-y,1/2+z
1/2+x,1/2+y,z
1/2-x,1/2-y,1/2+z
1/2+x,1/2-y,-z
1/2-x,1/2+y,1/2-z
1/2-x,1/2-y,-z
1/2+x,1/2+y,1/2-z
1/2-x,1/2+y,z
1/2+x,1/2-y,1/2+z
loop_
_atom_site_type_symbol
_atom_site_label
_atom_site_fract_x
_atom_site_fract_y
_atom_site_fract_z
Si Si1 0.710025 0.227489 0.422016
Si Si2 0.203422 0.610124 0.089982
Si Si3 0.786964 0.175838 0.830871
Si Si4 0.788005 0.920410 0.431260
Si Si5 0.295649 0.489722 0.671072
O O1 0.500000 0.224994 0.416851
O O2 0.750000 0.250000 0.500000
O O3 0.777511 0.168812 0.411800
O O4 0.771822 0.269415 0.364192
O O5 0.283883 0.569380 0.144721
O O6 0.000000 0.613498 0.108279
O O7 0.221450 0.586914 0.010777
O O8 0.728580 0.168023 0.750000
O O9 0.736438 0.129127 0.883265
O O10 0.000000 0.176005 0.830123
O O11 0.000000 0.921628 0.436868
O O12 0.725006 0.971702 0.389590
O O13 0.219453 0.496687 0.750000
O O14 0.500000 0.503575 0.676144
#
# Coordination Sequence:
#
# PCOD9471335 Si02
#       5
#    16  16  16  16  16
#     4  10  20  35  56  81 110 146 185 227 271 328
#     4  11  23  36  55  84 116 151 187 225 275 340
#     4   9  17  31  55  84 108 136 180 233 282 323
#     4  10  19  35  60  84 107 142 188 237 280 327
#     4  10  22  39  58  82 111 145 189 237 281 328
#
# _framework density 21.648978
#
# number of rings (size 3 to 8) (size 9 to 14) (size 15 to 20)
#    0.000    2.000    2.000    1.800    0.000    7.600 
#    0.000    2.000    0.000    3.600    0.000    0.000 
#    0.000    0.000    0.000    0.000    0.000    0.000 
#
# Total GULP energy -223501.188212 kJ/mol
# GULP energy per Si atom -5587.529705 kJ/mol
# Density = 2.159970 g / cm^3
# Si number density = 21.648978 Si / 1000 Ang^3
#
#
#
# Elastic Constant Matrix: (Units=GPa)
#
#
# Indices 1 2 3 4 5 6 
#
# 1 38.3482 -5.6001 -11.1383 0.0000 0.0000 0.0000
# 2 -5.6001 101.3858 -11.6042 0.0000 0.0000 0.0000
# 3 -11.1383 -11.6042 40.7453 0.0000 0.0000 0.0000
# 4 0.0000 0.0000 0.0000 22.5414 0.0000 0.0000
# 5 0.0000 0.0000 0.0000 0.0000 1.2199 0.0000
# 6 0.0000 0.0000 0.0000 0.0000 0.0000 17.4809
#
#
#
# Elastic Compliance Matrix: (Units=1/GPa)
#
#
# Indices 1 2 3 4 5 6 
#
# 1 0.028970 0.002591 0.008657 0.000000 0.000000 0.000000
# 2 0.002591 0.010427 0.003678 0.000000 0.000000 0.000000
# 3 0.008657 0.003678 0.027957 0.000000 0.000000 0.000000
# 4 0.000000 0.000000 0.000000 0.044363 0.000000 0.000000
# 5 0.000000 0.000000 0.000000 0.000000 0.819745 0.000000
# 6 0.000000 0.000000 0.000000 0.000000 0.000000 0.057205
#
#
# Mechanical properties :
#
#
# Convention : Reuss Voigt Hill
#
# Bulk Modulus (GPa) = 10.28739 13.75489 12.02114
# Shear Modulus (GPa) = 5.04430 22.16989 13.60710
#
# Velocity S-wave (km/s) = 1.52810 3.20357 2.50978
# Velocity P-wave (km/s) = 2.80637 4.47786 3.73677
#
# Compressibility (1/GPa) = 0.09720639
#
# Stress axis : x y z
#
# Youngs Moduli (GPa) = 34.51877 95.90117 35.76951
#
# Poissons Ratio (x) = -0.24848 -0.30966
# Poissons Ratio (y) = -0.08944 -0.13156
# Poissons Ratio (z) = -0.29884 -0.35273
#
# Static dielectric constant tensor:
#      x y z
#    x 1.091730 0.000000 0.000000 
#    y 0.000000 1.789580 0.000000 
#    z 0.000000 0.000000 1.744690 
# 
# From -- ./inp_files/40462.got.cif
#   From: 2010.05.17/outbox.cif.g08.bks.cpg/sg63_21_cif.got.tgz:40462.got - 2010.06.03 15:47:04.
