data_PCOD9471567
_publ_section_title
;
Structure prediction by ZEFSAII (Michael W. Deem and Ramdas Pophale) SiO2 
 PCOD9471567
Probable space group: C M C M
;
_chemical_formula_sum "Si O2"
_cell_formula_units_Z 80
_cell_length_a 27.619958
_cell_length_b 9.426441
_cell_length_c 16.932078
_cell_angle_alpha 90.000000
_cell_angle_beta 90.000000
_cell_angle_gamma 90.000000
_cell_volume 4408.400347
_symmetry_space_group_name_H-M "C M C M"
_symmetry_group_IT_number 63
_symmetry_cell_setting 'orthorhombic'
loop_
_space_group_symop_operation_xyz
x,y,z
-x,-y,1/2+z
x,-y,-z
-x,y,1/2-z
-x,-y,-z
x,y,1/2-z
-x,y,z
x,-y,1/2+z
1/2+x,1/2+y,z
1/2-x,1/2-y,1/2+z
1/2+x,1/2-y,-z
1/2-x,1/2+y,1/2-z
1/2-x,1/2-y,-z
1/2+x,1/2+y,1/2-z
1/2-x,1/2+y,z
1/2+x,1/2-y,1/2+z
loop_
_atom_site_type_symbol
_atom_site_label
_atom_site_fract_x
_atom_site_fract_y
_atom_site_fract_z
Si Si1 0.786212 0.706199 0.429844
Si Si2 0.896137 0.659124 0.019643
Si Si3 0.057877 0.837431 0.159278
Si Si4 0.882766 0.915734 0.582274
Si Si5 0.215271 0.995422 0.656416
O O1 0.750000 0.750000 0.500000
O O2 0.838689 0.665911 0.462447
O O3 0.791178 0.844422 0.374495
O O4 0.761653 0.577012 0.383452
O O5 0.922515 0.723358 0.096430
O O6 0.910923 0.500000 0.000000
O O7 0.903678 0.766050 0.946074
O O8 0.071905 0.806162 0.250000
O O9 0.000000 0.844799 0.154586
O O10 0.081277 0.986766 0.132637
O O11 0.873110 0.000000 0.500000
O O12 0.831915 0.908579 0.627399
O O13 0.218966 0.992658 0.750000
#
# Coordination Sequence:
#
# PCOD9471567 Si02
#       5
#    16  16  16  16  16
#     4  12  22  39  58  82 121 165 205 247 298 364
#     4  11  23  39  62  91 124 164 206 248 305 369
#     4  10  22  42  68  93 121 158 203 261 316 360
#     4  10  19  38  62  86 115 158 204 249 297 361
#     4  12  23  36  56  87 120 158 206 255 301 356
#
# _framework density 18.147171
#
# number of rings (size 3 to 8) (size 9 to 14) (size 15 to 20)
#    0.000    1.000    6.000    3.000    0.000    4.800 
#    0.000    2.000    0.000    2.400    0.000    0.000 
#    0.000    0.000    0.000    0.000    0.000    0.000 
#
# Total GULP energy -223528.544750 kJ/mol
# GULP energy per Si atom -5588.213619 kJ/mol
# Density = 1.810587 g / cm^3
# Si number density = 18.147171 Si / 1000 Ang^3
#
#
#
# Elastic Constant Matrix: (Units=GPa)
#
#
# Indices 1 2 3 4 5 6 
#
# 1 68.6670 12.4618 33.4329 0.0000 0.0000 0.0000
# 2 12.4618 120.7602 31.1389 0.0000 0.0000 0.0000
# 3 33.4329 31.1389 94.0444 0.0000 0.0000 0.0000
# 4 0.0000 0.0000 0.0000 25.4174 0.0000 0.0000
# 5 0.0000 0.0000 0.0000 0.0000 24.9317 0.0000
# 6 0.0000 0.0000 0.0000 0.0000 0.0000 19.2709
#
#
#
# Elastic Compliance Matrix: (Units=1/GPa)
#
#
# Indices 1 2 3 4 5 6 
#
# 1 0.017617 -0.000222 -0.006189 0.000000 0.000000 0.000000
# 2 -0.000222 0.009057 -0.002920 0.000000 0.000000 0.000000
# 3 -0.006189 -0.002920 0.013800 0.000000 0.000000 0.000000
# 4 0.000000 0.000000 0.000000 0.039343 0.000000 0.000000
# 5 0.000000 0.000000 0.000000 0.000000 0.040110 0.000000
# 6 0.000000 0.000000 0.000000 0.000000 0.000000 0.051892
#
#
# Mechanical properties :
#
#
# Convention : Reuss Voigt Hill
#
# Bulk Modulus (GPa) = 45.84714 48.61539 47.23126
# Shear Modulus (GPa) = 25.28433 27.68654 26.48544
#
# Velocity S-wave (km/s) = 3.73673 3.91022 3.82446
# Velocity P-wave (km/s) = 6.62846 6.87270 6.75169
#
# Compressibility (1/GPa) = 0.02181161
#
# Stress axis : x y z
#
# Youngs Moduli (GPa) = 56.76408 110.41572 72.46195
#
# Poissons Ratio (x) = 0.02451 0.44849
# Poissons Ratio (y) = 0.01260 0.21158
# Poissons Ratio (z) = 0.35133 0.32239
#
# Static dielectric constant tensor:
#      x y z
#    x 1.608960 0.000000 0.000000 
#    y 0.000000 1.637300 0.000000 
#    z 0.000000 0.000000 1.607600 
# 
# From -- ./inp_files/48777.got.cif
#   From: 2010.05.17/outbox.cif.g08.bks.cpg/sg63_25_cif.got.tgz:48777.got - 2010.06.03 15:47:04.
