data_PCOD9471524
_publ_section_title
;
Structure prediction by ZEFSAII (Michael W. Deem and Ramdas Pophale) SiO2 
 PCOD9471524
Probable space group: C M C M
;
_chemical_formula_sum "Si O2"
_cell_formula_units_Z 100
_cell_length_a 22.255199
_cell_length_b 8.925897
_cell_length_c 24.517769
_cell_angle_alpha 90.000000
_cell_angle_beta 90.000000
_cell_angle_gamma 90.000000
_cell_volume 4870.396312
_symmetry_space_group_name_H-M "C M C M"
_symmetry_group_IT_number 63
_symmetry_cell_setting 'orthorhombic'
loop_
_space_group_symop_operation_xyz
x,y,z
-x,-y,1/2+z
x,-y,-z
-x,y,1/2-z
-x,-y,-z
x,y,1/2-z
-x,y,z
x,-y,1/2+z
1/2+x,1/2+y,z
1/2-x,1/2-y,1/2+z
1/2+x,1/2-y,-z
1/2-x,1/2+y,1/2-z
1/2-x,1/2-y,-z
1/2+x,1/2+y,1/2-z
1/2-x,1/2+y,z
1/2+x,1/2-y,1/2+z
loop_
_atom_site_type_symbol
_atom_site_label
_atom_site_fract_x
_atom_site_fract_y
_atom_site_fract_z
Si Si1 0.432243 0.750138 0.315766
Si Si2 0.567122 0.162596 0.471950
Si Si3 0.310268 0.331731 0.021158
Si Si4 0.684592 0.588913 0.312370
Si Si5 0.790834 0.230656 0.853268
Si Si6 0.092807 0.413153 0.846228
Si Si7 0.500000 0.162394 0.250000
O O1 0.433229 0.775345 0.250000
O O2 0.500000 0.712687 0.332471
O O3 0.384540 0.620700 0.327118
O O4 0.413126 0.907257 0.342053
O O5 0.500000 0.225887 0.483458
O O6 0.625691 0.253550 0.492041
O O7 0.573206 0.139376 0.406556
O O8 0.569860 0.000000 0.500000
O O9 0.304479 0.325586 0.086231
O O10 0.310343 0.500000 0.000000
O O11 0.250000 0.250000 0.000000
O O12 0.693368 0.639192 0.250000
O O13 0.726458 0.692505 0.349128
O O14 0.701986 0.416486 0.316997
O O15 0.839591 0.356094 0.837895
O O16 0.051738 0.347340 0.798305
#
# Coordination Sequence:
#
# PCOD9471524 Si02
#       7
#    16  16  16  16  16  16   4
#     4  10  19  37  58  86 120 163 208 253 298 362
#     4  10  22  41  63  95 130 164 209 259 316 377
#     4  11  24  43  68  90 119 161 211 263 317 371
#     4  11  24  39  58  86 125 164 203 250 316 372
#     4  11  25  42  62  91 123 160 208 263 309 373
#     4  11  21  38  65  94 124 168 212 254 310 372
#     4  12  20  36  66  94 130 164 216 248 306 380
#
# _framework density 20.532209999999999
#
# number of rings (size 3 to 8) (size 9 to 14) (size 15 to 20)
#    0.000    1.280    2.400    2.880    2.240    6.720 
#    1.440    0.000    0.000    0.000    0.000    0.000 
#    0.000    0.000    0.000    0.000    0.000    0.000 
#
# Total GULP energy -278836.119224 kJ/mol
# GULP energy per Si atom -5576.722384 kJ/mol
# Density = 2.048548 g / cm^3
# Si number density = 20.532210 Si / 1000 Ang^3
#
#
#
# Elastic Constant Matrix: (Units=GPa)
#
#
# Indices 1 2 3 4 5 6 
#
# 1 148.1253 69.5715 32.7022 0.0000 0.0000 0.0000
# 2 69.5715 69.0949 8.9241 0.0000 0.0000 0.0000
# 3 32.7022 8.9241 61.5034 0.0000 0.0000 0.0000
# 4 0.0000 0.0000 0.0000 28.0128 0.0000 0.0000
# 5 0.0000 0.0000 0.0000 0.0000 23.6326 0.0000
# 6 0.0000 0.0000 0.0000 0.0000 0.0000 19.0016
#
#
#
# Elastic Compliance Matrix: (Units=1/GPa)
#
#
# Indices 1 2 3 4 5 6 
#
# 1 0.014545 -0.013907 -0.005716 0.000000 0.000000 0.000000
# 2 -0.013907 0.028046 0.003325 0.000000 0.000000 0.000000
# 3 -0.005716 0.003325 0.018816 0.000000 0.000000 0.000000
# 4 0.000000 0.000000 0.000000 0.035698 0.000000 0.000000
# 5 0.000000 0.000000 0.000000 0.000000 0.042314 0.000000
# 6 0.000000 0.000000 0.000000 0.000000 0.000000 0.052627
#
#
# Mechanical properties :
#
#
# Convention : Reuss Voigt Hill
#
# Bulk Modulus (GPa) = 34.70823 55.67989 45.19406
# Shear Modulus (GPa) = 21.34517 25.29779 23.32148
#
# Velocity S-wave (km/s) = 3.22777 3.51394 3.37389
# Velocity P-wave (km/s) = 5.55269 6.60612 6.10218
#
# Compressibility (1/GPa) = 0.02881161
#
# Stress axis : x y z
#
# Youngs Moduli (GPa) = 68.75396 35.65565 53.14640
#
# Poissons Ratio (x) = 0.49585 0.30377
# Poissons Ratio (y) = 0.95614 -0.17671
# Poissons Ratio (z) = 0.39298 -0.11855
#
# Static dielectric constant tensor:
#      x y z
#    x 1.775150 0.000000 0.000000 
#    y 0.000000 1.701630 0.000000 
#    z 0.000000 0.000000 1.740080 
# 
# From -- ./inp_files/70381.got.cif
#   From: 2010.05.17/outbox.cif.g08.bks.cpg/sg63_36_cif.got.tgz:70381.got - 2010.06.03 15:47:04.
