data_PCOD9471154
_publ_section_title
;
Structure prediction by ZEFSAII (Michael W. Deem and Ramdas Pophale) SiO2 
 PCOD9471154
Probable space group: C M C M
;
_chemical_formula_sum "Si O2"
_cell_formula_units_Z 96
_cell_length_a 15.316698
_cell_length_b 12.802938
_cell_length_c 24.245699
_cell_angle_alpha 90.000000
_cell_angle_beta 90.000000
_cell_angle_gamma 90.000000
_cell_volume 4754.550900
_symmetry_space_group_name_H-M "C M C M"
_symmetry_group_IT_number 63
_symmetry_cell_setting 'orthorhombic'
loop_
_space_group_symop_operation_xyz
x,y,z
-x,-y,1/2+z
x,-y,-z
-x,y,1/2-z
-x,-y,-z
x,y,1/2-z
-x,y,z
x,-y,1/2+z
1/2+x,1/2+y,z
1/2-x,1/2-y,1/2+z
1/2+x,1/2-y,-z
1/2-x,1/2+y,1/2-z
1/2-x,1/2-y,-z
1/2+x,1/2+y,1/2-z
1/2-x,1/2+y,z
1/2+x,1/2-y,1/2+z
loop_
_atom_site_type_symbol
_atom_site_label
_atom_site_fract_x
_atom_site_fract_y
_atom_site_fract_z
Si Si1 0.606702 0.620170 0.992905
Si Si2 0.656569 0.892886 0.687068
Si Si3 0.643428 0.534073 0.312676
Si Si4 0.099967 0.211503 0.105047
Si Si5 0.397379 0.120976 0.812146
Si Si6 0.394545 0.319190 0.369831
O O1 0.500000 0.620997 0.994956
O O2 0.639521 0.685113 0.045691
O O3 0.633795 0.500000 0.000000
O O4 0.632388 0.661128 0.933060
O O5 0.629091 0.869409 0.750000
O O6 0.758000 0.923436 0.687198
O O7 0.636531 0.793039 0.650779
O O8 0.610180 0.000879 0.670437
O O9 0.609404 0.545333 0.250000
O O10 0.597328 0.606663 0.358011
O O11 0.639256 0.414500 0.332108
O O12 0.142499 0.300361 0.143305
O O13 0.000000 0.245015 0.094169
O O14 0.359252 0.131728 0.750000
O O15 0.500000 0.147381 0.807585
O O16 0.500000 0.322902 0.367117
#
# Coordination Sequence:
#
# PCOD9471154 Si02
#       6
#    16  16  16  16  16  16
#     4   9  17  34  58  84 113 149 191 243 301 339
#     4  10  23  39  56  82 121 157 185 233 301 353
#     4  11  23  35  55  85 118 151 187 239 296 348
#     4  10  19  34  58  84 111 147 193 240 286 345
#     4   9  18  34  57  81 109 149 192 234 286 352
#     4  11  22  39  65  89 113 153 205 246 283 347
#
# _framework density 20.191181
#
# number of rings (size 3 to 8) (size 9 to 14) (size 15 to 20)
#    0.000    2.000    1.667    2.000    2.333    3.667 
#    0.000    1.667    3.667    4.000    0.000    0.000 
#    0.000    0.000    0.000    0.000    0.000    0.000 
#
# Total GULP energy -267991.030612 kJ/mol
# GULP energy per Si atom -5583.146471 kJ/mol
# Density = 2.014522 g / cm^3
# Si number density = 20.191181 Si / 1000 Ang^3
#
#
#
# Elastic Constant Matrix: (Units=GPa)
#
#
# Indices 1 2 3 4 5 6 
#
# 1 19.4741 2.8585 8.1691 0.0000 0.0000 0.0000
# 2 2.8585 148.5610 87.6974 0.0000 0.0000 0.0000
# 3 8.1691 87.6974 138.3659 0.0000 0.0000 0.0000
# 4 0.0000 0.0000 0.0000 8.3356 0.0000 0.0000
# 5 0.0000 0.0000 0.0000 0.0000 12.2995 0.0000
# 6 0.0000 0.0000 0.0000 0.0000 0.0000 -1.5700
#
#
#
# Elastic Compliance Matrix: (Units=1/GPa)
#
#
# Indices 1 2 3 4 5 6 
#
# 1 0.052815 0.001317 -0.003953 0.000000 0.000000 0.000000
# 2 0.001317 0.010788 -0.006915 0.000000 0.000000 0.000000
# 3 -0.003953 -0.006915 0.011844 0.000000 0.000000 0.000000
# 4 0.000000 0.000000 0.000000 0.119968 0.000000 0.000000
# 5 0.000000 0.000000 0.000000 0.000000 0.081304 0.000000
# 6 0.000000 0.000000 0.000000 0.000000 0.000000 -0.636933
#
#
# Mechanical properties :
#
#
# Convention : Reuss Voigt Hill
#
# Bulk Modulus (GPa) = 17.74795 55.98344 36.86570
# Shear Modulus (GPa) = -15.51204 17.65808 1.07302
#
# Velocity S-wave (km/s) = -2.77475 2.96048 0.72978
# Velocity P-wave (km/s) = 1.20692 6.28274 4.35982
#
# Compressibility (1/GPa) = 0.05634453
#
# Stress axis : x y z
#
# Youngs Moduli (GPa) = 18.93398 92.69449 84.43354
#
# Poissons Ratio (x) = -0.12211 0.33378
# Poissons Ratio (y) = -0.02494 0.58389
# Poissons Ratio (z) = 0.07485 0.64102
#
# Static dielectric constant tensor:
#      x y z
#    x 1.774230 0.000000 0.000000 
#    y 0.000000 1.689150 0.000000 
#    z 0.000000 0.000000 1.729470 
# 
# From -- ./inp_files/56525.got.cif
#   From: 2010.05.17/outbox.cif.g08.bks.cpg/sg63_29_cif.got.tgz:56525.got - 2010.06.03 15:47:04.
