data_PCOD9471427
_publ_section_title
;
Structure prediction by ZEFSAII (Michael W. Deem and Ramdas Pophale) SiO2 
 PCOD9471427
Probable space group: C M C M
;
_chemical_formula_sum "Si O2"
_cell_formula_units_Z 116
_cell_length_a 7.570076
_cell_length_b 29.757532
_cell_length_c 24.095100
_cell_angle_alpha 90.000000
_cell_angle_beta 90.000000
_cell_angle_gamma 90.000000
_cell_volume 5427.825562
_symmetry_space_group_name_H-M "C M C M"
_symmetry_group_IT_number 63
_symmetry_cell_setting 'orthorhombic'
loop_
_space_group_symop_operation_xyz
x,y,z
-x,-y,1/2+z
x,-y,-z
-x,y,1/2-z
-x,-y,-z
x,y,1/2-z
-x,y,z
x,-y,1/2+z
1/2+x,1/2+y,z
1/2-x,1/2-y,1/2+z
1/2+x,1/2-y,-z
1/2-x,1/2+y,1/2-z
1/2-x,1/2-y,-z
1/2+x,1/2+y,1/2-z
1/2-x,1/2+y,z
1/2+x,1/2-y,1/2+z
loop_
_atom_site_type_symbol
_atom_site_label
_atom_site_fract_x
_atom_site_fract_y
_atom_site_fract_z
Si Si1 0.214055 0.406105 0.020607
Si Si2 0.803956 0.176266 0.341194
Si Si3 0.000000 0.694228 0.250000
Si Si4 0.295526 0.985711 0.405380
Si Si5 0.211428 0.257011 0.934884
Si Si6 0.704634 0.665176 0.886746
Si Si7 0.784917 0.913892 0.313260
Si Si8 0.286106 0.086072 0.393852
O O1 0.277056 0.454168 0.045222
O O2 0.285618 0.366557 0.059080
O O3 0.000000 0.405360 0.025729
O O4 0.258788 0.400313 0.956835
O O5 0.654500 0.192351 0.298943
O O6 0.779566 0.199958 0.401499
O O7 0.785622 0.122746 0.351544
O O8 0.000000 0.186715 0.321055
O O9 0.500000 0.994305 0.420687
O O10 0.284037 0.953359 0.352333
O O11 0.222189 0.034490 0.390351
O O12 0.282196 0.213091 0.902239
O O13 0.000000 0.258494 0.930846
O O14 0.250000 0.250000 0.000000
O O15 0.500000 0.673289 0.872477
O O16 0.778635 0.633625 0.838319
O O17 0.733425 0.919604 0.250000
O O18 0.000000 0.914562 0.316947
O O19 0.500000 0.087122 0.387811
#
# Coordination Sequence:
#
# PCOD9471427 Si02
#       8
#    16  16   4  16  16  16  16  16
#     4   9  17  30  54  85 123 164 201 253 316 386
#     4  12  26  46  72  99 130 175 228 280 335 400
#     4  12  26  56  72  90 134 176 226 282 338 394
#     4   9  18  32  53  82 117 159 205 253 319 389
#     4  11  22  40  64 100 137 171 214 270 334 401
#     4   9  19  34  54  83 115 155 196 240 306 373
#     4   9  18  35  53  75 107 147 195 249 301 362
#     4  10  19  36  58  86 122 163 212 263 321 379
#
# _framework density 21.371359000000002
#
# number of rings (size 3 to 8) (size 9 to 14) (size 15 to 20)
#    0.000    2.069    1.379    1.862    0.000    6.345 
#    2.483    0.000    0.000    4.138    0.000    0.000 
#    0.000    0.000    0.000    0.000    0.000    0.000 
#
# Total GULP energy -323283.541267 kJ/mol
# GULP energy per Si atom -5573.854160 kJ/mol
# Density = 2.132272 g / cm^3
# Si number density = 21.371359 Si / 1000 Ang^3
#
#
#
# Elastic Constant Matrix: (Units=GPa)
#
#
# Indices 1 2 3 4 5 6 
#
# 1 100.0619 3.3623 16.5268 0.0000 0.0000 0.0000
# 2 3.3623 92.9173 -0.0807 0.0000 0.0000 0.0000
# 3 16.5268 -0.0807 75.3737 0.0000 0.0000 0.0000
# 4 0.0000 0.0000 0.0000 4.5935 0.0000 0.0000
# 5 0.0000 0.0000 0.0000 0.0000 -4.0160 0.0000
# 6 0.0000 0.0000 0.0000 0.0000 0.0000 8.7043
#
#
#
# Elastic Compliance Matrix: (Units=1/GPa)
#
#
# Indices 1 2 3 4 5 6 
#
# 1 0.010383 -0.000378 -0.002277 0.000000 0.000000 0.000000
# 2 -0.000378 0.010776 0.000094 0.000000 0.000000 0.000000
# 3 -0.002277 0.000094 0.013767 0.000000 0.000000 0.000000
# 4 0.000000 0.000000 0.000000 0.217699 0.000000 0.000000
# 5 0.000000 0.000000 0.000000 0.000000 -0.249002 0.000000
# 6 0.000000 0.000000 0.000000 0.000000 0.000000 0.114886
#
#
# Mechanical properties :
#
#
# Convention : Reuss Voigt Hill
#
# Bulk Modulus (GPa) = 33.55185 34.21886 33.88536
# Shear Modulus (GPa) = 37.43532 18.42598 27.93065
#
# Velocity S-wave (km/s) = 4.18982 2.93948 3.61906
# Velocity P-wave (km/s) = 6.25617 5.25043 5.77524
#
# Compressibility (1/GPa) = 0.02980462
#
# Stress axis : x y z
#
# Youngs Moduli (GPa) = 96.31518 92.79873 72.63968
#
# Poissons Ratio (x) = 0.03505 0.16540
# Poissons Ratio (y) = 0.03638 -0.00685
# Poissons Ratio (z) = 0.21930 -0.00876
#
# Static dielectric constant tensor:
#      x y z
#    x 1.807410 0.000000 0.000000 
#    y 0.000000 1.790170 0.000000 
#    z 0.000000 0.000000 1.738050 
# 
# From -- ./inp_files/60600.got.cif
#   From: 2010.05.17/outbox.cif.g08.bks.cpg/sg63_31_cif.got.tgz:60600.got - 2010.06.03 15:47:04.
