data_PCOD9471763
_publ_section_title
;
Structure prediction by ZEFSAII (Michael W. Deem and Ramdas Pophale) SiO2 
 PCOD9471763
Probable space group: C M C M
;
_chemical_formula_sum "Si O2"
_cell_formula_units_Z 88
_cell_length_a 17.121326
_cell_length_b 31.858581
_cell_length_c 7.471122
_cell_angle_alpha 90.000000
_cell_angle_beta 90.000000
_cell_angle_gamma 90.000000
_cell_volume 4075.206807
_symmetry_space_group_name_H-M "C M C M"
_symmetry_group_IT_number 63
_symmetry_cell_setting 'orthorhombic'
loop_
_space_group_symop_operation_xyz
x,y,z
-x,-y,1/2+z
x,-y,-z
-x,y,1/2-z
-x,-y,-z
x,y,1/2-z
-x,y,z
x,-y,1/2+z
1/2+x,1/2+y,z
1/2-x,1/2-y,1/2+z
1/2+x,1/2-y,-z
1/2-x,1/2+y,1/2-z
1/2-x,1/2-y,-z
1/2+x,1/2+y,1/2-z
1/2-x,1/2+y,z
1/2+x,1/2-y,1/2+z
loop_
_atom_site_type_symbol
_atom_site_label
_atom_site_fract_x
_atom_site_fract_y
_atom_site_fract_z
Si Si1 0.906386 0.292277 0.046231
Si Si2 0.192913 0.121666 0.467081
Si Si3 0.372852 0.116516 0.959529
Si Si4 0.411839 0.545711 0.463768
Si Si5 0.500000 0.949961 0.464411
Si Si6 0.408973 0.700769 0.469214
O O1 0.874316 0.293298 0.250000
O O2 0.888870 0.337194 0.960054
O O3 0.883456 0.247188 0.967552
O O4 0.000000 0.289684 0.056952
O O5 0.193785 0.122358 0.250000
O O6 0.280424 0.112002 0.526277
O O7 0.138498 0.083918 0.531423
O O8 0.151882 0.165021 0.524684
O O9 0.395203 0.120016 0.750000
O O10 0.424773 0.077539 0.028603
O O11 0.377186 0.500000 0.500000
O O12 0.416728 0.550498 0.250000
O O13 0.500000 0.546322 0.536201
O O14 0.500000 0.948605 0.250000
O O15 0.500000 0.000000 0.500000
O O16 0.409783 0.701739 0.250000
O O17 0.500000 0.692313 0.521248
#
# Coordination Sequence:
#
# PCOD9471763 Si02
#       6
#    16  16  16  16   8  16
#     4   8  13  26  50  74  96 128 172 210 240 288
#     4  10  20  32  48  76 109 133 160 204 254 299
#     4  10  20  35  54  75  99 130 167 208 253 301
#     4   9  18  33  52  71  95 130 168 203 240 288
#     4  10  22  40  60  78  98 128 172 220 263 310
#     4   8  14  26  48  76 103 135 172 206 240 287
#
# _framework density 21.593996000000001
#
# number of rings (size 3 to 8) (size 9 to 14) (size 15 to 20)
#    0.000    2.909    0.909    1.636    0.000    5.091 
#    0.000    3.636    0.000    1.636    0.000    2.545 
#    0.000    0.000    0.000    0.000    0.000    0.000 
#
# Total GULP energy -245255.437005 kJ/mol
# GULP energy per Si atom -5573.987205 kJ/mol
# Density = 2.154485 g / cm^3
# Si number density = 21.593996 Si / 1000 Ang^3
#
#
#
# Elastic Constant Matrix: (Units=GPa)
#
#
# Indices 1 2 3 4 5 6 
#
# 1 102.0817 104.8378 1.6013 0.0000 0.0000 0.0000
# 2 104.8378 245.6674 9.2240 0.0000 0.0000 0.0000
# 3 1.6013 9.2240 64.2920 0.0000 0.0000 0.0000
# 4 0.0000 0.0000 0.0000 5.6577 0.0000 0.0000
# 5 0.0000 0.0000 0.0000 0.0000 2.8980 0.0000
# 6 0.0000 0.0000 0.0000 0.0000 0.0000 13.4059
#
#
#
# Elastic Compliance Matrix: (Units=1/GPa)
#
#
# Indices 1 2 3 4 5 6 
#
# 1 0.017465 -0.007477 0.000638 0.000000 0.000000 0.000000
# 2 -0.007477 0.007294 -0.000860 0.000000 0.000000 0.000000
# 3 0.000638 -0.000860 0.015662 0.000000 0.000000 0.000000
# 4 0.000000 0.000000 0.000000 0.176749 0.000000 0.000000
# 5 0.000000 0.000000 0.000000 0.000000 0.345071 0.000000
# 6 0.000000 0.000000 0.000000 0.000000 0.000000 0.074594
#
#
# Mechanical properties :
#
#
# Convention : Reuss Voigt Hill
#
# Bulk Modulus (GPa) = 39.96616 71.48528 55.72572
# Shear Modulus (GPa) = 7.56917 24.15084 15.86001
#
# Velocity S-wave (km/s) = 1.87425 3.34788 2.71304
# Velocity P-wave (km/s) = 4.81995 6.93690 5.97296
#
# Compressibility (1/GPa) = 0.02502117
#
# Stress axis : x y z
#
# Youngs Moduli (GPa) = 57.25720 137.10508 63.85059
#
# Poissons Ratio (x) = 1.02515 -0.04072
# Poissons Ratio (y) = 0.42812 0.05492
# Poissons Ratio (z) = -0.03652 0.11794
#
# Static dielectric constant tensor:
#      x y z
#    x 1.756100 0.000000 0.000000 
#    y 0.000000 1.814540 0.000000 
#    z 0.000000 0.000000 1.827060 
# 
# From -- ./inp_files/19795.got.cif
#   From: 2010.05.17/outbox.cif.g08.bks.cpg/sg63_10_cif.got.tgz:19795.got - 2010.06.03 15:47:04.
