data_PCOD9471171
_publ_section_title
;
Structure prediction by ZEFSAII (Michael W. Deem and Ramdas Pophale) SiO2 
 PCOD9471171
Probable space group: C M C M
;
_chemical_formula_sum "Si O2"
_cell_formula_units_Z 100
_cell_length_a 21.992662
_cell_length_b 28.465753
_cell_length_c 7.830582
_cell_angle_alpha 90.000000
_cell_angle_beta 90.000000
_cell_angle_gamma 90.000000
_cell_volume 4902.239422
_symmetry_space_group_name_H-M "C M C M"
_symmetry_group_IT_number 63
_symmetry_cell_setting 'orthorhombic'
loop_
_space_group_symop_operation_xyz
x,y,z
-x,-y,1/2+z
x,-y,-z
-x,y,1/2-z
-x,-y,-z
x,y,1/2-z
-x,y,z
x,-y,1/2+z
1/2+x,1/2+y,z
1/2-x,1/2-y,1/2+z
1/2+x,1/2-y,-z
1/2-x,1/2+y,1/2-z
1/2-x,1/2-y,-z
1/2+x,1/2+y,1/2-z
1/2-x,1/2+y,z
1/2+x,1/2-y,1/2+z
loop_
_atom_site_type_symbol
_atom_site_label
_atom_site_fract_x
_atom_site_fract_y
_atom_site_fract_z
Si Si1 0.709383 0.579490 0.047431
Si Si2 0.153674 0.447068 0.453647
Si Si3 0.289944 0.313105 0.955662
Si Si4 0.417861 0.447579 0.446871
Si Si5 0.431097 0.137860 0.953595
Si Si6 0.000000 0.087400 0.250000
Si Si7 0.157581 0.280117 0.547859
O O1 0.700022 0.576710 0.250000
O O2 0.701962 0.633579 0.990476
O O3 0.777337 0.561958 0.012641
O O4 0.654984 0.552991 0.957289
O O5 0.134463 0.500000 0.500000
O O6 0.153968 0.443691 0.250000
O O7 0.109843 0.405490 0.521601
O O8 0.288033 0.312065 0.750000
O O9 0.223158 0.297609 0.021602
O O10 0.340403 0.275409 0.010844
O O11 0.437029 0.500000 0.500000
O O12 0.434555 0.437466 0.250000
O O13 0.447322 0.415613 0.595556
O O14 0.435197 0.131138 0.750000
O O15 0.500000 0.138467 0.022198
O O16 0.395824 0.186912 0.980694
O O17 0.157891 0.286720 0.750000
#
# Coordination Sequence:
#
# PCOD9471171 Si02
#       7
#    16  16  16  16  16   4  16
#     4  11  21  39  60  90 126 159 205 257 315 373
#     4  11  23  38  59  86 122 161 204 263 323 377
#     4   9  19  34  59  87 121 154 188 242 306 360
#     4  12  24  39  63  90 119 161 210 259 309 372
#     4  10  22  40  61  85 118 164 213 255 313 384
#     4  12  24  44  62  90 120 162 208 260 302 382
#     4  10  19  34  58  91 117 148 195 247 298 359
#
# _framework density 20.39884
#
# number of rings (size 3 to 8) (size 9 to 14) (size 15 to 20)
#    0.000    1.440    3.200    2.400    0.000    3.200 
#    0.000    0.000    1.760    0.000    0.000    0.000 
#    0.000    0.000    0.000    0.000    0.000    0.000 
#
# Total GULP energy -278579.924849 kJ/mol
# GULP energy per Si atom -5571.598497 kJ/mol
# Density = 2.035241 g / cm^3
# Si number density = 20.398840 Si / 1000 Ang^3
#
#
#
# Elastic Constant Matrix: (Units=GPa)
#
#
# Indices 1 2 3 4 5 6 
#
# 1 138.9096 39.1827 17.6073 0.0000 0.0000 0.0000
# 2 39.1827 88.0897 4.3990 0.0000 0.0000 0.0000
# 3 17.6073 4.3990 94.0689 0.0000 0.0000 0.0000
# 4 0.0000 0.0000 0.0000 21.8602 0.0000 0.0000
# 5 0.0000 0.0000 0.0000 0.0000 20.9502 0.0000
# 6 0.0000 0.0000 0.0000 0.0000 0.0000 14.4080
#
#
#
# Elastic Compliance Matrix: (Units=1/GPa)
#
#
# Indices 1 2 3 4 5 6 
#
# 1 0.008412 -0.003672 -0.001403 0.000000 0.000000 0.000000
# 2 -0.003672 0.012981 0.000080 0.000000 0.000000 0.000000
# 3 -0.001403 0.000080 0.010889 0.000000 0.000000 0.000000
# 4 0.000000 0.000000 0.000000 0.045745 0.000000 0.000000
# 5 0.000000 0.000000 0.000000 0.000000 0.047732 0.000000
# 6 0.000000 0.000000 0.000000 0.000000 0.000000 0.069406
#
#
# Mechanical properties :
#
#
# Convention : Reuss Voigt Hill
#
# Bulk Modulus (GPa) = 44.85492 49.27179 47.06336
# Shear Modulus (GPa) = 23.51980 28.76896 26.14438
#
# Velocity S-wave (km/s) = 3.39926 3.75950 3.58391
# Velocity P-wave (km/s) = 6.11910 6.56139 6.34410
#
# Compressibility (1/GPa) = 0.02229410
#
# Stress axis : x y z
#
# Youngs Moduli (GPa) = 118.87104 77.03380 91.83288
#
# Poissons Ratio (x) = 0.28286 0.12883
# Poissons Ratio (y) = 0.43648 -0.00737
# Poissons Ratio (z) = 0.16676 -0.00618
#
# Static dielectric constant tensor:
#      x y z
#    x 1.739580 0.000000 0.000000 
#    y 0.000000 1.756530 0.000000 
#    z 0.000000 0.000000 1.734970 
# 
# From -- ./inp_files/8763.got.cif
#   From: 2010.05.17/outbox.cif.g08.bks.cpg/sg63_5_cif.got.tgz:8763.got - 2010.06.03 15:47:04.
