data_PCOD9471901
_publ_section_title
;
Structure prediction by ZEFSAII (Michael W. Deem and Ramdas Pophale) SiO2 
 PCOD9471901
Probable space group: C M C M
;
_chemical_formula_sum "Si O2"
_cell_formula_units_Z 96
_cell_length_a 8.128424
_cell_length_b 23.482568
_cell_length_c 28.307853
_cell_angle_alpha 90.000000
_cell_angle_beta 90.000000
_cell_angle_gamma 90.000000
_cell_volume 5403.297373
_symmetry_space_group_name_H-M "C M C M"
_symmetry_group_IT_number 63
_symmetry_cell_setting 'orthorhombic'
loop_
_space_group_symop_operation_xyz
x,y,z
-x,-y,1/2+z
x,-y,-z
-x,y,1/2-z
-x,-y,-z
x,y,1/2-z
-x,y,z
x,-y,1/2+z
1/2+x,1/2+y,z
1/2-x,1/2-y,1/2+z
1/2+x,1/2-y,-z
1/2-x,1/2+y,1/2-z
1/2-x,1/2-y,-z
1/2+x,1/2+y,1/2-z
1/2-x,1/2+y,z
1/2+x,1/2-y,1/2+z
loop_
_atom_site_type_symbol
_atom_site_label
_atom_site_fract_x
_atom_site_fract_y
_atom_site_fract_z
Si Si1 0.700729 0.144756 0.648146
Si Si2 0.197525 0.486795 0.353984
Si Si3 0.694591 0.719997 0.937630
Si Si4 0.191250 0.642553 0.750000
Si Si5 0.190919 0.504257 0.750000
Si Si6 0.808154 0.965729 0.545879
Si Si7 0.808275 0.339805 0.968686
O O1 0.500000 0.146222 0.646994
O O2 0.750895 0.079081 0.639739
O O3 0.770937 0.186987 0.609949
O O4 0.761851 0.161220 0.700329
O O5 0.260956 0.509901 0.302597
O O6 0.236841 0.518692 0.402666
O O7 0.000000 0.485620 0.348853
O O8 0.500000 0.719827 0.948892
O O9 0.747508 0.786103 0.936977
O O10 0.786206 0.685724 0.978916
O O11 0.191372 0.573471 0.750000
O O12 0.000000 0.659804 0.750000
O O13 0.000000 0.484813 0.750000
O O14 0.785883 0.898641 0.537052
O O15 0.000000 0.980653 0.548415
O O16 0.738061 0.000000 0.500000
O O17 0.000000 0.351745 0.959466
#
# Coordination Sequence:
#
# PCOD9471901 Si02
#       7
#    16  16  16   8   8  16  16
#     4   9  16  28  49  74  99 129 161 192 231 280
#     4   9  17  30  50  74  99 129 164 198 235 285
#     4  10  20  33  50  72  97 122 153 197 241 280
#     4   7  12  24  43  70  99 124 157 196 228 269
#     4   7  12  26  47  70  95 124 161 202 236 271
#     4  11  23  35  48  71 103 131 156 197 248 289
#     4  10  21  36  52  69  91 125 165 196 230 283
#
# _framework density 17.766929000000001
#
# number of rings (size 3 to 8) (size 9 to 14) (size 15 to 20)
#    0.000    2.667    0.000    4.500    0.000    6.667 
#    0.000    0.833    0.000    4.000    0.000    1.167 
#    0.000    0.000    0.000    0.000    0.000    0.000 
#
# Total GULP energy -267264.348457 kJ/mol
# GULP energy per Si atom -5568.007260 kJ/mol
# Density = 1.772649 g / cm^3
# Si number density = 17.766929 Si / 1000 Ang^3
#
#
#
# Elastic Constant Matrix: (Units=GPa)
#
#
# Indices 1 2 3 4 5 6 
#
# 1 11.7776 -0.4095 3.9657 0.0000 0.0000 0.0000
# 2 -0.4095 75.4977 51.8020 0.0000 0.0000 0.0000
# 3 3.9657 51.8020 119.6591 0.0000 0.0000 0.0000
# 4 0.0000 0.0000 0.0000 25.8671 0.0000 0.0000
# 5 0.0000 0.0000 0.0000 0.0000 15.5856 0.0000
# 6 0.0000 0.0000 0.0000 0.0000 0.0000 20.6124
#
#
#
# Elastic Compliance Matrix: (Units=1/GPa)
#
#
# Indices 1 2 3 4 5 6 
#
# 1 0.086498 0.003466 -0.004367 0.000000 0.000000 0.000000
# 2 0.003466 0.018981 -0.008332 0.000000 0.000000 0.000000
# 3 -0.004367 -0.008332 0.012109 0.000000 0.000000 0.000000
# 4 0.000000 0.000000 0.000000 0.038659 0.000000 0.000000
# 5 0.000000 0.000000 0.000000 0.000000 0.064162 0.000000
# 6 0.000000 0.000000 0.000000 0.000000 0.000000 0.048514
#
#
# Mechanical properties :
#
#
# Convention : Reuss Voigt Hill
#
# Bulk Modulus (GPa) = 10.08868 35.29454 22.69161
# Shear Modulus (GPa) = 15.60399 22.51809 19.06104
#
# Velocity S-wave (km/s) = 2.96676 3.56394 3.27897
# Velocity P-wave (km/s) = 4.17447 6.06993 5.20914
#
# Compressibility (1/GPa) = 0.09912098
#
# Stress axis : x y z
#
# Youngs Moduli (GPa) = 11.56098 52.68370 82.58414
#
# Poissons Ratio (x) = -0.18258 0.36064
# Poissons Ratio (y) = -0.04006 0.68810
# Poissons Ratio (z) = 0.05049 0.43896
#
# Static dielectric constant tensor:
#      x y z
#    x 1.661680 0.000000 0.000000 
#    y 0.000000 1.578020 0.000000 
#    z 0.000000 0.000000 1.647690 
# 
# From -- ./inp_files/67277.got.cif
#   From: 2010.05.17/outbox.cif.g08.bks.cpg/sg63_34_cif.got.tgz:67277.got - 2010.06.03 15:47:04.
