data_PCOD9471665
_publ_section_title
;
Structure prediction by ZEFSAII (Michael W. Deem and Ramdas Pophale) SiO2 
 PCOD9471665
Probable space group: C M C M
;
_chemical_formula_sum "Si O2"
_cell_formula_units_Z 112
_cell_length_a 25.883091
_cell_length_b 14.549042
_cell_length_c 15.142283
_cell_angle_alpha 90.000000
_cell_angle_beta 90.000000
_cell_angle_gamma 90.000000
_cell_volume 5702.192775
_symmetry_space_group_name_H-M "C M C M"
_symmetry_group_IT_number 63
_symmetry_cell_setting 'orthorhombic'
loop_
_space_group_symop_operation_xyz
x,y,z
-x,-y,1/2+z
x,-y,-z
-x,y,1/2-z
-x,-y,-z
x,y,1/2-z
-x,y,z
x,-y,1/2+z
1/2+x,1/2+y,z
1/2-x,1/2-y,1/2+z
1/2+x,1/2-y,-z
1/2-x,1/2+y,1/2-z
1/2-x,1/2-y,-z
1/2+x,1/2+y,1/2-z
1/2-x,1/2+y,z
1/2+x,1/2-y,1/2+z
loop_
_atom_site_type_symbol
_atom_site_label
_atom_site_fract_x
_atom_site_fract_y
_atom_site_fract_z
Si Si1 0.791311 0.337749 0.147069
Si Si2 0.588317 0.550740 0.911607
Si Si3 0.642646 0.892327 0.984971
Si Si4 0.761626 0.643348 0.354506
Si Si5 0.197588 0.973347 0.146190
Si Si6 0.439678 0.261306 0.024712
Si Si7 0.937917 0.860384 0.656628
O O1 0.807235 0.338820 0.250000
O O2 0.836487 0.352857 0.077930
O O3 0.758568 0.245695 0.130748
O O4 0.750236 0.418829 0.131605
O O5 0.650022 0.561787 0.910393
O O6 0.576696 0.468106 0.844981
O O7 0.568988 0.500000 0.000000
O O8 0.565423 0.652465 0.907590
O O9 0.595690 0.826437 0.955411
O O10 0.689810 0.881951 0.915247
O O11 0.629886 0.000000 0.000000
O O12 0.774358 0.631577 0.250000
O O13 0.712742 0.577739 0.373153
O O14 0.184390 0.962691 0.250000
O O15 0.500000 0.236572 0.017662
O O16 0.421205 0.306747 0.931239
O O17 0.918504 0.820914 0.750000
O O18 0.000000 0.855733 0.655423
#
# Coordination Sequence:
#
# PCOD9471665 Si02
#       7
#    16  16  16  16  16  16  16
#     4  10  22  38  58  86 120 158 199 242 297 359
#     4  10  20  31  55  85 117 154 185 231 290 364
#     4  12  24  39  64  86 114 163 210 254 303 350
#     4  10  22  39  60  87 123 158 196 246 294 357
#     4  10  20  34  53  85 121 151 184 232 286 351
#     4  10  23  41  58  85 118 154 205 258 304 350
#     4   9  18  35  59  86 118 153 193 246 306 365
#
# _framework density 19.641566999999998
#
# number of rings (size 3 to 8) (size 9 to 14) (size 15 to 20)
#    0.000    1.857    1.429    2.143    6.000    2.571 
#    0.000    0.714    0.000    2.143    0.000    2.000 
#    0.000    0.000    0.000    0.000    0.000    0.000 
#
# Total GULP energy -312442.852945 kJ/mol
# GULP energy per Si atom -5579.336660 kJ/mol
# Density = 1.959686 g / cm^3
# Si number density = 19.641567 Si / 1000 Ang^3
#
#
#
# Elastic Constant Matrix: (Units=GPa)
#
#
# Indices 1 2 3 4 5 6 
#
# 1 60.5685 27.7706 14.1781 0.0000 0.0000 0.0000
# 2 27.7706 87.7811 17.3280 0.0000 0.0000 0.0000
# 3 14.1781 17.3280 35.0100 0.0000 0.0000 0.0000
# 4 0.0000 0.0000 0.0000 15.0089 0.0000 0.0000
# 5 0.0000 0.0000 0.0000 0.0000 10.5729 0.0000
# 6 0.0000 0.0000 0.0000 0.0000 0.0000 24.9174
#
#
#
# Elastic Compliance Matrix: (Units=1/GPa)
#
#
# Indices 1 2 3 4 5 6 
#
# 1 0.020247 -0.005305 -0.005574 0.000000 0.000000 0.000000
# 2 -0.005305 0.014016 -0.004788 0.000000 0.000000 0.000000
# 3 -0.005574 -0.004788 0.033191 0.000000 0.000000 0.000000
# 4 0.000000 0.000000 0.000000 0.066627 0.000000 0.000000
# 5 0.000000 0.000000 0.000000 0.000000 0.094581 0.000000
# 6 0.000000 0.000000 0.000000 0.000000 0.000000 0.040133
#
#
# Mechanical properties :
#
#
# Convention : Reuss Voigt Hill
#
# Bulk Modulus (GPa) = 27.68666 33.54587 30.61626
# Shear Modulus (GPa) = 16.01696 18.37204 17.19450
#
# Velocity S-wave (km/s) = 2.85873 3.06169 2.96195
# Velocity P-wave (km/s) = 5.00230 5.44194 5.22674
#
# Compressibility (1/GPa) = 0.03611848
#
# Stress axis : x y z
#
# Youngs Moduli (GPa) = 49.38895 71.34907 30.12910
#
# Poissons Ratio (x) = 0.37852 0.16793
# Poissons Ratio (y) = 0.26202 0.14427
# Poissons Ratio (z) = 0.27529 0.34165
#
# Static dielectric constant tensor:
#      x y z
#    x 1.678350 0.000000 0.000000 
#    y 0.000000 1.694470 0.000000 
#    z 0.000000 0.000000 1.747710 
# 
# From -- ./inp_files/36865.got.cif
#   From: 2010.05.17/outbox.cif.g08.bks.cpg/sg63_19_cif.got.tgz:36865.got - 2010.06.03 15:47:04.
