data_PCOD9471488
_publ_section_title
;
Structure prediction by ZEFSAII (Michael W. Deem and Ramdas Pophale) SiO2 
 PCOD9471488
Probable space group: C M C M
;
_chemical_formula_sum "Si O2"
_cell_formula_units_Z 100
_cell_length_a 22.379603
_cell_length_b 29.462060
_cell_length_c 7.943708
_cell_angle_alpha 90.000000
_cell_angle_beta 90.000000
_cell_angle_gamma 90.000000
_cell_volume 5237.677565
_symmetry_space_group_name_H-M "C M C M"
_symmetry_group_IT_number 63
_symmetry_cell_setting 'orthorhombic'
loop_
_space_group_symop_operation_xyz
x,y,z
-x,-y,1/2+z
x,-y,-z
-x,y,1/2-z
-x,-y,-z
x,y,1/2-z
-x,y,z
x,-y,1/2+z
1/2+x,1/2+y,z
1/2-x,1/2-y,1/2+z
1/2+x,1/2-y,-z
1/2-x,1/2+y,1/2-z
1/2-x,1/2-y,-z
1/2+x,1/2+y,1/2-z
1/2-x,1/2+y,z
1/2+x,1/2-y,1/2+z
loop_
_atom_site_type_symbol
_atom_site_label
_atom_site_fract_x
_atom_site_fract_y
_atom_site_fract_z
Si Si1 0.808591 0.704154 0.553379
Si Si2 0.065931 0.552659 0.951233
Si Si3 0.828598 0.201200 0.553310
Si Si4 0.179714 0.606297 0.056323
Si Si5 0.000000 0.110703 0.750000
Si Si6 0.202557 0.947453 0.447076
Si Si7 0.597112 0.616623 0.059225
O O1 0.805627 0.715809 0.750000
O O2 0.842881 0.745436 0.465318
O O3 0.740010 0.699453 0.489824
O O4 0.833834 0.654228 0.530185
O O5 0.073005 0.556874 0.750000
O O6 0.000000 0.570569 0.997587
O O7 0.067075 0.500000 0.000000
O O8 0.120672 0.576564 0.040145
O O9 0.828525 0.188276 0.750000
O O10 0.870835 0.165796 0.460870
O O11 0.194600 0.614961 0.250000
O O12 0.235842 0.579709 0.977944
O O13 0.948169 0.111316 0.597595
O O14 0.189042 0.945934 0.250000
O O15 0.149148 0.921223 0.540226
O O16 0.208584 0.000000 0.500000
O O17 0.572280 0.613196 0.250000
#
# Coordination Sequence:
#
# PCOD9471488 Si02
#       7
#    16  16  16  16   4  16  16
#     4  10  20  33  57  92 128 164 203 255 313 374
#     4  10  21  38  59  82 115 161 209 257 306 370
#     4  10  19  36  61  93 128 164 202 257 318 376
#     4  12  23  36  58  92 127 168 211 262 322 381
#     4  12  26  48  70  98 126 176 222 268 322 404
#     4  12  24  42  65  95 131 166 210 272 335 393
#     4  12  24  44  71  97 130 171 218 273 331 392
#
# _framework density 19.092431999999999
#
# number of rings (size 3 to 8) (size 9 to 14) (size 15 to 20)
#    0.000    0.960    3.200    5.040    0.000    2.240 
#    0.000    0.400    1.760    0.000    0.000    0.000 
#    0.000    0.000    0.000    0.000    0.000    0.000 
#
# Total GULP energy -278693.380299 kJ/mol
# GULP energy per Si atom -5573.867606 kJ/mol
# Density = 1.904898 g / cm^3
# Si number density = 19.092432 Si / 1000 Ang^3
#
#
#
# Elastic Constant Matrix: (Units=GPa)
#
#
# Indices 1 2 3 4 5 6 
#
# 1 67.3032 26.2547 19.8528 0.0000 0.0000 0.0000
# 2 26.2547 93.2628 10.0647 0.0000 0.0000 0.0000
# 3 19.8528 10.0647 119.2916 0.0000 0.0000 0.0000
# 4 0.0000 0.0000 0.0000 28.2119 0.0000 0.0000
# 5 0.0000 0.0000 0.0000 0.0000 17.3826 0.0000
# 6 0.0000 0.0000 0.0000 0.0000 0.0000 -18.8975
#
#
#
# Elastic Compliance Matrix: (Units=1/GPa)
#
#
# Indices 1 2 3 4 5 6 
#
# 1 0.017403 -0.004629 -0.002506 0.000000 0.000000 0.000000
# 2 -0.004629 0.012052 -0.000247 0.000000 0.000000 0.000000
# 3 -0.002506 -0.000247 0.008821 0.000000 0.000000 0.000000
# 4 0.000000 0.000000 0.000000 0.035446 0.000000 0.000000
# 5 0.000000 0.000000 0.000000 0.000000 0.057529 0.000000
# 6 0.000000 0.000000 0.000000 0.000000 0.000000 -0.052917
#
#
# Mechanical properties :
#
#
# Convention : Reuss Voigt Hill
#
# Bulk Modulus (GPa) = 42.52847 43.57801 43.05324
# Shear Modulus (GPa) = 49.53777 20.25176 34.89477
#
# Velocity S-wave (km/s) = 5.09928 3.26041 4.27977
# Velocity P-wave (km/s) = 7.54941 6.08670 6.85717
#
# Compressibility (1/GPa) = 0.02351366
#
# Stress axis : x y z
#
# Youngs Moduli (GPa) = 57.46167 82.97349 113.37065
#
# Poissons Ratio (x) = 0.38406 0.28407
# Poissons Ratio (y) = 0.26597 0.02795
# Poissons Ratio (z) = 0.14398 0.02045
#
# Static dielectric constant tensor:
#      x y z
#    x 1.649280 0.000000 0.000000 
#    y 0.000000 1.701050 0.000000 
#    z 0.000000 0.000000 1.697890 
# 
# From -- ./inp_files/9146.got.cif
#   From: 2010.05.17/outbox.cif.g08.bks.cpg/sg63_5_cif.got.tgz:9146.got - 2010.06.03 15:47:04.
