data_PCOD9471233
_publ_section_title
;
Structure prediction by ZEFSAII (Michael W. Deem and Ramdas Pophale) SiO2 
 PCOD9471233
Probable space group: C M C M
;
_chemical_formula_sum "Si O2"
_cell_formula_units_Z 96
_cell_length_a 24.144118
_cell_length_b 13.254450
_cell_length_c 18.078909
_cell_angle_alpha 90.000000
_cell_angle_beta 90.000000
_cell_angle_gamma 90.000000
_cell_volume 5785.558309
_symmetry_space_group_name_H-M "C M C M"
_symmetry_group_IT_number 63
_symmetry_cell_setting 'orthorhombic'
loop_
_space_group_symop_operation_xyz
x,y,z
-x,-y,1/2+z
x,-y,-z
-x,y,1/2-z
-x,-y,-z
x,y,1/2-z
-x,y,z
x,-y,1/2+z
1/2+x,1/2+y,z
1/2-x,1/2-y,1/2+z
1/2+x,1/2-y,-z
1/2-x,1/2+y,1/2-z
1/2-x,1/2-y,-z
1/2+x,1/2+y,1/2-z
1/2-x,1/2+y,z
1/2+x,1/2-y,1/2+z
loop_
_atom_site_type_symbol
_atom_site_label
_atom_site_fract_x
_atom_site_fract_y
_atom_site_fract_z
Si Si1 0.714841 0.872743 0.427548
Si Si2 0.439106 0.392682 0.164122
Si Si3 0.331328 0.525793 0.584746
Si Si4 0.717611 0.327188 0.836510
Si Si5 0.676070 0.095929 0.095253
Si Si6 0.437667 0.149828 0.335835
O O1 0.780331 0.895146 0.417797
O O2 0.701101 0.772260 0.382594
O O3 0.697165 0.868674 0.513867
O O4 0.686865 0.976056 0.399182
O O5 0.434915 0.423275 0.250000
O O6 0.500000 0.425270 0.136220
O O7 0.386584 0.432971 0.121118
O O8 0.438018 0.271332 0.162365
O O9 0.342096 0.500000 0.500000
O O10 0.310771 0.426194 0.628157
O O11 0.704971 0.316919 0.750000
O O12 0.783355 0.346838 0.848120
O O13 0.612252 0.115343 0.112424
O O14 0.427647 0.119746 0.250000
O O15 0.500000 0.115730 0.356391
#
# Coordination Sequence:
#
# PCOD9471233 Si02
#       6
#    16  16  16  16  16  16
#     4  10  21  36  51  78 109 143 178 220 264 316
#     4   9  19  35  54  78 107 137 175 223 270 316
#     4  11  21  35  54  78 108 144 178 222 266 321
#     4  11  22  33  53  82 110 141 179 219 267 327
#     4  10  19  35  55  75 105 146 174 217 269 319
#     4   9  18  32  54  82 105 131 175 227 269 311
#
# _framework density 16.593040999999999
#
# number of rings (size 3 to 8) (size 9 to 14) (size 15 to 20)
#    0.000    2.000    3.333    3.500    2.333    5.667 
#    0.000    1.667    0.000    1.000    0.000    2.333 
#    0.000    0.000    0.000    0.000    0.000    0.000 
#
# Total GULP energy -267652.105732 kJ/mol
# GULP energy per Si atom -5576.085536 kJ/mol
# Density = 1.655527 g / cm^3
# Si number density = 16.593041 Si / 1000 Ang^3
#
#
#
# Elastic Constant Matrix: (Units=GPa)
#
#
# Indices 1 2 3 4 5 6 
#
# 1 144.1451 29.1463 54.6194 0.0000 0.0000 0.0000
# 2 29.1463 45.5691 34.8263 0.0000 0.0000 0.0000
# 3 54.6194 34.8263 81.2656 0.0000 0.0000 0.0000
# 4 0.0000 0.0000 0.0000 10.7040 0.0000 0.0000
# 5 0.0000 0.0000 0.0000 0.0000 23.2974 0.0000
# 6 0.0000 0.0000 0.0000 0.0000 0.0000 18.4602
#
#
#
# Elastic Compliance Matrix: (Units=1/GPa)
#
#
# Indices 1 2 3 4 5 6 
#
# 1 0.009402 -0.001761 -0.005565 0.000000 0.000000 0.000000
# 2 -0.001761 0.032962 -0.012942 0.000000 0.000000 0.000000
# 3 -0.005565 -0.012942 0.021592 0.000000 0.000000 0.000000
# 4 0.000000 0.000000 0.000000 0.093423 0.000000 0.000000
# 5 0.000000 0.000000 0.000000 0.000000 0.042923 0.000000
# 6 0.000000 0.000000 0.000000 0.000000 0.000000 0.054170
#
#
# Mechanical properties :
#
#
# Convention : Reuss Voigt Hill
#
# Bulk Modulus (GPa) = 42.69795 56.46264 49.58030
# Shear Modulus (GPa) = 16.51170 20.65152 18.58161
#
# Velocity S-wave (km/s) = 3.15794 3.53170 3.35004
# Velocity P-wave (km/s) = 6.25181 7.12266 6.70140
#
# Compressibility (1/GPa) = 0.02342033
#
# Stress axis : x y z
#
# Youngs Moduli (GPa) = 106.35998 30.33771 46.31390
#
# Poissons Ratio (x) = 0.05342 0.25772
# Poissons Ratio (y) = 0.18729 0.59941
# Poissons Ratio (z) = 0.59185 0.39264
#
# Static dielectric constant tensor:
#      x y z
#    x 1.565390 0.000000 0.000000 
#    y 0.000000 1.558150 0.000000 
#    z 0.000000 0.000000 1.558180 
# 
# From -- ./inp_files/48011.got.cif
#   From: 2010.05.17/outbox.cif.g08.bks.cpg/sg63_25_cif.got.tgz:48011.got - 2010.06.03 15:47:04.
