data_PCOD9471349
_publ_section_title
;
Structure prediction by ZEFSAII (Michael W. Deem and Ramdas Pophale) SiO2 
 PCOD9471349
Probable space group: C M C M
;
_chemical_formula_sum "Si O2"
_cell_formula_units_Z 80
_cell_length_a 19.453108
_cell_length_b 9.179770
_cell_length_c 19.655444
_cell_angle_alpha 90.000000
_cell_angle_beta 90.000000
_cell_angle_gamma 90.000000
_cell_volume 3509.972037
_symmetry_space_group_name_H-M "C M C M"
_symmetry_group_IT_number 63
_symmetry_cell_setting 'orthorhombic'
loop_
_space_group_symop_operation_xyz
x,y,z
-x,-y,1/2+z
x,-y,-z
-x,y,1/2-z
-x,-y,-z
x,y,1/2-z
-x,y,z
x,-y,1/2+z
1/2+x,1/2+y,z
1/2-x,1/2-y,1/2+z
1/2+x,1/2-y,-z
1/2-x,1/2+y,1/2-z
1/2-x,1/2-y,-z
1/2+x,1/2+y,1/2-z
1/2-x,1/2+y,z
1/2+x,1/2-y,1/2+z
loop_
_atom_site_type_symbol
_atom_site_label
_atom_site_fract_x
_atom_site_fract_y
_atom_site_fract_z
Si Si1 0.318815 0.487462 0.124098
Si Si2 0.718012 0.812447 0.823883
Si Si3 0.921576 0.218608 0.370546
Si Si4 0.577942 0.300894 0.466652
Si Si5 0.420874 0.056620 0.361605
O O1 0.282203 0.359250 0.164906
O O2 0.257512 0.604884 0.114865
O O3 0.375088 0.591380 0.159208
O O4 0.362436 0.399935 0.066698
O O5 0.748019 0.848504 0.750000
O O6 0.638573 0.858536 0.823441
O O7 0.916177 0.202523 0.452538
O O8 0.902976 0.386401 0.357773
O O9 0.000000 0.199422 0.349738
O O10 0.500000 0.355518 0.449332
O O11 0.581341 0.137986 0.435148
O O12 0.500000 0.073039 0.338046
#
# Coordination Sequence:
#
# PCOD9471349 Si02
#       5
#    16  16  16  16  16
#     4  11  22  37  58  84 110 148 195 233 282 345
#     4  11  24  42  60  77 107 149 193 248 301 335
#     4  10  19  35  60  89 123 155 182 222 276 339
#     4   9  18  35  60  90 124 156 182 219 277 341
#     4   9  19  37  62  90 116 148 192 231 274 341
#
# _framework density 22.792204000000002
#
# number of rings (size 3 to 8) (size 9 to 14) (size 15 to 20)
#    0.000    2.000    0.000    3.600    0.000    5.200 
#    0.000   19.000    0.000    9.600    0.000    0.000 
#    0.000    0.000    0.000    0.000    0.000    0.000 
#
# Total GULP energy -222992.691984 kJ/mol
# GULP energy per Si atom -5574.817300 kJ/mol
# Density = 2.274033 g / cm^3
# Si number density = 22.792204 Si / 1000 Ang^3
#
#
#
# Elastic Constant Matrix: (Units=GPa)
#
#
# Indices 1 2 3 4 5 6 
#
# 1 75.1862 38.5225 9.8081 0.0000 0.0000 0.0000
# 2 38.5225 148.8179 -6.5987 0.0000 0.0000 0.0000
# 3 9.8081 -6.5987 30.8696 0.0000 0.0000 0.0000
# 4 0.0000 0.0000 0.0000 10.8726 0.0000 0.0000
# 5 0.0000 0.0000 0.0000 0.0000 10.4624 0.0000
# 6 0.0000 0.0000 0.0000 0.0000 0.0000 45.8870
#
#
#
# Elastic Compliance Matrix: (Units=1/GPa)
#
#
# Indices 1 2 3 4 5 6 
#
# 1 0.016427 -0.004526 -0.006187 0.000000 0.000000 0.000000
# 2 -0.004526 0.008031 0.003155 0.000000 0.000000 0.000000
# 3 -0.006187 0.003155 0.035034 0.000000 0.000000 0.000000
# 4 0.000000 0.000000 0.000000 0.091975 0.000000 0.000000
# 5 0.000000 0.000000 0.000000 0.000000 0.095581 0.000000
# 6 0.000000 0.000000 0.000000 0.000000 0.000000 0.021793
#
#
# Mechanical properties :
#
#
# Convention : Reuss Voigt Hill
#
# Bulk Modulus (GPa) = 22.53484 37.59306 30.06395
# Shear Modulus (GPa) = 16.73649 27.65384 22.19516
#
# Velocity S-wave (km/s) = 2.71275 3.48703 3.12397
# Velocity P-wave (km/s) = 4.44078 5.72207 5.12165
#
# Compressibility (1/GPa) = 0.04437573
#
# Stress axis : x y z
#
# Youngs Moduli (GPa) = 60.87707 124.51419 28.54333
#
# Poissons Ratio (x) = 0.56361 0.17659
# Poissons Ratio (y) = 0.27556 -0.09005
# Poissons Ratio (z) = 0.37663 -0.39283
#
# Static dielectric constant tensor:
#      x y z
#    x 1.886760 0.000000 0.000000 
#    y 0.000000 1.831520 0.000000 
#    z 0.000000 0.000000 2.009460 
# 
# From -- ./inp_files/69766.got.cif
#   From: 2010.05.17/outbox.cif.g08.bks.cpg/sg63_35_cif.got.tgz:69766.got - 2010.06.03 15:47:04.
