data_PCOD9471354
_publ_section_title
;
Structure prediction by ZEFSAII (Michael W. Deem and Ramdas Pophale) SiO2 
 PCOD9471354
Probable space group: C M C M
;
_chemical_formula_sum "Si O2"
_cell_formula_units_Z 68
_cell_length_a 22.128006
_cell_length_b 8.961706
_cell_length_c 17.204369
_cell_angle_alpha 90.000000
_cell_angle_beta 90.000000
_cell_angle_gamma 90.000000
_cell_volume 3411.706960
_symmetry_space_group_name_H-M "C M C M"
_symmetry_group_IT_number 63
_symmetry_cell_setting 'orthorhombic'
loop_
_space_group_symop_operation_xyz
x,y,z
-x,-y,1/2+z
x,-y,-z
-x,y,1/2-z
-x,-y,-z
x,y,1/2-z
-x,y,z
x,-y,1/2+z
1/2+x,1/2+y,z
1/2-x,1/2-y,1/2+z
1/2+x,1/2-y,-z
1/2-x,1/2+y,1/2-z
1/2-x,1/2-y,-z
1/2+x,1/2+y,1/2-z
1/2-x,1/2+y,z
1/2+x,1/2-y,1/2+z
loop_
_atom_site_type_symbol
_atom_site_label
_atom_site_fract_x
_atom_site_fract_y
_atom_site_fract_z
Si Si1 0.791803 0.524454 0.593466
Si Si2 0.000000 0.500000 0.000000
Si Si3 0.106525 0.265131 0.050977
Si Si4 0.829221 0.800910 0.389206
Si Si5 0.432268 0.501455 0.163269
O O1 0.787157 0.500000 0.500000
O O2 0.846667 0.639719 0.603040
O O3 0.808503 0.366216 0.630272
O O4 0.728410 0.592494 0.618803
O O5 0.946410 0.624923 0.978346
O O6 0.082017 0.126303 0.099589
O O7 0.145643 0.206749 0.977745
O O8 0.884575 0.868745 0.342410
O O9 0.429566 0.567440 0.250000
O O10 0.500000 0.443378 0.150192
#
# Coordination Sequence:
#
# PCOD9471354 Si02
#       5
#    16   4  16  16  16
#     4  10  19  35  60  93 122 148 196 260 309 354
#     4  12  20  36  64 100 128 148 206 254 300 378
#     4  11  21  38  65  94 124 157 207 256 307 365
#     4  11  21  37  63  90 119 158 204 254 306 360
#     4  11  25  41  58  85 125 165 200 245 310 375
#
# _framework density 19.931373000000001
#
# number of rings (size 3 to 8) (size 9 to 14) (size 15 to 20)
#    0.000    1.176    4.706    6.353    1.647    0.941 
#    0.000    5.882    0.000    4.235    0.000    0.000 
#    0.000    0.000    0.000    0.000    0.000    0.000 
#
# Total GULP energy -189421.058468 kJ/mol
# GULP energy per Si atom -5571.207602 kJ/mol
# Density = 1.988601 g / cm^3
# Si number density = 19.931373 Si / 1000 Ang^3
#
#
#
# Elastic Constant Matrix: (Units=GPa)
#
#
# Indices 1 2 3 4 5 6 
#
# 1 193.4133 81.1278 22.0502 0.0000 0.0000 0.0000
# 2 81.1278 112.9736 31.1574 0.0000 0.0000 0.0000
# 3 22.0502 31.1574 29.5637 0.0000 0.0000 0.0000
# 4 0.0000 0.0000 0.0000 6.5562 0.0000 0.0000
# 5 0.0000 0.0000 0.0000 0.0000 -33.7471 0.0000
# 6 0.0000 0.0000 0.0000 0.0000 0.0000 24.4547
#
#
#
# Elastic Compliance Matrix: (Units=1/GPa)
#
#
# Indices 1 2 3 4 5 6 
#
# 1 0.007399 -0.005345 0.000114 0.000000 0.000000 0.000000
# 2 -0.005345 0.016340 -0.013234 0.000000 0.000000 0.000000
# 3 0.000114 -0.013234 0.047687 0.000000 0.000000 0.000000
# 4 0.000000 0.000000 0.000000 0.152527 0.000000 0.000000
# 5 0.000000 0.000000 0.000000 0.000000 -0.029632 0.000000
# 6 0.000000 0.000000 0.000000 0.000000 0.000000 0.040892
#
#
# Mechanical properties :
#
#
# Convention : Reuss Voigt Hill
#
# Bulk Modulus (GPa) = 28.98795 67.18015 48.08405
# Shear Modulus (GPa) = 17.62790 12.89378 15.26084
#
# Velocity S-wave (km/s) = 2.97716 2.54620 2.77008
# Velocity P-wave (km/s) = 5.13746 6.51330 5.86586
#
# Compressibility (1/GPa) = 0.03449709
#
# Stress axis : x y z
#
# Youngs Moduli (GPa) = 135.14939 61.20006 20.96992
#
# Poissons Ratio (x) = 0.32712 -0.00240
# Poissons Ratio (y) = 0.72238 0.27752
# Poissons Ratio (z) = -0.01547 0.80993
#
# Static dielectric constant tensor:
#      x y z
#    x 1.697700 0.000000 0.000000 
#    y 0.000000 1.706200 0.000000 
#    z 0.000000 0.000000 1.710970 
# 
# From -- ./inp_files/46661.got.cif
#   From: 2010.05.17/outbox.cif.g08.bks.cpg/sg63_24_cif.got.tgz:46661.got - 2010.06.03 15:47:04.
