data_PCOD9471412
_publ_section_title
;
Structure prediction by ZEFSAII (Michael W. Deem and Ramdas Pophale) SiO2 
 PCOD9471412
Probable space group: C M C M
;
_chemical_formula_sum "Si O2"
_cell_formula_units_Z 68
_cell_length_a 22.392868
_cell_length_b 17.114792
_cell_length_c 7.690635
_cell_angle_alpha 90.000000
_cell_angle_beta 90.000000
_cell_angle_gamma 90.000000
_cell_volume 2947.430312
_symmetry_space_group_name_H-M "C M C M"
_symmetry_group_IT_number 63
_symmetry_cell_setting 'orthorhombic'
loop_
_space_group_symop_operation_xyz
x,y,z
-x,-y,1/2+z
x,-y,-z
-x,y,1/2-z
-x,-y,-z
x,y,1/2-z
-x,y,z
x,-y,1/2+z
1/2+x,1/2+y,z
1/2-x,1/2-y,1/2+z
1/2+x,1/2-y,-z
1/2-x,1/2+y,1/2-z
1/2-x,1/2-y,-z
1/2+x,1/2+y,1/2-z
1/2-x,1/2+y,z
1/2+x,1/2-y,1/2+z
loop_
_atom_site_type_symbol
_atom_site_label
_atom_site_fract_x
_atom_site_fract_y
_atom_site_fract_z
Si Si1 0.668856 0.413253 0.457182
Si Si2 0.913216 0.375519 0.442017
Si Si3 0.783647 0.330786 0.554894
Si Si4 0.435927 0.300006 0.460149
Si Si5 0.000000 0.570263 0.250000
O O1 0.648657 0.500000 0.500000
O O2 0.676321 0.404418 0.250000
O O3 0.731646 0.394440 0.544542
O O4 0.619661 0.351248 0.517214
O O5 0.928688 0.406582 0.250000
O O6 0.841473 0.364554 0.457922
O O7 0.933789 0.285499 0.459956
O O8 0.947469 0.419639 0.595767
O O9 0.805110 0.316214 0.750000
O O10 0.750000 0.250000 0.500000
O O11 0.432865 0.290981 0.250000
O O12 0.500000 0.337121 0.501056
#
# Coordination Sequence:
#
# PCOD9471412 Si02
#       5
#    16  16  16  16   4
#     4  11  24  40  59  85 124 170 217 266 319 377
#     4  12  22  36  61  93 126 165 207 259 320 378
#     4  12  23  39  62  92 126 163 213 269 322 378
#     4  10  19  36  57  83 122 166 213 262 310 369
#     4  12  22  40  56  94 136 156 200 264 322 386
#
# _framework density 23.070943
#
# number of rings (size 3 to 8) (size 9 to 14) (size 15 to 20)
#    0.000    0.706    5.882    3.176    0.000    1.412 
#    0.000    0.000    0.000    0.000    0.000    0.824 
#    0.000    0.000    0.000    0.000    0.000    0.000 
#
# Total GULP energy -189700.955877 kJ/mol
# GULP energy per Si atom -5579.439879 kJ/mol
# Density = 2.301843 g / cm^3
# Si number density = 23.070943 Si / 1000 Ang^3
#
#
#
# Elastic Constant Matrix: (Units=GPa)
#
#
# Indices 1 2 3 4 5 6 
#
# 1 179.3672 10.6767 30.7625 0.0000 0.0000 0.0000
# 2 10.6767 70.8266 7.9303 0.0000 0.0000 0.0000
# 3 30.7625 7.9303 148.1441 0.0000 0.0000 0.0000
# 4 0.0000 0.0000 0.0000 27.4449 0.0000 0.0000
# 5 0.0000 0.0000 0.0000 0.0000 29.0262 0.0000
# 6 0.0000 0.0000 0.0000 0.0000 0.0000 -61.0819
#
#
#
# Elastic Compliance Matrix: (Units=1/GPa)
#
#
# Indices 1 2 3 4 5 6 
#
# 1 0.005820 -0.000746 -0.001169 0.000000 0.000000 0.000000
# 2 -0.000746 0.014300 -0.000610 0.000000 0.000000 0.000000
# 3 -0.001169 -0.000610 0.007026 0.000000 0.000000 0.000000
# 4 0.000000 0.000000 0.000000 0.036437 0.000000 0.000000
# 5 0.000000 0.000000 0.000000 0.000000 0.034452 0.000000
# 6 0.000000 0.000000 0.000000 0.000000 0.000000 -0.016371
#
#
# Mechanical properties :
#
#
# Convention : Reuss Voigt Hill
#
# Bulk Modulus (GPa) = 45.26051 55.23075 50.24563
# Shear Modulus (GPa) = 53.14742 22.34243 37.74492
#
# Velocity S-wave (km/s) = 4.80484 3.11533 4.04918
# Velocity P-wave (km/s) = 7.10230 6.07716 6.60963
#
# Compressibility (1/GPa) = 0.02209431
#
# Stress axis : x y z
#
# Youngs Moduli (GPa) = 171.82115 69.93074 142.33816
#
# Poissons Ratio (x) = 0.05220 0.16633
# Poissons Ratio (y) = 0.12826 0.08689
# Poissons Ratio (z) = 0.20079 0.04269
#
# Static dielectric constant tensor:
#      x y z
#    x 1.993060 0.000000 0.000000 
#    y 0.000000 1.852870 0.000000 
#    z 0.000000 0.000000 1.896110 
# 
# From -- ./inp_files/7624.got.cif
#   From: 2010.05.17/outbox.cif.g08.bks.cpg/sg63_4_cif.got.tgz:7624.got - 2010.06.03 15:47:04.
