data_PCOD9471138
_publ_section_title
;
Structure prediction by ZEFSAII (Michael W. Deem and Ramdas Pophale) SiO2 
 PCOD9471138
Probable space group: C M C M
;
_chemical_formula_sum "Si O2"
_cell_formula_units_Z 64
_cell_length_a 7.808802
_cell_length_b 24.050767
_cell_length_c 19.767936
_cell_angle_alpha 90.000000
_cell_angle_beta 90.000000
_cell_angle_gamma 90.000000
_cell_volume 3712.570148
_symmetry_space_group_name_H-M "C M C M"
_symmetry_group_IT_number 63
_symmetry_cell_setting 'orthorhombic'
loop_
_space_group_symop_operation_xyz
x,y,z
-x,-y,1/2+z
x,-y,-z
-x,y,1/2-z
-x,-y,-z
x,y,1/2-z
-x,y,z
x,-y,1/2+z
1/2+x,1/2+y,z
1/2-x,1/2-y,1/2+z
1/2+x,1/2-y,-z
1/2-x,1/2+y,1/2-z
1/2-x,1/2-y,-z
1/2+x,1/2+y,1/2-z
1/2-x,1/2+y,z
1/2+x,1/2-y,1/2+z
loop_
_atom_site_type_symbol
_atom_site_label
_atom_site_fract_x
_atom_site_fract_y
_atom_site_fract_z
Si Si1 0.500000 0.072385 0.829522
Si Si2 0.000000 0.531365 0.072092
Si Si3 0.692793 0.640720 0.893172
Si Si4 0.797895 0.118239 0.445273
Si Si5 0.203925 0.759128 0.921420
O O1 0.500000 0.063438 0.750000
O O2 0.334862 0.107740 0.852406
O O3 0.500000 0.014893 0.870307
O O4 0.831719 0.570058 0.074984
O O5 0.000000 0.500000 0.000000
O O6 0.500000 0.623638 0.876207
O O7 0.711991 0.707274 0.883627
O O8 0.720208 0.628413 0.973538
O O9 0.750909 0.176599 0.408650
O O10 0.000000 0.106688 0.433219
O O11 0.000000 0.753935 0.913885
O O12 0.250000 0.750000 0.000000
#
# Coordination Sequence:
#
# PCOD9471138 Si02
#       5
#     8   8  16  16  16
#     4  12  26  42  56  80 118 158 198 238 285 350
#     4  12  22  36  60  80 114 160 199 239 285 335
#     4  10  19  34  57  86 118 148 182 236 297 352
#     4   9  19  32  54  91 118 142 183 244 295 335
#     4   9  16  27  50  86 121 142 171 225 288 342
#
# _framework density 17.238731999999999
#
# number of rings (size 3 to 8) (size 9 to 14) (size 15 to 20)
#    0.000    2.000    3.750    2.250    7.000    2.000 
#    0.000    0.000    0.000    1.500    0.000    0.000 
#    0.000    0.000    0.000    0.000    0.000    0.000 
#
# Total GULP energy -178428.098598 kJ/mol
# GULP energy per Si atom -5575.878081 kJ/mol
# Density = 1.719950 g / cm^3
# Si number density = 17.238732 Si / 1000 Ang^3
#
#
#
# Elastic Constant Matrix: (Units=GPa)
#
#
# Indices 1 2 3 4 5 6 
#
# 1 114.8119 87.3966 50.0034 0.0000 0.0000 0.0000
# 2 87.3966 154.2662 54.1149 0.0000 0.0000 0.0000
# 3 50.0034 54.1149 59.3817 0.0000 0.0000 0.0000
# 4 0.0000 0.0000 0.0000 10.9560 0.0000 0.0000
# 5 0.0000 0.0000 0.0000 0.0000 7.5142 0.0000
# 6 0.0000 0.0000 0.0000 0.0000 0.0000 35.1393
#
#
#
# Elastic Compliance Matrix: (Units=1/GPa)
#
#
# Indices 1 2 3 4 5 6 
#
# 1 0.017846 -0.007113 -0.008546 0.000000 0.000000 0.000000
# 2 -0.007113 0.012363 -0.005277 0.000000 0.000000 0.000000
# 3 -0.008546 -0.005277 0.028846 0.000000 0.000000 0.000000
# 4 0.000000 0.000000 0.000000 0.091274 0.000000 0.000000
# 5 0.000000 0.000000 0.000000 0.000000 0.133081 0.000000
# 6 0.000000 0.000000 0.000000 0.000000 0.000000 0.028458
#
#
# Mechanical properties :
#
#
# Convention : Reuss Voigt Hill
#
# Bulk Modulus (GPa) = 58.19597 79.05438 68.62518
# Shear Modulus (GPa) = 13.90949 19.85157 16.88053
#
# Velocity S-wave (km/s) = 2.84364 3.39716 3.13265
# Velocity P-wave (km/s) = 6.67936 7.83235 7.27872
#
# Compressibility (1/GPa) = 0.01718332
#
# Stress axis : x y z
#
# Youngs Moduli (GPa) = 56.03498 80.88685 34.66744
#
# Poissons Ratio (x) = 0.57531 0.29626
# Poissons Ratio (y) = 0.39855 0.18295
# Poissons Ratio (z) = 0.47887 0.42686
#
# Static dielectric constant tensor:
#      x y z
#    x 1.588250 0.000000 0.000000 
#    y 0.000000 1.609720 0.000000 
#    z 0.000000 0.000000 1.503050 
# 
# From -- ./inp_files/50629.got.cif
#   From: 2010.05.17/outbox.cif.g08.bks.cpg/sg63_26_cif.got.tgz:50629.got - 2010.06.03 15:47:04.
