data_PCOD9471324
_publ_section_title
;
Structure prediction by ZEFSAII (Michael W. Deem and Ramdas Pophale) SiO2 
 PCOD9471324
Probable space group: C M C M
;
_chemical_formula_sum "Si O2"
_cell_formula_units_Z 72
_cell_length_a 21.960324
_cell_length_b 9.404658
_cell_length_c 19.360279
_cell_angle_alpha 90.000000
_cell_angle_beta 90.000000
_cell_angle_gamma 90.000000
_cell_volume 3998.465582
_symmetry_space_group_name_H-M "C M C M"
_symmetry_group_IT_number 63
_symmetry_cell_setting 'orthorhombic'
loop_
_space_group_symop_operation_xyz
x,y,z
-x,-y,1/2+z
x,-y,-z
-x,y,1/2-z
-x,-y,-z
x,y,1/2-z
-x,y,z
x,-y,1/2+z
1/2+x,1/2+y,z
1/2-x,1/2-y,1/2+z
1/2+x,1/2-y,-z
1/2-x,1/2+y,1/2-z
1/2-x,1/2-y,-z
1/2+x,1/2+y,1/2-z
1/2-x,1/2+y,z
1/2+x,1/2-y,1/2+z
loop_
_atom_site_type_symbol
_atom_site_label
_atom_site_fract_x
_atom_site_fract_y
_atom_site_fract_z
Si Si1 0.500000 0.263916 0.635623
Si Si2 0.395599 0.500000 0.500000
Si Si3 0.000000 0.572576 0.354066
Si Si4 0.868368 0.893172 0.856020
Si Si5 0.500000 0.290662 0.471515
Si Si6 0.183194 0.675368 0.750000
Si Si7 0.822972 0.116852 0.750000
Si Si8 0.104798 0.395039 0.750000
O O1 0.561655 0.344194 0.657233
O O2 0.500000 0.261552 0.552708
O O3 0.500000 0.098029 0.654775
O O4 0.361073 0.418131 0.561680
O O5 0.440672 0.389491 0.460602
O O6 0.000000 0.646642 0.428328
O O7 0.060359 0.624035 0.315041
O O8 0.828076 0.773032 0.817748
O O9 0.851134 0.036144 0.815819
O O10 0.250264 0.610219 0.750000
O O11 0.133892 0.550464 0.750000
O O12 0.842934 0.279149 0.750000
#
# Coordination Sequence:
#
# PCOD9471324 Si02
#       8
#     8   8   8  16   8   8   8   8
#     4  10  19  35  59  86 113 147 186 225 298 348
#     4   9  18  36  58  90 114 152 196 229 284 354
#     4  11  20  32  52  86 123 142 180 233 294 343
#     4  10  21  38  64  83 116 151 189 240 289 351
#     4   9  18  31  53  84 124 151 171 226 288 356
#     4  11  22  41  57  79 114 160 192 237 292 341
#     4  11  24  38  59  82 109 156 202 239 285 331
#     4  11  22  33  54  83 115 143 190 244 279 345
#
# _framework density 18.006907000000002
#
# number of rings (size 3 to 8) (size 9 to 14) (size 15 to 20)
#    0.000    1.778    2.222    3.667    0.000    3.556 
#    0.000    1.111    0.000    2.667    0.000    0.000 
#    0.000    0.000    0.000    0.000    0.000    0.000 
#
# Total GULP energy -200756.109793 kJ/mol
# GULP energy per Si atom -5576.558605 kJ/mol
# Density = 1.796592 g / cm^3
# Si number density = 18.006907 Si / 1000 Ang^3
#
#
#
# Elastic Constant Matrix: (Units=GPa)
#
#
# Indices 1 2 3 4 5 6 
#
# 1 77.1929 14.5438 39.0938 0.0000 0.0000 0.0000
# 2 14.5438 71.0530 31.7976 0.0000 0.0000 0.0000
# 3 39.0938 31.7976 92.2912 0.0000 0.0000 0.0000
# 4 0.0000 0.0000 0.0000 34.9926 0.0000 0.0000
# 5 0.0000 0.0000 0.0000 0.0000 9.0377 0.0000
# 6 0.0000 0.0000 0.0000 0.0000 0.0000 31.7430
#
#
#
# Elastic Compliance Matrix: (Units=1/GPa)
#
#
# Indices 1 2 3 4 5 6 
#
# 1 0.016498 -0.000295 -0.006887 0.000000 0.000000 0.000000
# 2 -0.000295 0.016645 -0.005610 0.000000 0.000000 0.000000
# 3 -0.006887 -0.005610 0.015685 0.000000 0.000000 0.000000
# 4 0.000000 0.000000 0.000000 0.028577 0.000000 0.000000
# 5 0.000000 0.000000 0.000000 0.000000 0.110647 0.000000
# 6 0.000000 0.000000 0.000000 0.000000 0.000000 0.031503
#
#
# Mechanical properties :
#
#
# Convention : Reuss Voigt Hill
#
# Bulk Modulus (GPa) = 43.02016 45.71195 44.36605
# Shear Modulus (GPa) = 19.77169 25.49478 22.63324
#
# Velocity S-wave (km/s) = 3.31721 3.76684 3.54915
# Velocity P-wave (km/s) = 6.21407 6.66030 6.44105
#
# Compressibility (1/GPa) = 0.02324492
#
# Stress axis : x y z
#
# Youngs Moduli (GPa) = 60.61390 60.07850 63.75433
#
# Poissons Ratio (x) = 0.01772 0.43906
# Poissons Ratio (y) = 0.01788 0.35765
# Poissons Ratio (z) = 0.41743 0.33703
#
# Static dielectric constant tensor:
#      x y z
#    x 1.588780 0.000000 0.000000 
#    y 0.000000 1.638280 0.000000 
#    z 0.000000 0.000000 1.630990 
# 
# From -- ./inp_files/56385.got.cif
#   From: 2010.05.17/outbox.cif.g08.bks.cpg/sg63_29_cif.got.tgz:56385.got - 2010.06.03 15:47:04.
