data_PCOD9471052
_publ_section_title
;
Structure prediction by ZEFSAII (Michael W. Deem and Ramdas Pophale) SiO2 
 PCOD9471052
Probable space group: C M C M
;
_chemical_formula_sum "Si O2"
_cell_formula_units_Z 80
_cell_length_a 14.466808
_cell_length_b 14.382136
_cell_length_c 19.880112
_cell_angle_alpha 90.000000
_cell_angle_beta 90.000000
_cell_angle_gamma 90.000000
_cell_volume 4136.327674
_symmetry_space_group_name_H-M "C M C M"
_symmetry_group_IT_number 63
_symmetry_cell_setting 'orthorhombic'
loop_
_space_group_symop_operation_xyz
x,y,z
-x,-y,1/2+z
x,-y,-z
-x,y,1/2-z
-x,-y,-z
x,y,1/2-z
-x,y,z
x,-y,1/2+z
1/2+x,1/2+y,z
1/2-x,1/2-y,1/2+z
1/2+x,1/2-y,-z
1/2-x,1/2+y,1/2-z
1/2-x,1/2-y,-z
1/2+x,1/2+y,1/2-z
1/2-x,1/2+y,z
1/2+x,1/2-y,1/2+z
loop_
_atom_site_type_symbol
_atom_site_label
_atom_site_fract_x
_atom_site_fract_y
_atom_site_fract_z
Si Si1 0.390037 0.563620 0.750000
Si Si2 0.254407 0.753716 0.390816
Si Si3 0.252133 0.472445 0.139172
Si Si4 0.893127 0.702962 0.500635
Si Si5 0.681388 0.000000 0.500000
Si Si6 0.394109 0.031736 0.250000
Si Si7 0.688513 0.776439 0.750000
O O1 0.500000 0.560232 0.750000
O O2 0.342644 0.515605 0.814968
O O3 0.355248 0.672505 0.750000
O O4 0.250363 0.863447 0.377225
O O5 0.164379 0.726606 0.433703
O O6 0.342784 0.741854 0.438773
O O7 0.248851 0.709294 0.317321
O O8 0.163769 0.497048 0.185379
O O9 0.242424 0.519726 0.066525
O O10 0.878873 0.592230 0.512289
O O11 0.000000 0.725214 0.494658
O O12 0.500000 0.000479 0.250000
O O13 0.387913 0.143452 0.250000
#
# Coordination Sequence:
#
# PCOD9471052 Si02
#       7
#     8  16  16  16   8   8   8
#     4   9  18  35  55  75 104 145 186 218 256 315
#     4   9  20  36  52  77 113 148 179 214 264 324
#     4   9  20  35  52  77 112 145 174 218 270 322
#     4  10  20  35  57  83 110 142 180 222 271 323
#     4  10  19  34  55  84 116 138 169 228 287 320
#     4  11  22  35  57  87 112 135 172 226 284 329
#     4  10  19  34  57  82 108 138 175 224 271 320
#
# _framework density 19.340827999999998
#
# number of rings (size 3 to 8) (size 9 to 14) (size 15 to 20)
#    0.000    2.400    0.000    2.400    0.000    9.600 
#    0.000    1.000    0.000   24.000    0.000    1.400 
#    0.000    0.000    0.000    0.000    0.000    0.000 
#
# Total GULP energy -223017.952394 kJ/mol
# GULP energy per Si atom -5575.448810 kJ/mol
# Density = 1.929681 g / cm^3
# Si number density = 19.340828 Si / 1000 Ang^3
#
#
#
# Elastic Constant Matrix: (Units=GPa)
#
#
# Indices 1 2 3 4 5 6 
#
# 1 154.6272 42.4209 79.1946 0.0000 0.0000 0.0000
# 2 42.4209 39.5785 14.4413 0.0000 0.0000 0.0000
# 3 79.1946 14.4413 171.4753 0.0000 0.0000 0.0000
# 4 0.0000 0.0000 0.0000 31.5527 0.0000 0.0000
# 5 0.0000 0.0000 0.0000 0.0000 3.1890 0.0000
# 6 0.0000 0.0000 0.0000 0.0000 0.0000 16.4557
#
#
#
# Elastic Compliance Matrix: (Units=1/GPa)
#
#
# Indices 1 2 3 4 5 6 
#
# 1 0.011802 -0.010998 -0.004524 0.000000 0.000000 0.000000
# 2 -0.010998 0.036317 0.002021 0.000000 0.000000 0.000000
# 3 -0.004524 0.002021 0.007751 0.000000 0.000000 0.000000
# 4 0.000000 0.000000 0.000000 0.031693 0.000000 0.000000
# 5 0.000000 0.000000 0.000000 0.000000 0.313575 0.000000
# 6 0.000000 0.000000 0.000000 0.000000 0.000000 0.060769
#
#
# Mechanical properties :
#
#
# Convention : Reuss Voigt Hill
#
# Bulk Modulus (GPa) = 34.64229 70.86606 52.75418
# Shear Modulus (GPa) = 10.02944 25.54777 17.78860
#
# Velocity S-wave (km/s) = 2.27967 3.63839 3.03602
# Velocity P-wave (km/s) = 4.98794 7.37365 6.29485
#
# Compressibility (1/GPa) = 0.02886645
#
# Stress axis : x y z
#
# Youngs Moduli (GPa) = 84.73376 27.53523 129.01511
#
# Poissons Ratio (x) = 0.30284 0.58370
# Poissons Ratio (y) = 0.93194 -0.26074
# Poissons Ratio (z) = 0.38336 -0.05565
#
# Static dielectric constant tensor:
#      x y z
#    x 1.631830 0.000000 0.000000 
#    y 0.000000 1.714930 0.000000 
#    z 0.000000 0.000000 1.730580 
# 
# From -- ./inp_files/52511.got.cif
#   From: 2010.05.17/outbox.cif.g08.bks.cpg/sg63_27_cif.got.tgz:52511.got - 2010.06.03 15:47:04.
