data_PCOD9471410
_publ_section_title
;
Structure prediction by ZEFSAII (Michael W. Deem and Ramdas Pophale) SiO2 
 PCOD9471410
Probable space group: C M C M
;
_chemical_formula_sum "Si O2"
_cell_formula_units_Z 112
_cell_length_a 23.252093
_cell_length_b 13.246182
_cell_length_c 19.998120
_cell_angle_alpha 90.000000
_cell_angle_beta 90.000000
_cell_angle_gamma 90.000000
_cell_volume 6159.450072
_symmetry_space_group_name_H-M "C M C M"
_symmetry_group_IT_number 63
_symmetry_cell_setting 'orthorhombic'
loop_
_space_group_symop_operation_xyz
x,y,z
-x,-y,1/2+z
x,-y,-z
-x,y,1/2-z
-x,-y,-z
x,y,1/2-z
-x,y,z
x,-y,1/2+z
1/2+x,1/2+y,z
1/2-x,1/2-y,1/2+z
1/2+x,1/2-y,-z
1/2-x,1/2+y,1/2-z
1/2-x,1/2-y,-z
1/2+x,1/2+y,1/2-z
1/2-x,1/2+y,z
1/2+x,1/2-y,1/2+z
loop_
_atom_site_type_symbol
_atom_site_label
_atom_site_fract_x
_atom_site_fract_y
_atom_site_fract_z
Si Si1 0.851802 0.871528 0.826915
Si Si2 0.763958 0.256476 0.397596
Si Si3 0.182579 0.910506 0.173680
Si Si4 0.062593 0.814769 0.173000
Si Si5 0.935038 0.695175 0.041940
Si Si6 0.931964 0.098180 0.043703
Si Si7 0.812649 0.385121 0.517694
O O1 0.874158 0.869052 0.750000
O O2 0.810378 0.778160 0.843222
O O3 0.897782 0.883510 0.887094
O O4 0.811654 0.970591 0.832353
O O5 0.720614 0.341910 0.372846
O O6 0.798309 0.307269 0.458227
O O7 0.725607 0.161855 0.422557
O O8 0.194678 0.880434 0.250000
O O9 0.115327 0.888509 0.160989
O O10 0.065799 0.780814 0.250000
O O11 0.066379 0.725661 0.119966
O O12 0.000000 0.864363 0.162971
O O13 0.881009 0.623629 0.029518
O O14 0.000000 0.658800 0.025833
O O15 0.926110 0.800782 0.001662
O O16 0.000000 0.084134 0.057041
O O17 0.912360 0.000000 0.000000
O O18 0.796847 0.500000 0.500000
#
# Coordination Sequence:
#
# PCOD9471410 Si02
#       7
#    16  16  16  16  16  16  16
#     4  11  23  37  58  86 118 156 195 236 286 351
#     4  11  22  39  55  78 116 155 185 238 285 339
#     4  10  20  34  55  81 109 145 189 231 279 338
#     4   9  17  31  54  83 113 143 178 228 287 338
#     4  10  19  36  57  82 112 145 184 232 288 336
#     4  10  21  36  59  88 120 153 189 236 292 353
#     4  11  23  37  58  85 108 146 196 238 280 337
#
# _framework density 18.183440999999998
#
# number of rings (size 3 to 8) (size 9 to 14) (size 15 to 20)
#    0.000    1.714    2.857    2.143    0.000    2.857 
#    0.000    1.429    0.000    0.857    0.000    0.000 
#    0.000    0.000    0.000    0.000    0.000    0.000 
#
# Total GULP energy -312212.611886 kJ/mol
# GULP energy per Si atom -5575.225212 kJ/mol
# Density = 1.814205 g / cm^3
# Si number density = 18.183441 Si / 1000 Ang^3
#
#
#
# Elastic Constant Matrix: (Units=GPa)
#
#
# Indices 1 2 3 4 5 6 
#
# 1 78.3003 14.7735 39.7391 0.0000 0.0000 0.0000
# 2 14.7735 31.7909 8.3847 0.0000 0.0000 0.0000
# 3 39.7391 8.3847 81.9850 0.0000 0.0000 0.0000
# 4 0.0000 0.0000 0.0000 20.8219 0.0000 0.0000
# 5 0.0000 0.0000 0.0000 0.0000 14.2243 0.0000
# 6 0.0000 0.0000 0.0000 0.0000 0.0000 5.8531
#
#
#
# Elastic Compliance Matrix: (Units=1/GPa)
#
#
# Indices 1 2 3 4 5 6 
#
# 1 0.018073 -0.006257 -0.008120 0.000000 0.000000 0.000000
# 2 -0.006257 0.034494 -0.000495 0.000000 0.000000 0.000000
# 3 -0.008120 -0.000495 0.016184 0.000000 0.000000 0.000000
# 4 0.000000 0.000000 0.000000 0.048026 0.000000 0.000000
# 5 0.000000 0.000000 0.000000 0.000000 0.070302 0.000000
# 6 0.000000 0.000000 0.000000 0.000000 0.000000 0.170851
#
#
# Mechanical properties :
#
#
# Convention : Reuss Voigt Hill
#
# Bulk Modulus (GPa) = 25.63680 35.31896 30.47788
# Shear Modulus (GPa) = 12.47887 16.79176 14.63531
#
# Velocity S-wave (km/s) = 2.62253 3.04215 2.84010
# Velocity P-wave (km/s) = 4.82699 5.63963 5.24906
#
# Compressibility (1/GPa) = 0.03900642
#
# Stress axis : x y z
#
# Youngs Moduli (GPa) = 55.33063 28.99073 61.78942
#
# Poissons Ratio (x) = 0.18140 0.50175
# Poissons Ratio (y) = 0.34621 0.03058
# Poissons Ratio (z) = 0.44930 0.01435
#
# Static dielectric constant tensor:
#      x y z
#    x 1.641350 0.000000 0.000000 
#    y 0.000000 1.608810 0.000000 
#    z 0.000000 0.000000 1.653110 
# 
# From -- ./inp_files/57620.got.cif
#   From: 2010.05.17/outbox.cif.g08.bks.cpg/sg63_29_cif.got.tgz:57620.got - 2010.06.03 15:47:04.
