data_PCOD9471989
_publ_section_title
;
Structure prediction by ZEFSAII (Michael W. Deem and Ramdas Pophale) SiO2 
 PCOD9471989
Probable space group: C M C M
;
_chemical_formula_sum "Si O2"
_cell_formula_units_Z 116
_cell_length_a 24.030057
_cell_length_b 29.179647
_cell_length_c 7.750792
_cell_angle_alpha 90.000000
_cell_angle_beta 90.000000
_cell_angle_gamma 90.000000
_cell_volume 5434.766841
_symmetry_space_group_name_H-M "C M C M"
_symmetry_group_IT_number 63
_symmetry_cell_setting 'orthorhombic'
loop_
_space_group_symop_operation_xyz
x,y,z
-x,-y,1/2+z
x,-y,-z
-x,y,1/2-z
-x,-y,-z
x,y,1/2-z
-x,y,z
x,-y,1/2+z
1/2+x,1/2+y,z
1/2-x,1/2-y,1/2+z
1/2+x,1/2-y,-z
1/2-x,1/2+y,1/2-z
1/2-x,1/2-y,-z
1/2+x,1/2+y,1/2-z
1/2-x,1/2+y,z
1/2+x,1/2-y,1/2+z
loop_
_atom_site_type_symbol
_atom_site_label
_atom_site_fract_x
_atom_site_fract_y
_atom_site_fract_z
Si Si1 0.714609 0.050269 0.954707
Si Si2 0.912288 0.550884 0.956295
Si Si3 0.172935 0.298172 0.952287
Si Si4 0.560666 0.152870 0.453920
Si Si5 0.680209 0.400358 0.950534
Si Si6 0.576859 0.447565 0.446807
Si Si7 0.800626 0.198215 0.460025
Si Si8 0.500000 0.585858 0.250000
O O1 0.712750 0.055483 0.750000
O O2 0.651652 0.052064 0.021515
O O3 0.755102 0.087952 0.029232
O O4 0.736976 0.000000 0.000000
O O5 0.913429 0.554244 0.750000
O O6 0.934486 0.500000 0.000000
O O7 0.937849 0.597772 0.025535
O O8 0.175911 0.310446 0.750000
O O9 0.118556 0.324842 0.024381
O O10 0.236030 0.305173 0.022749
O O11 0.168556 0.243254 0.972609
O O12 0.560571 0.163519 0.250000
O O13 0.500000 0.168527 0.524536
O O14 0.667400 0.403307 0.750000
O O15 0.670171 0.348814 0.012037
O O16 0.642153 0.436530 0.046547
O O17 0.565917 0.500000 0.500000
O O18 0.558812 0.440347 0.250000
O O19 0.547547 0.417850 0.594963
O O20 0.799279 0.200796 0.250000
#
# Coordination Sequence:
#
# PCOD9471989 Si02
#       8
#    16  16  16  16  16  16  16   4
#     4  10  20  33  51  77 113 151 188 231 285 347
#     4  10  21  36  55  81 113 152 193 235 279 333
#     4   9  18  35  58  86 112 144 190 233 291 348
#     4  10  21  37  58  82 111 149 190 234 280 337
#     4  11  21  36  54  83 119 152 189 236 299 355
#     4  12  24  39  62  87 114 153 201 251 299 356
#     4   9  19  34  58  84 114 147 180 237 292 351
#     4  12  24  44  62  86 112 154 202 256 292 358
#
# _framework density 21.344062999999998
#
# number of rings (size 3 to 8) (size 9 to 14) (size 15 to 20)
#    0.000    1.793    1.379    2.897    0.000    4.966 
#    0.000    2.759    1.517    0.000    0.000    0.000 
#    0.000    0.000    0.000    0.000    0.000    0.000 
#
# Total GULP energy -323092.932075 kJ/mol
# GULP energy per Si atom -5570.567794 kJ/mol
# Density = 2.129548 g / cm^3
# Si number density = 21.344063 Si / 1000 Ang^3
#
#
#
# Elastic Constant Matrix: (Units=GPa)
#
#
# Indices 1 2 3 4 5 6 
#
# 1 108.2987 36.6443 12.8716 0.0000 0.0000 0.0000
# 2 36.6443 78.5778 -1.6828 0.0000 0.0000 0.0000
# 3 12.8716 -1.6828 82.6602 0.0000 0.0000 0.0000
# 4 0.0000 0.0000 0.0000 22.7020 0.0000 0.0000
# 5 0.0000 0.0000 0.0000 0.0000 10.0995 0.0000
# 6 0.0000 0.0000 0.0000 0.0000 0.0000 42.6174
#
#
#
# Elastic Compliance Matrix: (Units=1/GPa)
#
#
# Indices 1 2 3 4 5 6 
#
# 1 0.011242 -0.005282 -0.001858 0.000000 0.000000 0.000000
# 2 -0.005282 0.015214 0.001132 0.000000 0.000000 0.000000
# 3 -0.001858 0.001132 0.012410 0.000000 0.000000 0.000000
# 4 0.000000 0.000000 0.000000 0.044049 0.000000 0.000000
# 5 0.000000 0.000000 0.000000 0.000000 0.099015 0.000000
# 6 0.000000 0.000000 0.000000 0.000000 0.000000 0.023465
#
#
# Mechanical properties :
#
#
# Convention : Reuss Voigt Hill
#
# Bulk Modulus (GPa) = 37.24461 40.57809 38.91135
# Shear Modulus (GPa) = 22.08865 29.86402 25.97634
#
# Velocity S-wave (km/s) = 3.22045 3.74461 3.49238
# Velocity P-wave (km/s) = 5.59606 6.14401 5.87643
#
# Compressibility (1/GPa) = 0.02684953
#
# Stress axis : x y z
#
# Youngs Moduli (GPa) = 88.95267 65.72935 80.57941
#
# Poissons Ratio (x) = 0.34721 0.14972
# Poissons Ratio (y) = 0.46988 -0.09124
# Poissons Ratio (z) = 0.16528 -0.07442
#
# Static dielectric constant tensor:
#      x y z
#    x 1.851820 0.000000 0.000000 
#    y 0.000000 1.780440 0.000000 
#    z 0.000000 0.000000 1.766110 
# 
# From -- ./inp_files/10943.got.cif
#   From: 2010.05.17/outbox.cif.g08.bks.cpg/sg63_6_cif.got.tgz:10943.got - 2010.06.03 15:47:04.
