data_PCOD9471846
_publ_section_title
;
Structure prediction by ZEFSAII (Michael W. Deem and Ramdas Pophale) SiO2 
 PCOD9471846
Probable space group: C M C M
;
_chemical_formula_sum "Si O2"
_cell_formula_units_Z 116
_cell_length_a 26.890440
_cell_length_b 27.998518
_cell_length_c 7.915995
_cell_angle_alpha 90.000000
_cell_angle_beta 90.000000
_cell_angle_gamma 90.000000
_cell_volume 5959.893015
_symmetry_space_group_name_H-M "C M C M"
_symmetry_group_IT_number 63
_symmetry_cell_setting 'orthorhombic'
loop_
_space_group_symop_operation_xyz
x,y,z
-x,-y,1/2+z
x,-y,-z
-x,y,1/2-z
-x,-y,-z
x,y,1/2-z
-x,y,z
x,-y,1/2+z
1/2+x,1/2+y,z
1/2-x,1/2-y,1/2+z
1/2+x,1/2-y,-z
1/2-x,1/2+y,1/2-z
1/2-x,1/2-y,-z
1/2+x,1/2+y,1/2-z
1/2-x,1/2+y,z
1/2+x,1/2-y,1/2+z
loop_
_atom_site_type_symbol
_atom_site_label
_atom_site_fract_x
_atom_site_fract_y
_atom_site_fract_z
Si Si1 0.861424 0.245163 0.051131
Si Si2 0.000000 0.459790 0.250000
Si Si3 0.312489 0.917683 0.546551
Si Si4 0.055883 0.679545 0.451508
Si Si5 0.077080 0.566786 0.046747
Si Si6 0.295154 0.448790 0.551974
Si Si7 0.324586 0.651325 0.948637
Si Si8 0.781229 0.315500 0.049779
O O1 0.854626 0.240158 0.250000
O O2 0.812602 0.271837 0.975440
O O3 0.906336 0.281580 0.022157
O O4 0.865393 0.191670 0.981594
O O5 0.042942 0.456062 0.402473
O O6 0.309968 0.913500 0.750000
O O7 0.364732 0.942961 0.512107
O O8 0.261078 0.940821 0.479814
O O9 0.312487 0.863929 0.475453
O O10 0.055552 0.686296 0.250000
O O11 0.070035 0.624165 0.477538
O O12 0.000000 0.686195 0.518166
O O13 0.065100 0.557617 0.250000
O O14 0.315361 0.500000 0.500000
O O15 0.288612 0.450156 0.750000
O O16 0.328349 0.402662 0.511744
O O17 0.317663 0.647009 0.750000
O O18 0.272834 0.672483 0.024293
O O19 0.775860 0.307071 0.250000
#
# Coordination Sequence:
#
# PCOD9471846 Si02
#       8
#    16   4  16  16  16  16  16  16
#     4  11  21  30  46  70 100 135 175 212 250 301
#     4  12  22  28  52  70  98 140 168 224 266 312
#     4   9  18  31  49  71 100 130 163 211 259 308
#     4  10  20  33  47  65  97 137 178 219 259 298
#     4  10  20  33  47  71 102 131 175 221 264 311
#     4  10  20  36  56  78 102 129 162 207 263 313
#     4  10  20  34  49  70 100 135 169 207 250 305
#     4   9  18  29  45  68  97 133 172 205 243 298
#
# _framework density 19.463436000000002
#
# number of rings (size 3 to 8) (size 9 to 14) (size 15 to 20)
#    0.000    2.069    2.069    1.862    1.931    1.931 
#    0.000    0.000    0.000    0.000    0.000    0.483 
#    0.000    0.552    0.000    2.069    0.000    3.172 
#
# Total GULP energy -323147.564999 kJ/mol
# GULP energy per Si atom -5571.509741 kJ/mol
# Density = 1.941914 g / cm^3
# Si number density = 19.463436 Si / 1000 Ang^3
#
#
#
# Elastic Constant Matrix: (Units=GPa)
#
#
# Indices 1 2 3 4 5 6 
#
# 1 27.8228 24.7320 11.5498 0.0000 0.0000 0.0000
# 2 24.7320 147.3200 25.5861 0.0000 0.0000 0.0000
# 3 11.5498 25.5861 56.1099 0.0000 0.0000 0.0000
# 4 0.0000 0.0000 0.0000 23.2288 0.0000 0.0000
# 5 0.0000 0.0000 0.0000 0.0000 25.4474 0.0000
# 6 0.0000 0.0000 0.0000 0.0000 0.0000 8.0110
#
#
#
# Elastic Compliance Matrix: (Units=1/GPa)
#
#
# Indices 1 2 3 4 5 6 
#
# 1 0.044146 -0.006335 -0.006198 0.000000 0.000000 0.000000
# 2 -0.006335 0.008281 -0.002472 0.000000 0.000000 0.000000
# 3 -0.006198 -0.002472 0.020225 0.000000 0.000000 0.000000
# 4 0.000000 0.000000 0.000000 0.043050 0.000000 0.000000
# 5 0.000000 0.000000 0.000000 0.000000 0.039297 0.000000
# 6 0.000000 0.000000 0.000000 0.000000 0.000000 0.124829
#
#
# Mechanical properties :
#
#
# Convention : Reuss Voigt Hill
#
# Bulk Modulus (GPa) = 23.45131 39.44316 31.44724
# Shear Modulus (GPa) = 15.42963 22.62976 19.02969
#
# Velocity S-wave (km/s) = 2.81864 3.41351 3.13024
# Velocity P-wave (km/s) = 4.76109 5.98710 5.40894
#
# Compressibility (1/GPa) = 0.04264153
#
# Stress axis : x y z
#
# Youngs Moduli (GPa) = 22.65219 120.76212 49.44296
#
# Poissons Ratio (x) = 0.76498 0.30647
# Poissons Ratio (y) = 0.14349 0.12223
# Poissons Ratio (z) = 0.14041 0.29853
#
# Static dielectric constant tensor:
#      x y z
#    x 1.706720 0.000000 0.000000 
#    y 0.000000 1.762300 0.000000 
#    z 0.000000 0.000000 1.678890 
# 
# From -- ./inp_files/14917.got.cif
#   From: 2010.05.17/outbox.cif.g08.bks.cpg/sg63_8_cif.got.tgz:14917.got - 2010.06.03 15:47:04.
