data_PCOD9471351
_publ_section_title
;
Structure prediction by ZEFSAII (Michael W. Deem and Ramdas Pophale) SiO2 
 PCOD9471351
Probable space group: C M C M
;
_chemical_formula_sum "Si O2"
_cell_formula_units_Z 112
_cell_length_a 14.349757
_cell_length_b 11.439804
_cell_length_c 30.469284
_cell_angle_alpha 90.000000
_cell_angle_beta 90.000000
_cell_angle_gamma 90.000000
_cell_volume 5001.789140
_symmetry_space_group_name_H-M "C M C M"
_symmetry_group_IT_number 63
_symmetry_cell_setting 'orthorhombic'
loop_
_space_group_symop_operation_xyz
x,y,z
-x,-y,1/2+z
x,-y,-z
-x,y,1/2-z
-x,-y,-z
x,y,1/2-z
-x,y,z
x,-y,1/2+z
1/2+x,1/2+y,z
1/2-x,1/2-y,1/2+z
1/2+x,1/2-y,-z
1/2-x,1/2+y,1/2-z
1/2-x,1/2-y,-z
1/2+x,1/2+y,1/2-z
1/2-x,1/2+y,z
1/2+x,1/2-y,1/2+z
loop_
_atom_site_type_symbol
_atom_site_label
_atom_site_fract_x
_atom_site_fract_y
_atom_site_fract_z
Si Si1 0.387672 0.055734 0.359304
Si Si2 0.386865 0.728698 0.799496
Si Si3 0.611681 0.307096 0.618846
Si Si4 0.612681 0.161686 0.799889
Si Si5 0.678183 0.951590 0.540161
Si Si6 0.264378 0.693856 0.941161
Si Si7 0.111474 0.072197 0.626440
O O1 0.500000 0.056527 0.359722
O O2 0.355991 0.168343 0.331869
O O3 0.357351 0.047348 0.409677
O O4 0.356269 0.946387 0.329922
O O5 0.353137 0.740221 0.750000
O O6 0.500000 0.735155 0.797718
O O7 0.362885 0.608677 0.824093
O O8 0.500000 0.293348 0.888037
O O9 0.632316 0.271612 0.669042
O O10 0.670403 0.229936 0.584967
O O11 0.639693 0.441729 0.613781
O O12 0.647121 0.163012 0.750000
O O13 0.500000 0.152978 0.797080
O O14 0.706102 0.814274 0.534341
O O15 0.614205 0.000000 0.500000
O O16 0.749844 0.063591 0.538713
O O17 0.344600 0.666124 0.905928
O O18 0.000000 0.077158 0.623143
#
# Coordination Sequence:
#
# PCOD9471351 Si02
#       7
#    16  16  16  16  16  16  16
#     4  10  19  35  60  90 126 163 206 264 329 387
#     4   9  17  31  56  90 126 167 213 259 312 379
#     4  10  21  38  64  94 129 177 222 266 326 390
#     4   9  17  31  56  90 126 167 213 259 312 379
#     4  12  26  42  66  94 124 166 218 272 339 399
#     4  12  23  44  69  94 130 170 217 276 339 394
#     4  10  21  38  64  94 129 177 222 266 326 390
#
# _framework density 22.391988000000001
#
# number of rings (size 3 to 8) (size 9 to 14) (size 15 to 20)
#    0.000    1.714    4.286    0.857    0.000    2.571 
#    0.000    3.571    0.000    3.429    0.000    0.000 
#    0.000    0.000    0.000    0.000    0.000    0.000 
#
# Total GULP energy -312302.958432 kJ/mol
# GULP energy per Si atom -5576.838543 kJ/mol
# Density = 2.234102 g / cm^3
# Si number density = 22.391988 Si / 1000 Ang^3
#
#
#
# Elastic Constant Matrix: (Units=GPa)
#
#
# Indices 1 2 3 4 5 6 
#
# 1 60.5467 36.8538 31.8591 0.0000 0.0000 0.0000
# 2 36.8538 173.5041 66.2087 0.0000 0.0000 0.0000
# 3 31.8591 66.2087 100.8314 0.0000 0.0000 0.0000
# 4 0.0000 0.0000 0.0000 35.8740 0.0000 0.0000
# 5 0.0000 0.0000 0.0000 0.0000 12.3432 0.0000
# 6 0.0000 0.0000 0.0000 0.0000 0.0000 14.3855
#
#
#
# Elastic Compliance Matrix: (Units=1/GPa)
#
#
# Indices 1 2 3 4 5 6 
#
# 1 0.020607 -0.002525 -0.004853 0.000000 0.000000 0.000000
# 2 -0.002525 0.008000 -0.004455 0.000000 0.000000 0.000000
# 3 -0.004853 -0.004455 0.014376 0.000000 0.000000 0.000000
# 4 0.000000 0.000000 0.000000 0.027875 0.000000 0.000000
# 5 0.000000 0.000000 0.000000 0.000000 0.081016 0.000000
# 6 0.000000 0.000000 0.000000 0.000000 0.000000 0.069514
#
#
# Mechanical properties :
#
#
# Convention : Reuss Voigt Hill
#
# Bulk Modulus (GPa) = 51.76906 67.19170 59.48038
# Shear Modulus (GPa) = 19.88118 25.85126 22.86622
#
# Velocity S-wave (km/s) = 2.98295 3.40146 3.19906
# Velocity P-wave (km/s) = 5.91892 6.74528 6.34556
#
# Compressibility (1/GPa) = 0.01931656
#
# Stress axis : x y z
#
# Youngs Moduli (GPa) = 48.52774 125.00000 69.55919
#
# Poissons Ratio (x) = 0.31565 0.33756
# Poissons Ratio (y) = 0.12254 0.30990
# Poissons Ratio (z) = 0.23550 0.55689
#
# Static dielectric constant tensor:
#      x y z
#    x 1.881900 0.000000 0.000000 
#    y 0.000000 1.850270 0.000000 
#    z 0.000000 0.000000 1.885710 
# 
# From -- ./inp_files/73437.got.cif
#   From: 2010.05.17/outbox.cif.g08.bks.cpg/sg63_37_cif.got.tgz:73437.got - 2010.06.03 15:47:04.
