data_PCOD9471816
_publ_section_title
;
Structure prediction by ZEFSAII (Michael W. Deem and Ramdas Pophale) SiO2 
 PCOD9471816
Probable space group: C M C M
;
_chemical_formula_sum "Si O2"
_cell_formula_units_Z 96
_cell_length_a 24.586034
_cell_length_b 9.831248
_cell_length_c 20.828373
_cell_angle_alpha 90.000000
_cell_angle_beta 90.000000
_cell_angle_gamma 90.000000
_cell_volume 5034.455147
_symmetry_space_group_name_H-M "C M C M"
_symmetry_group_IT_number 63
_symmetry_cell_setting 'orthorhombic'
loop_
_space_group_symop_operation_xyz
x,y,z
-x,-y,1/2+z
x,-y,-z
-x,y,1/2-z
-x,-y,-z
x,y,1/2-z
-x,y,z
x,-y,1/2+z
1/2+x,1/2+y,z
1/2-x,1/2-y,1/2+z
1/2+x,1/2-y,-z
1/2-x,1/2+y,1/2-z
1/2-x,1/2-y,-z
1/2+x,1/2+y,1/2-z
1/2-x,1/2+y,z
1/2+x,1/2-y,1/2+z
loop_
_atom_site_type_symbol
_atom_site_label
_atom_site_fract_x
_atom_site_fract_y
_atom_site_fract_z
Si Si1 0.632167 0.882699 0.913280
Si Si2 0.093412 0.837966 0.176919
Si Si3 0.437096 0.443070 0.570558
Si Si4 0.757641 0.801688 0.603218
Si Si5 0.282406 0.562809 0.819975
Si Si6 0.364816 0.192367 0.554923
O O1 0.598368 0.808675 0.857574
O O2 0.694870 0.831085 0.912955
O O3 0.632081 0.045959 0.910651
O O4 0.612707 0.834021 0.983354
O O5 0.071216 0.836079 0.250000
O O6 0.155969 0.886369 0.182266
O O7 0.067457 0.942680 0.125949
O O8 0.419841 0.500000 0.500000
O O9 0.500000 0.401762 0.564766
O O10 0.399595 0.313333 0.585769
O O11 0.754668 0.688656 0.659004
O O12 0.801775 0.741741 0.554009
O O13 0.778968 0.945030 0.628219
O O14 0.265835 0.510696 0.750000
#
# Coordination Sequence:
#
# PCOD9471816 Si02
#       6
#    16  16  16  16  16  16
#     4  10  22  37  56  90 124 164 199 238 299 371
#     4  10  21  40  62  87 123 162 200 247 302 366
#     4  11  23  42  68  93 115 150 202 263 318 362
#     4  11  19  34  52  83 122 159 198 243 289 354
#     4  10  20  32  51  80 120 164 198 232 289 360
#     4  11  21  38  59  87 126 155 203 256 300 354
#
# _framework density 19.068597
#
# number of rings (size 3 to 8) (size 9 to 14) (size 15 to 20)
#    0.000    1.500    5.000    1.000    0.000    1.000 
#    3.000    3.333    0.000    0.000    0.000    0.000 
#    0.000    0.000    0.000    0.000    0.000    0.000 
#
# Total GULP energy -267537.038313 kJ/mol
# GULP energy per Si atom -5573.688298 kJ/mol
# Density = 1.902520 g / cm^3
# Si number density = 19.068597 Si / 1000 Ang^3
#
#
#
# Elastic Constant Matrix: (Units=GPa)
#
#
# Indices 1 2 3 4 5 6 
#
# 1 40.1327 19.4396 5.5359 0.0000 0.0000 0.0000
# 2 19.4396 125.3691 36.8800 0.0000 0.0000 0.0000
# 3 5.5359 36.8800 92.4901 0.0000 0.0000 0.0000
# 4 0.0000 0.0000 0.0000 20.6556 0.0000 0.0000
# 5 0.0000 0.0000 0.0000 0.0000 -2.9272 0.0000
# 6 0.0000 0.0000 0.0000 0.0000 0.0000 14.5202
#
#
#
# Elastic Compliance Matrix: (Units=1/GPa)
#
#
# Indices 1 2 3 4 5 6 
#
# 1 0.026941 -0.004195 0.000060 0.000000 0.000000 0.000000
# 2 -0.004195 0.009690 -0.003613 0.000000 0.000000 0.000000
# 3 0.000060 -0.003613 0.012249 0.000000 0.000000 0.000000
# 4 0.000000 0.000000 0.000000 0.048413 0.000000 0.000000
# 5 0.000000 0.000000 0.000000 0.000000 -0.341629 0.000000
# 6 0.000000 0.000000 0.000000 0.000000 0.000000 0.068869
#
#
# Mechanical properties :
#
#
# Convention : Reuss Voigt Hill
#
# Bulk Modulus (GPa) = 29.95395 42.41143 36.18269
# Shear Modulus (GPa) = -33.59234 19.52549 -7.03342
#
# Velocity S-wave (km/s) = -4.20176 3.20341 -1.92263
# Velocity P-wave (km/s) = 2.79234 5.99769 3.75334
#
# Compressibility (1/GPa) = 0.03338458
#
# Stress axis : x y z
#
# Youngs Moduli (GPa) = 37.11804 103.20266 81.64014
#
# Poissons Ratio (x) = 0.43295 -0.00492
# Poissons Ratio (y) = 0.15572 0.29493
# Poissons Ratio (z) = -0.00224 0.37283
#
# Static dielectric constant tensor:
#      x y z
#    x 1.655700 0.000000 0.000000 
#    y 0.000000 1.639880 0.000000 
#    z 0.000000 0.000000 1.699680 
# 
# From -- ./inp_files/58048.got.cif
#   From: 2010.05.17/outbox.cif.g08.bks.cpg/sg63_30_cif.got.tgz:58048.got - 2010.06.03 15:47:04.
