data_PCOD9471194
_publ_section_title
;
Structure prediction by ZEFSAII (Michael W. Deem and Ramdas Pophale) SiO2 
 PCOD9471194
Probable space group: C M C M
;
_chemical_formula_sum "Si O2"
_cell_formula_units_Z 112
_cell_length_a 29.284176
_cell_length_b 12.530957
_cell_length_c 14.353326
_cell_angle_alpha 90.000000
_cell_angle_beta 90.000000
_cell_angle_gamma 90.000000
_cell_volume 5267.078571
_symmetry_space_group_name_H-M "C M C M"
_symmetry_group_IT_number 63
_symmetry_cell_setting 'orthorhombic'
loop_
_space_group_symop_operation_xyz
x,y,z
-x,-y,1/2+z
x,-y,-z
-x,y,1/2-z
-x,-y,-z
x,y,1/2-z
-x,y,z
x,-y,1/2+z
1/2+x,1/2+y,z
1/2-x,1/2-y,1/2+z
1/2+x,1/2-y,-z
1/2-x,1/2+y,1/2-z
1/2-x,1/2-y,-z
1/2+x,1/2+y,1/2-z
1/2-x,1/2+y,z
1/2+x,1/2-y,1/2+z
loop_
_atom_site_type_symbol
_atom_site_label
_atom_site_fract_x
_atom_site_fract_y
_atom_site_fract_z
Si Si1 0.950561 0.317759 0.637761
Si Si2 0.840918 0.027576 0.639551
Si Si3 0.320314 0.894260 0.143486
Si Si4 0.273759 0.693842 0.913461
Si Si5 0.430275 0.388895 0.470249
Si Si6 0.347687 0.874547 0.638101
Si Si7 0.121594 0.200101 0.140096
O O1 0.948944 0.313232 0.750000
O O2 0.952103 0.199512 0.594779
O O3 0.900833 0.363718 0.606991
O O4 0.000000 0.370308 0.612947
O O5 0.838984 0.057491 0.750000
O O6 0.800317 0.082095 0.583627
O O7 0.886095 0.072252 0.589422
O O8 0.843176 0.899600 0.635924
O O9 0.335575 0.903219 0.250000
O O10 0.270593 0.841012 0.145192
O O11 0.354454 0.806553 0.102325
O O12 0.325216 0.013719 0.105295
O O13 0.313350 0.777112 0.883863
O O14 0.250000 0.750000 0.000000
O O15 0.452783 0.500000 0.500000
O O16 0.417203 0.331816 0.567455
O O17 0.349428 0.875182 0.750000
O O18 0.108237 0.208307 0.250000
#
# Coordination Sequence:
#
# PCOD9471194 Si02
#       7
#    16  16  16  16  16  16  16
#     4  10  21  40  68  98 126 163 216 275 333 385
#     4  10  19  35  59  83 121 167 209 259 312 374
#     4  10  22  38  56  82 118 163 208 254 310 376
#     4  12  24  36  54  87 124 163 207 259 312 386
#     4  10  19  34  59  92 126 161 206 255 319 383
#     4  10  22  42  64  88 124 164 209 270 323 377
#     4   9  20  37  57  84 122 167 211 253 308 375
#
# _framework density 21.26416
#
# number of rings (size 3 to 8) (size 9 to 14) (size 15 to 20)
#    0.000    1.857    1.429    2.571    2.000    1.429 
#    0.000    0.000    0.000    2.143    0.000    2.000 
#    0.000    0.000    0.000    0.000    0.000    0.000 
#
# Total GULP energy -311940.489774 kJ/mol
# GULP energy per Si atom -5570.365889 kJ/mol
# Density = 2.121576 g / cm^3
# Si number density = 21.264160 Si / 1000 Ang^3
#
#
#
# Elastic Constant Matrix: (Units=GPa)
#
#
# Indices 1 2 3 4 5 6 
#
# 1 121.8697 41.8682 23.9293 0.0000 0.0000 0.0000
# 2 41.8682 96.0709 14.5127 0.0000 0.0000 0.0000
# 3 23.9293 14.5127 64.2793 0.0000 0.0000 0.0000
# 4 0.0000 0.0000 0.0000 17.7255 0.0000 0.0000
# 5 0.0000 0.0000 0.0000 0.0000 -14.3657 0.0000
# 6 0.0000 0.0000 0.0000 0.0000 0.0000 11.1147
#
#
#
# Elastic Compliance Matrix: (Units=1/GPa)
#
#
# Indices 1 2 3 4 5 6 
#
# 1 0.010139 -0.003984 -0.002875 0.000000 0.000000 0.000000
# 2 -0.003984 0.012342 -0.001303 0.000000 0.000000 0.000000
# 3 -0.002875 -0.001303 0.016922 0.000000 0.000000 0.000000
# 4 0.000000 0.000000 0.000000 0.056416 0.000000 0.000000
# 5 0.000000 0.000000 0.000000 0.000000 -0.069610 0.000000
# 6 0.000000 0.000000 0.000000 0.000000 0.000000 0.089971
#
#
# Mechanical properties :
#
#
# Convention : Reuss Voigt Hill
#
# Bulk Modulus (GPa) = 43.33182 49.20447 46.26814
# Shear Modulus (GPa) = 35.66420 16.35554 26.00987
#
# Velocity S-wave (km/s) = 4.09980 2.77638 3.50119
# Velocity P-wave (km/s) = 6.54471 5.78512 6.17660
#
# Compressibility (1/GPa) = 0.02307773
#
# Stress axis : x y z
#
# Youngs Moduli (GPa) = 98.63160 81.02267 59.09612
#
# Poissons Ratio (x) = 0.32281 0.16989
# Poissons Ratio (y) = 0.39297 0.07702
# Poissons Ratio (z) = 0.28355 0.10560
#
# Static dielectric constant tensor:
#      x y z
#    x 1.829210 0.000000 0.000000 
#    y 0.000000 1.802850 0.000000 
#    z 0.000000 0.000000 1.814130 
# 
# From -- ./inp_files/38509.got.cif
#   From: 2010.05.17/outbox.cif.g08.bks.cpg/sg63_20_cif.got.tgz:38509.got - 2010.06.03 15:47:04.
