data_PCOD9471522
_publ_section_title
;
Structure prediction by ZEFSAII (Michael W. Deem and Ramdas Pophale) SiO2 
 PCOD9471522
Probable space group: C M C M
;
_chemical_formula_sum "Si O2"
_cell_formula_units_Z 72
_cell_length_a 9.887538
_cell_length_b 14.236581
_cell_length_c 29.470253
_cell_angle_alpha 90.000000
_cell_angle_beta 90.000000
_cell_angle_gamma 90.000000
_cell_volume 4148.372372
_symmetry_space_group_name_H-M "C M C M"
_symmetry_group_IT_number 63
_symmetry_cell_setting 'orthorhombic'
loop_
_space_group_symop_operation_xyz
x,y,z
-x,-y,1/2+z
x,-y,-z
-x,y,1/2-z
-x,-y,-z
x,y,1/2-z
-x,y,z
x,-y,1/2+z
1/2+x,1/2+y,z
1/2-x,1/2-y,1/2+z
1/2+x,1/2-y,-z
1/2-x,1/2+y,1/2-z
1/2-x,1/2-y,-z
1/2+x,1/2+y,1/2-z
1/2-x,1/2+y,z
1/2+x,1/2-y,1/2+z
loop_
_atom_site_type_symbol
_atom_site_label
_atom_site_fract_x
_atom_site_fract_y
_atom_site_fract_z
Si Si1 0.337264 0.002128 0.750000
Si Si2 0.714086 0.895306 0.575756
Si Si3 0.000000 0.703897 0.488998
Si Si4 0.500000 0.041228 0.948664
Si Si5 0.163812 0.190097 0.750000
Si Si6 0.662145 0.845105 0.823466
Si Si7 0.000000 0.093702 0.028873
O O1 0.500000 0.020201 0.750000
O O2 0.248415 0.095174 0.750000
O O3 0.304942 0.936857 0.706506
O O4 0.628573 0.830212 0.540772
O O5 0.715743 0.852723 0.625881
O O6 0.864093 0.906237 0.558014
O O7 0.630348 0.994271 0.575037
O O8 0.000000 0.813748 0.497675
O O9 0.000000 0.650661 0.538239
O O10 0.500000 0.000000 0.000000
O O11 0.199328 0.254051 0.793826
O O12 0.000000 0.175547 0.750000
O O13 0.500000 0.843194 0.827289
O O14 0.000000 0.000000 0.000000
#
# Coordination Sequence:
#
# PCOD9471522 Si02
#       7
#     8  16   8   8   8  16   8
#     4   9  19  37  60  84 112 147 181 221 272 326
#     4  10  19  37  58  81 107 140 192 230 268 326
#     4  10  20  38  60  74 104 151 190 222 269 334
#     4   8  16  34  60  74  97 143 185 222 260 320
#     4   9  19  37  60  82 118 145 175 219 282 334
#     4   9  17  38  61  80 109 150 186 221 261 333
#     4  12  24  38  50  81 121 145 175 232 297 318
#
# _framework density 17.356204999999999
#
# number of rings (size 3 to 8) (size 9 to 14) (size 15 to 20)
#    0.000    2.667    2.222    4.000    0.000    0.000 
#   12.000    1.111    0.000    0.000    0.000    0.000 
#    0.000    0.000    0.000    0.000    0.000    0.000 
#
# Total GULP energy -200602.687265 kJ/mol
# GULP energy per Si atom -5572.296868 kJ/mol
# Density = 1.731670 g / cm^3
# Si number density = 17.356205 Si / 1000 Ang^3
#
#
#
# Elastic Constant Matrix: (Units=GPa)
#
#
# Indices 1 2 3 4 5 6 
#
# 1 115.7210 53.2485 45.6441 0.0000 0.0000 0.0000
# 2 53.2485 136.7495 39.0589 0.0000 0.0000 0.0000
# 3 45.6441 39.0589 76.0641 0.0000 0.0000 0.0000
# 4 0.0000 0.0000 0.0000 5.8745 0.0000 0.0000
# 5 0.0000 0.0000 0.0000 0.0000 -112.5657 0.0000
# 6 0.0000 0.0000 0.0000 0.0000 0.0000 18.8386
#
#
#
# Elastic Compliance Matrix: (Units=1/GPa)
#
#
# Indices 1 2 3 4 5 6 
#
# 1 0.012389 -0.003165 -0.005809 0.000000 0.000000 0.000000
# 2 -0.003165 0.009378 -0.002916 0.000000 0.000000 0.000000
# 3 -0.005809 -0.002916 0.018130 0.000000 0.000000 0.000000
# 4 0.000000 0.000000 0.000000 0.170227 0.000000 0.000000
# 5 0.000000 0.000000 0.000000 0.000000 -0.008884 0.000000
# 6 0.000000 0.000000 0.000000 0.000000 0.000000 0.053083
#
#
# Mechanical properties :
#
#
# Convention : Reuss Voigt Hill
#
# Bulk Modulus (GPa) = 62.04865 67.15972 64.60418
# Shear Modulus (GPa) = 17.63816 -4.86497 6.38660
#
# Velocity S-wave (km/s) = 3.19132 -1.67604 1.92034
# Velocity P-wave (km/s) = 7.02902 5.91891 6.49771
#
# Compressibility (1/GPa) = 0.01611639
#
# Stress axis : x y z
#
# Youngs Moduli (GPa) = 80.71589 106.63236 55.15618
#
# Poissons Ratio (x) = 0.33748 0.32041
# Poissons Ratio (y) = 0.25546 0.16086
# Poissons Ratio (z) = 0.46890 0.31098
#
# Static dielectric constant tensor:
#      x y z
#    x 1.575780 0.000000 0.000000 
#    y 0.000000 1.624610 0.000000 
#    z 0.000000 0.000000 1.658630 
# 
# From -- ./inp_files/71508.got.cif
#   From: 2010.05.17/outbox.cif.g08.bks.cpg/sg63_36_cif.got.tgz:71508.got - 2010.06.03 15:47:04.
