data_PCOD9471623
_publ_section_title
;
Structure prediction by ZEFSAII (Michael W. Deem and Ramdas Pophale) SiO2 
 PCOD9471623
Probable space group: C M C M
;
_chemical_formula_sum "Si O2"
_cell_formula_units_Z 96
_cell_length_a 14.404377
_cell_length_b 24.591180
_cell_length_c 14.704851
_cell_angle_alpha 90.000000
_cell_angle_beta 90.000000
_cell_angle_gamma 90.000000
_cell_volume 5208.761550
_symmetry_space_group_name_H-M "C M C M"
_symmetry_group_IT_number 63
_symmetry_cell_setting 'orthorhombic'
loop_
_space_group_symop_operation_xyz
x,y,z
-x,-y,1/2+z
x,-y,-z
-x,y,1/2-z
-x,-y,-z
x,y,1/2-z
-x,y,z
x,-y,1/2+z
1/2+x,1/2+y,z
1/2-x,1/2-y,1/2+z
1/2+x,1/2-y,-z
1/2-x,1/2+y,1/2-z
1/2-x,1/2-y,-z
1/2+x,1/2+y,1/2-z
1/2-x,1/2+y,z
1/2+x,1/2-y,1/2+z
loop_
_atom_site_type_symbol
_atom_site_label
_atom_site_fract_x
_atom_site_fract_y
_atom_site_fract_z
Si Si1 0.895551 0.835160 0.360787
Si Si2 0.212919 0.608493 0.857538
Si Si3 0.603923 0.785979 0.138474
Si Si4 0.714180 0.773953 0.860576
Si Si5 0.395038 0.123206 0.142206
Si Si6 0.895079 0.499716 0.892336
O O1 0.899873 0.838239 0.250000
O O2 0.815579 0.876887 0.393510
O O3 0.856825 0.774953 0.381833
O O4 0.000000 0.844023 0.394844
O O5 0.219754 0.618097 0.750000
O O6 0.139309 0.653979 0.889565
O O7 0.173564 0.548412 0.868811
O O8 0.601880 0.784744 0.250000
O O9 0.500000 0.774925 0.106243
O O10 0.683676 0.744109 0.107907
O O11 0.719880 0.775973 0.750000
O O12 0.674135 0.831054 0.894478
O O13 0.402549 0.133908 0.250000
O O14 0.500000 0.127115 0.103683
O O15 0.363671 0.060917 0.133195
O O16 0.000000 0.508365 0.854890
O O17 0.902491 0.500000 0.000000
#
# Coordination Sequence:
#
# PCOD9471623 Si02
#       6
#    16  16  16  16  16  16
#     4   8  13  22  39  64  89 108 129 165 210 246
#     4   9  16  26  43  65  85 107 137 171 204 241
#     4   8  13  21  36  60  87 111 133 161 199 239
#     4   8  13  21  36  61  88 108 128 159 200 243
#     4   9  16  26  42  62  82 106 136 168 200 238
#     4  10  20  31  42  58  82 111 140 172 211 249
#
# _framework density 18.430485000000001
#
# number of rings (size 3 to 8) (size 9 to 14) (size 15 to 20)
#    0.000    3.333    0.000    3.500    0.000    3.667 
#    0.000    0.000    0.000    5.500    0.000    7.000 
#    0.000    0.000    0.000    0.000    0.000    0.000 
#
# Total GULP energy -267420.950415 kJ/mol
# GULP energy per Si atom -5571.269800 kJ/mol
# Density = 1.838854 g / cm^3
# Si number density = 18.430485 Si / 1000 Ang^3
#
#
#
# Elastic Constant Matrix: (Units=GPa)
#
#
# Indices 1 2 3 4 5 6 
#
# 1 172.3893 107.8382 0.7995 0.0000 0.0000 0.0000
# 2 107.8382 156.6008 -8.7685 0.0000 0.0000 0.0000
# 3 0.7995 -8.7685 32.9800 0.0000 0.0000 0.0000
# 4 0.0000 0.0000 0.0000 -108.3050 0.0000 0.0000
# 5 0.0000 0.0000 0.0000 0.0000 6.7941 0.0000
# 6 0.0000 0.0000 0.0000 0.0000 0.0000 27.9876
#
#
#
# Elastic Compliance Matrix: (Units=1/GPa)
#
#
# Indices 1 2 3 4 5 6 
#
# 1 0.010342 -0.007244 -0.002177 0.000000 0.000000 0.000000
# 2 -0.007244 0.011556 0.003248 0.000000 0.000000 0.000000
# 3 -0.002177 0.003248 0.031238 0.000000 0.000000 0.000000
# 4 0.000000 0.000000 0.000000 -0.009233 0.000000 0.000000
# 5 0.000000 0.000000 0.000000 0.000000 0.147186 0.000000
# 6 0.000000 0.000000 0.000000 0.000000 0.000000 0.035730
#
#
# Mechanical properties :
#
#
# Convention : Reuss Voigt Hill
#
# Bulk Modulus (GPa) = 24.51533 62.41207 43.46370
# Shear Modulus (GPa) = 19.78159 2.76873 11.27516
#
# Velocity S-wave (km/s) = 3.27969 1.22699 2.47608
# Velocity P-wave (km/s) = 5.26044 5.99536 5.63988
#
# Compressibility (1/GPa) = 0.04079081
#
# Stress axis : x y z
#
# Youngs Moduli (GPa) = 96.69086 86.53749 32.01258
#
# Poissons Ratio (x) = 0.62685 0.06968
# Poissons Ratio (y) = 0.70040 -0.10397
# Poissons Ratio (z) = 0.21046 -0.28107
#
# Static dielectric constant tensor:
#      x y z
#    x 1.660030 0.000000 0.000000 
#    y 0.000000 1.657910 0.000000 
#    z 0.000000 0.000000 1.676920 
# 
# From -- ./inp_files/54603.got.cif
#   From: 2010.05.17/outbox.cif.g08.bks.cpg/sg63_28_cif.got.tgz:54603.got - 2010.06.03 15:47:04.
