data_PCOD9471643
_publ_section_title
;
Structure prediction by ZEFSAII (Michael W. Deem and Ramdas Pophale) SiO2 
 PCOD9471643
Probable space group: C M C M
;
_chemical_formula_sum "Si O2"
_cell_formula_units_Z 96
_cell_length_a 9.138980
_cell_length_b 25.586106
_cell_length_c 25.871335
_cell_angle_alpha 90.000000
_cell_angle_beta 90.000000
_cell_angle_gamma 90.000000
_cell_volume 6049.517832
_symmetry_space_group_name_H-M "C M C M"
_symmetry_group_IT_number 63
_symmetry_cell_setting 'orthorhombic'
loop_
_space_group_symop_operation_xyz
x,y,z
-x,-y,1/2+z
x,-y,-z
-x,y,1/2-z
-x,-y,-z
x,y,1/2-z
-x,y,z
x,-y,1/2+z
1/2+x,1/2+y,z
1/2-x,1/2-y,1/2+z
1/2+x,1/2-y,-z
1/2-x,1/2+y,1/2-z
1/2-x,1/2-y,-z
1/2+x,1/2+y,1/2-z
1/2-x,1/2+y,z
1/2+x,1/2-y,1/2+z
loop_
_atom_site_type_symbol
_atom_site_label
_atom_site_fract_x
_atom_site_fract_y
_atom_site_fract_z
Si Si1 0.325610 0.110692 0.189672
Si Si2 0.673612 0.688944 0.112297
Si Si3 0.675358 0.306880 0.003321
Si Si4 0.175166 0.687065 0.607193
Si Si5 0.832418 0.005037 0.187318
Si Si6 0.823731 0.112649 0.688933
O O1 0.282300 0.118065 0.250000
O O2 0.500000 0.111044 0.187122
O O3 0.259778 0.155677 0.154043
O O4 0.265156 0.054162 0.172185
O O5 0.500000 0.683719 0.121424
O O6 0.708137 0.750978 0.114410
O O7 0.703256 0.669599 0.053532
O O8 0.500000 0.302146 0.009500
O O9 0.747718 0.331527 0.054016
O O10 0.750000 0.250000 0.000000
O O11 0.239655 0.654265 0.654406
O O12 0.000000 0.682060 0.603085
O O13 0.833812 0.003745 0.250000
O O14 0.000000 0.013308 0.170255
O O15 0.784571 0.946703 0.172117
O O16 0.790964 0.118611 0.750000
O O17 0.000000 0.117854 0.683221
#
# Coordination Sequence:
#
# PCOD9471643 Si02
#       6
#    16  16  16  16  16  16
#     4  10  20  31  46  71  98 124 156 194 236 278
#     4   9  19  33  48  68  94 126 160 191 230 281
#     4   9  17  31  50  70  92 121 160 200 236 279
#     4  10  20  32  48  72  99 128 160 194 237 284
#     4   8  15  30  50  68  89 122 161 195 230 278
#     4   9  18  32  50  72  97 127 161 195 235 282
#
# _framework density 15.869033
#
# number of rings (size 3 to 8) (size 9 to 14) (size 15 to 20)
#    0.000    2.833    0.000    3.500    0.000    6.667 
#    0.000    5.000    0.000    1.000    0.000    7.000 
#    0.000    0.000    0.000    0.000    0.000    0.000 
#
# Total GULP energy -267293.706001 kJ/mol
# GULP energy per Si atom -5568.618875 kJ/mol
# Density = 1.583291 g / cm^3
# Si number density = 15.869033 Si / 1000 Ang^3
#
#
#
# Elastic Constant Matrix: (Units=GPa)
#
#
# Indices 1 2 3 4 5 6 
#
# 1 58.9259 53.2679 59.9012 0.0000 0.0000 0.0000
# 2 53.2679 87.9384 63.9515 0.0000 0.0000 0.0000
# 3 59.9012 63.9515 100.0633 0.0000 0.0000 0.0000
# 4 0.0000 0.0000 0.0000 -4.2817 0.0000 0.0000
# 5 0.0000 0.0000 0.0000 0.0000 29.3957 0.0000
# 6 0.0000 0.0000 0.0000 0.0000 0.0000 27.5295
#
#
#
# Elastic Compliance Matrix: (Units=1/GPa)
#
#
# Indices 1 2 3 4 5 6 
#
# 1 0.054655 -0.017401 -0.021598 0.000000 0.000000 0.000000
# 2 -0.017401 0.026786 -0.006703 0.000000 0.000000 0.000000
# 3 -0.021598 -0.006703 0.027207 0.000000 0.000000 0.000000
# 4 0.000000 0.000000 0.000000 -0.233551 0.000000 0.000000
# 5 0.000000 0.000000 0.000000 0.000000 0.034019 0.000000
# 6 0.000000 0.000000 0.000000 0.000000 0.000000 0.036325
#
#
# Mechanical properties :
#
#
# Convention : Reuss Voigt Hill
#
# Bulk Modulus (GPa) = 57.98382 66.79655 62.39018
# Shear Modulus (GPa) = 117.39290 15.18248 66.28769
#
# Velocity S-wave (km/s) = 8.61027 3.09647 6.47012
# Velocity P-wave (km/s) = 11.63904 7.41404 9.75795
#
# Compressibility (1/GPa) = 0.01724619
#
# Stress axis : x y z
#
# Youngs Moduli (GPa) = 18.29644 37.33234 36.75562
#
# Poissons Ratio (x) = 0.64960 0.79384
# Poissons Ratio (y) = 0.31837 0.24637
# Poissons Ratio (z) = 0.39516 0.25024
#
# Static dielectric constant tensor:
#      x y z
#    x 1.525770 0.000000 0.000000 
#    y 0.000000 1.522990 0.000000 
#    z 0.000000 0.000000 1.541860 
# 
# From -- ./inp_files/59883.got.cif
#   From: 2010.05.17/outbox.cif.g08.bks.cpg/sg63_30_cif.got.tgz:59883.got - 2010.06.03 15:47:04.
