data_PCOD9471178
_publ_section_title
;
Structure prediction by ZEFSAII (Michael W. Deem and Ramdas Pophale) SiO2 
 PCOD9471178
Probable space group: C M C M
;
_chemical_formula_sum "Si O2"
_cell_formula_units_Z 112
_cell_length_a 13.244861
_cell_length_b 23.832980
_cell_length_c 20.815672
_cell_angle_alpha 90.000000
_cell_angle_beta 90.000000
_cell_angle_gamma 90.000000
_cell_volume 6570.768846
_symmetry_space_group_name_H-M "C M C M"
_symmetry_group_IT_number 63
_symmetry_cell_setting 'orthorhombic'
loop_
_space_group_symop_operation_xyz
x,y,z
-x,-y,1/2+z
x,-y,-z
-x,y,1/2-z
-x,-y,-z
x,y,1/2-z
-x,y,z
x,-y,1/2+z
1/2+x,1/2+y,z
1/2-x,1/2-y,1/2+z
1/2+x,1/2-y,-z
1/2-x,1/2+y,1/2-z
1/2-x,1/2-y,-z
1/2+x,1/2+y,1/2-z
1/2-x,1/2+y,z
1/2+x,1/2-y,1/2+z
loop_
_atom_site_type_symbol
_atom_site_label
_atom_site_fract_x
_atom_site_fract_y
_atom_site_fract_z
Si Si1 0.269338 0.246693 0.899981
Si Si2 0.111982 0.447040 0.827765
Si Si3 0.115809 0.348429 0.324535
Si Si4 0.236022 0.045210 0.825722
Si Si5 0.879200 0.946868 0.042482
Si Si6 0.878116 0.819983 0.003762
Si Si7 0.112630 0.680687 0.173089
O O1 0.341184 0.200729 0.868262
O O2 0.187201 0.214009 0.943682
O O3 0.201088 0.279763 0.849542
O O4 0.336573 0.291572 0.938842
O O5 0.108261 0.445852 0.750000
O O6 0.199948 0.489851 0.842915
O O7 0.128834 0.383333 0.849757
O O8 0.000000 0.465336 0.849679
O O9 0.118717 0.330336 0.250000
O O10 0.187012 0.402603 0.329544
O O11 0.000000 0.362457 0.340532
O O12 0.201729 0.041904 0.750000
O O13 0.156691 0.052022 0.883291
O O14 0.853407 0.886146 0.011670
O O15 0.000000 0.950314 0.042670
O O16 0.841219 0.000000 0.000000
O O17 0.000000 0.813342 0.010029
O O18 0.110586 0.679648 0.250000
O O19 0.000000 0.698484 0.151092
#
# Coordination Sequence:
#
# PCOD9471178 Si02
#       7
#    16  16  16  16  16  16  16
#     4  11  20  34  56  78 104 144 181 221 260 323
#     4   8  15  29  50  77 107 136 166 207 263 321
#     4  10  20  34  54  83 115 143 176 222 275 327
#     4  10  19  34  59  85 107 138 181 226 275 329
#     4  10  22  40  59  78 107 144 182 227 278 328
#     4  10  22  38  54  75 103 141 184 222 265 320
#     4   9  18  32  52  80 110 138 173 218 269 323
#
# _framework density 17.045190000000002
#
# number of rings (size 3 to 8) (size 9 to 14) (size 15 to 20)
#    0.000    2.286    1.429    2.571    2.000    2.000 
#    0.000    0.000    0.000    1.714    0.000    0.000 
#    0.000    0.000    0.000    0.000    0.000    0.000 
#
# Total GULP energy -311888.921388 kJ/mol
# GULP energy per Si atom -5569.445025 kJ/mol
# Density = 1.700639 g / cm^3
# Si number density = 17.045190 Si / 1000 Ang^3
#
#
#
# Elastic Constant Matrix: (Units=GPa)
#
#
# Indices 1 2 3 4 5 6 
#
# 1 45.4819 30.8341 26.3554 0.0000 0.0000 0.0000
# 2 30.8341 71.4348 30.6797 0.0000 0.0000 0.0000
# 3 26.3554 30.6797 57.7049 0.0000 0.0000 0.0000
# 4 0.0000 0.0000 0.0000 13.9731 0.0000 0.0000
# 5 0.0000 0.0000 0.0000 0.0000 20.7600 0.0000
# 6 0.0000 0.0000 0.0000 0.0000 0.0000 26.4457
#
#
#
# Elastic Compliance Matrix: (Units=1/GPa)
#
#
# Indices 1 2 3 4 5 6 
#
# 1 0.035322 -0.010779 -0.010402 0.000000 0.000000 0.000000
# 2 -0.010779 0.021431 -0.006471 0.000000 0.000000 0.000000
# 3 -0.010402 -0.006471 0.025520 0.000000 0.000000 0.000000
# 4 0.000000 0.000000 0.000000 0.071566 0.000000 0.000000
# 5 0.000000 0.000000 0.000000 0.000000 0.048170 0.000000
# 6 0.000000 0.000000 0.000000 0.000000 0.000000 0.037813
#
#
# Mechanical properties :
#
#
# Convention : Reuss Voigt Hill
#
# Bulk Modulus (GPa) = 37.07824 38.92891 38.00357
# Shear Modulus (GPa) = 16.44120 18.01927 17.23023
#
# Velocity S-wave (km/s) = 3.10911 3.25491 3.18285
# Velocity P-wave (km/s) = 5.88973 6.08392 5.98761
#
# Compressibility (1/GPa) = 0.02697000
#
# Stress axis : x y z
#
# Youngs Moduli (GPa) = 28.31122 46.66245 39.18419
#
# Poissons Ratio (x) = 0.50298 0.40758
# Poissons Ratio (y) = 0.30517 0.25355
# Poissons Ratio (z) = 0.29448 0.30194
#
# Static dielectric constant tensor:
#      x y z
#    x 1.563880 0.000000 0.000000 
#    y 0.000000 1.578720 0.000000 
#    z 0.000000 0.000000 1.574220 
# 
# From -- ./inp_files/53140.got.cif
#   From: 2010.05.17/outbox.cif.g08.bks.cpg/sg63_27_cif.got.tgz:53140.got - 2010.06.03 15:47:04.
