data_PCOD9471375
_publ_section_title
;
Structure prediction by ZEFSAII (Michael W. Deem and Ramdas Pophale) SiO2 
 PCOD9471375
Probable space group: C M C M
;
_chemical_formula_sum "Si O2"
_cell_formula_units_Z 116
_cell_length_a 18.713541
_cell_length_b 17.548324
_cell_length_c 19.035939
_cell_angle_alpha 90.000000
_cell_angle_beta 90.000000
_cell_angle_gamma 90.000000
_cell_volume 6251.236387
_symmetry_space_group_name_H-M "C M C M"
_symmetry_group_IT_number 63
_symmetry_cell_setting 'orthorhombic'
loop_
_space_group_symop_operation_xyz
x,y,z
-x,-y,1/2+z
x,-y,-z
-x,y,1/2-z
-x,-y,-z
x,y,1/2-z
-x,y,z
x,-y,1/2+z
1/2+x,1/2+y,z
1/2-x,1/2-y,1/2+z
1/2+x,1/2-y,-z
1/2-x,1/2+y,1/2-z
1/2-x,1/2-y,-z
1/2+x,1/2+y,1/2-z
1/2-x,1/2+y,z
1/2+x,1/2-y,1/2+z
loop_
_atom_site_type_symbol
_atom_site_label
_atom_site_fract_x
_atom_site_fract_y
_atom_site_fract_z
Si Si1 0.836022 0.538457 0.928674
Si Si2 0.580711 0.347145 0.550985
Si Si3 0.630253 0.452404 0.831185
Si Si4 0.000000 0.708925 0.750000
Si Si5 0.296919 0.904298 0.669541
Si Si6 0.671773 0.592485 0.576029
Si Si7 0.783661 0.233422 0.833224
Si Si8 0.879911 0.300429 0.126992
O O1 0.835282 0.471009 0.872002
O O2 0.752732 0.563956 0.938176
O O3 0.876399 0.613548 0.902427
O O4 0.862316 0.500000 0.000000
O O5 0.500000 0.351024 0.524570
O O6 0.586169 0.390055 0.625894
O O7 0.632735 0.389340 0.496691
O O8 0.603120 0.260544 0.566070
O O9 0.608187 0.462177 0.750000
O O10 0.712348 0.423290 0.830917
O O11 0.631890 0.529512 0.876724
O O12 0.062409 0.707652 0.688225
O O13 0.320846 0.905037 0.750000
O O14 0.304090 0.818348 0.642068
O O15 0.677693 0.669028 0.621810
O O16 0.798491 0.226472 0.750000
O O17 0.699009 0.220400 0.844280
#
# Coordination Sequence:
#
# PCOD9471375 Si02
#       8
#    16  16  16   4  16  16  16  16
#     4  10  22  37  59  91 122 151 195 245 308 355
#     4  12  25  39  57  84 119 164 203 237 296 358
#     4  10  20  36  57  82 118 155 195 246 295 346
#     4  12  24  44  62  88 126 152 202 244 292 358
#     4   9  18  32  55  87 120 149 188 247 301 353
#     4  10  22  37  59  87 128 155 194 246 302 359
#     4  10  19  35  63  94 117 150 197 250 303 350
#     4  11  24  37  64  87 122 158 195 245 299 354
#
# _framework density 18.556329000000002
#
# number of rings (size 3 to 8) (size 9 to 14) (size 15 to 20)
#    0.000    1.655    2.759    2.483    3.862    4.138 
#    0.000    0.345    0.000    1.241    0.000    0.000 
#    0.000    0.000    0.000    0.000    0.000    0.000 
#
# Total GULP energy -323359.772191 kJ/mol
# GULP energy per Si atom -5575.168486 kJ/mol
# Density = 1.851409 g / cm^3
# Si number density = 18.556329 Si / 1000 Ang^3
#
#
#
# Elastic Constant Matrix: (Units=GPa)
#
#
# Indices 1 2 3 4 5 6 
#
# 1 27.8531 14.4622 13.2653 0.0000 0.0000 0.0000
# 2 14.4622 152.1553 50.0666 0.0000 0.0000 0.0000
# 3 13.2653 50.0666 81.4302 0.0000 0.0000 0.0000
# 4 0.0000 0.0000 0.0000 28.1922 0.0000 0.0000
# 5 0.0000 0.0000 0.0000 0.0000 4.6991 0.0000
# 6 0.0000 0.0000 0.0000 0.0000 0.0000 -4.5488
#
#
#
# Elastic Compliance Matrix: (Units=1/GPa)
#
#
# Indices 1 2 3 4 5 6 
#
# 1 0.039425 -0.002048 -0.005163 0.000000 0.000000 0.000000
# 2 -0.002048 0.008346 -0.004797 0.000000 0.000000 0.000000
# 3 -0.005163 -0.004797 0.016071 0.000000 0.000000 0.000000
# 4 0.000000 0.000000 0.000000 0.035471 0.000000 0.000000
# 5 0.000000 0.000000 0.000000 0.000000 0.212806 0.000000
# 6 0.000000 0.000000 0.000000 0.000000 0.000000 -0.219836
#
#
# Mechanical properties :
#
#
# Convention : Reuss Voigt Hill
#
# Bulk Modulus (GPa) = 25.11043 46.33630 35.72337
# Shear Modulus (GPa) = 38.58766 17.91147 28.24956
#
# Velocity S-wave (km/s) = 4.56509 3.11022 3.90599
# Velocity P-wave (km/s) = 6.43025 6.15814 6.29567
#
# Compressibility (1/GPa) = 0.03982409
#
# Stress axis : x y z
#
# Youngs Moduli (GPa) = 25.36443 119.82443 62.22296
#
# Poissons Ratio (x) = 0.24545 0.32126
# Poissons Ratio (y) = 0.05196 0.29851
# Poissons Ratio (z) = 0.13096 0.57486
#
# Static dielectric constant tensor:
#      x y z
#    x 1.614650 0.000000 0.000000 
#    y 0.000000 1.651480 0.000000 
#    z 0.000000 0.000000 1.633190 
# 
# From -- ./inp_files/45890.got.cif
#   From: 2010.05.17/outbox.cif.g08.bks.cpg/sg63_23_cif.got.tgz:45890.got - 2010.06.03 15:47:04.
