data_PCOD9471434
_publ_section_title
;
Structure prediction by ZEFSAII (Michael W. Deem and Ramdas Pophale) SiO2 
 PCOD9471434
Probable space group: C M C M
;
_chemical_formula_sum "Si O2"
_cell_formula_units_Z 88
_cell_length_a 17.244649
_cell_length_b 29.599889
_cell_length_c 7.927354
_cell_angle_alpha 90.000000
_cell_angle_beta 90.000000
_cell_angle_gamma 90.000000
_cell_volume 4046.436168
_symmetry_space_group_name_H-M "C M C M"
_symmetry_group_IT_number 63
_symmetry_cell_setting 'orthorhombic'
loop_
_space_group_symop_operation_xyz
x,y,z
-x,-y,1/2+z
x,-y,-z
-x,y,1/2-z
-x,-y,-z
x,y,1/2-z
-x,y,z
x,-y,1/2+z
1/2+x,1/2+y,z
1/2-x,1/2-y,1/2+z
1/2+x,1/2-y,-z
1/2-x,1/2+y,1/2-z
1/2-x,1/2-y,-z
1/2+x,1/2+y,1/2-z
1/2-x,1/2+y,z
1/2+x,1/2-y,1/2+z
loop_
_atom_site_type_symbol
_atom_site_label
_atom_site_fract_x
_atom_site_fract_y
_atom_site_fract_z
Si Si1 0.413590 0.314439 0.456365
Si Si2 0.500000 0.552175 0.450596
Si Si3 0.168928 0.273028 0.950895
Si Si4 0.660987 0.402337 0.049576
Si Si5 0.413050 0.136814 0.548249
Si Si6 0.317400 0.051696 0.953709
O O1 0.412445 0.315064 0.250000
O O2 0.500000 0.327661 0.509871
O O3 0.393943 0.263968 0.510689
O O4 0.351255 0.351343 0.516461
O O5 0.500000 0.500000 0.500000
O O6 0.500000 0.557337 0.250000
O O7 0.421320 0.573841 0.521063
O O8 0.166195 0.275396 0.750000
O O9 0.250000 0.250000 0.000000
O O10 0.146472 0.322369 0.015002
O O11 0.673707 0.398466 0.250000
O O12 0.733071 0.431040 0.982396
O O13 0.418438 0.133174 0.750000
O O14 0.500000 0.146300 0.482003
O O15 0.379006 0.089088 0.485681
O O16 0.316675 0.053207 0.750000
O O17 0.332459 0.000000 0.000000
#
# Coordination Sequence:
#
# PCOD9471434 Si02
#       6
#    16   8  16  16  16  16
#     4   9  17  32  57  83 110 149 194 234 278 343
#     4  12  24  36  52  78 112 150 196 246 297 352
#     4  11  22  37  60  91 124 160 202 245 297 361
#     4  10  19  36  59  81 111 152 197 240 293 355
#     4  10  22  42  65  90 123 161 203 254 311 368
#     4  10  22  39  61  88 117 155 201 251 309 370
#
# _framework density 21.747534000000002
#
# number of rings (size 3 to 8) (size 9 to 14) (size 15 to 20)
#    0.000    1.818    0.909    3.545    0.000    7.273 
#    0.000    3.636    0.000    0.000    0.000    0.000 
#    0.000    0.000    0.000    0.000    0.000    0.000 
#
# Total GULP energy -245750.271190 kJ/mol
# GULP energy per Si atom -5585.233436 kJ/mol
# Density = 2.169804 g / cm^3
# Si number density = 21.747534 Si / 1000 Ang^3
#
#
#
# Elastic Constant Matrix: (Units=GPa)
#
#
# Indices 1 2 3 4 5 6 
#
# 1 114.9061 59.6900 4.1978 0.0000 0.0000 0.0000
# 2 59.6900 179.8501 7.0149 0.0000 0.0000 0.0000
# 3 4.1978 7.0149 23.8091 0.0000 0.0000 0.0000
# 4 0.0000 0.0000 0.0000 21.7706 0.0000 0.0000
# 5 0.0000 0.0000 0.0000 0.0000 8.4059 0.0000
# 6 0.0000 0.0000 0.0000 0.0000 0.0000 -6.4744
#
#
#
# Elastic Compliance Matrix: (Units=1/GPa)
#
#
# Indices 1 2 3 4 5 6 
#
# 1 0.010532 -0.003463 -0.000837 0.000000 0.000000 0.000000
# 2 -0.003463 0.006763 -0.001382 0.000000 0.000000 0.000000
# 3 -0.000837 -0.001382 0.042555 0.000000 0.000000 0.000000
# 4 0.000000 0.000000 0.000000 0.045934 0.000000 0.000000
# 5 0.000000 0.000000 0.000000 0.000000 0.118963 0.000000
# 6 0.000000 0.000000 0.000000 0.000000 0.000000 -0.154455
#
#
# Mechanical properties :
#
#
# Convention : Reuss Voigt Hill
#
# Bulk Modulus (GPa) = 20.62383 51.15233 35.88808
# Shear Modulus (GPa) = 51.11462 21.25125 36.18294
#
# Velocity S-wave (km/s) = 4.85331 3.12938 4.08336
# Velocity P-wave (km/s) = 6.39610 6.05222 6.22654
#
# Compressibility (1/GPa) = 0.04848761
#
# Stress axis : x y z
#
# Youngs Moduli (GPa) = 94.94721 147.85508 23.49874
#
# Poissons Ratio (x) = 0.51200 0.01966
# Poissons Ratio (y) = 0.32879 0.03248
# Poissons Ratio (z) = 0.07944 0.20436
#
# Static dielectric constant tensor:
#      x y z
#    x 1.754420 0.000000 0.000000 
#    y 0.000000 1.740870 0.000000 
#    z 0.000000 0.000000 1.781410 
# 
# From -- ./inp_files/6884.got.cif
#   From: 2010.05.17/outbox.cif.g08.bks.cpg/sg63_4_cif.got.tgz:6884.got - 2010.06.03 15:47:04.
