data_PCOD9471970
_publ_section_title
;
Structure prediction by ZEFSAII (Michael W. Deem and Ramdas Pophale) SiO2 
 PCOD9471970
Probable space group: C M C M
;
_chemical_formula_sum "Si O2"
_cell_formula_units_Z 112
_cell_length_a 14.170336
_cell_length_b 15.385425
_cell_length_c 29.295330
_cell_angle_alpha 90.000000
_cell_angle_beta 90.000000
_cell_angle_gamma 90.000000
_cell_volume 6386.869466
_symmetry_space_group_name_H-M "C M C M"
_symmetry_group_IT_number 63
_symmetry_cell_setting 'orthorhombic'
loop_
_space_group_symop_operation_xyz
x,y,z
-x,-y,1/2+z
x,-y,-z
-x,y,1/2-z
-x,-y,-z
x,y,1/2-z
-x,y,z
x,-y,1/2+z
1/2+x,1/2+y,z
1/2-x,1/2-y,1/2+z
1/2+x,1/2-y,-z
1/2-x,1/2+y,1/2-z
1/2-x,1/2-y,-z
1/2+x,1/2+y,1/2-z
1/2-x,1/2+y,z
1/2+x,1/2-y,1/2+z
loop_
_atom_site_type_symbol
_atom_site_label
_atom_site_fract_x
_atom_site_fract_y
_atom_site_fract_z
Si Si1 0.386667 0.564592 0.565075
Si Si2 0.794641 0.457200 0.697857
Si Si3 0.889018 0.722553 0.305256
Si Si4 0.734471 0.373104 0.353522
Si Si5 0.604621 0.352226 0.800538
Si Si6 0.114273 0.125724 0.030161
Si Si7 0.390739 0.760813 0.392769
O O1 0.500000 0.566533 0.567324
O O2 0.343985 0.587636 0.613267
O O3 0.357381 0.467295 0.550824
O O4 0.356463 0.626702 0.522818
O O5 0.825963 0.470023 0.750000
O O6 0.855806 0.374850 0.679602
O O7 0.785605 0.550600 0.674658
O O8 0.687871 0.420762 0.697354
O O9 0.880555 0.724821 0.250000
O O10 0.818495 0.796087 0.325356
O O11 0.000000 0.736966 0.316787
O O12 0.815938 0.335424 0.385758
O O13 0.612940 0.308531 0.750000
O O14 0.500000 0.392473 0.802326
O O15 0.611526 0.290902 0.844408
O O16 0.141263 0.200302 0.065308
O O17 0.000000 0.125624 0.029932
O O18 0.500000 0.786795 0.400108
#
# Coordination Sequence:
#
# PCOD9471970 Si02
#       7
#    16  16  16  16  16  16  16
#     4   9  18  32  54  83 108 133 172 225 280 335
#     4  10  21  36  53  76 109 147 183 220 270 332
#     4  10  22  40  57  77 113 154 186 225 279 334
#     4  12  22  32  56  85 107 141 190 235 269 324
#     4   9  17  31  52  76 102 132 168 218 274 318
#     4   8  16  34  55  75 106 140 171 219 282 335
#     4  10  20  33  51  75 106 141 176 219 269 318
#
# _framework density 17.535978
#
# number of rings (size 3 to 8) (size 9 to 14) (size 15 to 20)
#    0.000    2.286    1.429    2.571    0.000    4.000 
#    0.000    1.429    0.000    0.000    0.000    2.000 
#    0.000    0.000    0.000    0.000    0.000    0.000 
#
# Total GULP energy -311748.697400 kJ/mol
# GULP energy per Si atom -5566.941025 kJ/mol
# Density = 1.749607 g / cm^3
# Si number density = 17.535978 Si / 1000 Ang^3
#
#
#
# Elastic Constant Matrix: (Units=GPa)
#
#
# Indices 1 2 3 4 5 6 
#
# 1 43.9006 14.7197 -2.5728 0.0000 0.0000 0.0000
# 2 14.7197 67.6197 20.7992 0.0000 0.0000 0.0000
# 3 -2.5728 20.7992 44.7988 0.0000 0.0000 0.0000
# 4 0.0000 0.0000 0.0000 -20.6198 0.0000 0.0000
# 5 0.0000 0.0000 0.0000 0.0000 17.9937 0.0000
# 6 0.0000 0.0000 0.0000 0.0000 0.0000 15.0298
#
#
#
# Elastic Compliance Matrix: (Units=1/GPa)
#
#
# Indices 1 2 3 4 5 6 
#
# 1 0.025391 -0.006971 0.004695 0.000000 0.000000 0.000000
# 2 -0.006971 0.019166 -0.009299 0.000000 0.000000 0.000000
# 3 0.004695 -0.009299 0.026909 0.000000 0.000000 0.000000
# 4 0.000000 0.000000 0.000000 -0.048497 0.000000 0.000000
# 5 0.000000 0.000000 0.000000 0.000000 0.055575 0.000000
# 6 0.000000 0.000000 0.000000 0.000000 0.000000 0.066534
#
#
# Mechanical properties :
#
#
# Convention : Reuss Voigt Hill
#
# Bulk Modulus (GPa) = 20.69714 24.69014 22.69364
# Shear Modulus (GPa) = 27.12452 10.70562 18.91507
#
# Velocity S-wave (km/s) = 3.93719 2.47350 3.28783
# Velocity P-wave (km/s) = 5.70061 4.71888 5.23282
#
# Compressibility (1/GPa) = 0.04831586
#
# Stress axis : x y z
#
# Youngs Moduli (GPa) = 39.38352 52.17455 37.16232
#
# Poissons Ratio (x) = 0.36373 -0.17447
# Poissons Ratio (y) = 0.27456 0.34557
# Poissons Ratio (z) = -0.18490 0.48517
#
# Static dielectric constant tensor:
#      x y z
#    x 1.605280 0.000000 0.000000 
#    y 0.000000 1.613070 0.000000 
#    z 0.000000 0.000000 1.618250 
# 
# From -- ./inp_files/73415.got.cif
#   From: 2010.05.17/outbox.cif.g08.bks.cpg/sg63_37_cif.got.tgz:73415.got - 2010.06.03 15:47:04.
