data_PCOD9471604
_publ_section_title
;
Structure prediction by ZEFSAII (Michael W. Deem and Ramdas Pophale) SiO2 
 PCOD9471604
Probable space group: C M C M
;
_chemical_formula_sum "Si O2"
_cell_formula_units_Z 104
_cell_length_a 8.803652
_cell_length_b 18.620054
_cell_length_c 25.738168
_cell_angle_alpha 90.000000
_cell_angle_beta 90.000000
_cell_angle_gamma 90.000000
_cell_volume 4219.115693
_symmetry_space_group_name_H-M "C M C M"
_symmetry_group_IT_number 63
_symmetry_cell_setting 'orthorhombic'
loop_
_space_group_symop_operation_xyz
x,y,z
-x,-y,1/2+z
x,-y,-z
-x,y,1/2-z
-x,-y,-z
x,y,1/2-z
-x,y,z
x,-y,1/2+z
1/2+x,1/2+y,z
1/2-x,1/2-y,1/2+z
1/2+x,1/2-y,-z
1/2-x,1/2+y,1/2-z
1/2-x,1/2-y,-z
1/2+x,1/2+y,1/2-z
1/2-x,1/2+y,z
1/2+x,1/2-y,1/2+z
loop_
_atom_site_type_symbol
_atom_site_label
_atom_site_fract_x
_atom_site_fract_y
_atom_site_fract_z
Si Si1 0.000000 0.351909 0.687615
Si Si2 0.177599 0.914385 0.951958
Si Si3 0.331550 0.618561 0.927808
Si Si4 0.000000 0.524030 0.669598
Si Si5 0.169969 0.248689 0.055661
Si Si6 0.500000 0.983308 0.560937
Si Si7 0.333093 0.477764 0.171676
Si Si8 0.332841 0.649545 0.313195
O O1 0.834943 0.321518 0.670657
O O2 0.000000 0.347891 0.750000
O O3 0.000000 0.436810 0.673698
O O4 0.173411 0.833998 0.928657
O O5 0.337625 0.944494 0.931392
O O6 0.000000 0.941352 0.946013
O O7 0.205074 0.910976 0.014709
O O8 0.500000 0.648349 0.934439
O O9 0.236419 0.687249 0.910699
O O10 0.334130 0.556879 0.885424
O O11 0.165382 0.545248 0.692022
O O12 0.000000 0.541764 0.607496
O O13 0.000000 0.269978 0.045036
O O14 0.250000 0.250000 0.000000
O O15 0.500000 0.000000 0.500000
O O16 0.500000 0.456491 0.193858
O O17 0.334759 0.564469 0.172366
O O18 0.332145 0.651791 0.250000
O O19 0.500000 0.680302 0.328760
#
# Coordination Sequence:
#
# PCOD9471604 Si02
#       8
#     8  16  16   8  16   8  16  16
#     4   8  14  26  42  58  80 104 134 182 218 244
#     4   9  20  34  44  59  83 109 144 180 210 250
#     4   9  17  27  43  64  83 109 139 174 218 247
#     4  10  20  30  42  64  84 116 156 170 206 257
#     4   9  17  27  44  64  79 103 134 174 222 250
#     4  12  24  32  46  62  82 122 152 172 210 247
#     4   9  17  28  41  60  89 113 139 178 207 242
#     4   8  13  22  37  56  79 111 140 160 198 250
#
# _framework density 24.649715
#
# number of rings (size 3 to 8) (size 9 to 14) (size 15 to 20)
#    0.000    2.923    0.000    2.308    6.462    0.923 
#    0.000    0.000    0.000    0.000    0.000    0.000 
#    0.000    1.231    0.000    3.385    0.000    1.231 
#
# Total GULP energy -289788.389883 kJ/mol
# GULP energy per Si atom -5572.853652 kJ/mol
# Density = 2.459361 g / cm^3
# Si number density = 24.649715 Si / 1000 Ang^3
#
#
#
# Elastic Constant Matrix: (Units=GPa)
#
#
# Indices 1 2 3 4 5 6 
#
# 1 276.7968 38.6949 42.5228 0.0000 0.0000 0.0000
# 2 38.6949 42.3216 9.8509 0.0000 0.0000 0.0000
# 3 42.5228 9.8509 99.9480 0.0000 0.0000 0.0000
# 4 0.0000 0.0000 0.0000 -2.7200 0.0000 0.0000
# 5 0.0000 0.0000 0.0000 0.0000 10.9533 0.0000
# 6 0.0000 0.0000 0.0000 0.0000 0.0000 30.9224
#
#
#
# Elastic Compliance Matrix: (Units=1/GPa)
#
#
# Indices 1 2 3 4 5 6 
#
# 1 0.004349 -0.003629 -0.001493 0.000000 0.000000 0.000000
# 2 -0.003629 0.027212 -0.001138 0.000000 0.000000 0.000000
# 3 -0.001493 -0.001138 0.010752 0.000000 0.000000 0.000000
# 4 0.000000 0.000000 0.000000 -0.367645 0.000000 0.000000
# 5 0.000000 0.000000 0.000000 0.000000 0.091296 0.000000
# 6 0.000000 0.000000 0.000000 0.000000 0.000000 0.032339
#
#
# Mechanical properties :
#
#
# Convention : Reuss Voigt Hill
#
# Bulk Modulus (GPa) = 33.56411 66.80040 50.18226
# Shear Modulus (GPa) = -27.89488 29.69766 0.90139
#
# Velocity S-wave (km/s) = -3.36765 3.47477 0.60537
# Velocity P-wave (km/s) = 1.21468 6.57704 4.57066
#
# Compressibility (1/GPa) = 0.02979373
#
# Stress axis : x y z
#
# Youngs Moduli (GPa) = 229.91467 36.74883 93.00198
#
# Poissons Ratio (x) = 0.13337 0.13883
# Poissons Ratio (y) = 0.83442 0.10583
# Poissons Ratio (z) = 0.34321 0.04182
#
# Static dielectric constant tensor:
#      x y z
#    x 2.014930 0.000000 0.000000 
#    y 0.000000 1.582740 0.000000 
#    z 0.000000 0.000000 1.963050 
# 
# From -- ./inp_files/72027.got.cif
#   From: 2010.05.17/outbox.cif.g08.bks.cpg/sg63_37_cif.got.tgz:72027.got - 2010.06.03 15:47:04.
