data_PCOD9471217
_publ_section_title
;
Structure prediction by ZEFSAII (Michael W. Deem and Ramdas Pophale) SiO2 
 PCOD9471217
Probable space group: C M C M
;
_chemical_formula_sum "Si O2"
_cell_formula_units_Z 96
_cell_length_a 26.150076
_cell_length_b 8.345663
_cell_length_c 24.522037
_cell_angle_alpha 90.000000
_cell_angle_beta 90.000000
_cell_angle_gamma 90.000000
_cell_volume 5351.682531
_symmetry_space_group_name_H-M "C M C M"
_symmetry_group_IT_number 63
_symmetry_cell_setting 'orthorhombic'
loop_
_space_group_symop_operation_xyz
x,y,z
-x,-y,1/2+z
x,-y,-z
-x,y,1/2-z
-x,-y,-z
x,y,1/2-z
-x,y,z
x,-y,1/2+z
1/2+x,1/2+y,z
1/2-x,1/2-y,1/2+z
1/2+x,1/2-y,-z
1/2-x,1/2+y,1/2-z
1/2-x,1/2-y,-z
1/2+x,1/2+y,1/2-z
1/2-x,1/2+y,z
1/2+x,1/2-y,1/2+z
loop_
_atom_site_type_symbol
_atom_site_label
_atom_site_fract_x
_atom_site_fract_y
_atom_site_fract_z
Si Si1 0.319807 0.376458 0.931410
Si Si2 0.614242 0.822453 0.988105
Si Si3 0.808536 0.277357 0.813020
Si Si4 0.500000 0.463652 0.404077
Si Si5 0.500000 0.258124 0.983425
Si Si6 0.891923 0.137097 0.623087
Si Si7 0.732422 0.933346 0.117913
O O1 0.349585 0.313536 0.984739
O O2 0.360280 0.482802 0.898040
O O3 0.301988 0.211270 0.903353
O O4 0.268252 0.485813 0.929071
O O5 0.556259 0.821535 0.012639
O O6 0.611052 0.770088 0.925215
O O7 0.635273 0.000000 0.000000
O O8 0.798986 0.310833 0.750000
O O9 0.864774 0.209212 0.824442
O O10 0.770308 0.143603 0.837217
O O11 0.798954 0.429843 0.851524
O O12 0.500000 0.642740 0.427376
O O13 0.500000 0.365563 0.461449
O O14 0.449753 0.417185 0.371824
#
# Coordination Sequence:
#
# PCOD9471217 Si02
#       7
#    16  16  16   8   8  16  16
#     4  10  19  35  52  73 105 139 172 212 259 313
#     4  11  20  32  51  78 110 138 173 213 258 316
#     4  10  19  35  55  77 101 132 172 217 260 301
#     4   9  16  32  53  76 103 133 173 210 251 307
#     4   9  17  30  52  76 103 139 170 206 255 303
#     4  10  20  34  54  77 104 136 174 212 259 309
#     4   9  20  35  53  76 103 135 177 214 258 309
#
# _framework density 17.938283999999999
#
# number of rings (size 3 to 8) (size 9 to 14) (size 15 to 20)
#    0.000    2.167    1.667    2.250    0.000    0.000 
#    0.000   22.083    0.000    0.000    0.000    0.000 
#    0.000    0.000    0.000    0.000    0.000    0.000 
#
# Total GULP energy -267460.511611 kJ/mol
# GULP energy per Si atom -5572.093992 kJ/mol
# Density = 1.789746 g / cm^3
# Si number density = 17.938284 Si / 1000 Ang^3
#
#
#
# Elastic Constant Matrix: (Units=GPa)
#
#
# Indices 1 2 3 4 5 6 
#
# 1 90.5119 29.9115 24.4646 0.0000 0.0000 0.0000
# 2 29.9115 90.4164 2.3966 0.0000 0.0000 0.0000
# 3 24.4646 2.3966 33.3767 0.0000 0.0000 0.0000
# 4 0.0000 0.0000 0.0000 10.1875 0.0000 0.0000
# 5 0.0000 0.0000 0.0000 0.0000 18.3207 0.0000
# 6 0.0000 0.0000 0.0000 0.0000 0.0000 21.4493
#
#
#
# Elastic Compliance Matrix: (Units=1/GPa)
#
#
# Indices 1 2 3 4 5 6 
#
# 1 0.015675 -0.004890 -0.011138 0.000000 0.000000 0.000000
# 2 -0.004890 0.012607 0.002679 0.000000 0.000000 0.000000
# 3 -0.011138 0.002679 0.037933 0.000000 0.000000 0.000000
# 4 0.000000 0.000000 0.000000 0.098160 0.000000 0.000000
# 5 0.000000 0.000000 0.000000 0.000000 0.054583 0.000000
# 6 0.000000 0.000000 0.000000 0.000000 0.000000 0.046622
#
#
# Mechanical properties :
#
#
# Convention : Reuss Voigt Hill
#
# Bulk Modulus (GPa) = 25.30630 36.42782 30.86706
# Shear Modulus (GPa) = 16.36931 20.49365 18.43148
#
# Velocity S-wave (km/s) = 3.02410 3.38369 3.20893
# Velocity P-wave (km/s) = 5.13143 5.96801 5.56546
#
# Compressibility (1/GPa) = 0.03951586
#
# Stress axis : x y z
#
# Youngs Moduli (GPa) = 63.79578 79.32255 26.36231
#
# Poissons Ratio (x) = 0.38792 0.29363
# Poissons Ratio (y) = 0.31198 -0.07063
# Poissons Ratio (z) = 0.71058 -0.21253
#
# Static dielectric constant tensor:
#      x y z
#    x 1.641450 0.000000 0.000000 
#    y 0.000000 1.626450 0.000000 
#    z 0.000000 0.000000 1.575380 
# 
# From -- ./inp_files/65033.got.cif
#   From: 2010.05.17/outbox.cif.g08.bks.cpg/sg63_33_cif.got.tgz:65033.got - 2010.06.03 15:47:04.
