data_PCOD9471174
_publ_section_title
;
Structure prediction by ZEFSAII (Michael W. Deem and Ramdas Pophale) SiO2 
 PCOD9471174
Probable space group: C M C M
;
_chemical_formula_sum "Si O2"
_cell_formula_units_Z 120
_cell_length_a 14.204492
_cell_length_b 20.104422
_cell_length_c 21.511921
_cell_angle_alpha 90.000000
_cell_angle_beta 90.000000
_cell_angle_gamma 90.000000
_cell_volume 6143.225998
_symmetry_space_group_name_H-M "C M C M"
_symmetry_group_IT_number 63
_symmetry_cell_setting 'orthorhombic'
loop_
_space_group_symop_operation_xyz
x,y,z
-x,-y,1/2+z
x,-y,-z
-x,y,1/2-z
-x,-y,-z
x,y,1/2-z
-x,y,z
x,-y,1/2+z
1/2+x,1/2+y,z
1/2-x,1/2-y,1/2+z
1/2+x,1/2-y,-z
1/2-x,1/2+y,1/2-z
1/2-x,1/2-y,-z
1/2+x,1/2+y,1/2-z
1/2-x,1/2+y,z
1/2+x,1/2-y,1/2+z
loop_
_atom_site_type_symbol
_atom_site_label
_atom_site_fract_x
_atom_site_fract_y
_atom_site_fract_z
Si Si1 0.111733 0.589738 0.540535
Si Si2 0.889408 0.190943 0.061283
Si Si3 0.889964 0.381449 0.600728
Si Si4 0.801749 0.695622 0.629476
Si Si5 0.817372 0.391687 0.250000
Si Si6 0.285744 0.000904 0.639167
Si Si7 0.889671 0.032823 0.433385
Si Si8 0.108465 0.224842 0.582120
O O1 0.140439 0.600564 0.469625
O O2 0.139185 0.655541 0.578050
O O3 0.161917 0.532046 0.578865
O O4 0.000000 0.579006 0.541652
O O5 0.827884 0.228721 0.112544
O O6 0.874228 0.111984 0.061691
O O7 0.000000 0.203414 0.073601
O O8 0.870219 0.217417 0.991391
O O9 0.828733 0.427009 0.646239
O O10 0.885644 0.301642 0.603530
O O11 0.000000 0.399780 0.608195
O O12 0.827354 0.665727 0.695431
O O13 0.690170 0.685770 0.617798
O O14 0.805489 0.449490 0.304596
O O15 0.177147 0.995724 0.619900
O O16 0.000000 0.020610 0.421282
O O17 0.867003 0.000000 0.500000
O O18 0.000000 0.202181 0.591194
#
# Coordination Sequence:
#
# PCOD9471174 Si02
#       8
#    16  16  16  16   8  16  16  16
#     4  10  20  34  57  91 123 151 196 249 308 378
#     4  10  20  36  62  97 128 152 190 255 325 380
#     4  10  19  34  58  93 123 148 188 246 314 378
#     4  11  21  39  62  84 126 167 206 252 305 354
#     4  10  28  44  56  86 116 172 234 246 280 362
#     4  11  22  39  58  78 120 169 208 249 297 344
#     4  10  22  37  61  98 127 152 197 254 317 384
#     4  10  21  35  60  97 126 150 194 249 317 387
#
# _framework density 19.533711
#
# number of rings (size 3 to 8) (size 9 to 14) (size 15 to 20)
#    0.000    1.733    1.333    3.200    5.600    1.067 
#    0.000   16.000    0.000    3.200    0.000    0.000 
#    0.000    0.000    0.000    0.000    0.000    0.000 
#
# Total GULP energy -334007.108281 kJ/mol
# GULP energy per Si atom -5566.785138 kJ/mol
# Density = 1.948925 g / cm^3
# Si number density = 19.533711 Si / 1000 Ang^3
#
#
#
# Elastic Constant Matrix: (Units=GPa)
#
#
# Indices 1 2 3 4 5 6 
#
# 1 64.6162 8.4049 12.0246 0.0000 0.0000 0.0000
# 2 8.4049 53.9550 22.5637 0.0000 0.0000 0.0000
# 3 12.0246 22.5637 57.2283 0.0000 0.0000 0.0000
# 4 0.0000 0.0000 0.0000 49.1896 0.0000 0.0000
# 5 0.0000 0.0000 0.0000 0.0000 -3.0989 0.0000
# 6 0.0000 0.0000 0.0000 0.0000 0.0000 18.7276
#
#
#
# Elastic Compliance Matrix: (Units=1/GPa)
#
#
# Indices 1 2 3 4 5 6 
#
# 1 0.016183 -0.001316 -0.002882 0.000000 0.000000 0.000000
# 2 -0.001316 0.022300 -0.008516 0.000000 0.000000 0.000000
# 3 -0.002882 -0.008516 0.021437 0.000000 0.000000 0.000000
# 4 0.000000 0.000000 0.000000 0.020330 0.000000 0.000000
# 5 0.000000 0.000000 0.000000 0.000000 -0.322696 0.000000
# 6 0.000000 0.000000 0.000000 0.000000 0.000000 0.053397
#
#
# Mechanical properties :
#
#
# Convention : Reuss Voigt Hill
#
# Bulk Modulus (GPa) = 28.99075 29.08733 29.03904
# Shear Modulus (GPa) = -32.86791 21.81741 -5.52525
#
# Velocity S-wave (km/s) = -4.10643 3.34565 -1.68366
# Velocity P-wave (km/s) = 2.75864 5.46330 3.33448
#
# Compressibility (1/GPa) = 0.03449376
#
# Stress axis : x y z
#
# Youngs Moduli (GPa) = 61.79171 44.84246 46.64844
#
# Poissons Ratio (x) = 0.05901 0.13442
# Poissons Ratio (y) = 0.08131 0.39726
# Poissons Ratio (z) = 0.17806 0.38188
#
# Static dielectric constant tensor:
#      x y z
#    x 1.727620 0.000000 0.000000 
#    y 0.000000 1.773630 0.000000 
#    z 0.000000 0.000000 1.628930 
# 
# From -- ./inp_files/54744.got.cif
#   From: 2010.05.17/outbox.cif.g08.bks.cpg/sg63_28_cif.got.tgz:54744.got - 2010.06.03 15:47:04.
