data_PCOD9471734
_publ_section_title
;
Structure prediction by ZEFSAII (Michael W. Deem and Ramdas Pophale) SiO2 
 PCOD9471734
Probable space group: C M C M
;
_chemical_formula_sum "Si O2"
_cell_formula_units_Z 88
_cell_length_a 29.310183
_cell_length_b 19.396954
_cell_length_c 7.537242
_cell_angle_alpha 90.000000
_cell_angle_beta 90.000000
_cell_angle_gamma 90.000000
_cell_volume 4285.135165
_symmetry_space_group_name_H-M "C M C M"
_symmetry_group_IT_number 63
_symmetry_cell_setting 'orthorhombic'
loop_
_space_group_symop_operation_xyz
x,y,z
-x,-y,1/2+z
x,-y,-z
-x,y,1/2-z
-x,-y,-z
x,y,1/2-z
-x,y,z
x,-y,1/2+z
1/2+x,1/2+y,z
1/2-x,1/2-y,1/2+z
1/2+x,1/2-y,-z
1/2-x,1/2+y,1/2-z
1/2-x,1/2-y,-z
1/2+x,1/2+y,1/2-z
1/2-x,1/2+y,z
1/2+x,1/2-y,1/2+z
loop_
_atom_site_type_symbol
_atom_site_label
_atom_site_fract_x
_atom_site_fract_y
_atom_site_fract_z
Si Si1 0.000000 0.919483 0.037453
Si Si2 0.720497 0.918175 0.037763
Si Si3 0.051897 0.305762 0.037097
Si Si4 0.590049 0.657318 0.962762
Si Si5 0.319871 0.581721 0.963414
Si Si6 0.121004 0.418885 0.036764
O O1 0.954061 0.884016 0.967884
O O2 0.000000 0.909691 0.250000
O O3 0.000000 0.000000 0.000000
O O4 0.720459 0.907679 0.250000
O O5 0.769909 0.894328 0.969201
O O6 0.671045 0.894403 0.969696
O O7 0.720515 0.000000 0.000000
O O8 0.048643 0.311763 0.250000
O O9 0.079915 0.371722 0.969565
O O10 0.000000 0.299799 0.968318
O O11 0.080561 0.237072 0.999042
O O12 0.591047 0.648317 0.750000
O O13 0.637278 0.625353 0.031388
O O14 0.318654 0.588408 0.750000
O O15 0.325856 0.500000 0.000000
O O16 0.122066 0.412004 0.250000
O O17 0.115243 0.500000 0.000000
#
# Coordination Sequence:
#
# PCOD9471734 Si02
#       6
#     8  16  16  16  16  16
#     4  10  20  32  48  70  95 124 161 202 239 276
#     4   8  14  27  47  70  97 126 154 191 239 285
#     4  10  21  36  52  70  95 129 165 201 244 291
#     4  10  20  34  49  69  98 130 164 200 240 286
#     4   9  17  29  48  73  99 128 162 199 238 283
#     4   9  18  33  53  76  99 123 157 199 242 292
#
# _framework density 20.536109
#
# number of rings (size 3 to 8) (size 9 to 14) (size 15 to 20)
#    0.000    2.727    0.909    0.545    0.000    2.545 
#    0.000    0.909    0.000    0.000    0.000    0.000 
#    0.000    0.000    0.000    0.000    0.000    0.000 
#
# Total GULP energy -245301.702401 kJ/mol
# GULP energy per Si atom -5575.038691 kJ/mol
# Density = 2.048937 g / cm^3
# Si number density = 20.536109 Si / 1000 Ang^3
#
#
#
# Elastic Constant Matrix: (Units=GPa)
#
#
# Indices 1 2 3 4 5 6 
#
# 1 155.3683 72.5964 4.8670 0.0000 0.0000 0.0000
# 2 72.5964 95.4937 -9.1750 0.0000 0.0000 0.0000
# 3 4.8670 -9.1750 52.5874 0.0000 0.0000 0.0000
# 4 0.0000 0.0000 0.0000 17.4291 0.0000 0.0000
# 5 0.0000 0.0000 0.0000 0.0000 68.8932 0.0000
# 6 0.0000 0.0000 0.0000 0.0000 0.0000 -77.3957
#
#
#
# Elastic Compliance Matrix: (Units=1/GPa)
#
#
# Indices 1 2 3 4 5 6 
#
# 1 0.010260 -0.008026 -0.002350 0.000000 0.000000 0.000000
# 2 -0.008026 0.016928 0.003696 0.000000 0.000000 0.000000
# 3 -0.002350 0.003696 0.019878 0.000000 0.000000 0.000000
# 4 0.000000 0.000000 0.000000 0.057375 0.000000 0.000000
# 5 0.000000 0.000000 0.000000 0.000000 0.014515 0.000000
# 6 0.000000 0.000000 0.000000 0.000000 0.000000 -0.012921
#
#
# Mechanical properties :
#
#
# Convention : Reuss Voigt Hill
#
# Bulk Modulus (GPa) = 29.66630 48.89180 39.27905
# Shear Modulus (GPa) = 38.27585 17.46273 27.86929
#
# Velocity S-wave (km/s) = 4.32190 2.91923 3.68786
# Velocity P-wave (km/s) = 6.27553 5.93481 6.10755
#
# Compressibility (1/GPa) = 0.03370829
#
# Stress axis : x y z
#
# Youngs Moduli (GPa) = 97.46685 59.07289 50.30602
#
# Poissons Ratio (x) = 0.47409 0.11821
# Poissons Ratio (y) = 0.78223 -0.18594
# Poissons Ratio (z) = 0.22903 -0.21835
#
# Static dielectric constant tensor:
#      x y z
#    x 1.797720 0.000000 0.000000 
#    y 0.000000 1.676000 0.000000 
#    z 0.000000 0.000000 1.797910 
# 
# From -- ./inp_files/24907.got.cif
#   From: 2010.05.17/outbox.cif.g08.bks.cpg/sg63_13_cif.got.tgz:24907.got - 2010.06.03 15:47:04.
