data_PCOD9471581
_publ_section_title
;
Structure prediction by ZEFSAII (Michael W. Deem and Ramdas Pophale) SiO2 
 PCOD9471581
Probable space group: C M C M
;
_chemical_formula_sum "Si O2"
_cell_formula_units_Z 104
_cell_length_a 20.943820
_cell_length_b 13.366646
_cell_length_c 14.694338
_cell_angle_alpha 90.000000
_cell_angle_beta 90.000000
_cell_angle_gamma 90.000000
_cell_volume 4113.659760
_symmetry_space_group_name_H-M "C M C M"
_symmetry_group_IT_number 63
_symmetry_cell_setting 'orthorhombic'
loop_
_space_group_symop_operation_xyz
x,y,z
-x,-y,1/2+z
x,-y,-z
-x,y,1/2-z
-x,-y,-z
x,y,1/2-z
-x,y,z
x,-y,1/2+z
1/2+x,1/2+y,z
1/2-x,1/2-y,1/2+z
1/2+x,1/2-y,-z
1/2-x,1/2+y,1/2-z
1/2-x,1/2-y,-z
1/2+x,1/2+y,1/2-z
1/2-x,1/2+y,z
1/2+x,1/2-y,1/2+z
loop_
_atom_site_type_symbol
_atom_site_label
_atom_site_fract_x
_atom_site_fract_y
_atom_site_fract_z
Si Si1 0.245750 0.867169 0.972488
Si Si2 0.569136 0.386195 0.359774
Si Si3 0.930778 0.514749 0.391464
Si Si4 0.140910 0.300150 0.855188
Si Si5 0.131214 0.167344 0.356055
Si Si6 0.000000 0.910695 0.902952
Si Si7 0.809012 0.609544 0.847235
O O1 0.304512 0.864425 0.902563
O O2 0.180640 0.891414 0.920817
O O3 0.250000 0.750000 0.000000
O O4 0.264867 0.918501 0.067314
O O5 0.573729 0.395343 0.250000
O O6 0.500000 0.336868 0.381680
O O7 0.624085 0.311044 0.391801
O O8 0.555236 0.497066 0.397469
O O9 0.926485 0.500000 0.500000
O O10 0.920821 0.630615 0.366784
O O11 0.872744 0.455169 0.349057
O O12 0.000000 0.479343 0.361256
O O13 0.157581 0.288325 0.750000
O O14 0.129190 0.132498 0.250000
O O15 0.163808 0.277421 0.354633
O O16 0.058706 0.168943 0.392438
O O17 0.775146 0.598529 0.750000
#
# Coordination Sequence:
#
# PCOD9471581 Si02
#       7
#    16  16  16  16  16   8  16
#     4  10  22  42  64  95 137 184 232 287 337 410
#     4   8  16  32  59  95 134 174 223 275 324 385
#     4  11  23  40  65 103 138 183 221 279 351 419
#     4  11  21  38  66  97 136 184 227 278 341 408
#     4  10  20  37  68 105 145 187 225 281 346 408
#     4  10  19  38  68 109 147 181 235 284 335 418
#     4  10  22  41  66  97 134 183 238 287 345 411
#
# _framework density 25.281623
#
# number of rings (size 3 to 8) (size 9 to 14) (size 15 to 20)
#    0.462    1.538    1.538    2.538    1.077    2.462 
#    0.000    4.615    1.692   12.000    0.000    0.538 
#    0.000    1.231    0.000    0.000    0.000    0.000 
#
# Total GULP energy -289537.641059 kJ/mol
# GULP energy per Si atom -5568.031559 kJ/mol
# Density = 2.522408 g / cm^3
# Si number density = 25.281623 Si / 1000 Ang^3
#
#
#
# Elastic Constant Matrix: (Units=GPa)
#
#
# Indices 1 2 3 4 5 6 
#
# 1 158.6027 1.3392 70.1839 0.0000 0.0000 0.0000
# 2 1.3392 17.1919 3.1806 0.0000 0.0000 0.0000
# 3 70.1839 3.1806 138.1446 0.0000 0.0000 0.0000
# 4 0.0000 0.0000 0.0000 17.4961 0.0000 0.0000
# 5 0.0000 0.0000 0.0000 0.0000 6.6562 0.0000
# 6 0.0000 0.0000 0.0000 0.0000 0.0000 49.8140
#
#
#
# Elastic Compliance Matrix: (Units=1/GPa)
#
#
# Indices 1 2 3 4 5 6 
#
# 1 0.008134 0.000131 -0.004135 0.000000 0.000000 0.000000
# 2 0.000131 0.058418 -0.001412 0.000000 0.000000 0.000000
# 3 -0.004135 -0.001412 0.009372 0.000000 0.000000 0.000000
# 4 0.000000 0.000000 0.000000 0.057156 0.000000 0.000000
# 5 0.000000 0.000000 0.000000 0.000000 0.150236 0.000000
# 6 0.000000 0.000000 0.000000 0.000000 0.000000 0.020075
#
#
# Mechanical properties :
#
#
# Convention : Reuss Voigt Hill
#
# Bulk Modulus (GPa) = 15.36271 51.48294 33.42283
# Shear Modulus (GPa) = 14.88454 30.74229 22.81342
#
# Velocity S-wave (km/s) = 2.42905 3.49089 3.00721
# Velocity P-wave (km/s) = 3.73589 6.05446 5.03057
#
# Compressibility (1/GPa) = 0.06509267
#
# Stress axis : x y z
#
# Youngs Moduli (GPa) = 122.94151 17.11803 106.69745
#
# Poissons Ratio (x) = -0.00225 0.44124
# Poissons Ratio (y) = -0.01616 0.15063
# Poissons Ratio (z) = 0.50842 0.02417
#
# Static dielectric constant tensor:
#      x y z
#    x 2.240740 0.000000 0.000000 
#    y 0.000000 2.048530 0.000000 
#    z 0.000000 0.000000 2.166310 
# 
# From -- ./inp_files/35804.got.cif
#   From: 2010.05.17/outbox.cif.g08.bks.cpg/sg63_18_cif.got.tgz:35804.got - 2010.06.03 15:47:04.
