data_PCOD9471653
_publ_section_title
;
Structure prediction by ZEFSAII (Michael W. Deem and Ramdas Pophale) SiO2 
 PCOD9471653
Probable space group: C M C M
;
_chemical_formula_sum "Si O2"
_cell_formula_units_Z 96
_cell_length_a 9.025492
_cell_length_b 24.224425
_cell_length_c 26.813021
_cell_angle_alpha 90.000000
_cell_angle_beta 90.000000
_cell_angle_gamma 90.000000
_cell_volume 5862.327965
_symmetry_space_group_name_H-M "C M C M"
_symmetry_group_IT_number 63
_symmetry_cell_setting 'orthorhombic'
loop_
_space_group_symop_operation_xyz
x,y,z
-x,-y,1/2+z
x,-y,-z
-x,y,1/2-z
-x,-y,-z
x,y,1/2-z
-x,y,z
x,-y,1/2+z
1/2+x,1/2+y,z
1/2-x,1/2-y,1/2+z
1/2+x,1/2-y,-z
1/2-x,1/2+y,1/2-z
1/2-x,1/2-y,-z
1/2+x,1/2+y,1/2-z
1/2-x,1/2+y,z
1/2+x,1/2-y,1/2+z
loop_
_atom_site_type_symbol
_atom_site_label
_atom_site_fract_x
_atom_site_fract_y
_atom_site_fract_z
Si Si1 0.671022 0.579012 0.614618
Si Si2 0.822793 0.517592 0.443528
Si Si3 0.178505 0.135703 0.430561
Si Si4 0.178838 0.830615 0.308003
Si Si5 0.329280 0.318986 0.038388
Si Si6 0.676600 0.254968 0.618075
O O1 0.500000 0.561435 0.621943
O O2 0.766774 0.528415 0.595179
O O3 0.723148 0.613057 0.663223
O O4 0.672239 0.625367 0.571335
O O5 0.775199 0.500000 0.500000
O O6 0.755157 0.576646 0.429171
O O7 0.000000 0.520515 0.443483
O O8 0.218326 0.164071 0.483361
O O9 0.217503 0.180692 0.388361
O O10 0.000000 0.128471 0.430555
O O11 0.218552 0.831089 0.250000
O O12 0.247280 0.778877 0.337467
O O13 0.000000 0.827383 0.312635
O O14 0.500000 0.298869 0.037124
O O15 0.227660 0.276047 0.067532
O O16 0.500000 0.251228 0.622697
#
# Coordination Sequence:
#
# PCOD9471653 Si02
#       6
#    16  16  16  16  16  16
#     4   9  17  31  52  74  98 132 171 208 246 297
#     4  11  22  32  46  72 104 138 174 212 250 292
#     4  10  20  33  48  68 100 142 177 202 239 297
#     4   9  19  37  59  79  99 128 166 207 257 313
#     4   9  17  30  48  69  98 138 174 201 240 294
#     4  10  20  31  48  76 104 129 165 211 255 296
#
# _framework density 16.375748000000002
#
# number of rings (size 3 to 8) (size 9 to 14) (size 15 to 20)
#    0.000    2.333    1.667    2.500    0.000    5.667 
#    0.000    0.000    0.000    1.000    0.000    2.333 
#    0.000    0.000    0.000    0.000    0.000    0.000 
#
# Total GULP energy -267638.659747 kJ/mol
# GULP energy per Si atom -5575.805411 kJ/mol
# Density = 1.633848 g / cm^3
# Si number density = 16.375748 Si / 1000 Ang^3
#
#
#
# Elastic Constant Matrix: (Units=GPa)
#
#
# Indices 1 2 3 4 5 6 
#
# 1 32.5345 48.7646 34.7380 0.0000 0.0000 0.0000
# 2 48.7646 137.3375 70.7912 0.0000 0.0000 0.0000
# 3 34.7380 70.7912 98.9036 0.0000 0.0000 0.0000
# 4 0.0000 0.0000 0.0000 6.4201 0.0000 0.0000
# 5 0.0000 0.0000 0.0000 0.0000 15.0472 0.0000
# 6 0.0000 0.0000 0.0000 0.0000 0.0000 28.7443
#
#
#
# Elastic Compliance Matrix: (Units=1/GPa)
#
#
# Indices 1 2 3 4 5 6 
#
# 1 0.072768 -0.020067 -0.011195 0.000000 0.000000 0.000000
# 2 -0.020067 0.017072 -0.005171 0.000000 0.000000 0.000000
# 3 -0.011195 -0.005171 0.017744 0.000000 0.000000 0.000000
# 4 0.000000 0.000000 0.000000 0.155761 0.000000 0.000000
# 5 0.000000 0.000000 0.000000 0.000000 0.066458 0.000000
# 6 0.000000 0.000000 0.000000 0.000000 0.000000 0.034790
#
#
# Mechanical properties :
#
#
# Convention : Reuss Voigt Hill
#
# Bulk Modulus (GPa) = 28.80421 64.15146 46.47783
# Shear Modulus (GPa) = 11.13507 17.67443 14.40475
#
# Velocity S-wave (km/s) = 2.61046 3.28884 2.96909
# Velocity P-wave (km/s) = 5.16853 7.32678 6.34017
#
# Compressibility (1/GPa) = 0.03471715
#
# Stress axis : x y z
#
# Youngs Moduli (GPa) = 13.74237 58.57456 56.35603
#
# Poissons Ratio (x) = 1.17543 0.63090
# Poissons Ratio (y) = 0.27577 0.29144
# Poissons Ratio (z) = 0.15384 0.30291
#
# Static dielectric constant tensor:
#      x y z
#    x 1.550590 0.000000 0.000000 
#    y 0.000000 1.547410 0.000000 
#    z 0.000000 0.000000 1.546520 
# 
# From -- ./inp_files/59936.got.cif
#   From: 2010.05.17/outbox.cif.g08.bks.cpg/sg63_30_cif.got.tgz:59936.got - 2010.06.03 15:47:04.
