data_PCOD9471825
_publ_section_title
;
Structure prediction by ZEFSAII (Michael W. Deem and Ramdas Pophale) SiO2 
 PCOD9471825
Probable space group: C M C M
;
_chemical_formula_sum "Si O2"
_cell_formula_units_Z 80
_cell_length_a 7.462983
_cell_length_b 24.029478
_cell_length_c 16.975963
_cell_angle_alpha 90.000000
_cell_angle_beta 90.000000
_cell_angle_gamma 90.000000
_cell_volume 3044.326365
_symmetry_space_group_name_H-M "C M C M"
_symmetry_group_IT_number 63
_symmetry_cell_setting 'orthorhombic'
loop_
_space_group_symop_operation_xyz
x,y,z
-x,-y,1/2+z
x,-y,-z
-x,y,1/2-z
-x,-y,-z
x,y,1/2-z
-x,y,z
x,-y,1/2+z
1/2+x,1/2+y,z
1/2-x,1/2-y,1/2+z
1/2+x,1/2-y,-z
1/2-x,1/2+y,1/2-z
1/2-x,1/2-y,-z
1/2+x,1/2+y,1/2-z
1/2-x,1/2+y,z
1/2+x,1/2-y,1/2+z
loop_
_atom_site_type_symbol
_atom_site_label
_atom_site_fract_x
_atom_site_fract_y
_atom_site_fract_z
Si Si1 0.794096 0.397672 0.337292
Si Si2 0.285455 0.777179 0.915957
Si Si3 0.789256 0.022036 0.117518
Si Si4 0.203162 0.737852 0.250000
Si Si5 0.216286 0.614837 0.005802
Si Si6 0.782414 0.891590 0.750000
O O1 0.714774 0.388902 0.250000
O O2 0.796021 0.463698 0.358101
O O3 0.713426 0.372848 0.417708
O O4 0.000000 0.379196 0.333029
O O5 0.500000 0.779564 0.905147
O O6 0.213599 0.749509 0.835648
O O7 0.250000 0.750000 0.000000
O O8 0.216332 0.839677 0.931928
O O9 0.726206 0.070061 0.177049
O O10 0.000000 0.013006 0.129087
O O11 0.762934 0.053162 0.034402
O O12 0.202901 0.670044 0.250000
O O13 0.000000 0.759938 0.250000
O O14 0.000000 0.618434 0.002985
O O15 0.000000 0.885998 0.750000
#
# Coordination Sequence:
#
# PCOD9471825 Si02
#       6
#    16  16  16   8  16   8
#     4  10  21  36  54  77 111 154 195 231 271 328
#     4  10  22  40  62  88 116 146 186 237 290 345
#     4  11  21  34  54  83 116 149 187 231 279 328
#     4  10  20  38  64  87 110 147 191 234 285 343
#     4  10  21  38  58  82 110 146 191 235 280 333
#     4  10  20  32  52  83 114 145 185 232 275 323
#
# _framework density 26.278393000000001
#
# number of rings (size 3 to 8) (size 9 to 14) (size 15 to 20)
#    0.000    1.800    3.000    1.200    0.000    5.600 
#    1.800    0.000    0.000    0.000    0.000    0.000 
#    0.000    0.000    0.000    0.000    0.000    0.000 
#
# Total GULP energy -223593.086562 kJ/mol
# GULP energy per Si atom -5589.827164 kJ/mol
# Density = 2.621858 g / cm^3
# Si number density = 26.278393 Si / 1000 Ang^3
#
#
#
# Elastic Constant Matrix: (Units=GPa)
#
#
# Indices 1 2 3 4 5 6 
#
# 1 96.8174 -2.6284 5.3926 0.0000 0.0000 0.0000
# 2 -2.6284 65.0759 22.9573 0.0000 0.0000 0.0000
# 3 5.3926 22.9573 235.1315 0.0000 0.0000 0.0000
# 4 0.0000 0.0000 0.0000 41.1668 0.0000 0.0000
# 5 0.0000 0.0000 0.0000 0.0000 15.2841 0.0000
# 6 0.0000 0.0000 0.0000 0.0000 0.0000 3.0744
#
#
#
# Elastic Compliance Matrix: (Units=1/GPa)
#
#
# Indices 1 2 3 4 5 6 
#
# 1 0.010359 0.000520 -0.000288 0.000000 0.000000 0.000000
# 2 0.000520 0.015941 -0.001568 0.000000 0.000000 0.000000
# 3 -0.000288 -0.001568 0.004413 0.000000 0.000000 0.000000
# 4 0.000000 0.000000 0.000000 0.024291 0.000000 0.000000
# 5 0.000000 0.000000 0.000000 0.000000 0.065427 0.000000
# 6 0.000000 0.000000 0.000000 0.000000 0.000000 0.325263
#
#
# Mechanical properties :
#
#
# Convention : Reuss Voigt Hill
#
# Bulk Modulus (GPa) = 35.66412 49.82976 42.74694
# Shear Modulus (GPa) = 10.92385 36.65864 23.79124
#
# Velocity S-wave (km/s) = 2.04108 3.73904 3.01217
# Velocity P-wave (km/s) = 4.37673 6.13547 5.32915
#
# Compressibility (1/GPa) = 0.02803938
#
# Stress axis : x y z
#
# Youngs Moduli (GPa) = 96.53533 62.73154 226.61972
#
# Poissons Ratio (x) = -0.03263 0.06535
# Poissons Ratio (y) = -0.05021 0.35542
# Poissons Ratio (z) = 0.02784 0.09838
#
# Static dielectric constant tensor:
#      x y z
#    x 1.969810 0.000000 0.000000 
#    y 0.000000 2.058110 0.000000 
#    z 0.000000 0.000000 2.183720 
# 
# From -- ./inp_files/40599.got.cif
#   From: 2010.05.17/outbox.cif.g08.bks.cpg/sg63_21_cif.got.tgz:40599.got - 2010.06.03 15:47:04.
