data_PCOD9471409
_publ_section_title
;
Structure prediction by ZEFSAII (Michael W. Deem and Ramdas Pophale) SiO2 
 PCOD9471409
Probable space group: C M C M
;
_chemical_formula_sum "Si O2"
_cell_formula_units_Z 112
_cell_length_a 13.774304
_cell_length_b 14.658410
_cell_length_c 26.831667
_cell_angle_alpha 90.000000
_cell_angle_beta 90.000000
_cell_angle_gamma 90.000000
_cell_volume 5417.565664
_symmetry_space_group_name_H-M "C M C M"
_symmetry_group_IT_number 63
_symmetry_cell_setting 'orthorhombic'
loop_
_space_group_symop_operation_xyz
x,y,z
-x,-y,1/2+z
x,-y,-z
-x,y,1/2-z
-x,-y,-z
x,y,1/2-z
-x,y,z
x,-y,1/2+z
1/2+x,1/2+y,z
1/2-x,1/2-y,1/2+z
1/2+x,1/2-y,-z
1/2-x,1/2+y,1/2-z
1/2-x,1/2-y,-z
1/2+x,1/2+y,1/2-z
1/2-x,1/2+y,z
1/2+x,1/2-y,1/2+z
loop_
_atom_site_type_symbol
_atom_site_label
_atom_site_fract_x
_atom_site_fract_y
_atom_site_fract_z
Si Si1 0.776807 0.483009 0.692847
Si Si2 0.888803 0.847872 0.809167
Si Si3 0.106412 0.401916 0.049276
Si Si4 0.801277 0.103892 0.011936
Si Si5 0.794158 0.326476 0.141634
Si Si6 0.105732 0.797076 0.425522
Si Si7 0.338034 0.903725 0.592277
O O1 0.805413 0.465073 0.750000
O O2 0.667756 0.443832 0.685796
O O3 0.787636 0.589418 0.679864
O O4 0.836223 0.429153 0.650335
O O5 0.892596 0.828854 0.750000
O O6 0.823137 0.768267 0.833220
O O7 0.000000 0.848911 0.827932
O O8 0.196515 0.379748 0.014064
O O9 0.124132 0.348257 0.100437
O O10 0.119389 0.508077 0.064247
O O11 0.000000 0.384830 0.028818
O O12 0.870659 0.171829 0.982253
O O13 0.771921 0.110428 0.069756
O O14 0.831519 0.000000 0.000000
O O15 0.693337 0.328076 0.110506
O O16 0.107544 0.688759 0.419081
O O17 0.000000 0.833737 0.411704
#
# Coordination Sequence:
#
# PCOD9471409 Si02
#       7
#    16  16  16  16  16  16  16
#     4  10  21  38  62  86 116 157 195 242 306 361
#     4  10  20  36  61  89 115 151 203 255 302 355
#     4   9  18  32  56  87 115 146 187 240 303 362
#     4   9  20  36  55  81 116 151 195 245 294 354
#     4  10  20  37  58  86 122 157 193 246 301 361
#     4  11  22  36  57  84 117 160 199 235 289 361
#     4  10  19  36  57  81 117 150 190 244 297 359
#
# _framework density 20.673490999999999
#
# number of rings (size 3 to 8) (size 9 to 14) (size 15 to 20)
#    0.000    2.143    1.429    2.571    0.000    4.000 
#    0.000    0.714    0.000   11.571    0.000    0.000 
#    0.000    0.000    0.000    0.000    0.000    0.000 
#
# Total GULP energy -312476.967286 kJ/mol
# GULP energy per Si atom -5579.945844 kJ/mol
# Density = 2.062644 g / cm^3
# Si number density = 20.673491 Si / 1000 Ang^3
#
#
#
# Elastic Constant Matrix: (Units=GPa)
#
#
# Indices 1 2 3 4 5 6 
#
# 1 77.6448 6.4942 11.8912 0.0000 0.0000 0.0000
# 2 6.4942 63.6128 14.0281 0.0000 0.0000 0.0000
# 3 11.8912 14.0281 94.1086 0.0000 0.0000 0.0000
# 4 0.0000 0.0000 0.0000 23.4859 0.0000 0.0000
# 5 0.0000 0.0000 0.0000 0.0000 12.9615 0.0000
# 6 0.0000 0.0000 0.0000 0.0000 0.0000 3.6889
#
#
#
# Elastic Compliance Matrix: (Units=1/GPa)
#
#
# Indices 1 2 3 4 5 6 
#
# 1 0.013196 -0.001013 -0.001516 0.000000 0.000000 0.000000
# 2 -0.001013 0.016332 -0.002307 0.000000 0.000000 0.000000
# 3 -0.001516 -0.002307 0.011161 0.000000 0.000000 0.000000
# 4 0.000000 0.000000 0.000000 0.042579 0.000000 0.000000
# 5 0.000000 0.000000 0.000000 0.000000 0.077151 0.000000
# 6 0.000000 0.000000 0.000000 0.000000 0.000000 0.271082
#
#
# Mechanical properties :
#
#
# Convention : Reuss Voigt Hill
#
# Bulk Modulus (GPa) = 32.23917 33.35482 32.79699
# Shear Modulus (GPa) = 11.07389 21.55745 16.31567
#
# Velocity S-wave (km/s) = 2.31694 3.23268 2.81233
# Velocity P-wave (km/s) = 4.77346 5.48660 5.14240
#
# Compressibility (1/GPa) = 0.03101817
#
# Stress axis : x y z
#
# Youngs Moduli (GPa) = 75.77991 61.22895 89.59406
#
# Poissons Ratio (x) = 0.06201 0.13586
# Poissons Ratio (y) = 0.07675 0.20665
# Poissons Ratio (z) = 0.11492 0.14123
#
# Static dielectric constant tensor:
#      x y z
#    x 1.743100 0.000000 0.000000 
#    y 0.000000 1.749030 0.000000 
#    z 0.000000 0.000000 1.782300 
# 
# From -- ./inp_files/73521.got.cif
#   From: 2010.05.17/outbox.cif.g08.bks.cpg/sg63_37_cif.got.tgz:73521.got - 2010.06.03 15:47:04.
