data_PCOD9471272
_publ_section_title
;
Structure prediction by ZEFSAII (Michael W. Deem and Ramdas Pophale) SiO2 
 PCOD9471272
Probable space group: C M C M
;
_chemical_formula_sum "Si O2"
_cell_formula_units_Z 96
_cell_length_a 24.211830
_cell_length_b 26.156754
_cell_length_c 8.528751
_cell_angle_alpha 90.000000
_cell_angle_beta 90.000000
_cell_angle_gamma 90.000000
_cell_volume 5401.282581
_symmetry_space_group_name_H-M "C M C M"
_symmetry_group_IT_number 63
_symmetry_cell_setting 'orthorhombic'
loop_
_space_group_symop_operation_xyz
x,y,z
-x,-y,1/2+z
x,-y,-z
-x,y,1/2-z
-x,-y,-z
x,y,1/2-z
-x,y,z
x,-y,1/2+z
1/2+x,1/2+y,z
1/2-x,1/2-y,1/2+z
1/2+x,1/2-y,-z
1/2-x,1/2+y,1/2-z
1/2-x,1/2-y,-z
1/2+x,1/2+y,1/2-z
1/2-x,1/2+y,z
1/2+x,1/2-y,1/2+z
loop_
_atom_site_type_symbol
_atom_site_label
_atom_site_fract_x
_atom_site_fract_y
_atom_site_fract_z
Si Si1 0.618751 0.653366 0.561673
Si Si2 0.312169 0.749208 0.062970
Si Si3 0.379875 0.846488 0.940195
Si Si4 0.500000 0.812162 0.941021
Si Si5 0.309865 0.056229 0.060989
Si Si6 0.000000 0.193314 0.559119
Si Si7 0.682470 0.556434 0.061945
O O1 0.620109 0.654807 0.750000
O O2 0.657125 0.698603 0.497169
O O3 0.556114 0.665436 0.509408
O O4 0.642435 0.599676 0.503657
O O5 0.311618 0.749474 0.250000
O O6 0.250000 0.750000 0.000000
O O7 0.345070 0.798370 0.000302
O O8 0.378739 0.845385 0.750000
O O9 0.443370 0.839274 0.990901
O O10 0.350690 0.898903 0.992177
O O11 0.500000 0.811787 0.750000
O O12 0.500000 0.752713 0.991600
O O13 0.310802 0.055064 0.250000
O O14 0.246287 0.067247 0.013090
O O15 0.324625 0.000000 0.000000
O O16 0.000000 0.194080 0.750000
O O17 0.680563 0.556743 0.250000
O O18 0.668644 0.500000 0.000000
#
# Coordination Sequence:
#
# PCOD9471272 Si02
#       7
#    16  16  16   8  16   8  16
#     4  11  21  37  59  83 112 147 187 230 277 333
#     4  12  24  36  53  81 113 145 180 228 284 338
#     4  10  19  35  57  81 109 146 189 229 272 328
#     4   9  16  32  57  80 108 149 190 224 268 330
#     4   9  19  34  55  79 108 143 181 226 276 331
#     4   9  18  34  57  82 109 149 189 223 271 336
#     4  10  20  36  56  82 112 146 188 234 287 339
#
# _framework density 17.773558000000001
#
# number of rings (size 3 to 8) (size 9 to 14) (size 15 to 20)
#    0.000    1.833    1.667    3.500    0.000    2.667 
#    0.000    3.750    0.000    0.000    0.000    0.000 
#    0.000    0.000    0.000    0.000    0.000    0.000 
#
# Total GULP energy -268072.624339 kJ/mol
# GULP energy per Si atom -5584.846340 kJ/mol
# Density = 1.773310 g / cm^3
# Si number density = 17.773558 Si / 1000 Ang^3
#
#
#
# Elastic Constant Matrix: (Units=GPa)
#
#
# Indices 1 2 3 4 5 6 
#
# 1 174.4411 108.8028 33.0937 0.0000 0.0000 0.0000
# 2 108.8028 155.7781 28.0388 0.0000 0.0000 0.0000
# 3 33.0937 28.0388 37.4048 0.0000 0.0000 0.0000
# 4 0.0000 0.0000 0.0000 32.0858 0.0000 0.0000
# 5 0.0000 0.0000 0.0000 0.0000 17.1726 0.0000
# 6 0.0000 0.0000 0.0000 0.0000 0.0000 4.9790
#
#
#
# Elastic Compliance Matrix: (Units=1/GPa)
#
#
# Indices 1 2 3 4 5 6 
#
# 1 0.010775 -0.006716 -0.004499 0.000000 0.000000 0.000000
# 2 -0.006716 0.011607 -0.002758 0.000000 0.000000 0.000000
# 3 -0.004499 -0.002758 0.032783 0.000000 0.000000 0.000000
# 4 0.000000 0.000000 0.000000 0.031166 0.000000 0.000000
# 5 0.000000 0.000000 0.000000 0.000000 0.058232 0.000000
# 6 0.000000 0.000000 0.000000 0.000000 0.000000 0.200844
#
#
# Mechanical properties :
#
#
# Convention : Reuss Voigt Hill
#
# Bulk Modulus (GPa) = 36.74076 78.61052 57.67564
# Shear Modulus (GPa) = 13.07441 24.02672 18.55057
#
# Velocity S-wave (km/s) = 2.71516 3.68070 3.23417
# Velocity P-wave (km/s) = 5.52683 7.89863 6.81668
#
# Compressibility (1/GPa) = 0.02721773
#
# Stress axis : x y z
#
# Youngs Moduli (GPa) = 92.80734 86.15722 30.50406
#
# Poissons Ratio (x) = 0.57864 0.13723
# Poissons Ratio (y) = 0.62330 0.08414
# Poissons Ratio (z) = 0.41752 0.23766
#
# Static dielectric constant tensor:
#      x y z
#    x 1.601620 0.000000 0.000000 
#    y 0.000000 1.571630 0.000000 
#    z 0.000000 0.000000 1.602920 
# 
# From -- ./inp_files/10530.got.cif
#   From: 2010.05.17/outbox.cif.g08.bks.cpg/sg63_6_cif.got.tgz:10530.got - 2010.06.03 15:47:04.
