data_PCOD9471732
_publ_section_title
;
Structure prediction by ZEFSAII (Michael W. Deem and Ramdas Pophale) SiO2 
 PCOD9471732
Probable space group: C M C M
;
_chemical_formula_sum "Si O2"
_cell_formula_units_Z 96
_cell_length_a 14.045419
_cell_length_b 18.450185
_cell_length_c 14.694046
_cell_angle_alpha 90.000000
_cell_angle_beta 90.000000
_cell_angle_gamma 90.000000
_cell_volume 3807.823588
_symmetry_space_group_name_H-M "C M C M"
_symmetry_group_IT_number 63
_symmetry_cell_setting 'orthorhombic'
loop_
_space_group_symop_operation_xyz
x,y,z
-x,-y,1/2+z
x,-y,-z
-x,y,1/2-z
-x,-y,-z
x,y,1/2-z
-x,y,z
x,-y,1/2+z
1/2+x,1/2+y,z
1/2-x,1/2-y,1/2+z
1/2+x,1/2-y,-z
1/2-x,1/2+y,1/2-z
1/2-x,1/2-y,-z
1/2+x,1/2+y,1/2-z
1/2-x,1/2+y,z
1/2+x,1/2-y,1/2+z
loop_
_atom_site_type_symbol
_atom_site_label
_atom_site_fract_x
_atom_site_fract_y
_atom_site_fract_z
Si Si1 0.157239 0.055958 0.859588
Si Si2 0.400657 0.715147 0.641117
Si Si3 0.397532 0.935344 0.625788
Si Si4 0.362570 0.091171 0.917808
Si Si5 0.825743 0.900123 0.853429
Si Si6 0.313395 0.754329 0.360798
O O1 0.180328 0.051132 0.750000
O O2 0.130586 0.975003 0.889422
O O3 0.096869 0.128066 0.867730
O O4 0.250392 0.075555 0.916188
O O5 0.399583 0.730831 0.750000
O O6 0.500000 0.745024 0.602521
O O7 0.297314 0.740147 0.607203
O O8 0.500000 0.907047 0.659574
O O9 0.398362 0.919427 0.518737
O O10 0.290906 0.908345 0.651790
O O11 0.398320 0.022472 0.639969
O O12 0.371294 0.173601 0.885773
O O13 0.860731 0.895314 0.750000
O O14 0.849851 0.822909 0.896778
O O15 0.310467 0.753022 0.250000
#
# Coordination Sequence:
#
# PCOD9471732 Si02
#       6
#    16  16  16  16  16  16
#     4   8  14  26  44  65  89 120 157 192 228 273
#     4   8  13  22  39  63  87 110 139 178 223 267
#     4  10  20  32  48  70  94 124 158 194 238 280
#     4   9  16  29  47  66  91 121 158 196 225 269
#     4   9  18  31  46  67  93 119 151 191 232 278
#     4   9  17  29  47  70  93 119 152 190 231 275
#
# _framework density 25.211252999999999
#
# number of rings (size 3 to 8) (size 9 to 14) (size 15 to 20)
#    0.000    3.167    0.000    2.500    0.000    2.333 
#    0.000    1.667    0.000    8.000    0.000   88.667 
#    0.000    0.000    0.000    0.000    0.000    0.000 
#
# Total GULP energy -267566.484813 kJ/mol
# GULP energy per Si atom -5574.301767 kJ/mol
# Density = 2.515387 g / cm^3
# Si number density = 25.211253 Si / 1000 Ang^3
#
#
#
# Elastic Constant Matrix: (Units=GPa)
#
#
# Indices 1 2 3 4 5 6 
#
# 1 52.3636 -14.4858 11.9987 0.0000 0.0000 0.0000
# 2 -14.4858 192.9652 17.6255 0.0000 0.0000 0.0000
# 3 11.9987 17.6255 69.4156 0.0000 0.0000 0.0000
# 4 0.0000 0.0000 0.0000 17.7472 0.0000 0.0000
# 5 0.0000 0.0000 0.0000 0.0000 -16.3671 0.0000
# 6 0.0000 0.0000 0.0000 0.0000 0.0000 -46.7494
#
#
#
# Elastic Compliance Matrix: (Units=1/GPa)
#
#
# Indices 1 2 3 4 5 6 
#
# 1 0.020551 0.001912 -0.004038 0.000000 0.000000 0.000000
# 2 0.001912 0.005483 -0.001723 0.000000 0.000000 0.000000
# 3 -0.004038 -0.001723 0.015541 0.000000 0.000000 0.000000
# 4 0.000000 0.000000 0.000000 0.056347 0.000000 0.000000
# 5 0.000000 0.000000 0.000000 0.000000 -0.061098 0.000000
# 6 0.000000 0.000000 0.000000 0.000000 0.000000 -0.021391
#
#
# Mechanical properties :
#
#
# Convention : Reuss Voigt Hill
#
# Bulk Modulus (GPa) = 29.51761 38.33571 33.92666
# Shear Modulus (GPa) = 145.24708 10.89988 78.07348
#
# Velocity S-wave (km/s) = 7.59849 2.08154 5.57090
# Velocity P-wave (km/s) = 9.41893 4.58431 7.40716
#
# Compressibility (1/GPa) = 0.03387809
#
# Stress axis : x y z
#
# Youngs Moduli (GPa) = 48.65881 182.37752 64.34461
#
# Poissons Ratio (x) = -0.34863 0.25981
# Poissons Ratio (y) = -0.09302 0.11084
# Poissons Ratio (z) = 0.19647 0.31417
#
# Static dielectric constant tensor:
#      x y z
#    x 2.027400 0.000000 0.000000 
#    y 0.000000 2.037730 0.000000 
#    z 0.000000 0.000000 1.968120 
# 
# From -- ./inp_files/45768.got.cif
#   From: 2010.05.17/outbox.cif.g08.bks.cpg/sg63_23_cif.got.tgz:45768.got - 2010.06.03 15:47:04.
