data_PCOD9471673
_publ_section_title
;
Structure prediction by ZEFSAII (Michael W. Deem and Ramdas Pophale) SiO2 
 PCOD9471673
Probable space group: C M C M
;
_chemical_formula_sum "Si O2"
_cell_formula_units_Z 104
_cell_length_a 33.844268
_cell_length_b 17.054431
_cell_length_c 10.676754
_cell_angle_alpha 90.000000
_cell_angle_beta 90.000000
_cell_angle_gamma 90.000000
_cell_volume 6162.566178
_symmetry_space_group_name_H-M "C M C M"
_symmetry_group_IT_number 63
_symmetry_cell_setting 'orthorhombic'
loop_
_space_group_symop_operation_xyz
x,y,z
-x,-y,1/2+z
x,-y,-z
-x,y,1/2-z
-x,-y,-z
x,y,1/2-z
-x,y,z
x,-y,1/2+z
1/2+x,1/2+y,z
1/2-x,1/2-y,1/2+z
1/2+x,1/2-y,-z
1/2-x,1/2+y,1/2-z
1/2-x,1/2-y,-z
1/2+x,1/2+y,1/2-z
1/2-x,1/2+y,z
1/2+x,1/2-y,1/2+z
loop_
_atom_site_type_symbol
_atom_site_label
_atom_site_fract_x
_atom_site_fract_y
_atom_site_fract_z
Si Si1 0.308240 0.052752 0.887958
Si Si2 0.000000 0.933974 0.393990
Si Si3 0.427028 0.315303 0.107688
Si Si4 0.718551 0.766727 0.392797
Si Si5 0.130436 0.215165 0.109312
Si Si6 0.602492 0.897331 0.112537
Si Si7 0.953574 0.633602 0.107112
O O1 0.298064 0.021665 0.750000
O O2 0.292687 0.141314 0.897226
O O3 0.355929 0.058041 0.896068
O O4 0.293003 0.000000 0.000000
O O5 0.038208 0.878175 0.407554
O O6 0.000000 0.964752 0.250000
O O7 0.000000 0.000000 0.500000
O O8 0.411216 0.321623 0.250000
O O9 0.445393 0.227493 0.097057
O O10 0.393914 0.324846 0.001529
O O11 0.732261 0.749852 0.250000
O O12 0.750000 0.750000 0.500000
O O13 0.677393 0.720235 0.412784
O O14 0.123303 0.183467 0.250000
O O15 0.115281 0.305459 0.110931
O O16 0.584634 0.913414 0.250000
O O17 0.573283 0.907615 0.996757
O O18 0.943231 0.611079 0.250000
O O19 0.000000 0.619594 0.087325
#
# Coordination Sequence:
#
# PCOD9471673 Si02
#       7
#    16   8  16  16  16  16  16
#     4   9  18  32  49  70  97 126 156 192 233 277
#     4  10  20  32  44  62  90 122 157 200 245 288
#     4   9  16  28  44  62  87 117 150 190 236 281
#     4   9  18  32  50  75 105 130 156 197 243 288
#     4   8  15  28  45  66  92 118 145 184 232 277
#     4   8  15  27  41  61  89 117 145 181 223 265
#     4   9  15  24  40  62  87 113 143 184 230 272
#
# _framework density 16.876086999999998
#
# number of rings (size 3 to 8) (size 9 to 14) (size 15 to 20)
#    0.000    3.231    0.769    1.846    0.000    2.769 
#    0.000    3.077    0.000    1.385    0.000    0.000 
#    0.000    0.000    0.000    0.000    0.000    0.000 
#
# Total GULP energy -289613.617165 kJ/mol
# GULP energy per Si atom -5569.492638 kJ/mol
# Density = 1.683768 g / cm^3
# Si number density = 16.876087 Si / 1000 Ang^3
#
#
#
# Elastic Constant Matrix: (Units=GPa)
#
#
# Indices 1 2 3 4 5 6 
#
# 1 79.1655 8.3471 89.3009 0.0000 0.0000 0.0000
# 2 8.3471 34.5829 39.0200 0.0000 0.0000 0.0000
# 3 89.3009 39.0200 179.8863 0.0000 0.0000 0.0000
# 4 0.0000 0.0000 0.0000 21.6248 0.0000 0.0000
# 5 0.0000 0.0000 0.0000 0.0000 34.5661 0.0000
# 6 0.0000 0.0000 0.0000 0.0000 0.0000 6.1972
#
#
#
# Elastic Compliance Matrix: (Units=1/GPa)
#
#
# Indices 1 2 3 4 5 6 
#
# 1 0.033133 0.013984 -0.019482 0.000000 0.000000 0.000000
# 2 0.013984 0.044189 -0.016527 0.000000 0.000000 0.000000
# 3 -0.019482 -0.016527 0.018815 0.000000 0.000000 0.000000
# 4 0.000000 0.000000 0.000000 0.046243 0.000000 0.000000
# 5 0.000000 0.000000 0.000000 0.000000 0.028930 0.000000
# 6 0.000000 0.000000 0.000000 0.000000 0.000000 0.161362
#
#
# Mechanical properties :
#
#
# Convention : Reuss Voigt Hill
#
# Bulk Modulus (GPa) = 19.19851 62.99672 41.09762
# Shear Modulus (GPa) = 12.68764 22.94208 17.81486
#
# Velocity S-wave (km/s) = 2.74489 3.69106 3.25257
# Velocity P-wave (km/s) = 4.63107 7.45488 6.20573
#
# Compressibility (1/GPa) = 0.05208736
#
# Stress axis : x y z
#
# Youngs Moduli (GPa) = 30.18130 22.63028 53.14820
#
# Poissons Ratio (x) = -0.31646 1.03541
# Poissons Ratio (y) = -0.42206 0.87839
# Poissons Ratio (z) = 0.58798 0.37402
#
# Static dielectric constant tensor:
#      x y z
#    x 1.545410 0.000000 0.000000 
#    y 0.000000 1.559460 0.000000 
#    z 0.000000 0.000000 1.593170 
# 
# From -- ./inp_files/26051.got.cif
#   From: 2010.05.17/outbox.cif.g08.bks.cpg/sg63_14_cif.got.tgz:26051.got - 2010.06.03 15:47:04.
