data_PCOD9471183
_publ_section_title
;
Structure prediction by ZEFSAII (Michael W. Deem and Ramdas Pophale) SiO2 
 PCOD9471183
Probable space group: C M C M
;
_chemical_formula_sum "Si O2"
_cell_formula_units_Z 96
_cell_length_a 8.740170
_cell_length_b 25.493091
_cell_length_c 24.348546
_cell_angle_alpha 90.000000
_cell_angle_beta 90.000000
_cell_angle_gamma 90.000000
_cell_volume 5425.195691
_symmetry_space_group_name_H-M "C M C M"
_symmetry_group_IT_number 63
_symmetry_cell_setting 'orthorhombic'
loop_
_space_group_symop_operation_xyz
x,y,z
-x,-y,1/2+z
x,-y,-z
-x,y,1/2-z
-x,-y,-z
x,y,1/2-z
-x,y,z
x,-y,1/2+z
1/2+x,1/2+y,z
1/2-x,1/2-y,1/2+z
1/2+x,1/2-y,-z
1/2-x,1/2+y,1/2-z
1/2-x,1/2-y,-z
1/2+x,1/2+y,1/2-z
1/2-x,1/2+y,z
1/2+x,1/2-y,1/2+z
loop_
_atom_site_type_symbol
_atom_site_label
_atom_site_fract_x
_atom_site_fract_y
_atom_site_fract_z
Si Si1 0.313748 0.606534 0.750000
Si Si2 0.815995 0.829771 0.064350
Si Si3 0.183208 0.764782 0.635417
Si Si4 0.184231 0.935142 0.132221
Si Si5 0.184524 0.140820 0.058515
Si Si6 0.316938 0.975277 0.941571
Si Si7 0.183652 0.228729 0.750000
O O1 0.500000 0.607072 0.750000
O O2 0.265357 0.578082 0.694138
O O3 0.266001 0.667481 0.750000
O O4 0.736327 0.782371 0.095821
O O5 0.779158 0.884445 0.094798
O O6 0.000000 0.822561 0.067838
O O7 0.771325 0.835044 0.000720
O O8 0.229973 0.819171 0.606473
O O9 0.255524 0.755590 0.694904
O O10 0.000000 0.764056 0.639940
O O11 0.000000 0.940995 0.131875
O O12 0.257981 0.986280 0.105866
O O13 0.253294 0.083199 0.064121
O O14 0.000000 0.136475 0.058348
O O15 0.500000 0.973890 0.941426
O O16 0.265431 0.000000 0.000000
O O17 0.000000 0.229273 0.750000
#
# Coordination Sequence:
#
# PCOD9471183 Si02
#       7
#     8  16  16  16  16  16   8
#     4   9  18  35  58  85 110 143 190 232 271 331
#     4  10  19  34  59  87 116 154 192 230 282 348
#     4  11  23  37  56  87 121 151 192 243 292 339
#     4  10  19  35  60  85 113 149 191 231 278 344
#     4  10  22  39  58  83 117 158 197 231 281 353
#     4  11  23  37  56  85 116 146 188 242 293 338
#     4  11  21  39  62  83 112 153 200 238 281 351
#
# _framework density 17.695214
#
# number of rings (size 3 to 8) (size 9 to 14) (size 15 to 20)
#    0.000    1.667    3.333    1.750    0.000    3.333 
#    0.000    1.250    0.000    2.000    0.000    0.000 
#    0.000    0.000    0.000    0.000    0.000    0.000 
#
# Total GULP energy -268142.639670 kJ/mol
# GULP energy per Si atom -5586.304993 kJ/mol
# Density = 1.765494 g / cm^3
# Si number density = 17.695214 Si / 1000 Ang^3
#
#
#
# Elastic Constant Matrix: (Units=GPa)
#
#
# Indices 1 2 3 4 5 6 
#
# 1 28.8918 47.4514 44.0850 0.0000 0.0000 0.0000
# 2 47.4514 158.2384 103.8517 0.0000 0.0000 0.0000
# 3 44.0850 103.8517 182.0011 0.0000 0.0000 0.0000
# 4 0.0000 0.0000 0.0000 33.1924 0.0000 0.0000
# 5 0.0000 0.0000 0.0000 0.0000 26.7959 0.0000
# 6 0.0000 0.0000 0.0000 0.0000 0.0000 28.9450
#
#
#
# Elastic Compliance Matrix: (Units=1/GPa)
#
#
# Indices 1 2 3 4 5 6 
#
# 1 0.075810 -0.017077 -0.008619 0.000000 0.000000 0.000000
# 2 -0.017077 0.013950 -0.003824 0.000000 0.000000 0.000000
# 3 -0.008619 -0.003824 0.009764 0.000000 0.000000 0.000000
# 4 0.000000 0.000000 0.000000 0.030127 0.000000 0.000000
# 5 0.000000 0.000000 0.000000 0.000000 0.037319 0.000000
# 6 0.000000 0.000000 0.000000 0.000000 0.000000 0.034548
#
#
# Mechanical properties :
#
#
# Convention : Reuss Voigt Hill
#
# Bulk Modulus (GPa) = 24.70034 84.43417 54.56726
# Shear Modulus (GPa) = 18.24477 29.36952 23.80714
#
# Velocity S-wave (km/s) = 3.21449 4.07842 3.67195
# Velocity P-wave (km/s) = 5.26938 8.36644 6.99156
#
# Compressibility (1/GPa) = 0.04048527
#
# Stress axis : x y z
#
# Youngs Moduli (GPa) = 13.19094 71.68556 102.41856
#
# Poissons Ratio (x) = 1.22416 0.88271
# Poissons Ratio (y) = 0.22526 0.39160
# Poissons Ratio (z) = 0.11369 0.27409
#
# Static dielectric constant tensor:
#      x y z
#    x 1.597480 0.000000 0.000000 
#    y 0.000000 1.568190 0.000000 
#    z 0.000000 0.000000 1.595490 
# 
# From -- ./inp_files/60011.got.cif
#   From: 2010.05.17/outbox.cif.g08.bks.cpg/sg63_31_cif.got.tgz:60011.got - 2010.06.03 15:47:04.
