data_PCOD9471841
_publ_section_title
;
Structure prediction by ZEFSAII (Michael W. Deem and Ramdas Pophale) SiO2 
 PCOD9471841
Probable space group: C M C M
;
_chemical_formula_sum "Si O2"
_cell_formula_units_Z 96
_cell_length_a 27.028328
_cell_length_b 20.088827
_cell_length_c 8.434314
_cell_angle_alpha 90.000000
_cell_angle_beta 90.000000
_cell_angle_gamma 90.000000
_cell_volume 4579.557588
_symmetry_space_group_name_H-M "C M C M"
_symmetry_group_IT_number 63
_symmetry_cell_setting 'orthorhombic'
loop_
_space_group_symop_operation_xyz
x,y,z
-x,-y,1/2+z
x,-y,-z
-x,y,1/2-z
-x,-y,-z
x,y,1/2-z
-x,y,z
x,-y,1/2+z
1/2+x,1/2+y,z
1/2-x,1/2-y,1/2+z
1/2+x,1/2-y,-z
1/2-x,1/2+y,1/2-z
1/2-x,1/2-y,-z
1/2+x,1/2+y,1/2-z
1/2-x,1/2+y,z
1/2+x,1/2-y,1/2+z
loop_
_atom_site_type_symbol
_atom_site_label
_atom_site_fract_x
_atom_site_fract_y
_atom_site_fract_z
Si Si1 0.553742 0.332850 0.558237
Si Si2 0.412806 0.198533 0.431240
Si Si3 0.058449 0.566133 0.573366
Si Si4 0.741245 0.928028 0.561582
Si Si5 0.166948 0.850725 0.943102
Si Si6 0.308552 0.794717 0.068487
O O1 0.554965 0.329712 0.750000
O O2 0.500000 0.364984 0.515735
O O3 0.553371 0.259299 0.484071
O O4 0.609170 0.357611 0.508020
O O5 0.396153 0.207886 0.250000
O O6 0.436319 0.127133 0.455001
O O7 0.367511 0.199262 0.552846
O O8 0.081801 0.500000 0.500000
O O9 0.078121 0.580039 0.750000
O O10 0.000000 0.554979 0.590909
O O11 0.740225 0.931342 0.750000
O O12 0.797577 0.910982 0.508177
O O13 0.711373 0.861577 0.512856
O O14 0.724554 0.000000 0.500000
O O15 0.166809 0.846647 0.750000
O O16 0.194837 0.781714 0.997234
O O17 0.291694 0.794388 0.250000
#
# Coordination Sequence:
#
# PCOD9471841 Si02
#       6
#    16  16  16  16  16  16
#     4   9  17  32  55  81 107 137 175 219 266 315
#     4  11  21  32  48  73 104 135 168 210 262 316
#     4  10  20  33  47  63  87 124 169 214 260 311
#     4  11  22  37  56  81 112 145 183 226 275 328
#     4   8  17  34  57  83 111 143 181 225 271 323
#     4  10  20  37  58  80 105 137 180 225 271 321
#
# _framework density 20.962724000000001
#
# number of rings (size 3 to 8) (size 9 to 14) (size 15 to 20)
#    0.000    2.167    0.000    5.000    0.000    4.000 
#    0.000   10.833    0.000    0.500    0.000    0.000 
#    0.000    0.000    0.000    0.000    0.000    0.167 
#
# Total GULP energy -267204.420613 kJ/mol
# GULP energy per Si atom -5566.758763 kJ/mol
# Density = 2.091501 g / cm^3
# Si number density = 20.962724 Si / 1000 Ang^3
#
#
#
# Elastic Constant Matrix: (Units=GPa)
#
#
# Indices 1 2 3 4 5 6 
#
# 1 50.9656 16.2051 -1.3550 0.0000 0.0000 0.0000
# 2 16.2051 43.7707 8.7975 0.0000 0.0000 0.0000
# 3 -1.3550 8.7975 46.5787 0.0000 0.0000 0.0000
# 4 0.0000 0.0000 0.0000 12.4706 0.0000 0.0000
# 5 0.0000 0.0000 0.0000 0.0000 -13.7214 0.0000
# 6 0.0000 0.0000 0.0000 0.0000 0.0000 12.8158
#
#
#
# Elastic Compliance Matrix: (Units=1/GPa)
#
#
# Indices 1 2 3 4 5 6 
#
# 1 0.022476 -0.008786 0.002313 0.000000 0.000000 0.000000
# 2 -0.008786 0.027183 -0.005390 0.000000 0.000000 0.000000
# 3 0.002313 -0.005390 0.022554 0.000000 0.000000 0.000000
# 4 0.000000 0.000000 0.000000 0.080188 0.000000 0.000000
# 5 0.000000 0.000000 0.000000 0.000000 -0.072879 0.000000
# 6 0.000000 0.000000 0.000000 0.000000 0.000000 0.078028
#
#
# Mechanical properties :
#
#
# Convention : Reuss Voigt Hill
#
# Bulk Modulus (GPa) = 20.62369 20.95668 20.79018
# Shear Modulus (GPa) = 25.32428 10.15751 17.74089
#
# Velocity S-wave (km/s) = 3.47949 2.20364 2.91229
# Velocity P-wave (km/s) = 5.09922 4.06122 4.60953
#
# Compressibility (1/GPa) = 0.04848793
#
# Stress axis : x y z
#
# Youngs Moduli (GPa) = 44.49133 36.78836 44.33744
#
# Poissons Ratio (x) = 0.32323 -0.10257
# Poissons Ratio (y) = 0.39091 0.23896
# Poissons Ratio (z) = -0.10292 0.19828
#
# Static dielectric constant tensor:
#      x y z
#    x 1.827120 0.000000 0.000000 
#    y 0.000000 1.791570 0.000000 
#    z 0.000000 0.000000 1.763700 
# 
# From -- ./inp_files/12407.got.cif
#   From: 2010.05.17/outbox.cif.g08.bks.cpg/sg63_7_cif.got.tgz:12407.got - 2010.06.03 15:47:04.
