data_PCOD9471247
_publ_section_title
;
Structure prediction by ZEFSAII (Michael W. Deem and Ramdas Pophale) SiO2 
 PCOD9471247
Probable space group: C M C M
;
_chemical_formula_sum "Si O2"
_cell_formula_units_Z 92
_cell_length_a 11.471687
_cell_length_b 20.964304
_cell_length_c 22.486103
_cell_angle_alpha 90.000000
_cell_angle_beta 90.000000
_cell_angle_gamma 90.000000
_cell_volume 5407.816335
_symmetry_space_group_name_H-M "C M C M"
_symmetry_group_IT_number 63
_symmetry_cell_setting 'orthorhombic'
loop_
_space_group_symop_operation_xyz
x,y,z
-x,-y,1/2+z
x,-y,-z
-x,y,1/2-z
-x,-y,-z
x,y,1/2-z
-x,y,z
x,-y,1/2+z
1/2+x,1/2+y,z
1/2-x,1/2-y,1/2+z
1/2+x,1/2-y,-z
1/2-x,1/2+y,1/2-z
1/2-x,1/2-y,-z
1/2+x,1/2+y,1/2-z
1/2-x,1/2+y,z
1/2+x,1/2-y,1/2+z
loop_
_atom_site_type_symbol
_atom_site_label
_atom_site_fract_x
_atom_site_fract_y
_atom_site_fract_z
Si Si1 0.628314 0.277787 0.426752
Si Si2 0.000000 0.768132 0.750000
Si Si3 0.715156 0.400940 0.137418
Si Si4 0.296854 0.333145 0.552722
Si Si5 0.865310 0.426913 0.479669
Si Si6 0.500000 0.484818 0.320157
Si Si7 0.000000 0.868920 0.641789
Si Si8 0.632745 0.140685 0.750000
O O1 0.500000 0.250509 0.418482
O O2 0.649421 0.337152 0.383862
O O3 0.640495 0.304243 0.494165
O O4 0.726213 0.224873 0.418319
O O5 0.000000 0.813915 0.807656
O O6 0.108306 0.717509 0.750000
O O7 0.797819 0.420882 0.082685
O O8 0.616360 0.452968 0.152279
O O9 0.795943 0.382993 0.193078
O O10 0.205201 0.384184 0.526920
O O11 0.388311 0.360963 0.598997
O O12 0.864220 0.500000 0.500000
O O13 0.000000 0.405456 0.474266
O O14 0.500000 0.470915 0.250000
O O15 0.500000 0.560583 0.330597
O O16 0.500000 0.114224 0.750000
#
# Coordination Sequence:
#
# PCOD9471247 Si02
#       8
#    16   4  16  16  16   8   8   8
#     4  10  19  35  55  87 117 152 192 248 296 358
#     4  10  24  38  58  88 114 154 200 250 302 352
#     4  11  21  38  60  86 118 154 202 246 308 352
#     4  10  21  34  58  84 122 158 195 243 302 360
#     4  10  21  37  57  87 120 158 200 247 300 366
#     4  12  24  39  61  84 120 161 200 256 296 359
#     4  12  22  41  58  88 122 164 201 244 304 369
#     4  10  22  38  60  86 112 152 201 250 295 352
#
# _framework density 17.012412000000001
#
# number of rings (size 3 to 8) (size 9 to 14) (size 15 to 20)
#    0.261    1.217    3.043    3.130    0.000    0.000 
#    1.565    2.609    0.000    0.000    0.000    0.000 
#    0.000    0.000    0.000    0.000    0.000    0.000 
#
# Total GULP energy -256689.073364 kJ/mol
# GULP energy per Si atom -5580.197247 kJ/mol
# Density = 1.697369 g / cm^3
# Si number density = 17.012412 Si / 1000 Ang^3
#
#
#
# Elastic Constant Matrix: (Units=GPa)
#
#
# Indices 1 2 3 4 5 6 
#
# 1 126.8200 37.7470 46.1195 0.0000 0.0000 0.0000
# 2 37.7470 80.2210 24.5289 0.0000 0.0000 0.0000
# 3 46.1195 24.5289 84.1250 0.0000 0.0000 0.0000
# 4 0.0000 0.0000 0.0000 28.4416 0.0000 0.0000
# 5 0.0000 0.0000 0.0000 0.0000 5.5403 0.0000
# 6 0.0000 0.0000 0.0000 0.0000 0.0000 -34.4092
#
#
#
# Elastic Compliance Matrix: (Units=1/GPa)
#
#
# Indices 1 2 3 4 5 6 
#
# 1 0.010700 -0.003558 -0.004829 0.000000 0.000000 0.000000
# 2 -0.003558 0.014869 -0.002385 0.000000 0.000000 0.000000
# 3 -0.004829 -0.002385 0.015230 0.000000 0.000000 0.000000
# 4 0.000000 0.000000 0.000000 0.035160 0.000000 0.000000
# 5 0.000000 0.000000 0.000000 0.000000 0.180495 0.000000
# 6 0.000000 0.000000 0.000000 0.000000 0.000000 -0.029062
#
#
# Mechanical properties :
#
#
# Convention : Reuss Voigt Hill
#
# Bulk Modulus (GPa) = 51.93321 56.43965 54.18643
# Shear Modulus (GPa) = 19.58065 12.09923 15.83994
#
# Velocity S-wave (km/s) = 3.39626 2.66973 3.05467
# Velocity P-wave (km/s) = 6.78030 6.53841 6.66045
#
# Compressibility (1/GPa) = 0.01925550
#
# Stress axis : x y z
#
# Youngs Moduli (GPa) = 93.45511 67.25356 65.66173
#
# Poissons Ratio (x) = 0.23932 0.31706
# Poissons Ratio (y) = 0.33256 0.15658
# Poissons Ratio (z) = 0.45126 0.16038
#
# Static dielectric constant tensor:
#      x y z
#    x 1.568980 0.000000 0.000000 
#    y 0.000000 1.557330 0.000000 
#    z 0.000000 0.000000 1.548850 
# 
# From -- ./inp_files/52611.got.cif
#   From: 2010.05.17/outbox.cif.g08.bks.cpg/sg63_27_cif.got.tgz:52611.got - 2010.06.03 15:47:04.
