data_PCOD9471638
_publ_section_title
;
Structure prediction by ZEFSAII (Michael W. Deem and Ramdas Pophale) SiO2 
 PCOD9471638
Probable space group: C M C M
;
_chemical_formula_sum "Si O2"
_cell_formula_units_Z 96
_cell_length_a 7.272318
_cell_length_b 22.780315
_cell_length_c 25.110781
_cell_angle_alpha 90.000000
_cell_angle_beta 90.000000
_cell_angle_gamma 90.000000
_cell_volume 4159.994982
_symmetry_space_group_name_H-M "C M C M"
_symmetry_group_IT_number 63
_symmetry_cell_setting 'orthorhombic'
loop_
_space_group_symop_operation_xyz
x,y,z
-x,-y,1/2+z
x,-y,-z
-x,y,1/2-z
-x,-y,-z
x,y,1/2-z
-x,y,z
x,-y,1/2+z
1/2+x,1/2+y,z
1/2-x,1/2-y,1/2+z
1/2+x,1/2-y,-z
1/2-x,1/2+y,1/2-z
1/2-x,1/2-y,-z
1/2+x,1/2+y,1/2-z
1/2-x,1/2+y,z
1/2+x,1/2-y,1/2+z
loop_
_atom_site_type_symbol
_atom_site_label
_atom_site_fract_x
_atom_site_fract_y
_atom_site_fract_z
Si Si1 0.207262 0.911119 0.250000
Si Si2 0.724358 0.433661 0.481001
Si Si3 0.719314 0.309794 0.966478
Si Si4 0.275818 0.304109 0.654103
Si Si5 0.723153 0.545234 0.863051
Si Si6 0.776828 0.277603 0.250000
Si Si7 0.277335 0.431663 0.690395
O O1 0.288890 0.927782 0.192755
O O2 0.200633 0.841947 0.250000
O O3 0.000000 0.937273 0.250000
O O4 0.779018 0.500000 0.500000
O O5 0.500000 0.434051 0.483749
O O6 0.784641 0.373479 0.510848
O O7 0.782721 0.429064 0.419100
O O8 0.500000 0.316692 0.963562
O O9 0.786547 0.298438 0.906451
O O10 0.750000 0.250000 0.000000
O O11 0.500000 0.303609 0.653822
O O12 0.219080 0.255701 0.696521
O O13 0.216901 0.366740 0.677053
O O14 0.500000 0.549990 0.863624
O O15 0.773586 0.477087 0.855533
O O16 0.000000 0.280032 0.250000
O O17 0.218130 0.449615 0.750000
O O18 0.500000 0.430886 0.691370
#
# Coordination Sequence:
#
# PCOD9471638 Si02
#       7
#     8  16  16  16  16   8  16
#     4  10  20  31  45  71 103 130 157 194 244 296
#     4   9  17  30  48  71 100 133 167 206 251 297
#     4  10  21  35  52  75 103 135 170 208 250 298
#     4   9  17  30  48  71  96 123 162 207 245 285
#     4   9  16  26  43  69  99 125 154 196 246 295
#     4  10  20  33  49  69  95 128 165 202 240 286
#     4   9  13  22  42  69  97 120 148 197 254 290
#
# _framework density 23.076951999999999
#
# number of rings (size 3 to 8) (size 9 to 14) (size 15 to 20)
#    0.000    2.667    1.667    1.000    2.333    4.000 
#    0.000    0.000    0.000    0.500    0.000    5.833 
#    0.000    0.000    0.000    0.000    0.000    0.000 
#
# Total GULP energy -267890.870492 kJ/mol
# GULP energy per Si atom -5581.059802 kJ/mol
# Density = 2.302443 g / cm^3
# Si number density = 23.076952 Si / 1000 Ang^3
#
#
#
# Elastic Constant Matrix: (Units=GPa)
#
#
# Indices 1 2 3 4 5 6 
#
# 1 99.9730 -1.1827 3.9254 0.0000 0.0000 0.0000
# 2 -1.1827 148.1213 67.3642 0.0000 0.0000 0.0000
# 3 3.9254 67.3642 171.5123 0.0000 0.0000 0.0000
# 4 0.0000 0.0000 0.0000 -3.0538 0.0000 0.0000
# 5 0.0000 0.0000 0.0000 0.0000 -13.1147 0.0000
# 6 0.0000 0.0000 0.0000 0.0000 0.0000 7.9644
#
#
#
# Elastic Compliance Matrix: (Units=1/GPa)
#
#
# Indices 1 2 3 4 5 6 
#
# 1 0.010018 0.000224 -0.000317 0.000000 0.000000 0.000000
# 2 0.000224 0.008224 -0.003235 0.000000 0.000000 0.000000
# 3 -0.000317 -0.003235 0.007109 0.000000 0.000000 0.000000
# 4 0.000000 0.000000 0.000000 -0.327459 0.000000 0.000000
# 5 0.000000 0.000000 0.000000 0.000000 -0.076250 0.000000
# 6 0.000000 0.000000 0.000000 0.000000 0.000000 0.125558
#
#
# Mechanical properties :
#
#
# Convention : Reuss Voigt Hill
#
# Bulk Modulus (GPa) = 53.49358 62.20227 57.84792
# Shear Modulus (GPa) = -20.84099 21.65917 0.40909
#
# Velocity S-wave (km/s) = -3.00844 3.06692 0.42150
# Velocity P-wave (km/s) = 3.34115 6.28921 5.03574
#
# Compressibility (1/GPa) = 0.01869383
#
# Stress axis : x y z
#
# Youngs Moduli (GPa) = 99.82218 121.58867 140.67646
#
# Poissons Ratio (x) = -0.02728 0.04465
# Poissons Ratio (y) = -0.02239 0.45515
# Poissons Ratio (z) = 0.03168 0.39339
#
# Static dielectric constant tensor:
#      x y z
#    x 1.978480 0.000000 0.000000 
#    y 0.000000 1.816640 0.000000 
#    z 0.000000 0.000000 1.850760 
# 
# From -- ./inp_files/61557.got.cif
#   From: 2010.05.17/outbox.cif.g08.bks.cpg/sg63_31_cif.got.tgz:61557.got - 2010.06.03 15:47:04.
