data_PCOD9471491
_publ_section_title
;
Structure prediction by ZEFSAII (Michael W. Deem and Ramdas Pophale) SiO2 
 PCOD9471491
Probable space group: C M C M
;
_chemical_formula_sum "Si O2"
_cell_formula_units_Z 96
_cell_length_a 18.273597
_cell_length_b 21.576869
_cell_length_c 13.827001
_cell_angle_alpha 90.000000
_cell_angle_beta 90.000000
_cell_angle_gamma 90.000000
_cell_volume 5451.806863
_symmetry_space_group_name_H-M "C M C M"
_symmetry_group_IT_number 63
_symmetry_cell_setting 'orthorhombic'
loop_
_space_group_symop_operation_xyz
x,y,z
-x,-y,1/2+z
x,-y,-z
-x,y,1/2-z
-x,-y,-z
x,y,1/2-z
-x,y,z
x,-y,1/2+z
1/2+x,1/2+y,z
1/2-x,1/2-y,1/2+z
1/2+x,1/2-y,-z
1/2-x,1/2+y,1/2-z
1/2-x,1/2-y,-z
1/2+x,1/2+y,1/2-z
1/2-x,1/2+y,z
1/2+x,1/2-y,1/2+z
loop_
_atom_site_type_symbol
_atom_site_label
_atom_site_fract_x
_atom_site_fract_y
_atom_site_fract_z
Si Si1 0.660368 0.930595 0.515638
Si Si2 0.271602 0.599917 0.635242
Si Si3 0.586494 0.649379 0.135195
Si Si4 0.172283 0.219516 0.527021
Si Si5 0.586607 0.173715 0.362119
Si Si6 0.805665 0.039118 0.364435
O O1 0.691565 0.904949 0.414289
O O2 0.607532 0.885196 0.572391
O O3 0.734615 0.936462 0.579422
O O4 0.631311 0.000000 0.500000
O O5 0.266625 0.606865 0.750000
O O6 0.312560 0.657288 0.587517
O O7 0.311427 0.534039 0.613481
O O8 0.596047 0.662178 0.250000
O O9 0.500000 0.647696 0.114626
O O10 0.625441 0.583055 0.115290
O O11 0.627717 0.699224 0.068462
O O12 0.250000 0.250000 0.500000
O O13 0.127969 0.268179 0.591347
O O14 0.608837 0.164308 0.250000
O O15 0.500000 0.183965 0.364442
O O16 0.791110 0.043575 0.250000
#
# Coordination Sequence:
#
# PCOD9471491 Si02
#       6
#    16  16  16  16  16  16
#     4  10  19  36  62  86 110 143 190 239 291 339
#     4  10  20  34  56  86 115 144 191 245 286 329
#     4  10  21  37  58  86 120 157 196 238 289 347
#     4  12  22  38  59  83 114 158 197 242 279 337
#     4  11  24  41  59  84 119 154 189 232 288 352
#     4   9  17  33  58  85 114 145 189 242 291 341
#
# _framework density 17.608840000000001
#
# number of rings (size 3 to 8) (size 9 to 14) (size 15 to 20)
#    0.000    1.667    3.333    1.500    0.000    3.667 
#    0.000    2.500    0.000    4.500    0.000    0.000 
#    0.000    0.000    0.000    0.000    0.000    0.000 
#
# Total GULP energy -267888.214537 kJ/mol
# GULP energy per Si atom -5581.004470 kJ/mol
# Density = 1.756876 g / cm^3
# Si number density = 17.608840 Si / 1000 Ang^3
#
#
#
# Elastic Constant Matrix: (Units=GPa)
#
#
# Indices 1 2 3 4 5 6 
#
# 1 80.5376 44.0303 48.8285 0.0000 0.0000 0.0000
# 2 44.0303 83.9275 48.9658 0.0000 0.0000 0.0000
# 3 48.8285 48.9658 98.9628 0.0000 0.0000 0.0000
# 4 0.0000 0.0000 0.0000 32.9364 0.0000 0.0000
# 5 0.0000 0.0000 0.0000 0.0000 29.8062 0.0000
# 6 0.0000 0.0000 0.0000 0.0000 0.0000 23.6133
#
#
#
# Elastic Compliance Matrix: (Units=1/GPa)
#
#
# Indices 1 2 3 4 5 6 
#
# 1 0.020067 -0.006679 -0.006597 0.000000 0.000000 0.000000
# 2 -0.006679 0.018974 -0.006092 0.000000 0.000000 0.000000
# 3 -0.006597 -0.006092 0.016374 0.000000 0.000000 0.000000
# 4 0.000000 0.000000 0.000000 0.030362 0.000000 0.000000
# 5 0.000000 0.000000 0.000000 0.000000 0.033550 0.000000
# 6 0.000000 0.000000 0.000000 0.000000 0.000000 0.042349
#
#
# Mechanical properties :
#
#
# Convention : Reuss Voigt Hill
#
# Bulk Modulus (GPa) = 59.95646 60.78633 60.37139
# Shear Modulus (GPa) = 24.27518 25.37807 24.82662
#
# Velocity S-wave (km/s) = 3.71695 3.80045 3.75893
# Velocity P-wave (km/s) = 7.24872 7.33847 7.29373
#
# Compressibility (1/GPa) = 0.01667877
#
# Stress axis : x y z
#
# Youngs Moduli (GPa) = 49.83182 52.70474 61.07246
#
# Poissons Ratio (x) = 0.35203 0.40287
# Poissons Ratio (y) = 0.33284 0.37208
# Poissons Ratio (z) = 0.32872 0.32110
#
# Static dielectric constant tensor:
#      x y z
#    x 1.566470 0.000000 0.000000 
#    y 0.000000 1.609050 0.000000 
#    z 0.000000 0.000000 1.617210 
# 
# From -- ./inp_files/31905.got.cif
#   From: 2010.05.17/outbox.cif.g08.bks.cpg/sg63_16_cif.got.tgz:31905.got - 2010.06.03 15:47:04.
