data_PCOD9471776
_publ_section_title
;
Structure prediction by ZEFSAII (Michael W. Deem and Ramdas Pophale) SiO2 
 PCOD9471776
Probable space group: C M C M
;
_chemical_formula_sum "Si O2"
_cell_formula_units_Z 80
_cell_length_a 7.481194
_cell_length_b 18.976499
_cell_length_c 26.511883
_cell_angle_alpha 90.000000
_cell_angle_beta 90.000000
_cell_angle_gamma 90.000000
_cell_volume 3763.809060
_symmetry_space_group_name_H-M "C M C M"
_symmetry_group_IT_number 63
_symmetry_cell_setting 'orthorhombic'
loop_
_space_group_symop_operation_xyz
x,y,z
-x,-y,1/2+z
x,-y,-z
-x,y,1/2-z
-x,-y,-z
x,y,1/2-z
-x,y,z
x,-y,1/2+z
1/2+x,1/2+y,z
1/2-x,1/2-y,1/2+z
1/2+x,1/2-y,-z
1/2-x,1/2+y,1/2-z
1/2-x,1/2-y,-z
1/2+x,1/2+y,1/2-z
1/2-x,1/2+y,z
1/2+x,1/2-y,1/2+z
loop_
_atom_site_type_symbol
_atom_site_label
_atom_site_fract_x
_atom_site_fract_y
_atom_site_fract_z
Si Si1 0.785883 0.667110 0.000795
Si Si2 0.780636 0.417141 0.097970
Si Si3 0.784638 0.165273 0.306586
Si Si4 0.282163 0.173218 0.693107
Si Si5 0.210891 0.577179 0.405166
O O1 0.716091 0.627873 0.050869
O O2 0.000000 0.660152 0.000801
O O3 0.750000 0.750000 0.000000
O O4 0.722176 0.627918 0.950385
O O5 0.722704 0.379044 0.149388
O O6 0.718186 0.497681 0.094332
O O7 0.000000 0.417213 0.098482
O O8 0.723749 0.145765 0.250000
O O9 0.726518 0.245893 0.316892
O O10 0.730465 0.113479 0.350952
O O11 0.000000 0.166111 0.305723
O O12 0.226289 0.154202 0.750000
O O13 0.500000 0.173085 0.692885
O O14 0.000000 0.570224 0.415114
#
# Coordination Sequence:
#
# PCOD9471776 Si02
#       5
#    16  16  16  16  16
#     4  10  20  34  52  73  98 130 168 206 247 296
#     4   9  17  30  48  70  99 131 160 198 247 292
#     4   9  18  33  52  73  99 132 166 198 238 292
#     4   8  14  26  46  70  92 120 163 204 234 277
#     4  10  20  32  49  75 102 127 161 207 253 293
#
# _framework density 21.255064000000001
#
# number of rings (size 3 to 8) (size 9 to 14) (size 15 to 20)
#    0.000    2.800    0.000    3.000    0.000    6.000 
#    0.000    3.000    0.000    3.600    0.000    0.000 
#    0.000    0.000    0.000    0.000    0.000    0.000 
#
# Total GULP energy -223364.927722 kJ/mol
# GULP energy per Si atom -5584.123193 kJ/mol
# Density = 2.120669 g / cm^3
# Si number density = 21.255064 Si / 1000 Ang^3
#
#
#
# Elastic Constant Matrix: (Units=GPa)
#
#
# Indices 1 2 3 4 5 6 
#
# 1 57.2456 2.9559 1.0361 0.0000 0.0000 0.0000
# 2 2.9559 214.0066 156.9071 0.0000 0.0000 0.0000
# 3 1.0361 156.9071 199.6023 0.0000 0.0000 0.0000
# 4 0.0000 0.0000 0.0000 -10.3457 0.0000 0.0000
# 5 0.0000 0.0000 0.0000 0.0000 5.4808 0.0000
# 6 0.0000 0.0000 0.0000 0.0000 0.0000 9.9051
#
#
#
# Elastic Compliance Matrix: (Units=1/GPa)
#
#
# Indices 1 2 3 4 5 6 
#
# 1 0.017486 -0.000413 0.000234 0.000000 0.000000 0.000000
# 2 -0.000413 0.011040 -0.008676 0.000000 0.000000 0.000000
# 3 0.000234 -0.008676 0.011829 0.000000 0.000000 0.000000
# 4 0.000000 0.000000 0.000000 -0.096659 0.000000 0.000000
# 5 0.000000 0.000000 0.000000 0.000000 0.182456 0.000000
# 6 0.000000 0.000000 0.000000 0.000000 0.000000 0.100958
#
#
# Mechanical properties :
#
#
# Convention : Reuss Voigt Hill
#
# Bulk Modulus (GPa) = 44.16196 88.07252 66.11724
# Shear Modulus (GPa) = 19.81232 21.67174 20.74203
#
# Velocity S-wave (km/s) = 3.05638 3.19659 3.12727
# Velocity P-wave (km/s) = 5.76867 7.42632 6.64935
#
# Compressibility (1/GPa) = 0.02264392
#
# Stress axis : x y z
#
# Youngs Moduli (GPa) = 57.18965 90.58212 84.53758
#
# Poissons Ratio (x) = 0.03741 -0.01977
# Poissons Ratio (y) = 0.02362 0.73346
# Poissons Ratio (z) = -0.01338 0.78590
#
# Static dielectric constant tensor:
#      x y z
#    x 0.369420 0.000000 0.000000 
#    y 0.000000 1.723090 0.000000 
#    z 0.000000 0.000000 1.742510 
# 
# From -- ./inp_files/61080.got.cif
#   From: 2010.05.17/outbox.cif.g08.bks.cpg/sg63_31_cif.got.tgz:61080.got - 2010.06.03 15:47:04.
