data_PCOD9471333
_publ_section_title
;
Structure prediction by ZEFSAII (Michael W. Deem and Ramdas Pophale) SiO2 
 PCOD9471333
Probable space group: C M C M
;
_chemical_formula_sum "Si O2"
_cell_formula_units_Z 68
_cell_length_a 12.937128
_cell_length_b 12.088019
_cell_length_c 16.747752
_cell_angle_alpha 90.000000
_cell_angle_beta 90.000000
_cell_angle_gamma 90.000000
_cell_volume 2619.084620
_symmetry_space_group_name_H-M "C M C M"
_symmetry_group_IT_number 63
_symmetry_cell_setting 'orthorhombic'
loop_
_space_group_symop_operation_xyz
x,y,z
-x,-y,1/2+z
x,-y,-z
-x,y,1/2-z
-x,-y,-z
x,y,1/2-z
-x,y,z
x,-y,1/2+z
1/2+x,1/2+y,z
1/2-x,1/2-y,1/2+z
1/2+x,1/2-y,-z
1/2-x,1/2+y,1/2-z
1/2-x,1/2-y,-z
1/2+x,1/2+y,1/2-z
1/2-x,1/2+y,z
1/2+x,1/2-y,1/2+z
loop_
_atom_site_type_symbol
_atom_site_label
_atom_site_fract_x
_atom_site_fract_y
_atom_site_fract_z
Si Si1 0.108313 0.647375 0.589020
Si Si2 0.000000 0.406845 0.250000
Si Si3 0.163966 0.873402 0.660371
Si Si4 0.889883 0.294933 0.841513
Si Si5 0.160650 0.079583 0.570908
O O1 0.088341 0.601476 0.678409
O O2 0.119496 0.780129 0.601786
O O3 0.216907 0.603157 0.557814
O O4 0.000000 0.624802 0.544227
O O5 0.134770 0.840492 0.750000
O O6 0.287593 0.866025 0.649350
O O7 0.137004 0.999135 0.644924
O O8 0.883244 0.250575 0.750000
O O9 0.000000 0.355240 0.845866
O O10 0.885089 0.197622 0.906033
O O11 0.124497 0.000000 0.500000
#
# Coordination Sequence:
#
# PCOD9471333 Si02
#       5
#    16   4  16  16  16
#     4   9  19  36  58  80 111 135 184 234 279 315
#     4   8  16  36  58  84 104 138 178 248 278 308
#     4  10  19  35  60  81 102 140 188 232 275 324
#     4   9  20  39  58  81 109 141 186 240 278 315
#     4  11  24  36  53  84 119 152 181 216 274 340
#
# _framework density 25.963270000000001
#
# number of rings (size 3 to 8) (size 9 to 14) (size 15 to 20)
#    0.706    1.647    1.176    0.706    3.294    6.588 
#    0.000    2.353    0.000    0.000    0.000    0.000 
#    0.000    0.000    0.000    0.000    0.000    0.000 
#
# Total GULP energy -189501.394673 kJ/mol
# GULP energy per Si atom -5573.570432 kJ/mol
# Density = 2.590418 g / cm^3
# Si number density = 25.963270 Si / 1000 Ang^3
#
#
#
# Elastic Constant Matrix: (Units=GPa)
#
#
# Indices 1 2 3 4 5 6 
#
# 1 138.5143 -7.9879 -0.8344 0.0000 0.0000 0.0000
# 2 -7.9879 78.0341 -3.1999 0.0000 0.0000 0.0000
# 3 -0.8344 -3.1999 68.0027 0.0000 0.0000 0.0000
# 4 0.0000 0.0000 0.0000 12.8769 0.0000 0.0000
# 5 0.0000 0.0000 0.0000 0.0000 0.9490 0.0000
# 6 0.0000 0.0000 0.0000 0.0000 0.0000 -0.8667
#
#
#
# Elastic Compliance Matrix: (Units=1/GPa)
#
#
# Indices 1 2 3 4 5 6 
#
# 1 0.007263 0.000749 0.000124 0.000000 0.000000 0.000000
# 2 0.000749 0.012917 0.000617 0.000000 0.000000 0.000000
# 3 0.000124 0.000617 0.014736 0.000000 0.000000 0.000000
# 4 0.000000 0.000000 0.000000 0.077659 0.000000 0.000000
# 5 0.000000 0.000000 0.000000 0.000000 1.053726 0.000000
# 6 0.000000 0.000000 0.000000 0.000000 0.000000 -1.153813
#
#
# Mechanical properties :
#
#
# Convention : Reuss Voigt Hill
#
# Bulk Modulus (GPa) = 26.38802 28.94520 27.66661
# Shear Modulus (GPa) = 225.82976 22.36339 124.09658
#
# Velocity S-wave (km/s) = 9.33645 2.93806 6.92104
# Velocity P-wave (km/s) = 11.24328 4.76259 8.63405
#
# Compressibility (1/GPa) = 0.03789599
#
# Stress axis : x y z
#
# Youngs Moduli (GPa) = 137.67675 77.41827 67.86171
#
# Poissons Ratio (x) = -0.05796 -0.00844
# Poissons Ratio (y) = -0.10307 -0.04187
# Poissons Ratio (z) = -0.01712 -0.04777
#
# Static dielectric constant tensor:
#      x y z
#    x 2.028380 0.000000 0.000000 
#    y 0.000000 2.001140 0.000000 
#    z 0.000000 0.000000 2.084620 
# 
# From -- ./inp_files/53837.got.cif
#   From: 2010.05.17/outbox.cif.g08.bks.cpg/sg63_27_cif.got.tgz:53837.got - 2010.06.03 15:47:04.
