data_PCOD9471808
_publ_section_title
;
Structure prediction by ZEFSAII (Michael W. Deem and Ramdas Pophale) SiO2 
 PCOD9471808
Probable space group: C M C M
;
_chemical_formula_sum "Si O2"
_cell_formula_units_Z 88
_cell_length_a 11.589883
_cell_length_b 15.273516
_cell_length_c 27.513057
_cell_angle_alpha 90.000000
_cell_angle_beta 90.000000
_cell_angle_gamma 90.000000
_cell_volume 4870.313572
_symmetry_space_group_name_H-M "C M C M"
_symmetry_group_IT_number 63
_symmetry_cell_setting 'orthorhombic'
loop_
_space_group_symop_operation_xyz
x,y,z
-x,-y,1/2+z
x,-y,-z
-x,y,1/2-z
-x,-y,-z
x,y,1/2-z
-x,y,z
x,-y,1/2+z
1/2+x,1/2+y,z
1/2-x,1/2-y,1/2+z
1/2+x,1/2-y,-z
1/2-x,1/2+y,1/2-z
1/2-x,1/2-y,-z
1/2+x,1/2+y,1/2-z
1/2-x,1/2+y,z
1/2+x,1/2-y,1/2+z
loop_
_atom_site_type_symbol
_atom_site_label
_atom_site_fract_x
_atom_site_fract_y
_atom_site_fract_z
Si Si1 0.000000 0.934857 0.306014
Si Si2 0.273975 0.175281 0.399551
Si Si3 0.301537 0.494416 0.367670
Si Si4 0.134855 0.396767 0.504775
Si Si5 0.500000 0.462171 0.054476
Si Si6 0.632415 0.160218 0.606083
Si Si7 0.000000 0.209096 0.609297
O O1 0.113952 0.987851 0.321764
O O2 0.000000 0.910904 0.250000
O O3 0.000000 0.853444 0.343571
O O4 0.283046 0.148392 0.456222
O O5 0.170003 0.239842 0.386119
O O6 0.387732 0.231692 0.390100
O O7 0.267709 0.084313 0.371042
O O8 0.387493 0.492023 0.414736
O O9 0.218160 0.410415 0.370082
O O10 0.159962 0.500000 0.500000
O O11 0.144265 0.355935 0.451733
O O12 0.000000 0.389249 0.520977
O O13 0.500000 0.356472 0.062475
O O14 0.500000 0.500000 0.000000
O O15 0.500000 0.144279 0.619796
#
# Coordination Sequence:
#
# PCOD9471808 Si02
#       7
#     8  16  16  16   8  16   8
#     4  10  22  50  74  88 114 151 198 261 328 385
#     4  12  21  37  59  84 129 158 214 259 286 357
#     4  10  23  39  61  92 119 160 205 248 315 366
#     4  10  20  32  50  80 119 179 216 237 279 331
#     4  10  22  38  56  80 126 171 217 257 289 348
#     4  11  23  36  54  87 127 169 212 241 300 349
#     4  10  22  40  63  96 112 165 217 255 302 357
#
# _framework density 18.068650000000002
#
# number of rings (size 3 to 8) (size 9 to 14) (size 15 to 20)
#    0.000    1.636    6.364    0.545    6.364    1.455 
#    0.000    0.909    0.000    0.545    0.000    0.000 
#    0.000    0.000    0.000    0.000    0.000    0.000 
#
# Total GULP energy -245595.333107 kJ/mol
# GULP energy per Si atom -5581.712116 kJ/mol
# Density = 1.802753 g / cm^3
# Si number density = 18.068650 Si / 1000 Ang^3
#
#
#
# Elastic Constant Matrix: (Units=GPa)
#
#
# Indices 1 2 3 4 5 6 
#
# 1 76.4591 23.9467 15.9128 0.0000 0.0000 0.0000
# 2 23.9467 101.8949 13.0453 0.0000 0.0000 0.0000
# 3 15.9128 13.0453 58.0950 0.0000 0.0000 0.0000
# 4 0.0000 0.0000 0.0000 9.2901 0.0000 0.0000
# 5 0.0000 0.0000 0.0000 0.0000 7.6018 0.0000
# 6 0.0000 0.0000 0.0000 0.0000 0.0000 31.1188
#
#
#
# Elastic Compliance Matrix: (Units=1/GPa)
#
#
# Indices 1 2 3 4 5 6 
#
# 1 0.014726 -0.003032 -0.003353 0.000000 0.000000 0.000000
# 2 -0.003032 0.010729 -0.001579 0.000000 0.000000 0.000000
# 3 -0.003353 -0.001579 0.018486 0.000000 0.000000 0.000000
# 4 0.000000 0.000000 0.000000 0.107642 0.000000 0.000000
# 5 0.000000 0.000000 0.000000 0.000000 0.131548 0.000000
# 6 0.000000 0.000000 0.000000 0.000000 0.000000 0.032135
#
#
# Mechanical properties :
#
#
# Convention : Reuss Voigt Hill
#
# Bulk Modulus (GPa) = 35.69590 38.02874 36.86232
# Shear Modulus (GPa) = 14.68297 21.83840 18.26069
#
# Velocity S-wave (km/s) = 2.85374 3.48031 3.18249
# Velocity P-wave (km/s) = 5.53688 6.10267 5.82665
#
# Compressibility (1/GPa) = 0.02801442
#
# Stress axis : x y z
#
# Youngs Moduli (GPa) = 67.90622 93.20865 54.09475
#
# Poissons Ratio (x) = 0.28257 0.18137
# Poissons Ratio (y) = 0.20586 0.08540
# Poissons Ratio (z) = 0.22768 0.14715
#
# Static dielectric constant tensor:
#      x y z
#    x 1.661440 0.000000 0.000000 
#    y 0.000000 1.639120 0.000000 
#    z 0.000000 0.000000 1.586330 
# 
# From -- ./inp_files/68235.got.cif
#   From: 2010.05.17/outbox.cif.g08.bks.cpg/sg63_35_cif.got.tgz:68235.got - 2010.06.03 15:47:04.
