data_PCOD9471578
_publ_section_title
;
Structure prediction by ZEFSAII (Michael W. Deem and Ramdas Pophale) SiO2 
 PCOD9471578
Probable space group: C M C M
;
_chemical_formula_sum "Si O2"
_cell_formula_units_Z 88
_cell_length_a 17.106999
_cell_length_b 9.505143
_cell_length_c 21.187656
_cell_angle_alpha 90.000000
_cell_angle_beta 90.000000
_cell_angle_gamma 90.000000
_cell_volume 3445.207612
_symmetry_space_group_name_H-M "C M C M"
_symmetry_group_IT_number 63
_symmetry_cell_setting 'orthorhombic'
loop_
_space_group_symop_operation_xyz
x,y,z
-x,-y,1/2+z
x,-y,-z
-x,y,1/2-z
-x,-y,-z
x,y,1/2-z
-x,y,z
x,-y,1/2+z
1/2+x,1/2+y,z
1/2-x,1/2-y,1/2+z
1/2+x,1/2-y,-z
1/2-x,1/2+y,1/2-z
1/2-x,1/2-y,-z
1/2+x,1/2+y,1/2-z
1/2-x,1/2+y,z
1/2+x,1/2-y,1/2+z
loop_
_atom_site_type_symbol
_atom_site_label
_atom_site_fract_x
_atom_site_fract_y
_atom_site_fract_z
Si Si1 0.416036 0.836948 0.384758
Si Si2 0.249726 0.077487 0.250000
Si Si3 0.711229 0.367107 0.890820
Si Si4 0.087846 0.900601 0.250000
Si Si5 0.414522 0.614561 0.889373
Si Si6 0.587647 0.900573 0.250000
Si Si7 0.623192 0.899121 0.557222
O O1 0.500000 0.795404 0.411058
O O2 0.340332 0.764751 0.413252
O O3 0.412115 0.801031 0.311192
O O4 0.408150 0.004919 0.385606
O O5 0.243525 0.152977 0.181274
O O6 0.168605 0.988016 0.250000
O O7 0.331586 0.990063 0.250000
O O8 0.653550 0.500475 0.894141
O O9 0.784454 0.390025 0.935158
O O10 0.089730 0.824618 0.317694
O O11 0.000000 0.970745 0.250000
O O12 0.500000 0.547504 0.896710
O O13 0.407341 0.742422 0.937657
O O14 0.500000 0.970202 0.250000
O O15 0.599431 0.000000 0.500000
#
# Coordination Sequence:
#
# PCOD9471578 Si02
#       7
#    16   8  16   8  16   8  16
#     4  11  24  43  68 100 135 170 214 274 334 396
#     4  10  19  38  66  99 137 178 208 259 327 408
#     4  11  23  41  69 101 131 169 216 269 333 396
#     4   8  18  35  63 100 132 163 209 263 322 396
#     4  10  22  42  67  96 131 170 213 266 330 404
#     4  10  21  39  65 103 141 177 215 262 325 406
#     4  12  27  45  64  90 128 175 229 280 329 390
#
# _framework density 25.542726999999999
#
# number of rings (size 3 to 8) (size 9 to 14) (size 15 to 20)
#    0.000    1.455    1.818    2.727    2.545    6.545 
#    0.000    5.455    0.000    3.273    0.000    0.000 
#    0.000    0.000    0.000    0.000    0.000    0.000 
#
# Total GULP energy -245889.436650 kJ/mol
# GULP energy per Si atom -5588.396287 kJ/mol
# Density = 2.548459 g / cm^3
# Si number density = 25.542727 Si / 1000 Ang^3
#
#
#
# Elastic Constant Matrix: (Units=GPa)
#
#
# Indices 1 2 3 4 5 6 
#
# 1 210.7519 36.8902 9.8507 0.0000 0.0000 0.0000
# 2 36.8902 68.8857 -12.3149 0.0000 0.0000 0.0000
# 3 9.8507 -12.3149 33.2153 0.0000 0.0000 0.0000
# 4 0.0000 0.0000 0.0000 11.6959 0.0000 0.0000
# 5 0.0000 0.0000 0.0000 0.0000 12.2952 0.0000
# 6 0.0000 0.0000 0.0000 0.0000 0.0000 23.9991
#
#
#
# Elastic Compliance Matrix: (Units=1/GPa)
#
#
# Indices 1 2 3 4 5 6 
#
# 1 0.005486 -0.003458 -0.002909 0.000000 0.000000 0.000000
# 2 -0.003458 0.017727 0.007598 0.000000 0.000000 0.000000
# 3 -0.002909 0.007598 0.033786 0.000000 0.000000 0.000000
# 4 0.000000 0.000000 0.000000 0.085500 0.000000 0.000000
# 5 0.000000 0.000000 0.000000 0.000000 0.081332 0.000000
# 6 0.000000 0.000000 0.000000 0.000000 0.000000 0.041668
#
#
# Mechanical properties :
#
#
# Convention : Reuss Voigt Hill
#
# Bulk Modulus (GPa) = 16.81771 42.41168 29.61470
# Shear Modulus (GPa) = 17.67665 28.15984 22.91825
#
# Velocity S-wave (km/s) = 2.63352 3.32393 2.99867
# Velocity P-wave (km/s) = 3.98067 5.60104 4.85888
#
# Compressibility (1/GPa) = 0.05946113
#
# Stress axis : x y z
#
# Youngs Moduli (GPa) = 182.27549 56.41104 29.59771
#
# Poissons Ratio (x) = 0.19507 0.08610
# Poissons Ratio (y) = 0.63033 -0.22488
# Poissons Ratio (z) = 0.53027 -0.42861
#
# Static dielectric constant tensor:
#      x y z
#    x 1.894430 0.000000 0.000000 
#    y 0.000000 1.992860 0.000000 
#    z 0.000000 0.000000 2.155290 
# 
# From -- ./inp_files/62717.got.cif
#   From: 2010.05.17/outbox.cif.g08.bks.cpg/sg63_32_cif.got.tgz:62717.got - 2010.06.03 15:47:04.
