data_PCOD9471994
_publ_section_title
;
Structure prediction by ZEFSAII (Michael W. Deem and Ramdas Pophale) SiO2 
 PCOD9471994
Probable space group: C M C M
;
_chemical_formula_sum "Si O2"
_cell_formula_units_Z 112
_cell_length_a 14.708507
_cell_length_b 14.718856
_cell_length_c 25.573789
_cell_angle_alpha 90.000000
_cell_angle_beta 90.000000
_cell_angle_gamma 90.000000
_cell_volume 5536.530868
_symmetry_space_group_name_H-M "C M C M"
_symmetry_group_IT_number 63
_symmetry_cell_setting 'orthorhombic'
loop_
_space_group_symop_operation_xyz
x,y,z
-x,-y,1/2+z
x,-y,-z
-x,y,1/2-z
-x,-y,-z
x,y,1/2-z
-x,y,z
x,-y,1/2+z
1/2+x,1/2+y,z
1/2-x,1/2-y,1/2+z
1/2+x,1/2-y,-z
1/2-x,1/2+y,1/2-z
1/2-x,1/2-y,-z
1/2+x,1/2+y,1/2-z
1/2-x,1/2+y,z
1/2+x,1/2-y,1/2+z
loop_
_atom_site_type_symbol
_atom_site_label
_atom_site_fract_x
_atom_site_fract_y
_atom_site_fract_z
Si Si1 0.394097 0.724425 0.311765
Si Si2 0.216377 0.067767 0.142445
Si Si3 0.234277 0.360737 0.122927
Si Si4 0.101153 0.082680 0.039221
Si Si5 0.100858 0.554937 0.951638
Si Si6 0.402140 0.876472 0.888602
Si Si7 0.661338 0.732644 0.964518
O O1 0.393798 0.741478 0.250000
O O2 0.500000 0.733944 0.330349
O O3 0.355974 0.622502 0.322620
O O4 0.323752 0.794963 0.339258
O O5 0.177122 0.083132 0.083831
O O6 0.312079 0.121947 0.146545
O O7 0.235165 0.958912 0.146876
O O8 0.166310 0.373932 0.073762
O O9 0.317900 0.316440 0.091380
O O10 0.000000 0.071344 0.062439
O O11 0.102909 0.170574 0.002627
O O12 0.119046 0.000000 0.000000
O O13 0.091643 0.480884 0.905876
O O14 0.000000 0.587133 0.965572
O O15 0.141632 0.500000 0.000000
O O16 0.500000 0.847639 0.866407
O O17 0.384471 0.823257 0.942759
O O18 0.750000 0.750000 0.000000
#
# Coordination Sequence:
#
# PCOD9471994 Si02
#       7
#    16  16  16  16  16  16  16
#     4  11  25  47  72  96 123 163 220 282 340 394
#     4  11  22  40  65  92 129 168 212 269 324 387
#     4  11  22  36  62  92 125 166 207 265 316 382
#     4  11  22  35  54  85 128 174 216 251 301 380
#     4   9  18  30  49  80 119 158 198 242 293 361
#     4  10  20  33  51  79 114 158 202 247 306 370
#     4  12  20  32  54  82 124 172 212 252 304 372
#
# _framework density 20.229275000000001
#
# number of rings (size 3 to 8) (size 9 to 14) (size 15 to 20)
#    0.000    1.286    4.286    2.143    2.000    1.143 
#    0.000    4.286    0.000    0.429    0.000    0.000 
#    0.000    0.000    0.000    0.000    0.000    0.000 
#
# Total GULP energy -312078.708302 kJ/mol
# GULP energy per Si atom -5572.834077 kJ/mol
# Density = 2.018323 g / cm^3
# Si number density = 20.229275 Si / 1000 Ang^3
#
#
#
# Elastic Constant Matrix: (Units=GPa)
#
#
# Indices 1 2 3 4 5 6 
#
# 1 98.1536 25.6362 17.8055 0.0000 0.0000 0.0000
# 2 25.6362 89.1799 17.1433 0.0000 0.0000 0.0000
# 3 17.8055 17.1433 48.2130 0.0000 0.0000 0.0000
# 4 0.0000 0.0000 0.0000 18.9106 0.0000 0.0000
# 5 0.0000 0.0000 0.0000 0.0000 10.0241 0.0000
# 6 0.0000 0.0000 0.0000 0.0000 0.0000 11.5464
#
#
#
# Elastic Compliance Matrix: (Units=1/GPa)
#
#
# Indices 1 2 3 4 5 6 
#
# 1 0.011482 -0.002668 -0.003292 0.000000 0.000000 0.000000
# 2 -0.002668 0.012656 -0.003515 0.000000 0.000000 0.000000
# 3 -0.003292 -0.003515 0.023207 0.000000 0.000000 0.000000
# 4 0.000000 0.000000 0.000000 0.052880 0.000000 0.000000
# 5 0.000000 0.000000 0.000000 0.000000 0.099760 0.000000
# 6 0.000000 0.000000 0.000000 0.000000 0.000000 0.086607
#
#
# Mechanical properties :
#
#
# Convention : Reuss Voigt Hill
#
# Bulk Modulus (GPa) = 35.21662 39.63516 37.42589
# Shear Modulus (GPa) = 15.87269 19.76032 17.81650
#
# Velocity S-wave (km/s) = 2.80418 3.12880 2.97093
# Velocity P-wave (km/s) = 5.28499 5.71734 5.50541
#
# Compressibility (1/GPa) = 0.02839568
#
# Stress axis : x y z
#
# Youngs Moduli (GPa) = 87.09227 79.01460 43.09087
#
# Poissons Ratio (x) = 0.21080 0.14185
# Poissons Ratio (y) = 0.23236 0.15146
# Poissons Ratio (z) = 0.28669 0.27772
#
# Static dielectric constant tensor:
#      x y z
#    x 1.851140 0.000000 0.000000 
#    y 0.000000 1.789320 0.000000 
#    z 0.000000 0.000000 1.689210 
# 
# From -- ./inp_files/62973.got.cif
#   From: 2010.05.17/outbox.cif.g08.bks.cpg/sg63_32_cif.got.tgz:62973.got - 2010.06.03 15:47:04.
