data_PCOD9471815
_publ_section_title
;
Structure prediction by ZEFSAII (Michael W. Deem and Ramdas Pophale) SiO2 
 PCOD9471815
Probable space group: C M C M
;
_chemical_formula_sum "Si O2"
_cell_formula_units_Z 116
_cell_length_a 32.321500
_cell_length_b 22.715104
_cell_length_c 7.680388
_cell_angle_alpha 90.000000
_cell_angle_beta 90.000000
_cell_angle_gamma 90.000000
_cell_volume 5638.835141
_symmetry_space_group_name_H-M "C M C M"
_symmetry_group_IT_number 63
_symmetry_cell_setting 'orthorhombic'
loop_
_space_group_symop_operation_xyz
x,y,z
-x,-y,1/2+z
x,-y,-z
-x,y,1/2-z
-x,-y,-z
x,y,1/2-z
-x,y,z
x,-y,1/2+z
1/2+x,1/2+y,z
1/2-x,1/2-y,1/2+z
1/2+x,1/2-y,-z
1/2-x,1/2+y,1/2-z
1/2-x,1/2-y,-z
1/2+x,1/2+y,1/2-z
1/2-x,1/2+y,z
1/2+x,1/2-y,1/2+z
loop_
_atom_site_type_symbol
_atom_site_label
_atom_site_fract_x
_atom_site_fract_y
_atom_site_fract_z
Si Si1 0.896323 0.327636 0.960111
Si Si2 0.305771 0.197968 0.458431
Si Si3 0.284275 0.668621 0.460181
Si Si4 0.452961 0.933610 0.540806
Si Si5 0.061885 0.084216 0.558804
Si Si6 0.953254 0.782962 0.957129
Si Si7 0.500000 0.548210 0.250000
Si Si8 0.344254 0.564881 0.458138
O O1 0.894504 0.331634 0.750000
O O2 0.849395 0.325394 0.027009
O O3 0.922660 0.383088 0.025855
O O4 0.920716 0.267767 0.002100
O O5 0.305851 0.189926 0.250000
O O6 0.302652 0.267701 0.493197
O O7 0.263204 0.169052 0.525291
O O8 0.282957 0.665142 0.250000
O O9 0.313428 0.615908 0.521633
O O10 0.454611 0.928180 0.750000
O O11 0.500000 0.926171 0.474090
O O12 0.439439 0.000000 0.500000
O O13 0.046976 0.064749 0.750000
O O14 0.056470 0.154839 0.544785
O O15 0.035724 0.056963 0.403543
O O16 0.110260 0.070576 0.539261
O O17 0.952910 0.793985 0.750000
O O18 0.000000 0.764295 0.006584
O O19 0.327786 0.500000 0.500000
O O20 0.349030 0.571200 0.250000
#
# Coordination Sequence:
#
# PCOD9471815 Si02
#       8
#    16  16  16  16  16  16   4  16
#     4  10  20  32  51  80 109 142 187 240 294 360
#     4   9  18  34  56  85 115 143 182 228 294 363
#     4   9  19  36  59  83 114 151 182 235 292 344
#     4   9  18  33  50  68  97 137 185 232 281 341
#     4  12  23  40  65  87 122 164 202 251 306 353
#     4  11  21  35  52  79 118 155 198 246 294 358
#     4  12  22  44  62  90 126 160 206 252 298 366
#     4  11  23  41  62  87 118 154 207 254 296 355
#
# _framework density 20.571624
#
# number of rings (size 3 to 8) (size 9 to 14) (size 15 to 20)
#    0.000    1.793    2.069    2.276    0.000    5.793 
#    0.000    2.414    0.000    0.000    0.000    0.000 
#    0.000    0.000    0.000    0.000    0.000    0.000 
#
# Total GULP energy -323786.133755 kJ/mol
# GULP energy per Si atom -5582.519548 kJ/mol
# Density = 2.052480 g / cm^3
# Si number density = 20.571624 Si / 1000 Ang^3
#
#
#
# Elastic Constant Matrix: (Units=GPa)
#
#
# Indices 1 2 3 4 5 6 
#
# 1 138.3615 79.2084 27.0443 0.0000 0.0000 0.0000
# 2 79.2084 99.8107 20.5435 0.0000 0.0000 0.0000
# 3 27.0443 20.5435 89.8173 0.0000 0.0000 0.0000
# 4 0.0000 0.0000 0.0000 25.3778 0.0000 0.0000
# 5 0.0000 0.0000 0.0000 0.0000 -15.4188 0.0000
# 6 0.0000 0.0000 0.0000 0.0000 0.0000 87.3348
#
#
#
# Elastic Compliance Matrix: (Units=1/GPa)
#
#
# Indices 1 2 3 4 5 6 
#
# 1 0.013485 -0.010353 -0.001692 0.000000 0.000000 0.000000
# 2 -0.010353 0.018463 -0.001105 0.000000 0.000000 0.000000
# 3 -0.001692 -0.001105 0.011896 0.000000 0.000000 0.000000
# 4 0.000000 0.000000 0.000000 0.039405 0.000000 0.000000
# 5 0.000000 0.000000 0.000000 0.000000 -0.064856 0.000000
# 6 0.000000 0.000000 0.000000 0.000000 0.000000 0.011450
#
#
# Mechanical properties :
#
#
# Convention : Reuss Voigt Hill
#
# Bulk Modulus (GPa) = 57.00689 64.62020 60.81355
# Shear Modulus (GPa) = 80.65463 32.87165 56.76314
#
# Velocity S-wave (km/s) = 6.26832 4.00173 5.25860
# Velocity P-wave (km/s) = 8.95325 7.26858 8.15454
#
# Compressibility (1/GPa) = 0.01754174
#
# Stress axis : x y z
#
# Youngs Moduli (GPa) = 74.15480 54.16292 84.06091
#
# Poissons Ratio (x) = 0.56077 0.14226
# Poissons Ratio (y) = 0.76776 0.09293
# Poissons Ratio (z) = 0.12550 0.05987
#
# Static dielectric constant tensor:
#      x y z
#    x 1.732640 0.000000 0.000000 
#    y 0.000000 1.720890 0.000000 
#    z 0.000000 0.000000 1.758420 
# 
# From -- ./inp_files/14738.got.cif
#   From: 2010.05.17/outbox.cif.g08.bks.cpg/sg63_8_cif.got.tgz:14738.got - 2010.06.03 15:47:04.
