data_PCOD9471546
_publ_section_title
;
Structure prediction by ZEFSAII (Michael W. Deem and Ramdas Pophale) SiO2 
 PCOD9471546
Probable space group: C M C M
;
_chemical_formula_sum "Si O2"
_cell_formula_units_Z 112
_cell_length_a 16.163310
_cell_length_b 23.929312
_cell_length_c 14.300612
_cell_angle_alpha 90.000000
_cell_angle_beta 90.000000
_cell_angle_gamma 90.000000
_cell_volume 5531.146205
_symmetry_space_group_name_H-M "C M C M"
_symmetry_group_IT_number 63
_symmetry_cell_setting 'orthorhombic'
loop_
_space_group_symop_operation_xyz
x,y,z
-x,-y,1/2+z
x,-y,-z
-x,y,1/2-z
-x,-y,-z
x,y,1/2-z
-x,y,z
x,-y,1/2+z
1/2+x,1/2+y,z
1/2-x,1/2-y,1/2+z
1/2+x,1/2-y,-z
1/2-x,1/2+y,1/2-z
1/2-x,1/2-y,-z
1/2+x,1/2+y,1/2-z
1/2-x,1/2+y,z
1/2+x,1/2-y,1/2+z
loop_
_atom_site_type_symbol
_atom_site_label
_atom_site_fract_x
_atom_site_fract_y
_atom_site_fract_z
Si Si1 0.906504 0.735604 0.351708
Si Si2 0.590305 0.937904 0.459612
Si Si3 0.406972 0.488631 0.136369
Si Si4 0.163813 0.106690 0.358374
Si Si5 0.853319 0.385709 0.646976
Si Si6 0.242827 0.905364 0.361604
Si Si7 0.689279 0.303184 0.012255
O O1 0.895314 0.763243 0.250000
O O2 0.848153 0.681561 0.354399
O O3 0.888528 0.777835 0.433445
O O4 0.000000 0.713888 0.355983
O O5 0.500000 0.927858 0.415889
O O6 0.599057 0.901591 0.553967
O O7 0.667973 0.928614 0.392536
O O8 0.593420 0.000000 0.500000
O O9 0.406329 0.489017 0.250000
O O10 0.500000 0.472225 0.106679
O O11 0.387023 0.552614 0.108224
O O12 0.332205 0.447159 0.109820
O O13 0.142340 0.118447 0.250000
O O14 0.261112 0.089735 0.359850
O O15 0.160896 0.161682 0.422159
O O16 0.887867 0.401111 0.750000
O O17 0.239324 0.897572 0.250000
O O18 0.231125 0.848174 0.418694
O O19 0.750000 0.250000 0.000000
#
# Coordination Sequence:
#
# PCOD9471546 Si02
#       7
#    16  16  16  16  16  16  16
#     4  10  21  37  58  85 117 153 205 268 316 364
#     4  11  23  38  60  90 123 157 201 256 308 378
#     4   9  20  40  65  95 129 165 210 264 322 386
#     4  10  20  36  63  91 120 163 210 261 323 391
#     4  10  19  37  63  87 115 156 204 257 317 371
#     4  11  24  41  64  91 128 173 212 263 330 391
#     4  12  23  38  60  89 124 169 214 263 316 387
#
# _framework density 20.248968000000001
#
# number of rings (size 3 to 8) (size 9 to 14) (size 15 to 20)
#    0.000    1.571    2.857    1.714    0.000    4.571 
#    0.000    3.571    0.000    0.000    0.000    2.000 
#    0.000    0.000    0.000    0.000    0.000    0.000 
#
# Total GULP energy -312494.456818 kJ/mol
# GULP energy per Si atom -5580.258157 kJ/mol
# Density = 2.020288 g / cm^3
# Si number density = 20.248968 Si / 1000 Ang^3
#
#
#
# Elastic Constant Matrix: (Units=GPa)
#
#
# Indices 1 2 3 4 5 6 
#
# 1 121.4750 41.0648 27.4876 0.0000 0.0000 0.0000
# 2 41.0648 101.3914 48.9165 0.0000 0.0000 0.0000
# 3 27.4876 48.9165 102.9091 0.0000 0.0000 0.0000
# 4 0.0000 0.0000 0.0000 15.7467 0.0000 0.0000
# 5 0.0000 0.0000 0.0000 0.0000 29.6065 0.0000
# 6 0.0000 0.0000 0.0000 0.0000 0.0000 34.8478
#
#
#
# Elastic Compliance Matrix: (Units=1/GPa)
#
#
# Indices 1 2 3 4 5 6 
#
# 1 0.009606 -0.003442 -0.000930 0.000000 0.000000 0.000000
# 2 -0.003442 0.014031 -0.005750 0.000000 0.000000 0.000000
# 3 -0.000930 -0.005750 0.012699 0.000000 0.000000 0.000000
# 4 0.000000 0.000000 0.000000 0.063505 0.000000 0.000000
# 5 0.000000 0.000000 0.000000 0.000000 0.033776 0.000000
# 6 0.000000 0.000000 0.000000 0.000000 0.000000 0.028696
#
#
# Mechanical properties :
#
#
# Convention : Reuss Voigt Hill
#
# Bulk Modulus (GPa) = 62.14147 62.30147 62.22147
# Shear Modulus (GPa) = 26.60684 29.92731 28.26707
#
# Velocity S-wave (km/s) = 3.62883 3.84860 3.74033
# Velocity P-wave (km/s) = 6.95077 7.11221 7.03195
#
# Compressibility (1/GPa) = 0.01609231
#
# Stress axis : x y z
#
# Youngs Moduli (GPa) = 104.10036 71.27093 78.74728
#
# Poissons Ratio (x) = 0.24532 0.07321
# Poissons Ratio (y) = 0.35832 0.45280
# Poissons Ratio (z) = 0.09678 0.40981
#
# Static dielectric constant tensor:
#      x y z
#    x 1.743080 0.000000 0.000000 
#    y 0.000000 1.813120 0.000000 
#    z 0.000000 0.000000 1.798060 
# 
# From -- ./inp_files/32317.got.cif
#   From: 2010.05.17/outbox.cif.g08.bks.cpg/sg63_17_cif.got.tgz:32317.got - 2010.06.03 15:47:04.
