data_PCOD9471441
_publ_section_title
;
Structure prediction by ZEFSAII (Michael W. Deem and Ramdas Pophale) SiO2 
 PCOD9471441
Probable space group: C M C M
;
_chemical_formula_sum "Si O2"
_cell_formula_units_Z 96
_cell_length_a 8.294693
_cell_length_b 29.715542
_cell_length_c 21.074425
_cell_angle_alpha 90.000000
_cell_angle_beta 90.000000
_cell_angle_gamma 90.000000
_cell_volume 5194.451633
_symmetry_space_group_name_H-M "C M C M"
_symmetry_group_IT_number 63
_symmetry_cell_setting 'orthorhombic'
loop_
_space_group_symop_operation_xyz
x,y,z
-x,-y,1/2+z
x,-y,-z
-x,y,1/2-z
-x,-y,-z
x,y,1/2-z
-x,y,z
x,-y,1/2+z
1/2+x,1/2+y,z
1/2-x,1/2-y,1/2+z
1/2+x,1/2-y,-z
1/2-x,1/2+y,1/2-z
1/2-x,1/2-y,-z
1/2+x,1/2+y,1/2-z
1/2-x,1/2+y,z
1/2+x,1/2-y,1/2+z
loop_
_atom_site_type_symbol
_atom_site_label
_atom_site_fract_x
_atom_site_fract_y
_atom_site_fract_z
Si Si1 0.310227 0.874100 0.013953
Si Si2 0.695103 0.531070 0.939627
Si Si3 0.806013 0.779319 0.060146
Si Si4 0.306823 0.221624 0.320709
Si Si5 0.803121 0.970855 0.678447
Si Si6 0.809214 0.126527 0.370616
O O1 0.500000 0.871943 0.001536
O O2 0.266517 0.919683 0.050500
O O3 0.257225 0.829680 0.051438
O O4 0.222302 0.874573 0.945830
O O5 0.500000 0.534657 0.939172
O O6 0.747906 0.505967 0.875492
O O7 0.738715 0.500000 0.000000
O O8 0.746763 0.754816 0.124122
O O9 0.000000 0.780035 0.060395
O O10 0.750000 0.750000 0.000000
O O11 0.242838 0.230492 0.250000
O O12 0.500000 0.226741 0.318915
O O13 0.270122 0.170545 0.340838
O O14 0.752136 0.981705 0.750000
O O15 0.750935 0.920499 0.659193
O O16 0.000000 0.970526 0.677252
O O17 0.000000 0.129679 0.359207
#
# Coordination Sequence:
#
# PCOD9471441 Si02
#       6
#    16  16  16  16  16  16
#     4  12  24  37  56  85 117 150 193 240 286 337
#     4  10  19  36  59  83 111 147 189 235 283 337
#     4  11  22  38  61  86 115 152 192 237 285 340
#     4  10  22  39  58  85 120 153 187 233 291 350
#     4   9  18  33  55  84 115 146 184 230 283 342
#     4  11  20  34  58  87 118 150 189 237 287 343
#
# _framework density 18.481258
#
# number of rings (size 3 to 8) (size 9 to 14) (size 15 to 20)
#    0.000    1.500    3.333    3.000    0.000    2.000 
#    0.000    0.833    0.000    7.500    0.000    0.000 
#    0.000    0.000    0.000    0.000    0.000    0.000 
#
# Total GULP energy -268184.389456 kJ/mol
# GULP energy per Si atom -5587.174780 kJ/mol
# Density = 1.843919 g / cm^3
# Si number density = 18.481258 Si / 1000 Ang^3
#
#
#
# Elastic Constant Matrix: (Units=GPa)
#
#
# Indices 1 2 3 4 5 6 
#
# 1 8.8199 3.3126 -5.3992 0.0000 0.0000 0.0000
# 2 3.3126 143.3296 73.0668 0.0000 0.0000 0.0000
# 3 -5.3992 73.0668 155.5430 0.0000 0.0000 0.0000
# 4 0.0000 0.0000 0.0000 14.7233 0.0000 0.0000
# 5 0.0000 0.0000 0.0000 0.0000 14.0045 0.0000
# 6 0.0000 0.0000 0.0000 0.0000 0.0000 27.8858
#
#
#
# Elastic Compliance Matrix: (Units=1/GPa)
#
#
# Indices 1 2 3 4 5 6 
#
# 1 0.120212 -0.006450 0.007203 0.000000 0.000000 0.000000
# 2 -0.006450 0.009520 -0.004696 0.000000 0.000000 0.000000
# 3 0.007203 -0.004696 0.008885 0.000000 0.000000 0.000000
# 4 0.000000 0.000000 0.000000 0.067920 0.000000 0.000000
# 5 0.000000 0.000000 0.000000 0.000000 0.071406 0.000000
# 6 0.000000 0.000000 0.000000 0.000000 0.000000 0.035861
#
#
# Mechanical properties :
#
#
# Convention : Reuss Voigt Hill
#
# Bulk Modulus (GPa) = 7.64936 49.96145 28.80540
# Shear Modulus (GPa) = 13.68868 27.10355 20.39611
#
# Velocity S-wave (km/s) = 2.72449 3.83370 3.32567
# Velocity P-wave (km/s) = 3.74768 6.83291 5.51061
#
# Compressibility (1/GPa) = 0.13072989
#
# Stress axis : x y z
#
# Youngs Moduli (GPa) = 8.31867 105.04341 112.54903
#
# Poissons Ratio (x) = 0.67754 -0.81066
# Poissons Ratio (y) = 0.05366 0.52852
# Poissons Ratio (z) = -0.05992 0.49327
#
# Static dielectric constant tensor:
#      x y z
#    x 1.643870 0.000000 0.000000 
#    y 0.000000 1.603750 0.000000 
#    z 0.000000 0.000000 1.620760 
# 
# From -- ./inp_files/51312.got.cif
#   From: 2010.05.17/outbox.cif.g08.bks.cpg/sg63_26_cif.got.tgz:51312.got - 2010.06.03 15:47:04.
