data_PCOD9471289
_publ_section_title
;
Structure prediction by ZEFSAII (Michael W. Deem and Ramdas Pophale) SiO2 
 PCOD9471289
Probable space group: C M C M
;
_chemical_formula_sum "Si O2"
_cell_formula_units_Z 80
_cell_length_a 25.746244
_cell_length_b 19.164903
_cell_length_c 7.993166
_cell_angle_alpha 90.000000
_cell_angle_beta 90.000000
_cell_angle_gamma 90.000000
_cell_volume 3944.022090
_symmetry_space_group_name_H-M "C M C M"
_symmetry_group_IT_number 63
_symmetry_cell_setting 'orthorhombic'
loop_
_space_group_symop_operation_xyz
x,y,z
-x,-y,1/2+z
x,-y,-z
-x,y,1/2-z
-x,-y,-z
x,y,1/2-z
-x,y,z
x,-y,1/2+z
1/2+x,1/2+y,z
1/2-x,1/2-y,1/2+z
1/2+x,1/2-y,-z
1/2-x,1/2+y,1/2-z
1/2-x,1/2-y,-z
1/2+x,1/2+y,1/2-z
1/2-x,1/2+y,z
1/2+x,1/2-y,1/2+z
loop_
_atom_site_type_symbol
_atom_site_label
_atom_site_fract_x
_atom_site_fract_y
_atom_site_fract_z
Si Si1 0.500000 0.579227 0.048287
Si Si2 0.718356 0.179143 0.547603
Si Si3 0.694286 0.420421 0.051421
Si Si4 0.904594 0.167704 0.048448
Si Si5 0.000000 0.581397 0.952163
Si Si6 0.098209 0.674657 0.545592
O O1 0.500000 0.584537 0.250000
O O2 0.449160 0.617371 0.983705
O O3 0.500000 0.500000 0.000000
O O4 0.716600 0.180179 0.750000
O O5 0.750000 0.250000 0.500000
O O6 0.752249 0.113329 0.487367
O O7 0.658680 0.169164 0.490782
O O8 0.696593 0.420466 0.250000
O O9 0.684417 0.500000 0.000000
O O10 0.649756 0.366303 0.999548
O O11 0.905982 0.169110 0.250000
O O12 0.915237 0.246373 0.993721
O O13 0.053031 0.621129 0.009948
O O14 0.000000 0.585746 0.750000
O O15 0.000000 0.500000 0.000000
O O16 0.098500 0.671215 0.750000
#
# Coordination Sequence:
#
# PCOD9471289 Si02
#       6
#     8  16  16  16   8  16
#     4  10  21  33  49  75 103 138 180 220 268 326
#     4  10  20  36  58  84 112 146 190 236 285 341
#     4  11  23  36  53  81 115 149 186 228 280 338
#     4  10  19  35  58  80 106 142 187 232 280 336
#     4  10  21  39  61  87 119 154 195 242 292 348
#     4   9  18  35  61  85 109 145 187 233 286 341
#
# _framework density 20.283861999999999
#
# number of rings (size 3 to 8) (size 9 to 14) (size 15 to 20)
#    0.000    2.000    2.000    1.800    0.000    6.400 
#    0.000    2.000    0.000    1.200    0.000    0.000 
#    0.000    0.000    0.000    0.000    0.000    0.000 
#
# Total GULP energy -223111.411843 kJ/mol
# GULP energy per Si atom -5577.785296 kJ/mol
# Density = 2.023769 g / cm^3
# Si number density = 20.283862 Si / 1000 Ang^3
#
#
#
# Elastic Constant Matrix: (Units=GPa)
#
#
# Indices 1 2 3 4 5 6 
#
# 1 180.5403 96.7100 10.7619 0.0000 0.0000 0.0000
# 2 96.7100 173.4122 8.1687 0.0000 0.0000 0.0000
# 3 10.7619 8.1687 13.2410 0.0000 0.0000 0.0000
# 4 0.0000 0.0000 0.0000 22.5944 0.0000 0.0000
# 5 0.0000 0.0000 0.0000 0.0000 18.3257 0.0000
# 6 0.0000 0.0000 0.0000 0.0000 0.0000 42.4593
#
#
#
# Elastic Compliance Matrix: (Units=1/GPa)
#
#
# Indices 1 2 3 4 5 6 
#
# 1 0.008090 -0.004328 -0.003905 0.000000 0.000000 0.000000
# 2 -0.004328 0.008254 -0.001575 0.000000 0.000000 0.000000
# 3 -0.003905 -0.001575 0.079669 0.000000 0.000000 0.000000
# 4 0.000000 0.000000 0.000000 0.044259 0.000000 0.000000
# 5 0.000000 0.000000 0.000000 0.000000 0.054568 0.000000
# 6 0.000000 0.000000 0.000000 0.000000 0.000000 0.023552
#
#
# Mechanical properties :
#
#
# Convention : Reuss Voigt Hill
#
# Bulk Modulus (GPa) = 13.08953 66.49718 39.79335
# Shear Modulus (GPa) = 18.97725 33.44606 26.21165
#
# Velocity S-wave (km/s) = 3.06205 4.06507 3.59868
# Velocity P-wave (km/s) = 4.35531 7.40861 6.07685
#
# Compressibility (1/GPa) = 0.07639695
#
# Stress axis : x y z
#
# Youngs Moduli (GPa) = 123.61018 121.14894 12.55200
#
# Poissons Ratio (x) = 0.52430 0.04902
# Poissons Ratio (y) = 0.53495 0.01977
# Poissons Ratio (z) = 0.48275 0.19079
#
# Static dielectric constant tensor:
#      x y z
#    x 1.795940 0.000000 0.000000 
#    y 0.000000 1.696070 0.000000 
#    z 0.000000 0.000000 1.739220 
# 
# From -- ./inp_files/12091.got.cif
#   From: 2010.05.17/outbox.cif.g08.bks.cpg/sg63_7_cif.got.tgz:12091.got - 2010.06.03 15:47:04.
