data_PCOD9471143
_publ_section_title
;
Structure prediction by ZEFSAII (Michael W. Deem and Ramdas Pophale) SiO2 
 PCOD9471143
Probable space group: C M C M
;
_chemical_formula_sum "Si O2"
_cell_formula_units_Z 112
_cell_length_a 27.062128
_cell_length_b 9.956589
_cell_length_c 21.207962
_cell_angle_alpha 90.000000
_cell_angle_beta 90.000000
_cell_angle_gamma 90.000000
_cell_volume 5714.410835
_symmetry_space_group_name_H-M "C M C M"
_symmetry_group_IT_number 63
_symmetry_cell_setting 'orthorhombic'
loop_
_space_group_symop_operation_xyz
x,y,z
-x,-y,1/2+z
x,-y,-z
-x,y,1/2-z
-x,-y,-z
x,y,1/2-z
-x,y,z
x,-y,1/2+z
1/2+x,1/2+y,z
1/2-x,1/2-y,1/2+z
1/2+x,1/2-y,-z
1/2-x,1/2+y,1/2-z
1/2-x,1/2-y,-z
1/2+x,1/2+y,1/2-z
1/2-x,1/2+y,z
1/2+x,1/2-y,1/2+z
loop_
_atom_site_type_symbol
_atom_site_label
_atom_site_fract_x
_atom_site_fract_y
_atom_site_fract_z
Si Si1 0.667409 0.205598 0.632521
Si Si2 0.644509 0.916022 0.821952
Si Si3 0.944612 0.612706 0.409918
Si Si4 0.863670 0.000243 0.676944
Si Si5 0.943822 0.980017 0.926843
Si Si6 0.579692 0.812185 0.451393
Si Si7 0.275008 0.289397 0.175258
O O1 0.652289 0.346072 0.664270
O O2 0.637866 0.195246 0.566299
O O3 0.726332 0.195873 0.633695
O O4 0.648224 0.075623 0.670300
O O5 0.637151 0.877903 0.750000
O O6 0.598845 0.861602 0.861385
O O7 0.695956 0.847250 0.841108
O O8 0.932581 0.688099 0.474964
O O9 0.940839 0.453274 0.425947
O O10 0.000000 0.642891 0.388686
O O11 0.879641 0.015301 0.750000
O O12 0.905948 0.033299 0.625527
O O13 0.815461 0.093360 0.667755
O O14 0.943608 0.818077 0.919371
O O15 0.000000 0.030474 0.920407
O O16 0.927786 0.000000 0.000000
O O17 0.260443 0.286305 0.250000
#
# Coordination Sequence:
#
# PCOD9471143 Si02
#       7
#    16  16  16  16  16  16  16
#     4  10  19  35  59  82 107 142 181 223 273 327
#     4  10  21  34  53  83 111 139 185 228 262 323
#     4  10  19  34  58  78 107 146 176 220 279 325
#     4  10  21  36  57  84 113 143 181 227 273 327
#     4  10  21  36  57  79 107 147 187 225 270 325
#     4   9  19  35  55  82 105 133 187 226 264 328
#     4  10  20  35  55  81 113 147 179 216 272 329
#
# _framework density 19.59957
#
# number of rings (size 3 to 8) (size 9 to 14) (size 15 to 20)
#    0.000    2.143    0.000    3.857    2.000    2.857 
#    0.000    0.714    6.286    7.714    0.000    0.000 
#    0.000    0.000    0.000    0.000    0.000    0.000 
#
# Total GULP energy -312538.008721 kJ/mol
# GULP energy per Si atom -5581.035870 kJ/mol
# Density = 1.955496 g / cm^3
# Si number density = 19.599570 Si / 1000 Ang^3
#
#
#
# Elastic Constant Matrix: (Units=GPa)
#
#
# Indices 1 2 3 4 5 6 
#
# 1 140.9050 1.6292 59.2954 0.0000 0.0000 0.0000
# 2 1.6292 76.5690 -1.4800 0.0000 0.0000 0.0000
# 3 59.2954 -1.4800 55.6400 0.0000 0.0000 0.0000
# 4 0.0000 0.0000 0.0000 18.9506 0.0000 0.0000
# 5 0.0000 0.0000 0.0000 0.0000 -65.1833 0.0000
# 6 0.0000 0.0000 0.0000 0.0000 0.0000 17.5371
#
#
#
# Elastic Compliance Matrix: (Units=1/GPa)
#
#
# Indices 1 2 3 4 5 6 
#
# 1 0.012890 -0.000540 -0.013751 0.000000 0.000000 0.000000
# 2 -0.000540 0.013089 0.000924 0.000000 0.000000 0.000000
# 3 -0.013751 0.000924 0.032652 0.000000 0.000000 0.000000
# 4 0.000000 0.000000 0.000000 0.052769 0.000000 0.000000
# 5 0.000000 0.000000 0.000000 0.000000 -0.015341 0.000000
# 6 0.000000 0.000000 0.000000 0.000000 0.000000 0.057022
#
#
# Mechanical properties :
#
#
# Convention : Reuss Voigt Hill
#
# Bulk Modulus (GPa) = 31.35163 43.55590 37.45376
# Shear Modulus (GPa) = 26.25392 8.50551 17.37971
#
# Velocity S-wave (km/s) = 3.66391 2.08544 2.98105
# Velocity P-wave (km/s) = 5.82493 5.29810 5.56775
#
# Compressibility (1/GPa) = 0.03189627
#
# Stress axis : x y z
#
# Youngs Moduli (GPa) = 77.57975 76.39732 30.62615
#
# Poissons Ratio (x) = 0.04126 0.42115
# Poissons Ratio (y) = 0.04190 -0.02829
# Poissons Ratio (z) = 1.06681 -0.07057
#
# Static dielectric constant tensor:
#      x y z
#    x 1.679280 0.000000 0.000000 
#    y 0.000000 1.739190 0.000000 
#    z 0.000000 0.000000 1.661860 
# 
# From -- ./inp_files/57605.got.cif
#   From: 2010.05.17/outbox.cif.g08.bks.cpg/sg63_29_cif.got.tgz:57605.got - 2010.06.03 15:47:04.
