data_PCOD9471971
_publ_section_title
;
Structure prediction by ZEFSAII (Michael W. Deem and Ramdas Pophale) SiO2 
 PCOD9471971
Probable space group: C M C M
;
_chemical_formula_sum "Si O2"
_cell_formula_units_Z 72
_cell_length_a 14.532585
_cell_length_b 29.298836
_cell_length_c 9.353149
_cell_angle_alpha 90.000000
_cell_angle_beta 90.000000
_cell_angle_gamma 90.000000
_cell_volume 3982.456966
_symmetry_space_group_name_H-M "C M C M"
_symmetry_group_IT_number 63
_symmetry_cell_setting 'orthorhombic'
loop_
_space_group_symop_operation_xyz
x,y,z
-x,-y,1/2+z
x,-y,-z
-x,y,1/2-z
-x,-y,-z
x,y,1/2-z
-x,y,z
x,-y,1/2+z
1/2+x,1/2+y,z
1/2-x,1/2-y,1/2+z
1/2+x,1/2-y,-z
1/2-x,1/2+y,1/2-z
1/2-x,1/2-y,-z
1/2+x,1/2+y,1/2-z
1/2-x,1/2+y,z
1/2+x,1/2-y,1/2+z
loop_
_atom_site_type_symbol
_atom_site_label
_atom_site_fract_x
_atom_site_fract_y
_atom_site_fract_z
Si Si1 0.892377 0.960063 0.592961
Si Si2 0.647137 0.628883 0.918819
Si Si3 0.000000 0.299754 0.418582
Si Si4 0.500000 0.704540 0.920767
Si Si5 0.000000 0.550059 0.424765
Si Si6 0.364267 0.118863 0.919693
O O1 0.850427 0.956630 0.750000
O O2 0.889296 0.913060 0.509809
O O3 0.000000 0.971718 0.610117
O O4 0.847514 0.000000 0.500000
O O5 0.629730 0.621048 0.750000
O O6 0.590228 0.674241 0.957841
O O7 0.756476 0.627519 0.941522
O O8 0.000000 0.253122 0.504159
O O9 0.914541 0.333163 0.449520
O O10 0.000000 0.289333 0.250000
O O11 0.500000 0.710928 0.750000
O O12 0.000000 0.500000 0.500000
O O13 0.912541 0.579685 0.484796
O O14 0.000000 0.547300 0.250000
O O15 0.379323 0.108075 0.750000
#
# Coordination Sequence:
#
# PCOD9471971 Si02
#       6
#    16  16   8   8   8  16
#     4  10  20  33  51  75 106 144 183 222 267 320
#     4  10  20  36  57  81 112 148 187 231 277 327
#     4   9  19  37  57  78 107 144 186 229 284 338
#     4  10  21  35  55  83 113 145 186 230 276 330
#     4  11  22  38  62  89 116 147 184 229 277 328
#     4   9  20  39  60  82 112 149 186 229 280 331
#
# _framework density 18.079291999999999
#
# number of rings (size 3 to 8) (size 9 to 14) (size 15 to 20)
#    0.000    2.222    1.111    2.333    0.000    6.222 
#    0.000    0.000    0.000    0.000    0.000    0.000 
#    0.000    0.000    0.000    0.000    0.000    0.000 
#
# Total GULP energy -200634.833426 kJ/mol
# GULP energy per Si atom -5573.189817 kJ/mol
# Density = 1.803814 g / cm^3
# Si number density = 18.079292 Si / 1000 Ang^3
#
#
#
# Elastic Constant Matrix: (Units=GPa)
#
#
# Indices 1 2 3 4 5 6 
#
# 1 86.7581 43.5705 55.5322 0.0000 0.0000 0.0000
# 2 43.5705 165.1252 93.9531 0.0000 0.0000 0.0000
# 3 55.5322 93.9531 98.1297 0.0000 0.0000 0.0000
# 4 0.0000 0.0000 0.0000 34.2226 0.0000 0.0000
# 5 0.0000 0.0000 0.0000 0.0000 24.5507 0.0000
# 6 0.0000 0.0000 0.0000 0.0000 0.0000 18.4323
#
#
#
# Elastic Compliance Matrix: (Units=1/GPa)
#
#
# Indices 1 2 3 4 5 6 
#
# 1 0.018482 0.002360 -0.012719 0.000000 0.000000 0.000000
# 2 0.002360 0.013604 -0.014361 0.000000 0.000000 0.000000
# 3 -0.012719 -0.014361 0.031138 0.000000 0.000000 0.000000
# 4 0.000000 0.000000 0.000000 0.029220 0.000000 0.000000
# 5 0.000000 0.000000 0.000000 0.000000 0.040732 0.000000
# 6 0.000000 0.000000 0.000000 0.000000 0.000000 0.054253
#
#
# Mechanical properties :
#
#
# Convention : Reuss Voigt Hill
#
# Bulk Modulus (GPa) = 72.54182 81.79162 77.16672
# Shear Modulus (GPa) = 20.70711 25.90494 23.30602
#
# Velocity S-wave (km/s) = 3.38797 3.78941 3.59430
# Velocity P-wave (km/s) = 7.45090 8.03025 7.74599
#
# Compressibility (1/GPa) = 0.01378515
#
# Stress axis : x y z
#
# Youngs Moduli (GPa) = 54.10660 73.50604 32.11551
#
# Poissons Ratio (x) = -0.17346 0.40846
# Poissons Ratio (y) = -0.12768 0.46120
# Poissons Ratio (z) = 0.68816 1.05560
#
# Static dielectric constant tensor:
#      x y z
#    x 1.699560 0.000000 0.000000 
#    y 0.000000 1.576860 0.000000 
#    z 0.000000 0.000000 1.650100 
# 
# From -- ./inp_files/4679.got.cif
#   From: 2010.05.17/outbox.cif.g08.bks.cpg/sg63_3_cif.got.tgz:4679.got - 2010.06.03 15:47:04.
