data_PCOD9471710
_publ_section_title
;
Structure prediction by ZEFSAII (Michael W. Deem and Ramdas Pophale) SiO2 
 PCOD9471710
Probable space group: C M C M
;
_chemical_formula_sum "Si O2"
_cell_formula_units_Z 96
_cell_length_a 9.847422
_cell_length_b 32.109659
_cell_length_c 14.909211
_cell_angle_alpha 90.000000
_cell_angle_beta 90.000000
_cell_angle_gamma 90.000000
_cell_volume 4714.253194
_symmetry_space_group_name_H-M "C M C M"
_symmetry_group_IT_number 63
_symmetry_cell_setting 'orthorhombic'
loop_
_space_group_symop_operation_xyz
x,y,z
-x,-y,1/2+z
x,-y,-z
-x,y,1/2-z
-x,-y,-z
x,y,1/2-z
-x,y,z
x,-y,1/2+z
1/2+x,1/2+y,z
1/2-x,1/2-y,1/2+z
1/2+x,1/2-y,-z
1/2-x,1/2+y,1/2-z
1/2-x,1/2-y,-z
1/2+x,1/2+y,1/2-z
1/2-x,1/2+y,z
1/2+x,1/2-y,1/2+z
loop_
_atom_site_type_symbol
_atom_site_label
_atom_site_fract_x
_atom_site_fract_y
_atom_site_fract_z
Si Si1 0.664526 0.882486 0.645340
Si Si2 0.847080 0.719537 0.890002
Si Si3 0.153114 0.857809 0.357493
Si Si4 0.657323 0.026841 0.360074
Si Si5 0.843199 0.048958 0.640542
Si Si6 0.346662 0.790887 0.600465
O O1 0.701814 0.879256 0.750000
O O2 0.500000 0.884662 0.640315
O O3 0.711293 0.927609 0.610672
O O4 0.703748 0.838668 0.601997
O O5 0.761617 0.677697 0.875391
O O6 0.758576 0.758665 0.856914
O O7 0.000000 0.717732 0.853860
O O8 0.859634 0.722627 0.997460
O O9 0.142734 0.860650 0.250000
O O10 0.193574 0.904145 0.389095
O O11 0.000000 0.847787 0.391313
O O12 0.659080 0.027871 0.250000
O O13 0.500000 0.021931 0.386421
O O14 0.745671 0.987817 0.390594
O O15 0.837218 0.048573 0.750000
O O16 0.000000 0.041489 0.615922
O O17 0.500000 0.789418 0.639897
#
# Coordination Sequence:
#
# PCOD9471710 Si02
#       6
#    16  16  16  16  16  16
#     4   8  14  26  46  70  91 114 149 187 218 257
#     4  10  20  32  47  68  92 118 151 192 233 270
#     4   9  18  32  49  68  90 119 154 188 224 270
#     4   8  13  22  39  64  90 113 140 177 218 257
#     4   8  14  25  41  62  88 116 145 177 216 265
#     4   9  18  33  50  66  89 123 157 185 221 275
#
# _framework density 20.363778
#
# number of rings (size 3 to 8) (size 9 to 14) (size 15 to 20)
#    0.000    3.333    0.000    2.500    0.000    2.333 
#    0.000    4.167    0.000    2.000    0.000    7.000 
#    0.000    0.000    0.000    0.000    0.000    0.000 
#
# Total GULP energy -267411.448599 kJ/mol
# GULP energy per Si atom -5571.071846 kJ/mol
# Density = 2.031743 g / cm^3
# Si number density = 20.363778 Si / 1000 Ang^3
#
#
#
# Elastic Constant Matrix: (Units=GPa)
#
#
# Indices 1 2 3 4 5 6 
#
# 1 114.5037 123.1677 4.5929 0.0000 0.0000 0.0000
# 2 123.1677 202.6326 -1.3834 0.0000 0.0000 0.0000
# 3 4.5929 -1.3834 28.0173 0.0000 0.0000 0.0000
# 4 0.0000 0.0000 0.0000 25.6805 0.0000 0.0000
# 5 0.0000 0.0000 0.0000 0.0000 1.5210 0.0000
# 6 0.0000 0.0000 0.0000 0.0000 0.0000 33.1179
#
#
#
# Elastic Compliance Matrix: (Units=1/GPa)
#
#
# Indices 1 2 3 4 5 6 
#
# 1 0.025918 -0.015788 -0.005028 0.000000 0.000000 0.000000
# 2 -0.015788 0.014554 0.003307 0.000000 0.000000 0.000000
# 3 -0.005028 0.003307 0.036680 0.000000 0.000000 0.000000
# 4 0.000000 0.000000 0.000000 0.038940 0.000000 0.000000
# 5 0.000000 0.000000 0.000000 0.000000 0.657463 0.000000
# 6 0.000000 0.000000 0.000000 0.000000 0.000000 0.030195
#
#
# Mechanical properties :
#
#
# Convention : Reuss Voigt Hill
#
# Bulk Modulus (GPa) = 23.73460 66.43422 45.08441
# Shear Modulus (GPa) = 5.86294 26.64898 16.25596
#
# Velocity S-wave (km/s) = 1.69863 3.62145 2.82845
# Velocity P-wave (km/s) = 3.94053 7.08386 5.73188
#
# Compressibility (1/GPa) = 0.04213259
#
# Stress axis : x y z
#
# Youngs Moduli (GPa) = 38.58355 68.70853 27.26293
#
# Poissons Ratio (x) = 1.08478 0.13709
# Poissons Ratio (y) = 0.60916 -0.09015
# Poissons Ratio (z) = 0.19401 -0.22721
#
# Static dielectric constant tensor:
#      x y z
#    x 1.727470 0.000000 0.000000 
#    y 0.000000 1.738290 0.000000 
#    z 0.000000 0.000000 1.760600 
# 
# From -- ./inp_files/60250.got.cif
#   From: 2010.05.17/outbox.cif.g08.bks.cpg/sg63_31_cif.got.tgz:60250.got - 2010.06.03 15:47:04.
