data_PCOD9471551
_publ_section_title
;
Structure prediction by ZEFSAII (Michael W. Deem and Ramdas Pophale) SiO2 
 PCOD9471551
Probable space group: C M C M
;
_chemical_formula_sum "Si O2"
_cell_formula_units_Z 100
_cell_length_a 7.670409
_cell_length_b 30.134145
_cell_length_c 20.815948
_cell_angle_alpha 90.000000
_cell_angle_beta 90.000000
_cell_angle_gamma 90.000000
_cell_volume 4811.423554
_symmetry_space_group_name_H-M "C M C M"
_symmetry_group_IT_number 63
_symmetry_cell_setting 'orthorhombic'
loop_
_space_group_symop_operation_xyz
x,y,z
-x,-y,1/2+z
x,-y,-z
-x,y,1/2-z
-x,-y,-z
x,y,1/2-z
-x,y,z
x,-y,1/2+z
1/2+x,1/2+y,z
1/2-x,1/2-y,1/2+z
1/2+x,1/2-y,-z
1/2-x,1/2+y,1/2-z
1/2-x,1/2-y,-z
1/2+x,1/2+y,1/2-z
1/2-x,1/2+y,z
1/2+x,1/2-y,1/2+z
loop_
_atom_site_type_symbol
_atom_site_label
_atom_site_fract_x
_atom_site_fract_y
_atom_site_fract_z
Si Si1 0.213400 0.464179 0.676846
Si Si2 0.500000 0.831937 0.250000
Si Si3 0.198762 0.370616 0.622145
Si Si4 0.798264 0.183516 0.858381
Si Si5 0.201709 0.874781 0.477713
Si Si6 0.297173 0.277499 0.676610
Si Si7 0.711194 0.972143 0.437016
O O1 0.266550 0.472352 0.750000
O O2 0.272928 0.415701 0.652824
O O3 0.269200 0.501553 0.626315
O O4 0.000000 0.463725 0.674989
O O5 0.343903 0.830916 0.305802
O O6 0.201012 0.375290 0.545400
O O7 0.285584 0.325087 0.643771
O O8 0.000000 0.367165 0.645051
O O9 0.747030 0.162617 0.926800
O O10 0.794740 0.237079 0.859025
O O11 0.000000 0.169610 0.844617
O O12 0.223102 0.922328 0.443740
O O13 0.000000 0.867779 0.494421
O O14 0.231080 0.280222 0.750000
O O15 0.500000 0.264585 0.680649
O O16 0.500000 0.970509 0.436700
O O17 0.764116 0.000000 0.500000
#
# Coordination Sequence:
#
# PCOD9471551 Si02
#       7
#    16   4  16  16  16  16  16
#     4   9  18  35  57  90 124 158 207 267 327 390
#     4  12  22  44  72  98 122 180 212 278 328 386
#     4  11  22  37  63  90 125 167 214 269 325 385
#     4  11  24  43  67  96 132 169 219 272 325 391
#     4  11  25  42  61  92 127 167 214 266 324 392
#     4  11  22  40  63  93 128 172 219 265 325 390
#     4  10  19  37  64  89 119 161 211 260 318 393
#
# _framework density 20.78387
#
# number of rings (size 3 to 8) (size 9 to 14) (size 15 to 20)
#    0.000    1.440    3.200    2.160    2.240    2.560 
#    1.440    0.000    0.000    1.920    0.000    0.000 
#    0.000    0.000    0.000    0.000    0.000    0.000 
#
# Total GULP energy -278828.431464 kJ/mol
# GULP energy per Si atom -5576.568629 kJ/mol
# Density = 2.073656 g / cm^3
# Si number density = 20.783870 Si / 1000 Ang^3
#
#
#
# Elastic Constant Matrix: (Units=GPa)
#
#
# Indices 1 2 3 4 5 6 
#
# 1 57.0206 -7.9511 3.2290 0.0000 0.0000 0.0000
# 2 -7.9511 114.5320 71.9102 0.0000 0.0000 0.0000
# 3 3.2290 71.9102 137.1403 0.0000 0.0000 0.0000
# 4 0.0000 0.0000 0.0000 10.9377 0.0000 0.0000
# 5 0.0000 0.0000 0.0000 0.0000 17.4502 0.0000
# 6 0.0000 0.0000 0.0000 0.0000 0.0000 40.5685
#
#
#
# Elastic Compliance Matrix: (Units=1/GPa)
#
#
# Indices 1 2 3 4 5 6 
#
# 1 0.017942 0.002252 -0.001603 0.000000 0.000000 0.000000
# 2 0.002252 0.013299 -0.007027 0.000000 0.000000 0.000000
# 3 -0.001603 -0.007027 0.011014 0.000000 0.000000 0.000000
# 4 0.000000 0.000000 0.000000 0.091427 0.000000 0.000000
# 5 0.000000 0.000000 0.000000 0.000000 0.057306 0.000000
# 6 0.000000 0.000000 0.000000 0.000000 0.000000 0.024650
#
#
# Mechanical properties :
#
#
# Convention : Reuss Voigt Hill
#
# Bulk Modulus (GPa) = 33.89801 49.22989 41.56395
# Shear Modulus (GPa) = 20.98842 29.89162 25.44002
#
# Velocity S-wave (km/s) = 3.18125 3.79649 3.50241
# Velocity P-wave (km/s) = 5.46251 6.55407 6.03302
#
# Compressibility (1/GPa) = 0.02950025
#
# Stress axis : x y z
#
# Youngs Moduli (GPa) = 55.73394 75.19219 90.79380
#
# Poissons Ratio (x) = -0.16936 0.14559
# Poissons Ratio (y) = -0.12553 0.63797
# Poissons Ratio (z) = 0.08937 0.52834
#
# Static dielectric constant tensor:
#      x y z
#    x 1.797770 0.000000 0.000000 
#    y 0.000000 1.726410 0.000000 
#    z 0.000000 0.000000 1.710620 
# 
# From -- ./inp_files/51682.got.cif
#   From: 2010.05.17/outbox.cif.g08.bks.cpg/sg63_26_cif.got.tgz:51682.got - 2010.06.03 15:47:04.
