data_PCOD9471401
_publ_section_title
;
Structure prediction by ZEFSAII (Michael W. Deem and Ramdas Pophale) SiO2 
 PCOD9471401
Probable space group: C M C M
;
_chemical_formula_sum "Si O2"
_cell_formula_units_Z 52
_cell_length_a 17.526808
_cell_length_b 8.082631
_cell_length_c 13.519380
_cell_angle_alpha 90.000000
_cell_angle_beta 90.000000
_cell_angle_gamma 90.000000
_cell_volume 1915.192166
_symmetry_space_group_name_H-M "C M C M"
_symmetry_group_IT_number 63
_symmetry_cell_setting 'orthorhombic'
loop_
_space_group_symop_operation_xyz
x,y,z
-x,-y,1/2+z
x,-y,-z
-x,y,1/2-z
-x,-y,-z
x,y,1/2-z
-x,y,z
x,-y,1/2+z
1/2+x,1/2+y,z
1/2-x,1/2-y,1/2+z
1/2+x,1/2-y,-z
1/2-x,1/2+y,1/2-z
1/2-x,1/2-y,-z
1/2+x,1/2+y,1/2-z
1/2-x,1/2+y,z
1/2+x,1/2-y,1/2+z
loop_
_atom_site_type_symbol
_atom_site_label
_atom_site_fract_x
_atom_site_fract_y
_atom_site_fract_z
Si Si1 0.633401 0.351724 0.861809
Si Si2 0.579358 0.752843 0.565358
Si Si3 0.293012 0.987527 0.861343
Si Si4 0.500000 0.603975 0.750000
O O1 0.597222 0.356673 0.750000
O O2 0.703560 0.476020 0.882953
O O3 0.677363 0.173414 0.861233
O O4 0.582463 0.333200 0.958965
O O5 0.500000 0.856042 0.571711
O O6 0.652518 0.867873 0.577094
O O7 0.565261 0.632903 0.659696
O O8 0.300620 0.922177 0.750000
#
# Coordination Sequence:
#
# PCOD9471401 Si02
#       4
#    16  16  16   4
#     4  10  22  34  59  85 117 150 187 236 283 338
#     4  10  19  36  56  81 115 149 191 232 288 340
#     4  10  19  37  55  85 114 149 191 232 285 338
#     4   8  20  36  56  80 118 154 178 242 288 346
#
# _framework density 27.151323000000001
#
# number of rings (size 3 to 8) (size 9 to 14) (size 15 to 20)
#    0.923    1.231    1.538    1.846    0.000    3.077 
#    0.000    3.077    0.000    3.692    0.000    8.615 
#    0.000    2.462    0.000    0.000    0.000    0.000 
#
# Total GULP energy -144941.673623 kJ/mol
# GULP energy per Si atom -5574.679755 kJ/mol
# Density = 2.708953 g / cm^3
# Si number density = 27.151323 Si / 1000 Ang^3
#
#
#
# Elastic Constant Matrix: (Units=GPa)
#
#
# Indices 1 2 3 4 5 6 
#
# 1 114.3848 -27.5788 34.8330 0.0000 0.0000 0.0000
# 2 -27.5788 39.2674 15.4013 0.0000 0.0000 0.0000
# 3 34.8330 15.4013 254.7388 0.0000 0.0000 0.0000
# 4 0.0000 0.0000 0.0000 59.9417 0.0000 0.0000
# 5 0.0000 0.0000 0.0000 0.0000 41.9017 0.0000
# 6 0.0000 0.0000 0.0000 0.0000 0.0000 105.4537
#
#
#
# Elastic Compliance Matrix: (Units=1/GPa)
#
#
# Indices 1 2 3 4 5 6 
#
# 1 0.011543 0.008938 -0.002119 0.000000 0.000000 0.000000
# 2 0.008938 0.033006 -0.003218 0.000000 0.000000 0.000000
# 3 -0.002119 -0.003218 0.004410 0.000000 0.000000 0.000000
# 4 0.000000 0.000000 0.000000 0.016683 0.000000 0.000000
# 5 0.000000 0.000000 0.000000 0.000000 0.023865 0.000000
# 6 0.000000 0.000000 0.000000 0.000000 0.000000 0.009483
#
#
# Mechanical properties :
#
#
# Convention : Reuss Voigt Hill
#
# Bulk Modulus (GPa) = 17.80599 50.41132 34.10866
# Shear Modulus (GPa) = 45.24610 67.17510 56.21060
#
# Velocity S-wave (km/s) = 4.08664 4.97943 4.55496
# Velocity P-wave (km/s) = 5.37027 7.18796 6.34454
#
# Compressibility (1/GPa) = 0.05616087
#
# Stress axis : x y z
#
# Youngs Moduli (GPa) = 86.63599 30.29778 226.76581
#
# Poissons Ratio (x) = -0.27079 0.48045
# Poissons Ratio (y) = -0.77433 0.72965
# Poissons Ratio (z) = 0.18356 0.09749
#
# Static dielectric constant tensor:
#      x y z
#    x 2.209040 0.000000 0.000000 
#    y 0.000000 2.273450 0.000000 
#    z 0.000000 0.000000 2.108000 
# 
# From -- ./inp_files/33165.got.cif
#   From: 2010.05.17/outbox.cif.g08.bks.cpg/sg63_17_cif.got.tgz:33165.got - 2010.06.03 15:47:04.
