data_PCOD9471258
_publ_section_title
;
Structure prediction by ZEFSAII (Michael W. Deem and Ramdas Pophale) SiO2 
 PCOD9471258
Probable space group: C M C M
;
_chemical_formula_sum "Si O2"
_cell_formula_units_Z 112
_cell_length_a 30.786110
_cell_length_b 12.653657
_cell_length_c 14.476405
_cell_angle_alpha 90.000000
_cell_angle_beta 90.000000
_cell_angle_gamma 90.000000
_cell_volume 5639.383112
_symmetry_space_group_name_H-M "C M C M"
_symmetry_group_IT_number 63
_symmetry_cell_setting 'orthorhombic'
loop_
_space_group_symop_operation_xyz
x,y,z
-x,-y,1/2+z
x,-y,-z
-x,y,1/2-z
-x,-y,-z
x,y,1/2-z
-x,y,z
x,-y,1/2+z
1/2+x,1/2+y,z
1/2-x,1/2-y,1/2+z
1/2+x,1/2-y,-z
1/2-x,1/2+y,1/2-z
1/2-x,1/2-y,-z
1/2+x,1/2+y,1/2-z
1/2-x,1/2+y,z
1/2+x,1/2-y,1/2+z
loop_
_atom_site_type_symbol
_atom_site_label
_atom_site_fract_x
_atom_site_fract_y
_atom_site_fract_z
Si Si1 0.549195 0.472238 0.608138
Si Si2 0.213521 0.791693 0.141439
Si Si3 0.550984 0.222924 0.648050
Si Si4 0.386053 0.818584 0.499527
Si Si5 0.690508 0.831551 0.140668
Si Si6 0.664427 0.071263 0.354482
Si Si7 0.378335 0.360763 0.356267
O O1 0.548196 0.500000 0.500000
O O2 0.500000 0.498431 0.643233
O O3 0.556294 0.348458 0.628061
O O4 0.590222 0.538778 0.643988
O O5 0.220123 0.813659 0.250000
O O6 0.261795 0.802576 0.103183
O O7 0.196105 0.671925 0.132220
O O8 0.172834 0.867227 0.114981
O O9 0.568957 0.199365 0.750000
O O10 0.500000 0.202361 0.648156
O O11 0.574475 0.160040 0.567893
O O12 0.346744 0.790162 0.428333
O O13 0.371242 0.910768 0.567743
O O14 0.396359 0.722509 0.569447
O O15 0.684770 0.800658 0.250000
O O16 0.686887 0.958683 0.136327
O O17 0.647102 0.076918 0.250000
O O18 0.377680 0.320230 0.250000
#
# Coordination Sequence:
#
# PCOD9471258 Si02
#       7
#    16  16  16  16  16  16  16
#     4  10  19  35  56  82 116 155 192 226 276 345
#     4   8  17  35  54  78 112 147 191 240 285 333
#     4  10  21  37  57  82 115 151 187 234 288 339
#     4  11  20  34  55  80 108 142 190 233 279 344
#     4  10  20  36  57  82 112 150 195 239 288 343
#     4   9  19  36  57  79 109 150 191 236 288 339
#     4  10  20  34  53  78 113 154 191 232 280 328
#
# _framework density 19.860327999999999
#
# number of rings (size 3 to 8) (size 9 to 14) (size 15 to 20)
#    0.000    2.286    1.429    2.571    0.000    3.143 
#    2.571    1.429    0.000    3.000    0.000    2.000 
#    0.000    0.000    0.000    0.000    0.000    0.000 
#
# Total GULP energy -312018.168774 kJ/mol
# GULP energy per Si atom -5571.753014 kJ/mol
# Density = 1.981513 g / cm^3
# Si number density = 19.860328 Si / 1000 Ang^3
#
#
#
# Elastic Constant Matrix: (Units=GPa)
#
#
# Indices 1 2 3 4 5 6 
#
# 1 71.4934 21.9384 37.2007 0.0000 0.0000 0.0000
# 2 21.9384 32.9636 20.6484 0.0000 0.0000 0.0000
# 3 37.2007 20.6484 134.1539 0.0000 0.0000 0.0000
# 4 0.0000 0.0000 0.0000 22.3978 0.0000 0.0000
# 5 0.0000 0.0000 0.0000 0.0000 25.2856 0.0000
# 6 0.0000 0.0000 0.0000 0.0000 0.0000 21.2892
#
#
#
# Elastic Compliance Matrix: (Units=1/GPa)
#
#
# Indices 1 2 3 4 5 6 
#
# 1 0.019101 -0.010397 -0.003696 0.000000 0.000000 0.000000
# 2 -0.010397 0.039233 -0.003155 0.000000 0.000000 0.000000
# 3 -0.003696 -0.003155 0.008965 0.000000 0.000000 0.000000
# 4 0.000000 0.000000 0.000000 0.044647 0.000000 0.000000
# 5 0.000000 0.000000 0.000000 0.000000 0.039548 0.000000
# 6 0.000000 0.000000 0.000000 0.000000 0.000000 0.046972
#
#
# Mechanical properties :
#
#
# Convention : Reuss Voigt Hill
#
# Bulk Modulus (GPa) = 30.48710 44.24287 37.36499
# Shear Modulus (GPa) = 20.50040 24.38274 22.44157
#
# Velocity S-wave (km/s) = 3.21632 3.50767 3.36515
# Velocity P-wave (km/s) = 5.40157 6.22337 5.82698
#
# Compressibility (1/GPa) = 0.03280076
#
# Stress axis : x y z
#
# Youngs Moduli (GPa) = 52.35291 25.48901 111.54717
#
# Poissons Ratio (x) = 0.26501 0.41233
# Poissons Ratio (y) = 0.54431 0.35198
# Poissons Ratio (z) = 0.19352 0.08043
#
# Static dielectric constant tensor:
#      x y z
#    x 1.733210 0.000000 0.000000 
#    y 0.000000 1.674920 0.000000 
#    z 0.000000 0.000000 1.748910 
# 
# From -- ./inp_files/37950.got.cif
#   From: 2010.05.17/outbox.cif.g08.bks.cpg/sg63_19_cif.got.tgz:37950.got - 2010.06.03 15:47:04.
