data_PCOD9471371
_publ_section_title
;
Structure prediction by ZEFSAII (Michael W. Deem and Ramdas Pophale) SiO2 
 PCOD9471371
Probable space group: C M C M
;
_chemical_formula_sum "Si O2"
_cell_formula_units_Z 104
_cell_length_a 9.400425
_cell_length_b 20.282109
_cell_length_c 27.323753
_cell_angle_alpha 90.000000
_cell_angle_beta 90.000000
_cell_angle_gamma 90.000000
_cell_volume 5209.558892
_symmetry_space_group_name_H-M "C M C M"
_symmetry_group_IT_number 63
_symmetry_cell_setting 'orthorhombic'
loop_
_space_group_symop_operation_xyz
x,y,z
-x,-y,1/2+z
x,-y,-z
-x,y,1/2-z
-x,-y,-z
x,y,1/2-z
-x,y,z
x,-y,1/2+z
1/2+x,1/2+y,z
1/2-x,1/2-y,1/2+z
1/2+x,1/2-y,-z
1/2-x,1/2+y,1/2-z
1/2-x,1/2-y,-z
1/2+x,1/2+y,1/2-z
1/2-x,1/2+y,z
1/2+x,1/2-y,1/2+z
loop_
_atom_site_type_symbol
_atom_site_label
_atom_site_fract_x
_atom_site_fract_y
_atom_site_fract_z
Si Si1 0.327664 0.709417 0.696045
Si Si2 0.171290 0.095590 0.876334
Si Si3 0.170748 0.649482 0.343393
Si Si4 0.000000 0.771888 0.013918
Si Si5 0.168914 0.495674 0.806536
Si Si6 0.266145 0.182489 0.449480
Si Si7 0.662981 0.930917 0.025098
O O1 0.277107 0.688125 0.750000
O O2 0.500000 0.706048 0.696779
O O3 0.281858 0.661708 0.652270
O O4 0.289335 0.785030 0.686158
O O5 0.236352 0.088749 0.930223
O O6 0.000000 0.093945 0.879361
O O7 0.234337 0.037082 0.843234
O O8 0.197005 0.581676 0.315375
O O9 0.246764 0.652630 0.395713
O O10 0.000000 0.651973 0.352467
O O11 0.124481 0.743245 0.050905
O O12 0.122958 0.794730 0.974913
O O13 0.197027 0.512613 0.750000
O O14 0.000000 0.507145 0.816245
O O15 0.332514 0.126722 0.484990
O O16 0.500000 0.938569 0.042676
O O17 0.705856 0.000000 0.000000
#
# Coordination Sequence:
#
# PCOD9471371 Si02
#       7
#    16  16  16   8  16  16  16
#     4   9  19  34  56  89 120 148 192 248 296 344
#     4  11  24  38  62  88 121 161 200 247 307 363
#     4  10  19  35  62  89 117 153 198 249 299 350
#     4  10  24  36  60  84 124 158 200 238 300 358
#     4  10  21  40  64  88 116 157 206 249 299 365
#     4  11  22  39  59  88 121 159 200 248 296 363
#     4  11  24  42  62  86 121 160 203 252 301 360
#
# _framework density 19.963301999999999
#
# number of rings (size 3 to 8) (size 9 to 14) (size 15 to 20)
#    0.000    1.692    1.538    2.308    5.385    5.538 
#    4.154    0.000    0.000    0.000    0.000    0.000 
#    0.000    0.000    0.000    0.000    0.000    0.000 
#
# Total GULP energy -289471.367366 kJ/mol
# GULP energy per Si atom -5566.757065 kJ/mol
# Density = 1.991786 g / cm^3
# Si number density = 19.963302 Si / 1000 Ang^3
#
#
#
# Elastic Constant Matrix: (Units=GPa)
#
#
# Indices 1 2 3 4 5 6 
#
# 1 48.7218 9.3809 11.8960 0.0000 0.0000 0.0000
# 2 9.3809 63.1543 19.6959 0.0000 0.0000 0.0000
# 3 11.8960 19.6959 111.1913 0.0000 0.0000 0.0000
# 4 0.0000 0.0000 0.0000 34.3300 0.0000 0.0000
# 5 0.0000 0.0000 0.0000 0.0000 25.2028 0.0000
# 6 0.0000 0.0000 0.0000 0.0000 0.0000 150.5546
#
#
#
# Elastic Compliance Matrix: (Units=1/GPa)
#
#
# Indices 1 2 3 4 5 6 
#
# 1 0.021477 -0.002618 -0.001834 0.000000 0.000000 0.000000
# 2 -0.002618 0.017079 -0.002745 0.000000 0.000000 0.000000
# 3 -0.001834 -0.002745 0.009676 0.000000 0.000000 0.000000
# 4 0.000000 0.000000 0.000000 0.029129 0.000000 0.000000
# 5 0.000000 0.000000 0.000000 0.000000 0.039678 0.000000
# 6 0.000000 0.000000 0.000000 0.000000 0.000000 0.006642
#
#
# Mechanical properties :
#
#
# Convention : Reuss Voigt Hill
#
# Bulk Modulus (GPa) = 29.55329 33.89033 31.72181
# Shear Modulus (GPa) = 33.47730 54.15712 43.81721
#
# Velocity S-wave (km/s) = 4.09949 5.21414 4.69005
# Velocity P-wave (km/s) = 6.10276 7.29814 6.72705
#
# Compressibility (1/GPa) = 0.03383718
#
# Stress axis : x y z
#
# Youngs Moduli (GPa) = 46.56235 58.55040 103.34856
#
# Poissons Ratio (x) = 0.15330 0.18953
# Poissons Ratio (y) = 0.12191 0.28372
# Poissons Ratio (z) = 0.08539 0.16073
#
# Static dielectric constant tensor:
#      x y z
#    x 1.666610 0.000000 0.000000 
#    y 0.000000 1.740830 0.000000 
#    z 0.000000 0.000000 1.706290 
# 
# From -- ./inp_files/67051.got.cif
#   From: 2010.05.17/outbox.cif.g08.bks.cpg/sg63_34_cif.got.tgz:67051.got - 2010.06.03 15:47:04.
