data_PCOD9471899
_publ_section_title
;
Structure prediction by ZEFSAII (Michael W. Deem and Ramdas Pophale) SiO2 
 PCOD9471899
Probable space group: C M C M
;
_chemical_formula_sum "Si O2"
_cell_formula_units_Z 96
_cell_length_a 23.182716
_cell_length_b 12.286492
_cell_length_c 13.713131
_cell_angle_alpha 90.000000
_cell_angle_beta 90.000000
_cell_angle_gamma 90.000000
_cell_volume 3905.969448
_symmetry_space_group_name_H-M "C M C M"
_symmetry_group_IT_number 63
_symmetry_cell_setting 'orthorhombic'
loop_
_space_group_symop_operation_xyz
x,y,z
-x,-y,1/2+z
x,-y,-z
-x,y,1/2-z
-x,-y,-z
x,y,1/2-z
-x,y,z
x,-y,1/2+z
1/2+x,1/2+y,z
1/2-x,1/2-y,1/2+z
1/2+x,1/2-y,-z
1/2-x,1/2+y,1/2-z
1/2-x,1/2-y,-z
1/2+x,1/2+y,1/2-z
1/2-x,1/2+y,z
1/2+x,1/2-y,1/2+z
loop_
_atom_site_type_symbol
_atom_site_label
_atom_site_fract_x
_atom_site_fract_y
_atom_site_fract_z
Si Si1 0.065278 0.528847 0.113542
Si Si2 0.565185 0.430332 0.130366
Si Si3 0.144471 0.736503 0.363289
Si Si4 0.335078 0.134909 0.857659
Si Si5 0.135326 0.130863 0.368589
Si Si6 0.262882 0.063868 0.369081
O O1 0.094301 0.645007 0.132447
O O2 0.108413 0.438778 0.153412
O O3 0.000000 0.525237 0.147850
O O4 0.064655 0.500000 0.000000
O O5 0.565377 0.426039 0.250000
O O6 0.500000 0.402360 0.099923
O O7 0.615005 0.346186 0.097624
O O8 0.583415 0.552568 0.101198
O O9 0.158389 0.760871 0.250000
O O10 0.200372 0.670131 0.401478
O O11 0.311482 0.164555 0.750000
O O12 0.356281 0.246099 0.905668
O O13 0.289545 0.051077 0.903394
O O14 0.129555 0.138932 0.250000
O O15 0.196051 0.073763 0.390515
O O16 0.269490 0.061571 0.250000
#
# Coordination Sequence:
#
# PCOD9471899 Si02
#       6
#    16  16  16  16  16  16
#     4  10  20  33  50  71  96 128 164 204 249 292
#     4   9  17  27  41  67 101 131 158 196 245 291
#     4   9  17  30  50  74  97 126 164 205 243 288
#     4   9  18  31  48  73  99 126 161 201 245 291
#     4   9  17  27  44  71 102 131 160 199 243 294
#     4   8  15  26  43  69  97 123 157 199 243 282
#
# _framework density 24.577766
#
# number of rings (size 3 to 8) (size 9 to 14) (size 15 to 20)
#    0.000    3.000    0.000    2.000    2.333    2.667 
#    0.000    1.667    0.000    5.000    0.000    3.500 
#    0.000    0.000    0.000    0.000    0.000    0.000 
#
# Total GULP energy -268207.539455 kJ/mol
# GULP energy per Si atom -5587.657072 kJ/mol
# Density = 2.452183 g / cm^3
# Si number density = 24.577766 Si / 1000 Ang^3
#
#
#
# Elastic Constant Matrix: (Units=GPa)
#
#
# Indices 1 2 3 4 5 6 
#
# 1 70.7239 16.8458 -15.8162 0.0000 0.0000 0.0000
# 2 16.8458 136.4179 2.8683 0.0000 0.0000 0.0000
# 3 -15.8162 2.8683 81.7553 0.0000 0.0000 0.0000
# 4 0.0000 0.0000 0.0000 31.8891 0.0000 0.0000
# 5 0.0000 0.0000 0.0000 0.0000 41.5780 0.0000
# 6 0.0000 0.0000 0.0000 0.0000 0.0000 3.2364
#
#
#
# Elastic Compliance Matrix: (Units=1/GPa)
#
#
# Indices 1 2 3 4 5 6 
#
# 1 0.015280 -0.001951 0.003025 0.000000 0.000000 0.000000
# 2 -0.001951 0.007585 -0.000643 0.000000 0.000000 0.000000
# 3 0.003025 -0.000643 0.012839 0.000000 0.000000 0.000000
# 4 0.000000 0.000000 0.000000 0.031359 0.000000 0.000000
# 5 0.000000 0.000000 0.000000 0.000000 0.024051 0.000000
# 6 0.000000 0.000000 0.000000 0.000000 0.000000 0.308987
#
#
# Mechanical properties :
#
#
# Convention : Reuss Voigt Hill
#
# Bulk Modulus (GPa) = 27.34797 32.96587 30.15692
# Shear Modulus (GPa) = 12.15277 34.34065 23.24671
#
# Velocity S-wave (km/s) = 2.22606 3.74200 3.07879
# Velocity P-wave (km/s) = 4.21407 5.66675 4.99352
#
# Compressibility (1/GPa) = 0.03656579
#
# Stress axis : x y z
#
# Youngs Moduli (GPa) = 65.44294 131.84250 77.88572
#
# Poissons Ratio (x) = 0.25716 -0.23557
# Poissons Ratio (y) = 0.12765 0.05012
# Poissons Ratio (z) = -0.19794 0.08483
#
# Static dielectric constant tensor:
#      x y z
#    x 1.855060 0.000000 0.000000 
#    y 0.000000 1.928620 0.000000 
#    z 0.000000 0.000000 2.168630 
# 
# From -- ./inp_files/47966.got.cif
#   From: 2010.05.17/outbox.cif.g08.bks.cpg/sg63_24_cif.got.tgz:47966.got - 2010.06.03 15:47:04.
