data_PCOD9471251
_publ_section_title
;
Structure prediction by ZEFSAII (Michael W. Deem and Ramdas Pophale) SiO2 
 PCOD9471251
Probable space group: C M C M
;
_chemical_formula_sum "Si O2"
_cell_formula_units_Z 80
_cell_length_a 9.245066
_cell_length_b 26.018771
_cell_length_c 20.118288
_cell_angle_alpha 90.000000
_cell_angle_beta 90.000000
_cell_angle_gamma 90.000000
_cell_volume 4839.358720
_symmetry_space_group_name_H-M "C M C M"
_symmetry_group_IT_number 63
_symmetry_cell_setting 'orthorhombic'
loop_
_space_group_symop_operation_xyz
x,y,z
-x,-y,1/2+z
x,-y,-z
-x,y,1/2-z
-x,-y,-z
x,y,1/2-z
-x,y,z
x,-y,1/2+z
1/2+x,1/2+y,z
1/2-x,1/2-y,1/2+z
1/2+x,1/2-y,-z
1/2-x,1/2+y,1/2-z
1/2-x,1/2-y,-z
1/2+x,1/2+y,1/2-z
1/2-x,1/2+y,z
1/2+x,1/2-y,1/2+z
loop_
_atom_site_type_symbol
_atom_site_label
_atom_site_fract_x
_atom_site_fract_y
_atom_site_fract_z
Si Si1 0.826799 0.019225 0.574463
Si Si2 0.170904 0.151272 0.396635
Si Si3 0.672586 0.762844 0.430210
Si Si4 0.171722 0.863074 0.445209
Si Si5 0.172300 0.559068 0.327568
O O1 0.793226 0.079730 0.578979
O O2 0.000000 0.012743 0.582463
O O3 0.791102 0.000000 0.500000
O O4 0.744856 0.984836 0.627675
O O5 0.199991 0.211966 0.386406
O O6 0.198617 0.139207 0.474940
O O7 0.264068 0.113241 0.352604
O O8 0.000000 0.141956 0.385531
O O9 0.500000 0.766513 0.439545
O O10 0.750000 0.750000 0.500000
O O11 0.739048 0.817549 0.410575
O O12 0.000000 0.853950 0.436693
O O13 0.205629 0.551596 0.250000
O O14 0.000000 0.558424 0.336340
#
# Coordination Sequence:
#
# PCOD9471251 Si02
#       5
#    16  16  16  16  16
#     4  10  19  35  56  77 104 137 176 220 262 314
#     4   9  17  32  51  72 101 136 171 209 253 308
#     4   9  17  28  45  72 104 133 163 202 250 303
#     4   9  17  30  50  77 105 131 165 212 259 305
#     4  11  24  37  50  75 108 139 175 220 267 314
#
# _framework density 16.531116000000001
#
# number of rings (size 3 to 8) (size 9 to 14) (size 15 to 20)
#    0.000    2.400    2.000    2.400    0.000    6.800 
#    0.000    0.000    0.000    1.200    0.000    0.000 
#    0.000    0.000    0.000    0.000    0.000    0.000 
#
# Total GULP energy -222972.215568 kJ/mol
# GULP energy per Si atom -5574.305389 kJ/mol
# Density = 1.649349 g / cm^3
# Si number density = 16.531116 Si / 1000 Ang^3
#
#
#
# Elastic Constant Matrix: (Units=GPa)
#
#
# Indices 1 2 3 4 5 6 
#
# 1 63.5802 83.6278 55.3920 0.0000 0.0000 0.0000
# 2 83.6278 174.6524 70.3314 0.0000 0.0000 0.0000
# 3 55.3920 70.3314 75.3831 0.0000 0.0000 0.0000
# 4 0.0000 0.0000 0.0000 12.9732 0.0000 0.0000
# 5 0.0000 0.0000 0.0000 0.0000 20.8075 0.0000
# 6 0.0000 0.0000 0.0000 0.0000 0.0000 36.0251
#
#
#
# Elastic Compliance Matrix: (Units=1/GPa)
#
#
# Indices 1 2 3 4 5 6 
#
# 1 0.073982 -0.021677 -0.034138 0.000000 0.000000 0.000000
# 2 -0.021677 0.015523 0.001446 0.000000 0.000000 0.000000
# 3 -0.034138 0.001446 0.037001 0.000000 0.000000 0.000000
# 4 0.000000 0.000000 0.000000 0.077082 0.000000 0.000000
# 5 0.000000 0.000000 0.000000 0.000000 0.048060 0.000000
# 6 0.000000 0.000000 0.000000 0.000000 0.000000 0.027758
#
#
# Mechanical properties :
#
#
# Convention : Reuss Voigt Hill
#
# Bulk Modulus (GPa) = 56.28176 81.36870 68.82523
# Shear Modulus (GPa) = 12.68822 20.91214 16.80018
#
# Velocity S-wave (km/s) = 2.77345 3.56057 3.19137
# Velocity P-wave (km/s) = 6.66152 8.13830 7.43666
#
# Compressibility (1/GPa) = 0.01776775
#
# Stress axis : x y z
#
# Youngs Moduli (GPa) = 13.51687 64.42055 27.02608
#
# Poissons Ratio (x) = 1.39645 0.92261
# Poissons Ratio (y) = 0.29301 -0.03907
# Poissons Ratio (z) = 0.46143 -0.09314
#
# Static dielectric constant tensor:
#      x y z
#    x 1.545830 0.000000 0.000000 
#    y 0.000000 1.592670 0.000000 
#    z 0.000000 0.000000 1.526370 
# 
# From -- ./inp_files/40490.got.cif
#   From: 2010.05.17/outbox.cif.g08.bks.cpg/sg63_21_cif.got.tgz:40490.got - 2010.06.03 15:47:04.
