data_PCOD9471828
_publ_section_title
;
Structure prediction by ZEFSAII (Michael W. Deem and Ramdas Pophale) SiO2 
 PCOD9471828
Probable space group: C M C M
;
_chemical_formula_sum "Si O2"
_cell_formula_units_Z 116
_cell_length_a 18.525896
_cell_length_b 11.033312
_cell_length_c 26.943875
_cell_angle_alpha 90.000000
_cell_angle_beta 90.000000
_cell_angle_gamma 90.000000
_cell_volume 5507.381686
_symmetry_space_group_name_H-M "C M C M"
_symmetry_group_IT_number 63
_symmetry_cell_setting 'orthorhombic'
loop_
_space_group_symop_operation_xyz
x,y,z
-x,-y,1/2+z
x,-y,-z
-x,y,1/2-z
-x,-y,-z
x,y,1/2-z
-x,y,z
x,-y,1/2+z
1/2+x,1/2+y,z
1/2-x,1/2-y,1/2+z
1/2+x,1/2-y,-z
1/2-x,1/2+y,1/2-z
1/2-x,1/2-y,-z
1/2+x,1/2+y,1/2-z
1/2-x,1/2+y,z
1/2+x,1/2-y,1/2+z
loop_
_atom_site_type_symbol
_atom_site_label
_atom_site_fract_x
_atom_site_fract_y
_atom_site_fract_z
Si Si1 0.106358 0.029415 0.195103
Si Si2 0.582177 0.871264 0.526449
Si Si3 0.813373 0.744418 0.091467
Si Si4 0.386625 0.186364 0.673481
Si Si5 0.500000 0.092081 0.750000
Si Si6 0.581288 0.465848 0.085826
Si Si7 0.720942 0.660508 0.804756
Si Si8 0.143467 0.767691 0.566912
O O1 0.079354 0.995215 0.250000
O O2 0.100628 0.173546 0.190343
O O3 0.073720 0.971795 0.145813
O O4 0.186962 0.974154 0.192358
O O5 0.500000 0.839420 0.541244
O O6 0.638839 0.866087 0.571525
O O7 0.613931 0.783961 0.484108
O O8 0.580694 0.000000 0.500000
O O9 0.809182 0.757649 0.150773
O O10 0.730845 0.740864 0.071920
O O11 0.860963 0.860986 0.074374
O O12 0.438369 0.104509 0.705891
O O13 0.305348 0.154335 0.686962
O O14 0.390785 0.194302 0.613698
O O15 0.500000 0.451109 0.065166
O O16 0.616546 0.594118 0.071533
O O17 0.704408 0.709071 0.750000
#
# Coordination Sequence:
#
# PCOD9471828 Si02
#       8
#    16  16  16  16   4  16  16  16
#     4   9  17  28  50  79 118 154 193 234 293 353
#     4  11  25  44  66  88 116 164 213 262 318 378
#     4  10  22  40  62  91 125 162 205 256 310 378
#     4  10  20  32  53  86 122 154 195 240 298 358
#     4  12  20  28  56  88 126 164 186 248 300 354
#     4  10  21  35  59  92 124 155 197 258 317 359
#     4   9  17  35  54  82 120 158 198 237 292 366
#     4  10  23  39  63  90 125 160 207 256 315 373
#
# _framework density 21.062639999999998
#
# number of rings (size 3 to 8) (size 9 to 14) (size 15 to 20)
#    0.000    2.069    1.379    1.241    6.759    0.828 
#    2.483    1.379    0.000    1.241    0.000    0.000 
#    0.000    1.103    0.000    0.000    0.000    0.000 
#
# Total GULP energy -323011.469124 kJ/mol
# GULP energy per Si atom -5569.163261 kJ/mol
# Density = 2.101470 g / cm^3
# Si number density = 21.062640 Si / 1000 Ang^3
#
#
#
# Elastic Constant Matrix: (Units=GPa)
#
#
# Indices 1 2 3 4 5 6 
#
# 1 138.3597 19.3233 32.3393 0.0000 0.0000 0.0000
# 2 19.3233 31.8465 4.2385 0.0000 0.0000 0.0000
# 3 32.3393 4.2385 99.8286 0.0000 0.0000 0.0000
# 4 0.0000 0.0000 0.0000 9.5239 0.0000 0.0000
# 5 0.0000 0.0000 0.0000 0.0000 24.7161 0.0000
# 6 0.0000 0.0000 0.0000 0.0000 0.0000 -7.5238
#
#
#
# Elastic Compliance Matrix: (Units=1/GPa)
#
#
# Indices 1 2 3 4 5 6 
#
# 1 0.008496 -0.004816 -0.002548 0.000000 0.000000 0.000000
# 2 -0.004816 0.034309 0.000103 0.000000 0.000000 0.000000
# 3 -0.002548 0.000103 0.010838 0.000000 0.000000 0.000000
# 4 0.000000 0.000000 0.000000 0.104999 0.000000 0.000000
# 5 0.000000 0.000000 0.000000 0.000000 0.040460 0.000000
# 6 0.000000 0.000000 0.000000 0.000000 0.000000 -0.132912
#
#
# Mechanical properties :
#
#
# Convention : Reuss Voigt Hill
#
# Bulk Modulus (GPa) = 25.56072 42.42632 33.99352
# Shear Modulus (GPa) = 53.33372 19.61882 36.47627
#
# Velocity S-wave (km/s) = 5.03750 3.05528 4.16600
# Velocity P-wave (km/s) = 6.78212 5.71253 6.27017
#
# Compressibility (1/GPa) = 0.03912253
#
# Stress axis : x y z
#
# Youngs Moduli (GPa) = 117.70830 29.14693 92.26715
#
# Poissons Ratio (x) = 0.14036 0.23507
# Poissons Ratio (y) = 0.56685 -0.00954
# Poissons Ratio (z) = 0.29988 -0.00301
#
# Static dielectric constant tensor:
#      x y z
#    x 1.759490 0.000000 0.000000 
#    y 0.000000 1.772770 0.000000 
#    z 0.000000 0.000000 1.798760 
# 
# From -- ./inp_files/73939.got.cif
#   From: 2010.05.17/outbox.cif.g08.bks.cpg/sg63_37_cif.got.tgz:73939.got - 2010.06.03 15:47:04.
