data_PCOD9471998
_publ_section_title
;
Structure prediction by ZEFSAII (Michael W. Deem and Ramdas Pophale) SiO2 
 PCOD9471998
Probable space group: C M C M
;
_chemical_formula_sum "Si O2"
_cell_formula_units_Z 112
_cell_length_a 29.162728
_cell_length_b 13.456677
_cell_length_c 14.548723
_cell_angle_alpha 90.000000
_cell_angle_beta 90.000000
_cell_angle_gamma 90.000000
_cell_volume 5709.404995
_symmetry_space_group_name_H-M "C M C M"
_symmetry_group_IT_number 63
_symmetry_cell_setting 'orthorhombic'
loop_
_space_group_symop_operation_xyz
x,y,z
-x,-y,1/2+z
x,-y,-z
-x,y,1/2-z
-x,-y,-z
x,y,1/2-z
-x,y,z
x,-y,1/2+z
1/2+x,1/2+y,z
1/2-x,1/2-y,1/2+z
1/2+x,1/2-y,-z
1/2-x,1/2+y,1/2-z
1/2-x,1/2-y,-z
1/2+x,1/2+y,1/2-z
1/2-x,1/2+y,z
1/2+x,1/2-y,1/2+z
loop_
_atom_site_type_symbol
_atom_site_label
_atom_site_fract_x
_atom_site_fract_y
_atom_site_fract_z
Si Si1 0.553697 0.233401 0.028454
Si Si2 0.824808 0.496622 0.646230
Si Si3 0.444773 0.637107 0.147424
Si Si4 0.283450 0.510813 0.644632
Si Si5 0.946633 0.922500 0.139631
Si Si6 0.358217 0.852789 0.001123
Si Si7 0.205980 0.173573 0.007612
O O1 0.500000 0.211315 0.044502
O O2 0.570619 0.321544 0.095678
O O3 0.560160 0.277851 0.926457
O O4 0.589653 0.145558 0.033507
O O5 0.840712 0.480040 0.750000
O O6 0.771484 0.524872 0.648350
O O7 0.828985 0.401436 0.580812
O O8 0.851603 0.582145 0.591997
O O9 0.427601 0.658958 0.250000
O O10 0.500000 0.622255 0.154718
O O11 0.426026 0.529774 0.114420
O O12 0.301026 0.509468 0.750000
O O13 0.290682 0.406359 0.590900
O O14 0.299564 0.603557 0.582473
O O15 0.945589 0.918033 0.250000
O O16 0.000000 0.923422 0.108345
O O17 0.337812 0.744274 0.018604
O O18 0.250000 0.250000 0.000000
#
# Coordination Sequence:
#
# PCOD9471998 Si02
#       7
#    16  16  16  16  16  16  16
#     4  10  20  33  52  75 103 145 193 232 273 323
#     4  10  21  39  62  86 109 142 189 232 280 345
#     4   8  14  27  47  69  95 131 178 228 272 319
#     4  10  21  37  60  89 120 151 183 222 276 342
#     4   8  14  27  47  69  95 131 178 228 272 319
#     4  11  22  38  59  84 114 148 185 235 285 329
#     4  11  19  37  60  87 121 149 182 229 280 332
#
# _framework density 19.616755999999999
#
# number of rings (size 3 to 8) (size 9 to 14) (size 15 to 20)
#    0.000    2.286    2.857    2.143    0.000    4.571 
#    5.143    1.429    0.000    0.857    0.000    0.000 
#    0.000    0.000    0.000    0.000    0.000    0.000 
#
# Total GULP energy -312064.696678 kJ/mol
# GULP energy per Si atom -5572.583869 kJ/mol
# Density = 1.957211 g / cm^3
# Si number density = 19.616756 Si / 1000 Ang^3
#
#
#
# Elastic Constant Matrix: (Units=GPa)
#
#
# Indices 1 2 3 4 5 6 
#
# 1 38.2163 4.5471 -15.0908 0.0000 0.0000 0.0000
# 2 4.5471 65.9568 15.7730 0.0000 0.0000 0.0000
# 3 -15.0908 15.7730 76.5848 0.0000 0.0000 0.0000
# 4 0.0000 0.0000 0.0000 44.1284 0.0000 0.0000
# 5 0.0000 0.0000 0.0000 0.0000 12.9147 0.0000
# 6 0.0000 0.0000 0.0000 0.0000 0.0000 15.4672
#
#
#
# Elastic Compliance Matrix: (Units=1/GPa)
#
#
# Indices 1 2 3 4 5 6 
#
# 1 0.029148 -0.003558 0.006476 0.000000 0.000000 0.000000
# 2 -0.003558 0.016381 -0.004075 0.000000 0.000000 0.000000
# 3 0.006476 -0.004075 0.015173 0.000000 0.000000 0.000000
# 4 0.000000 0.000000 0.000000 0.022661 0.000000 0.000000
# 5 0.000000 0.000000 0.000000 0.000000 0.077431 0.000000
# 6 0.000000 0.000000 0.000000 0.000000 0.000000 0.064653
#
#
# Mechanical properties :
#
#
# Convention : Reuss Voigt Hill
#
# Bulk Modulus (GPa) = 17.12685 21.24628 19.18657
# Shear Modulus (GPa) = 20.22466 26.20397 23.21431
#
# Velocity S-wave (km/s) = 3.21438 3.65882 3.44378
# Velocity P-wave (km/s) = 4.74616 5.35756 5.06110
#
# Compressibility (1/GPa) = 0.05838785
#
# Stress axis : x y z
#
# Youngs Moduli (GPa) = 34.30819 61.04551 65.90749
#
# Poissons Ratio (x) = 0.21721 -0.42683
# Poissons Ratio (y) = 0.12208 0.26857
# Poissons Ratio (z) = -0.22219 0.24875
#
# Static dielectric constant tensor:
#      x y z
#    x 1.736010 0.000000 0.000000 
#    y 0.000000 1.711330 0.000000 
#    z 0.000000 0.000000 1.702560 
# 
# From -- ./inp_files/38519.got.cif
#   From: 2010.05.17/outbox.cif.g08.bks.cpg/sg63_20_cif.got.tgz:38519.got - 2010.06.03 15:47:04.
