data_PCOD9471070
_publ_section_title
;
Structure prediction by ZEFSAII (Michael W. Deem and Ramdas Pophale) SiO2 
 PCOD9471070
Probable space group: C M C M
;
_chemical_formula_sum "Si O2"
_cell_formula_units_Z 88
_cell_length_a 27.791085
_cell_length_b 19.273739
_cell_length_c 8.190527
_cell_angle_alpha 90.000000
_cell_angle_beta 90.000000
_cell_angle_gamma 90.000000
_cell_volume 4387.158474
_symmetry_space_group_name_H-M "C M C M"
_symmetry_group_IT_number 63
_symmetry_cell_setting 'orthorhombic'
loop_
_space_group_symop_operation_xyz
x,y,z
-x,-y,1/2+z
x,-y,-z
-x,y,1/2-z
-x,-y,-z
x,y,1/2-z
-x,y,z
x,-y,1/2+z
1/2+x,1/2+y,z
1/2-x,1/2-y,1/2+z
1/2+x,1/2-y,-z
1/2-x,1/2+y,1/2-z
1/2-x,1/2-y,-z
1/2+x,1/2+y,1/2-z
1/2-x,1/2+y,z
1/2+x,1/2-y,1/2+z
loop_
_atom_site_type_symbol
_atom_site_label
_atom_site_fract_x
_atom_site_fract_y
_atom_site_fract_z
Si Si1 0.308278 0.578805 0.445366
Si Si2 0.000000 0.080898 0.052197
Si Si3 0.797848 0.580023 0.556332
Si Si4 0.096689 0.838069 0.949690
Si Si5 0.942461 0.425709 0.562866
Si Si6 0.622573 0.185754 0.938566
O O1 0.315248 0.500000 0.500000
O O2 0.304617 0.581993 0.250000
O O3 0.256852 0.601167 0.516303
O O4 0.355120 0.621003 0.497117
O O5 0.951888 0.122315 0.996478
O O6 0.000000 0.081320 0.250000
O O7 0.000000 0.000000 0.000000
O O8 0.804966 0.500000 0.500000
O O9 0.804693 0.578105 0.750000
O O10 0.834402 0.638398 0.488424
O O11 0.093975 0.836996 0.750000
O O12 0.105683 0.759396 0.008794
O O13 0.924740 0.500000 0.500000
O O14 0.927279 0.414851 0.750000
O O15 0.922399 0.365545 0.450812
O O16 0.000000 0.426601 0.558463
O O17 0.635850 0.199747 0.750000
#
# Coordination Sequence:
#
# PCOD9471070 Si02
#       6
#    16   8  16  16  16  16
#     4  10  19  34  56  80 108 141 184 228 273 329
#     4  10  20  38  62  84 109 142 181 226 275 326
#     4  10  20  34  54  80 109 142 184 226 269 321
#     4   9  20  36  56  83 110 143 182 224 276 334
#     4  10  21  36  54  78 107 142 185 229 273 323
#     4  10  21  36  55  80 110 145 184 226 270 328
#
# _framework density 20.058541999999999
#
# number of rings (size 3 to 8) (size 9 to 14) (size 15 to 20)
#    0.000    2.182    0.000    3.818    1.273    4.727 
#    0.000    3.636    0.000    0.000    0.000    0.000 
#    0.000    0.000    0.000    0.000    0.000    0.000 
#
# Total GULP energy -245403.434145 kJ/mol
# GULP energy per Si atom -5577.350776 kJ/mol
# Density = 2.001289 g / cm^3
# Si number density = 20.058542 Si / 1000 Ang^3
#
#
#
# Elastic Constant Matrix: (Units=GPa)
#
#
# Indices 1 2 3 4 5 6 
#
# 1 131.7403 91.9604 18.1690 0.0000 0.0000 0.0000
# 2 91.9604 151.6539 10.3498 0.0000 0.0000 0.0000
# 3 18.1690 10.3498 14.5793 0.0000 0.0000 0.0000
# 4 0.0000 0.0000 0.0000 18.6716 0.0000 0.0000
# 5 0.0000 0.0000 0.0000 0.0000 -18.9580 0.0000
# 6 0.0000 0.0000 0.0000 0.0000 0.0000**********
#
#
#
# Elastic Compliance Matrix: (Units=1/GPa)
#
#
# Indices 1 2 3 4 5 6 
#
# 1 0.015202 -0.008329 -0.013032 0.000000 0.000000 0.000000
# 2 -0.008329 0.011493 0.002221 0.000000 0.000000 0.000000
# 3 -0.013032 0.002221 0.083255 0.000000 0.000000 0.000000
# 4 0.000000 0.000000 0.000000 0.053557 0.000000 0.000000
# 5 0.000000 0.000000 0.000000 0.000000 -0.052748 0.000000
# 6 0.000000 0.000000 0.000000 0.000000 0.000000 -0.000062
#
#
# Mechanical properties :
#
#
# Convention : Reuss Voigt Hill
#
# Bulk Modulus (GPa) = 13.95299 59.88133 36.91716
# Shear Modulus (GPa) = 28.92383 -3233.30598 -1602.19108
#
# Velocity S-wave (km/s) = 3.80145 -40.19246 -28.29296
# Velocity P-wave (km/s) = 5.12243 46.08681 32.38638
#
# Compressibility (1/GPa) = 0.07166924
#
# Stress axis : x y z
#
# Youngs Moduli (GPa) = 65.78130 87.01078 12.01125
#
# Poissons Ratio (x) = 0.72469 0.15653
# Poissons Ratio (y) = 0.54788 -0.02667
# Poissons Ratio (z) = 0.85729 -0.19323
#
# Static dielectric constant tensor:
#      x y z
#    x 1.721310 0.000000 0.000000 
#    y 0.000000 1.691860 0.000000 
#    z 0.000000 0.000000 1.635360 
# 
# From -- ./inp_files/14140.got.cif
#   From: 2010.05.17/outbox.cif.g08.bks.cpg/sg63_8_cif.got.tgz:14140.got - 2010.06.03 15:47:04.
