data_PCOD9471758
_publ_section_title
;
Structure prediction by ZEFSAII (Michael W. Deem and Ramdas Pophale) SiO2 
 PCOD9471758
Probable space group: C M C M
;
_chemical_formula_sum "Si O2"
_cell_formula_units_Z 116
_cell_length_a 26.041430
_cell_length_b 28.982428
_cell_length_c 7.650406
_cell_angle_alpha 90.000000
_cell_angle_beta 90.000000
_cell_angle_gamma 90.000000
_cell_volume 5774.097031
_symmetry_space_group_name_H-M "C M C M"
_symmetry_group_IT_number 63
_symmetry_cell_setting 'orthorhombic'
loop_
_space_group_symop_operation_xyz
x,y,z
-x,-y,1/2+z
x,-y,-z
-x,y,1/2-z
-x,-y,-z
x,y,1/2-z
-x,y,z
x,-y,1/2+z
1/2+x,1/2+y,z
1/2-x,1/2-y,1/2+z
1/2+x,1/2-y,-z
1/2-x,1/2+y,1/2-z
1/2-x,1/2-y,-z
1/2+x,1/2+y,1/2-z
1/2-x,1/2+y,z
1/2+x,1/2-y,1/2+z
loop_
_atom_site_type_symbol
_atom_site_label
_atom_site_fract_x
_atom_site_fract_y
_atom_site_fract_z
Si Si1 0.056118 0.318546 0.459465
Si Si2 0.227036 0.360343 0.958436
Si Si3 0.054143 0.177988 0.056846
Si Si4 0.837250 0.830902 0.041259
Si Si5 0.333278 0.950051 0.539953
Si Si6 0.000000 0.224125 0.750000
Si Si7 0.835539 0.273773 0.544262
Si Si8 0.944380 0.572624 0.041301
O O1 0.054458 0.315019 0.250000
O O2 0.107323 0.294006 0.523056
O O3 0.059621 0.372392 0.510088
O O4 0.000000 0.302785 0.533631
O O5 0.218013 0.359572 0.750000
O O6 0.198354 0.405928 0.026294
O O7 0.202397 0.312877 0.030742
O O8 0.287578 0.359527 0.988914
O O9 0.056231 0.199651 0.250000
O O10 0.000000 0.150171 0.049517
O O11 0.107370 0.152580 0.026262
O O12 0.044402 0.214352 0.903225
O O13 0.839701 0.829917 0.250000
O O14 0.831207 0.778023 0.972506
O O15 0.336167 0.945808 0.750000
O O16 0.391819 0.948324 0.469617
O O17 0.310406 0.000000 0.500000
O O18 0.824192 0.269699 0.750000
O O19 0.945423 0.564993 0.250000
O O20 0.000000 0.442591 0.030555
#
# Coordination Sequence:
#
# PCOD9471758 Si02
#       8
#    16  16  16  16  16   4  16  16
#     4  10  20  32  48  74 105 136 177 228 273 322
#     4  10  21  38  54  74 103 138 179 224 275 334
#     4   9  17  31  52  76 108 145 177 226 271 308
#     4  11  21  34  53  79 107 143 187 228 268 330
#     4  10  21  37  57  79 105 135 175 225 281 342
#     4   8  14  32  52  74 112 136 188 220 262 326
#     4  10  21  36  53  71 101 140 181 224 273 328
#     4   9  17  33  56  75  99 135 175 218 277 342
#
# _framework density 20.089721999999998
#
# number of rings (size 3 to 8) (size 9 to 14) (size 15 to 20)
#    0.414    1.793    2.069    1.241    0.000    4.414 
#    0.000    2.759    0.000    0.000    0.000    0.000 
#    0.000    0.552    0.000    3.034    0.000    5.241 
#
# Total GULP energy -323112.228784 kJ/mol
# GULP energy per Si atom -5570.900496 kJ/mol
# Density = 2.004400 g / cm^3
# Si number density = 20.089722 Si / 1000 Ang^3
#
#
#
# Elastic Constant Matrix: (Units=GPa)
#
#
# Indices 1 2 3 4 5 6 
#
# 1 141.8155 41.7821 0.1285 0.0000 0.0000 0.0000
# 2 41.7821 52.7213 0.0270 0.0000 0.0000 0.0000
# 3 0.1285 0.0270 61.2026 0.0000 0.0000 0.0000
# 4 0.0000 0.0000 0.0000 21.1192 0.0000 0.0000
# 5 0.0000 0.0000 0.0000 0.0000 81.5014 0.0000
# 6 0.0000 0.0000 0.0000 0.0000 0.0000 8.2135
#
#
#
# Elastic Compliance Matrix: (Units=1/GPa)
#
#
# Indices 1 2 3 4 5 6 
#
# 1 0.009199 -0.007291 -0.000016 0.000000 0.000000 0.000000
# 2 -0.007291 0.024746 0.000004 0.000000 0.000000 0.000000
# 3 -0.000016 0.000004 0.016339 0.000000 0.000000 0.000000
# 4 0.000000 0.000000 0.000000 0.047350 0.000000 0.000000
# 5 0.000000 0.000000 0.000000 0.000000 0.012270 0.000000
# 6 0.000000 0.000000 0.000000 0.000000 0.000000 0.121751
#
#
# Mechanical properties :
#
#
# Convention : Reuss Voigt Hill
#
# Bulk Modulus (GPa) = 28.02724 37.73493 32.88109
# Shear Modulus (GPa) = 19.36834 36.42026 27.89430
#
# Velocity S-wave (km/s) = 3.10835 4.26241 3.73028
# Velocity P-wave (km/s) = 5.18303 6.56111 5.91236
#
# Compressibility (1/GPa) = 0.03567957
#
# Stress axis : x y z
#
# Youngs Moduli (GPa) = 108.70262 40.41129 61.20243
#
# Poissons Ratio (x) = 0.29462 0.00099
# Poissons Ratio (y) = 0.79251 -0.00027
# Poissons Ratio (z) = 0.00175 -0.00018
#
# Static dielectric constant tensor:
#      x y z
#    x 1.768730 0.000000 0.000000 
#    y 0.000000 1.698060 0.000000 
#    z 0.000000 0.000000 1.849230 
# 
# From -- ./inp_files/11207.got.cif
#   From: 2010.05.17/outbox.cif.g08.bks.cpg/sg63_6_cif.got.tgz:11207.got - 2010.06.03 15:47:04.
