data_PCOD9471713
_publ_section_title
;
Structure prediction by ZEFSAII (Michael W. Deem and Ramdas Pophale) SiO2 
 PCOD9471713
Probable space group: C M C M
;
_chemical_formula_sum "Si O2"
_cell_formula_units_Z 88
_cell_length_a 20.381133
_cell_length_b 31.073321
_cell_length_c 8.692989
_cell_angle_alpha 90.000000
_cell_angle_beta 90.000000
_cell_angle_gamma 90.000000
_cell_volume 5505.352413
_symmetry_space_group_name_H-M "C M C M"
_symmetry_group_IT_number 63
_symmetry_cell_setting 'orthorhombic'
loop_
_space_group_symop_operation_xyz
x,y,z
-x,-y,1/2+z
x,-y,-z
-x,y,1/2-z
-x,-y,-z
x,y,1/2-z
-x,y,z
x,-y,1/2+z
1/2+x,1/2+y,z
1/2-x,1/2-y,1/2+z
1/2+x,1/2-y,-z
1/2-x,1/2+y,1/2-z
1/2-x,1/2-y,-z
1/2+x,1/2+y,1/2-z
1/2-x,1/2+y,z
1/2+x,1/2-y,1/2+z
loop_
_atom_site_type_symbol
_atom_site_label
_atom_site_fract_x
_atom_site_fract_y
_atom_site_fract_z
Si Si1 0.215135 0.707042 0.066645
Si Si2 0.074308 0.169470 0.430581
Si Si3 0.500000 0.548346 0.064734
Si Si4 0.353619 0.451979 0.934248
Si Si5 0.702173 0.370283 0.069802
Si Si6 0.572342 0.236540 0.432431
O O1 0.224492 0.707703 0.250000
O O2 0.137376 0.709626 0.033053
O O3 0.250000 0.750000 0.000000
O O4 0.247361 0.663992 0.000477
O O5 0.088307 0.161364 0.250000
O O6 0.130907 0.149920 0.533657
O O7 0.074805 0.220269 0.466842
O O8 0.000000 0.153968 0.461440
O O9 0.500000 0.548791 0.250000
O O10 0.427442 0.564233 0.018853
O O11 0.500000 0.500000 0.000000
O O12 0.351769 0.453791 0.750000
O O13 0.344786 0.500000 0.000000
O O14 0.301568 0.417416 0.994464
O O15 0.712918 0.374021 0.250000
O O16 0.576229 0.248426 0.250000
O O17 0.500000 0.216498 0.455970
#
# Coordination Sequence:
#
# PCOD9471713 Si02
#       6
#    16  16   8  16  16  16
#     4  11  21  34  52  74 102 134 167 208 253 301
#     4  10  20  32  47  68  95 128 169 214 256 298
#     4   8  16  30  50  70  92 122 158 204 254 298
#     4  10  20  36  53  72  96 126 165 210 257 303
#     4  12  24  35  49  71  98 135 173 210 252 299
#     4   9  18  33  52  72  96 128 166 207 252 301
#
# _framework density 15.984444999999999
#
# number of rings (size 3 to 8) (size 9 to 14) (size 15 to 20)
#    0.000    1.818    1.818    3.273    1.273    2.545 
#    0.000    0.000    0.000    0.000    0.000    0.000 
#    0.000    0.727    0.000    2.000    0.000    2.909 
#
# Total GULP energy -245443.227018 kJ/mol
# GULP energy per Si atom -5578.255160 kJ/mol
# Density = 1.594806 g / cm^3
# Si number density = 15.984445 Si / 1000 Ang^3
#
#
#
# Elastic Constant Matrix: (Units=GPa)
#
#
# Indices 1 2 3 4 5 6 
#
# 1 92.0302 57.3022 36.8028 0.0000 0.0000 0.0000
# 2 57.3022 101.6137 39.1188 0.0000 0.0000 0.0000
# 3 36.8028 39.1188 61.0309 0.0000 0.0000 0.0000
# 4 0.0000 0.0000 0.0000 23.9426 0.0000 0.0000
# 5 0.0000 0.0000 0.0000 0.0000 18.1766 0.0000
# 6 0.0000 0.0000 0.0000 0.0000 0.0000 31.0977
#
#
#
# Elastic Compliance Matrix: (Units=1/GPa)
#
#
# Indices 1 2 3 4 5 6 
#
# 1 0.018186 -0.008010 -0.005832 0.000000 0.000000 0.000000
# 2 -0.008010 0.016593 -0.005805 0.000000 0.000000 0.000000
# 3 -0.005832 -0.005805 0.023623 0.000000 0.000000 0.000000
# 4 0.000000 0.000000 0.000000 0.041767 0.000000 0.000000
# 5 0.000000 0.000000 0.000000 0.000000 0.055016 0.000000
# 6 0.000000 0.000000 0.000000 0.000000 0.000000 0.032157
#
#
# Mechanical properties :
#
#
# Convention : Reuss Voigt Hill
#
# Bulk Modulus (GPa) = 52.33767 57.90249 55.12008
# Shear Modulus (GPa) = 21.45872 22.74010 22.09941
#
# Velocity S-wave (km/s) = 3.66795 3.77588 3.72231
# Velocity P-wave (km/s) = 7.12408 7.43725 7.28235
#
# Compressibility (1/GPa) = 0.01910670
#
# Stress axis : x y z
#
# Youngs Moduli (GPa) = 54.98821 60.26552 42.33131
#
# Poissons Ratio (x) = 0.48273 0.24688
# Poissons Ratio (y) = 0.44046 0.24575
# Poissons Ratio (z) = 0.32070 0.34987
#
# Static dielectric constant tensor:
#      x y z
#    x 1.553640 0.000000 0.000000 
#    y 0.000000 1.541620 0.000000 
#    z 0.000000 0.000000 1.534290 
# 
# From -- ./inp_files/8215.got.cif
#   From: 2010.05.17/outbox.cif.g08.bks.cpg/sg63_5_cif.got.tgz:8215.got - 2010.06.03 15:47:04.
