data_PCOD9471032
_publ_section_title
;
Structure prediction by ZEFSAII (Michael W. Deem and Ramdas Pophale) SiO2 
 PCOD9471032
Probable space group: C M C M
;
_chemical_formula_sum "Si O2"
_cell_formula_units_Z 88
_cell_length_a 20.045657
_cell_length_b 27.986898
_cell_length_c 8.160163
_cell_angle_alpha 90.000000
_cell_angle_beta 90.000000
_cell_angle_gamma 90.000000
_cell_volume 4577.980029
_symmetry_space_group_name_H-M "C M C M"
_symmetry_group_IT_number 63
_symmetry_cell_setting 'orthorhombic'
loop_
_space_group_symop_operation_xyz
x,y,z
-x,-y,1/2+z
x,-y,-z
-x,y,1/2-z
-x,-y,-z
x,y,1/2-z
-x,y,z
x,-y,1/2+z
1/2+x,1/2+y,z
1/2-x,1/2-y,1/2+z
1/2+x,1/2-y,-z
1/2-x,1/2+y,1/2-z
1/2-x,1/2-y,-z
1/2+x,1/2+y,1/2-z
1/2-x,1/2+y,z
1/2+x,1/2-y,1/2+z
loop_
_atom_site_type_symbol
_atom_site_label
_atom_site_fract_x
_atom_site_fract_y
_atom_site_fract_z
Si Si1 0.268845 0.448606 0.946425
Si Si2 0.000000 0.554643 0.446008
Si Si3 0.138424 0.597204 0.940126
Si Si4 0.319827 0.654933 0.049668
Si Si5 0.182851 0.303307 0.937860
Si Si6 0.424919 0.272273 0.554035
O O1 0.264170 0.447802 0.750000
O O2 0.307607 0.400085 0.999162
O O3 0.296572 0.500000 0.000000
O O4 0.195116 0.441757 0.021521
O O5 0.000000 0.500000 0.500000
O O6 0.934121 0.578451 0.518437
O O7 0.000000 0.558479 0.250000
O O8 0.143064 0.611232 0.750000
O O9 0.154663 0.642982 0.050141
O O10 0.317303 0.655597 0.250000
O O11 0.257839 0.688709 0.993199
O O12 0.388490 0.679230 0.995683
O O13 0.189024 0.287990 0.750000
O O14 0.128530 0.269377 0.019954
O O15 0.430432 0.275631 0.750000
O O16 0.500000 0.264466 0.488434
#
# Coordination Sequence:
#
# PCOD9471032 Si02
#       6
#    16   8  16  16  16  16
#     4  10  19  34  55  79 105 134 173 218 267 318
#     4  12  24  38  52  70 100 140 180 220 267 314
#     4  11  22  36  53  75 103 136 178 221 263 312
#     4   8  17  34  54  77 105 139 178 220 265 318
#     4  10  20  35  54  76 105 141 179 220 266 317
#     4  10  20  34  54  79 107 139 178 223 271 323
#
# _framework density 19.222451
#
# number of rings (size 3 to 8) (size 9 to 14) (size 15 to 20)
#    0.000    2.000    0.000    5.727    1.273    0.364 
#    0.000    4.545    0.000    0.545    0.000    0.000 
#    0.000    0.000    0.000    0.000    0.000    0.727 
#
# Total GULP energy -245489.134813 kJ/mol
# GULP energy per Si atom -5579.298518 kJ/mol
# Density = 1.917870 g / cm^3
# Si number density = 19.222451 Si / 1000 Ang^3
#
#
#
# Elastic Constant Matrix: (Units=GPa)
#
#
# Indices 1 2 3 4 5 6 
#
# 1 97.0307 51.8815 7.1670 0.0000 0.0000 0.0000
# 2 51.8815 92.7178 0.3824 0.0000 0.0000 0.0000
# 3 7.1670 0.3824 45.2506 0.0000 0.0000 0.0000
# 4 0.0000 0.0000 0.0000 22.0109 0.0000 0.0000
# 5 0.0000 0.0000 0.0000 0.0000 12.9707 0.0000
# 6 0.0000 0.0000 0.0000 0.0000 0.0000 9.8119
#
#
#
# Elastic Compliance Matrix: (Units=1/GPa)
#
#
# Indices 1 2 3 4 5 6 
#
# 1 0.014941 -0.008351 -0.002296 0.000000 0.000000 0.000000
# 2 -0.008351 0.015453 0.001192 0.000000 0.000000 0.000000
# 3 -0.002296 0.001192 0.022453 0.000000 0.000000 0.000000
# 4 0.000000 0.000000 0.000000 0.045432 0.000000 0.000000
# 5 0.000000 0.000000 0.000000 0.000000 0.077097 0.000000
# 6 0.000000 0.000000 0.000000 0.000000 0.000000 0.101917
#
#
# Mechanical properties :
#
#
# Convention : Reuss Voigt Hill
#
# Bulk Modulus (GPa) = 29.46588 39.31788 34.39188
# Shear Modulus (GPa) = 16.25941 20.66326 18.46134
#
# Velocity S-wave (km/s) = 2.91151 3.28221 3.10240
# Velocity P-wave (km/s) = 5.16379 5.90444 5.54649
#
# Compressibility (1/GPa) = 0.03393756
#
# Stress axis : x y z
#
# Youngs Moduli (GPa) = 66.93132 64.71116 44.53811
#
# Poissons Ratio (x) = 0.54039 0.10225
# Poissons Ratio (y) = 0.55893 -0.05309
# Poissons Ratio (z) = 0.15366 -0.07714
#
# Static dielectric constant tensor:
#      x y z
#    x 1.678640 0.000000 0.000000 
#    y 0.000000 1.682160 0.000000 
#    z 0.000000 0.000000 1.707470 
# 
# From -- ./inp_files/6779.got.cif
#   From: 2010.05.17/outbox.cif.g08.bks.cpg/sg63_4_cif.got.tgz:6779.got - 2010.06.03 15:47:04.
