data_PCOD9471352
_publ_section_title
;
Structure prediction by ZEFSAII (Michael W. Deem and Ramdas Pophale) SiO2 
 PCOD9471352
Probable space group: C M C M
;
_chemical_formula_sum "Si O2"
_cell_formula_units_Z 112
_cell_length_a 13.761551
_cell_length_b 29.125236
_cell_length_c 13.950618
_cell_angle_alpha 90.000000
_cell_angle_beta 90.000000
_cell_angle_gamma 90.000000
_cell_volume 5591.525167
_symmetry_space_group_name_H-M "C M C M"
_symmetry_group_IT_number 63
_symmetry_cell_setting 'orthorhombic'
loop_
_space_group_symop_operation_xyz
x,y,z
-x,-y,1/2+z
x,-y,-z
-x,y,1/2-z
-x,-y,-z
x,y,1/2-z
-x,y,z
x,-y,1/2+z
1/2+x,1/2+y,z
1/2-x,1/2-y,1/2+z
1/2+x,1/2-y,-z
1/2-x,1/2+y,1/2-z
1/2-x,1/2-y,-z
1/2+x,1/2+y,1/2-z
1/2-x,1/2+y,z
1/2+x,1/2-y,1/2+z
loop_
_atom_site_type_symbol
_atom_site_label
_atom_site_fract_x
_atom_site_fract_y
_atom_site_fract_z
Si Si1 0.614917 0.151134 0.858841
Si Si2 0.117141 0.296576 0.951777
Si Si3 0.767092 0.620428 0.137010
Si Si4 0.389227 0.969314 0.633345
Si Si5 0.235612 0.442137 0.363583
Si Si6 0.384504 0.391151 0.475621
Si Si7 0.617368 0.701477 0.640533
O O1 0.634455 0.166258 0.750000
O O2 0.500000 0.141297 0.866013
O O3 0.671312 0.103814 0.876413
O O4 0.637812 0.189051 0.938621
O O5 0.173543 0.333718 0.888110
O O6 0.147243 0.245529 0.921434
O O7 0.000000 0.300817 0.937272
O O8 0.749161 0.617565 0.250000
O O9 0.833977 0.577228 0.106500
O O10 0.668880 0.617591 0.075962
O O11 0.393457 0.969705 0.750000
O O12 0.500000 0.970048 0.598317
O O13 0.327617 0.014087 0.606763
O O14 0.257675 0.446127 0.250000
O O15 0.332769 0.434022 0.424039
O O16 0.500000 0.395707 0.483655
O O17 0.360851 0.346826 0.409187
O O18 0.652866 0.703667 0.750000
O O19 0.500000 0.703506 0.644627
#
# Coordination Sequence:
#
# PCOD9471352 Si02
#       7
#    16  16  16  16  16  16  16
#     4   9  17  31  53  85 127 163 188 228 292 363
#     4  10  19  35  60  91 123 155 193 239 299 370
#     4  11  23  40  59  86 121 158 201 246 299 362
#     4   9  19  37  63  94 128 161 190 229 291 369
#     4  10  19  36  61  89 119 155 199 245 294 351
#     4  11  24  42  60  81 112 155 210 263 305 345
#     4   9  19  37  62  89 116 151 197 251 306 358
#
# _framework density 20.030313
#
# number of rings (size 3 to 8) (size 9 to 14) (size 15 to 20)
#    0.000    2.143    1.429    1.714    0.000    5.429 
#    0.000    2.857    0.000    5.143    0.000    0.000 
#    0.000    0.000    0.000    0.000    0.000    0.000 
#
# Total GULP energy -313033.728075 kJ/mol
# GULP energy per Si atom -5589.888001 kJ/mol
# Density = 1.998472 g / cm^3
# Si number density = 20.030313 Si / 1000 Ang^3
#
#
#
# Elastic Constant Matrix: (Units=GPa)
#
#
# Indices 1 2 3 4 5 6 
#
# 1 104.6056 41.5939 24.7557 0.0000 0.0000 0.0000
# 2 41.5939 83.4019 18.9670 0.0000 0.0000 0.0000
# 3 24.7557 18.9670 110.0404 0.0000 0.0000 0.0000
# 4 0.0000 0.0000 0.0000 26.2565 0.0000 0.0000
# 5 0.0000 0.0000 0.0000 0.0000 31.1950 0.0000
# 6 0.0000 0.0000 0.0000 0.0000 0.0000 24.5585
#
#
#
# Elastic Compliance Matrix: (Units=1/GPa)
#
#
# Indices 1 2 3 4 5 6 
#
# 1 0.012248 -0.005705 -0.001772 0.000000 0.000000 0.000000
# 2 -0.005705 0.015137 -0.001326 0.000000 0.000000 0.000000
# 3 -0.001772 -0.001326 0.009715 0.000000 0.000000 0.000000
# 4 0.000000 0.000000 0.000000 0.038086 0.000000 0.000000
# 5 0.000000 0.000000 0.000000 0.000000 0.032056 0.000000
# 6 0.000000 0.000000 0.000000 0.000000 0.000000 0.040719
#
#
# Mechanical properties :
#
#
# Convention : Reuss Voigt Hill
#
# Bulk Modulus (GPa) = 51.29837 52.07570 51.68703
# Shear Modulus (GPa) = 29.05904 30.58409 29.82156
#
# Velocity S-wave (km/s) = 3.81301 3.91178 3.86271
# Velocity P-wave (km/s) = 6.71203 6.81598 6.76421
#
# Compressibility (1/GPa) = 0.01949380
#
# Stress axis : x y z
#
# Youngs Moduli (GPa) = 81.64885 66.06412 102.93690
#
# Poissons Ratio (x) = 0.37690 0.18240
# Poissons Ratio (y) = 0.46581 0.13645
# Poissons Ratio (z) = 0.14468 0.08757
#
# Static dielectric constant tensor:
#      x y z
#    x 1.699840 0.000000 0.000000 
#    y 0.000000 1.672670 0.000000 
#    z 0.000000 0.000000 1.729790 
# 
# From -- ./inp_files/32350.got.cif
#   From: 2010.05.17/outbox.cif.g08.bks.cpg/sg63_17_cif.got.tgz:32350.got - 2010.06.03 15:47:04.
