data_PCOD9471255
_publ_section_title
;
Structure prediction by ZEFSAII (Michael W. Deem and Ramdas Pophale) SiO2 
 PCOD9471255
Probable space group: C M C M
;
_chemical_formula_sum "Si O2"
_cell_formula_units_Z 116
_cell_length_a 28.092101
_cell_length_b 29.062085
_cell_length_c 7.915199
_cell_angle_alpha 90.000000
_cell_angle_beta 90.000000
_cell_angle_gamma 90.000000
_cell_volume 6462.087406
_symmetry_space_group_name_H-M "C M C M"
_symmetry_group_IT_number 63
_symmetry_cell_setting 'orthorhombic'
loop_
_space_group_symop_operation_xyz
x,y,z
-x,-y,1/2+z
x,-y,-z
-x,y,1/2-z
-x,-y,-z
x,y,1/2-z
-x,y,z
x,-y,1/2+z
1/2+x,1/2+y,z
1/2-x,1/2-y,1/2+z
1/2+x,1/2-y,-z
1/2-x,1/2+y,1/2-z
1/2-x,1/2-y,-z
1/2+x,1/2+y,1/2-z
1/2-x,1/2+y,z
1/2+x,1/2-y,1/2+z
loop_
_atom_site_type_symbol
_atom_site_label
_atom_site_fract_x
_atom_site_fract_y
_atom_site_fract_z
Si Si1 0.664733 0.645085 0.449023
Si Si2 0.570693 0.692471 0.551686
Si Si3 0.311996 0.051065 0.049061
Si Si4 0.259328 0.802693 0.046949
Si Si5 0.703135 0.449023 0.953364
Si Si6 0.853942 0.353095 0.449480
Si Si7 0.000000 0.165259 0.250000
Si Si8 0.446978 0.799237 0.548534
O O1 0.653573 0.644746 0.250000
O O2 0.624472 0.674344 0.540498
O O3 0.716422 0.667501 0.472885
O O4 0.670343 0.592729 0.513052
O O5 0.555131 0.687465 0.750000
O O6 0.540824 0.667650 0.403696
O O7 0.566609 0.746636 0.505407
O O8 0.309308 0.052748 0.250000
O O9 0.257627 0.056318 0.981498
O O10 0.343585 0.093903 0.992586
O O11 0.328877 0.000000 0.000000
O O12 0.258176 0.806834 0.250000
O O13 0.309941 0.822268 0.981963
O O14 0.250000 0.750000 0.000000
O O15 0.705054 0.445756 0.750000
O O16 0.686701 0.500000 0.000000
O O17 0.851771 0.348476 0.250000
O O18 0.904987 0.333716 0.501564
O O19 0.450280 0.800569 0.750000
O O20 0.500000 0.809058 0.478370
#
# Coordination Sequence:
#
# PCOD9471255 Si02
#       8
#    16  16  16  16  16  16   4  16
#     4  11  21  36  56  84 119 154 194 237 291 351
#     4  11  23  39  61  89 119 157 199 247 302 347
#     4  10  19  35  56  79 110 148 188 235 284 342
#     4  11  23  36  50  75 114 157 193 232 280 351
#     4   9  19  33  54  81 114 151 189 234 285 343
#     4  11  23  35  54  82 111 151 195 234 289 349
#     4  12  22  40  64  86 122 152 202 256 286 350
#     4  10  22  39  58  81 112 147 196 248 293 344
#
# _framework density 17.950856000000002
#
# number of rings (size 3 to 8) (size 9 to 14) (size 15 to 20)
#    0.000    1.517    2.759    2.690    0.966    5.793 
#    0.000    0.000    0.000    0.414    0.000    0.483 
#    0.000    0.000    0.000    0.000    0.000    0.000 
#
# Total GULP energy -323131.791129 kJ/mol
# GULP energy per Si atom -5571.237778 kJ/mol
# Density = 1.791000 g / cm^3
# Si number density = 17.950856 Si / 1000 Ang^3
#
#
#
# Elastic Constant Matrix: (Units=GPa)
#
#
# Indices 1 2 3 4 5 6 
#
# 1 129.6105 66.5754 18.5263 0.0000 0.0000 0.0000
# 2 66.5754 99.1490 2.0314 0.0000 0.0000 0.0000
# 3 18.5263 2.0314 48.0122 0.0000 0.0000 0.0000
# 4 0.0000 0.0000 0.0000 23.6504 0.0000 0.0000
# 5 0.0000 0.0000 0.0000 0.0000 28.3732 0.0000
# 6 0.0000 0.0000 0.0000 0.0000 0.0000 -4.6857
#
#
#
# Elastic Compliance Matrix: (Units=1/GPa)
#
#
# Indices 1 2 3 4 5 6 
#
# 1 0.012696 -0.008432 -0.004542 0.000000 0.000000 0.000000
# 2 -0.008432 0.015694 0.002589 0.000000 0.000000 0.000000
# 3 -0.004542 0.002589 0.022471 0.000000 0.000000 0.000000
# 4 0.000000 0.000000 0.000000 0.042283 0.000000 0.000000
# 5 0.000000 0.000000 0.000000 0.000000 0.035244 0.000000
# 6 0.000000 0.000000 0.000000 0.000000 0.000000 -0.213416
#
#
# Mechanical properties :
#
#
# Convention : Reuss Voigt Hill
#
# Bulk Modulus (GPa) = 33.23079 50.11533 41.67306
# Shear Modulus (GPa) = -92.20217 22.11018 -35.04599
#
# Velocity S-wave (km/s) = -7.17462 3.51337 -4.42331
# Velocity P-wave (km/s) = 7.07681 6.66611 1.67991
#
# Compressibility (1/GPa) = 0.03009257
#
# Stress axis : x y z
#
# Youngs Moduli (GPa) = 78.76722 63.71717 44.50156
#
# Poissons Ratio (x) = 0.53724 0.20213
# Poissons Ratio (y) = 0.66414 -0.11524
# Poissons Ratio (z) = 0.35777 -0.16499
#
# Static dielectric constant tensor:
#      x y z
#    x 1.680130 0.000000 0.000000 
#    y 0.000000 1.644790 0.000000 
#    z 0.000000 0.000000 1.649910 
# 
# From -- ./inp_files/13194.got.cif
#   From: 2010.05.17/outbox.cif.g08.bks.cpg/sg63_7_cif.got.tgz:13194.got - 2010.06.03 15:47:04.
