data_PCOD9471987
_publ_section_title
;
Structure prediction by ZEFSAII (Michael W. Deem and Ramdas Pophale) SiO2 
 PCOD9471987
Probable space group: C M C M
;
_chemical_formula_sum "Si O2"
_cell_formula_units_Z 128
_cell_length_a 10.073742
_cell_length_b 27.525371
_cell_length_c 25.991542
_cell_angle_alpha 90.000000
_cell_angle_beta 90.000000
_cell_angle_gamma 90.000000
_cell_volume 7207.025370
_symmetry_space_group_name_H-M "C M C M"
_symmetry_group_IT_number 63
_symmetry_cell_setting 'orthorhombic'
loop_
_space_group_symop_operation_xyz
x,y,z
-x,-y,1/2+z
x,-y,-z
-x,y,1/2-z
-x,-y,-z
x,y,1/2-z
-x,y,z
x,-y,1/2+z
1/2+x,1/2+y,z
1/2-x,1/2-y,1/2+z
1/2+x,1/2-y,-z
1/2-x,1/2+y,1/2-z
1/2-x,1/2-y,-z
1/2+x,1/2+y,1/2-z
1/2-x,1/2+y,z
1/2+x,1/2-y,1/2+z
loop_
_atom_site_type_symbol
_atom_site_label
_atom_site_fract_x
_atom_site_fract_y
_atom_site_fract_z
Si Si1 0.156908 0.839612 0.690633
Si Si2 0.160400 0.078969 0.902493
Si Si3 0.841727 0.251309 0.655195
Si Si4 0.354523 0.790315 0.546610
Si Si5 0.352061 0.346895 0.007836
Si Si6 0.660895 0.356116 0.192641
Si Si7 0.847575 0.494774 0.938254
Si Si8 0.742515 0.112132 0.409586
O O1 0.175761 0.855199 0.750000
O O2 0.248539 0.792426 0.679903
O O3 0.199924 0.878461 0.647099
O O4 0.000000 0.828543 0.683564
O O5 0.195129 0.117845 0.947140
O O6 0.199145 0.103976 0.849001
O O7 0.000000 0.071630 0.904444
O O8 0.241245 0.030363 0.912646
O O9 0.825689 0.253938 0.593351
O O10 0.803379 0.198290 0.675367
O O11 0.000000 0.259404 0.665794
O O12 0.500000 0.782187 0.524428
O O13 0.257775 0.698309 0.495141
O O14 0.354544 0.842646 0.577313
O O15 0.500000 0.331129 0.020455
O O16 0.349755 0.378041 0.954875
O O17 0.709589 0.365973 0.250000
O O18 0.500000 0.356474 0.193290
O O19 0.820899 0.439870 0.919764
O O20 0.000000 0.508277 0.926233
O O21 0.831734 0.500000 0.000000
#
# Coordination Sequence:
#
# PCOD9471987 Si02
#       8
#    16  16  16  16  16  16  16  16
#     4  10  20  33  51  77 109 142 174 210 255 309
#     4  10  21  35  53  80 106 133 178 226 263 307
#     4   9  17  31  54  80 102 132 180 224 256 299
#     4   8  15  27  47  73 104 135 164 203 254 307
#     4   9  17  29  48  72 103 136 164 204 256 306
#     4   9  18  35  57  77 102 139 180 222 264 305
#     4  11  21  36  57  81 105 134 171 213 262 317
#     4   9  18  30  51  71 102 135 165 202 251 307
#
# _framework density 17.760448
#
# number of rings (size 3 to 8) (size 9 to 14) (size 15 to 20)
#    0.750    1.875    1.250    1.125    0.000    3.000 
#    0.000    1.875    0.000    3.375    0.000    0.000 
#    0.000    0.000    0.000    0.000    0.000    0.000 
#
# Total GULP energy -356438.636986 kJ/mol
# GULP energy per Si atom -5569.353703 kJ/mol
# Density = 1.772002 g / cm^3
# Si number density = 17.760448 Si / 1000 Ang^3
#
#
#
# Elastic Constant Matrix: (Units=GPa)
#
#
# Indices 1 2 3 4 5 6 
#
# 1 47.6821 19.7661 23.5910 0.0000 0.0000 0.0000
# 2 19.7661 77.4110 45.7645 0.0000 0.0000 0.0000
# 3 23.5910 45.7645 108.6283 0.0000 0.0000 0.0000
# 4 0.0000 0.0000 0.0000 17.3347 0.0000 0.0000
# 5 0.0000 0.0000 0.0000 0.0000 19.1997 0.0000
# 6 0.0000 0.0000 0.0000 0.0000 0.0000 10.8765
#
#
#
# Elastic Compliance Matrix: (Units=1/GPa)
#
#
# Indices 1 2 3 4 5 6 
#
# 1 0.024451 -0.004134 -0.003569 0.000000 0.000000 0.000000
# 2 -0.004134 0.017901 -0.006644 0.000000 0.000000 0.000000
# 3 -0.003569 -0.006644 0.012780 0.000000 0.000000 0.000000
# 4 0.000000 0.000000 0.000000 0.057688 0.000000 0.000000
# 5 0.000000 0.000000 0.000000 0.000000 0.052084 0.000000
# 6 0.000000 0.000000 0.000000 0.000000 0.000000 0.091941
#
#
# Mechanical properties :
#
#
# Convention : Reuss Voigt Hill
#
# Bulk Modulus (GPa) = 37.82166 45.77385 41.79775
# Shear Modulus (GPa) = 16.98647 19.12217 18.05432
#
# Velocity S-wave (km/s) = 3.09596 3.28483 3.19179
# Velocity P-wave (km/s) = 5.84137 6.34158 6.09661
#
# Compressibility (1/GPa) = 0.02643988
#
# Stress axis : x y z
#
# Youngs Moduli (GPa) = 40.89746 55.86147 78.24832
#
# Poissons Ratio (x) = 0.23091 0.27924
# Poissons Ratio (y) = 0.16906 0.51989
# Poissons Ratio (z) = 0.14595 0.37115
#
# Static dielectric constant tensor:
#      x y z
#    x 1.607170 0.000000 0.000000 
#    y 0.000000 1.613990 0.000000 
#    z 0.000000 0.000000 1.620320 
# 
# From -- ./inp_files/68829.got.cif
#   From: 2010.05.17/outbox.cif.g08.bks.cpg/sg63_35_cif.got.tgz:68829.got - 2010.06.03 15:47:04.
