data_PCOD9471830
_publ_section_title
;
Structure prediction by ZEFSAII (Michael W. Deem and Ramdas Pophale) SiO2 
 PCOD9471830
Probable space group: C M C M
;
_chemical_formula_sum "Si O2"
_cell_formula_units_Z 68
_cell_length_a 17.784190
_cell_length_b 9.779866
_cell_length_c 18.575731
_cell_angle_alpha 90.000000
_cell_angle_beta 90.000000
_cell_angle_gamma 90.000000
_cell_volume 3230.821075
_symmetry_space_group_name_H-M "C M C M"
_symmetry_group_IT_number 63
_symmetry_cell_setting 'orthorhombic'
loop_
_space_group_symop_operation_xyz
x,y,z
-x,-y,1/2+z
x,-y,-z
-x,y,1/2-z
-x,-y,-z
x,y,1/2-z
-x,y,z
x,-y,1/2+z
1/2+x,1/2+y,z
1/2-x,1/2-y,1/2+z
1/2+x,1/2-y,-z
1/2-x,1/2+y,1/2-z
1/2-x,1/2-y,-z
1/2+x,1/2+y,1/2-z
1/2-x,1/2+y,z
1/2+x,1/2-y,1/2+z
loop_
_atom_site_type_symbol
_atom_site_label
_atom_site_fract_x
_atom_site_fract_y
_atom_site_fract_z
Si Si1 0.287831 0.880579 0.575459
Si Si2 0.371063 0.714142 0.026513
Si Si3 0.223051 0.107431 0.833868
Si Si4 0.084714 0.897900 0.832911
Si Si5 0.500000 0.500000 0.000000
O O1 0.354847 0.847084 0.520754
O O2 0.210025 0.860967 0.531255
O O3 0.287806 0.756796 0.633285
O O4 0.281893 0.020785 0.618809
O O5 0.395188 0.719470 0.110339
O O6 0.433584 0.617727 0.992353
O O7 0.243929 0.114940 0.750000
O O8 0.145879 0.018249 0.838988
O O9 0.084571 0.853592 0.750000
O O10 0.000000 0.946618 0.853493
#
# Coordination Sequence:
#
# PCOD9471830 Si02
#       5
#    16  16  16  16   4
#     4  10  21  36  56  92 128 162 196 262 315 373
#     4  10  20  32  55  86 125 151 197 253 320 352
#     4  10  20  36  59  87 121 165 211 256 309 376
#     4   9  17  31  52  85 120 151 200 262 307 351
#     4  12  20  36  62  94 116 162 216 262 288 366
#
# _framework density 21.047281999999999
#
# number of rings (size 3 to 8) (size 9 to 14) (size 15 to 20)
#    0.000    2.118    1.176    3.529    0.000    5.647 
#    0.000    0.000    0.000    2.824    0.000    1.647 
#    0.000    0.000    0.000    0.000    0.000    0.000 
#
# Total GULP energy -189348.213752 kJ/mol
# GULP energy per Si atom -5569.065110 kJ/mol
# Density = 2.099938 g / cm^3
# Si number density = 21.047282 Si / 1000 Ang^3
#
#
#
# Elastic Constant Matrix: (Units=GPa)
#
#
# Indices 1 2 3 4 5 6 
#
# 1 107.7206 19.2317 31.3366 0.0000 0.0000 0.0000
# 2 19.2317 87.8874 56.5663 0.0000 0.0000 0.0000
# 3 31.3366 56.5663 115.5498 0.0000 0.0000 0.0000
# 4 0.0000 0.0000 0.0000 38.0256 0.0000 0.0000
# 5 0.0000 0.0000 0.0000 0.0000 34.0245 0.0000
# 6 0.0000 0.0000 0.0000 0.0000 0.0000 27.0028
#
#
#
# Elastic Compliance Matrix: (Units=1/GPa)
#
#
# Indices 1 2 3 4 5 6 
#
# 1 0.010104 -0.000653 -0.002420 0.000000 0.000000 0.000000
# 2 -0.000653 0.016655 -0.007976 0.000000 0.000000 0.000000
# 3 -0.002420 -0.007976 0.013215 0.000000 0.000000 0.000000
# 4 0.000000 0.000000 0.000000 0.026298 0.000000 0.000000
# 5 0.000000 0.000000 0.000000 0.000000 0.029391 0.000000
# 6 0.000000 0.000000 0.000000 0.000000 0.000000 0.037033
#
#
# Mechanical properties :
#
#
# Convention : Reuss Voigt Hill
#
# Bulk Modulus (GPa) = 55.94470 58.38076 57.16273
# Shear Modulus (GPa) = 31.10362 33.41215 32.25788
#
# Velocity S-wave (km/s) = 3.84838 3.98864 3.91914
# Velocity P-wave (km/s) = 6.81065 7.00075 6.90635
#
# Compressibility (1/GPa) = 0.01787480
#
# Stress axis : x y z
#
# Youngs Moduli (GPa) = 98.97068 60.04340 75.67022
#
# Poissons Ratio (x) = 0.03922 0.18315
# Poissons Ratio (y) = 0.06464 0.60354
# Poissons Ratio (z) = 0.23955 0.47890
#
# Static dielectric constant tensor:
#      x y z
#    x 1.763880 0.000000 0.000000 
#    y 0.000000 1.671880 0.000000 
#    z 0.000000 0.000000 2.049390 
# 
# From -- ./inp_files/55127.got.cif
#   From: 2010.05.17/outbox.cif.g08.bks.cpg/sg63_28_cif.got.tgz:55127.got - 2010.06.03 15:47:04.
