data_PCOD9471000
_publ_section_title
;
Structure prediction by ZEFSAII (Michael W. Deem and Ramdas Pophale) SiO2 
 PCOD9471000
Probable space group: C M C M
;
_chemical_formula_sum "Si O2"
_cell_formula_units_Z 72
_cell_length_a 16.335079
_cell_length_b 28.812230
_cell_length_c 8.613608
_cell_angle_alpha 90.000000
_cell_angle_beta 90.000000
_cell_angle_gamma 90.000000
_cell_volume 4053.995064
_symmetry_space_group_name_H-M "C M C M"
_symmetry_group_IT_number 63
_symmetry_cell_setting 'orthorhombic'
loop_
_space_group_symop_operation_xyz
x,y,z
-x,-y,1/2+z
x,-y,-z
-x,y,1/2-z
-x,-y,-z
x,y,1/2-z
-x,y,z
x,-y,1/2+z
1/2+x,1/2+y,z
1/2-x,1/2-y,1/2+z
1/2+x,1/2-y,-z
1/2-x,1/2+y,1/2-z
1/2-x,1/2-y,-z
1/2+x,1/2+y,1/2-z
1/2-x,1/2+y,z
1/2+x,1/2-y,1/2+z
loop_
_atom_site_type_symbol
_atom_site_label
_atom_site_fract_x
_atom_site_fract_y
_atom_site_fract_z
Si Si1 0.500000 0.889215 0.429366
Si Si2 0.820608 0.947395 0.437111
Si Si3 0.500000 0.447575 0.063298
Si Si4 0.673955 0.114595 0.434875
Si Si5 0.000000 0.723701 0.929668
Si Si6 0.322901 0.218829 0.937593
O O1 0.500000 0.903670 0.250000
O O2 0.584707 0.903316 0.509828
O O3 0.500000 0.832671 0.431997
O O4 0.815386 0.947908 0.250000
O O5 0.746903 0.917671 0.505417
O O6 0.911163 0.927832 0.483033
O O7 0.815645 0.000000 0.500000
O O8 0.500000 0.449116 0.250000
O O9 0.500000 0.500000 0.000000
O O10 0.674790 0.117524 0.250000
O O11 0.685590 0.165987 0.505567
O O12 0.088126 0.737123 0.996360
O O13 0.000000 0.738723 0.750000
O O14 0.324024 0.218844 0.750000
O O15 0.250000 0.250000 0.000000
#
# Coordination Sequence:
#
# PCOD9471000 Si02
#       6
#     8  16   8  16   8  16
#     4   9  17  33  54  75 100 135 172 211 255 305
#     4  10  19  34  54  78 105 136 172 214 259 307
#     4   8  16  30  51  74  99 132 172 210 251 303
#     4  11  21  34  53  79 106 137 174 213 256 309
#     4   7  14  29  50  71  96 129 165 201 248 304
#     4  10  19  34  54  77 103 135 172 214 259 307
#
# _framework density 17.760256999999999
#
# number of rings (size 3 to 8) (size 9 to 14) (size 15 to 20)
#    0.000    2.444    0.000    5.000    0.000    0.889 
#    0.000    3.333    0.000    0.000    0.000    0.000 
#    0.000    0.000    0.000    0.000    0.000    0.000 
#
# Total GULP energy -200577.468091 kJ/mol
# GULP energy per Si atom -5571.596336 kJ/mol
# Density = 1.771983 g / cm^3
# Si number density = 17.760257 Si / 1000 Ang^3
#
#
#
# Elastic Constant Matrix: (Units=GPa)
#
#
# Indices 1 2 3 4 5 6 
#
# 1 231.9396 69.1373 62.7649 0.0000 0.0000 0.0000
# 2 69.1373 43.1927 24.0464 0.0000 0.0000 0.0000
# 3 62.7649 24.0464 93.4541 0.0000 0.0000 0.0000
# 4 0.0000 0.0000 0.0000 25.1555 0.0000 0.0000
# 5 0.0000 0.0000 0.0000 0.0000 27.9435 0.0000
# 6 0.0000 0.0000 0.0000 0.0000 0.0000 34.1704
#
#
#
# Elastic Compliance Matrix: (Units=1/GPa)
#
#
# Indices 1 2 3 4 5 6 
#
# 1 0.008779 -0.012570 -0.002661 0.000000 0.000000 0.000000
# 2 -0.012570 0.045022 -0.003142 0.000000 0.000000 0.000000
# 3 -0.002661 -0.003142 0.013296 0.000000 0.000000 0.000000
# 4 0.000000 0.000000 0.000000 0.039753 0.000000 0.000000
# 5 0.000000 0.000000 0.000000 0.000000 0.035787 0.000000
# 6 0.000000 0.000000 0.000000 0.000000 0.000000 0.029265
#
#
# Mechanical properties :
#
#
# Convention : Reuss Voigt Hill
#
# Bulk Modulus (GPa) = 32.94959 75.60929 54.27944
# Shear Modulus (GPa) = 22.85559 31.62973 27.24266
#
# Velocity S-wave (km/s) = 3.59122 4.22468 3.92077
# Velocity P-wave (km/s) = 5.98235 8.15241 7.15019
#
# Compressibility (1/GPa) = 0.03034939
#
# Stress axis : x y z
#
# Youngs Moduli (GPa) = 113.91397 22.21150 75.20805
#
# Poissons Ratio (x) = 0.27920 0.20016
# Poissons Ratio (y) = 1.43189 0.23633
# Poissons Ratio (z) = 0.30318 0.06980
#
# Static dielectric constant tensor:
#      x y z
#    x 1.659130 0.000000 0.000000 
#    y 0.000000 1.567330 0.000000 
#    z 0.000000 0.000000 1.581960 
# 
# From -- ./inp_files/4731.got.cif
#   From: 2010.05.17/outbox.cif.g08.bks.cpg/sg63_3_cif.got.tgz:4731.got - 2010.06.03 15:47:04.
