data_PCOD9471727
_publ_section_title
;
Structure prediction by ZEFSAII (Michael W. Deem and Ramdas Pophale) SiO2 
 PCOD9471727
Probable space group: C M C M
;
_chemical_formula_sum "Si O2"
_cell_formula_units_Z 80
_cell_length_a 8.886611
_cell_length_b 28.078293
_cell_length_c 18.737423
_cell_angle_alpha 90.000000
_cell_angle_beta 90.000000
_cell_angle_gamma 90.000000
_cell_volume 4675.378040
_symmetry_space_group_name_H-M "C M C M"
_symmetry_group_IT_number 63
_symmetry_cell_setting 'orthorhombic'
loop_
_space_group_symop_operation_xyz
x,y,z
-x,-y,1/2+z
x,-y,-z
-x,y,1/2-z
-x,-y,-z
x,y,1/2-z
-x,y,z
x,-y,1/2+z
1/2+x,1/2+y,z
1/2-x,1/2-y,1/2+z
1/2+x,1/2-y,-z
1/2-x,1/2+y,1/2-z
1/2-x,1/2-y,-z
1/2+x,1/2+y,1/2-z
1/2-x,1/2+y,z
1/2+x,1/2-y,1/2+z
loop_
_atom_site_type_symbol
_atom_site_label
_atom_site_fract_x
_atom_site_fract_y
_atom_site_fract_z
Si Si1 0.318412 0.209087 0.168505
Si Si2 0.819857 0.948200 0.471453
Si Si3 0.319190 0.091790 0.669288
Si Si4 0.318495 0.144896 0.038763
Si Si5 0.679732 0.805091 0.392703
O O1 0.266966 0.202401 0.250000
O O2 0.500000 0.209736 0.168360
O O3 0.271231 0.167714 0.113633
O O4 0.261176 0.259176 0.137797
O O5 0.759142 0.938833 0.391818
O O6 0.753539 0.905587 0.519516
O O7 0.000000 0.945197 0.471725
O O8 0.774350 0.000000 0.500000
O O9 0.275158 0.079887 0.750000
O O10 0.500000 0.086726 0.662534
O O11 0.285442 0.147290 0.652560
O O12 0.500000 0.139691 0.037308
O O13 0.279474 0.181247 0.974143
O O14 0.500000 0.797431 0.389631
#
# Coordination Sequence:
#
# PCOD9471727 Si02
#       5
#    16  16  16  16  16
#     4  10  20  32  47  71 102 133 166 204 244 287
#     4  10  21  36  54  76 100 127 163 208 255 300
#     4   9  18  33  53  78 105 131 163 203 246 295
#     4   9  19  35  52  70  96 131 169 207 245 293
#     4   9  17  30  49  72  99 131 164 198 239 290
#
# _framework density 17.110916
#
# number of rings (size 3 to 8) (size 9 to 14) (size 15 to 20)
#    0.000    2.600    0.000    3.000    0.000    7.200 
#    0.000    1.000    0.000    3.600    0.000    0.000 
#    0.000    0.000    0.000    0.000    0.000    0.000 
#
# Total GULP energy -223125.630555 kJ/mol
# GULP energy per Si atom -5578.140764 kJ/mol
# Density = 1.707197 g / cm^3
# Si number density = 17.110916 Si / 1000 Ang^3
#
#
#
# Elastic Constant Matrix: (Units=GPa)
#
#
# Indices 1 2 3 4 5 6 
#
# 1 15.9352 35.8373 42.8137 0.0000 0.0000 0.0000
# 2 35.8373 119.5600 108.2223 0.0000 0.0000 0.0000
# 3 42.8137 108.2223 168.8353 0.0000 0.0000 0.0000
# 4 0.0000 0.0000 0.0000 16.0656 0.0000 0.0000
# 5 0.0000 0.0000 0.0000 0.0000 12.6797 0.0000
# 6 0.0000 0.0000 0.0000 0.0000 0.0000 29.6013
#
#
#
# Elastic Compliance Matrix: (Units=1/GPa)
#
#
# Indices 1 2 3 4 5 6 
#
# 1 0.272139 -0.045514 -0.039836 0.000000 0.000000 0.000000
# 2 -0.045514 0.027536 -0.006109 0.000000 0.000000 0.000000
# 3 -0.039836 -0.006109 0.019940 0.000000 0.000000 0.000000
# 4 0.000000 0.000000 0.000000 0.062245 0.000000 0.000000
# 5 0.000000 0.000000 0.000000 0.000000 0.078866 0.000000
# 6 0.000000 0.000000 0.000000 0.000000 0.000000 0.033782
#
#
# Mechanical properties :
#
#
# Convention : Reuss Voigt Hill
#
# Bulk Modulus (GPa) = 7.31536 75.34190 41.32863
# Shear Modulus (GPa) = 6.91571 19.49981 13.20776
#
# Velocity S-wave (km/s) = 2.01258 3.37948 2.78131
# Velocity P-wave (km/s) = 3.11210 7.70421 5.87537
#
# Compressibility (1/GPa) = 0.13669865
#
# Stress axis : x y z
#
# Youngs Moduli (GPa) = 3.67460 36.31601 50.14953
#
# Poissons Ratio (x) = 1.65287 1.99774
# Poissons Ratio (y) = 0.16724 0.30636
# Poissons Ratio (z) = 0.14638 0.22185
#
# Static dielectric constant tensor:
#      x y z
#    x 1.575880 0.000000 0.000000 
#    y 0.000000 1.544220 0.000000 
#    z 0.000000 0.000000 1.593640 
# 
# From -- ./inp_files/40425.got.cif
#   From: 2010.05.17/outbox.cif.g08.bks.cpg/sg63_21_cif.got.tgz:40425.got - 2010.06.03 15:47:04.
