data_PCOD9471003
_publ_section_title
;
Structure prediction by ZEFSAII (Michael W. Deem and Ramdas Pophale) SiO2 
 PCOD9471003
Probable space group: C M C M
;
_chemical_formula_sum "Si O2"
_cell_formula_units_Z 104
_cell_length_a 27.968493
_cell_length_b 23.193992
_cell_length_c 7.472347
_cell_angle_alpha 90.000000
_cell_angle_beta 90.000000
_cell_angle_gamma 90.000000
_cell_volume 4847.318993
_symmetry_space_group_name_H-M "C M C M"
_symmetry_group_IT_number 63
_symmetry_cell_setting 'orthorhombic'
loop_
_space_group_symop_operation_xyz
x,y,z
-x,-y,1/2+z
x,-y,-z
-x,y,1/2-z
-x,-y,-z
x,y,1/2-z
-x,y,z
x,-y,1/2+z
1/2+x,1/2+y,z
1/2-x,1/2-y,1/2+z
1/2+x,1/2-y,-z
1/2-x,1/2+y,1/2-z
1/2-x,1/2-y,-z
1/2+x,1/2+y,1/2-z
1/2-x,1/2+y,z
1/2+x,1/2-y,1/2+z
loop_
_atom_site_type_symbol
_atom_site_label
_atom_site_fract_x
_atom_site_fract_y
_atom_site_fract_z
Si Si1 0.196661 0.102405 0.033643
Si Si2 0.198057 0.433532 0.535393
Si Si3 0.695523 0.736634 0.039351
Si Si4 0.873703 0.336761 0.548284
Si Si5 0.055013 0.755114 0.465832
Si Si6 0.403523 0.620733 0.035755
Si Si7 0.000000 0.933175 0.964033
O O1 0.198415 0.095350 0.250000
O O2 0.247555 0.078601 0.966884
O O3 0.192252 0.170026 0.990636
O O4 0.143467 0.085941 0.969420
O O5 0.186291 0.500000 0.500000
O O6 0.199811 0.423998 0.750000
O O7 0.157484 0.389097 0.466410
O O8 0.685150 0.741905 0.250000
O O9 0.750000 0.750000 0.000000
O O10 0.663517 0.783670 0.943375
O O11 0.887001 0.355172 0.750000
O O12 0.919989 0.304206 0.467883
O O13 0.053919 0.751698 0.250000
O O14 0.088304 0.810373 0.509355
O O15 0.000000 0.763136 0.527921
O O16 0.401850 0.613746 0.250000
O O17 0.451985 0.594310 0.961525
O O18 0.000000 0.922581 0.750000
O O19 0.000000 0.000000 0.000000
#
# Coordination Sequence:
#
# PCOD9471003 Si02
#       7
#    16  16  16  16  16  16   8
#     4   9  18  32  51  75 106 137 168 212 262 306
#     4  10  21  38  54  73 104 142 180 219 260 313
#     4  11  19  30  51  79 109 139 171 211 259 314
#     4  10  20  35  54  78 109 141 174 217 271 326
#     4  10  20  33  53  83 112 136 168 218 276 328
#     4  10  19  34  54  77 104 139 177 218 267 315
#     4  10  22  36  52  70  98 142 187 224 263 308
#
# _framework density 21.455159999999999
#
# number of rings (size 3 to 8) (size 9 to 14) (size 15 to 20)
#    0.000    2.000    3.846    0.462    0.000    1.846 
#    0.000    0.769    0.000    0.462    0.000    0.000 
#    0.000    0.000    0.000    0.000    0.000    0.000 
#
# Total GULP energy -289828.068319 kJ/mol
# GULP energy per Si atom -5573.616698 kJ/mol
# Density = 2.140633 g / cm^3
# Si number density = 21.455160 Si / 1000 Ang^3
#
#
#
# Elastic Constant Matrix: (Units=GPa)
#
#
# Indices 1 2 3 4 5 6 
#
# 1 91.5028 27.0477 -9.9420 0.0000 0.0000 0.0000
# 2 27.0477 90.1145 -0.7831 0.0000 0.0000 0.0000
# 3 -9.9420 -0.7831 56.4665 0.0000 0.0000 0.0000
# 4 0.0000 0.0000 0.0000 13.4875 0.0000 0.0000
# 5 0.0000 0.0000 0.0000 0.0000 -6.9086 0.0000
# 6 0.0000 0.0000 0.0000 0.0000 0.0000 15.0619
#
#
#
# Elastic Compliance Matrix: (Units=1/GPa)
#
#
# Indices 1 2 3 4 5 6 
#
# 1 0.012238 -0.003655 0.002104 0.000000 0.000000 0.000000
# 2 -0.003655 0.012190 -0.000474 0.000000 0.000000 0.000000
# 3 0.002104 -0.000474 0.018073 0.000000 0.000000 0.000000
# 4 0.000000 0.000000 0.000000 0.074143 0.000000 0.000000
# 5 0.000000 0.000000 0.000000 0.000000 -0.144747 0.000000
# 6 0.000000 0.000000 0.000000 0.000000 0.000000 0.066393
#
#
# Mechanical properties :
#
#
# Convention : Reuss Voigt Hill
#
# Bulk Modulus (GPa) = 26.00757 30.08100 28.04428
# Shear Modulus (GPa) = 90.65080 19.11223 54.88152
#
# Velocity S-wave (km/s) = 6.50715 2.98786 5.06312
# Velocity P-wave (km/s) = 8.28284 5.09450 6.87602
#
# Compressibility (1/GPa) = 0.03845035
#
# Stress axis : x y z
#
# Youngs Moduli (GPa) = 81.71557 82.03544 55.32968
#
# Poissons Ratio (x) = 0.29982 -0.11641
# Poissons Ratio (y) = 0.29865 0.02625
# Poissons Ratio (z) = -0.17193 0.03892
#
# Static dielectric constant tensor:
#      x y z
#    x 1.966010 0.000000 0.000000 
#    y 0.000000 1.794290 0.000000 
#    z 0.000000 0.000000 1.781230 
# 
# From -- ./inp_files/12902.got.cif
#   From: 2010.05.17/outbox.cif.g08.bks.cpg/sg63_7_cif.got.tgz:12902.got - 2010.06.03 15:47:04.
