data_PCOD9471927
_publ_section_title
;
Structure prediction by ZEFSAII (Michael W. Deem and Ramdas Pophale) SiO2 
 PCOD9471927
Probable space group: C M C M
;
_chemical_formula_sum "Si O2"
_cell_formula_units_Z 80
_cell_length_a 14.164606
_cell_length_b 18.670634
_cell_length_c 15.024011
_cell_angle_alpha 90.000000
_cell_angle_beta 90.000000
_cell_angle_gamma 90.000000
_cell_volume 3973.282617
_symmetry_space_group_name_H-M "C M C M"
_symmetry_group_IT_number 63
_symmetry_cell_setting 'orthorhombic'
loop_
_space_group_symop_operation_xyz
x,y,z
-x,-y,1/2+z
x,-y,-z
-x,y,1/2-z
-x,-y,-z
x,y,1/2-z
-x,y,z
x,-y,1/2+z
1/2+x,1/2+y,z
1/2-x,1/2-y,1/2+z
1/2+x,1/2-y,-z
1/2-x,1/2+y,1/2-z
1/2-x,1/2-y,-z
1/2+x,1/2+y,1/2-z
1/2-x,1/2+y,z
1/2+x,1/2-y,1/2+z
loop_
_atom_site_type_symbol
_atom_site_label
_atom_site_fract_x
_atom_site_fract_y
_atom_site_fract_z
Si Si1 0.302464 0.173791 0.858560
Si Si2 0.396895 0.381760 0.146824
Si Si3 0.697969 0.524518 0.397587
Si Si4 0.604035 0.025490 0.602182
Si Si5 0.890689 0.175681 0.357809
O O1 0.303490 0.169748 0.750000
O O2 0.195654 0.157641 0.890522
O O3 0.368579 0.109223 0.891923
O O4 0.339870 0.251098 0.886000
O O5 0.402216 0.359807 0.250000
O O6 0.500000 0.369316 0.105459
O O7 0.371810 0.466125 0.145113
O O8 0.701943 0.500000 0.500000
O O9 0.803652 0.514337 0.359162
O O10 0.660490 0.604148 0.389817
O O11 0.500000 0.013449 0.641771
O O12 0.598705 0.000000 0.500000
O O13 0.888374 0.174282 0.250000
O O14 0.000000 0.176070 0.385131
#
# Coordination Sequence:
#
# PCOD9471927 Si02
#       5
#    16  16  16  16  16
#     4   9  18  33  54  78 101 129 170 212 248 295
#     4   9  17  31  51  73 100 134 166 201 250 301
#     4  10  20  33  50  74 102 132 170 209 245 295
#     4   9  18  34  53  73 101 135 169 207 253 300
#     4  10  20  34  53  77 104 132 164 208 257 296
#
# _framework density 20.134484
#
# number of rings (size 3 to 8) (size 9 to 14) (size 15 to 20)
#    0.000    2.600    0.000    1.800    0.000    5.200 
#    0.000   10.000    0.000    6.000    0.000    0.000 
#    0.000    0.000    0.000    0.000    0.000    0.000 
#
# Total GULP energy -223120.673257 kJ/mol
# GULP energy per Si atom -5578.016831 kJ/mol
# Density = 2.008866 g / cm^3
# Si number density = 20.134484 Si / 1000 Ang^3
#
#
#
# Elastic Constant Matrix: (Units=GPa)
#
#
# Indices 1 2 3 4 5 6 
#
# 1 192.0087 101.0739 17.9282 0.0000 0.0000 0.0000
# 2 101.0739 188.6317 17.8828 0.0000 0.0000 0.0000
# 3 17.9282 17.8828 42.6584 0.0000 0.0000 0.0000
# 4 0.0000 0.0000 0.0000 22.0419 0.0000 0.0000
# 5 0.0000 0.0000 0.0000 0.0000 10.1540 0.0000
# 6 0.0000 0.0000 0.0000 0.0000 0.0000 7.7912
#
#
#
# Elastic Compliance Matrix: (Units=1/GPa)
#
#
# Indices 1 2 3 4 5 6 
#
# 1 0.007345 -0.003794 -0.001496 0.000000 0.000000 0.000000
# 2 -0.003794 0.007480 -0.001541 0.000000 0.000000 0.000000
# 3 -0.001496 -0.001541 0.024717 0.000000 0.000000 0.000000
# 4 0.000000 0.000000 0.000000 0.045368 0.000000 0.000000
# 5 0.000000 0.000000 0.000000 0.000000 0.098483 0.000000
# 6 0.000000 0.000000 0.000000 0.000000 0.000000 0.128350
#
#
# Mechanical properties :
#
#
# Convention : Reuss Voigt Hill
#
# Bulk Modulus (GPa) = 38.64129 77.45207 58.04668
# Shear Modulus (GPa) = 14.96859 27.09169 21.03014
#
# Velocity S-wave (km/s) = 2.72955 3.67214 3.23535
# Velocity P-wave (km/s) = 5.40067 7.51866 6.54590
#
# Compressibility (1/GPa) = 0.02587905
#
# Stress axis : x y z
#
# Youngs Moduli (GPa) = 136.15008 133.68581 40.45779
#
# Poissons Ratio (x) = 0.50716 0.06054
# Poissons Ratio (y) = 0.51651 0.06236
# Poissons Ratio (z) = 0.20375 0.20606
#
# Static dielectric constant tensor:
#      x y z
#    x 1.758530 0.000000 0.000000 
#    y 0.000000 1.660330 0.000000 
#    z 0.000000 0.000000 1.807500 
# 
# From -- ./inp_files/43941.got.cif
#   From: 2010.05.17/outbox.cif.g08.bks.cpg/sg63_22_cif.got.tgz:43941.got - 2010.06.03 15:47:04.
