data_PCOD9471107
_publ_section_title
;
Structure prediction by ZEFSAII (Michael W. Deem and Ramdas Pophale) SiO2 
 PCOD9471107
Probable space group: C M C M
;
_chemical_formula_sum "Si O2"
_cell_formula_units_Z 96
_cell_length_a 14.262401
_cell_length_b 22.564829
_cell_length_c 14.773141
_cell_angle_alpha 90.000000
_cell_angle_beta 90.000000
_cell_angle_gamma 90.000000
_cell_volume 4754.419872
_symmetry_space_group_name_H-M "C M C M"
_symmetry_group_IT_number 63
_symmetry_cell_setting 'orthorhombic'
loop_
_space_group_symop_operation_xyz
x,y,z
-x,-y,1/2+z
x,-y,-z
-x,y,1/2-z
-x,-y,-z
x,y,1/2-z
-x,y,z
x,-y,1/2+z
1/2+x,1/2+y,z
1/2-x,1/2-y,1/2+z
1/2+x,1/2-y,-z
1/2-x,1/2+y,1/2-z
1/2-x,1/2-y,-z
1/2+x,1/2+y,1/2-z
1/2-x,1/2+y,z
1/2+x,1/2-y,1/2+z
loop_
_atom_site_type_symbol
_atom_site_label
_atom_site_fract_x
_atom_site_fract_y
_atom_site_fract_z
Si Si1 0.279650 0.625047 0.858724
Si Si2 0.112620 0.787647 0.483811
Si Si3 0.390494 0.152106 0.982085
Si Si4 0.805570 0.004668 0.352098
Si Si5 0.387238 0.372961 0.854643
Si Si6 0.895910 0.537102 0.406335
O O1 0.277517 0.626181 0.750000
O O2 0.176489 0.631517 0.901363
O O3 0.319835 0.560960 0.890108
O O4 0.340164 0.677518 0.901681
O O5 0.136318 0.718439 0.489307
O O6 0.141354 0.821173 0.576644
O O7 0.000000 0.791998 0.476172
O O8 0.500000 0.151886 0.954855
O O9 0.381670 0.105198 0.063629
O O10 0.842880 0.002797 0.250000
O O11 0.850776 0.063885 0.391770
O O12 0.693724 0.015283 0.352209
O O13 0.354548 0.364672 0.750000
O O14 0.500000 0.374330 0.852500
O O15 0.895312 0.500000 0.500000
O O16 0.000000 0.530060 0.366014
#
# Coordination Sequence:
#
# PCOD9471107 Si02
#       6
#    16  16  16  16  16  16
#     4  11  23  37  56  84 116 151 188 228 277 333
#     4  10  22  39  59  83 114 151 188 232 279 330
#     4  10  21  38  58  82 110 144 189 234 280 333
#     4  10  21  35  54  82 114 146 184 233 280 330
#     4   9  19  36  58  84 112 145 188 235 283 332
#     4  10  19  34  57  79 105 144 183 227 280 331
#
# _framework density 20.191738000000001
#
# number of rings (size 3 to 8) (size 9 to 14) (size 15 to 20)
#    0.000    2.000    1.667    1.500    0.000    2.333 
#    0.000    9.167    0.000    3.000    0.000    0.000 
#    0.000    0.000    0.000    0.000    0.000    0.000 
#
# Total GULP energy -267893.255112 kJ/mol
# GULP energy per Si atom -5581.109481 kJ/mol
# Density = 2.014578 g / cm^3
# Si number density = 20.191738 Si / 1000 Ang^3
#
#
#
# Elastic Constant Matrix: (Units=GPa)
#
#
# Indices 1 2 3 4 5 6 
#
# 1 21.0420 4.2323 2.1267 0.0000 0.0000 0.0000
# 2 4.2323 138.3486 10.0869 0.0000 0.0000 0.0000
# 3 2.1267 10.0869 55.9030 0.0000 0.0000 0.0000
# 4 0.0000 0.0000 0.0000 17.9807 0.0000 0.0000
# 5 0.0000 0.0000 0.0000 0.0000 22.4012 0.0000
# 6 0.0000 0.0000 0.0000 0.0000 0.0000 33.7869
#
#
#
# Elastic Compliance Matrix: (Units=1/GPa)
#
#
# Indices 1 2 3 4 5 6 
#
# 1 0.047956 -0.001352 -0.001580 0.000000 0.000000 0.000000
# 2 -0.001352 0.007363 -0.001277 0.000000 0.000000 0.000000
# 3 -0.001580 -0.001277 0.018179 0.000000 0.000000 0.000000
# 4 0.000000 0.000000 0.000000 0.055615 0.000000 0.000000
# 5 0.000000 0.000000 0.000000 0.000000 0.044640 0.000000
# 6 0.000000 0.000000 0.000000 0.000000 0.000000 0.029597
#
#
# Mechanical properties :
#
#
# Convention : Reuss Voigt Hill
#
# Bulk Modulus (GPa) = 15.36614 27.57617 21.47115
# Shear Modulus (GPa) = 21.41685 28.09028 24.75357
#
# Velocity S-wave (km/s) = 3.26033 3.73389 3.50512
# Velocity P-wave (km/s) = 4.66901 5.68121 5.19980
#
# Compressibility (1/GPa) = 0.06507817
#
# Stress axis : x y z
#
# Youngs Moduli (GPa) = 20.85265 135.82194 55.00952
#
# Poissons Ratio (x) = 0.18360 0.08694
# Poissons Ratio (y) = 0.02819 0.07025
# Poissons Ratio (z) = 0.03296 0.17345
#
# Static dielectric constant tensor:
#      x y z
#    x 1.724900 0.000000 0.000000 
#    y 0.000000 1.729700 0.000000 
#    z 0.000000 0.000000 1.698740 
# 
# From -- ./inp_files/31863.got.cif
#   From: 2010.05.17/outbox.cif.g08.bks.cpg/sg63_16_cif.got.tgz:31863.got - 2010.06.03 15:47:04.
