data_PCOD9471704
_publ_section_title
;
Structure prediction by ZEFSAII (Michael W. Deem and Ramdas Pophale) SiO2 
 PCOD9471704
Probable space group: C M C M
;
_chemical_formula_sum "Si O2"
_cell_formula_units_Z 88
_cell_length_a 23.302161
_cell_length_b 25.048706
_cell_length_c 8.709444
_cell_angle_alpha 90.000000
_cell_angle_beta 90.000000
_cell_angle_gamma 90.000000
_cell_volume 5083.606485
_symmetry_space_group_name_H-M "C M C M"
_symmetry_group_IT_number 63
_symmetry_cell_setting 'orthorhombic'
loop_
_space_group_symop_operation_xyz
x,y,z
-x,-y,1/2+z
x,-y,-z
-x,y,1/2-z
-x,-y,-z
x,y,1/2-z
-x,y,z
x,-y,1/2+z
1/2+x,1/2+y,z
1/2-x,1/2-y,1/2+z
1/2+x,1/2-y,-z
1/2-x,1/2+y,1/2-z
1/2-x,1/2-y,-z
1/2+x,1/2+y,1/2-z
1/2-x,1/2+y,z
1/2+x,1/2-y,1/2+z
loop_
_atom_site_type_symbol
_atom_site_label
_atom_site_fract_x
_atom_site_fract_y
_atom_site_fract_z
Si Si1 0.220828 0.941153 0.065163
Si Si2 0.066369 0.765399 0.934903
Si Si3 0.888490 0.127894 0.934870
Si Si4 0.000000 0.940255 0.064272
Si Si5 0.567577 0.856072 0.065343
Si Si6 0.654709 0.941356 0.932821
O O1 0.223422 0.943789 0.250000
O O2 0.170360 0.900906 0.019060
O O3 0.283095 0.925770 0.000606
O O4 0.207695 0.000000 0.000000
O O5 0.067563 0.767552 0.750000
O O6 0.082507 0.704970 0.979359
O O7 0.000000 0.774156 0.983509
O O8 0.104100 0.812725 0.001720
O O9 0.889848 0.129958 0.750000
O O10 0.943197 0.092219 0.984753
O O11 0.000000 0.942848 0.250000
O O12 0.000000 0.000000 0.000000
O O13 0.574381 0.860583 0.250000
O O14 0.500000 0.863994 0.031713
O O15 0.607290 0.898976 0.983922
O O16 0.658440 0.944972 0.750000
O O17 0.641218 0.000000 0.000000
#
# Coordination Sequence:
#
# PCOD9471704 Si02
#       6
#    16  16  16   8  16  16
#     4  10  20  35  54  76 104 142 182 221 268 317
#     4   9  18  33  54  79 106 140 178 216 264 316
#     4  10  20  33  51  75 106 141 179 223 269 315
#     4  10  20  32  46  72 106 138 175 224 271 310
#     4   9  19  37  59  83 111 139 171 215 263 314
#     4  11  22  37  58  82 108 140 175 214 263 317
#
# _framework density 17.310545000000001
#
# number of rings (size 3 to 8) (size 9 to 14) (size 15 to 20)
#    0.000    2.182    0.909    4.909    0.000    3.636 
#    0.000    2.727    0.000    0.000    0.000    0.000 
#    0.000    0.000    0.000    0.000    0.000    0.000 
#
# Total GULP energy -245586.164018 kJ/mol
# GULP energy per Si atom -5581.503728 kJ/mol
# Density = 1.727115 g / cm^3
# Si number density = 17.310545 Si / 1000 Ang^3
#
#
#
# Elastic Constant Matrix: (Units=GPa)
#
#
# Indices 1 2 3 4 5 6 
#
# 1 111.1198 105.5382 50.7776 0.0000 0.0000 0.0000
# 2 105.5382 139.9804 50.4135 0.0000 0.0000 0.0000
# 3 50.7776 50.4135 55.1429 0.0000 0.0000 0.0000
# 4 0.0000 0.0000 0.0000 32.2930 0.0000 0.0000
# 5 0.0000 0.0000 0.0000 0.0000 12.8719 0.0000
# 6 0.0000 0.0000 0.0000 0.0000 0.0000 26.0225
#
#
#
# Elastic Compliance Matrix: (Units=1/GPa)
#
#
# Indices 1 2 3 4 5 6 
#
# 1 0.036844 -0.023198 -0.012719 0.000000 0.000000 0.000000
# 2 -0.023198 0.025257 -0.001729 0.000000 0.000000 0.000000
# 3 -0.012719 -0.001729 0.031428 0.000000 0.000000 0.000000
# 4 0.000000 0.000000 0.000000 0.030966 0.000000 0.000000
# 5 0.000000 0.000000 0.000000 0.000000 0.077689 0.000000
# 6 0.000000 0.000000 0.000000 0.000000 0.000000 0.038428
#
#
# Mechanical properties :
#
#
# Convention : Reuss Voigt Hill
#
# Bulk Modulus (GPa) = 54.83546 79.96686 67.40116
# Shear Modulus (GPa) = 15.52881 20.87173 18.20027
#
# Velocity S-wave (km/s) = 2.99837 3.47612 3.24604
# Velocity P-wave (km/s) = 6.61311 7.89981 7.28492
#
# Compressibility (1/GPa) = 0.01823637
#
# Stress axis : x y z
#
# Youngs Moduli (GPa) = 27.14148 39.59377 31.81916
#
# Poissons Ratio (x) = 0.91849 0.40471
# Poissons Ratio (y) = 0.62962 0.05502
# Poissons Ratio (z) = 0.34521 0.06846
#
# Static dielectric constant tensor:
#      x y z
#    x 1.575140 0.000000 0.000000 
#    y 0.000000 1.566860 0.000000 
#    z 0.000000 0.000000 1.584300 
# 
# From -- ./inp_files/8188.got.cif
#   From: 2010.05.17/outbox.cif.g08.bks.cpg/sg63_5_cif.got.tgz:8188.got - 2010.06.03 15:47:04.
