data_PCOD9471297
_publ_section_title
;
Structure prediction by ZEFSAII (Michael W. Deem and Ramdas Pophale) SiO2 
 PCOD9471297
Probable space group: C M C M
;
_chemical_formula_sum "Si O2"
_cell_formula_units_Z 64
_cell_length_a 10.722200
_cell_length_b 11.757572
_cell_length_c 20.039173
_cell_angle_alpha 90.000000
_cell_angle_beta 90.000000
_cell_angle_gamma 90.000000
_cell_volume 2526.279194
_symmetry_space_group_name_H-M "C M C M"
_symmetry_group_IT_number 63
_symmetry_cell_setting 'orthorhombic'
loop_
_space_group_symop_operation_xyz
x,y,z
-x,-y,1/2+z
x,-y,-z
-x,y,1/2-z
-x,-y,-z
x,y,1/2-z
-x,y,z
x,-y,1/2+z
1/2+x,1/2+y,z
1/2-x,1/2-y,1/2+z
1/2+x,1/2-y,-z
1/2-x,1/2+y,1/2-z
1/2-x,1/2-y,-z
1/2+x,1/2+y,1/2-z
1/2-x,1/2+y,z
1/2+x,1/2-y,1/2+z
loop_
_atom_site_type_symbol
_atom_site_label
_atom_site_fract_x
_atom_site_fract_y
_atom_site_fract_z
Si Si1 0.150808 0.839177 0.750000
Si Si2 0.635933 0.498046 0.868043
Si Si3 0.500000 0.860113 0.579336
Si Si4 0.628905 0.320728 0.250000
Si Si5 0.764596 0.203069 0.925771
Si Si6 0.000000 0.627323 0.916830
O O1 0.189156 0.904523 0.818233
O O2 0.000000 0.831780 0.750000
O O3 0.235937 0.731006 0.750000
O O4 0.500000 0.459736 0.891526
O O5 0.623656 0.599165 0.814085
O O6 0.700615 0.568178 0.926411
O O7 0.622318 0.785336 0.598949
O O8 0.500000 0.868509 0.498049
O O9 0.500000 0.992528 0.603227
O O10 0.500000 0.248848 0.250000
O O11 0.625423 0.193375 0.894584
O O12 0.750000 0.250000 0.000000
#
# Coordination Sequence:
#
# PCOD9471297 Si02
#       6
#     8  16   8   8  16   8
#     4   9  19  37  58  80 108 141 183 237 286 337
#     4   9  18  36  58  79 110 148 186 227 284 355
#     4   9  18  36  57  74 115 160 187 238 293 335
#     4   9  19  37  60  82 104 143 189 229 290 347
#     4  10  19  35  58  83 118 156 191 241 292 343
#     4   9  20  34  53  86 109 148 207 234 275 345
#
# _framework density 25.333701000000001
#
# number of rings (size 3 to 8) (size 9 to 14) (size 15 to 20)
#    0.000    2.750    1.250    1.500    0.000    2.000 
#    4.500    2.500    0.000    7.500    0.000    0.000 
#    0.000    0.000    0.000    0.000    0.000    0.000 
#
# Total GULP energy -178325.491114 kJ/mol
# GULP energy per Si atom -5572.671597 kJ/mol
# Density = 2.527604 g / cm^3
# Si number density = 25.333701 Si / 1000 Ang^3
#
#
#
# Elastic Constant Matrix: (Units=GPa)
#
#
# Indices 1 2 3 4 5 6 
#
# 1 185.9078 82.4955 23.2597 0.0000 0.0000 0.0000
# 2 82.4955 125.4238 33.8163 0.0000 0.0000 0.0000
# 3 23.2597 33.8163 47.3338 0.0000 0.0000 0.0000
# 4 0.0000 0.0000 0.0000 41.0308 0.0000 0.0000
# 5 0.0000 0.0000 0.0000 0.0000 30.6127 0.0000
# 6 0.0000 0.0000 0.0000 0.0000 0.0000 31.6642
#
#
#
# Elastic Compliance Matrix: (Units=1/GPa)
#
#
# Indices 1 2 3 4 5 6 
#
# 1 0.007598 -0.004943 -0.000202 0.000000 0.000000 0.000000
# 2 -0.004943 0.013091 -0.006923 0.000000 0.000000 0.000000
# 3 -0.000202 -0.006923 0.026172 0.000000 0.000000 0.000000
# 4 0.000000 0.000000 0.000000 0.024372 0.000000 0.000000
# 5 0.000000 0.000000 0.000000 0.000000 0.032666 0.000000
# 6 0.000000 0.000000 0.000000 0.000000 0.000000 0.031581
#
#
# Mechanical properties :
#
#
# Convention : Reuss Voigt Hill
#
# Bulk Modulus (GPa) = 44.00699 70.86761 57.43730
# Shear Modulus (GPa) = 29.90589 35.26781 32.58685
#
# Velocity S-wave (km/s) = 3.43954 3.73517 3.59040
# Velocity P-wave (km/s) = 5.76043 6.82909 6.31739
#
# Compressibility (1/GPa) = 0.02272366
#
# Stress axis : x y z
#
# Youngs Moduli (GPa) = 131.62055 76.39071 38.20852
#
# Poissons Ratio (x) = 0.37757 0.00773
# Poissons Ratio (y) = 0.65056 0.26453
# Poissons Ratio (z) = 0.02662 0.52888
#
# Static dielectric constant tensor:
#      x y z
#    x 2.141490 0.000000 0.000000 
#    y 0.000000 2.041310 0.000000 
#    z 0.000000 0.000000 1.749960 
# 
# From -- ./inp_files/59148.got.cif
#   From: 2010.05.17/outbox.cif.g08.bks.cpg/sg63_30_cif.got.tgz:59148.got - 2010.06.03 15:47:04.
