data_PCOD9471626
_publ_section_title
;
Structure prediction by ZEFSAII (Michael W. Deem and Ramdas Pophale) SiO2 
 PCOD9471626
Probable space group: C M C M
;
_chemical_formula_sum "Si O2"
_cell_formula_units_Z 80
_cell_length_a 30.173555
_cell_length_b 15.654864
_cell_length_c 8.868432
_cell_angle_alpha 90.000000
_cell_angle_beta 90.000000
_cell_angle_gamma 90.000000
_cell_volume 4189.118257
_symmetry_space_group_name_H-M "C M C M"
_symmetry_group_IT_number 63
_symmetry_cell_setting 'orthorhombic'
loop_
_space_group_symop_operation_xyz
x,y,z
-x,-y,1/2+z
x,-y,-z
-x,y,1/2-z
-x,-y,-z
x,y,1/2-z
-x,y,z
x,-y,1/2+z
1/2+x,1/2+y,z
1/2-x,1/2-y,1/2+z
1/2+x,1/2-y,-z
1/2-x,1/2+y,1/2-z
1/2-x,1/2-y,-z
1/2+x,1/2+y,1/2-z
1/2-x,1/2+y,z
1/2+x,1/2-y,1/2+z
loop_
_atom_site_type_symbol
_atom_site_label
_atom_site_fract_x
_atom_site_fract_y
_atom_site_fract_z
Si Si1 0.947442 0.583566 0.582007
Si Si2 0.681358 0.088370 0.569135
Si Si3 0.733823 0.660535 0.431397
Si Si4 0.859317 0.224967 0.069522
Si Si5 0.549864 0.734549 0.570553
O O1 0.930128 0.500000 0.500000
O O2 0.928297 0.596482 0.750000
O O3 0.944568 0.667119 0.480672
O O4 0.000000 0.569904 0.600848
O O5 0.681887 0.084624 0.750000
O O6 0.731557 0.096882 0.506654
O O7 0.655484 0.176957 0.525439
O O8 0.663807 0.000000 0.500000
O O9 0.738492 0.659101 0.250000
O O10 0.750000 0.750000 0.500000
O O11 0.681555 0.661836 0.467820
O O12 0.863757 0.226739 0.250000
O O13 0.905686 0.195210 0.999086
O O14 0.550782 0.727513 0.750000
O O15 0.500000 0.707695 0.518768
#
# Coordination Sequence:
#
# PCOD9471626 Si02
#       5
#    16  16  16  16  16
#     4   9  16  26  39  52  69  97 134 177 223 266
#     4  10  20  33  50  73  98 124 156 193 235 281
#     4   9  17  31  50  71  95 122 153 189 233 285
#     4   9  19  33  48  67  92 125 161 194 233 280
#     4  10  20  31  43  61  85 115 153 195 234 270
#
# _framework density 19.097097000000002
#
# number of rings (size 3 to 8) (size 9 to 14) (size 15 to 20)
#    0.000    2.600    0.000    3.600    0.000    9.200 
#    0.000    2.000    0.000    0.000    0.000    0.000 
#    0.000    0.800    0.000    2.600    0.000    3.800 
#
# Total GULP energy -222783.298561 kJ/mol
# GULP energy per Si atom -5569.582464 kJ/mol
# Density = 1.905363 g / cm^3
# Si number density = 19.097097 Si / 1000 Ang^3
#
#
#
# Elastic Constant Matrix: (Units=GPa)
#
#
# Indices 1 2 3 4 5 6 
#
# 1 194.4658 16.8563 48.1184 0.0000 0.0000 0.0000
# 2 16.8563 19.3643 4.3257 0.0000 0.0000 0.0000
# 3 48.1184 4.3257 45.4666 0.0000 0.0000 0.0000
# 4 0.0000 0.0000 0.0000 16.2538 0.0000 0.0000
# 5 0.0000 0.0000 0.0000 0.0000 23.6390 0.0000
# 6 0.0000 0.0000 0.0000 0.0000 0.0000 -12.0449
#
#
#
# Elastic Compliance Matrix: (Units=1/GPa)
#
#
# Indices 1 2 3 4 5 6 
#
# 1 0.007375 -0.004778 -0.007351 0.000000 0.000000 0.000000
# 2 -0.004778 0.055858 -0.000258 0.000000 0.000000 0.000000
# 3 -0.007351 -0.000258 0.029798 0.000000 0.000000 0.000000
# 4 0.000000 0.000000 0.000000 0.061524 0.000000 0.000000
# 5 0.000000 0.000000 0.000000 0.000000 0.042303 0.000000
# 6 0.000000 0.000000 0.000000 0.000000 0.000000 -0.083023
#
#
# Mechanical properties :
#
#
# Convention : Reuss Voigt Hill
#
# Bulk Modulus (GPa) = 14.65011 44.21083 29.43047
# Shear Modulus (GPa) = 30.98615 18.23601 24.61108
#
# Velocity S-wave (km/s) = 4.03247 3.09351 3.59379
# Velocity P-wave (km/s) = 5.41933 5.99671 5.71532
#
# Compressibility (1/GPa) = 0.06825886
#
# Stress axis : x y z
#
# Youngs Moduli (GPa) = 135.58649 17.90243 33.55890
#
# Poissons Ratio (x) = 0.08554 0.24669
# Poissons Ratio (y) = 0.64784 0.00864
# Poissons Ratio (z) = 0.99669 0.00461
#
# Static dielectric constant tensor:
#      x y z
#    x 1.770390 0.000000 0.000000 
#    y 0.000000 1.622700 0.000000 
#    z 0.000000 0.000000 1.642780 
# 
# From -- ./inp_files/14026.got.cif
#   From: 2010.05.17/outbox.cif.g08.bks.cpg/sg63_8_cif.got.tgz:14026.got - 2010.06.03 15:47:04.
