data_PCOD9471479
_publ_section_title
;
Structure prediction by ZEFSAII (Michael W. Deem and Ramdas Pophale) SiO2 
 PCOD9471479
Probable space group: C M C M
;
_chemical_formula_sum "Si O2"
_cell_formula_units_Z 56
_cell_length_a 7.719983
_cell_length_b 17.046255
_cell_length_c 24.742530
_cell_angle_alpha 90.000000
_cell_angle_beta 90.000000
_cell_angle_gamma 90.000000
_cell_volume 3256.037743
_symmetry_space_group_name_H-M "C M C M"
_symmetry_group_IT_number 63
_symmetry_cell_setting 'orthorhombic'
loop_
_space_group_symop_operation_xyz
x,y,z
-x,-y,1/2+z
x,-y,-z
-x,y,1/2-z
-x,-y,-z
x,y,1/2-z
-x,y,z
x,-y,1/2+z
1/2+x,1/2+y,z
1/2-x,1/2-y,1/2+z
1/2+x,1/2-y,-z
1/2-x,1/2+y,1/2-z
1/2-x,1/2-y,-z
1/2+x,1/2+y,1/2-z
1/2-x,1/2+y,z
1/2+x,1/2-y,1/2+z
loop_
_atom_site_type_symbol
_atom_site_label
_atom_site_fract_x
_atom_site_fract_y
_atom_site_fract_z
Si Si1 0.000000 0.703197 0.406686
Si Si2 0.200861 0.955161 0.186516
Si Si3 0.306100 0.174129 0.899825
Si Si4 0.500000 0.907819 0.010068
Si Si5 0.000000 0.579757 0.313881
O O1 0.832346 0.758741 0.409924
O O2 0.000000 0.656017 0.350641
O O3 0.000000 0.640584 0.454947
O O4 0.224944 0.935555 0.250000
O O5 0.246705 0.881791 0.148844
O O6 0.000000 0.976907 0.178465
O O7 0.332501 0.025753 0.174054
O O8 0.500000 0.205788 0.888023
O O9 0.338127 0.120049 0.952785
O O10 0.500000 0.000000 0.000000
O O11 0.000000 0.597870 0.250000
#
# Coordination Sequence:
#
# PCOD9471479 Si02
#       5
#     8  16  16   8   8
#     4  12  22  40  59  85 125 152 193 242 294 348
#     4  10  19  36  61  86 115 153 196 239 288 347
#     4  10  22  36  61  88 116 153 193 241 296 346
#     4  10  22  42  61  82 116 158 194 245 290 348
#     4  10  22  38  60  87 119 156 194 239 282 342
#
# _framework density 17.198817999999999
#
# number of rings (size 3 to 8) (size 9 to 14) (size 15 to 20)
#    0.857    0.857    2.857    2.571    0.000    2.286 
#    0.000    0.714    0.000    0.000    0.000    0.000 
#    0.000    0.000    0.000    0.000    0.000    0.000 
#
# Total GULP energy -156118.335230 kJ/mol
# GULP energy per Si atom -5575.654830 kJ/mol
# Density = 1.715967 g / cm^3
# Si number density = 17.198818 Si / 1000 Ang^3
#
#
#
# Elastic Constant Matrix: (Units=GPa)
#
#
# Indices 1 2 3 4 5 6 
#
# 1 144.6318 77.4971 47.9006 0.0000 0.0000 0.0000
# 2 77.4971 146.2077 72.9322 0.0000 0.0000 0.0000
# 3 47.9006 72.9322 75.3039 0.0000 0.0000 0.0000
# 4 0.0000 0.0000 0.0000 11.7418 0.0000 0.0000
# 5 0.0000 0.0000 0.0000 0.0000 -5.9916 0.0000
# 6 0.0000 0.0000 0.0000 0.0000 0.0000 15.2137
#
#
#
# Elastic Compliance Matrix: (Units=1/GPa)
#
#
# Indices 1 2 3 4 5 6 
#
# 1 0.009866 -0.004061 -0.002343 0.000000 0.000000 0.000000
# 2 -0.004061 0.014904 -0.011851 0.000000 0.000000 0.000000
# 3 -0.002343 -0.011851 0.026248 0.000000 0.000000 0.000000
# 4 0.000000 0.000000 0.000000 0.085166 0.000000 0.000000
# 5 0.000000 0.000000 0.000000 0.000000 -0.166901 0.000000
# 6 0.000000 0.000000 0.000000 0.000000 0.000000 0.065730
#
#
# Mechanical properties :
#
#
# Convention : Reuss Voigt Hill
#
# Bulk Modulus (GPa) = 68.92880 84.75589 76.84234
# Shear Modulus (GPa) = 65.48156 15.38036 40.43096
#
# Velocity S-wave (km/s) = 6.17705 2.99368 4.85376
# Velocity P-wave (km/s) = 9.54145 7.83176 8.72857
#
# Compressibility (1/GPa) = 0.01450772
#
# Stress axis : x y z
#
# Youngs Moduli (GPa) = 101.35967 67.09742 38.09838
#
# Poissons Ratio (x) = 0.27246 0.08926
# Poissons Ratio (y) = 0.41159 0.45152
# Poissons Ratio (z) = 0.23747 0.79519
#
# Static dielectric constant tensor:
#      x y z
#    x 1.588960 0.000000 0.000000 
#    y 0.000000 1.536500 0.000000 
#    z 0.000000 0.000000 1.584080 
# 
# From -- ./inp_files/66227.got.cif
#   From: 2010.05.17/outbox.cif.g08.bks.cpg/sg63_34_cif.got.tgz:66227.got - 2010.06.03 15:47:04.
