data_PCOD9471543
_publ_section_title
;
Structure prediction by ZEFSAII (Michael W. Deem and Ramdas Pophale) SiO2 
 PCOD9471543
Probable space group: C M C M
;
_chemical_formula_sum "Si O2"
_cell_formula_units_Z 80
_cell_length_a 7.895135
_cell_length_b 25.236286
_cell_length_c 19.496949
_cell_angle_alpha 90.000000
_cell_angle_beta 90.000000
_cell_angle_gamma 90.000000
_cell_volume 3884.647862
_symmetry_space_group_name_H-M "C M C M"
_symmetry_group_IT_number 63
_symmetry_cell_setting 'orthorhombic'
loop_
_space_group_symop_operation_xyz
x,y,z
-x,-y,1/2+z
x,-y,-z
-x,y,1/2-z
-x,-y,-z
x,y,1/2-z
-x,y,z
x,-y,1/2+z
1/2+x,1/2+y,z
1/2-x,1/2-y,1/2+z
1/2+x,1/2-y,-z
1/2-x,1/2+y,1/2-z
1/2-x,1/2-y,-z
1/2+x,1/2+y,1/2-z
1/2-x,1/2+y,z
1/2+x,1/2-y,1/2+z
loop_
_atom_site_type_symbol
_atom_site_label
_atom_site_fract_x
_atom_site_fract_y
_atom_site_fract_z
Si Si1 0.800058 0.229755 0.826499
Si Si2 0.801829 0.167286 0.402898
Si Si3 0.798852 0.438900 0.828464
Si Si4 0.707917 0.650447 0.556642
Si Si5 0.795267 0.971091 0.069828
O O1 0.727126 0.224489 0.750000
O O2 0.781721 0.289239 0.854404
O O3 0.731378 0.189668 0.883902
O O4 0.000000 0.218229 0.821855
O O5 0.780898 0.108672 0.372211
O O6 0.735192 0.168003 0.480824
O O7 0.000000 0.180275 0.405078
O O8 0.737193 0.438416 0.750000
O O9 0.762549 0.494149 0.866023
O O10 0.000000 0.429996 0.827910
O O11 0.500000 0.651100 0.555170
O O12 0.759981 0.589874 0.570039
O O13 0.000000 0.971408 0.069154
O O14 0.737190 0.000000 0.000000
#
# Coordination Sequence:
#
# PCOD9471543 Si02
#       5
#    16  16  16  16  16
#     4  10  21  37  56  81 115 151 187 230 283 344
#     4  11  21  37  60  84 112 147 192 242 287 337
#     4  11  24  39  56  84 120 154 191 236 288 344
#     4   9  19  36  59  85 113 147 188 233 284 343
#     4  10  19  37  62  87 115 147 190 240 283 336
#
# _framework density 20.593886999999999
#
# number of rings (size 3 to 8) (size 9 to 14) (size 15 to 20)
#    0.000    1.800    2.000    2.400    0.000    5.600 
#    0.000    4.000    0.000    0.000    0.000    0.000 
#    0.000    0.000    0.000    0.000    0.000    0.000 
#
# Total GULP energy -223526.006162 kJ/mol
# GULP energy per Si atom -5588.150154 kJ/mol
# Density = 2.054701 g / cm^3
# Si number density = 20.593887 Si / 1000 Ang^3
#
#
#
# Elastic Constant Matrix: (Units=GPa)
#
#
# Indices 1 2 3 4 5 6 
#
# 1 21.3105 -7.3851 4.2209 0.0000 0.0000 0.0000
# 2 -7.3851 40.4769 36.4508 0.0000 0.0000 0.0000
# 3 4.2209 36.4508 178.3583 0.0000 0.0000 0.0000
# 4 0.0000 0.0000 0.0000 25.8945 0.0000 0.0000
# 5 0.0000 0.0000 0.0000 0.0000 15.5782 0.0000
# 6 0.0000 0.0000 0.0000 0.0000 0.0000 -33.3366
#
#
#
# Elastic Compliance Matrix: (Units=1/GPa)
#
#
# Indices 1 2 3 4 5 6 
#
# 1 0.052217 0.013040 -0.003901 0.000000 0.000000 0.000000
# 2 0.013040 0.033534 -0.007162 0.000000 0.000000 0.000000
# 3 -0.003901 -0.007162 0.007163 0.000000 0.000000 0.000000
# 4 0.000000 0.000000 0.000000 0.038618 0.000000 0.000000
# 5 0.000000 0.000000 0.000000 0.000000 0.064192 0.000000
# 6 0.000000 0.000000 0.000000 0.000000 0.000000 -0.029997
#
#
# Mechanical properties :
#
#
# Convention : Reuss Voigt Hill
#
# Bulk Modulus (GPa) = 10.32335 34.07987 22.20161
# Shear Modulus (GPa) = 25.76498 15.41783 20.59141
#
# Velocity S-wave (km/s) = 3.54092 2.73913 3.16552
# Velocity P-wave (km/s) = 4.66275 5.15638 4.91577
#
# Compressibility (1/GPa) = 0.09686779
#
# Stress axis : x y z
#
# Youngs Moduli (GPa) = 19.15095 29.82043 139.61289
#
# Poissons Ratio (x) = -0.38885 0.54458
# Poissons Ratio (y) = -0.24972 0.99989
# Poissons Ratio (z) = 0.07470 0.21357
#
# Static dielectric constant tensor:
#      x y z
#    x 1.756510 0.000000 0.000000 
#    y 0.000000 1.685800 0.000000 
#    z 0.000000 0.000000 1.729080 
# 
# From -- ./inp_files/40522.got.cif
#   From: 2010.05.17/outbox.cif.g08.bks.cpg/sg63_21_cif.got.tgz:40522.got - 2010.06.03 15:47:04.
