data_PCOD9471715
_publ_section_title
;
Structure prediction by ZEFSAII (Michael W. Deem and Ramdas Pophale) SiO2 
 PCOD9471715
Probable space group: C M C M
;
_chemical_formula_sum "Si O2"
_cell_formula_units_Z 96
_cell_length_a 9.242875
_cell_length_b 25.636443
_cell_length_c 25.729058
_cell_angle_alpha 90.000000
_cell_angle_beta 90.000000
_cell_angle_gamma 90.000000
_cell_volume 6096.614481
_symmetry_space_group_name_H-M "C M C M"
_symmetry_group_IT_number 63
_symmetry_cell_setting 'orthorhombic'
loop_
_space_group_symop_operation_xyz
x,y,z
-x,-y,1/2+z
x,-y,-z
-x,y,1/2-z
-x,-y,-z
x,y,1/2-z
-x,y,z
x,-y,1/2+z
1/2+x,1/2+y,z
1/2-x,1/2-y,1/2+z
1/2+x,1/2-y,-z
1/2-x,1/2+y,1/2-z
1/2-x,1/2-y,-z
1/2+x,1/2+y,1/2-z
1/2-x,1/2+y,z
1/2+x,1/2-y,1/2+z
loop_
_atom_site_type_symbol
_atom_site_label
_atom_site_fract_x
_atom_site_fract_y
_atom_site_fract_z
Si Si1 0.328183 0.111806 0.188287
Si Si2 0.671699 0.692163 0.115084
Si Si3 0.672352 0.306147 0.001706
Si Si4 0.172900 0.685274 0.603771
Si Si5 0.833971 0.006069 0.186877
Si Si6 0.672859 0.099589 0.689429
O O1 0.300427 0.118785 0.250000
O O2 0.500000 0.108211 0.180990
O O3 0.261601 0.159144 0.155934
O O4 0.252294 0.057855 0.171286
O O5 0.500000 0.687642 0.125877
O O6 0.707962 0.754002 0.115575
O O7 0.697147 0.671715 0.056115
O O8 0.500000 0.300129 0.008169
O O9 0.742387 0.332520 0.052092
O O10 0.750000 0.250000 0.000000
O O11 0.206243 0.648109 0.652227
O O12 0.000000 0.683472 0.593781
O O13 0.833902 0.006052 0.250000
O O14 0.000000 0.007784 0.169265
O O15 0.755358 0.952507 0.171815
O O16 0.709242 0.110164 0.750000
O O17 0.500000 0.090287 0.687131
#
# Coordination Sequence:
#
# PCOD9471715 Si02
#       6
#    16  16  16  16  16  16
#     4  10  20  32  47  69  95 123 155 191 233 278
#     4   9  18  31  47  69  95 124 157 190 228 275
#     4   9  17  30  48  68  91 121 158 196 231 271
#     4   9  18  31  48  71  97 126 158 190 229 276
#     4   9  17  30  48  68  90 120 158 195 230 272
#     4   9  17  30  48  70  97 127 157 190 228 273
#
# _framework density 15.746442999999999
#
# number of rings (size 3 to 8) (size 9 to 14) (size 15 to 20)
#    0.000    2.833    0.000    2.500    0.000    7.667 
#    0.000    1.667    0.000    3.000    0.000    7.000 
#    0.000    0.000    0.000    0.000    0.000    0.000 
#
# Total GULP energy -267308.417094 kJ/mol
# GULP energy per Si atom -5568.925356 kJ/mol
# Density = 1.571060 g / cm^3
# Si number density = 15.746443 Si / 1000 Ang^3
#
#
#
# Elastic Constant Matrix: (Units=GPa)
#
#
# Indices 1 2 3 4 5 6 
#
# 1 68.0785 57.2813 62.3338 0.0000 0.0000 0.0000
# 2 57.2813 97.6834 61.3864 0.0000 0.0000 0.0000
# 3 62.3338 61.3864 84.0372 0.0000 0.0000 0.0000
# 4 0.0000 0.0000 0.0000 -2.1691 0.0000 0.0000
# 5 0.0000 0.0000 0.0000 0.0000 28.2484 0.0000
# 6 0.0000 0.0000 0.0000 0.0000 0.0000 27.9086
#
#
#
# Elastic Compliance Matrix: (Units=1/GPa)
#
#
# Indices 1 2 3 4 5 6 
#
# 1 0.052000 -0.011561 -0.030125 0.000000 0.000000 0.000000
# 2 -0.011561 0.021494 -0.007126 0.000000 0.000000 0.000000
# 3 -0.030125 -0.007126 0.039450 0.000000 0.000000 0.000000
# 4 0.000000 0.000000 0.000000 -0.461012 0.000000 0.000000
# 5 0.000000 0.000000 0.000000 0.000000 0.035400 0.000000
# 6 0.000000 0.000000 0.000000 0.000000 0.000000 0.035831
#
#
# Mechanical properties :
#
#
# Convention : Reuss Voigt Hill
#
# Bulk Modulus (GPa) = 65.27513 67.97800 66.62657
# Shear Modulus (GPa) = -28.71802 15.38409 -6.66697
#
# Velocity S-wave (km/s) = -4.27520 3.12907 -2.05989
# Velocity P-wave (km/s) = 4.14416 7.50459 6.06189
#
# Compressibility (1/GPa) = 0.01531977
#
# Stress axis : x y z
#
# Youngs Moduli (GPa) = 19.23090 46.52362 25.34877
#
# Poissons Ratio (x) = 0.53786 0.76364
# Poissons Ratio (y) = 0.22233 0.18063
# Poissons Ratio (z) = 0.57934 0.33151
#
# Static dielectric constant tensor:
#      x y z
#    x 1.527120 0.000000 0.000000 
#    y 0.000000 1.506530 0.000000 
#    z 0.000000 0.000000 1.537000 
# 
# From -- ./inp_files/59884.got.cif
#   From: 2010.05.17/outbox.cif.g08.bks.cpg/sg63_30_cif.got.tgz:59884.got - 2010.06.03 15:47:04.
