data_PCOD9471067
_publ_section_title
;
Structure prediction by ZEFSAII (Michael W. Deem and Ramdas Pophale) SiO2 
 PCOD9471067
Probable space group: C M C M
;
_chemical_formula_sum "Si O2"
_cell_formula_units_Z 80
_cell_length_a 8.671428
_cell_length_b 26.995625
_cell_length_c 16.905110
_cell_angle_alpha 90.000000
_cell_angle_beta 90.000000
_cell_angle_gamma 90.000000
_cell_volume 3957.327656
_symmetry_space_group_name_H-M "C M C M"
_symmetry_group_IT_number 63
_symmetry_cell_setting 'orthorhombic'
loop_
_space_group_symop_operation_xyz
x,y,z
-x,-y,1/2+z
x,-y,-z
-x,y,1/2-z
-x,-y,-z
x,y,1/2-z
-x,y,z
x,-y,1/2+z
1/2+x,1/2+y,z
1/2-x,1/2-y,1/2+z
1/2+x,1/2-y,-z
1/2-x,1/2+y,1/2-z
1/2-x,1/2-y,-z
1/2+x,1/2+y,1/2-z
1/2-x,1/2+y,z
1/2+x,1/2-y,1/2+z
loop_
_atom_site_type_symbol
_atom_site_label
_atom_site_fract_x
_atom_site_fract_y
_atom_site_fract_z
Si Si1 0.816096 0.161707 0.557928
Si Si2 0.682505 0.450258 0.604240
Si Si3 0.818113 0.056654 0.912263
Si Si4 0.181096 0.346774 0.616625
Si Si5 0.177132 0.745579 0.660170
O O1 0.764977 0.112273 0.606395
O O2 0.725392 0.160764 0.475621
O O3 0.780536 0.211528 0.604475
O O4 0.000000 0.157381 0.542014
O O5 0.500000 0.447457 0.622692
O O6 0.695293 0.446439 0.508145
O O7 0.745652 0.505370 0.623261
O O8 0.765118 0.402179 0.638592
O O9 0.000000 0.054839 0.893842
O O10 0.270280 0.302393 0.658498
O O11 0.000000 0.341635 0.629016
O O12 0.187633 0.727315 0.750000
O O13 0.000000 0.742394 0.633158
#
# Coordination Sequence:
#
# PCOD9471067 Si02
#       5
#    16  16  16  16  16
#     4  10  19  34  56  80 106 135 170 209 250 299
#     4   8  13  26  47  72 103 135 168 203 243 291
#     4   7  12  24  46  74 102 133 165 200 242 293
#     4  11  21  33  52  79 108 136 170 210 253 300
#     4  11  24  40  55  72  98 133 172 215 263 309
#
# _framework density 20.215661999999998
#
# number of rings (size 3 to 8) (size 9 to 14) (size 15 to 20)
#    0.000    2.600    0.000    6.000    0.000    1.600 
#    0.000    9.000    0.000    1.200    0.000    2.800 
#    0.000    0.000    0.000    0.000    0.000    0.000 
#
# Total GULP energy -222940.743589 kJ/mol
# GULP energy per Si atom -5573.518590 kJ/mol
# Density = 2.016965 g / cm^3
# Si number density = 20.215662 Si / 1000 Ang^3
#
#
#
# Elastic Constant Matrix: (Units=GPa)
#
#
# Indices 1 2 3 4 5 6 
#
# 1 31.8648 -10.9034 -3.3370 0.0000 0.0000 0.0000
# 2 -10.9034 100.6118 11.3408 0.0000 0.0000 0.0000
# 3 -3.3370 11.3408 10.9472 0.0000 0.0000 0.0000
# 4 0.0000 0.0000 0.0000 -7.3291 0.0000 0.0000
# 5 0.0000 0.0000 0.0000 0.0000 7.1610 0.0000
# 6 0.0000 0.0000 0.0000 0.0000 0.0000 24.8605
#
#
#
# Elastic Compliance Matrix: (Units=1/GPa)
#
#
# Indices 1 2 3 4 5 6 
#
# 1 0.033087 0.002773 0.007213 0.000000 0.000000 0.000000
# 2 0.002773 0.011486 -0.011053 0.000000 0.000000 0.000000
# 3 0.007213 -0.011053 0.104997 0.000000 0.000000 0.000000
# 4 0.000000 0.000000 0.000000 -0.136443 0.000000 0.000000
# 5 0.000000 0.000000 0.000000 0.000000 0.139646 0.000000
# 6 0.000000 0.000000 0.000000 0.000000 0.000000 0.040224
#
#
# Mechanical properties :
#
#
# Convention : Reuss Voigt Hill
#
# Bulk Modulus (GPa) = 6.78269 15.29164 11.03716
# Shear Modulus (GPa) = 20.46861 14.69338 17.58099
#
# Velocity S-wave (km/s) = 3.18545 2.69891 2.95222
# Velocity P-wave (km/s) = 4.10998 4.15846 4.13429
#
# Compressibility (1/GPa) = 0.14743422
#
# Stress axis : x y z
#
# Youngs Moduli (GPa) = 30.22364 87.06575 9.52409
#
# Poissons Ratio (x) = -0.24139 -0.06870
# Poissons Ratio (y) = -0.08380 0.10527
# Poissons Ratio (z) = -0.21801 0.96237
#
# Static dielectric constant tensor:
#      x y z
#    x 1.676990 0.000000 0.000000 
#    y 0.000000 1.784440 0.000000 
#    z 0.000000 0.000000 1.722740 
# 
# From -- ./inp_files/40539.got.cif
#   From: 2010.05.17/outbox.cif.g08.bks.cpg/sg63_21_cif.got.tgz:40539.got - 2010.06.03 15:47:04.
