data_PCOD9471293
_publ_section_title
;
Structure prediction by ZEFSAII (Michael W. Deem and Ramdas Pophale) SiO2 
 PCOD9471293
Probable space group: C M C M
;
_chemical_formula_sum "Si O2"
_cell_formula_units_Z 96
_cell_length_a 32.024307
_cell_length_b 9.169437
_cell_length_c 14.512489
_cell_angle_alpha 90.000000
_cell_angle_beta 90.000000
_cell_angle_gamma 90.000000
_cell_volume 4261.517881
_symmetry_space_group_name_H-M "C M C M"
_symmetry_group_IT_number 63
_symmetry_cell_setting 'orthorhombic'
loop_
_space_group_symop_operation_xyz
x,y,z
-x,-y,1/2+z
x,-y,-z
-x,y,1/2-z
-x,-y,-z
x,y,1/2-z
-x,y,z
x,-y,1/2+z
1/2+x,1/2+y,z
1/2-x,1/2-y,1/2+z
1/2+x,1/2-y,-z
1/2-x,1/2+y,1/2-z
1/2-x,1/2-y,-z
1/2+x,1/2+y,1/2-z
1/2-x,1/2+y,z
1/2+x,1/2-y,1/2+z
loop_
_atom_site_type_symbol
_atom_site_label
_atom_site_fract_x
_atom_site_fract_y
_atom_site_fract_z
Si Si1 0.795169 0.601892 0.362964
Si Si2 0.374793 0.090858 0.637917
Si Si3 0.785280 0.926923 0.355855
Si Si4 0.953540 0.061799 0.603342
Si Si5 0.546915 0.101645 0.138501
Si Si6 0.870194 0.075361 0.400392
O O1 0.796061 0.606799 0.250000
O O2 0.836309 0.512605 0.388826
O O3 0.793981 0.768109 0.398107
O O4 0.753582 0.517641 0.393676
O O5 0.374168 0.106819 0.750000
O O6 0.371182 0.251081 0.596565
O O7 0.417713 0.011742 0.611230
O O8 0.773212 0.898062 0.250000
O O9 0.827381 0.020639 0.355805
O O10 0.945672 0.235050 0.602186
O O11 0.000000 0.039582 0.644669
O O12 0.956077 0.000000 0.500000
O O13 0.913126 0.982819 0.645238
O O14 0.548511 0.113680 0.250000
O O15 0.500000 0.055672 0.112765
O O16 0.869246 0.000000 0.500000
#
# Coordination Sequence:
#
# PCOD9471293 Si02
#       6
#    16  16  16  16  16  16
#     4   9  18  33  57  84 106 137 184 230 274 336
#     4  10  20  36  58  83 112 146 185 231 284 338
#     4  10  19  35  58  81 108 143 185 232 282 335
#     4   9  19  37  57  78 110 150 187 222 270 337
#     4   9  18  34  59  90 118 144 183 238 290 330
#     4  11  23  37  53  79 113 147 188 233 278 332
#
# _framework density 22.527184999999999
#
# number of rings (size 3 to 8) (size 9 to 14) (size 15 to 20)
#    0.000    2.333    0.000    2.500    0.000    6.000 
#    0.000   10.833    0.000    9.000    0.000    0.000 
#    0.000    0.000    0.000    0.000    0.000    0.000 
#
# Total GULP energy -268286.269640 kJ/mol
# GULP energy per Si atom -5589.297284 kJ/mol
# Density = 2.247591 g / cm^3
# Si number density = 22.527185 Si / 1000 Ang^3
#
#
#
# Elastic Constant Matrix: (Units=GPa)
#
#
# Indices 1 2 3 4 5 6 
#
# 1 199.8393 126.6167 -2.8394 0.0000 0.0000 0.0000
# 2 126.6167 216.4640 13.6934 0.0000 0.0000 0.0000
# 3 -2.8394 13.6934 71.3127 0.0000 0.0000 0.0000
# 4 0.0000 0.0000 0.0000 10.9578 0.0000 0.0000
# 5 0.0000 0.0000 0.0000 0.0000 -9.3972 0.0000
# 6 0.0000 0.0000 0.0000 0.0000 0.0000 40.2917
#
#
#
# Elastic Compliance Matrix: (Units=1/GPa)
#
#
# Indices 1 2 3 4 5 6 
#
# 1 0.008058 -0.004792 0.001241 0.000000 0.000000 0.000000
# 2 -0.004792 0.007526 -0.001636 0.000000 0.000000 0.000000
# 3 0.001241 -0.001636 0.014386 0.000000 0.000000 0.000000
# 4 0.000000 0.000000 0.000000 0.091259 0.000000 0.000000
# 5 0.000000 0.000000 0.000000 0.000000 -0.106415 0.000000
# 6 0.000000 0.000000 0.000000 0.000000 0.000000 0.024819
#
#
# Mechanical properties :
#
#
# Convention : Reuss Voigt Hill
#
# Bulk Modulus (GPa) = 51.02937 84.72860 67.87898
# Shear Modulus (GPa) = 88.43539 31.71348 60.07443
#
# Velocity S-wave (km/s) = 6.27235 3.75612 5.16966
# Velocity P-wave (km/s) = 8.66938 7.51695 8.11365
#
# Compressibility (1/GPa) = 0.01959656
#
# Stress axis : x y z
#
# Youngs Moduli (GPa) = 124.10627 132.87293 69.51067
#
# Poissons Ratio (x) = 0.63668 -0.08626
# Poissons Ratio (y) = 0.59467 0.11371
# Poissons Ratio (z) = -0.15401 0.21737
#
# Static dielectric constant tensor:
#      x y z
#    x 1.840800 0.000000 0.000000 
#    y 0.000000 1.766120 0.000000 
#    z 0.000000 0.000000 2.006270 
# 
# From -- ./inp_files/58044.got.cif
#   From: 2010.05.17/outbox.cif.g08.bks.cpg/sg63_30_cif.got.tgz:58044.got - 2010.06.03 15:47:04.
