data_PCOD9471893
_publ_section_title
;
Structure prediction by ZEFSAII (Michael W. Deem and Ramdas Pophale) SiO2 
 PCOD9471893
Probable space group: C M C M
;
_chemical_formula_sum "Si O2"
_cell_formula_units_Z 96
_cell_length_a 10.445423
_cell_length_b 19.490300
_cell_length_c 27.412992
_cell_angle_alpha 90.000000
_cell_angle_beta 90.000000
_cell_angle_gamma 90.000000
_cell_volume 5580.858293
_symmetry_space_group_name_H-M "C M C M"
_symmetry_group_IT_number 63
_symmetry_cell_setting 'orthorhombic'
loop_
_space_group_symop_operation_xyz
x,y,z
-x,-y,1/2+z
x,-y,-z
-x,y,1/2-z
-x,-y,-z
x,y,1/2-z
-x,y,z
x,-y,1/2+z
1/2+x,1/2+y,z
1/2-x,1/2-y,1/2+z
1/2+x,1/2-y,-z
1/2-x,1/2+y,1/2-z
1/2-x,1/2-y,-z
1/2+x,1/2+y,1/2-z
1/2-x,1/2+y,z
1/2+x,1/2-y,1/2+z
loop_
_atom_site_type_symbol
_atom_site_label
_atom_site_fract_x
_atom_site_fract_y
_atom_site_fract_z
Si Si1 0.360668 0.549407 0.046490
Si Si2 0.845557 0.387664 0.804911
Si Si3 0.354706 0.157560 0.905884
Si Si4 0.349470 0.003139 0.878884
Si Si5 0.215172 0.327049 0.513992
Si Si6 0.353746 0.775156 0.884451
O O1 0.500000 0.544294 0.070657
O O2 0.244744 0.527351 0.080683
O O3 0.335595 0.625726 0.026899
O O4 0.359726 0.500000 0.000000
O O5 0.795005 0.381199 0.750000
O O6 0.818130 0.461035 0.829837
O O7 0.808205 0.326554 0.841786
O O8 0.000000 0.383226 0.802582
O O9 0.500000 0.181765 0.895612
O O10 0.246715 0.213185 0.891936
O O11 0.332863 0.085178 0.878864
O O12 0.347086 0.143789 0.964559
O O13 0.500000 0.990386 0.890292
O O14 0.250000 0.250000 0.500000
O O15 0.142091 0.318495 0.565038
O O16 0.500000 0.751547 0.874669
#
# Coordination Sequence:
#
# PCOD9471893 Si02
#       6
#    16  16  16  16  16  16
#     4  11  22  35  53  80 112 147 182 219 265 318
#     4   9  18  35  59  83 104 134 182 232 275 323
#     4  10  21  34  52  79 114 147 177 218 268 322
#     4  10  20  36  56  79 107 143 184 226 271 322
#     4  10  20  33  49  76 111 146 179 213 259 318
#     4  10  20  34  55  79 107 144 184 222 266 319
#
# _framework density 17.201656
#
# number of rings (size 3 to 8) (size 9 to 14) (size 15 to 20)
#    0.000    2.000    3.333    0.500    0.000    7.000 
#    0.000    0.833    0.000    3.000    0.000    0.000 
#    0.000    0.000    0.000    0.000    0.000    0.000 
#
# Total GULP energy -267280.018404 kJ/mol
# GULP energy per Si atom -5568.333717 kJ/mol
# Density = 1.716250 g / cm^3
# Si number density = 17.201656 Si / 1000 Ang^3
#
#
#
# Elastic Constant Matrix: (Units=GPa)
#
#
# Indices 1 2 3 4 5 6 
#
# 1 88.7908 53.3196 34.1401 0.0000 0.0000 0.0000
# 2 53.3196 100.4273 51.3402 0.0000 0.0000 0.0000
# 3 34.1401 51.3402 115.9709 0.0000 0.0000 0.0000
# 4 0.0000 0.0000 0.0000 21.3629 0.0000 0.0000
# 5 0.0000 0.0000 0.0000 0.0000 13.1668 0.0000
# 6 0.0000 0.0000 0.0000 0.0000 0.0000 15.1266
#
#
#
# Elastic Compliance Matrix: (Units=1/GPa)
#
#
# Indices 1 2 3 4 5 6 
#
# 1 0.016679 -0.008202 -0.001279 0.000000 0.000000 0.000000
# 2 -0.008202 0.016903 -0.005069 0.000000 0.000000 0.000000
# 3 -0.001279 -0.005069 0.011243 0.000000 0.000000 0.000000
# 4 0.000000 0.000000 0.000000 0.046810 0.000000 0.000000
# 5 0.000000 0.000000 0.000000 0.000000 0.075949 0.000000
# 6 0.000000 0.000000 0.000000 0.000000 0.000000 0.066109
#
#
# Mechanical properties :
#
#
# Convention : Reuss Voigt Hill
#
# Bulk Modulus (GPa) = 63.58538 64.75430 64.16984
# Shear Modulus (GPa) = 18.65430 21.02385 19.83908
#
# Velocity S-wave (km/s) = 3.29667 3.49979 3.39975
# Velocity P-wave (km/s) = 7.17883 7.35237 7.26612
#
# Compressibility (1/GPa) = 0.01572688
#
# Stress axis : x y z
#
# Youngs Moduli (GPa) = 59.95405 59.16112 88.94178
#
# Poissons Ratio (x) = 0.48521 0.11379
# Poissons Ratio (y) = 0.49172 0.45080
# Poissons Ratio (z) = 0.07670 0.29986
#
# Static dielectric constant tensor:
#      x y z
#    x 1.601780 0.000000 0.000000 
#    y 0.000000 1.598060 0.000000 
#    z 0.000000 0.000000 1.599170 
# 
# From -- ./inp_files/61651.got.cif
#   From: 2010.05.17/outbox.cif.g08.bks.cpg/sg63_31_cif.got.tgz:61651.got - 2010.06.03 15:47:04.
