data_PCOD9471319
_publ_section_title
;
Structure prediction by ZEFSAII (Michael W. Deem and Ramdas Pophale) SiO2 
 PCOD9471319
Probable space group: C M C M
;
_chemical_formula_sum "Si O2"
_cell_formula_units_Z 64
_cell_length_a 8.703617
_cell_length_b 18.612405
_cell_length_c 21.487076
_cell_angle_alpha 90.000000
_cell_angle_beta 90.000000
_cell_angle_gamma 90.000000
_cell_volume 3480.804132
_symmetry_space_group_name_H-M "C M C M"
_symmetry_group_IT_number 63
_symmetry_cell_setting 'orthorhombic'
loop_
_space_group_symop_operation_xyz
x,y,z
-x,-y,1/2+z
x,-y,-z
-x,y,1/2-z
-x,-y,-z
x,y,1/2-z
-x,y,z
x,-y,1/2+z
1/2+x,1/2+y,z
1/2-x,1/2-y,1/2+z
1/2+x,1/2-y,-z
1/2-x,1/2+y,1/2-z
1/2-x,1/2-y,-z
1/2+x,1/2+y,1/2-z
1/2-x,1/2+y,z
1/2+x,1/2-y,1/2+z
loop_
_atom_site_type_symbol
_atom_site_label
_atom_site_fract_x
_atom_site_fract_y
_atom_site_fract_z
Si Si1 0.817250 0.085055 0.997540
Si Si2 0.683150 0.830386 0.381391
Si Si3 0.177361 0.164875 0.750000
Si Si4 0.685947 0.169584 0.114780
Si Si5 0.177133 0.339735 0.750000
O O1 0.742443 0.118966 0.936183
O O2 0.000000 0.098451 0.996332
O O3 0.745702 0.122736 0.058011
O O4 0.790746 0.000000 0.000000
O O5 0.500000 0.825391 0.382040
O O6 0.740219 0.856797 0.313724
O O7 0.753792 0.750984 0.391828
O O8 0.178114 0.252422 0.750000
O O9 0.000000 0.142008 0.750000
O O10 0.500000 0.171391 0.115683
O O11 0.742629 0.140553 0.182454
O O12 0.000000 0.364053 0.750000
#
# Coordination Sequence:
#
# PCOD9471319 Si02
#       5
#    16  16   8  16   8
#     4  11  24  40  55  75 108 149 190 232 279 328
#     4  11  21  35  58  86 113 143 183 226 272 328
#     4   9  17  33  56  83 114 143 177 223 273 321
#     4  10  19  35  59  84 111 143 181 225 275 329
#     4   7  14  29  52  81 108 135 167 213 269 319
#
# _framework density 18.386555999999999
#
# number of rings (size 3 to 8) (size 9 to 14) (size 15 to 20)
#    0.000    2.000    0.000    6.375    0.000    2.000 
#    0.000    3.125    0.000    6.000    0.000    0.000 
#    0.000    0.000    0.000    0.000    0.000    0.000 
#
# Total GULP energy -178601.409328 kJ/mol
# GULP energy per Si atom -5581.294042 kJ/mol
# Density = 1.834471 g / cm^3
# Si number density = 18.386556 Si / 1000 Ang^3
#
#
#
# Elastic Constant Matrix: (Units=GPa)
#
#
# Indices 1 2 3 4 5 6 
#
# 1 119.5585 53.9959 82.8701 0.0000 0.0000 0.0000
# 2 53.9959 47.6022 67.9268 0.0000 0.0000 0.0000
# 3 82.8701 67.9268 214.8858 0.0000 0.0000 0.0000
# 4 0.0000 0.0000 0.0000 -11.3192 0.0000 0.0000
# 5 0.0000 0.0000 0.0000 0.0000 30.5350 0.0000
# 6 0.0000 0.0000 0.0000 0.0000 0.0000 17.8550
#
#
#
# Elastic Compliance Matrix: (Units=1/GPa)
#
#
# Indices 1 2 3 4 5 6 
#
# 1 0.017235 -0.018336 -0.000850 0.000000 0.000000 0.000000
# 2 -0.018336 0.057778 -0.011193 0.000000 0.000000 0.000000
# 3 -0.000850 -0.011193 0.008520 0.000000 0.000000 0.000000
# 4 0.000000 0.000000 0.000000 -0.088346 0.000000 0.000000
# 5 0.000000 0.000000 0.000000 0.000000 0.032749 0.000000
# 6 0.000000 0.000000 0.000000 0.000000 0.000000 0.056007
#
#
# Mechanical properties :
#
#
# Convention : Reuss Voigt Hill
#
# Bulk Modulus (GPa) = 43.90972 87.95913 65.93442
# Shear Modulus (GPa) = 32.83158 19.23108 26.03133
#
# Velocity S-wave (km/s) = 4.23026 3.23760 3.76677
# Velocity P-wave (km/s) = 6.91327 7.86884 7.40649
#
# Compressibility (1/GPa) = 0.02277400
#
# Stress axis : x y z
#
# Youngs Moduli (GPa) = 58.02294 17.30757 117.37546
#
# Poissons Ratio (x) = 0.31735 0.09980
# Poissons Ratio (y) = 1.06392 1.31376
# Poissons Ratio (z) = 0.04934 0.19372
#
# Static dielectric constant tensor:
#      x y z
#    x 1.620770 0.000000 0.000000 
#    y 0.000000 1.593710 0.000000 
#    z 0.000000 0.000000 1.653790 
# 
# From -- ./inp_files/50352.got.cif
#   From: 2010.05.17/outbox.cif.g08.bks.cpg/sg63_26_cif.got.tgz:50352.got - 2010.06.03 15:47:04.
