data_PCOD9471347
_publ_section_title
;
Structure prediction by ZEFSAII (Michael W. Deem and Ramdas Pophale) SiO2 
 PCOD9471347
Probable space group: C M C M
;
_chemical_formula_sum "Si O2"
_cell_formula_units_Z 80
_cell_length_a 11.205403
_cell_length_b 23.842740
_cell_length_c 14.734483
_cell_angle_alpha 90.000000
_cell_angle_beta 90.000000
_cell_angle_gamma 90.000000
_cell_volume 3936.575139
_symmetry_space_group_name_H-M "C M C M"
_symmetry_group_IT_number 63
_symmetry_cell_setting 'orthorhombic'
loop_
_space_group_symop_operation_xyz
x,y,z
-x,-y,1/2+z
x,-y,-z
-x,y,1/2-z
-x,-y,-z
x,y,1/2-z
-x,y,z
x,-y,1/2+z
1/2+x,1/2+y,z
1/2-x,1/2-y,1/2+z
1/2+x,1/2-y,-z
1/2-x,1/2+y,1/2-z
1/2-x,1/2-y,-z
1/2+x,1/2+y,1/2-z
1/2-x,1/2+y,z
1/2+x,1/2-y,1/2+z
loop_
_atom_site_type_symbol
_atom_site_label
_atom_site_fract_x
_atom_site_fract_y
_atom_site_fract_z
Si Si1 0.864080 0.737332 0.351384
Si Si2 0.865806 0.396989 0.148193
Si Si3 0.137305 0.477877 0.900509
Si Si4 0.367644 0.350571 0.450628
Si Si5 0.201621 0.127379 0.351504
O O1 0.848004 0.763093 0.250000
O O2 0.848757 0.784925 0.427001
O O3 0.781704 0.683431 0.356305
O O4 0.000000 0.717380 0.357428
O O5 0.857656 0.373358 0.250000
O O6 0.861640 0.464318 0.154057
O O7 0.000000 0.382797 0.111626
O O8 0.751212 0.378581 0.090800
O O9 0.218827 0.428545 0.863328
O O10 0.000000 0.457807 0.906393
O O11 0.174464 0.500000 0.000000
O O12 0.500000 0.364920 0.410941
O O13 0.372548 0.366388 0.556371
O O14 0.146958 0.125952 0.250000
#
# Coordination Sequence:
#
# PCOD9471347 Si02
#       5
#    16  16  16  16  16
#     4   9  19  36  60  90 120 154 201 252 304 366
#     4  10  21  38  62  92 122 154 198 252 307 363
#     4  10  19  35  60  89 121 155 196 252 311 365
#     4  11  23  40  61  87 125 167 204 247 300 359
#     4  11  22  37  59  87 120 161 208 254 303 356
#
# _framework density 20.322234999999999
#
# number of rings (size 3 to 8) (size 9 to 14) (size 15 to 20)
#    0.000    1.800    2.000    2.400    0.000    4.400 
#    0.000    3.000    0.000    3.600    0.000    0.000 
#    0.000    0.000    0.000    0.000    0.000    0.000 
#
# Total GULP energy -222867.928116 kJ/mol
# GULP energy per Si atom -5571.698203 kJ/mol
# Density = 2.027598 g / cm^3
# Si number density = 20.322235 Si / 1000 Ang^3
#
#
#
# Elastic Constant Matrix: (Units=GPa)
#
#
# Indices 1 2 3 4 5 6 
#
# 1 137.8316 52.1419 57.7231 0.0000 0.0000 0.0000
# 2 52.1419 56.9113 14.0377 0.0000 0.0000 0.0000
# 3 57.7231 14.0377 111.2795 0.0000 0.0000 0.0000
# 4 0.0000 0.0000 0.0000 24.7709 0.0000 0.0000
# 5 0.0000 0.0000 0.0000 0.0000 41.1372 0.0000
# 6 0.0000 0.0000 0.0000 0.0000 0.0000 -5.5651
#
#
#
# Elastic Compliance Matrix: (Units=1/GPa)
#
#
# Indices 1 2 3 4 5 6 
#
# 1 0.014007 -0.011396 -0.005828 0.000000 0.000000 0.000000
# 2 -0.011396 0.027406 0.002454 0.000000 0.000000 0.000000
# 3 -0.005828 0.002454 0.011700 0.000000 0.000000 0.000000
# 4 0.000000 0.000000 0.000000 0.040370 0.000000 0.000000
# 5 0.000000 0.000000 0.000000 0.000000 0.024309 0.000000
# 6 0.000000 0.000000 0.000000 0.000000 0.000000 -0.179692
#
#
# Mechanical properties :
#
#
# Convention : Reuss Voigt Hill
#
# Bulk Modulus (GPa) = 42.42014 61.53642 51.97828
# Shear Modulus (GPa) = -204.06833 24.20993 -89.92920
#
# Velocity S-wave (km/s) = -10.03166 3.45527 -6.65941
# Velocity P-wave (km/s) = 10.64237 6.80181 5.78772
#
# Compressibility (1/GPa) = 0.02357371
#
# Stress axis : x y z
#
# Youngs Moduli (GPa) = 71.39282 36.48770 85.46966
#
# Poissons Ratio (x) = 0.41580 0.49814
# Poissons Ratio (y) = 0.81356 -0.20973
# Poissons Ratio (z) = 0.41609 -0.08954
#
# Static dielectric constant tensor:
#      x y z
#    x 1.718010 0.000000 0.000000 
#    y 0.000000 1.684470 0.000000 
#    z 0.000000 0.000000 1.834970 
# 
# From -- ./inp_files/29685.got.cif
#   From: 2010.05.17/outbox.cif.g08.bks.cpg/sg63_15_cif.got.tgz:29685.got - 2010.06.03 15:47:04.
