data_PCOD9471101
_publ_section_title
;
Structure prediction by ZEFSAII (Michael W. Deem and Ramdas Pophale) SiO2 
 PCOD9471101
Probable space group: C M C M
;
_chemical_formula_sum "Si O2"
_cell_formula_units_Z 100
_cell_length_a 7.897974
_cell_length_b 29.840630
_cell_length_c 19.109271
_cell_angle_alpha 90.000000
_cell_angle_beta 90.000000
_cell_angle_gamma 90.000000
_cell_volume 4503.682924
_symmetry_space_group_name_H-M "C M C M"
_symmetry_group_IT_number 63
_symmetry_cell_setting 'orthorhombic'
loop_
_space_group_symop_operation_xyz
x,y,z
-x,-y,1/2+z
x,-y,-z
-x,y,1/2-z
-x,-y,-z
x,y,1/2-z
-x,y,z
x,-y,1/2+z
1/2+x,1/2+y,z
1/2-x,1/2-y,1/2+z
1/2+x,1/2-y,-z
1/2-x,1/2+y,1/2-z
1/2-x,1/2-y,-z
1/2+x,1/2+y,1/2-z
1/2-x,1/2+y,z
1/2+x,1/2-y,1/2+z
loop_
_atom_site_type_symbol
_atom_site_label
_atom_site_fract_x
_atom_site_fract_y
_atom_site_fract_z
Si Si1 0.299745 0.291400 0.903254
Si Si2 0.192777 0.597180 0.895487
Si Si3 0.794187 0.692536 0.936766
Si Si4 0.691375 0.494815 0.352140
Si Si5 0.802234 0.377299 0.671274
Si Si6 0.500000 0.983014 0.750000
Si Si7 0.308618 0.565363 0.460410
O O1 0.500000 0.292750 0.889340
O O2 0.241646 0.239701 0.902804
O O3 0.212090 0.325295 0.850193
O O4 0.268907 0.307586 0.983147
O O5 0.260358 0.647796 0.896729
O O6 0.292087 0.558748 0.855002
O O7 0.000000 0.597131 0.868867
O O8 0.192699 0.582175 0.977087
O O9 0.000000 0.691916 0.939817
O O10 0.500000 0.507147 0.330090
O O11 0.848254 0.513511 0.309067
O O12 0.713667 0.515946 0.429141
O O13 0.735901 0.384917 0.750000
O O14 0.713084 0.403942 0.608864
O O15 0.000000 0.390382 0.672349
O O16 0.500000 0.570153 0.487148
#
# Coordination Sequence:
#
# PCOD9471101 Si02
#       7
#    16  16  16  16  16   4  16
#     4  10  19  34  56  86 118 154 196 253 310 365
#     4  11  21  38  65  96 127 165 209 263 327 381
#     4   9  19  34  58  88 119 153 199 249 308 373
#     4  11  26  44  67  95 127 167 218 268 319 387
#     4  11  24  38  57  83 120 166 212 254 313 390
#     4  12  26  48  70  90 124 176 216 268 324 382
#     4  11  24  39  60  94 129 160 205 266 319 382
#
# _framework density 22.204049000000001
#
# number of rings (size 3 to 8) (size 9 to 14) (size 15 to 20)
#    0.000    1.440    2.400    2.640    3.360    4.480 
#    0.000    0.000    1.760    0.000    0.000    0.000 
#    0.000    0.000    0.000    0.000    0.000    0.000 
#
# Total GULP energy -279007.649918 kJ/mol
# GULP energy per Si atom -5580.152998 kJ/mol
# Density = 2.215351 g / cm^3
# Si number density = 22.204049 Si / 1000 Ang^3
#
#
#
# Elastic Constant Matrix: (Units=GPa)
#
#
# Indices 1 2 3 4 5 6 
#
# 1 97.7673 12.3527 17.5260 0.0000 0.0000 0.0000
# 2 12.3527 116.3226 -4.5039 0.0000 0.0000 0.0000
# 3 17.5260 -4.5039 48.7051 0.0000 0.0000 0.0000
# 4 0.0000 0.0000 0.0000 -29.4924 0.0000 0.0000
# 5 0.0000 0.0000 0.0000 0.0000 80.8724 0.0000
# 6 0.0000 0.0000 0.0000 0.0000 0.0000 29.8343
#
#
#
# Elastic Compliance Matrix: (Units=1/GPa)
#
#
# Indices 1 2 3 4 5 6 
#
# 1 0.011139 -0.001343 -0.004132 0.000000 0.000000 0.000000
# 2 -0.001343 0.008790 0.001296 0.000000 0.000000 0.000000
# 3 -0.004132 0.001296 0.022139 0.000000 0.000000 0.000000
# 4 0.000000 0.000000 0.000000 -0.033907 0.000000 0.000000
# 5 0.000000 0.000000 0.000000 0.000000 0.012365 0.000000
# 6 0.000000 0.000000 0.000000 0.000000 0.000000 0.033519
#
#
# Mechanical properties :
#
#
# Convention : Reuss Voigt Hill
#
# Bulk Modulus (GPa) = 29.66613 34.83832 32.25223
# Shear Modulus (GPa) = 67.89952 32.07085 49.98518
#
# Velocity S-wave (km/s) = 5.53590 3.80461 4.74980
# Velocity P-wave (km/s) = 7.36555 5.91812 6.68115
#
# Compressibility (1/GPa) = 0.03370847
#
# Stress axis : x y z
#
# Youngs Moduli (GPa) = 89.77613 113.77122 45.17008
#
# Poissons Ratio (x) = 0.15278 0.18666
# Poissons Ratio (y) = 0.12056 -0.05854
# Poissons Ratio (z) = 0.37099 -0.14745
#
# Static dielectric constant tensor:
#      x y z
#    x 1.770930 0.000000 0.000000 
#    y 0.000000 1.902310 0.000000 
#    z 0.000000 0.000000 1.767460 
# 
# From -- ./inp_files/51685.got.cif
#   From: 2010.05.17/outbox.cif.g08.bks.cpg/sg63_26_cif.got.tgz:51685.got - 2010.06.03 15:47:04.
