data_PCOD9471189
_publ_section_title
;
Structure prediction by ZEFSAII (Michael W. Deem and Ramdas Pophale) SiO2 
 PCOD9471189
Probable space group: C M C M
;
_chemical_formula_sum "Si O2"
_cell_formula_units_Z 96
_cell_length_a 18.863507
_cell_length_b 11.462124
_cell_length_c 24.025116
_cell_angle_alpha 90.000000
_cell_angle_beta 90.000000
_cell_angle_gamma 90.000000
_cell_volume 5194.611029
_symmetry_space_group_name_H-M "C M C M"
_symmetry_group_IT_number 63
_symmetry_cell_setting 'orthorhombic'
loop_
_space_group_symop_operation_xyz
x,y,z
-x,-y,1/2+z
x,-y,-z
-x,y,1/2-z
-x,-y,-z
x,y,1/2-z
-x,y,z
x,-y,1/2+z
1/2+x,1/2+y,z
1/2-x,1/2-y,1/2+z
1/2+x,1/2-y,-z
1/2-x,1/2+y,1/2-z
1/2-x,1/2-y,-z
1/2+x,1/2+y,1/2-z
1/2-x,1/2+y,z
1/2+x,1/2-y,1/2+z
loop_
_atom_site_type_symbol
_atom_site_label
_atom_site_fract_x
_atom_site_fract_y
_atom_site_fract_z
Si Si1 0.803510 0.682729 0.250000
Si Si2 0.688972 0.131462 0.128554
Si Si3 0.314202 0.343418 0.047046
Si Si4 0.920912 0.188654 0.052887
Si Si5 0.845796 0.422492 0.447190
Si Si6 0.345858 0.455017 0.865395
Si Si7 0.194758 0.041631 0.750000
O O1 0.839630 0.667657 0.310688
O O2 0.778891 0.821706 0.250000
O O3 0.752851 0.565052 0.250000
O O4 0.672555 0.224224 0.080535
O O5 0.774711 0.124886 0.133876
O O6 0.665405 0.005473 0.106053
O O7 0.230319 0.363366 0.037365
O O8 0.334733 0.444690 0.089490
O O9 0.362066 0.350944 0.992246
O O10 0.902932 0.323453 0.062668
O O11 0.908862 0.122023 0.110762
O O12 0.000000 0.170432 0.031468
O O13 0.866059 0.500000 0.500000
O O14 0.349406 0.515435 0.805635
#
# Coordination Sequence:
#
# PCOD9471189 Si02
#       7
#     8  16  16  16  16  16   8
#     4  10  20  34  56  97 126 156 190 256 310 357
#     4  10  19  34  59  88 120 149 191 240 299 353
#     4  11  19  36  60  86 117 152 193 241 297 354
#     4  12  25  39  56  84 121 157 200 251 304 361
#     4  11  21  36  60  86 115 155 196 246 295 367
#     4  10  21  35  57  85 119 154 195 240 297 361
#     4  10  20  34  59  89 126 156 201 248 306 361
#
# _framework density 18.480692000000001
#
# number of rings (size 3 to 8) (size 9 to 14) (size 15 to 20)
#    0.000    1.333    5.000    3.000    0.000    1.667 
#    0.000    0.417    0.000    0.000    0.000    1.750 
#    0.000    0.000    0.000    0.000    0.000    0.000 
#
# Total GULP energy -267528.933722 kJ/mol
# GULP energy per Si atom -5573.519453 kJ/mol
# Density = 1.843863 g / cm^3
# Si number density = 18.480692 Si / 1000 Ang^3
#
#
#
# Elastic Constant Matrix: (Units=GPa)
#
#
# Indices 1 2 3 4 5 6 
#
# 1 38.3027 12.7425 14.3321 0.0000 0.0000 0.0000
# 2 12.7425 80.3108 36.9540 0.0000 0.0000 0.0000
# 3 14.3321 36.9540 111.3751 0.0000 0.0000 0.0000
# 4 0.0000 0.0000 0.0000 30.0355 0.0000 0.0000
# 5 0.0000 0.0000 0.0000 0.0000 7.9893 0.0000
# 6 0.0000 0.0000 0.0000 0.0000 0.0000 3.6952
#
#
#
# Elastic Compliance Matrix: (Units=1/GPa)
#
#
# Indices 1 2 3 4 5 6 
#
# 1 0.028152 -0.003304 -0.002526 0.000000 0.000000 0.000000
# 2 -0.003304 0.015083 -0.004579 0.000000 0.000000 0.000000
# 3 -0.002526 -0.004579 0.010823 0.000000 0.000000 0.000000
# 4 0.000000 0.000000 0.000000 0.033294 0.000000 0.000000
# 5 0.000000 0.000000 0.000000 0.000000 0.125167 0.000000
# 6 0.000000 0.000000 0.000000 0.000000 0.000000 0.270621
#
#
# Mechanical properties :
#
#
# Convention : Reuss Voigt Hill
#
# Bulk Modulus (GPa) = 30.08548 39.78287 34.93418
# Shear Modulus (GPa) = 9.70799 19.40800 14.55799
#
# Velocity S-wave (km/s) = 2.29444 3.24416 2.80972
# Velocity P-wave (km/s) = 4.83053 5.96709 5.42864
#
# Compressibility (1/GPa) = 0.03323862
#
# Stress axis : x y z
#
# Youngs Moduli (GPa) = 35.52088 66.29972 92.39439
#
# Poissons Ratio (x) = 0.21908 0.23342
# Poissons Ratio (y) = 0.11737 0.42310
# Poissons Ratio (z) = 0.08974 0.30361
#
# Static dielectric constant tensor:
#      x y z
#    x 1.621110 0.000000 0.000000 
#    y 0.000000 1.697910 0.000000 
#    z 0.000000 0.000000 1.662070 
# 
# From -- ./inp_files/63750.got.cif
#   From: 2010.05.17/outbox.cif.g08.bks.cpg/sg63_32_cif.got.tgz:63750.got - 2010.06.03 15:47:04.
