data_PCOD9471424
_publ_section_title
;
Structure prediction by ZEFSAII (Michael W. Deem and Ramdas Pophale) SiO2 
 PCOD9471424
Probable space group: C M C M
;
_chemical_formula_sum "Si O2"
_cell_formula_units_Z 64
_cell_length_a 21.193484
_cell_length_b 18.352438
_cell_length_c 8.470674
_cell_angle_alpha 90.000000
_cell_angle_beta 90.000000
_cell_angle_gamma 90.000000
_cell_volume 3294.686450
_symmetry_space_group_name_H-M "C M C M"
_symmetry_group_IT_number 63
_symmetry_cell_setting 'orthorhombic'
loop_
_space_group_symop_operation_xyz
x,y,z
-x,-y,1/2+z
x,-y,-z
-x,y,1/2-z
-x,-y,-z
x,y,1/2-z
-x,y,z
x,-y,1/2+z
1/2+x,1/2+y,z
1/2-x,1/2-y,1/2+z
1/2+x,1/2-y,-z
1/2-x,1/2+y,1/2-z
1/2-x,1/2-y,-z
1/2+x,1/2+y,1/2-z
1/2-x,1/2+y,z
1/2+x,1/2-y,1/2+z
loop_
_atom_site_type_symbol
_atom_site_label
_atom_site_fract_x
_atom_site_fract_y
_atom_site_fract_z
Si Si1 0.500000 0.917454 0.938101
Si Si2 0.124261 0.335933 0.439771
Si Si3 0.125620 0.832421 0.942370
Si Si4 0.500000 0.582540 0.441111
Si Si5 0.748587 0.917463 0.560272
O O1 0.500000 0.918507 0.750000
O O2 0.437946 0.876068 0.998630
O O3 0.500000 0.000000 0.000000
O O4 0.123274 0.337117 0.250000
O O5 0.125215 0.251647 0.492995
O O6 0.186382 0.377167 0.498749
O O7 0.125344 0.832382 0.750000
O O8 0.188814 0.874148 0.993064
O O9 0.062851 0.874938 0.993926
O O10 0.500000 0.500000 0.500000
O O11 0.500000 0.581985 0.250000
O O12 0.747421 0.917865 0.750000
O O13 0.750380 0.000000 0.500000
#
# Coordination Sequence:
#
# PCOD9471424 Si02
#       5
#     8  16  16   8  16
#     4  12  25  42  62  88 118 152 191 238 288 346
#     4  11  22  40  63  87 114 152 194 240 292 345
#     4   9  20  37  60  85 116 154 194 236 287 343
#     4  10  19  36  58  84 114 150 191 234 282 340
#     4  11  22  38  58  86 119 155 195 240 288 343
#
# _framework density 19.425218000000001
#
# number of rings (size 3 to 8) (size 9 to 14) (size 15 to 20)
#    0.000    1.500    0.000    5.625    0.000    2.000 
#    0.000    8.750    0.000    0.000    0.000    0.000 
#    0.000    0.000    0.000    0.000    0.000    0.000 
#
# Total GULP energy -178973.966264 kJ/mol
# GULP energy per Si atom -5592.936446 kJ/mol
# Density = 1.938101 g / cm^3
# Si number density = 19.425218 Si / 1000 Ang^3
#
#
#
# Elastic Constant Matrix: (Units=GPa)
#
#
# Indices 1 2 3 4 5 6 
#
# 1 248.0908 152.5121 48.2444 0.0000 0.0000 0.0000
# 2 152.5121 247.1753 47.6789 0.0000 0.0000 0.0000
# 3 48.2444 47.6789 66.6029 0.0000 0.0000 0.0000
# 4 0.0000 0.0000 0.0000 26.2665 0.0000 0.0000
# 5 0.0000 0.0000 0.0000 0.0000 -7.0407 0.0000
# 6 0.0000 0.0000 0.0000 0.0000 0.0000 47.6282
#
#
#
# Elastic Compliance Matrix: (Units=1/GPa)
#
#
# Indices 1 2 3 4 5 6 
#
# 1 0.006765 -0.003746 -0.002219 0.000000 0.000000 0.000000
# 2 -0.003746 0.006768 -0.002132 0.000000 0.000000 0.000000
# 3 -0.002219 -0.002132 0.018147 0.000000 0.000000 0.000000
# 4 0.000000 0.000000 0.000000 0.038071 0.000000 0.000000
# 5 0.000000 0.000000 0.000000 0.000000 -0.142030 0.000000
# 6 0.000000 0.000000 0.000000 0.000000 0.000000 0.020996
#
#
# Mechanical properties :
#
#
# Convention : Reuss Voigt Hill
#
# Bulk Modulus (GPa) = 64.56620 117.63776 91.10198
# Shear Modulus (GPa) = -167.07735 34.26636 -66.40549
#
# Velocity S-wave (km/s) = -9.28425 4.20457 -5.85315
# Velocity P-wave (km/s) = 9.03433 9.17943 1.14953
#
# Compressibility (1/GPa) = 0.01548798
#
# Stress axis : x y z
#
# Youngs Moduli (GPa) = 147.81418 147.74403 55.10440
#
# Poissons Ratio (x) = 0.55350 0.12225
# Poissons Ratio (y) = 0.55376 0.11746
# Poissons Ratio (z) = 0.32794 0.31494
#
# Static dielectric constant tensor:
#      x y z
#    x 1.643680 0.000000 0.000000 
#    y 0.000000 1.640500 0.000000 
#    z 0.000000 0.000000 1.669140 
# 
# From -- ./inp_files/9671.got.cif
#   From: 2010.05.17/outbox.cif.g08.bks.cpg/sg63_5_cif.got.tgz:9671.got - 2010.06.03 15:47:04.
