data_PCOD9471059
_publ_section_title
;
Structure prediction by ZEFSAII (Michael W. Deem and Ramdas Pophale) SiO2 
 PCOD9471059
Probable space group: C M C M
;
_chemical_formula_sum "Si O2"
_cell_formula_units_Z 96
_cell_length_a 19.504444
_cell_length_b 15.109441
_cell_length_c 16.312596
_cell_angle_alpha 90.000000
_cell_angle_beta 90.000000
_cell_angle_gamma 90.000000
_cell_volume 4807.342364
_symmetry_space_group_name_H-M "C M C M"
_symmetry_group_IT_number 63
_symmetry_cell_setting 'orthorhombic'
loop_
_space_group_symop_operation_xyz
x,y,z
-x,-y,1/2+z
x,-y,-z
-x,y,1/2-z
-x,-y,-z
x,y,1/2-z
-x,y,z
x,-y,1/2+z
1/2+x,1/2+y,z
1/2-x,1/2-y,1/2+z
1/2+x,1/2-y,-z
1/2-x,1/2+y,1/2-z
1/2-x,1/2-y,-z
1/2+x,1/2+y,1/2-z
1/2-x,1/2+y,z
1/2+x,1/2-y,1/2+z
loop_
_atom_site_type_symbol
_atom_site_label
_atom_site_fract_x
_atom_site_fract_y
_atom_site_fract_z
Si Si1 0.077364 0.908619 0.451012
Si Si2 0.715016 0.816422 0.110141
Si Si3 0.720548 0.133835 0.083704
Si Si4 0.698771 0.525735 0.658071
Si Si5 0.925127 0.583326 0.060690
Si Si6 0.423995 0.244908 0.566052
O O1 0.133925 0.925052 0.382358
O O2 0.097079 0.832043 0.515260
O O3 0.000000 0.887312 0.420838
O O4 0.073714 0.000000 0.500000
O O5 0.760668 0.728664 0.121882
O O6 0.741730 0.900531 0.158208
O O7 0.636906 0.786179 0.124499
O O8 0.720077 0.847541 0.014292
O O9 0.645270 0.098292 0.109295
O O10 0.774979 0.058125 0.106158
O O11 0.683065 0.496282 0.750000
O O12 0.000000 0.573381 0.102353
O O13 0.916047 0.500000 0.000000
O O14 0.929459 0.668677 0.002268
O O15 0.500000 0.258618 0.602015
#
# Coordination Sequence:
#
# PCOD9471059 Si02
#       6
#    16  16  16  16  16  16
#     4  10  20  36  58  81 104 134 179 229 271 313
#     4  10  19  34  57  79 103 137 182 230 273 315
#     4  10  19  34  56  77 101 136 183 234 270 311
#     4  12  24  35  51  78 114 150 178 212 269 337
#     4   9  16  26  45  74 102 127 161 212 268 311
#     4   9  17  30  53  82 104 126 167 225 275 309
#
# _framework density 19.969453000000001
#
# number of rings (size 3 to 8) (size 9 to 14) (size 15 to 20)
#    0.000    2.000    0.000    7.500    0.000    1.000 
#    0.000    0.000    0.000    2.000    0.000    0.000 
#    0.000    0.000    0.000    0.000    0.000    0.000 
#
# Total GULP energy -267709.524703 kJ/mol
# GULP energy per Si atom -5577.281765 kJ/mol
# Density = 1.992400 g / cm^3
# Si number density = 19.969453 Si / 1000 Ang^3
#
#
#
# Elastic Constant Matrix: (Units=GPa)
#
#
# Indices 1 2 3 4 5 6 
#
# 1 145.4438 21.3352 28.9171 0.0000 0.0000 0.0000
# 2 21.3352 119.0888 9.5229 0.0000 0.0000 0.0000
# 3 28.9171 9.5229 19.6704 0.0000 0.0000 0.0000
# 4 0.0000 0.0000 0.0000 -2.3964 0.0000 0.0000
# 5 0.0000 0.0000 0.0000 0.0000 4.6615 0.0000
# 6 0.0000 0.0000 0.0000 0.0000 0.0000 34.0863
#
#
#
# Elastic Compliance Matrix: (Units=1/GPa)
#
#
# Indices 1 2 3 4 5 6 
#
# 1 0.009760 -0.000625 -0.014045 0.000000 0.000000 0.000000
# 2 -0.000625 0.008775 -0.003329 0.000000 0.000000 0.000000
# 3 -0.014045 -0.003329 0.073096 0.000000 0.000000 0.000000
# 4 0.000000 0.000000 0.000000 -0.417284 0.000000 0.000000
# 5 0.000000 0.000000 0.000000 0.000000 0.214524 0.000000
# 6 0.000000 0.000000 0.000000 0.000000 0.000000 0.029337
#
#
# Mechanical properties :
#
#
# Convention : Reuss Voigt Hill
#
# Bulk Modulus (GPa) = 17.97491 44.86148 31.41820
# Shear Modulus (GPa) = -183.48680 22.23213 -80.62733
#
# Velocity S-wave (km/s) = -9.59600 3.34025 -6.36105
# Velocity P-wave (km/s) = 10.66569 6.11475 6.17927
#
# Compressibility (1/GPa) = 0.05563310
#
# Stress axis : x y z
#
# Youngs Moduli (GPa) = 102.46325 113.95575 13.68062
#
# Poissons Ratio (x) = 0.07127 0.19214
# Poissons Ratio (y) = 0.06408 0.04554
# Poissons Ratio (z) = 1.43906 0.37935
#
# Static dielectric constant tensor:
#      x y z
#    x 1.825190 0.000000 0.000000 
#    y 0.000000 1.611070 0.000000 
#    z 0.000000 0.000000 1.675450 
# 
# From -- ./inp_files/35309.got.cif
#   From: 2010.05.17/outbox.cif.g08.bks.cpg/sg63_18_cif.got.tgz:35309.got - 2010.06.03 15:47:04.
