data_PCOD9471034
_publ_section_title
;
Structure prediction by ZEFSAII (Michael W. Deem and Ramdas Pophale) SiO2 
 PCOD9471034
Probable space group: C M C M
;
_chemical_formula_sum "Si O2"
_cell_formula_units_Z 96
_cell_length_a 8.559634
_cell_length_b 26.078283
_cell_length_c 24.171828
_cell_angle_alpha 90.000000
_cell_angle_beta 90.000000
_cell_angle_gamma 90.000000
_cell_volume 5395.648930
_symmetry_space_group_name_H-M "C M C M"
_symmetry_group_IT_number 63
_symmetry_cell_setting 'orthorhombic'
loop_
_space_group_symop_operation_xyz
x,y,z
-x,-y,1/2+z
x,-y,-z
-x,y,1/2-z
-x,-y,-z
x,y,1/2-z
-x,y,z
x,-y,1/2+z
1/2+x,1/2+y,z
1/2-x,1/2-y,1/2+z
1/2+x,1/2-y,-z
1/2-x,1/2+y,1/2-z
1/2-x,1/2-y,-z
1/2+x,1/2+y,1/2-z
1/2-x,1/2+y,z
1/2+x,1/2-y,1/2+z
loop_
_atom_site_type_symbol
_atom_site_label
_atom_site_fract_x
_atom_site_fract_y
_atom_site_fract_z
Si Si1 0.312892 0.936525 0.750000
Si Si2 0.686973 0.404602 0.867195
Si Si3 0.188773 0.995179 0.063643
Si Si4 0.809434 0.444059 0.250000
Si Si5 0.186617 0.311220 0.561087
Si Si6 0.688667 0.900181 0.132822
Si Si7 0.688859 0.801703 0.433695
O O1 0.500000 0.936643 0.750000
O O2 0.253284 0.909618 0.805553
O O3 0.259315 0.996343 0.750000
O O4 0.500000 0.404954 0.864611
O O5 0.738692 0.454991 0.901524
O O6 0.741574 0.354487 0.900021
O O7 0.000000 0.992754 0.064943
O O8 0.255698 0.944545 0.091701
O O9 0.238307 0.000000 0.000000
O O10 0.757509 0.415510 0.305717
O O11 0.000000 0.444321 0.250000
O O12 0.241205 0.254181 0.577221
O O13 0.233639 0.317870 0.496446
O O14 0.000000 0.314435 0.563903
O O15 0.500000 0.899911 0.133265
O O16 0.739898 0.845221 0.109344
O O17 0.500000 0.797816 0.432407
#
# Coordination Sequence:
#
# PCOD9471034 Si02
#       7
#     8  16  16   8  16  16  16
#     4  11  21  37  58  79 108 145 186 226 269 323
#     4  11  22  36  55  80 111 145 184 226 274 329
#     4  10  21  34  50  77 111 142 173 218 274 326
#     4   9  18  33  54  79 106 139 176 220 267 313
#     4  10  20  35  56  81 109 145 186 229 280 331
#     4  10  19  34  55  79 106 139 181 222 269 326
#     4   9  19  35  56  81 110 145 185 230 279 333
#
# _framework density 17.792114999999999
#
# number of rings (size 3 to 8) (size 9 to 14) (size 15 to 20)
#    0.000    2.000    1.667    2.250    0.000    2.333 
#    0.000    1.250    0.000    2.000    0.000    0.000 
#    0.000    0.000    0.000    0.000    0.000    0.000 
#
# Total GULP energy -268021.182116 kJ/mol
# GULP energy per Si atom -5583.774627 kJ/mol
# Density = 1.775162 g / cm^3
# Si number density = 17.792115 Si / 1000 Ang^3
#
#
#
# Elastic Constant Matrix: (Units=GPa)
#
#
# Indices 1 2 3 4 5 6 
#
# 1 19.3149 16.9067 13.3019 0.0000 0.0000 0.0000
# 2 16.9067 79.1347 18.6881 0.0000 0.0000 0.0000
# 3 13.3019 18.6881 62.5581 0.0000 0.0000 0.0000
# 4 0.0000 0.0000 0.0000 17.9669 0.0000 0.0000
# 5 0.0000 0.0000 0.0000 0.0000 14.4820 0.0000
# 6 0.0000 0.0000 0.0000 0.0000 0.0000 26.7353
#
#
#
# Elastic Compliance Matrix: (Units=1/GPa)
#
#
# Indices 1 2 3 4 5 6 
#
# 1 0.070361 -0.012372 -0.011265 0.000000 0.000000 0.000000
# 2 -0.012372 0.015771 -0.002081 0.000000 0.000000 0.000000
# 3 -0.011265 -0.002081 0.019002 0.000000 0.000000 0.000000
# 4 0.000000 0.000000 0.000000 0.055658 0.000000 0.000000
# 5 0.000000 0.000000 0.000000 0.000000 0.069051 0.000000
# 6 0.000000 0.000000 0.000000 0.000000 0.000000 0.037404
#
#
# Mechanical properties :
#
#
# Convention : Reuss Voigt Hill
#
# Bulk Modulus (GPa) = 18.62239 28.75568 23.68903
# Shear Modulus (GPa) = 14.85520 19.31090 17.08305
#
# Velocity S-wave (km/s) = 2.89265 3.29806 3.10199
# Velocity P-wave (km/s) = 4.65252 5.54076 5.11596
#
# Compressibility (1/GPa) = 0.05369881
#
# Stress axis : x y z
#
# Youngs Moduli (GPa) = 14.21240 63.40652 52.62592
#
# Poissons Ratio (x) = 0.78446 0.59284
# Poissons Ratio (y) = 0.17583 0.10950
# Poissons Ratio (z) = 0.16010 0.13193
#
# Static dielectric constant tensor:
#      x y z
#    x 1.599160 0.000000 0.000000 
#    y 0.000000 1.576400 0.000000 
#    z 0.000000 0.000000 1.596280 
# 
# From -- ./inp_files/60069.got.cif
#   From: 2010.05.17/outbox.cif.g08.bks.cpg/sg63_31_cif.got.tgz:60069.got - 2010.06.03 15:47:04.
