data_PCOD9471071
_publ_section_title
;
Structure prediction by ZEFSAII (Michael W. Deem and Ramdas Pophale) SiO2 
 PCOD9471071
Probable space group: C M C M
;
_chemical_formula_sum "Si O2"
_cell_formula_units_Z 80
_cell_length_a 8.782323
_cell_length_b 19.055213
_cell_length_c 26.774649
_cell_angle_alpha 90.000000
_cell_angle_beta 90.000000
_cell_angle_gamma 90.000000
_cell_volume 4480.711683
_symmetry_space_group_name_H-M "C M C M"
_symmetry_group_IT_number 63
_symmetry_cell_setting 'orthorhombic'
loop_
_space_group_symop_operation_xyz
x,y,z
-x,-y,1/2+z
x,-y,-z
-x,y,1/2-z
-x,-y,-z
x,y,1/2-z
-x,y,z
x,-y,1/2+z
1/2+x,1/2+y,z
1/2-x,1/2-y,1/2+z
1/2+x,1/2-y,-z
1/2-x,1/2+y,1/2-z
1/2-x,1/2-y,-z
1/2+x,1/2+y,1/2-z
1/2-x,1/2+y,z
1/2+x,1/2-y,1/2+z
loop_
_atom_site_type_symbol
_atom_site_label
_atom_site_fract_x
_atom_site_fract_y
_atom_site_fract_z
Si Si1 0.324095 0.085600 0.250000
Si Si2 0.181428 0.919441 0.645245
Si Si3 0.675541 0.085244 0.750000
Si Si4 0.819515 0.836128 0.051330
Si Si5 0.180308 0.668799 0.055632
Si Si6 0.684177 0.075457 0.641595
O O1 0.500000 0.107761 0.250000
O O2 0.242039 0.107062 0.301026
O O3 0.322971 0.000064 0.250000
O O4 0.236921 0.869745 0.600857
O O5 0.000000 0.924653 0.646339
O O6 0.252907 0.996567 0.636845
O O7 0.500000 0.108899 0.750000
O O8 0.740182 0.104719 0.695779
O O9 0.796621 0.752715 0.058965
O O10 0.742000 0.878308 0.096000
O O11 0.000000 0.849936 0.050390
O O12 0.747052 0.854531 0.997785
O O13 0.000000 0.654674 0.057550
O O14 0.500000 0.072854 0.642685
#
# Coordination Sequence:
#
# PCOD9471071 Si02
#       6
#     8  16   8  16  16  16
#     4   9  17  33  54  77 108 143 177 213 263 319
#     4  11  21  34  55  83 111 139 178 223 263 308
#     4   7  14  29  50  75 102 135 171 207 249 305
#     4  10  21  37  56  79 106 137 177 224 270 318
#     4  10  21  38  57  76 104 143 180 217 269 325
#     4  10  19  34  56  80 108 142 178 216 264 318
#
# _framework density 17.854306999999999
#
# number of rings (size 3 to 8) (size 9 to 14) (size 15 to 20)
#    0.000    2.200    0.000    5.100    0.000    3.200 
#    0.000    6.500    0.000    4.800    0.000    0.000 
#    0.000    0.000    0.000    0.000    0.000    0.000 
#
# Total GULP energy -223171.847134 kJ/mol
# GULP energy per Si atom -5579.296178 kJ/mol
# Density = 1.781367 g / cm^3
# Si number density = 17.854307 Si / 1000 Ang^3
#
#
#
# Elastic Constant Matrix: (Units=GPa)
#
#
# Indices 1 2 3 4 5 6 
#
# 1 117.6676 43.3063 84.8024 0.0000 0.0000 0.0000
# 2 43.3063 26.0264 56.0141 0.0000 0.0000 0.0000
# 3 84.8024 56.0141 199.5811 0.0000 0.0000 0.0000
# 4 0.0000 0.0000 0.0000 124.9813 0.0000 0.0000
# 5 0.0000 0.0000 0.0000 0.0000 33.2204 0.0000
# 6 0.0000 0.0000 0.0000 0.0000 0.0000 24.1501
#
#
#
# Elastic Compliance Matrix: (Units=1/GPa)
#
#
# Indices 1 2 3 4 5 6 
#
# 1 0.022364 -0.042329 0.002378 0.000000 0.000000 0.000000
# 2 -0.042329 0.177154 -0.031734 0.000000 0.000000 0.000000
# 3 0.002378 -0.031734 0.012907 0.000000 0.000000 0.000000
# 4 0.000000 0.000000 0.000000 0.008001 0.000000 0.000000
# 5 0.000000 0.000000 0.000000 0.000000 0.030102 0.000000
# 6 0.000000 0.000000 0.000000 0.000000 0.000000 0.041408
#
#
# Mechanical properties :
#
#
# Convention : Reuss Voigt Hill
#
# Bulk Modulus (GPa) = 14.48154 79.05784 46.76969
# Shear Modulus (GPa) = 10.90930 47.08051 28.99491
#
# Velocity S-wave (km/s) = 2.47456 5.14067 4.03423
# Velocity P-wave (km/s) = 4.03648 8.92249 6.92474
#
# Compressibility (1/GPa) = 0.06905341
#
# Stress axis : x y z
#
# Youngs Moduli (GPa) = 44.71520 5.64480 77.47919
#
# Poissons Ratio (x) = 0.23894 -0.18422
# Poissons Ratio (y) = 1.89276 2.45873
# Poissons Ratio (z) = -0.10632 0.17913
#
# Static dielectric constant tensor:
#      x y z
#    x 1.596720 0.000000 0.000000 
#    y 0.000000 1.583830 0.000000 
#    z 0.000000 0.000000 1.616870 
# 
# From -- ./inp_files/59518.got.cif
#   From: 2010.05.17/outbox.cif.g08.bks.cpg/sg63_30_cif.got.tgz:59518.got - 2010.06.03 15:47:04.
