data_PCOD9471236
_publ_section_title
;
Structure prediction by ZEFSAII (Michael W. Deem and Ramdas Pophale) SiO2 
 PCOD9471236
Probable space group: C M C M
;
_chemical_formula_sum "Si O2"
_cell_formula_units_Z 56
_cell_length_a 13.991954
_cell_length_b 22.268422
_cell_length_c 7.620084
_cell_angle_alpha 90.000000
_cell_angle_beta 90.000000
_cell_angle_gamma 90.000000
_cell_volume 2374.256143
_symmetry_space_group_name_H-M "C M C M"
_symmetry_group_IT_number 63
_symmetry_cell_setting 'orthorhombic'
loop_
_space_group_symop_operation_xyz
x,y,z
-x,-y,1/2+z
x,-y,-z
-x,y,1/2-z
-x,-y,-z
x,y,1/2-z
-x,y,z
x,-y,1/2+z
1/2+x,1/2+y,z
1/2-x,1/2-y,1/2+z
1/2+x,1/2-y,-z
1/2-x,1/2+y,1/2-z
1/2-x,1/2-y,-z
1/2+x,1/2+y,1/2-z
1/2-x,1/2+y,z
1/2+x,1/2-y,1/2+z
loop_
_atom_site_type_symbol
_atom_site_label
_atom_site_fract_x
_atom_site_fract_y
_atom_site_fract_z
Si Si1 0.895963 0.111533 0.951998
Si Si2 0.108185 0.749614 0.539144
Si Si3 0.198202 0.631064 0.957812
Si Si4 0.500000 0.069690 0.043751
O O1 0.899059 0.090700 0.750000
O O2 0.791779 0.096888 0.030862
O O3 0.000000 0.095514 0.031736
O O4 0.889876 0.184466 0.957058
O O5 0.119008 0.756435 0.750000
O O6 0.179562 0.698450 0.470762
O O7 0.000000 0.726265 0.509379
O O8 0.215686 0.637982 0.750000
O O9 0.098601 0.597199 0.974990
O O10 0.500000 0.079588 0.250000
O O11 0.500000 0.000000 0.000000
#
# Coordination Sequence:
#
# PCOD9471236 Si02
#       4
#    16  16  16   8
#     4   9  18  30  48  78 114 150 185 218 255 310
#     4   9  16  27  45  71 108 150 186 221 263 310
#     4  10  19  35  55  75 109 147 179 222 274 320
#     4  12  26  42  62  84 104 130 176 232 283 336
#
# _framework density 23.586335999999999
#
# number of rings (size 3 to 8) (size 9 to 14) (size 15 to 20)
#    0.000    2.286    1.429    2.143    0.000    2.286 
#    0.000    0.000    0.000    0.857    0.000    0.000 
#    0.000    0.000    0.000    0.000    0.000    0.000 
#
# Total GULP energy -156196.112070 kJ/mol
# GULP energy per Si atom -5578.432574 kJ/mol
# Density = 2.353265 g / cm^3
# Si number density = 23.586336 Si / 1000 Ang^3
#
#
#
# Elastic Constant Matrix: (Units=GPa)
#
#
# Indices 1 2 3 4 5 6 
#
# 1 219.4972 11.1205 8.2035 0.0000 0.0000 0.0000
# 2 11.1205 24.9174 -20.1794 0.0000 0.0000 0.0000
# 3 8.2035 -20.1794 58.3252 0.0000 0.0000 0.0000
# 4 0.0000 0.0000 0.0000 15.9462 0.0000 0.0000
# 5 0.0000 0.0000 0.0000 0.0000 8.0796 0.0000
# 6 0.0000 0.0000 0.0000 0.0000 0.0000 10.7436
#
#
#
# Elastic Compliance Matrix: (Units=1/GPa)
#
#
# Indices 1 2 3 4 5 6 
#
# 1 0.004820 -0.003751 -0.001976 0.000000 0.000000 0.000000
# 2 -0.003751 0.058674 0.020828 0.000000 0.000000 0.000000
# 3 -0.001976 0.020828 0.024629 0.000000 0.000000 0.000000
# 4 0.000000 0.000000 0.000000 0.062711 0.000000 0.000000
# 5 0.000000 0.000000 0.000000 0.000000 0.123768 0.000000
# 6 0.000000 0.000000 0.000000 0.000000 0.000000 0.093079
#
#
# Mechanical properties :
#
#
# Convention : Reuss Voigt Hill
#
# Bulk Modulus (GPa) = 8.45132 33.44767 20.94949
# Shear Modulus (GPa) = 13.26540 27.19356 20.22948
#
# Velocity S-wave (km/s) = 2.37411 3.39918 2.93179
# Velocity P-wave (km/s) = 3.33258 5.44221 4.51241
#
# Compressibility (1/GPa) = 0.11832477
#
# Stress axis : x y z
#
# Youngs Moduli (GPa) = 207.47960 17.04332 40.60232
#
# Poissons Ratio (x) = 0.06393 0.08022
# Poissons Ratio (y) = 0.77827 -0.84565
# Poissons Ratio (z) = 0.40992 -0.35497
#
# Static dielectric constant tensor:
#      x y z
#    x 2.115830 0.000000 0.000000 
#    y 0.000000 1.848460 0.000000 
#    z 0.000000 0.000000 1.849480 
# 
# From -- ./inp_files/3998.got.cif
#   From: 2010.05.17/outbox.cif.g08.bks.cpg/sg63_2_cif.got.tgz:3998.got - 2010.06.03 15:47:04.
