data_PCOD9471278
_publ_section_title
;
Structure prediction by ZEFSAII (Michael W. Deem and Ramdas Pophale) SiO2 
 PCOD9471278
Probable space group: C M C M
;
_chemical_formula_sum "Si O2"
_cell_formula_units_Z 96
_cell_length_a 29.804773
_cell_length_b 20.825678
_cell_length_c 8.491109
_cell_angle_alpha 90.000000
_cell_angle_beta 90.000000
_cell_angle_gamma 90.000000
_cell_volume 5270.470461
_symmetry_space_group_name_H-M "C M C M"
_symmetry_group_IT_number 63
_symmetry_cell_setting 'orthorhombic'
loop_
_space_group_symop_operation_xyz
x,y,z
-x,-y,1/2+z
x,-y,-z
-x,y,1/2-z
-x,-y,-z
x,y,1/2-z
-x,y,z
x,-y,1/2+z
1/2+x,1/2+y,z
1/2-x,1/2-y,1/2+z
1/2+x,1/2-y,-z
1/2-x,1/2+y,1/2-z
1/2-x,1/2-y,-z
1/2+x,1/2+y,1/2-z
1/2-x,1/2+y,z
1/2+x,1/2-y,1/2+z
loop_
_atom_site_type_symbol
_atom_site_label
_atom_site_fract_x
_atom_site_fract_y
_atom_site_fract_z
Si Si1 0.869931 0.927153 0.937549
Si Si2 0.802769 0.696991 0.439566
Si Si3 0.051619 0.565388 0.060551
Si Si4 0.094726 0.696774 0.057858
Si Si5 0.286129 0.345580 0.062221
Si Si6 0.052331 0.833025 0.440982
O O1 0.871888 0.927933 0.750000
O O2 0.823771 0.891580 0.989425
O O3 0.912762 0.886916 0.001005
O O4 0.870580 0.000000 0.000000
O O5 0.798868 0.693391 0.250000
O O6 0.853812 0.686569 0.487513
O O7 0.765822 0.649195 0.511144
O O8 0.795516 0.771620 0.485561
O O9 0.053685 0.565007 0.250000
O O10 0.070053 0.632999 0.003759
O O11 0.000000 0.564112 0.010512
O O12 0.073913 0.500000 0.000000
O O13 0.093440 0.699011 0.250000
O O14 0.072096 0.763609 0.006743
O O15 0.290079 0.350590 0.250000
O O16 0.052881 0.833976 0.250000
O O17 0.000000 0.841034 0.489676
#
# Coordination Sequence:
#
# PCOD9471278 Si02
#       6
#    16  16  16  16  16  16
#     4  12  25  41  61  83 114 152 193 238 293 350
#     4   9  17  31  55  83 113 143 179 226 276 330
#     4   9  17  30  49  73 103 142 184 222 265 319
#     4   9  16  31  55  83 111 146 188 231 276 330
#     4  10  19  35  57  83 112 142 184 227 274 333
#     4  10  20  37  61  87 114 146 191 245 295 344
#
# _framework density 18.214693
#
# number of rings (size 3 to 8) (size 9 to 14) (size 15 to 20)
#    0.000    2.167    1.667    2.500    0.000    3.333 
#    0.000    2.500    0.000    4.000    0.000    0.000 
#    0.000    0.000    0.000    0.000    0.000    0.000 
#
# Total GULP energy -267489.104205 kJ/mol
# GULP energy per Si atom -5572.689671 kJ/mol
# Density = 1.817324 g / cm^3
# Si number density = 18.214693 Si / 1000 Ang^3
#
#
#
# Elastic Constant Matrix: (Units=GPa)
#
#
# Indices 1 2 3 4 5 6 
#
# 1 158.0451 99.4097 36.3710 0.0000 0.0000 0.0000
# 2 99.4097 153.9943 33.7513 0.0000 0.0000 0.0000
# 3 36.3710 33.7513 27.7563 0.0000 0.0000 0.0000
# 4 0.0000 0.0000 0.0000 23.1022 0.0000 0.0000
# 5 0.0000 0.0000 0.0000 0.0000 25.4983 0.0000
# 6 0.0000 0.0000 0.0000 0.0000 0.0000 27.3177
#
#
#
# Elastic Compliance Matrix: (Units=1/GPa)
#
#
# Indices 1 2 3 4 5 6 
#
# 1 0.011987 -0.005856 -0.008586 0.000000 0.000000 0.000000
# 2 -0.005856 0.011714 -0.006571 0.000000 0.000000 0.000000
# 3 -0.008586 -0.006571 0.055269 0.000000 0.000000 0.000000
# 4 0.000000 0.000000 0.000000 0.043286 0.000000 0.000000
# 5 0.000000 0.000000 0.000000 0.000000 0.039218 0.000000
# 6 0.000000 0.000000 0.000000 0.000000 0.000000 0.036606
#
#
# Mechanical properties :
#
#
# Convention : Reuss Voigt Hill
#
# Bulk Modulus (GPa) = 27.06804 75.42888 51.24846
# Shear Modulus (GPa) = 19.80820 26.53453 23.17137
#
# Velocity S-wave (km/s) = 3.30128 3.82090 3.57056
# Velocity P-wave (km/s) = 5.42440 7.80811 6.72275
#
# Compressibility (1/GPa) = 0.03694394
#
# Stress axis : x y z
#
# Youngs Moduli (GPa) = 83.42607 85.36652 18.09337
#
# Poissons Ratio (x) = 0.49991 0.15535
# Poissons Ratio (y) = 0.48855 0.11889
# Poissons Ratio (z) = 0.71630 0.56092
#
# Static dielectric constant tensor:
#      x y z
#    x 1.671100 0.000000 0.000000 
#    y 0.000000 1.624520 0.000000 
#    z 0.000000 0.000000 1.672290 
# 
# From -- ./inp_files/12362.got.cif
#   From: 2010.05.17/outbox.cif.g08.bks.cpg/sg63_7_cif.got.tgz:12362.got - 2010.06.03 15:47:04.
