data_PCOD9471094
_publ_section_title
;
Structure prediction by ZEFSAII (Michael W. Deem and Ramdas Pophale) SiO2 
 PCOD9471094
Probable space group: C M C M
;
_chemical_formula_sum "Si O2"
_cell_formula_units_Z 112
_cell_length_a 15.314740
_cell_length_b 23.961026
_cell_length_c 15.536200
_cell_angle_alpha 90.000000
_cell_angle_beta 90.000000
_cell_angle_gamma 90.000000
_cell_volume 5701.115531
_symmetry_space_group_name_H-M "C M C M"
_symmetry_group_IT_number 63
_symmetry_cell_setting 'orthorhombic'
loop_
_space_group_symop_operation_xyz
x,y,z
-x,-y,1/2+z
x,-y,-z
-x,y,1/2-z
-x,-y,-z
x,y,1/2-z
-x,y,z
x,-y,1/2+z
1/2+x,1/2+y,z
1/2-x,1/2-y,1/2+z
1/2+x,1/2-y,-z
1/2-x,1/2+y,1/2-z
1/2-x,1/2-y,-z
1/2+x,1/2+y,1/2-z
1/2-x,1/2+y,z
1/2+x,1/2-y,1/2+z
loop_
_atom_site_type_symbol
_atom_site_label
_atom_site_fract_x
_atom_site_fract_y
_atom_site_fract_z
Si Si1 0.595193 0.833321 0.887078
Si Si2 0.095706 0.132009 0.154304
Si Si3 0.824081 0.063087 0.010153
Si Si4 0.769439 0.232427 0.345824
Si Si5 0.599162 0.822296 0.089602
Si Si6 0.202105 0.574227 0.652164
Si Si7 0.176299 0.448224 0.846674
O O1 0.500000 0.813158 0.858277
O O2 0.672855 0.790269 0.865630
O O3 0.610926 0.896114 0.852422
O O4 0.595007 0.838033 0.989773
O O5 0.100110 0.103223 0.250000
O O6 0.106823 0.097968 0.065706
O O7 0.171690 0.177084 0.153887
O O8 0.000000 0.158954 0.152146
O O9 0.744589 0.062801 0.078069
O O10 0.779501 0.080408 0.919288
O O11 0.856338 0.000000 0.000000
O O12 0.768530 0.256987 0.250000
O O13 0.824537 0.275987 0.401898
O O14 0.500000 0.805369 0.116359
O O15 0.633293 0.876441 0.139525
O O16 0.236645 0.575559 0.750000
O O17 0.154548 0.513758 0.640504
O O18 0.213768 0.445133 0.750000
#
# Coordination Sequence:
#
# PCOD9471094 Si02
#       7
#    16  16  16  16  16  16  16
#     4  11  23  38  61  91 121 155 198 247 303 367
#     4  10  20  35  59  89 117 154 205 254 303 356
#     4  10  19  34  56  83 119 154 195 242 303 355
#     4  11  22  38  60  85 120 157 196 250 302 351
#     4  11  23  39  59  85 120 162 206 249 297 355
#     4  10  21  36  58  86 119 165 209 244 294 359
#     4  10  19  35  59  87 120 158 197 243 298 359
#
# _framework density 19.645278000000001
#
# number of rings (size 3 to 8) (size 9 to 14) (size 15 to 20)
#    0.000    1.571    2.857    2.143    0.000    4.286 
#    0.000    2.857    0.000    0.429    0.000    0.000 
#    0.000    0.000    0.000    0.000    0.000    0.000 
#
# Total GULP energy -311739.603452 kJ/mol
# GULP energy per Si atom -5566.778633 kJ/mol
# Density = 1.960056 g / cm^3
# Si number density = 19.645278 Si / 1000 Ang^3
#
#
#
# Elastic Constant Matrix: (Units=GPa)
#
#
# Indices 1 2 3 4 5 6 
#
# 1 121.4898 48.5343 22.0052 0.0000 0.0000 0.0000
# 2 48.5343 79.2633 26.5632 0.0000 0.0000 0.0000
# 3 22.0052 26.5632 127.3056 0.0000 0.0000 0.0000
# 4 0.0000 0.0000 0.0000 28.5191 0.0000 0.0000
# 5 0.0000 0.0000 0.0000 0.0000 31.9263 0.0000
# 6 0.0000 0.0000 0.0000 0.0000 0.0000 2.9762
#
#
#
# Elastic Compliance Matrix: (Units=1/GPa)
#
#
# Indices 1 2 3 4 5 6 
#
# 1 0.010930 -0.006515 -0.000530 0.000000 0.000000 0.000000
# 2 -0.006515 0.017448 -0.002515 0.000000 0.000000 0.000000
# 3 -0.000530 -0.002515 0.008471 0.000000 0.000000 0.000000
# 4 0.000000 0.000000 0.000000 0.035064 0.000000 0.000000
# 5 0.000000 0.000000 0.000000 0.000000 0.031322 0.000000
# 6 0.000000 0.000000 0.000000 0.000000 0.000000 0.336001
#
#
# Mechanical properties :
#
#
# Convention : Reuss Voigt Hill
#
# Bulk Modulus (GPa) = 56.39973 58.02935 57.21454
# Shear Modulus (GPa) = 10.76971 28.08137 19.42554
#
# Velocity S-wave (km/s) = 2.34393 3.78487 3.14795
# Velocity P-wave (km/s) = 6.00805 6.97876 6.51152
#
# Compressibility (1/GPa) = 0.01773058
#
# Stress axis : x y z
#
# Youngs Moduli (GPa) = 91.49308 57.31286 118.04458
#
# Poissons Ratio (x) = 0.37339 0.06255
# Poissons Ratio (y) = 0.59607 0.29683
# Poissons Ratio (z) = 0.04848 0.14412
#
# Static dielectric constant tensor:
#      x y z
#    x 1.704400 0.000000 0.000000 
#    y 0.000000 1.729530 0.000000 
#    z 0.000000 0.000000 1.768670 
# 
# From -- ./inp_files/32349.got.cif
#   From: 2010.05.17/outbox.cif.g08.bks.cpg/sg63_17_cif.got.tgz:32349.got - 2010.06.03 15:47:04.
