data_PCOD9471166
_publ_section_title
;
Structure prediction by ZEFSAII (Michael W. Deem and Ramdas Pophale) SiO2 
 PCOD9471166
Probable space group: C M C M
;
_chemical_formula_sum "Si O2"
_cell_formula_units_Z 96
_cell_length_a 21.888924
_cell_length_b 25.333322
_cell_length_c 8.871450
_cell_angle_alpha 90.000000
_cell_angle_beta 90.000000
_cell_angle_gamma 90.000000
_cell_volume 4919.389001
_symmetry_space_group_name_H-M "C M C M"
_symmetry_group_IT_number 63
_symmetry_cell_setting 'orthorhombic'
loop_
_space_group_symop_operation_xyz
x,y,z
-x,-y,1/2+z
x,-y,-z
-x,y,1/2-z
-x,-y,-z
x,y,1/2-z
-x,y,z
x,-y,1/2+z
1/2+x,1/2+y,z
1/2-x,1/2-y,1/2+z
1/2+x,1/2-y,-z
1/2-x,1/2+y,1/2-z
1/2-x,1/2-y,-z
1/2+x,1/2+y,1/2-z
1/2-x,1/2+y,z
1/2+x,1/2-y,1/2+z
loop_
_atom_site_type_symbol
_atom_site_label
_atom_site_fract_x
_atom_site_fract_y
_atom_site_fract_z
Si Si1 0.903199 0.663082 0.424514
Si Si2 0.761051 0.694533 0.423029
Si Si3 0.097871 0.054225 0.931669
Si Si4 0.500000 0.357714 0.431768
Si Si5 0.632665 0.944570 0.068532
Si Si6 0.500000 0.759266 0.070077
Si Si7 0.230442 0.087643 0.569205
O O1 0.922429 0.658374 0.250000
O O2 0.832970 0.681636 0.426491
O O3 0.903513 0.605983 0.504781
O O4 0.942839 0.706887 0.508760
O O5 0.740589 0.695142 0.250000
O O6 0.750000 0.750000 0.500000
O O7 0.729041 0.647505 0.512455
O O8 0.096349 0.050490 0.750000
O O9 0.168173 0.060556 0.983432
O O10 0.058272 0.105712 0.972409
O O11 0.073193 0.000000 0.000000
O O12 0.500000 0.350618 0.250000
O O13 0.500000 0.300308 0.506545
O O14 0.629853 0.945200 0.250000
O O15 0.704327 0.936608 0.020829
O O16 0.611487 0.000000 0.000000
O O17 0.500000 0.757961 0.250000
O O18 0.230461 0.086729 0.750000
#
# Coordination Sequence:
#
# PCOD9471166 Si02
#       7
#    16  16  16   8  16   8  16
#     4  10  22  41  62  85 116 157 196 238 295 352
#     4  10  21  35  56  84 116 152 192 240 291 348
#     4  10  21  37  58  83 115 154 197 246 294 345
#     4  10  23  41  59  81 113 156 201 244 297 354
#     4  10  19  34  58  88 122 155 193 240 290 350
#     4  12  26  43  64  89 117 150 197 250 296 348
#     4   9  19  34  53  82 117 154 195 238 290 349
#
# _framework density 19.514617999999999
#
# number of rings (size 3 to 8) (size 9 to 14) (size 15 to 20)
#    0.000    2.000    0.000    3.000    2.333    4.000 
#    0.000    0.417    0.000    0.000    0.000    0.000 
#    0.000    0.000    0.000    0.000    0.000    0.000 
#
# Total GULP energy -268050.801255 kJ/mol
# GULP energy per Si atom -5584.391693 kJ/mol
# Density = 1.947020 g / cm^3
# Si number density = 19.514618 Si / 1000 Ang^3
#
#
#
# Elastic Constant Matrix: (Units=GPa)
#
#
# Indices 1 2 3 4 5 6 
#
# 1 58.8580 44.2448 25.7272 0.0000 0.0000 0.0000
# 2 44.2448 195.0203 52.8306 0.0000 0.0000 0.0000
# 3 25.7272 52.8306 50.3002 0.0000 0.0000 0.0000
# 4 0.0000 0.0000 0.0000 40.8005 0.0000 0.0000
# 5 0.0000 0.0000 0.0000 0.0000 16.4032 0.0000
# 6 0.0000 0.0000 0.0000 0.0000 0.0000 19.7913
#
#
#
# Elastic Compliance Matrix: (Units=1/GPa)
#
#
# Indices 1 2 3 4 5 6 
#
# 1 0.022950 -0.002833 -0.008763 0.000000 0.000000 0.000000
# 2 -0.002833 0.007516 -0.006446 0.000000 0.000000 0.000000
# 3 -0.008763 -0.006446 0.031133 0.000000 0.000000 0.000000
# 4 0.000000 0.000000 0.000000 0.024509 0.000000 0.000000
# 5 0.000000 0.000000 0.000000 0.000000 0.060964 0.000000
# 6 0.000000 0.000000 0.000000 0.000000 0.000000 0.050527
#
#
# Mechanical properties :
#
#
# Convention : Reuss Voigt Hill
#
# Bulk Modulus (GPa) = 39.19098 61.08707 50.13903
# Shear Modulus (GPa) = 20.64515 27.49073 24.06794
#
# Velocity S-wave (km/s) = 3.25612 3.75737 3.51569
# Velocity P-wave (km/s) = 5.85345 7.08484 6.49838
#
# Compressibility (1/GPa) = 0.02551607
#
# Stress axis : x y z
#
# Youngs Moduli (GPa) = 43.57320 133.04080 32.12069
#
# Poissons Ratio (x) = 0.37688 0.28147
# Poissons Ratio (y) = 0.12344 0.20704
# Poissons Ratio (z) = 0.38183 0.85754
#
# Static dielectric constant tensor:
#      x y z
#    x 1.719340 0.000000 0.000000 
#    y 0.000000 1.638710 0.000000 
#    z 0.000000 0.000000 1.655590 
# 
# From -- ./inp_files/10551.got.cif
#   From: 2010.05.17/outbox.cif.g08.bks.cpg/sg63_6_cif.got.tgz:10551.got - 2010.06.03 15:47:04.
