data_PCOD9471499
_publ_section_title
;
Structure prediction by ZEFSAII (Michael W. Deem and Ramdas Pophale) SiO2 
 PCOD9471499
Probable space group: C M C M
;
_chemical_formula_sum "Si O2"
_cell_formula_units_Z 64
_cell_length_a 10.423574
_cell_length_b 19.236956
_cell_length_c 18.067783
_cell_angle_alpha 90.000000
_cell_angle_beta 90.000000
_cell_angle_gamma 90.000000
_cell_volume 3622.912720
_symmetry_space_group_name_H-M "C M C M"
_symmetry_group_IT_number 63
_symmetry_cell_setting 'orthorhombic'
loop_
_space_group_symop_operation_xyz
x,y,z
-x,-y,1/2+z
x,-y,-z
-x,y,1/2-z
-x,-y,-z
x,y,1/2-z
-x,y,z
x,-y,1/2+z
1/2+x,1/2+y,z
1/2-x,1/2-y,1/2+z
1/2+x,1/2-y,-z
1/2-x,1/2+y,1/2-z
1/2-x,1/2-y,-z
1/2+x,1/2+y,1/2-z
1/2-x,1/2+y,z
1/2+x,1/2-y,1/2+z
loop_
_atom_site_type_symbol
_atom_site_label
_atom_site_fract_x
_atom_site_fract_y
_atom_site_fract_z
Si Si1 0.282279 0.399998 0.750000
Si Si2 0.252435 0.847554 0.375784
Si Si3 0.500000 0.223885 0.565571
Si Si4 0.000000 0.853359 0.468854
Si Si5 0.500000 0.631194 0.134581
Si Si6 0.847902 0.746487 0.250000
Si Si7 0.153269 0.450799 0.250000
O O1 0.376152 0.393630 0.679223
O O2 0.189600 0.333809 0.750000
O O3 0.207536 0.471817 0.750000
O O4 0.372217 0.821208 0.424522
O O5 0.210367 0.784706 0.321656
O O6 0.296822 0.909144 0.321797
O O7 0.128733 0.867748 0.423705
O O8 0.500000 0.271016 0.491815
O O9 0.500000 0.284164 0.629362
O O10 0.000000 0.890420 0.548805
O O11 0.000000 0.756674 0.250000
O O12 0.000000 0.449759 0.250000
#
# Coordination Sequence:
#
# PCOD9471499 Si02
#       7
#     8  16   8   8   8   8   8
#     4  11  21  40  58  86 115 161 212 236 294 356
#     4  11  21  37  62  92 123 151 199 248 303 351
#     4  10  19  36  63  87 119 153 192 240 294 356
#     4  10  21  37  61  98 122 152 193 246 315 344
#     4   9  22  36  64  86 114 158 193 252 295 351
#     4  11  19  32  58  87 118 154 194 259 285 352
#     4  11  25  40  62  85 122 162 198 251 297 352
#
# _framework density 17.665344999999999
#
# number of rings (size 3 to 8) (size 9 to 14) (size 15 to 20)
#    0.750    0.750    5.000    1.125    0.000    2.000 
#    0.000    2.500    2.750    1.500    0.000    0.000 
#    0.000    0.000    0.000    0.000    0.000    0.000 
#
# Total GULP energy -178535.031494 kJ/mol
# GULP energy per Si atom -5579.219734 kJ/mol
# Density = 1.762514 g / cm^3
# Si number density = 17.665345 Si / 1000 Ang^3
#
#
#
# Elastic Constant Matrix: (Units=GPa)
#
#
# Indices 1 2 3 4 5 6 
#
# 1 155.0961 41.3854 52.9840 0.0000 0.0000 0.0000
# 2 41.3854 99.2617 23.3072 0.0000 0.0000 0.0000
# 3 52.9840 23.3072 87.9139 0.0000 0.0000 0.0000
# 4 0.0000 0.0000 0.0000 8.9949 0.0000 0.0000
# 5 0.0000 0.0000 0.0000 0.0000 16.8381 0.0000
# 6 0.0000 0.0000 0.0000 0.0000 0.0000 19.5547
#
#
#
# Elastic Compliance Matrix: (Units=1/GPa)
#
#
# Indices 1 2 3 4 5 6 
#
# 1 0.008686 -0.002551 -0.004558 0.000000 0.000000 0.000000
# 2 -0.002551 0.011492 -0.001509 0.000000 0.000000 0.000000
# 3 -0.004558 -0.001509 0.014522 0.000000 0.000000 0.000000
# 4 0.000000 0.000000 0.000000 0.111174 0.000000 0.000000
# 5 0.000000 0.000000 0.000000 0.000000 0.059389 0.000000
# 6 0.000000 0.000000 0.000000 0.000000 0.000000 0.051139
#
#
# Mechanical properties :
#
#
# Convention : Reuss Voigt Hill
#
# Bulk Modulus (GPa) = 57.26480 64.18056 60.72268
# Shear Modulus (GPa) = 17.89165 24.05054 20.97110
#
# Velocity S-wave (km/s) = 3.18592 3.69379 3.44922
# Velocity P-wave (km/s) = 6.78383 7.38934 7.09305
#
# Compressibility (1/GPa) = 0.01746273
#
# Stress axis : x y z
#
# Youngs Moduli (GPa) = 115.13426 87.01430 68.86050
#
# Poissons Ratio (x) = 0.22197 0.31389
# Poissons Ratio (y) = 0.29370 0.10394
# Poissons Ratio (z) = 0.52482 0.13134
#
# Static dielectric constant tensor:
#      x y z
#    x 1.572900 0.000000 0.000000 
#    y 0.000000 1.576020 0.000000 
#    z 0.000000 0.000000 1.601020 
# 
# From -- ./inp_files/50663.got.cif
#   From: 2010.05.17/outbox.cif.g08.bks.cpg/sg63_26_cif.got.tgz:50663.got - 2010.06.03 15:47:04.
