data_PCOD9471606
_publ_section_title
;
Structure prediction by ZEFSAII (Michael W. Deem and Ramdas Pophale) SiO2 
 PCOD9471606
Probable space group: C M C M
;
_chemical_formula_sum "Si O2"
_cell_formula_units_Z 88
_cell_length_a 19.965282
_cell_length_b 27.748144
_cell_length_c 8.277160
_cell_angle_alpha 90.000000
_cell_angle_beta 90.000000
_cell_angle_gamma 90.000000
_cell_volume 4585.542666
_symmetry_space_group_name_H-M "C M C M"
_symmetry_group_IT_number 63
_symmetry_cell_setting 'orthorhombic'
loop_
_space_group_symop_operation_xyz
x,y,z
-x,-y,1/2+z
x,-y,-z
-x,y,1/2-z
-x,-y,-z
x,y,1/2-z
-x,y,z
x,-y,1/2+z
1/2+x,1/2+y,z
1/2-x,1/2-y,1/2+z
1/2+x,1/2-y,-z
1/2-x,1/2+y,1/2-z
1/2-x,1/2-y,-z
1/2+x,1/2+y,1/2-z
1/2-x,1/2+y,z
1/2+x,1/2-y,1/2+z
loop_
_atom_site_type_symbol
_atom_site_label
_atom_site_fract_x
_atom_site_fract_y
_atom_site_fract_z
Si Si1 0.673029 0.343572 0.942967
Si Si2 0.856081 0.414142 0.560793
Si Si3 0.424064 0.268894 0.443997
Si Si4 0.688258 0.803783 0.939341
Si Si5 0.500000 0.945398 0.554906
Si Si6 0.782465 0.947336 0.437947
O O1 0.672059 0.338309 0.750000
O O2 0.736827 0.311831 0.008171
O O3 0.606042 0.321204 0.016175
O O4 0.685846 0.399748 0.980212
O O5 0.851933 0.428997 0.750000
O O6 0.841422 0.357517 0.555016
O O7 0.930378 0.423058 0.497475
O O8 0.797244 0.441486 0.468627
O O9 0.426504 0.262475 0.250000
O O10 0.500000 0.261945 0.504587
O O11 0.367699 0.231797 0.510174
O O12 0.696806 0.790570 0.750000
O O13 0.500000 0.941087 0.750000
O O14 0.500000 0.000000 0.500000
O O15 0.796801 0.944191 0.250000
O O16 0.803521 0.000000 0.500000
#
# Coordination Sequence:
#
# PCOD9471606 Si02
#       6
#    16  16  16  16   8  16
#     4  10  20  36  56  79 109 143 181 224 268 319
#     4   9  18  32  49  73 103 139 182 225 268 316
#     4  10  20  33  53  81 111 144 182 223 268 322
#     4   8  16  31  52  77 104 139 182 224 265 313
#     4  10  20  30  44  64  96 140 182 224 269 316
#     4  11  21  35  56  80 105 134 173 221 271 323
#
# _framework density 19.190750000000001
#
# number of rings (size 3 to 8) (size 9 to 14) (size 15 to 20)
#    0.000    2.364    0.000    4.364    1.273    2.545 
#    0.000    3.636    0.000    0.545    0.000    0.000 
#    0.000    0.000    0.000    0.000    0.000    0.000 
#
# Total GULP energy -245342.015256 kJ/mol
# GULP energy per Si atom -5575.954892 kJ/mol
# Density = 1.914707 g / cm^3
# Si number density = 19.190750 Si / 1000 Ang^3
#
#
#
# Elastic Constant Matrix: (Units=GPa)
#
#
# Indices 1 2 3 4 5 6 
#
# 1 75.5818 37.9081 7.0627 0.0000 0.0000 0.0000
# 2 37.9081 74.0465 2.3572 0.0000 0.0000 0.0000
# 3 7.0627 2.3572 20.5652 0.0000 0.0000 0.0000
# 4 0.0000 0.0000 0.0000 22.0464 0.0000 0.0000
# 5 0.0000 0.0000 0.0000 0.0000 18.1395 0.0000
# 6 0.0000 0.0000 0.0000 0.0000 0.0000 10.4972
#
#
#
# Elastic Compliance Matrix: (Units=1/GPa)
#
#
# Indices 1 2 3 4 5 6 
#
# 1 0.018348 -0.009226 -0.005244 0.000000 0.000000 0.000000
# 2 -0.009226 0.018194 0.001083 0.000000 0.000000 0.000000
# 3 -0.005244 0.001083 0.050303 0.000000 0.000000 0.000000
# 4 0.000000 0.000000 0.000000 0.045359 0.000000 0.000000
# 5 0.000000 0.000000 0.000000 0.000000 0.055128 0.000000
# 6 0.000000 0.000000 0.000000 0.000000 0.000000 0.095263
#
#
# Mechanical properties :
#
#
# Convention : Reuss Voigt Hill
#
# Bulk Modulus (GPa) = 16.64702 29.42770 23.03736
# Shear Modulus (GPa) = 15.17946 18.32768 16.75357
#
# Velocity S-wave (km/s) = 2.81548 3.09370 2.95787
# Velocity P-wave (km/s) = 4.38892 5.30367 4.86783
#
# Compressibility (1/GPa) = 0.06007080
#
# Stress axis : x y z
#
# Youngs Moduli (GPa) = 54.50117 54.96315 19.87973
#
# Poissons Ratio (x) = 0.50711 0.10424
# Poissons Ratio (y) = 0.50285 -0.02153
# Poissons Ratio (z) = 0.28579 -0.05954
#
# Static dielectric constant tensor:
#      x y z
#    x 1.624340 0.000000 0.000000 
#    y 0.000000 1.677600 0.000000 
#    z 0.000000 0.000000 1.679700 
# 
# From -- ./inp_files/6790.got.cif
#   From: 2010.05.17/outbox.cif.g08.bks.cpg/sg63_4_cif.got.tgz:6790.got - 2010.06.03 15:47:04.
