data_PCOD9471365
_publ_section_title
;
Structure prediction by ZEFSAII (Michael W. Deem and Ramdas Pophale) SiO2 
 PCOD9471365
Probable space group: C M C M
;
_chemical_formula_sum "Si O2"
_cell_formula_units_Z 108
_cell_length_a 15.379961
_cell_length_b 23.680401
_cell_length_c 15.255469
_cell_angle_alpha 90.000000
_cell_angle_beta 90.000000
_cell_angle_gamma 90.000000
_cell_volume 5556.097398
_symmetry_space_group_name_H-M "C M C M"
_symmetry_group_IT_number 63
_symmetry_cell_setting 'orthorhombic'
loop_
_space_group_symop_operation_xyz
x,y,z
-x,-y,1/2+z
x,-y,-z
-x,y,1/2-z
-x,-y,-z
x,y,1/2-z
-x,y,z
x,-y,1/2+z
1/2+x,1/2+y,z
1/2-x,1/2-y,1/2+z
1/2+x,1/2-y,-z
1/2-x,1/2+y,1/2-z
1/2-x,1/2-y,-z
1/2+x,1/2+y,1/2-z
1/2-x,1/2+y,z
1/2+x,1/2-y,1/2+z
loop_
_atom_site_type_symbol
_atom_site_label
_atom_site_fract_x
_atom_site_fract_y
_atom_site_fract_z
Si Si1 0.237534 0.000000 0.000000
Si Si2 0.143908 0.727248 0.654399
Si Si3 0.658326 0.299667 0.148277
Si Si4 0.500000 0.922650 0.750000
Si Si5 0.403263 0.193722 0.034480
Si Si6 0.152734 0.137638 0.156328
Si Si7 0.164154 0.414279 0.615124
Si Si8 0.901233 0.094512 0.532607
O O1 0.172516 0.046648 0.958403
O O2 0.299938 0.970755 0.929313
O O3 0.104721 0.714419 0.750000
O O4 0.237403 0.696997 0.649961
O O5 0.095417 0.711185 0.566442
O O6 0.158014 0.794677 0.650889
O O7 0.628490 0.295528 0.250000
O O8 0.638801 0.242960 0.093104
O O9 0.618284 0.352658 0.096602
O O10 0.578987 0.921819 0.674487
O O11 0.500000 0.187851 0.069912
O O12 0.357390 0.133791 0.043580
O O13 0.109967 0.123329 0.250000
O O14 0.249814 0.112501 0.158726
O O15 0.107750 0.115386 0.068342
O O16 0.000000 0.074450 0.547735
#
# Coordination Sequence:
#
# PCOD9471365 Si02
#       8
#     8  16  16   4  16  16  16  16
#     4  10  25  47  70  86 124 180 216 277 331 390
#     4  10  20  35  58  86 128 177 212 245 311 391
#     4  11  23  38  62  92 130 169 209 259 320 396
#     4  12  24  42  68 108 120 160 224 294 322 390
#     4  12  23  36  60  96 131 165 202 263 324 394
#     4  10  19  35  61  91 129 169 210 259 315 384
#     4  11  23  41  68  94 129 165 218 270 337 386
#     4  11  23  42  64  95 128 172 222 270 322 384
#
# _framework density 19.438103999999999
#
# number of rings (size 3 to 8) (size 9 to 14) (size 15 to 20)
#    0.000    1.185    4.444    2.889    1.037    2.074 
#    1.333    1.481    1.630    1.778    0.000    0.000 
#    0.000    0.000    0.000    0.000    0.000    0.000 
#
# Total GULP energy -300691.539274 kJ/mol
# GULP energy per Si atom -5568.361838 kJ/mol
# Density = 1.939386 g / cm^3
# Si number density = 19.438104 Si / 1000 Ang^3
#
#
#
# Elastic Constant Matrix: (Units=GPa)
#
#
# Indices 1 2 3 4 5 6 
#
# 1 108.1476 34.4984 44.7985 0.0000 0.0000 0.0000
# 2 34.4984 79.8260 53.1540 0.0000 0.0000 0.0000
# 3 44.7985 53.1540 144.1462 0.0000 0.0000 0.0000
# 4 0.0000 0.0000 0.0000 -4.0386 0.0000 0.0000
# 5 0.0000 0.0000 0.0000 0.0000 39.0181 0.0000
# 6 0.0000 0.0000 0.0000 0.0000 0.0000 10.8987
#
#
#
# Elastic Compliance Matrix: (Units=1/GPa)
#
#
# Indices 1 2 3 4 5 6 
#
# 1 0.011254 -0.003360 -0.002259 0.000000 0.000000 0.000000
# 2 -0.003360 0.017607 -0.005449 0.000000 0.000000 0.000000
# 3 -0.002259 -0.005449 0.009649 0.000000 0.000000 0.000000
# 4 0.000000 0.000000 0.000000 -0.247609 0.000000 0.000000
# 5 0.000000 0.000000 0.000000 0.000000 0.025629 0.000000
# 6 0.000000 0.000000 0.000000 0.000000 0.000000 0.091754
#
#
# Mechanical properties :
#
#
# Convention : Reuss Voigt Hill
#
# Bulk Modulus (GPa) = 61.06512 66.33573 63.70043
# Shear Modulus (GPa) = -77.97470 22.48689 -27.74391
#
# Velocity S-wave (km/s) = -6.34046 3.40493 -3.78205
# Velocity P-wave (km/s) = 4.70304 7.04690 3.71081
#
# Compressibility (1/GPa) = 0.01637596
#
# Stress axis : x y z
#
# Youngs Moduli (GPa) = 88.85764 56.79485 103.64270
#
# Poissons Ratio (x) = 0.19081 0.23410
# Poissons Ratio (y) = 0.29853 0.56470
# Poissons Ratio (z) = 0.20070 0.30945
#
# Static dielectric constant tensor:
#      x y z
#    x 1.674300 0.000000 0.000000 
#    y 0.000000 1.707140 0.000000 
#    z 0.000000 0.000000 1.697880 
# 
# From -- ./inp_files/32369.got.cif
#   From: 2010.05.17/outbox.cif.g08.bks.cpg/sg63_17_cif.got.tgz:32369.got - 2010.06.03 15:47:04.
