data_PCOD9471853
_publ_section_title
;
Structure prediction by ZEFSAII (Michael W. Deem and Ramdas Pophale) SiO2 
 PCOD9471853
Probable space group: C M C M
;
_chemical_formula_sum "Si O2"
_cell_formula_units_Z 80
_cell_length_a 7.606603
_cell_length_b 18.598326
_cell_length_c 27.779587
_cell_angle_alpha 90.000000
_cell_angle_beta 90.000000
_cell_angle_gamma 90.000000
_cell_volume 3929.980460
_symmetry_space_group_name_H-M "C M C M"
_symmetry_group_IT_number 63
_symmetry_cell_setting 'orthorhombic'
loop_
_space_group_symop_operation_xyz
x,y,z
-x,-y,1/2+z
x,-y,-z
-x,y,1/2-z
-x,-y,-z
x,y,1/2-z
-x,y,z
x,-y,1/2+z
1/2+x,1/2+y,z
1/2-x,1/2-y,1/2+z
1/2+x,1/2-y,-z
1/2-x,1/2+y,1/2-z
1/2-x,1/2-y,-z
1/2+x,1/2+y,1/2-z
1/2-x,1/2+y,z
1/2+x,1/2-y,1/2+z
loop_
_atom_site_type_symbol
_atom_site_label
_atom_site_fract_x
_atom_site_fract_y
_atom_site_fract_z
Si Si1 0.783829 0.584296 0.594172
Si Si2 0.710260 0.081666 0.093911
Si Si3 0.788996 0.666184 0.001071
Si Si4 0.209207 0.071415 0.198213
Si Si5 0.703650 0.095897 0.801999
O O1 0.726949 0.501002 0.590396
O O2 0.724970 0.627477 0.547436
O O3 0.722608 0.616049 0.645658
O O4 0.000000 0.584521 0.595446
O O5 0.500000 0.078706 0.089539
O O6 0.778964 0.128945 0.049868
O O7 0.747778 0.109052 0.147920
O O8 0.000000 0.657318 0.001052
O O9 0.750000 0.750000 0.000000
O O10 0.261053 0.104396 0.250000
O O11 0.000000 0.061330 0.198809
O O12 0.291751 0.991514 0.196630
O O13 0.782950 0.116751 0.750000
O O14 0.500000 0.118716 0.801161
#
# Coordination Sequence:
#
# PCOD9471853 Si02
#       5
#    16  16  16  16  16
#     4   8  14  27  48  70  90 115 150 189 221 255
#     4   9  17  30  49  69  88 117 157 192 221 262
#     4  10  20  33  48  66  90 121 155 191 232 274
#     4   9  16  25  40  66  97 121 141 175 227 276
#     4   8  13  23  42  67  91 115 146 182 219 262
#
# _framework density 20.356335999999999
#
# number of rings (size 3 to 8) (size 9 to 14) (size 15 to 20)
#    0.000    3.200    0.000    2.400    0.000    4.400 
#    0.000    4.000    0.000    7.200    0.000    2.800 
#    0.000    0.000    0.000    0.000    0.000    0.000 
#
# Total GULP energy -222724.008639 kJ/mol
# GULP energy per Si atom -5568.100216 kJ/mol
# Density = 2.031000 g / cm^3
# Si number density = 20.356336 Si / 1000 Ang^3
#
#
#
# Elastic Constant Matrix: (Units=GPa)
#
#
# Indices 1 2 3 4 5 6 
#
# 1 45.4391 0.3666 6.8552 0.0000 0.0000 0.0000
# 2 0.3666 51.6125 77.0903 0.0000 0.0000 0.0000
# 3 6.8552 77.0903 278.9833 0.0000 0.0000 0.0000
# 4 0.0000 0.0000 0.0000 -5.5942 0.0000 0.0000
# 5 0.0000 0.0000 0.0000 0.0000 0.3227 0.0000
# 6 0.0000 0.0000 0.0000 0.0000 0.0000 11.2060
#
#
#
# Elastic Compliance Matrix: (Units=1/GPa)
#
#
# Indices 1 2 3 4 5 6 
#
# 1 0.022127 0.001115 -0.000852 0.000000 0.000000 0.000000
# 2 0.001115 0.033048 -0.009159 0.000000 0.000000 0.000000
# 3 -0.000852 -0.009159 0.006136 0.000000 0.000000 0.000000
# 4 0.000000 0.000000 0.000000 -0.178758 0.000000 0.000000
# 5 0.000000 0.000000 0.000000 0.000000 3.098901 0.000000
# 6 0.000000 0.000000 0.000000 0.000000 0.000000 0.089238
#
#
# Mechanical properties :
#
#
# Convention : Reuss Voigt Hill
#
# Bulk Modulus (GPa) = 22.97833 60.51767 41.74800
# Shear Modulus (GPa) = 1.61135 20.63511 11.12323
#
# Velocity S-wave (km/s) = 0.89067 3.18731 2.34011
# Velocity P-wave (km/s) = 3.51714 6.58323 5.27775
#
# Compressibility (1/GPa) = 0.04351926
#
# Stress axis : x y z
#
# Youngs Moduli (GPa) = 45.19365 30.25892 162.96291
#
# Poissons Ratio (x) = -0.03374 0.13882
# Poissons Ratio (y) = -0.05040 1.49265
# Poissons Ratio (z) = 0.03850 0.27715
#
# Static dielectric constant tensor:
#      x y z
#    x 1.784370 0.000000 0.000000 
#    y 0.000000 1.651340 0.000000 
#    z 0.000000 0.000000 1.814990 
# 
# From -- ./inp_files/66579.got.cif
#   From: 2010.05.17/outbox.cif.g08.bks.cpg/sg63_34_cif.got.tgz:66579.got - 2010.06.03 15:47:04.
