data_PCOD9471906
_publ_section_title
;
Structure prediction by ZEFSAII (Michael W. Deem and Ramdas Pophale) SiO2 
 PCOD9471906
Probable space group: C M C M
;
_chemical_formula_sum "Si O2"
_cell_formula_units_Z 96
_cell_length_a 31.138056
_cell_length_b 19.744280
_cell_length_c 7.655353
_cell_angle_alpha 90.000000
_cell_angle_beta 90.000000
_cell_angle_gamma 90.000000
_cell_volume 4706.499513
_symmetry_space_group_name_H-M "C M C M"
_symmetry_group_IT_number 63
_symmetry_cell_setting 'orthorhombic'
loop_
_space_group_symop_operation_xyz
x,y,z
-x,-y,1/2+z
x,-y,-z
-x,y,1/2-z
-x,-y,-z
x,y,1/2-z
-x,y,z
x,-y,1/2+z
1/2+x,1/2+y,z
1/2-x,1/2-y,1/2+z
1/2+x,1/2-y,-z
1/2-x,1/2+y,1/2-z
1/2-x,1/2-y,-z
1/2+x,1/2+y,1/2-z
1/2-x,1/2+y,z
1/2+x,1/2-y,1/2+z
loop_
_atom_site_type_symbol
_atom_site_label
_atom_site_fract_x
_atom_site_fract_y
_atom_site_fract_z
Si Si1 0.204467 0.577102 0.459640
Si Si2 0.048512 0.577811 0.459705
Si Si3 0.126984 0.670685 0.464873
Si Si4 0.698152 0.422716 0.541820
Si Si5 0.878374 0.824071 0.455853
Si Si6 0.048816 0.923296 0.460255
O O1 0.191320 0.500000 0.500000
O O2 0.206344 0.583169 0.250000
O O3 0.169352 0.630295 0.523461
O O4 0.253137 0.586928 0.526481
O O5 0.060055 0.500000 0.500000
O O6 0.046976 0.584120 0.250000
O O7 0.084742 0.629501 0.521969
O O8 0.000000 0.589995 0.526772
O O9 0.127536 0.670052 0.250000
O O10 0.126220 0.748203 0.525722
O O11 0.685146 0.500000 0.500000
O O12 0.698980 0.416100 0.750000
O O13 0.664542 0.368320 0.473510
O O14 0.887148 0.816032 0.250000
O O15 0.917640 0.868444 0.529734
O O16 0.047528 0.917614 0.250000
O O17 0.000000 0.914693 0.525768
O O18 0.062844 0.000000 0.500000
#
# Coordination Sequence:
#
# PCOD9471906 Si02
#       6
#    16  16  16  16  16  16
#     4   9  18  33  52  72  95 126 163 201 239 281
#     4   9  17  30  50  74  98 127 164 204 243 284
#     4   9  18  32  49  71 100 131 161 195 239 289
#     4  10  20  34  52  73  96 124 161 202 241 283
#     4  10  20  33  50  72  99 130 160 194 239 289
#     4   9  18  32  50  71  93 120 156 195 233 276
#
# _framework density 20.397324999999999
#
# number of rings (size 3 to 8) (size 9 to 14) (size 15 to 20)
#    0.000    2.667    0.000    1.500    0.000    4.000 
#    0.000    5.000    0.000    0.000    0.000    4.667 
#    0.000    0.000    0.000    0.000    0.000    0.000 
#
# Total GULP energy -267927.820285 kJ/mol
# GULP energy per Si atom -5581.829589 kJ/mol
# Density = 2.035090 g / cm^3
# Si number density = 20.397325 Si / 1000 Ang^3
#
#
#
# Elastic Constant Matrix: (Units=GPa)
#
#
# Indices 1 2 3 4 5 6 
#
# 1 131.7681 131.0631 -3.1642 0.0000 0.0000 0.0000
# 2 131.0631 200.9180 -6.5818 0.0000 0.0000 0.0000
# 3 -3.1642 -6.5818 35.2695 0.0000 0.0000 0.0000
# 4 0.0000 0.0000 0.0000 20.3642 0.0000 0.0000
# 5 0.0000 0.0000 0.0000 0.0000 -54.3520 0.0000
# 6 0.0000 0.0000 0.0000 0.0000 0.0000 -11.4504
#
#
#
# Elastic Compliance Matrix: (Units=1/GPa)
#
#
# Indices 1 2 3 4 5 6 
#
# 1 0.021628 -0.014131 -0.000697 0.000000 0.000000 0.000000
# 2 -0.014131 0.014241 0.001390 0.000000 0.000000 0.000000
# 3 -0.000697 0.001390 0.028550 0.000000 0.000000 0.000000
# 4 0.000000 0.000000 0.000000 0.049106 0.000000 0.000000
# 5 0.000000 0.000000 0.000000 0.000000 -0.018399 0.000000
# 6 0.000000 0.000000 0.000000 0.000000 0.000000 -0.087333
#
#
# Mechanical properties :
#
#
# Convention : Reuss Voigt Hill
#
# Bulk Modulus (GPa) = 26.63662 67.84331 47.23996
# Shear Modulus (GPa) = 105.96950 7.35492 56.66221
#
# Velocity S-wave (km/s) = 7.21564 1.90096 5.27632
# Velocity P-wave (km/s) = 9.08338 6.17667 7.76721
#
# Compressibility (1/GPa) = 0.03754231
#
# Stress axis : x y z
#
# Youngs Moduli (GPa) = 46.23638 70.22085 35.02634
#
# Poissons Ratio (x) = 0.99231 0.02440
# Poissons Ratio (y) = 0.65338 -0.04868
# Poissons Ratio (z) = 0.03221 -0.09759
#
# Static dielectric constant tensor:
#      x y z
#    x 1.733920 0.000000 0.000000 
#    y 0.000000 1.673560 0.000000 
#    z 0.000000 0.000000 1.778180 
# 
# From -- ./inp_files/25014.got.cif
#   From: 2010.05.17/outbox.cif.g08.bks.cpg/sg63_13_cif.got.tgz:25014.got - 2010.06.03 15:47:04.
