data_PCOD9471334
_publ_section_title
;
Structure prediction by ZEFSAII (Michael W. Deem and Ramdas Pophale) SiO2 
 PCOD9471334
Probable space group: C M C M
;
_chemical_formula_sum "Si O2"
_cell_formula_units_Z 68
_cell_length_a 13.207018
_cell_length_b 12.634177
_cell_length_c 18.404022
_cell_angle_alpha 90.000000
_cell_angle_beta 90.000000
_cell_angle_gamma 90.000000
_cell_volume 3070.891486
_symmetry_space_group_name_H-M "C M C M"
_symmetry_group_IT_number 63
_symmetry_cell_setting 'orthorhombic'
loop_
_space_group_symop_operation_xyz
x,y,z
-x,-y,1/2+z
x,-y,-z
-x,y,1/2-z
-x,-y,-z
x,y,1/2-z
-x,y,z
x,-y,1/2+z
1/2+x,1/2+y,z
1/2-x,1/2-y,1/2+z
1/2+x,1/2-y,-z
1/2-x,1/2+y,1/2-z
1/2-x,1/2-y,-z
1/2+x,1/2+y,1/2-z
1/2-x,1/2+y,z
1/2+x,1/2-y,1/2+z
loop_
_atom_site_type_symbol
_atom_site_label
_atom_site_fract_x
_atom_site_fract_y
_atom_site_fract_z
Si Si1 0.693694 0.376861 0.664894
Si Si2 0.500000 0.054699 0.750000
Si Si3 0.205335 0.694320 0.929606
Si Si4 0.890219 0.488893 0.607488
Si Si5 0.111761 0.109042 0.834449
O O1 0.709004 0.350760 0.750000
O O2 0.647384 0.280569 0.619400
O O3 0.799869 0.408355 0.625560
O O4 0.626685 0.482527 0.661753
O O5 0.413387 0.044554 0.685656
O O6 0.144030 0.586326 0.943243
O O7 0.300357 0.659279 0.880865
O O8 0.250000 0.750000 0.000000
O O9 0.000000 0.441779 0.587178
O O10 0.121067 0.139810 0.750000
O O11 0.000000 0.139025 0.860013
#
# Coordination Sequence:
#
# PCOD9471334 Si02
#       5
#    16   4  16  16  16
#     4  10  19  35  60  81 102 140 188 232 275 324
#     4   8  16  36  60  82 106 132 186 242 288 296
#     4  11  24  36  53  84 119 152 181 216 274 340
#     4   9  19  36  58  81 110 136 183 236 279 314
#     4   9  20  39  58  81 109 141 185 239 278 316
#
# _framework density 22.143408000000001
#
# number of rings (size 3 to 8) (size 9 to 14) (size 15 to 20)
#    0.706    1.647    1.176    0.706    3.294    6.588 
#    0.000    2.353    0.000    0.000    0.000    0.000 
#    0.000    0.000    0.000    0.000    0.000    0.000 
#
# Total GULP energy -189297.973168 kJ/mol
# GULP energy per Si atom -5567.587446 kJ/mol
# Density = 2.209301 g / cm^3
# Si number density = 22.143408 Si / 1000 Ang^3
#
#
#
# Elastic Constant Matrix: (Units=GPa)
#
#
# Indices 1 2 3 4 5 6 
#
# 1 64.4891 -20.2451 -6.4906 0.0000 0.0000 0.0000
# 2 -20.2451 65.4714 27.1348 0.0000 0.0000 0.0000
# 3 -6.4906 27.1348 62.9160 0.0000 0.0000 0.0000
# 4 0.0000 0.0000 0.0000 36.1473 0.0000 0.0000
# 5 0.0000 0.0000 0.0000 0.0000 29.5102 0.0000
# 6 0.0000 0.0000 0.0000 0.0000 0.0000 -4.3906
#
#
#
# Elastic Compliance Matrix: (Units=1/GPa)
#
#
# Indices 1 2 3 4 5 6 
#
# 1 0.017194 0.005579 -0.000632 0.000000 0.000000 0.000000
# 2 0.005579 0.020408 -0.008226 0.000000 0.000000 0.000000
# 3 -0.000632 -0.008226 0.019377 0.000000 0.000000 0.000000
# 4 0.000000 0.000000 0.000000 0.027665 0.000000 0.000000
# 5 0.000000 0.000000 0.000000 0.000000 0.033887 0.000000
# 6 0.000000 0.000000 0.000000 0.000000 0.000000 -0.227758
#
#
# Mechanical properties :
#
#
# Convention : Reuss Voigt Hill
#
# Bulk Modulus (GPa) = 19.83339 21.51941 20.67640
# Shear Modulus (GPa) = -58.23386 25.08520 -16.57433
#
# Velocity S-wave (km/s) = -5.13377 3.36944 -2.73884
# Velocity P-wave (km/s) = 5.11513 4.98766 0.80243
#
# Compressibility (1/GPa) = 0.05042003
#
# Stress axis : x y z
#
# Youngs Moduli (GPa) = 58.15903 48.99946 51.60790
#
# Poissons Ratio (x) = -0.27336 0.03263
# Poissons Ratio (y) = -0.32446 0.42454
# Poissons Ratio (z) = 0.03677 0.40309
#
# Static dielectric constant tensor:
#      x y z
#    x 1.803000 0.000000 0.000000 
#    y 0.000000 1.840810 0.000000 
#    z 0.000000 0.000000 1.800190 
# 
# From -- ./inp_files/53830.got.cif
#   From: 2010.05.17/outbox.cif.g08.bks.cpg/sg63_27_cif.got.tgz:53830.got - 2010.06.03 15:47:04.
