data_PCOD9471645
_publ_section_title
;
Structure prediction by ZEFSAII (Michael W. Deem and Ramdas Pophale) SiO2 
 PCOD9471645
Probable space group: C M C M
;
_chemical_formula_sum "Si O2"
_cell_formula_units_Z 96
_cell_length_a 7.405957
_cell_length_b 19.942758
_cell_length_c 30.588485
_cell_angle_alpha 90.000000
_cell_angle_beta 90.000000
_cell_angle_gamma 90.000000
_cell_volume 4517.772661
_symmetry_space_group_name_H-M "C M C M"
_symmetry_group_IT_number 63
_symmetry_cell_setting 'orthorhombic'
loop_
_space_group_symop_operation_xyz
x,y,z
-x,-y,1/2+z
x,-y,-z
-x,y,1/2-z
-x,-y,-z
x,y,1/2-z
-x,y,z
x,-y,1/2+z
1/2+x,1/2+y,z
1/2-x,1/2-y,1/2+z
1/2+x,1/2-y,-z
1/2-x,1/2+y,1/2-z
1/2-x,1/2-y,-z
1/2+x,1/2+y,1/2-z
1/2-x,1/2+y,z
1/2+x,1/2-y,1/2+z
loop_
_atom_site_type_symbol
_atom_site_label
_atom_site_fract_x
_atom_site_fract_y
_atom_site_fract_z
Si Si1 0.281803 0.588291 0.199836
Si Si2 0.209499 0.682313 0.380064
Si Si3 0.209224 0.830367 0.130094
Si Si4 0.779686 0.576017 0.449919
Si Si5 0.279832 0.436936 0.300356
Si Si6 0.781911 0.424621 0.449536
O O1 0.226102 0.600841 0.250000
O O2 0.500000 0.589212 0.199033
O O3 0.216839 0.642603 0.165459
O O4 0.223018 0.512649 0.187581
O O5 0.289849 0.756378 0.375059
O O6 0.286763 0.632636 0.416871
O O7 0.000000 0.692023 0.392741
O O8 0.215666 0.870261 0.084648
O O9 0.000000 0.820404 0.142996
O O10 0.286988 0.880230 0.166718
O O11 0.723280 0.500367 0.437542
O O12 0.727389 0.588036 0.500275
O O13 0.000000 0.575381 0.448797
O O14 0.228630 0.424636 0.250000
O O15 0.500000 0.437583 0.301763
O O16 0.000000 0.423456 0.448396
#
# Coordination Sequence:
#
# PCOD9471645 Si02
#       6
#    16  16  16  16  16  16
#     4   9  18  33  52  71  91 119 157 197 231 269
#     4  10  20  32  47  70 100 128 154 191 237 283
#     4  10  20  31  46  72 101 124 151 192 238 283
#     4   8  16  32  51  70  92 123 164 202 235 277
#     4   8  15  30  50  68  89 121 156 187 226 278
#     4   9  17  32  53  69  88 126 167 198 234 281
#
# _framework density 21.249410000000001
#
# number of rings (size 3 to 8) (size 9 to 14) (size 15 to 20)
#    0.000    3.000    0.000    3.000    0.000    2.333 
#    0.000    4.167    0.000    1.500    0.000    0.000 
#    0.000    0.000    0.000    0.000    0.000    0.000 
#
# Total GULP energy -267955.779006 kJ/mol
# GULP energy per Si atom -5582.412063 kJ/mol
# Density = 2.120104 g / cm^3
# Si number density = 21.249410 Si / 1000 Ang^3
#
#
#
# Elastic Constant Matrix: (Units=GPa)
#
#
# Indices 1 2 3 4 5 6 
#
# 1 67.4838 -1.4832 -10.3520 0.0000 0.0000 0.0000
# 2 -1.4832 209.0707 115.4301 0.0000 0.0000 0.0000
# 3 -10.3520 115.4301 105.2797 0.0000 0.0000 0.0000
# 4 0.0000 0.0000 0.0000 -20.3721 0.0000 0.0000
# 5 0.0000 0.0000 0.0000 0.0000 15.3528 0.0000
# 6 0.0000 0.0000 0.0000 0.0000 0.0000 -359.6327
#
#
#
# Elastic Compliance Matrix: (Units=1/GPa)
#
#
# Indices 1 2 3 4 5 6 
#
# 1 0.015317 -0.001832 0.003514 0.000000 0.000000 0.000000
# 2 -0.001832 0.012339 -0.013708 0.000000 0.000000 0.000000
# 3 0.003514 -0.013708 0.024874 0.000000 0.000000 0.000000
# 4 0.000000 0.000000 0.000000 -0.049087 0.000000 0.000000
# 5 0.000000 0.000000 0.000000 0.000000 0.065135 0.000000
# 6 0.000000 0.000000 0.000000 0.000000 0.000000 -0.002781
#
#
# Mechanical properties :
#
#
# Convention : Reuss Voigt Hill
#
# Bulk Modulus (GPa) = 35.11398 65.44710 50.28054
# Shear Modulus (GPa) = 50.33168 -54.38110 -2.02471
#
# Velocity S-wave (km/s) = 4.87212 -5.06432 -0.97719
# Velocity P-wave (km/s) = 6.94339 1.82487 4.73711
#
# Compressibility (1/GPa) = 0.02847868
#
# Stress axis : x y z
#
# Youngs Moduli (GPa) = 65.28600 81.04679 40.20264
#
# Poissons Ratio (x) = 0.14845 -0.14129
# Poissons Ratio (y) = 0.11958 0.55111
# Poissons Ratio (z) = -0.22944 1.11101
#
# Static dielectric constant tensor:
#      x y z
#    x 1.808900 0.000000 0.000000 
#    y 0.000000 1.752300 0.000000 
#    z 0.000000 0.000000 1.727770 
# 
# From -- ./inp_files/61680.got.cif
#   From: 2010.05.17/outbox.cif.g08.bks.cpg/sg63_31_cif.got.tgz:61680.got - 2010.06.03 15:47:04.
