data_PCOD9471203
_publ_section_title
;
Structure prediction by ZEFSAII (Michael W. Deem and Ramdas Pophale) SiO2 
 PCOD9471203
Probable space group: C M C M
;
_chemical_formula_sum "Si O2"
_cell_formula_units_Z 80
_cell_length_a 16.888393
_cell_length_b 7.504432
_cell_length_c 24.611523
_cell_angle_alpha 90.000000
_cell_angle_beta 90.000000
_cell_angle_gamma 90.000000
_cell_volume 3119.210202
_symmetry_space_group_name_H-M "C M C M"
_symmetry_group_IT_number 63
_symmetry_cell_setting 'orthorhombic'
loop_
_space_group_symop_operation_xyz
x,y,z
-x,-y,1/2+z
x,-y,-z
-x,y,1/2-z
-x,-y,-z
x,y,1/2-z
-x,y,z
x,-y,1/2+z
1/2+x,1/2+y,z
1/2-x,1/2-y,1/2+z
1/2+x,1/2-y,-z
1/2-x,1/2+y,1/2-z
1/2-x,1/2-y,-z
1/2+x,1/2+y,1/2-z
1/2-x,1/2+y,z
1/2+x,1/2-y,1/2+z
loop_
_atom_site_type_symbol
_atom_site_label
_atom_site_fract_x
_atom_site_fract_y
_atom_site_fract_z
Si Si1 0.089955 0.586825 0.339122
Si Si2 0.134777 0.121144 0.453541
Si Si3 0.715137 0.624468 0.808716
Si Si4 0.697820 0.961147 0.078500
Si Si5 0.585770 0.334536 0.831453
O O1 0.153427 0.711635 0.310002
O O2 0.127310 0.584961 0.399865
O O3 0.000000 0.653308 0.336455
O O4 0.087097 0.378708 0.321475
O O5 0.221785 0.040876 0.442765
O O6 0.089278 0.131911 0.396614
O O7 0.097834 0.000000 0.500000
O O8 0.158202 0.325455 0.463570
O O9 0.756227 0.625114 0.750000
O O10 0.768032 0.626678 0.863824
O O11 0.659692 0.448498 0.810784
O O12 0.500000 0.399147 0.811728
#
# Coordination Sequence:
#
# PCOD9471203 Si02
#       5
#    16  16  16  16  16
#     4  10  21  40  62  84 120 163 199 243 302 357
#     4  10  19  34  61  86 113 158 201 248 303 361
#     4  11  23  39  62  87 119 163 206 248 303 365
#     4  10  20  39  56  88 122 150 202 257 297 355
#     4   9  21  39  59  88 126 157 197 256 302 356
#
# _framework density 25.647518000000002
#
# number of rings (size 3 to 8) (size 9 to 14) (size 15 to 20)
#    0.000    2.000    2.000    1.200    0.000    3.600 
#    0.000    2.000    0.000    0.600    0.000    0.000 
#    0.000    0.000    0.000    0.000    0.000    0.000 
#
# Total GULP energy -223437.442582 kJ/mol
# GULP energy per Si atom -5585.936065 kJ/mol
# Density = 2.558914 g / cm^3
# Si number density = 25.647518 Si / 1000 Ang^3
#
#
#
# Elastic Constant Matrix: (Units=GPa)
#
#
# Indices 1 2 3 4 5 6 
#
# 1 113.4061 -2.5664 4.0053 0.0000 0.0000 0.0000
# 2 -2.5664 67.4324 16.9390 0.0000 0.0000 0.0000
# 3 4.0053 16.9390 88.5213 0.0000 0.0000 0.0000
# 4 0.0000 0.0000 0.0000 24.0525 0.0000 0.0000
# 5 0.0000 0.0000 0.0000 0.0000 0.1467 0.0000
# 6 0.0000 0.0000 0.0000 0.0000 0.0000 20.5642
#
#
#
# Elastic Compliance Matrix: (Units=1/GPa)
#
#
# Indices 1 2 3 4 5 6 
#
# 1 0.008845 0.000459 -0.000488 0.000000 0.000000 0.000000
# 2 0.000459 0.015602 -0.003006 0.000000 0.000000 0.000000
# 3 -0.000488 -0.003006 0.011894 0.000000 0.000000 0.000000
# 4 0.000000 0.000000 0.000000 0.041576 0.000000 0.000000
# 5 0.000000 0.000000 0.000000 0.000000 6.817097 0.000000
# 6 0.000000 0.000000 0.000000 0.000000 0.000000 0.048628
#
#
# Mechanical properties :
#
#
# Convention : Reuss Voigt Hill
#
# Bulk Modulus (GPa) = 33.03438 34.01285 33.52362
# Shear Modulus (GPa) = 0.71841 25.68481 13.20161
#
# Velocity S-wave (km/s) = 0.52983 3.16801 2.27123
# Velocity P-wave (km/s) = 3.64450 5.16451 4.46959
#
# Compressibility (1/GPa) = 0.03027149
#
# Stress axis : x y z
#
# Youngs Moduli (GPa) = 113.05187 64.09295 84.07536
#
# Poissons Ratio (x) = -0.02944 0.04104
# Poissons Ratio (y) = -0.05192 0.25276
# Poissons Ratio (z) = 0.05518 0.19269
#
# Static dielectric constant tensor:
#      x y z
#    x 1.980310 0.000000 0.000000 
#    y 0.000000 2.135090 0.000000 
#    z 0.000000 0.000000 2.047610 
# 
# From -- ./inp_files/69758.got.cif
#   From: 2010.05.17/outbox.cif.g08.bks.cpg/sg63_35_cif.got.tgz:69758.got - 2010.06.03 15:47:04.
