data_PCOD9471369
_publ_section_title
;
Structure prediction by ZEFSAII (Michael W. Deem and Ramdas Pophale) SiO2 
 PCOD9471369
Probable space group: C M C M
;
_chemical_formula_sum "Si O2"
_cell_formula_units_Z 96
_cell_length_a 16.817463
_cell_length_b 18.791123
_cell_length_c 14.378305
_cell_angle_alpha 90.000000
_cell_angle_beta 90.000000
_cell_angle_gamma 90.000000
_cell_volume 4543.817795
_symmetry_space_group_name_H-M "C M C M"
_symmetry_group_IT_number 63
_symmetry_cell_setting 'orthorhombic'
loop_
_space_group_symop_operation_xyz
x,y,z
-x,-y,1/2+z
x,-y,-z
-x,y,1/2-z
-x,-y,-z
x,y,1/2-z
-x,y,z
x,-y,1/2+z
1/2+x,1/2+y,z
1/2-x,1/2-y,1/2+z
1/2+x,1/2-y,-z
1/2-x,1/2+y,1/2-z
1/2-x,1/2-y,-z
1/2+x,1/2+y,1/2-z
1/2-x,1/2+y,z
1/2+x,1/2-y,1/2+z
loop_
_atom_site_type_symbol
_atom_site_label
_atom_site_fract_x
_atom_site_fract_y
_atom_site_fract_z
Si Si1 0.594660 0.138201 0.348875
Si Si2 0.864613 0.116679 0.536182
Si Si3 0.204506 0.659839 0.856630
Si Si4 0.144397 0.020441 0.145602
Si Si5 0.328219 0.007063 0.610811
Si Si6 0.409704 0.767753 0.019029
O O1 0.626767 0.165663 0.250000
O O2 0.500000 0.147897 0.349044
O O3 0.614962 0.055292 0.355625
O O4 0.623780 0.179763 0.438982
O O5 0.778677 0.142037 0.575862
O O6 0.865399 0.079054 0.434956
O O7 0.911264 0.189481 0.524455
O O8 0.891015 0.054194 0.606959
O O9 0.230161 0.670313 0.750000
O O10 0.151732 0.587471 0.861816
O O11 0.151372 0.723637 0.896278
O O12 0.116921 0.037674 0.250000
O O13 0.239563 0.007673 0.147956
O O14 0.324336 0.000000 0.500000
O O15 0.500000 0.788244 0.044489
#
# Coordination Sequence:
#
# PCOD9471369 Si02
#       6
#    16  16  16  16  16  16
#     4  10  21  35  52  77 110 153 199 234 276 339
#     4  10  20  39  60  86 118 148 193 245 300 357
#     4  11  22  37  59  88 119 156 199 242 293 350
#     4  10  19  35  62  89 110 140 187 246 302 357
#     4  11  17  33  57  81 112 144 183 236 286 335
#     4  11  24  40  58  82 120 162 198 242 292 350
#
# _framework density 21.127607000000001
#
# number of rings (size 3 to 8) (size 9 to 14) (size 15 to 20)
#    0.000    1.500    5.000    3.500    0.000    3.333 
#    0.000    1.667    0.000    1.000    0.000    0.000 
#    0.000    0.000    0.000    0.000    0.000    0.000 
#
# Total GULP energy -267797.164458 kJ/mol
# GULP energy per Si atom -5579.107593 kJ/mol
# Density = 2.107952 g / cm^3
# Si number density = 21.127607 Si / 1000 Ang^3
#
#
#
# Elastic Constant Matrix: (Units=GPa)
#
#
# Indices 1 2 3 4 5 6 
#
# 1 24.4788 18.6174 16.7303 0.0000 0.0000 0.0000
# 2 18.6174 60.8808 22.5271 0.0000 0.0000 0.0000
# 3 16.7303 22.5271 140.9138 0.0000 0.0000 0.0000
# 4 0.0000 0.0000 0.0000 -0.3956 0.0000 0.0000
# 5 0.0000 0.0000 0.0000 0.0000 3.4809 0.0000
# 6 0.0000 0.0000 0.0000 0.0000 0.0000 22.2051
#
#
#
# Elastic Compliance Matrix: (Units=1/GPa)
#
#
# Indices 1 2 3 4 5 6 
#
# 1 0.055386 -0.015416 -0.004111 0.000000 0.000000 0.000000
# 2 -0.015416 0.021749 -0.001647 0.000000 0.000000 0.000000
# 3 -0.004111 -0.001647 0.007848 0.000000 0.000000 0.000000
# 4 0.000000 0.000000 0.000000 -2.528073 0.000000 0.000000
# 5 0.000000 0.000000 0.000000 0.000000 0.287278 0.000000
# 6 0.000000 0.000000 0.000000 0.000000 0.000000 0.045035
#
#
# Mechanical properties :
#
#
# Convention : Reuss Voigt Hill
#
# Bulk Modulus (GPa) = 23.45472 38.00257 30.72865
# Shear Modulus (GPa) = -2.43402 16.28467 6.92533
#
# Velocity S-wave (km/s) = -1.07450 2.77930 1.81245
# Velocity P-wave (km/s) = 3.09615 5.32218 4.35383
#
# Compressibility (1/GPa) = 0.04263534
#
# Stress axis : x y z
#
# Youngs Moduli (GPa) = 18.05510 45.97922 127.42252
#
# Poissons Ratio (x) = 0.70880 0.52388
# Poissons Ratio (y) = 0.27833 0.20982
# Poissons Ratio (z) = 0.07423 0.07571
#
# Static dielectric constant tensor:
#      x y z
#    x 1.752020 0.000000 0.000000 
#    y 0.000000 1.764440 0.000000 
#    z 0.000000 0.000000 1.803310 
# 
# From -- ./inp_files/31927.got.cif
#   From: 2010.05.17/outbox.cif.g08.bks.cpg/sg63_16_cif.got.tgz:31927.got - 2010.06.03 15:47:04.
