data_PCOD9471413
_publ_section_title
;
Structure prediction by ZEFSAII (Michael W. Deem and Ramdas Pophale) SiO2 
 PCOD9471413
Probable space group: C M C M
;
_chemical_formula_sum "Si O2"
_cell_formula_units_Z 96
_cell_length_a 15.009084
_cell_length_b 18.473174
_cell_length_c 15.347103
_cell_angle_alpha 90.000000
_cell_angle_beta 90.000000
_cell_angle_gamma 90.000000
_cell_volume 4255.220964
_symmetry_space_group_name_H-M "C M C M"
_symmetry_group_IT_number 63
_symmetry_cell_setting 'orthorhombic'
loop_
_space_group_symop_operation_xyz
x,y,z
-x,-y,1/2+z
x,-y,-z
-x,y,1/2-z
-x,-y,-z
x,y,1/2-z
-x,y,z
x,-y,1/2+z
1/2+x,1/2+y,z
1/2-x,1/2-y,1/2+z
1/2+x,1/2-y,-z
1/2-x,1/2+y,1/2-z
1/2-x,1/2-y,-z
1/2+x,1/2+y,1/2-z
1/2-x,1/2+y,z
1/2+x,1/2-y,1/2+z
loop_
_atom_site_type_symbol
_atom_site_label
_atom_site_fract_x
_atom_site_fract_y
_atom_site_fract_z
Si Si1 0.602941 0.023332 0.099852
Si Si2 0.603853 0.419018 0.250000
Si Si3 0.357704 0.288050 0.560990
Si Si4 0.392626 0.431543 0.054962
Si Si5 0.348962 0.255096 0.750000
Si Si6 0.151190 0.317241 0.578376
Si Si7 0.634878 0.750321 0.750000
Si Si8 0.392616 0.086072 0.750000
O O1 0.500000 0.039606 0.124905
O O2 0.654936 0.098303 0.097992
O O3 0.634464 0.960968 0.165340
O O4 0.602916 0.000000 0.000000
O O5 0.500000 0.442268 0.250000
O O6 0.642214 0.438329 0.345487
O O7 0.611185 0.332866 0.250000
O O8 0.375407 0.356699 0.497631
O O9 0.390004 0.287838 0.661022
O O10 0.251468 0.288028 0.573986
O O11 0.388245 0.214795 0.511293
O O12 0.500000 0.436165 0.060749
O O13 0.358852 0.500000 0.000000
O O14 0.241609 0.265506 0.750000
O O15 0.358829 0.167926 0.750000
O O16 0.101694 0.283372 0.660426
O O17 0.500000 0.091068 0.750000
#
# Coordination Sequence:
#
# PCOD9471413 Si02
#       8
#    16   8  16  16   8  16   8   8
#     4  10  21  36  55  81 113 147 189 238 286 339
#     4  10  20  38  61  86 114 146 186 238 292 342
#     4  10  21  37  56  83 116 154 195 237 288 349
#     4  10  22  40  61  87 119 150 190 243 293 348
#     4  10  22  37  57  83 121 157 194 239 286 344
#     4  10  20  35  57  82 116 150 189 244 289 341
#     4  10  19  36  57  84 116 143 190 242 286 336
#     4  10  21  39  57  81 115 150 190 235 286 344
#
# _framework density 22.56052
#
# number of rings (size 3 to 8) (size 9 to 14) (size 15 to 20)
#    0.000    2.000    1.667    1.500    0.000    3.333 
#    3.000    0.833    0.000    0.000    0.000    0.000 
#    0.000    0.000    0.000    0.000    0.000    0.000 
#
# Total GULP energy -267717.752494 kJ/mol
# GULP energy per Si atom -5577.453177 kJ/mol
# Density = 2.250917 g / cm^3
# Si number density = 22.560520 Si / 1000 Ang^3
#
#
#
# Elastic Constant Matrix: (Units=GPa)
#
#
# Indices 1 2 3 4 5 6 
#
# 1 47.7936 -19.6276 11.8522 0.0000 0.0000 0.0000
# 2 -19.6276 61.7507 52.3030 0.0000 0.0000 0.0000
# 3 11.8522 52.3030 211.0338 0.0000 0.0000 0.0000
# 4 0.0000 0.0000 0.0000 32.4014 0.0000 0.0000
# 5 0.0000 0.0000 0.0000 0.0000********** 0.0000
# 6 0.0000 0.0000 0.0000 0.0000 0.0000 25.5908
#
#
#
# Elastic Compliance Matrix: (Units=1/GPa)
#
#
# Indices 1 2 3 4 5 6 
#
# 1 0.027254 0.012606 -0.004655 0.000000 0.000000 0.000000
# 2 0.012606 0.026327 -0.007233 0.000000 0.000000 0.000000
# 3 -0.004655 -0.007233 0.006793 0.000000 0.000000 0.000000
# 4 0.000000 0.000000 0.000000 0.030863 0.000000 0.000000
# 5 0.000000 0.000000 0.000000 0.000000 -0.000029 0.000000
# 6 0.000000 0.000000 0.000000 0.000000 0.000000 0.039077
#
#
# Mechanical properties :
#
#
# Convention : Reuss Voigt Hill
#
# Bulk Modulus (GPa) = 16.17868 45.51483 30.84676
# Shear Modulus (GPa) = 33.45542 -6924.61256 -3445.57857
#
# Velocity S-wave (km/s) = 3.85505 -55.46182 -39.12257
# Velocity P-wave (km/s) = 5.19634 63.88374 45.02294
#
# Compressibility (1/GPa) = 0.06180974
#
# Stress axis : x y z
#
# Youngs Moduli (GPa) = 36.69125 37.98359 147.21827
#
# Poissons Ratio (x) = -0.47880 0.68528
# Poissons Ratio (y) = -0.46251 1.06482
# Poissons Ratio (z) = 0.17079 0.27473
#
# Static dielectric constant tensor:
#      x y z
#    x 1.848710 0.000000 0.000000 
#    y 0.000000 1.826220 0.000000 
#    z 0.000000 0.000000 1.894820 
# 
# From -- ./inp_files/35455.got.cif
#   From: 2010.05.17/outbox.cif.g08.bks.cpg/sg63_18_cif.got.tgz:35455.got - 2010.06.03 15:47:04.
