data_PCOD9471583
_publ_section_title
;
Structure prediction by ZEFSAII (Michael W. Deem and Ramdas Pophale) SiO2 
 PCOD9471583
Probable space group: C M C M
;
_chemical_formula_sum "Si O2"
_cell_formula_units_Z 104
_cell_length_a 14.870519
_cell_length_b 11.260729
_cell_length_c 27.596023
_cell_angle_alpha 90.000000
_cell_angle_beta 90.000000
_cell_angle_gamma 90.000000
_cell_volume 4621.033653
_symmetry_space_group_name_H-M "C M C M"
_symmetry_group_IT_number 63
_symmetry_cell_setting 'orthorhombic'
loop_
_space_group_symop_operation_xyz
x,y,z
-x,-y,1/2+z
x,-y,-z
-x,y,1/2-z
-x,-y,-z
x,y,1/2-z
-x,y,z
x,-y,1/2+z
1/2+x,1/2+y,z
1/2-x,1/2-y,1/2+z
1/2+x,1/2-y,-z
1/2-x,1/2+y,1/2-z
1/2-x,1/2-y,-z
1/2+x,1/2+y,1/2-z
1/2-x,1/2+y,z
1/2+x,1/2-y,1/2+z
loop_
_atom_site_type_symbol
_atom_site_label
_atom_site_fract_x
_atom_site_fract_y
_atom_site_fract_z
Si Si1 0.853460 0.251987 0.877743
Si Si2 0.500000 0.781559 0.061704
Si Si3 0.329251 0.125308 0.617184
Si Si4 0.212409 0.553700 0.307288
Si Si5 0.861118 0.888782 0.532184
Si Si6 0.399733 0.517672 0.359328
Si Si7 0.659322 0.081612 0.041322
O O1 0.750067 0.218535 0.889536
O O2 0.845521 0.342294 0.832853
O O3 0.896097 0.125588 0.865164
O O4 0.888985 0.321256 0.925079
O O5 0.577387 0.826354 0.099600
O O6 0.579929 0.728446 0.025760
O O7 0.324124 0.070423 0.670720
O O8 0.309870 0.014489 0.581882
O O9 0.208251 0.560121 0.250000
O O10 0.316468 0.557252 0.325853
O O11 0.755393 0.873496 0.521747
O O12 0.890842 0.000000 0.500000
O O13 0.884954 0.927634 0.587264
O O14 0.500000 0.552610 0.342916
O O15 0.611862 0.000000 0.000000
#
# Coordination Sequence:
#
# PCOD9471583 Si02
#       7
#    16   8  16  16  16  16  16
#     4  10  19  39  58  88 116 163 196 236 308 353
#     4  12  21  36  60  86 126 156 200 246 298 344
#     4  10  21  38  60  89 115 161 200 248 299 353
#     4  10  22  43  65  84 115 154 202 250 310 374
#     4  11  21  35  60  91 126 162 200 244 294 355
#     4  11  22  39  64  92 123 153 198 255 299 357
#     4  10  20  37  57  84 122 164 213 240 280 357
#
# _framework density 22.505787999999999
#
# number of rings (size 3 to 8) (size 9 to 14) (size 15 to 20)
#    0.000    1.538    6.923    0.231    0.000    4.615 
#    5.538    0.769    0.000    0.000    0.000    0.000 
#    0.000    0.000    0.000    0.000    0.000    0.000 
#
# Total GULP energy -289495.364191 kJ/mol
# GULP energy per Si atom -5567.218542 kJ/mol
# Density = 2.245456 g / cm^3
# Si number density = 22.505788 Si / 1000 Ang^3
#
#
#
# Elastic Constant Matrix: (Units=GPa)
#
#
# Indices 1 2 3 4 5 6 
#
# 1 105.1463 -3.9839 -3.6583 0.0000 0.0000 0.0000
# 2 -3.9839 78.1477 31.2280 0.0000 0.0000 0.0000
# 3 -3.6583 31.2280 144.5558 0.0000 0.0000 0.0000
# 4 0.0000 0.0000 0.0000 25.9893 0.0000 0.0000
# 5 0.0000 0.0000 0.0000 0.0000 5.2200 0.0000
# 6 0.0000 0.0000 0.0000 0.0000 0.0000 33.6705
#
#
#
# Elastic Compliance Matrix: (Units=1/GPa)
#
#
# Indices 1 2 3 4 5 6 
#
# 1 0.009532 0.000426 0.000149 0.000000 0.000000 0.000000
# 2 0.000426 0.014024 -0.003019 0.000000 0.000000 0.000000
# 3 0.000149 -0.003019 0.007574 0.000000 0.000000 0.000000
# 4 0.000000 0.000000 0.000000 0.038477 0.000000 0.000000
# 5 0.000000 0.000000 0.000000 0.000000 0.191570 0.000000
# 6 0.000000 0.000000 0.000000 0.000000 0.000000 0.029700
#
#
# Mechanical properties :
#
#
# Convention : Reuss Voigt Hill
#
# Bulk Modulus (GPa) = 38.10519 41.66904 39.88711
# Shear Modulus (GPa) = 16.41976 33.26023 24.83999
#
# Velocity S-wave (km/s) = 2.70400 3.84846 3.32583
# Velocity P-wave (km/s) = 5.16884 6.18890 5.70173
#
# Compressibility (1/GPa) = 0.02624315
#
# Stress axis : x y z
#
# Youngs Moduli (GPa) = 104.91091 71.30456 132.03633
#
# Poissons Ratio (x) = -0.03040 -0.01969
# Poissons Ratio (y) = -0.04473 0.39860
# Poissons Ratio (z) = -0.01564 0.21526
#
# Static dielectric constant tensor:
#      x y z
#    x 1.856270 0.000000 0.000000 
#    y 0.000000 1.971600 0.000000 
#    z 0.000000 0.000000 1.812780 
# 
# From -- ./inp_files/69954.got.cif
#   From: 2010.05.17/outbox.cif.g08.bks.cpg/sg63_35_cif.got.tgz:69954.got - 2010.06.03 15:47:04.
