data_PCOD9471930
_publ_section_title
;
Structure prediction by ZEFSAII (Michael W. Deem and Ramdas Pophale) SiO2 
 PCOD9471930
Probable space group: C M C M
;
_chemical_formula_sum "Si O2"
_cell_formula_units_Z 80
_cell_length_a 7.485587
_cell_length_b 26.502191
_cell_length_c 18.890898
_cell_angle_alpha 90.000000
_cell_angle_beta 90.000000
_cell_angle_gamma 90.000000
_cell_volume 3747.660531
_symmetry_space_group_name_H-M "C M C M"
_symmetry_group_IT_number 63
_symmetry_cell_setting 'orthorhombic'
loop_
_space_group_symop_operation_xyz
x,y,z
-x,-y,1/2+z
x,-y,-z
-x,y,1/2-z
-x,-y,-z
x,y,1/2-z
-x,y,z
x,-y,1/2+z
1/2+x,1/2+y,z
1/2-x,1/2-y,1/2+z
1/2+x,1/2-y,-z
1/2-x,1/2+y,1/2-z
1/2-x,1/2-y,-z
1/2+x,1/2+y,1/2-z
1/2-x,1/2+y,z
1/2+x,1/2-y,1/2+z
loop_
_atom_site_type_symbol
_atom_site_label
_atom_site_fract_x
_atom_site_fract_y
_atom_site_fract_z
Si Si1 0.781249 0.596947 0.331397
Si Si2 0.285251 0.901179 0.330740
Si Si3 0.206099 0.305280 0.911105
Si Si4 0.718421 0.998707 0.081464
Si Si5 0.211995 0.806582 0.071130
O O1 0.728194 0.591925 0.250000
O O2 0.716417 0.649325 0.365390
O O3 0.725166 0.548948 0.377370
O O4 0.000000 0.597329 0.333438
O O5 0.218536 0.901690 0.250000
O O6 0.500000 0.905302 0.327505
O O7 0.221576 0.948846 0.376702
O O8 0.244102 0.849540 0.371568
O O9 0.283236 0.248748 0.906803
O O10 0.000000 0.300708 0.888395
O O11 0.211123 0.319932 0.994063
O O12 0.500000 0.998015 0.081218
O O13 0.776007 0.000000 0.000000
O O14 0.000000 0.801463 0.060126
#
# Coordination Sequence:
#
# PCOD9471930 Si02
#       5
#    16  16  16  16  16
#     4   9  16  27  47  75 101 123 155 204 254 293
#     4  10  20  33  50  74 104 135 166 202 247 300
#     4   9  18  33  53  75  99 129 166 207 249 294
#     4   9  16  27  47  74 100 126 160 205 252 294
#     4  10  20  33  51  74 100 132 169 207 246 293
#
# _framework density 21.346648999999999
#
# number of rings (size 3 to 8) (size 9 to 14) (size 15 to 20)
#    0.000    2.600    0.000    2.400    0.000    7.600 
#    0.000    2.000    0.000    6.000    0.000    0.000 
#    0.000    0.000    0.000    0.000    0.000    0.000 
#
# Total GULP energy -223411.041393 kJ/mol
# GULP energy per Si atom -5585.276035 kJ/mol
# Density = 2.129806 g / cm^3
# Si number density = 21.346649 Si / 1000 Ang^3
#
#
#
# Elastic Constant Matrix: (Units=GPa)
#
#
# Indices 1 2 3 4 5 6 
#
# 1 60.8156 0.3047 -6.7767 0.0000 0.0000 0.0000
# 2 0.3047 169.4887 132.9018 0.0000 0.0000 0.0000
# 3 -6.7767 132.9018 182.2482 0.0000 0.0000 0.0000
# 4 0.0000 0.0000 0.0000 -13.7240 0.0000 0.0000
# 5 0.0000 0.0000 0.0000 0.0000 5.6531 0.0000
# 6 0.0000 0.0000 0.0000 0.0000 0.0000 6.9698
#
#
#
# Elastic Compliance Matrix: (Units=1/GPa)
#
#
# Indices 1 2 3 4 5 6 
#
# 1 0.016616 -0.001201 0.001494 0.000000 0.000000 0.000000
# 2 -0.001201 0.013866 -0.010156 0.000000 0.000000 0.000000
# 3 0.001494 -0.010156 0.012949 0.000000 0.000000 0.000000
# 4 0.000000 0.000000 0.000000 -0.072865 0.000000 0.000000
# 5 0.000000 0.000000 0.000000 0.000000 0.176893 0.000000
# 6 0.000000 0.000000 0.000000 0.000000 0.000000 0.143476
#
#
# Mechanical properties :
#
#
# Convention : Reuss Voigt Hill
#
# Bulk Modulus (GPa) = 42.18841 73.93466 58.06153
# Shear Modulus (GPa) = 15.69544 18.85464 17.27504
#
# Velocity S-wave (km/s) = 2.71452 2.97519 2.84784
# Velocity P-wave (km/s) = 5.44345 6.82003 6.17025
#
# Compressibility (1/GPa) = 0.02370319
#
# Stress axis : x y z
#
# Youngs Moduli (GPa) = 60.18435 72.11757 77.22613
#
# Poissons Ratio (x) = 0.08663 -0.11536
# Poissons Ratio (y) = 0.07229 0.78434
# Poissons Ratio (z) = -0.08990 0.73246
#
# Static dielectric constant tensor:
#      x y z
#    x 1.849430 0.000000 0.000000 
#    y 0.000000 1.751580 0.000000 
#    z 0.000000 0.000000 1.715720 
# 
# From -- ./inp_files/40514.got.cif
#   From: 2010.05.17/outbox.cif.g08.bks.cpg/sg63_21_cif.got.tgz:40514.got - 2010.06.03 15:47:04.
