data_PCOD9471206
_publ_section_title
;
Structure prediction by ZEFSAII (Michael W. Deem and Ramdas Pophale) SiO2 
 PCOD9471206
Probable space group: C M C M
;
_chemical_formula_sum "Si O2"
_cell_formula_units_Z 116
_cell_length_a 7.620696
_cell_length_b 29.189302
_cell_length_c 24.308026
_cell_angle_alpha 90.000000
_cell_angle_beta 90.000000
_cell_angle_gamma 90.000000
_cell_volume 5407.145293
_symmetry_space_group_name_H-M "C M C M"
_symmetry_group_IT_number 63
_symmetry_cell_setting 'orthorhombic'
loop_
_space_group_symop_operation_xyz
x,y,z
-x,-y,1/2+z
x,-y,-z
-x,y,1/2-z
-x,-y,-z
x,y,1/2-z
-x,y,z
x,-y,1/2+z
1/2+x,1/2+y,z
1/2-x,1/2-y,1/2+z
1/2+x,1/2-y,-z
1/2-x,1/2+y,1/2-z
1/2-x,1/2-y,-z
1/2+x,1/2+y,1/2-z
1/2-x,1/2+y,z
1/2+x,1/2-y,1/2+z
loop_
_atom_site_type_symbol
_atom_site_label
_atom_site_fract_x
_atom_site_fract_y
_atom_site_fract_z
Si Si1 0.797672 0.948458 0.021782
Si Si2 0.711301 0.626331 0.810030
Si Si3 0.500000 0.243528 0.750000
Si Si4 0.709947 0.722463 0.055398
Si Si5 0.294353 0.069392 0.312564
Si Si6 0.202062 0.777908 0.338965
Si Si7 0.290104 0.618616 0.073147
Si Si8 0.786346 0.967920 0.356576
O O1 0.720966 0.916501 0.973742
O O2 0.000000 0.932748 0.030583
O O3 0.720305 0.954460 0.082521
O O4 0.802767 0.000000 0.000000
O O5 0.772218 0.642205 0.750000
O O6 0.500000 0.622247 0.809889
O O7 0.753155 0.668543 0.849339
O O8 0.773943 0.575340 0.820916
O O9 0.655423 0.242271 0.797656
O O10 0.500000 0.721547 0.062320
O O11 0.791941 0.750175 0.105310
O O12 0.772469 0.669764 0.059524
O O13 0.750000 0.750000 0.000000
O O14 0.218956 0.075898 0.250000
O O15 0.500000 0.077144 0.307610
O O16 0.238617 0.101190 0.364199
O O17 0.266517 0.016933 0.332584
O O18 0.000000 0.777870 0.317772
O O19 0.500000 0.618276 0.067326
O O20 0.000000 0.969869 0.358568
#
# Coordination Sequence:
#
# PCOD9471206 Si02
#       8
#    16  16   4  16  16  16  16  16
#     4   9  16  31  59  92 119 149 197 257 308 362
#     4   9  18  33  56  89 124 166 212 260 321 389
#     4  12  22  44  72 102 136 176 234 286 352 438
#     4  11  25  45  69 100 135 176 227 283 352 424
#     4  11  24  41  57  85 128 171 212 264 326 388
#     4  11  23  43  68  99 139 179 227 290 348 411
#     4  10  22  42  67  92 123 164 214 268 320 392
#     4  10  19  34  61  90 122 163 214 256 310 387
#
# _framework density 21.453095999999999
#
# number of rings (size 3 to 8) (size 9 to 14) (size 15 to 20)
#    0.000    1.793    2.759    1.448    1.931    2.759 
#    2.483    1.379    0.000    0.000    0.000    0.000 
#    0.000    0.000    0.000    0.000    0.000    0.000 
#
# Total GULP energy -322927.922210 kJ/mol
# GULP energy per Si atom -5567.722797 kJ/mol
# Density = 2.140427 g / cm^3
# Si number density = 21.453096 Si / 1000 Ang^3
#
#
#
# Elastic Constant Matrix: (Units=GPa)
#
#
# Indices 1 2 3 4 5 6 
#
# 1 74.4594 4.6476 10.2842 0.0000 0.0000 0.0000
# 2 4.6476 135.9049 68.9899 0.0000 0.0000 0.0000
# 3 10.2842 68.9899 144.1856 0.0000 0.0000 0.0000
# 4 0.0000 0.0000 0.0000 28.2132 0.0000 0.0000
# 5 0.0000 0.0000 0.0000 0.0000 -2.0639 0.0000
# 6 0.0000 0.0000 0.0000 0.0000 0.0000 -71.3401
#
#
#
# Elastic Compliance Matrix: (Units=1/GPa)
#
#
# Indices 1 2 3 4 5 6 
#
# 1 0.013564 0.000036 -0.000985 0.000000 0.000000 0.000000
# 2 0.000036 0.009719 -0.004653 0.000000 0.000000 0.000000
# 3 -0.000985 -0.004653 0.009232 0.000000 0.000000 0.000000
# 4 0.000000 0.000000 0.000000 0.035444 0.000000 0.000000
# 5 0.000000 0.000000 0.000000 0.000000 -0.484521 0.000000
# 6 0.000000 0.000000 0.000000 0.000000 0.000000 -0.014017
#
#
# Mechanical properties :
#
#
# Convention : Reuss Voigt Hill
#
# Bulk Modulus (GPa) = 46.92254 58.04370 52.48312
# Shear Modulus (GPa) = -12.12789 9.00372 -1.56209
#
# Velocity S-wave (km/s) = -2.38023 2.05086 -0.85424
# Velocity P-wave (km/s) = 3.79021 5.72039 4.85224
#
# Compressibility (1/GPa) = 0.02131172
#
# Stress axis : x y z
#
# Youngs Moduli (GPa) = 73.72509 102.89355 108.31867
#
# Poissons Ratio (x) = -0.00371 0.10666
# Poissons Ratio (y) = -0.00266 0.50399
# Poissons Ratio (z) = 0.07260 0.47874
#
# Static dielectric constant tensor:
#      x y z
#    x 1.912440 0.000000 0.000000 
#    y 0.000000 1.780640 0.000000 
#    z 0.000000 0.000000 2.053780 
# 
# From -- ./inp_files/60617.got.cif
#   From: 2010.05.17/outbox.cif.g08.bks.cpg/sg63_31_cif.got.tgz:60617.got - 2010.06.03 15:47:04.
