data_PCOD9471007
_publ_section_title
;
Structure prediction by ZEFSAII (Michael W. Deem and Ramdas Pophale) SiO2 
 PCOD9471007
Probable space group: C M C M
;
_chemical_formula_sum "Si O2"
_cell_formula_units_Z 112
_cell_length_a 7.741367
_cell_length_b 21.109107
_cell_length_c 34.348658
_cell_angle_alpha 90.000000
_cell_angle_beta 90.000000
_cell_angle_gamma 90.000000
_cell_volume 5613.029077
_symmetry_space_group_name_H-M "C M C M"
_symmetry_group_IT_number 63
_symmetry_cell_setting 'orthorhombic'
loop_
_space_group_symop_operation_xyz
x,y,z
-x,-y,1/2+z
x,-y,-z
-x,y,1/2-z
-x,-y,-z
x,y,1/2-z
-x,y,z
x,-y,1/2+z
1/2+x,1/2+y,z
1/2-x,1/2-y,1/2+z
1/2+x,1/2-y,-z
1/2-x,1/2+y,1/2-z
1/2-x,1/2-y,-z
1/2+x,1/2+y,1/2-z
1/2-x,1/2+y,z
1/2+x,1/2-y,1/2+z
loop_
_atom_site_type_symbol
_atom_site_label
_atom_site_fract_x
_atom_site_fract_y
_atom_site_fract_z
Si Si1 0.201542 0.618239 0.917481
Si Si2 0.201813 0.239839 0.627586
Si Si3 0.208778 0.801081 0.705970
Si Si4 0.292600 0.992993 0.875961
Si Si5 0.211480 0.634956 0.082246
Si Si6 0.291916 0.175510 0.502151
Si Si7 0.707739 0.553619 0.293570
O O1 0.211248 0.676409 0.887521
O O2 0.276365 0.555187 0.897795
O O3 0.276506 0.643153 0.958436
O O4 0.000000 0.604518 0.925217
O O5 0.223573 0.255028 0.672892
O O6 0.269087 0.301912 0.604870
O O7 0.000000 0.233413 0.618220
O O8 0.260102 0.784510 0.750000
O O9 0.000000 0.800746 0.704294
O O10 0.267084 0.873813 0.698613
O O11 0.500000 0.992963 0.879733
O O12 0.256467 0.989400 0.829971
O O13 0.228183 0.928470 0.896303
O O14 0.000000 0.634696 0.083266
O O15 0.266342 0.641534 0.037468
O O16 0.500000 0.171687 0.502926
O O17 0.250000 0.250000 0.500000
O O18 0.768195 0.535470 0.250000
O O19 0.500000 0.555690 0.292160
#
# Coordination Sequence:
#
# PCOD9471007 Si02
#       7
#    16  16  16  16  16  16  16
#     4  10  22  36  54  78 108 146 182 220 268 323
#     4  11  20  33  55  81 108 139 177 223 267 314
#     4   9  18  33  54  81 111 139 173 220 269 320
#     4  10  20  36  54  79 111 141 179 221 267 321
#     4   9  18  32  53  79 105 135 174 221 265 307
#     4  10  19  34  54  78 106 139 180 223 268 317
#     4   9  18  33  54  80 108 139 175 216 264 317
#
# _framework density 19.953575000000001
#
# number of rings (size 3 to 8) (size 9 to 14) (size 15 to 20)
#    0.000    2.286    2.857    1.286    0.000    1.714 
#    0.000    5.714    0.000    0.857    0.000    3.000 
#    0.000    0.000    0.000    0.000    0.000    0.000 
#
# Total GULP energy -312538.056211 kJ/mol
# GULP energy per Si atom -5581.036718 kJ/mol
# Density = 1.990816 g / cm^3
# Si number density = 19.953575 Si / 1000 Ang^3
#
#
#
# Elastic Constant Matrix: (Units=GPa)
#
#
# Indices 1 2 3 4 5 6 
#
# 1 29.8485 -0.1830 -3.0348 0.0000 0.0000 0.0000
# 2 -0.1830 108.4383 62.1140 0.0000 0.0000 0.0000
# 3 -3.0348 62.1140 148.7964 0.0000 0.0000 0.0000
# 4 0.0000 0.0000 0.0000 30.9405 0.0000 0.0000
# 5 0.0000 0.0000 0.0000 0.0000 12.1596 0.0000
# 6 0.0000 0.0000 0.0000 0.0000 0.0000 7.5186
#
#
#
# Elastic Compliance Matrix: (Units=1/GPa)
#
#
# Indices 1 2 3 4 5 6 
#
# 1 0.033588 -0.000441 0.000869 0.000000 0.000000 0.000000
# 2 -0.000441 0.012126 -0.005071 0.000000 0.000000 0.000000
# 3 0.000869 -0.005071 0.008855 0.000000 0.000000 0.000000
# 4 0.000000 0.000000 0.000000 0.032320 0.000000 0.000000
# 5 0.000000 0.000000 0.000000 0.000000 0.082240 0.000000
# 6 0.000000 0.000000 0.000000 0.000000 0.000000 0.133004
#
#
# Mechanical properties :
#
#
# Convention : Reuss Voigt Hill
#
# Bulk Modulus (GPa) = 22.08315 44.98618 33.53467
# Shear Modulus (GPa) = 15.31333 25.33620 20.32477
#
# Velocity S-wave (km/s) = 2.77329 3.56723 3.19502
# Velocity P-wave (km/s) = 4.62019 6.28977 5.51849
#
# Compressibility (1/GPa) = 0.04528339
#
# Stress axis : x y z
#
# Youngs Moduli (GPa) = 29.77239 82.46982 112.92956
#
# Poissons Ratio (x) = 0.03639 -0.09816
# Poissons Ratio (y) = 0.01314 0.57264
# Poissons Ratio (z) = -0.02588 0.41819
#
# Static dielectric constant tensor:
#      x y z
#    x 1.746150 0.000000 0.000000 
#    y 0.000000 1.676040 0.000000 
#    z 0.000000 0.000000 1.715870 
# 
# From -- ./inp_files/68608.got.cif
#   From: 2010.05.17/outbox.cif.g08.bks.cpg/sg63_35_cif.got.tgz:68608.got - 2010.06.03 15:47:04.
