data_PCOD9471703
_publ_section_title
;
Structure prediction by ZEFSAII (Michael W. Deem and Ramdas Pophale) SiO2 
 PCOD9471703
Probable space group: C M C M
;
_chemical_formula_sum "Si O2"
_cell_formula_units_Z 96
_cell_length_a 9.003328
_cell_length_b 28.938933
_cell_length_c 22.475261
_cell_angle_alpha 90.000000
_cell_angle_beta 90.000000
_cell_angle_gamma 90.000000
_cell_volume 5855.855215
_symmetry_space_group_name_H-M "C M C M"
_symmetry_group_IT_number 63
_symmetry_cell_setting 'orthorhombic'
loop_
_space_group_symop_operation_xyz
x,y,z
-x,-y,1/2+z
x,-y,-z
-x,y,1/2-z
-x,-y,-z
x,y,1/2-z
-x,y,z
x,-y,1/2+z
1/2+x,1/2+y,z
1/2-x,1/2-y,1/2+z
1/2+x,1/2-y,-z
1/2-x,1/2+y,1/2-z
1/2-x,1/2-y,-z
1/2+x,1/2+y,1/2-z
1/2-x,1/2+y,z
1/2+x,1/2-y,1/2+z
loop_
_atom_site_type_symbol
_atom_site_label
_atom_site_fract_x
_atom_site_fract_y
_atom_site_fract_z
Si Si1 0.820348 0.240089 0.750000
Si Si2 0.678933 0.634481 0.750000
Si Si3 0.824128 0.428304 0.150493
Si Si4 0.825200 0.895318 0.593362
Si Si5 0.322337 0.826694 0.816811
Si Si6 0.169507 0.979633 0.683136
Si Si7 0.679014 0.946700 0.485919
O O1 0.768595 0.187817 0.750000
O O2 0.779600 0.272776 0.806230
O O3 0.000000 0.238697 0.750000
O O4 0.500000 0.632882 0.750000
O O5 0.739510 0.608248 0.808297
O O6 0.782580 0.478761 0.175198
O O7 0.780938 0.431418 0.080983
O O8 0.000000 0.420154 0.154597
O O9 0.757848 0.852537 0.629939
O O10 0.804512 0.939302 0.636696
O O11 0.746081 0.910840 0.532906
O O12 0.000000 0.888393 0.583610
O O13 0.290375 0.846879 0.750000
O O14 0.500000 0.829708 0.825253
O O15 0.179269 0.961292 0.750000
O O16 0.000000 0.997426 0.674760
O O17 0.500000 0.946549 0.490658
O O18 0.727542 0.000000 0.500000
#
# Coordination Sequence:
#
# PCOD9471703 Si02
#       7
#     8   8  16  16  16  16  16
#     4   7  16  35  58  81 102 133 170 209 262 327
#     4  11  21  37  60  81 106 133 164 215 276 321
#     4  11  22  35  52  76 103 135 183 221 251 303
#     4  11  21  31  50  78 110 142 174 215 263 307
#     4   8  16  33  55  79 104 134 173 208 252 314
#     4  10  20  32  46  70 106 144 174 207 256 308
#     4  10  21  37  52  69 101 148 189 218 250 298
#
# _framework density 16.393847000000001
#
# number of rings (size 3 to 8) (size 9 to 14) (size 15 to 20)
#    0.500    1.667    2.500    1.750    0.000    3.333 
#    0.000    1.667    0.000    1.000    0.000    0.000 
#    0.000    0.000    0.000    0.000    0.000    0.000 
#
# Total GULP energy -267341.772275 kJ/mol
# GULP energy per Si atom -5569.620256 kJ/mol
# Density = 1.635653 g / cm^3
# Si number density = 16.393847 Si / 1000 Ang^3
#
#
#
# Elastic Constant Matrix: (Units=GPa)
#
#
# Indices 1 2 3 4 5 6 
#
# 1 34.4384 42.1314 45.7260 0.0000 0.0000 0.0000
# 2 42.1314 94.8257 56.5725 0.0000 0.0000 0.0000
# 3 45.7260 56.5725 126.9984 0.0000 0.0000 0.0000
# 4 0.0000 0.0000 0.0000 -0.7727 0.0000 0.0000
# 5 0.0000 0.0000 0.0000 0.0000 11.2586 0.0000
# 6 0.0000 0.0000 0.0000 0.0000 0.0000 17.4308
#
#
#
# Elastic Compliance Matrix: (Units=1/GPa)
#
#
# Indices 1 2 3 4 5 6 
#
# 1 0.089505 -0.027976 -0.019764 0.000000 0.000000 0.000000
# 2 -0.027976 0.023107 -0.000220 0.000000 0.000000 0.000000
# 3 -0.019764 -0.000220 0.015088 0.000000 0.000000 0.000000
# 4 0.000000 0.000000 0.000000 -1.294108 0.000000 0.000000
# 5 0.000000 0.000000 0.000000 0.000000 0.088821 0.000000
# 6 0.000000 0.000000 0.000000 0.000000 0.000000 0.057370
#
#
# Mechanical properties :
#
#
# Convention : Reuss Voigt Hill
#
# Bulk Modulus (GPa) = 31.46727 60.56914 46.01820
# Shear Modulus (GPa) = -5.47224 13.03884 3.78330
#
# Velocity S-wave (km/s) = -1.82900 2.82325 1.52078
# Velocity P-wave (km/s) = 3.84395 6.90320 5.58704
#
# Compressibility (1/GPa) = 0.03177905
#
# Stress axis : x y z
#
# Youngs Moduli (GPa) = 11.17252 43.27682 66.27597
#
# Poissons Ratio (x) = 1.21072 1.30990
# Poissons Ratio (y) = 0.31257 0.01460
# Poissons Ratio (z) = 0.22082 0.00953
#
# Static dielectric constant tensor:
#      x y z
#    x 1.552810 0.000000 0.000000 
#    y 0.000000 1.546480 0.000000 
#    z 0.000000 0.000000 1.573060 
# 
# From -- ./inp_files/60268.got.cif
#   From: 2010.05.17/outbox.cif.g08.bks.cpg/sg63_31_cif.got.tgz:60268.got - 2010.06.03 15:47:04.
