data_PCOD9471960
_publ_section_title
;
Structure prediction by ZEFSAII (Michael W. Deem and Ramdas Pophale) SiO2 
 PCOD9471960
Probable space group: C M C M
;
_chemical_formula_sum "Si O2"
_cell_formula_units_Z 112
_cell_length_a 14.179434
_cell_length_b 28.001573
_cell_length_c 14.258230
_cell_angle_alpha 90.000000
_cell_angle_beta 90.000000
_cell_angle_gamma 90.000000
_cell_volume 5661.179694
_symmetry_space_group_name_H-M "C M C M"
_symmetry_group_IT_number 63
_symmetry_cell_setting 'orthorhombic'
loop_
_space_group_symop_operation_xyz
x,y,z
-x,-y,1/2+z
x,-y,-z
-x,y,1/2-z
-x,-y,-z
x,y,1/2-z
-x,y,z
x,-y,1/2+z
1/2+x,1/2+y,z
1/2-x,1/2-y,1/2+z
1/2+x,1/2-y,-z
1/2-x,1/2+y,1/2-z
1/2-x,1/2-y,-z
1/2+x,1/2+y,1/2-z
1/2-x,1/2+y,z
1/2+x,1/2-y,1/2+z
loop_
_atom_site_type_symbol
_atom_site_label
_atom_site_fract_x
_atom_site_fract_y
_atom_site_fract_z
Si Si1 0.765184 0.099905 0.058958
Si Si2 0.885760 0.737908 0.001533
Si Si3 0.112131 0.813646 0.149588
Si Si4 0.891563 0.982549 0.640123
Si Si5 0.612150 0.845493 0.856958
Si Si6 0.113337 0.187345 0.360273
Si Si7 0.796177 0.914359 0.355105
O O1 0.824736 0.053276 0.085015
O O2 0.673396 0.107772 0.122708
O O3 0.832744 0.144890 0.085545
O O4 0.737094 0.094917 0.949473
O O5 0.861532 0.759709 0.899969
O O6 0.000000 0.735001 0.001695
O O7 0.850863 0.781144 0.067267
O O8 0.857764 0.690778 0.059226
O O9 0.149333 0.796873 0.250000
O O10 0.133687 0.869241 0.142130
O O11 0.000000 0.807135 0.149077
O O12 0.889570 0.968504 0.750000
O O13 0.000000 0.979945 0.608429
O O14 0.852662 0.036353 0.634967
O O15 0.630359 0.827956 0.750000
O O16 0.500000 0.852747 0.863525
O O17 0.133193 0.183477 0.250000
O O18 0.000000 0.180929 0.374309
O O19 0.751891 0.914179 0.250000
#
# Coordination Sequence:
#
# PCOD9471960 Si02
#       7
#    16  16  16  16  16  16  16
#     4  12  22  36  57  81 112 152 191 231 281 335
#     4   9  17  32  53  76 105 144 185 226 276 326
#     4   9  15  26  47  74 106 144 182 220 264 315
#     4  10  21  36  57  87 122 158 190 221 267 334
#     4  10  22  40  61  84 108 138 186 245 291 327
#     4  10  20  33  50  78 117 153 185 222 268 335
#     4  10  21  35  51  79 116 149 186 229 269 324
#
# _framework density 19.783863
#
# number of rings (size 3 to 8) (size 9 to 14) (size 15 to 20)
#    0.000    2.000    1.429    3.000    0.000    7.429 
#    0.000    0.714    0.000    3.000    0.000    2.000 
#    0.000    0.000    0.000    0.000    0.000    0.000 
#
# Total GULP energy -312096.022429 kJ/mol
# GULP energy per Si atom -5573.143258 kJ/mol
# Density = 1.973883 g / cm^3
# Si number density = 19.783863 Si / 1000 Ang^3
#
#
#
# Elastic Constant Matrix: (Units=GPa)
#
#
# Indices 1 2 3 4 5 6 
#
# 1 57.1102 15.9231 18.5962 0.0000 0.0000 0.0000
# 2 15.9231 49.7338 27.7683 0.0000 0.0000 0.0000
# 3 18.5962 27.7683 110.9892 0.0000 0.0000 0.0000
# 4 0.0000 0.0000 0.0000 30.2551 0.0000 0.0000
# 5 0.0000 0.0000 0.0000 0.0000 17.5209 0.0000
# 6 0.0000 0.0000 0.0000 0.0000 0.0000 13.0940
#
#
#
# Elastic Compliance Matrix: (Units=1/GPa)
#
#
# Indices 1 2 3 4 5 6 
#
# 1 0.019598 -0.005162 -0.001992 0.000000 0.000000 0.000000
# 2 -0.005162 0.024732 -0.005323 0.000000 0.000000 0.000000
# 3 -0.001992 -0.005323 0.010675 0.000000 0.000000 0.000000
# 4 0.000000 0.000000 0.000000 0.033052 0.000000 0.000000
# 5 0.000000 0.000000 0.000000 0.000000 0.057075 0.000000
# 6 0.000000 0.000000 0.000000 0.000000 0.000000 0.076371
#
#
# Mechanical properties :
#
#
# Convention : Reuss Voigt Hill
#
# Bulk Modulus (GPa) = 33.27691 38.04536 35.66114
# Shear Modulus (GPa) = 19.49518 22.54372 21.01945
#
# Velocity S-wave (km/s) = 3.14253 3.37931 3.26307
# Velocity P-wave (km/s) = 5.47942 5.87355 5.67990
#
# Compressibility (1/GPa) = 0.03005087
#
# Stress axis : x y z
#
# Youngs Moduli (GPa) = 51.02558 40.43391 93.67394
#
# Poissons Ratio (x) = 0.20873 0.18661
# Poissons Ratio (y) = 0.26341 0.49859
# Poissons Ratio (z) = 0.10165 0.21522
#
# Static dielectric constant tensor:
#      x y z
#    x 1.693760 0.000000 0.000000 
#    y 0.000000 1.693560 0.000000 
#    z 0.000000 0.000000 1.782650 
# 
# From -- ./inp_files/32245.got.cif
#   From: 2010.05.17/outbox.cif.g08.bks.cpg/sg63_17_cif.got.tgz:32245.got - 2010.06.03 15:47:04.
