data_PCOD9471157
_publ_section_title
;
Structure prediction by ZEFSAII (Michael W. Deem and Ramdas Pophale) SiO2 
 PCOD9471157
Probable space group: C M C M
;
_chemical_formula_sum "Si O2"
_cell_formula_units_Z 80
_cell_length_a 26.855149
_cell_length_b 10.029707
_cell_length_c 15.908252
_cell_angle_alpha 90.000000
_cell_angle_beta 90.000000
_cell_angle_gamma 90.000000
_cell_volume 4284.876157
_symmetry_space_group_name_H-M "C M C M"
_symmetry_group_IT_number 63
_symmetry_cell_setting 'orthorhombic'
loop_
_space_group_symop_operation_xyz
x,y,z
-x,-y,1/2+z
x,-y,-z
-x,y,1/2-z
-x,-y,-z
x,y,1/2-z
-x,y,z
x,-y,1/2+z
1/2+x,1/2+y,z
1/2-x,1/2-y,1/2+z
1/2+x,1/2-y,-z
1/2-x,1/2+y,1/2-z
1/2-x,1/2-y,-z
1/2+x,1/2+y,1/2-z
1/2-x,1/2+y,z
1/2+x,1/2-y,1/2+z
loop_
_atom_site_type_symbol
_atom_site_label
_atom_site_fract_x
_atom_site_fract_y
_atom_site_fract_z
Si Si1 0.700760 0.706850 0.653429
Si Si2 0.000000 0.406107 0.083522
Si Si3 0.500000 0.347472 0.029822
Si Si4 0.390980 0.347748 0.468944
Si Si5 0.213769 0.503217 0.898243
Si Si6 0.392061 0.905792 0.417070
O O1 0.685944 0.695447 0.750000
O O2 0.653495 0.683610 0.593801
O O3 0.743634 0.601162 0.632909
O O4 0.720969 0.854512 0.634832
O O5 0.053924 0.425115 0.125999
O O6 0.000000 0.500000 0.000000
O O7 0.000000 0.255295 0.047969
O O8 0.553929 0.325177 0.071394
O O9 0.500000 0.500000 0.000000
O O10 0.387592 0.500000 0.500000
O O11 0.387260 0.244027 0.546540
O O12 0.158631 0.553258 0.871500
O O13 0.215042 0.500000 0.000000
O O14 0.393751 0.000000 0.500000
#
# Coordination Sequence:
#
# PCOD9471157 Si02
#       6
#    16   8   8  16  16  16
#     4  12  25  39  54  81 115 147 182 232 286 332
#     4   8  14  24  48  80 113 129 160 228 272 308
#     4   8  16  30  51  82 114 137 178 226 267 310
#     4  10  19  34  58  85 111 146 184 226 267 329
#     4  11  22  39  59  80 107 146 192 230 270 330
#     4   9  16  31  53  84 107 136 179 222 269 309
#
# _framework density 18.670318999999999
#
# number of rings (size 3 to 8) (size 9 to 14) (size 15 to 20)
#    0.000    2.000    4.000    1.800    2.800    0.000 
#    0.000    0.500    0.000    0.000    0.000    2.100 
#    0.000    0.000    0.000    0.000    0.000    0.000 
#
# Total GULP energy -222904.112325 kJ/mol
# GULP energy per Si atom -5572.602808 kJ/mol
# Density = 1.862782 g / cm^3
# Si number density = 18.670319 Si / 1000 Ang^3
#
#
#
# Elastic Constant Matrix: (Units=GPa)
#
#
# Indices 1 2 3 4 5 6 
#
# 1 164.7473 36.3163 17.9418 0.0000 0.0000 0.0000
# 2 36.3163 122.7848 0.3954 0.0000 0.0000 0.0000
# 3 17.9418 0.3954 27.7126 0.0000 0.0000 0.0000
# 4 0.0000 0.0000 0.0000 8.2074 0.0000 0.0000
# 5 0.0000 0.0000 0.0000 0.0000 -5.9720 0.0000
# 6 0.0000 0.0000 0.0000 0.0000 0.0000 -38.8437
#
#
#
# Elastic Compliance Matrix: (Units=1/GPa)
#
#
# Indices 1 2 3 4 5 6 
#
# 1 0.007016 -0.002060 -0.004513 0.000000 0.000000 0.000000
# 2 -0.002060 0.008750 0.001209 0.000000 0.000000 0.000000
# 3 -0.004513 0.001209 0.038989 0.000000 0.000000 0.000000
# 4 0.000000 0.000000 0.000000 0.121842 0.000000 0.000000
# 5 0.000000 0.000000 0.000000 0.000000 -0.167448 0.000000
# 6 0.000000 0.000000 0.000000 0.000000 0.000000 -0.025744
#
#
# Mechanical properties :
#
#
# Convention : Reuss Voigt Hill
#
# Bulk Modulus (GPa) = 22.71360 47.17242 34.94301
# Shear Modulus (GPa) = 567.68394 10.05107 288.86750
#
# Velocity S-wave (km/s) = 17.45614 2.32274 12.45215
# Velocity P-wave (km/s) = 20.45682 5.70214 15.01659
#
# Compressibility (1/GPa) = 0.04402649
#
# Stress axis : x y z
#
# Youngs Moduli (GPa) = 142.54040 114.28744 25.64827
#
# Poissons Ratio (x) = 0.23549 0.11574
# Poissons Ratio (y) = 0.29370 -0.03101
# Poissons Ratio (z) = 0.64323 -0.13819
#
# Static dielectric constant tensor:
#      x y z
#    x 1.710320 0.000000 0.000000 
#    y 0.000000 1.659060 0.000000 
#    z 0.000000 0.000000 1.599490 
# 
# From -- ./inp_files/49453.got.cif
#   From: 2010.05.17/outbox.cif.g08.bks.cpg/sg63_25_cif.got.tgz:49453.got - 2010.06.03 15:47:04.
