data_PCOD9471091
_publ_section_title
;
Structure prediction by ZEFSAII (Michael W. Deem and Ramdas Pophale) SiO2 
 PCOD9471091
Probable space group: C M C M
;
_chemical_formula_sum "Si O2"
_cell_formula_units_Z 88
_cell_length_a 28.312482
_cell_length_b 19.893984
_cell_length_c 8.838568
_cell_angle_alpha 90.000000
_cell_angle_beta 90.000000
_cell_angle_gamma 90.000000
_cell_volume 4978.306314
_symmetry_space_group_name_H-M "C M C M"
_symmetry_group_IT_number 63
_symmetry_cell_setting 'orthorhombic'
loop_
_space_group_symop_operation_xyz
x,y,z
-x,-y,1/2+z
x,-y,-z
-x,y,1/2-z
-x,-y,-z
x,y,1/2-z
-x,y,z
x,-y,1/2+z
1/2+x,1/2+y,z
1/2-x,1/2-y,1/2+z
1/2+x,1/2-y,-z
1/2-x,1/2+y,1/2-z
1/2-x,1/2-y,-z
1/2+x,1/2+y,1/2-z
1/2-x,1/2+y,z
1/2+x,1/2-y,1/2+z
loop_
_atom_site_type_symbol
_atom_site_label
_atom_site_fract_x
_atom_site_fract_y
_atom_site_fract_z
Si Si1 0.211818 0.655903 0.070690
Si Si2 0.810044 0.187519 0.931174
Si Si3 0.084273 0.828056 0.066067
Si Si4 0.444752 0.822847 0.931336
Si Si5 0.000000 0.925727 0.433614
Si Si6 0.628695 0.926817 0.429650
O O1 0.209246 0.644641 0.250000
O O2 0.193154 0.732019 0.040882
O O3 0.265617 0.654589 0.013778
O O4 0.178207 0.604105 0.986123
O O5 0.805253 0.178263 0.750000
O O6 0.861466 0.161973 0.981070
O O7 0.084115 0.828186 0.250000
O O8 0.067776 0.753315 0.021105
O O9 0.046339 0.883492 0.017996
O O10 0.436374 0.827114 0.750000
O O11 0.500000 0.835223 0.958848
O O12 0.411575 0.876039 0.012619
O O13 0.000000 0.928635 0.250000
O O14 0.000000 0.000000 0.500000
O O15 0.628085 0.930989 0.250000
O O16 0.621463 0.000000 0.500000
#
# Coordination Sequence:
#
# PCOD9471091 Si02
#       6
#    16  16  16  16   8  16
#     4  10  19  34  56  83 114 145 188 236 286 340
#     4   9  17  31  55  84 113 145 187 236 283 336
#     4   9  16  32  59  85 111 150 194 232 277 338
#     4  10  19  36  62  88 112 145 194 244 288 340
#     4  10  20  36  58  84 115 152 189 226 279 338
#     4  12  25  40  58  81 116 156 194 237 292 348
#
# _framework density 17.676694999999999
#
# number of rings (size 3 to 8) (size 9 to 14) (size 15 to 20)
#    0.000    2.000    2.727    2.182    0.000    1.455 
#    0.000    2.727    0.000    2.182    0.000    0.000 
#    0.000    0.000    0.000    0.000    0.000    0.000 
#
# Total GULP energy -245638.916588 kJ/mol
# GULP energy per Si atom -5582.702650 kJ/mol
# Density = 1.763646 g / cm^3
# Si number density = 17.676695 Si / 1000 Ang^3
#
#
#
# Elastic Constant Matrix: (Units=GPa)
#
#
# Indices 1 2 3 4 5 6 
#
# 1 163.5887 88.2274 60.2667 0.0000 0.0000 0.0000
# 2 88.2274 134.1245 55.1425 0.0000 0.0000 0.0000
# 3 60.2667 55.1425 53.8953 0.0000 0.0000 0.0000
# 4 0.0000 0.0000 0.0000 22.9833 0.0000 0.0000
# 5 0.0000 0.0000 0.0000 0.0000 28.7671 0.0000
# 6 0.0000 0.0000 0.0000 0.0000 0.0000 22.4722
#
#
#
# Elastic Compliance Matrix: (Units=1/GPa)
#
#
# Indices 1 2 3 4 5 6 
#
# 1 0.011479 -0.003924 -0.008821 0.000000 0.000000 0.000000
# 2 -0.003924 0.014211 -0.010151 0.000000 0.000000 0.000000
# 3 -0.008821 -0.010151 0.038804 0.000000 0.000000 0.000000
# 4 0.000000 0.000000 0.000000 0.043510 0.000000 0.000000
# 5 0.000000 0.000000 0.000000 0.000000 0.034762 0.000000
# 6 0.000000 0.000000 0.000000 0.000000 0.000000 0.044500
#
#
# Mechanical properties :
#
#
# Convention : Reuss Voigt Hill
#
# Bulk Modulus (GPa) = 53.47290 84.32017 68.89653
# Shear Modulus (GPa) = 20.89499 24.70932 22.80216
#
# Velocity S-wave (km/s) = 3.44185 3.74284 3.59549
# Velocity P-wave (km/s) = 6.79053 8.15373 7.50315
#
# Compressibility (1/GPa) = 0.01870106
#
# Stress axis : x y z
#
# Youngs Moduli (GPa) = 87.11505 70.36941 25.77042
#
# Poissons Ratio (x) = 0.27616 0.22732
# Poissons Ratio (y) = 0.34188 0.26160
# Poissons Ratio (z) = 0.76843 0.71433
#
# Static dielectric constant tensor:
#      x y z
#    x 1.605620 0.000000 0.000000 
#    y 0.000000 1.573850 0.000000 
#    z 0.000000 0.000000 1.593920 
# 
# From -- ./inp_files/14239.got.cif
#   From: 2010.05.17/outbox.cif.g08.bks.cpg/sg63_8_cif.got.tgz:14239.got - 2010.06.03 15:47:04.
