data_PCOD9471204
_publ_section_title
;
Structure prediction by ZEFSAII (Michael W. Deem and Ramdas Pophale) SiO2 
 PCOD9471204
Probable space group: C M C M
;
_chemical_formula_sum "Si O2"
_cell_formula_units_Z 96
_cell_length_a 14.660353
_cell_length_b 21.225800
_cell_length_c 14.623594
_cell_angle_alpha 90.000000
_cell_angle_beta 90.000000
_cell_angle_gamma 90.000000
_cell_volume 4550.536649
_symmetry_space_group_name_H-M "C M C M"
_symmetry_group_IT_number 63
_symmetry_cell_setting 'orthorhombic'
loop_
_space_group_symop_operation_xyz
x,y,z
-x,-y,1/2+z
x,-y,-z
-x,y,1/2-z
-x,-y,-z
x,y,1/2-z
-x,y,z
x,-y,1/2+z
1/2+x,1/2+y,z
1/2-x,1/2-y,1/2+z
1/2+x,1/2-y,-z
1/2-x,1/2+y,1/2-z
1/2-x,1/2-y,-z
1/2+x,1/2+y,1/2-z
1/2-x,1/2+y,z
1/2+x,1/2-y,1/2+z
loop_
_atom_site_type_symbol
_atom_site_label
_atom_site_fract_x
_atom_site_fract_y
_atom_site_fract_z
Si Si1 0.896570 0.427841 0.982053
Si Si2 0.846970 0.219422 0.469898
Si Si3 0.602902 0.507170 0.609335
Si Si4 0.857781 0.153645 0.649013
Si Si5 0.862783 0.663464 0.645234
Si Si6 0.731682 0.392678 0.854029
O O1 0.824235 0.399144 0.911946
O O2 0.000000 0.424887 0.946726
O O3 0.871283 0.500000 0.000000
O O4 0.892375 0.392548 0.078946
O O5 0.750000 0.250000 0.500000
O O6 0.891823 0.195207 0.563829
O O7 0.891333 0.272839 0.407211
O O8 0.828271 0.158477 0.407872
O O9 0.606893 0.500000 0.500000
O O10 0.500000 0.490335 0.639004
O O11 0.620497 0.579933 0.634035
O O12 0.677912 0.458952 0.646385
O O13 0.889818 0.172751 0.750000
O O14 0.747799 0.160334 0.647883
O O15 0.893850 0.660101 0.750000
O O16 0.748557 0.372569 0.750000
#
# Coordination Sequence:
#
# PCOD9471204 Si02
#       6
#    16  16  16  16  16  16
#     4  11  24  42  64  92 126 161 210 271 324 380
#     4  10  19  38  62  91 123 164 216 261 308 371
#     4  11  22  39  63  93 132 170 209 261 319 382
#     4  10  19  34  61  88 123 169 213 259 313 374
#     4  10  20  39  66  92 122 168 217 262 317 379
#     4  12  23  39  66  93 126 168 209 261 322 379
#
# _framework density 21.096412999999998
#
# number of rings (size 3 to 8) (size 9 to 14) (size 15 to 20)
#    0.000    1.333    5.000    2.500    0.000    4.667 
#    0.000    3.333    0.000    2.000    0.000    0.000 
#    0.000    0.000    0.000    0.000    0.000    0.000 
#
# Total GULP energy -268269.885938 kJ/mol
# GULP energy per Si atom -5588.955957 kJ/mol
# Density = 2.104840 g / cm^3
# Si number density = 21.096413 Si / 1000 Ang^3
#
#
#
# Elastic Constant Matrix: (Units=GPa)
#
#
# Indices 1 2 3 4 5 6 
#
# 1 60.8700 1.9878 23.2493 0.0000 0.0000 0.0000
# 2 1.9878 110.2872 66.9277 0.0000 0.0000 0.0000
# 3 23.2493 66.9277 204.2000 0.0000 0.0000 0.0000
# 4 0.0000 0.0000 0.0000 21.3839 0.0000 0.0000
# 5 0.0000 0.0000 0.0000 0.0000 2038.9465 0.0000
# 6 0.0000 0.0000 0.0000 0.0000 0.0000 -276.4154
#
#
#
# Elastic Compliance Matrix: (Units=1/GPa)
#
#
# Indices 1 2 3 4 5 6 
#
# 1 0.017282 0.001102 -0.002329 0.000000 0.000000 0.000000
# 2 0.001102 0.011389 -0.003858 0.000000 0.000000 0.000000
# 3 -0.002329 -0.003858 0.006427 0.000000 0.000000 0.000000
# 4 0.000000 0.000000 0.000000 0.046764 0.000000 0.000000
# 5 0.000000 0.000000 0.000000 0.000000 0.000490 0.000000
# 6 0.000000 0.000000 0.000000 0.000000 0.000000 -0.003618
#
#
# Mechanical properties :
#
#
# Convention : Reuss Voigt Hill
#
# Bulk Modulus (GPa) = 40.11696 62.18742 51.15219
# Shear Modulus (GPa) = 51.43308 375.66248 213.54778
#
# Velocity S-wave (km/s) = 4.94297 13.35874 10.07196
# Velocity P-wave (km/s) = 7.18572 16.35491 12.63166
#
# Compressibility (1/GPa) = 0.02492711
#
# Stress axis : x y z
#
# Youngs Moduli (GPa) = 57.86389 87.80636 155.59772
#
# Poissons Ratio (x) = -0.09674 0.36235
# Poissons Ratio (y) = -0.06375 0.60032
# Poissons Ratio (z) = 0.13475 0.33877
#
# Static dielectric constant tensor:
#      x y z
#    x 1.759210 0.000000 0.000000 
#    y 0.000000 1.738340 0.000000 
#    z 0.000000 0.000000 1.758930 
# 
# From -- ./inp_files/31893.got.cif
#   From: 2010.05.17/outbox.cif.g08.bks.cpg/sg63_16_cif.got.tgz:31893.got - 2010.06.03 15:47:04.
