data_PCOD9471819
_publ_section_title
;
Structure prediction by ZEFSAII (Michael W. Deem and Ramdas Pophale) SiO2 
 PCOD9471819
Probable space group: C M C M
;
_chemical_formula_sum "Si O2"
_cell_formula_units_Z 72
_cell_length_a 16.874515
_cell_length_b 9.010895
_cell_length_c 27.208456
_cell_angle_alpha 90.000000
_cell_angle_beta 90.000000
_cell_angle_gamma 90.000000
_cell_volume 4137.167706
_symmetry_space_group_name_H-M "C M C M"
_symmetry_group_IT_number 63
_symmetry_cell_setting 'orthorhombic'
loop_
_space_group_symop_operation_xyz
x,y,z
-x,-y,1/2+z
x,-y,-z
-x,y,1/2-z
-x,-y,-z
x,y,1/2-z
-x,y,z
x,-y,1/2+z
1/2+x,1/2+y,z
1/2-x,1/2-y,1/2+z
1/2+x,1/2-y,-z
1/2-x,1/2+y,1/2-z
1/2-x,1/2-y,-z
1/2+x,1/2+y,1/2-z
1/2-x,1/2+y,z
1/2+x,1/2-y,1/2+z
loop_
_atom_site_type_symbol
_atom_site_label
_atom_site_fract_x
_atom_site_fract_y
_atom_site_fract_z
Si Si1 0.500000 0.639577 0.306994
Si Si2 0.242665 0.234090 0.597367
Si Si3 0.000000 0.365683 0.395584
Si Si4 0.000000 0.052528 0.055790
Si Si5 0.637366 0.514772 0.367870
Si Si6 0.356011 0.004355 0.055153
O O1 0.500000 0.675731 0.250000
O O2 0.500000 0.782018 0.343468
O O3 0.577969 0.547365 0.323182
O O4 0.306511 0.342507 0.622915
O O5 0.192781 0.129223 0.633964
O O6 0.288895 0.121529 0.561681
O O7 0.183543 0.339734 0.567789
O O8 0.923242 0.463137 0.405848
O O9 0.000000 0.230468 0.435418
O O10 0.078347 0.999397 0.085087
O O11 0.000000 0.000000 0.000000
O O12 0.387869 0.000000 0.000000
#
# Coordination Sequence:
#
# PCOD9471819 Si02
#       6
#     8  16   8   8  16  16
#     4  10  20  42  66  79 104 145 186 233 293 347
#     4  10  20  35  54  80 118 149 182 231 273 322
#     4  10  21  38  50  84 111 147 192 234 267 332
#     4  10  20  32  52  70 116 149 194 218 265 323
#     4   9  20  37  57  82 108 146 185 232 277 330
#     4  11  21  33  53  81 121 154 191 216 268 324
#
# _framework density 17.403210000000001
#
# number of rings (size 3 to 8) (size 9 to 14) (size 15 to 20)
#    0.000    2.222    4.444    1.000    3.111    5.333 
#    0.000    1.111    0.000    2.667    0.000    0.000 
#    0.000    0.000    0.000    0.000    0.000    0.000 
#
# Total GULP energy -200742.098045 kJ/mol
# GULP energy per Si atom -5576.169390 kJ/mol
# Density = 1.736360 g / cm^3
# Si number density = 17.403210 Si / 1000 Ang^3
#
#
#
# Elastic Constant Matrix: (Units=GPa)
#
#
# Indices 1 2 3 4 5 6 
#
# 1 96.4354 39.9200 38.1393 0.0000 0.0000 0.0000
# 2 39.9200 91.0744 28.7345 0.0000 0.0000 0.0000
# 3 38.1393 28.7345 103.7878 0.0000 0.0000 0.0000
# 4 0.0000 0.0000 0.0000 10.6614 0.0000 0.0000
# 5 0.0000 0.0000 0.0000 0.0000 6.6379 0.0000
# 6 0.0000 0.0000 0.0000 0.0000 0.0000 7.7787
#
#
#
# Elastic Compliance Matrix: (Units=1/GPa)
#
#
# Indices 1 2 3 4 5 6 
#
# 1 0.013879 -0.004903 -0.003743 0.000000 0.000000 0.000000
# 2 -0.004903 0.013763 -0.002009 0.000000 0.000000 0.000000
# 3 -0.003743 -0.002009 0.011567 0.000000 0.000000 0.000000
# 4 0.000000 0.000000 0.000000 0.093796 0.000000 0.000000
# 5 0.000000 0.000000 0.000000 0.000000 0.150649 0.000000
# 6 0.000000 0.000000 0.000000 0.000000 0.000000 0.128557
#
#
# Mechanical properties :
#
#
# Convention : Reuss Voigt Hill
#
# Bulk Modulus (GPa) = 55.86592 56.09834 55.98213
# Shear Modulus (GPa) = 11.37692 17.31586 14.34639
#
# Velocity S-wave (km/s) = 2.55958 3.15775 2.87427
# Velocity P-wave (km/s) = 6.39577 6.75275 6.57668
#
# Compressibility (1/GPa) = 0.01790000
#
# Stress axis : x y z
#
# Youngs Moduli (GPa) = 72.04892 72.65977 86.45568
#
# Poissons Ratio (x) = 0.35623 0.32360
# Poissons Ratio (y) = 0.35324 0.17366
# Poissons Ratio (z) = 0.26968 0.14595
#
# Static dielectric constant tensor:
#      x y z
#    x 1.630290 0.000000 0.000000 
#    y 0.000000 1.596010 0.000000 
#    z 0.000000 0.000000 1.556880 
# 
# From -- ./inp_files/73243.got.cif
#   From: 2010.05.17/outbox.cif.g08.bks.cpg/sg63_37_cif.got.tgz:73243.got - 2010.06.03 15:47:04.
