data_PCOD9471076
_publ_section_title
;
Structure prediction by ZEFSAII (Michael W. Deem and Ramdas Pophale) SiO2 
 PCOD9471076
Probable space group: C M C M
;
_chemical_formula_sum "Si O2"
_cell_formula_units_Z 92
_cell_length_a 28.961974
_cell_length_b 23.917250
_cell_length_c 7.745746
_cell_angle_alpha 90.000000
_cell_angle_beta 90.000000
_cell_angle_gamma 90.000000
_cell_volume 5365.406782
_symmetry_space_group_name_H-M "C M C M"
_symmetry_group_IT_number 63
_symmetry_cell_setting 'orthorhombic'
loop_
_space_group_symop_operation_xyz
x,y,z
-x,-y,1/2+z
x,-y,-z
-x,y,1/2-z
-x,-y,-z
x,y,1/2-z
-x,y,z
x,-y,1/2+z
1/2+x,1/2+y,z
1/2-x,1/2-y,1/2+z
1/2+x,1/2-y,-z
1/2-x,1/2+y,1/2-z
1/2-x,1/2-y,-z
1/2+x,1/2+y,1/2-z
1/2-x,1/2+y,z
1/2+x,1/2-y,1/2+z
loop_
_atom_site_type_symbol
_atom_site_label
_atom_site_fract_x
_atom_site_fract_y
_atom_site_fract_z
Si Si1 0.173761 0.266574 0.950912
Si Si2 0.238632 0.832902 0.046027
Si Si3 0.319283 0.565215 0.455672
Si Si4 0.426374 0.756592 0.047260
Si Si5 0.091331 0.129824 0.452035
Si Si6 0.000000 0.935250 0.454702
Si Si7 0.000000 0.713507 0.250000
O O1 0.163137 0.257537 0.750000
O O2 0.198649 0.209825 0.019914
O O3 0.213004 0.313709 0.967237
O O4 0.125828 0.279979 0.042071
O O5 0.242231 0.822869 0.250000
O O6 0.223014 0.895987 0.014047
O O7 0.317130 0.500000 0.500000
O O8 0.321171 0.567852 0.250000
O O9 0.365367 0.595892 0.528221
O O10 0.442217 0.757288 0.250000
O O11 0.419735 0.691961 0.984593
O O12 0.459876 0.783799 0.905871
O O13 0.101197 0.137631 0.250000
O O14 0.045645 0.093362 0.472631
O O15 0.000000 0.927588 0.250000
O O16 0.000000 0.000000 0.500000
#
# Coordination Sequence:
#
# PCOD9471076 Si02
#       7
#    16  16  16  16  16   8   4
#     4  10  19  34  56  81 107 137 178 224 271 323
#     4  10  20  33  54  79 106 138 178 224 270 326
#     4  11  22  36  52  73 101 136 177 225 278 330
#     4  11  22  37  56  79 108 140 179 228 274 331
#     4  10  22  37  52  68  92 126 177 231 277 322
#     4  12  25  36  50  63  84 119 169 225 280 325
#     4  12  24  36  52  80 110 142 184 214 290 334
#
# _framework density 17.146882999999999
#
# number of rings (size 3 to 8) (size 9 to 14) (size 15 to 20)
#    0.000    1.391    2.609    3.652    2.435    5.565 
#    0.000    0.000    0.000    0.000    0.000    0.000 
#    0.000    0.000    0.000    0.783    4.522    1.391 
#
# Total GULP energy -256215.920955 kJ/mol
# GULP energy per Si atom -5569.911325 kJ/mol
# Density = 1.710786 g / cm^3
# Si number density = 17.146883 Si / 1000 Ang^3
#
#
#
# Elastic Constant Matrix: (Units=GPa)
#
#
# Indices 1 2 3 4 5 6 
#
# 1 103.9077 17.4172 14.9122 0.0000 0.0000 0.0000
# 2 17.4172 30.7184 -8.2902 0.0000 0.0000 0.0000
# 3 14.9122 -8.2902 78.1696 0.0000 0.0000 0.0000
# 4 0.0000 0.0000 0.0000 17.6406 0.0000 0.0000
# 5 0.0000 0.0000 0.0000 0.0000 55.0178 0.0000
# 6 0.0000 0.0000 0.0000 0.0000 0.0000 4.9418
#
#
#
# Elastic Compliance Matrix: (Units=1/GPa)
#
#
# Indices 1 2 3 4 5 6 
#
# 1 0.011240 -0.007157 -0.002903 0.000000 0.000000 0.000000
# 2 -0.007157 0.038070 0.005403 0.000000 0.000000 0.000000
# 3 -0.002903 0.005403 0.013920 0.000000 0.000000 0.000000
# 4 0.000000 0.000000 0.000000 0.056687 0.000000 0.000000
# 5 0.000000 0.000000 0.000000 0.000000 0.018176 0.000000
# 6 0.000000 0.000000 0.000000 0.000000 0.000000 0.202356
#
#
# Mechanical properties :
#
#
# Convention : Reuss Voigt Hill
#
# Bulk Modulus (GPa) = 18.54777 28.98603 23.76690
# Shear Modulus (GPa) = 13.59677 28.10380 20.85029
#
# Velocity S-wave (km/s) = 2.81901 4.05285 3.49087
# Velocity P-wave (km/s) = 4.62993 6.23234 5.48991
#
# Compressibility (1/GPa) = 0.05391483
#
# Stress axis : x y z
#
# Youngs Moduli (GPa) = 88.96641 26.26769 71.84155
#
# Poissons Ratio (x) = 0.18799 0.20857
# Poissons Ratio (y) = 0.63670 -0.38814
# Poissons Ratio (z) = 0.25829 -0.14192
#
# Static dielectric constant tensor:
#      x y z
#    x 1.607680 0.000000 0.000000 
#    y 0.000000 1.619860 0.000000 
#    z 0.000000 0.000000 1.641480 
# 
# From -- ./inp_files/12466.got.cif
#   From: 2010.05.17/outbox.cif.g08.bks.cpg/sg63_7_cif.got.tgz:12466.got - 2010.06.03 15:47:04.
