data_PCOD9471835
_publ_section_title
;
Structure prediction by ZEFSAII (Michael W. Deem and Ramdas Pophale) SiO2 
 PCOD9471835
Probable space group: C M C M
;
_chemical_formula_sum "Si O2"
_cell_formula_units_Z 116
_cell_length_a 27.294171
_cell_length_b 14.568584
_cell_length_c 14.291509
_cell_angle_alpha 90.000000
_cell_angle_beta 90.000000
_cell_angle_gamma 90.000000
_cell_volume 5682.838808
_symmetry_space_group_name_H-M "C M C M"
_symmetry_group_IT_number 63
_symmetry_cell_setting 'orthorhombic'
loop_
_space_group_symop_operation_xyz
x,y,z
-x,-y,1/2+z
x,-y,-z
-x,y,1/2-z
-x,-y,-z
x,y,1/2-z
-x,y,z
x,-y,1/2+z
1/2+x,1/2+y,z
1/2-x,1/2-y,1/2+z
1/2+x,1/2-y,-z
1/2-x,1/2+y,1/2-z
1/2-x,1/2-y,-z
1/2+x,1/2+y,1/2-z
1/2-x,1/2+y,z
1/2+x,1/2-y,1/2+z
loop_
_atom_site_type_symbol
_atom_site_label
_atom_site_fract_x
_atom_site_fract_y
_atom_site_fract_z
Si Si1 0.242972 0.032519 0.363030
Si Si2 0.763269 0.670497 0.863975
Si Si3 0.500000 0.833378 0.750000
Si Si4 0.055068 0.212075 0.356083
Si Si5 0.179977 0.307521 0.637988
Si Si6 0.338961 0.328082 0.634822
Si Si7 0.919937 0.386084 0.899927
Si Si8 0.555291 0.921879 0.111703
O O1 0.238107 0.023064 0.250000
O O2 0.258962 0.933127 0.399500
O O3 0.285716 0.105182 0.379473
O O4 0.192989 0.083210 0.394018
O O5 0.765573 0.669232 0.750000
O O6 0.712732 0.721138 0.889935
O O7 0.808541 0.735938 0.892672
O O8 0.457400 0.838807 0.831039
O O9 0.052175 0.175745 0.250000
O O10 0.104899 0.172206 0.399486
O O11 0.064594 0.321599 0.348400
O O12 0.000000 0.200746 0.398060
O O13 0.171445 0.301693 0.750000
O O14 0.128535 0.326625 0.591226
O O15 0.340066 0.326926 0.750000
O O16 0.910834 0.491421 0.864070
O O17 0.942414 0.403138 0.001402
O O18 0.500000 0.950681 0.139178
#
# Coordination Sequence:
#
# PCOD9471835 Si02
#       8
#    16  16   4  16  16  16  16  16
#     4   8  14  25  42  65  94 125 156 198 248 278
#     4   8  14  25  40  65  95 121 154 199 244 283
#     4  12  20  30  52  68  90 136 160 200 234 268
#     4   9  18  28  45  69  91 121 157 196 237 286
#     4   9  17  26  43  71  93 117 162 200 229 292
#     4   8  14  25  40  66  95 120 158 201 237 290
#     4  11  20  31  45  68  95 127 160 192 237 278
#     4  10  20  33  43  64  99 127 160 191 232 293
#
# _framework density 20.412333
#
# number of rings (size 3 to 8) (size 9 to 14) (size 15 to 20)
#    0.000    2.897    2.069    2.069    2.897    0.000 
#    0.000    0.000    0.000    3.310    1.793    0.000 
#    0.000    2.207    0.000    0.000    0.000    0.000 
#
# Total GULP energy -322877.523201 kJ/mol
# GULP energy per Si atom -5566.853848 kJ/mol
# Density = 2.036587 g / cm^3
# Si number density = 20.412333 Si / 1000 Ang^3
#
#
#
# Elastic Constant Matrix: (Units=GPa)
#
#
# Indices 1 2 3 4 5 6 
#
# 1 111.2647 7.1678 7.1940 0.0000 0.0000 0.0000
# 2 7.1678 57.4719 1.3064 0.0000 0.0000 0.0000
# 3 7.1940 1.3064 55.7747 0.0000 0.0000 0.0000
# 4 0.0000 0.0000 0.0000 -1.0744 0.0000 0.0000
# 5 0.0000 0.0000 0.0000 0.0000 -3.1473 0.0000
# 6 0.0000 0.0000 0.0000 0.0000 0.0000 -5.8441
#
#
#
# Elastic Compliance Matrix: (Units=1/GPa)
#
#
# Indices 1 2 3 4 5 6 
#
# 1 0.009134 -0.001113 -0.001152 0.000000 0.000000 0.000000
# 2 -0.001113 0.017545 -0.000267 0.000000 0.000000 0.000000
# 3 -0.001152 -0.000267 0.018084 0.000000 0.000000 0.000000
# 4 0.000000 0.000000 0.000000 -0.930724 0.000000 0.000000
# 5 0.000000 0.000000 0.000000 0.000000 -0.317732 0.000000
# 6 0.000000 0.000000 0.000000 0.000000 0.000000 -0.171114
#
#
# Mechanical properties :
#
#
# Convention : Reuss Voigt Hill
#
# Bulk Modulus (GPa) = 25.19032 28.42754 26.80893
# Shear Modulus (GPa) = -3.68593 11.90971 4.11189
#
# Velocity S-wave (km/s) = -1.34524 2.41810 1.42084
# Velocity P-wave (km/s) = 3.15510 4.66403 3.98170
#
# Compressibility (1/GPa) = 0.03969778
#
# Stress axis : x y z
#
# Youngs Moduli (GPa) = 109.48391 56.99733 55.29707
#
# Poissons Ratio (x) = 0.06344 0.06370
# Poissons Ratio (y) = 0.12185 0.01479
# Poissons Ratio (z) = 0.12613 0.01524
#
# Static dielectric constant tensor:
#      x y z
#    x 1.725720 0.000000 0.000000 
#    y 0.000000 1.739690 0.000000 
#    z 0.000000 0.000000 1.812480 
# 
# From -- ./inp_files/49205.got.cif
#   From: 2010.05.17/outbox.cif.g08.bks.cpg/sg63_25_cif.got.tgz:49205.got - 2010.06.03 15:47:04.
