data_PCOD9471480
_publ_section_title
;
Structure prediction by ZEFSAII (Michael W. Deem and Ramdas Pophale) SiO2 
 PCOD9471480
Probable space group: C M C M
;
_chemical_formula_sum "Si O2"
_cell_formula_units_Z 116
_cell_length_a 7.507990
_cell_length_b 23.519055
_cell_length_c 26.869713
_cell_angle_alpha 90.000000
_cell_angle_beta 90.000000
_cell_angle_gamma 90.000000
_cell_volume 4744.676217
_symmetry_space_group_name_H-M "C M C M"
_symmetry_group_IT_number 63
_symmetry_cell_setting 'orthorhombic'
loop_
_space_group_symop_operation_xyz
x,y,z
-x,-y,1/2+z
x,-y,-z
-x,y,1/2-z
-x,-y,-z
x,y,1/2-z
-x,y,z
x,-y,1/2+z
1/2+x,1/2+y,z
1/2-x,1/2-y,1/2+z
1/2+x,1/2-y,-z
1/2-x,1/2+y,1/2-z
1/2-x,1/2-y,-z
1/2+x,1/2+y,1/2-z
1/2-x,1/2+y,z
1/2+x,1/2-y,1/2+z
loop_
_atom_site_type_symbol
_atom_site_label
_atom_site_fract_x
_atom_site_fract_y
_atom_site_fract_z
Si Si1 0.785940 0.837072 0.430062
Si Si2 0.500000 0.176642 0.750000
Si Si3 0.296546 0.039834 0.452554
Si Si4 0.788901 0.038479 0.305511
Si Si5 0.785383 0.779622 0.326092
Si Si6 0.200892 0.833497 0.962421
Si Si7 0.203200 0.340761 0.849591
Si Si8 0.700875 0.448569 0.376078
O O1 0.760655 0.795435 0.383992
O O2 0.716822 0.816734 0.483990
O O3 0.716971 0.897448 0.408273
O O4 0.000000 0.843093 0.438406
O O5 0.341288 0.181550 0.793060
O O6 0.500000 0.052148 0.435300
O O7 0.203007 0.097888 0.466686
O O8 0.307555 0.000000 0.500000
O O9 0.195854 0.002880 0.412148
O O10 0.720369 0.049047 0.250000
O O11 0.773294 0.096700 0.337102
O O12 0.000000 0.027902 0.302904
O O13 0.712717 0.979766 0.328695
O O14 0.722753 0.713933 0.320449
O O15 0.000000 0.784488 0.315729
O O16 0.287855 0.826322 0.908403
O O17 0.000000 0.811691 0.958038
O O18 0.000000 0.343369 0.834433
O O19 0.500000 0.428732 0.363395
#
# Coordination Sequence:
#
# PCOD9471480 Si02
#       8
#    16   4  16  16  16  16  16  16
#     4   9  20  41  65  92 131 172 215 268 326 387
#     4  12  26  48  80 102 124 174 224 280 338 380
#     4  11  21  32  50  86 127 165 208 261 316 377
#     4  10  22  37  59  90 123 160 213 270 328 393
#     4  10  25  48  71 102 134 168 222 278 329 395
#     4  11  21  35  62  93 127 174 219 262 320 395
#     4  11  24  40  62  93 130 168 212 268 334 393
#     4  10  19  36  61  86 118 165 212 259 315 386
#
# _framework density 24.448453000000001
#
# number of rings (size 3 to 8) (size 9 to 14) (size 15 to 20)
#    0.000    1.655    2.759    1.448    2.897    1.379 
#    4.966    0.000    0.000    0.000    0.000    0.000 
#    0.000    0.000    0.000    0.000    0.000    0.000 
#
# Total GULP energy -323159.428863 kJ/mol
# GULP energy per Si atom -5571.714291 kJ/mol
# Density = 2.439281 g / cm^3
# Si number density = 24.448453 Si / 1000 Ang^3
#
#
#
# Elastic Constant Matrix: (Units=GPa)
#
#
# Indices 1 2 3 4 5 6 
#
# 1 87.2506 2.3370 -5.1238 0.0000 0.0000 0.0000
# 2 2.3370 68.5021 14.8256 0.0000 0.0000 0.0000
# 3 -5.1238 14.8256 100.6612 0.0000 0.0000 0.0000
# 4 0.0000 0.0000 0.0000 -17.2998 0.0000 0.0000
# 5 0.0000 0.0000 0.0000 0.0000 24.9617 0.0000
# 6 0.0000 0.0000 0.0000 0.0000 0.0000 30.6749
#
#
#
# Elastic Compliance Matrix: (Units=1/GPa)
#
#
# Indices 1 2 3 4 5 6 
#
# 1 0.011515 -0.000537 0.000665 0.000000 0.000000 0.000000
# 2 -0.000537 0.015104 -0.002252 0.000000 0.000000 0.000000
# 3 0.000665 -0.002252 0.010300 0.000000 0.000000 0.000000
# 4 0.000000 0.000000 0.000000 -0.057804 0.000000 0.000000
# 5 0.000000 0.000000 0.000000 0.000000 0.040061 0.000000
# 6 0.000000 0.000000 0.000000 0.000000 0.000000 0.032600
#
#
# Mechanical properties :
#
#
# Convention : Reuss Voigt Hill
#
# Bulk Modulus (GPa) = 30.60784 31.16571 30.88678
# Shear Modulus (GPa) = 74.72396 23.95902 49.34149
#
# Velocity S-wave (km/s) = 5.53446 3.13386 4.49729
# Velocity P-wave (km/s) = 7.30663 5.08625 6.29511
#
# Compressibility (1/GPa) = 0.03267137
#
# Stress axis : x y z
#
# Youngs Moduli (GPa) = 86.84565 66.20871 97.08895
#
# Poissons Ratio (x) = 0.03554 -0.06458
# Poissons Ratio (y) = 0.04662 0.21863
# Poissons Ratio (z) = -0.05777 0.14909
#
# Static dielectric constant tensor:
#      x y z
#    x 1.947630 0.000000 0.000000 
#    y 0.000000 1.959320 0.000000 
#    z 0.000000 0.000000 2.012490 
# 
# From -- ./inp_files/67441.got.cif
#   From: 2010.05.17/outbox.cif.g08.bks.cpg/sg63_34_cif.got.tgz:67441.got - 2010.06.03 15:47:04.
