data_PCOD9471328
_publ_section_title
;
Structure prediction by ZEFSAII (Michael W. Deem and Ramdas Pophale) SiO2 
 PCOD9471328
Probable space group: C M C M
;
_chemical_formula_sum "Si O2"
_cell_formula_units_Z 112
_cell_length_a 14.063469
_cell_length_b 29.863496
_cell_length_c 13.984691
_cell_angle_alpha 90.000000
_cell_angle_beta 90.000000
_cell_angle_gamma 90.000000
_cell_volume 5873.351363
_symmetry_space_group_name_H-M "C M C M"
_symmetry_group_IT_number 63
_symmetry_cell_setting 'orthorhombic'
loop_
_space_group_symop_operation_xyz
x,y,z
-x,-y,1/2+z
x,-y,-z
-x,y,1/2-z
-x,-y,-z
x,y,1/2-z
-x,y,z
x,-y,1/2+z
1/2+x,1/2+y,z
1/2-x,1/2-y,1/2+z
1/2+x,1/2-y,-z
1/2-x,1/2+y,1/2-z
1/2-x,1/2-y,-z
1/2+x,1/2+y,1/2-z
1/2-x,1/2+y,z
1/2+x,1/2-y,1/2+z
loop_
_atom_site_type_symbol
_atom_site_label
_atom_site_fract_x
_atom_site_fract_y
_atom_site_fract_z
Si Si1 0.785606 0.615987 0.862508
Si Si2 0.386479 0.843482 0.531590
Si Si3 0.891169 0.475219 0.133519
Si Si4 0.804972 0.569444 0.363772
Si Si5 0.611337 0.659089 0.947719
Si Si6 0.384294 0.754101 0.860120
Si Si7 0.391049 0.610579 0.360109
O O1 0.798658 0.622215 0.750000
O O2 0.825392 0.567085 0.890179
O O3 0.676843 0.623868 0.891980
O O4 0.843970 0.651235 0.926083
O O5 0.500000 0.843192 0.527664
O O6 0.352067 0.887279 0.588666
O O7 0.352891 0.798810 0.585516
O O8 0.893337 0.476601 0.250000
O O9 0.849371 0.522853 0.101598
O O10 0.000000 0.468487 0.101072
O O11 0.822461 0.571953 0.250000
O O12 0.691399 0.574246 0.378016
O O13 0.500000 0.653720 0.924457
O O14 0.641075 0.708645 0.915278
O O15 0.622826 0.648869 0.060317
O O16 0.351567 0.752831 0.750000
O O17 0.500000 0.755606 0.857992
O O18 0.379767 0.626003 0.250000
O O19 0.500000 0.594176 0.370396
#
# Coordination Sequence:
#
# PCOD9471328 Si02
#       7
#    16  16  16  16  16  16  16
#     4  11  23  39  56  81 116 156 199 242 288 343
#     4  11  22  36  56  84 115 151 194 242 292 343
#     4   9  19  36  58  83 116 158 197 237 286 341
#     4  10  19  35  59  88 117 150 193 238 287 347
#     4  10  20  39  63  85 112 150 193 236 289 351
#     4   9  19  36  59  87 117 149 190 243 294 338
#     4   9  18  35  59  86 118 152 186 236 296 344
#
# _framework density 19.069181
#
# number of rings (size 3 to 8) (size 9 to 14) (size 15 to 20)
#    0.000    2.143    1.429    1.714    0.000    4.286 
#    0.000    2.857    0.000    6.857    0.000    0.000 
#    0.000    0.000    0.000    0.000    0.000    0.000 
#
# Total GULP energy -312542.868322 kJ/mol
# GULP energy per Si atom -5581.122649 kJ/mol
# Density = 1.902578 g / cm^3
# Si number density = 19.069181 Si / 1000 Ang^3
#
#
#
# Elastic Constant Matrix: (Units=GPa)
#
#
# Indices 1 2 3 4 5 6 
#
# 1 102.7980 73.3682 46.7540 0.0000 0.0000 0.0000
# 2 73.3682 143.9823 64.1830 0.0000 0.0000 0.0000
# 3 46.7540 64.1830 94.8353 0.0000 0.0000 0.0000
# 4 0.0000 0.0000 0.0000 30.8612 0.0000 0.0000
# 5 0.0000 0.0000 0.0000 0.0000 28.0364 0.0000
# 6 0.0000 0.0000 0.0000 0.0000 0.0000 26.4049
#
#
#
# Elastic Compliance Matrix: (Units=1/GPa)
#
#
# Indices 1 2 3 4 5 6 
#
# 1 0.016017 -0.006647 -0.003398 0.000000 0.000000 0.000000
# 2 -0.006647 0.012704 -0.005321 0.000000 0.000000 0.000000
# 3 -0.003398 -0.005321 0.015821 0.000000 0.000000 0.000000
# 4 0.000000 0.000000 0.000000 0.032403 0.000000 0.000000
# 5 0.000000 0.000000 0.000000 0.000000 0.035668 0.000000
# 6 0.000000 0.000000 0.000000 0.000000 0.000000 0.037872
#
#
# Mechanical properties :
#
#
# Convention : Reuss Voigt Hill
#
# Bulk Modulus (GPa) = 72.40876 78.91402 75.66139
# Shear Modulus (GPa) = 26.90753 27.54786 27.22769
#
# Velocity S-wave (km/s) = 3.76047 3.80495 3.78277
# Velocity P-wave (km/s) = 7.54380 7.79592 7.67089
#
# Compressibility (1/GPa) = 0.01381048
#
# Stress axis : x y z
#
# Youngs Moduli (GPa) = 62.43200 78.71249 63.20723
#
# Poissons Ratio (x) = 0.52322 0.21477
# Poissons Ratio (y) = 0.41500 0.33633
# Poissons Ratio (z) = 0.21214 0.41884
#
# Static dielectric constant tensor:
#      x y z
#    x 1.682100 0.000000 0.000000 
#    y 0.000000 1.630440 0.000000 
#    z 0.000000 0.000000 1.694060 
# 
# From -- ./inp_files/32540.got.cif
#   From: 2010.05.17/outbox.cif.g08.bks.cpg/sg63_17_cif.got.tgz:32540.got - 2010.06.03 15:47:04.
