data_PCOD9471373
_publ_section_title
;
Structure prediction by ZEFSAII (Michael W. Deem and Ramdas Pophale) SiO2 
 PCOD9471373
Probable space group: C M C M
;
_chemical_formula_sum "Si O2"
_cell_formula_units_Z 96
_cell_length_a 14.365434
_cell_length_b 14.421776
_cell_length_c 22.565360
_cell_angle_alpha 90.000000
_cell_angle_beta 90.000000
_cell_angle_gamma 90.000000
_cell_volume 4674.980067
_symmetry_space_group_name_H-M "C M C M"
_symmetry_group_IT_number 63
_symmetry_cell_setting 'orthorhombic'
loop_
_space_group_symop_operation_xyz
x,y,z
-x,-y,1/2+z
x,-y,-z
-x,y,1/2-z
-x,-y,-z
x,y,1/2-z
-x,y,z
x,-y,1/2+z
1/2+x,1/2+y,z
1/2-x,1/2-y,1/2+z
1/2+x,1/2-y,-z
1/2-x,1/2+y,1/2-z
1/2-x,1/2-y,-z
1/2+x,1/2+y,1/2-z
1/2-x,1/2+y,z
1/2+x,1/2-y,1/2+z
loop_
_atom_site_type_symbol
_atom_site_label
_atom_site_fract_x
_atom_site_fract_y
_atom_site_fract_z
Si Si1 0.761785 0.631777 0.552551
Si Si2 0.610985 0.271906 0.879396
Si Si3 0.893066 0.848138 0.355760
Si Si4 0.107059 0.360367 0.683458
Si Si5 0.248128 0.414198 0.919362
Si Si6 0.613699 0.521412 0.750000
Si Si7 0.612802 0.306047 0.750000
O O1 0.844005 0.690520 0.582163
O O2 0.667829 0.664884 0.585414
O O3 0.768764 0.637992 0.481835
O O4 0.759314 0.522596 0.567437
O O5 0.500000 0.272508 0.883159
O O6 0.653504 0.371197 0.898543
O O7 0.642465 0.259185 0.811009
O O8 0.892787 0.751142 0.320970
O O9 0.856043 0.925592 0.309796
O O10 0.000000 0.870881 0.371177
O O11 0.134708 0.388427 0.750000
O O12 0.174467 0.393650 0.631979
O O13 0.000000 0.390848 0.673605
O O14 0.500000 0.526827 0.750000
O O15 0.640477 0.414041 0.750000
O O16 0.500000 0.305392 0.750000
#
# Coordination Sequence:
#
# PCOD9471373 Si02
#       7
#    16  16  16  16  16   8   8
#     4  11  25  43  63  95 131 172 220 268 329 389
#     4  11  24  43  65  94 132 176 218 265 325 393
#     4  10  19  35  62  94 127 163 213 273 329 381
#     4  10  21  40  66  96 125 159 210 272 325 377
#     4  11  25  44  65  93 131 171 221 272 322 390
#     4   9  16  31  58  95 128 162 207 264 328 385
#     4   9  20  37  58  87 130 168 205 254 318 389
#
# _framework density 20.534846000000002
#
# number of rings (size 3 to 8) (size 9 to 14) (size 15 to 20)
#    0.000    1.667    2.500    1.500    1.167    4.667 
#    3.000    3.333    0.000    0.000    0.000    0.000 
#    0.000    0.000    0.000    0.000    0.000    0.000 
#
# Total GULP energy -268115.528752 kJ/mol
# GULP energy per Si atom -5585.740182 kJ/mol
# Density = 2.048811 g / cm^3
# Si number density = 20.534846 Si / 1000 Ang^3
#
#
#
# Elastic Constant Matrix: (Units=GPa)
#
#
# Indices 1 2 3 4 5 6 
#
# 1 105.7274 22.5034 71.0872 0.0000 0.0000 0.0000
# 2 22.5034 47.2970 23.9806 0.0000 0.0000 0.0000
# 3 71.0872 23.9806 164.3864 0.0000 0.0000 0.0000
# 4 0.0000 0.0000 0.0000 28.7442 0.0000 0.0000
# 5 0.0000 0.0000 0.0000 0.0000 14.9131 0.0000
# 6 0.0000 0.0000 0.0000 0.0000 0.0000 19.7429
#
#
#
# Elastic Compliance Matrix: (Units=1/GPa)
#
#
# Indices 1 2 3 4 5 6 
#
# 1 0.013962 -0.003868 -0.005473 0.000000 0.000000 0.000000
# 2 -0.003868 0.023903 -0.001814 0.000000 0.000000 0.000000
# 3 -0.005473 -0.001814 0.008715 0.000000 0.000000 0.000000
# 4 0.000000 0.000000 0.000000 0.034790 0.000000 0.000000
# 5 0.000000 0.000000 0.000000 0.000000 0.067055 0.000000
# 6 0.000000 0.000000 0.000000 0.000000 0.000000 0.050651
#
#
# Mechanical properties :
#
#
# Convention : Reuss Voigt Hill
#
# Bulk Modulus (GPa) = 41.20547 61.39483 51.30015
# Shear Modulus (GPa) = 21.78877 26.00267 23.89572
#
# Velocity S-wave (km/s) = 3.26093 3.56233 3.41496
# Velocity P-wave (km/s) = 5.85559 6.84712 6.37067
#
# Compressibility (1/GPa) = 0.02426862
#
# Stress axis : x y z
#
# Youngs Moduli (GPa) = 71.62535 41.83552 114.74741
#
# Poissons Ratio (x) = 0.16181 0.62805
# Poissons Ratio (y) = 0.27702 0.20820
# Poissons Ratio (z) = 0.39203 0.07591
#
# Static dielectric constant tensor:
#      x y z
#    x 1.722970 0.000000 0.000000 
#    y 0.000000 1.752410 0.000000 
#    z 0.000000 0.000000 1.739160 
# 
# From -- ./inp_files/54260.got.cif
#   From: 2010.05.17/outbox.cif.g08.bks.cpg/sg63_28_cif.got.tgz:54260.got - 2010.06.03 15:47:04.
