data_PCOD9471871
_publ_section_title
;
Structure prediction by ZEFSAII (Michael W. Deem and Ramdas Pophale) SiO2 
 PCOD9471871
Probable space group: C M C M
;
_chemical_formula_sum "Si O2"
_cell_formula_units_Z 80
_cell_length_a 16.425277
_cell_length_b 29.290678
_cell_length_c 8.938135
_cell_angle_alpha 90.000000
_cell_angle_beta 90.000000
_cell_angle_gamma 90.000000
_cell_volume 4300.203782
_symmetry_space_group_name_H-M "C M C M"
_symmetry_group_IT_number 63
_symmetry_cell_setting 'orthorhombic'
loop_
_space_group_symop_operation_xyz
x,y,z
-x,-y,1/2+z
x,-y,-z
-x,y,1/2-z
-x,-y,-z
x,y,1/2-z
-x,y,z
x,-y,1/2+z
1/2+x,1/2+y,z
1/2-x,1/2-y,1/2+z
1/2+x,1/2-y,-z
1/2-x,1/2+y,1/2-z
1/2-x,1/2-y,-z
1/2+x,1/2+y,1/2-z
1/2-x,1/2+y,z
1/2+x,1/2-y,1/2+z
loop_
_atom_site_type_symbol
_atom_site_label
_atom_site_fract_x
_atom_site_fract_y
_atom_site_fract_z
Si Si1 0.092216 0.449508 0.570272
Si Si2 0.310324 0.212651 0.925797
Si Si3 0.094694 0.222576 0.914845
Si Si4 0.404872 0.627889 0.428309
Si Si5 0.760400 0.607623 0.572446
O O1 0.096642 0.500000 0.500000
O O2 0.099209 0.451789 0.750000
O O3 0.167260 0.420835 0.504049
O O4 0.000000 0.431716 0.535283
O O5 0.320433 0.220789 0.750000
O O6 0.283911 0.160955 0.949189
O O7 0.250000 0.250000 0.000000
O O8 0.389743 0.228142 0.014876
O O9 0.134553 0.216591 0.750000
O O10 0.000000 0.218028 0.894434
O O11 0.113431 0.180301 0.023699
O O12 0.400014 0.623372 0.250000
O O13 0.500000 0.617589 0.472308
O O14 0.330436 0.600525 0.504806
O O15 0.758320 0.598598 0.750000
#
# Coordination Sequence:
#
# PCOD9471871 Si02
#       5
#    16  16  16  16  16
#     4  10  22  42  68  95 123 155 193 243 303 365
#     4  11  22  34  50  74 109 151 194 243 294 344
#     4  10  20  33  49  70 101 144 192 240 290 344
#     4  10  20  34  54  80 111 151 198 244 289 342
#     4  11  23  37  58  87 118 156 199 246 300 359
#
# _framework density 18.603769
#
# number of rings (size 3 to 8) (size 9 to 14) (size 15 to 20)
#    0.000    1.600    2.000    3.000    0.000    6.800 
#    0.000    4.000    0.000    0.600    0.000    0.000 
#    0.000    0.000    0.000    0.000    0.000    0.000 
#
# Total GULP energy -222819.857486 kJ/mol
# GULP energy per Si atom -5570.496437 kJ/mol
# Density = 1.856143 g / cm^3
# Si number density = 18.603769 Si / 1000 Ang^3
#
#
#
# Elastic Constant Matrix: (Units=GPa)
#
#
# Indices 1 2 3 4 5 6 
#
# 1 149.2118 50.7742 74.0768 0.0000 0.0000 0.0000
# 2 50.7742 50.4222 42.9624 0.0000 0.0000 0.0000
# 3 74.0768 42.9624 103.6344 0.0000 0.0000 0.0000
# 4 0.0000 0.0000 0.0000 23.5261 0.0000 0.0000
# 5 0.0000 0.0000 0.0000 0.0000 31.5749 0.0000
# 6 0.0000 0.0000 0.0000 0.0000 0.0000 33.1366
#
#
#
# Elastic Compliance Matrix: (Units=1/GPa)
#
#
# Indices 1 2 3 4 5 6 
#
# 1 0.011917 -0.007332 -0.005478 0.000000 0.000000 0.000000
# 2 -0.007332 0.035175 -0.009341 0.000000 0.000000 0.000000
# 3 -0.005478 -0.009341 0.017438 0.000000 0.000000 0.000000
# 4 0.000000 0.000000 0.000000 0.042506 0.000000 0.000000
# 5 0.000000 0.000000 0.000000 0.000000 0.031671 0.000000
# 6 0.000000 0.000000 0.000000 0.000000 0.000000 0.030178
#
#
# Mechanical properties :
#
#
# Convention : Reuss Voigt Hill
#
# Bulk Modulus (GPa) = 49.44100 70.98835 60.21468
# Shear Modulus (GPa) = 22.73463 26.67786 24.70624
#
# Velocity S-wave (km/s) = 3.49957 3.79093 3.64816
# Velocity P-wave (km/s) = 6.55460 7.57644 7.08397
#
# Compressibility (1/GPa) = 0.02022613
#
# Stress axis : x y z
#
# Youngs Moduli (GPa) = 83.91689 28.42934 57.34722
#
# Poissons Ratio (x) = 0.20844 0.31417
# Poissons Ratio (y) = 0.61527 0.53569
# Poissons Ratio (z) = 0.45972 0.26557
#
# Static dielectric constant tensor:
#      x y z
#    x 1.882870 0.000000 0.000000 
#    y 0.000000 1.621280 0.000000 
#    z 0.000000 0.000000 1.665580 
# 
# From -- ./inp_files/6444.got.cif
#   From: 2010.05.17/outbox.cif.g08.bks.cpg/sg63_4_cif.got.tgz:6444.got - 2010.06.03 15:47:04.
