data_PCOD9471481
_publ_section_title
;
Structure prediction by ZEFSAII (Michael W. Deem and Ramdas Pophale) SiO2 
 PCOD9471481
Probable space group: C M C M
;
_chemical_formula_sum "Si O2"
_cell_formula_units_Z 96
_cell_length_a 20.492604
_cell_length_b 18.665189
_cell_length_c 14.308938
_cell_angle_alpha 90.000000
_cell_angle_beta 90.000000
_cell_angle_gamma 90.000000
_cell_volume 5473.144843
_symmetry_space_group_name_H-M "C M C M"
_symmetry_group_IT_number 63
_symmetry_cell_setting 'orthorhombic'
loop_
_space_group_symop_operation_xyz
x,y,z
-x,-y,1/2+z
x,-y,-z
-x,y,1/2-z
-x,-y,-z
x,y,1/2-z
-x,y,z
x,-y,1/2+z
1/2+x,1/2+y,z
1/2-x,1/2-y,1/2+z
1/2+x,1/2-y,-z
1/2-x,1/2+y,1/2-z
1/2-x,1/2-y,-z
1/2+x,1/2+y,1/2-z
1/2-x,1/2+y,z
1/2+x,1/2-y,1/2+z
loop_
_atom_site_type_symbol
_atom_site_label
_atom_site_fract_x
_atom_site_fract_y
_atom_site_fract_z
Si Si1 0.923784 0.649977 0.860403
Si Si2 0.309407 0.646732 0.861174
Si Si3 0.576092 0.583212 0.979526
Si Si4 0.722424 0.189050 0.359274
Si Si5 0.879343 0.812299 0.641166
Si Si6 0.810790 0.583283 0.522548
O O1 0.910583 0.638422 0.750000
O O2 0.906975 0.733317 0.879362
O O3 0.876702 0.601972 0.922496
O O4 0.000000 0.637257 0.877746
O O5 0.303755 0.638045 0.750000
O O6 0.375920 0.614018 0.900930
O O7 0.303862 0.731604 0.882116
O O8 0.249469 0.608460 0.912964
O O9 0.500000 0.589465 0.954335
O O10 0.590674 0.500000 0.000000
O O11 0.590653 0.629620 0.072124
O O12 0.708765 0.174308 0.250000
O O13 0.801001 0.189913 0.370671
O O14 0.693550 0.130482 0.428590
O O15 0.893388 0.828462 0.750000
O O16 0.805436 0.500000 0.500000
#
# Coordination Sequence:
#
# PCOD9471481 Si02
#       6
#    16  16  16  16  16  16
#     4  10  21  38  61  88 114 146 192 240 282 332
#     4  11  22  39  61  83 111 153 198 239 284 336
#     4  11  24  39  54  83 122 157 193 236 286 342
#     4  10  21  37  60  87 117 148 191 243 286 332
#     4  10  19  36  61  87 113 148 195 243 286 329
#     4  12  23  37  60  88 120 150 186 230 290 344
#
# _framework density 17.540189999999999
#
# number of rings (size 3 to 8) (size 9 to 14) (size 15 to 20)
#    0.000    1.333    3.333    3.000    0.000    3.667 
#    0.000    1.667    0.000    1.500    0.000    0.000 
#    0.000    0.000    0.000    0.000    0.000    0.000 
#
# Total GULP energy -268314.048619 kJ/mol
# GULP energy per Si atom -5589.876013 kJ/mol
# Density = 1.750027 g / cm^3
# Si number density = 17.540190 Si / 1000 Ang^3
#
#
#
# Elastic Constant Matrix: (Units=GPa)
#
#
# Indices 1 2 3 4 5 6 
#
# 1 92.7821 68.8328 56.8608 0.0000 0.0000 0.0000
# 2 68.8328 155.7006 93.0312 0.0000 0.0000 0.0000
# 3 56.8608 93.0312 104.4194 0.0000 0.0000 0.0000
# 4 0.0000 0.0000 0.0000 -7.0582 0.0000 0.0000
# 5 0.0000 0.0000 0.0000 0.0000 24.0384 0.0000
# 6 0.0000 0.0000 0.0000 0.0000 0.0000 -2.3067
#
#
#
# Elastic Compliance Matrix: (Units=1/GPa)
#
#
# Indices 1 2 3 4 5 6 
#
# 1 0.017457 -0.004357 -0.005624 0.000000 0.000000 0.000000
# 2 -0.004357 0.014821 -0.010832 0.000000 0.000000 0.000000
# 3 -0.005624 -0.010832 0.022290 0.000000 0.000000 0.000000
# 4 0.000000 0.000000 0.000000 -0.141679 0.000000 0.000000
# 5 0.000000 0.000000 0.000000 0.000000 0.041600 0.000000
# 6 0.000000 0.000000 0.000000 0.000000 0.000000 -0.433513
#
#
# Mechanical properties :
#
#
# Convention : Reuss Voigt Hill
#
# Bulk Modulus (GPa) = 77.27061 87.81687 82.54374
# Shear Modulus (GPa) = -11.54510 11.87985 0.16737
#
# Velocity S-wave (km/s) = -2.56834 2.60531 0.30924
# Velocity P-wave (km/s) = 5.94592 7.69577 6.87673
#
# Compressibility (1/GPa) = 0.01294153
#
# Stress axis : x y z
#
# Youngs Moduli (GPa) = 57.28322 67.47303 44.86330
#
# Poissons Ratio (x) = 0.29398 0.25233
# Poissons Ratio (y) = 0.24958 0.48595
# Poissons Ratio (z) = 0.32218 0.73085
#
# Static dielectric constant tensor:
#      x y z
#    x 1.582460 0.000000 0.000000 
#    y 0.000000 1.566430 0.000000 
#    z 0.000000 0.000000 1.594820 
# 
# From -- ./inp_files/35328.got.cif
#   From: 2010.05.17/outbox.cif.g08.bks.cpg/sg63_18_cif.got.tgz:35328.got - 2010.06.03 15:47:04.
