data_PCOD9471953
_publ_section_title
;
Structure prediction by ZEFSAII (Michael W. Deem and Ramdas Pophale) SiO2 
 PCOD9471953
Probable space group: C M C M
;
_chemical_formula_sum "Si O2"
_cell_formula_units_Z 96
_cell_length_a 15.044512
_cell_length_b 26.572318
_cell_length_c 13.395224
_cell_angle_alpha 90.000000
_cell_angle_beta 90.000000
_cell_angle_gamma 90.000000
_cell_volume 5354.975974
_symmetry_space_group_name_H-M "C M C M"
_symmetry_group_IT_number 63
_symmetry_cell_setting 'orthorhombic'
loop_
_space_group_symop_operation_xyz
x,y,z
-x,-y,1/2+z
x,-y,-z
-x,y,1/2-z
-x,-y,-z
x,y,1/2-z
-x,y,z
x,-y,1/2+z
1/2+x,1/2+y,z
1/2-x,1/2-y,1/2+z
1/2+x,1/2-y,-z
1/2-x,1/2+y,1/2-z
1/2-x,1/2-y,-z
1/2+x,1/2+y,1/2-z
1/2-x,1/2+y,z
1/2+x,1/2-y,1/2+z
loop_
_atom_site_type_symbol
_atom_site_label
_atom_site_fract_x
_atom_site_fract_y
_atom_site_fract_z
Si Si1 0.399780 0.250689 0.137120
Si Si2 0.662858 0.642841 0.862913
Si Si3 0.822303 0.676453 0.985714
Si Si4 0.606521 0.442844 0.982521
Si Si5 0.500000 0.819613 0.371225
Si Si6 0.500000 0.698248 0.131459
Si Si7 0.321875 0.638891 0.365027
O O1 0.365799 0.239158 0.250000
O O2 0.500000 0.229957 0.129689
O O3 0.404745 0.310809 0.130827
O O4 0.343883 0.227330 0.046757
O O5 0.669185 0.625214 0.750000
O O6 0.752267 0.672032 0.896082
O O7 0.639416 0.595942 0.932425
O O8 0.767814 0.646214 0.071271
O O9 0.913899 0.661027 0.931795
O O10 0.500000 0.441793 0.980280
O O11 0.644422 0.417797 0.882295
O O12 0.635451 0.500000 0.000000
O O13 0.500000 0.829504 0.250000
O O14 0.500000 0.758282 0.382324
O O15 0.500000 0.688359 0.250000
O O16 0.593585 0.673113 0.097336
O O17 0.306451 0.650819 0.250000
#
# Coordination Sequence:
#
# PCOD9471953 Si02
#       7
#    16  16  16  16   8   8  16
#     4  10  20  33  50  77 111 149 188 226 270 320
#     4  10  22  36  52  76 109 146 186 228 272 327
#     4  11  22  34  54  77 109 150 193 229 272 322
#     4  10  21  35  56  83 109 143 184 225 275 331
#     4  11  24  36  51  78 111 151 193 232 272 319
#     4   9  20  34  51  76 110 149 188 220 264 323
#     4  10  21  37  56  81 112 149 187 229 273 326
#
# _framework density 17.927250999999998
#
# number of rings (size 3 to 8) (size 9 to 14) (size 15 to 20)
#    0.000    1.833    1.667    2.000    7.000    1.667 
#    0.000    1.667    0.000    0.000    0.000    9.333 
#    0.000   10.667    0.000    0.000    0.000    0.000 
#
# Total GULP energy -267226.733024 kJ/mol
# GULP energy per Si atom -5567.223605 kJ/mol
# Density = 1.788645 g / cm^3
# Si number density = 17.927251 Si / 1000 Ang^3
#
#
#
# Elastic Constant Matrix: (Units=GPa)
#
#
# Indices 1 2 3 4 5 6 
#
# 1 119.0872 26.5273 38.1118 0.0000 0.0000 0.0000
# 2 26.5273 67.7161 17.7545 0.0000 0.0000 0.0000
# 3 38.1118 17.7545 110.6436 0.0000 0.0000 0.0000
# 4 0.0000 0.0000 0.0000 19.5034 0.0000 0.0000
# 5 0.0000 0.0000 0.0000 0.0000 13.7468 0.0000
# 6 0.0000 0.0000 0.0000 0.0000 0.0000 10.2175
#
#
#
# Elastic Compliance Matrix: (Units=1/GPa)
#
#
# Indices 1 2 3 4 5 6 
#
# 1 0.010047 -0.003161 -0.002953 0.000000 0.000000 0.000000
# 2 -0.003161 0.016411 -0.001544 0.000000 0.000000 0.000000
# 3 -0.002953 -0.001544 0.010303 0.000000 0.000000 0.000000
# 4 0.000000 0.000000 0.000000 0.051273 0.000000 0.000000
# 5 0.000000 0.000000 0.000000 0.000000 0.072744 0.000000
# 6 0.000000 0.000000 0.000000 0.000000 0.000000 0.097872
#
#
# Mechanical properties :
#
#
# Convention : Reuss Voigt Hill
#
# Bulk Modulus (GPa) = 46.63652 51.35936 48.99794
# Shear Modulus (GPa) = 17.78631 23.03043 20.40837
#
# Velocity S-wave (km/s) = 3.15324 3.58810 3.37768
# Velocity P-wave (km/s) = 6.27121 6.77325 6.52706
#
# Compressibility (1/GPa) = 0.02144242
#
# Stress axis : x y z
#
# Youngs Moduli (GPa) = 99.53644 60.93505 97.05780
#
# Poissons Ratio (x) = 0.19264 0.28664
# Poissons Ratio (y) = 0.31467 0.14990
# Poissons Ratio (z) = 0.29396 0.09411
#
# Static dielectric constant tensor:
#      x y z
#    x 1.669950 0.000000 0.000000 
#    y 0.000000 1.598680 0.000000 
#    z 0.000000 0.000000 1.680290 
# 
# From -- ./inp_files/32183.got.cif
#   From: 2010.05.17/outbox.cif.g08.bks.cpg/sg63_17_cif.got.tgz:32183.got - 2010.06.03 15:47:04.
