data_PCOD9471377
_publ_section_title
;
Structure prediction by ZEFSAII (Michael W. Deem and Ramdas Pophale) SiO2 
 PCOD9471377
Probable space group: C M C M
;
_chemical_formula_sum "Si O2"
_cell_formula_units_Z 64
_cell_length_a 25.138493
_cell_length_b 8.489871
_cell_length_c 15.384407
_cell_angle_alpha 90.000000
_cell_angle_beta 90.000000
_cell_angle_gamma 90.000000
_cell_volume 3283.379568
_symmetry_space_group_name_H-M "C M C M"
_symmetry_group_IT_number 63
_symmetry_cell_setting 'orthorhombic'
loop_
_space_group_symop_operation_xyz
x,y,z
-x,-y,1/2+z
x,-y,-z
-x,y,1/2-z
-x,-y,-z
x,y,1/2-z
-x,y,z
x,-y,1/2+z
1/2+x,1/2+y,z
1/2-x,1/2-y,1/2+z
1/2+x,1/2-y,-z
1/2-x,1/2+y,1/2-z
1/2-x,1/2-y,-z
1/2+x,1/2+y,1/2-z
1/2-x,1/2+y,z
1/2+x,1/2-y,1/2+z
loop_
_atom_site_type_symbol
_atom_site_label
_atom_site_fract_x
_atom_site_fract_y
_atom_site_fract_z
Si Si1 0.307840 0.936837 0.750000
Si Si2 0.383292 0.058592 0.599302
Si Si3 0.500000 0.579233 0.354384
Si Si4 0.811964 0.062081 0.750000
Si Si5 0.616010 0.438382 0.594292
Si Si6 0.500000 0.053054 0.900040
O O1 0.309372 0.749383 0.750000
O O2 0.338695 0.999270 0.664942
O O3 0.247367 0.994555 0.750000
O O4 0.383241 0.248591 0.598216
O O5 0.441876 0.002390 0.633290
O O6 0.376308 0.000000 0.500000
O O7 0.500000 0.584156 0.250000
O O8 0.555298 0.505992 0.386478
O O9 0.500000 0.758385 0.389405
O O10 0.844607 0.002983 0.833288
O O11 0.631541 0.500000 0.500000
O O12 0.500000 0.000000 0.000000
#
# Coordination Sequence:
#
# PCOD9471377 Si02
#       6
#     8  16   8   8  16   8
#     4  12  26  43  66  87 123 164 210 270 311 378
#     4  10  21  40  63  95 127 166 208 253 312 369
#     4  10  19  35  63  95 131 170 208 250 310 373
#     4  12  26  45  62  93 121 162 218 260 321 370
#     4  11  22  40  66  94 130 167 207 258 311 374
#     4   8  18  33  59  92 129 162 202 244 300 369
#
# _framework density 19.49211
#
# number of rings (size 3 to 8) (size 9 to 14) (size 15 to 20)
#    0.000    1.500    1.250    4.125    5.250    1.000 
#    0.000   10.000    0.000    0.000    0.000    0.000 
#    0.000    0.000    0.000    0.000    0.000    0.000 
#
# Total GULP energy -178749.434434 kJ/mol
# GULP energy per Si atom -5585.919826 kJ/mol
# Density = 1.944775 g / cm^3
# Si number density = 19.492110 Si / 1000 Ang^3
#
#
#
# Elastic Constant Matrix: (Units=GPa)
#
#
# Indices 1 2 3 4 5 6 
#
# 1 203.8595 52.9198 101.2382 0.0000 0.0000 0.0000
# 2 52.9198 97.6744 55.7963 0.0000 0.0000 0.0000
# 3 101.2382 55.7963 161.9874 0.0000 0.0000 0.0000
# 4 0.0000 0.0000 0.0000 30.8561 0.0000 0.0000
# 5 0.0000 0.0000 0.0000 0.0000 -55.0324 0.0000
# 6 0.0000 0.0000 0.0000 0.0000 0.0000 26.0984
#
#
#
# Elastic Compliance Matrix: (Units=1/GPa)
#
#
# Indices 1 2 3 4 5 6 
#
# 1 0.007329 -0.001686 -0.004000 0.000000 0.000000 0.000000
# 2 -0.001686 0.013134 -0.003470 0.000000 0.000000 0.000000
# 3 -0.004000 -0.003470 0.009868 0.000000 0.000000 0.000000
# 4 0.000000 0.000000 0.000000 0.032408 0.000000 0.000000
# 5 0.000000 0.000000 0.000000 0.000000 -0.018171 0.000000
# 6 0.000000 0.000000 0.000000 0.000000 0.000000 0.038316
#
#
# Mechanical properties :
#
#
# Convention : Reuss Voigt Hill
#
# Bulk Modulus (GPa) = 83.19883 98.15886 90.67884
# Shear Modulus (GPa) = 47.52635 17.28888 32.40762
#
# Velocity S-wave (km/s) = 4.94321 2.98143 4.08192
# Velocity P-wave (km/s) = 8.68081 7.89427 8.29686
#
# Compressibility (1/GPa) = 0.01201940
#
# Stress axis : x y z
#
# Youngs Moduli (GPa) = 136.43602 76.13838 101.33257
#
# Poissons Ratio (x) = 0.12838 0.40532
# Poissons Ratio (y) = 0.23005 0.35164
# Poissons Ratio (z) = 0.54574 0.26422
#
# Static dielectric constant tensor:
#      x y z
#    x 1.700480 0.000000 0.000000 
#    y 0.000000 1.665130 0.000000 
#    z 0.000000 0.000000 1.643510 
# 
# From -- ./inp_files/36259.got.cif
#   From: 2010.05.17/outbox.cif.g08.bks.cpg/sg63_19_cif.got.tgz:36259.got - 2010.06.03 15:47:04.
