data_PCOD9471469
_publ_section_title
;
Structure prediction by ZEFSAII (Michael W. Deem and Ramdas Pophale) SiO2 
 PCOD9471469
Probable space group: C M C M
;
_chemical_formula_sum "Si O2"
_cell_formula_units_Z 112
_cell_length_a 13.027594
_cell_length_b 20.448633
_cell_length_c 22.150363
_cell_angle_alpha 90.000000
_cell_angle_beta 90.000000
_cell_angle_gamma 90.000000
_cell_volume 5900.778924
_symmetry_space_group_name_H-M "C M C M"
_symmetry_group_IT_number 63
_symmetry_cell_setting 'orthorhombic'
loop_
_space_group_symop_operation_xyz
x,y,z
-x,-y,1/2+z
x,-y,-z
-x,y,1/2-z
-x,-y,-z
x,y,1/2-z
-x,y,z
x,-y,1/2+z
1/2+x,1/2+y,z
1/2-x,1/2-y,1/2+z
1/2+x,1/2-y,-z
1/2-x,1/2+y,1/2-z
1/2-x,1/2-y,-z
1/2+x,1/2+y,1/2-z
1/2-x,1/2+y,z
1/2+x,1/2-y,1/2+z
loop_
_atom_site_type_symbol
_atom_site_label
_atom_site_fract_x
_atom_site_fract_y
_atom_site_fract_z
Si Si1 0.118788 0.048627 0.590281
Si Si2 0.693253 0.040185 0.439164
Si Si3 0.616848 0.089479 0.181437
Si Si4 0.880358 0.739486 0.569764
Si Si5 0.738222 0.284143 0.819742
Si Si6 0.278386 0.347440 0.010225
Si Si7 0.884193 0.838940 0.178436
O O1 0.143455 0.100106 0.537393
O O2 0.145881 0.092290 0.648733
O O3 0.000000 0.029111 0.591541
O O4 0.197281 0.990393 0.579542
O O5 0.630082 0.042401 0.376703
O O6 0.711542 0.114227 0.460742
O O7 0.658050 0.000000 0.500000
O O8 0.630876 0.061509 0.250000
O O9 0.500000 0.115484 0.179624
O O10 0.698024 0.148632 0.175341
O O11 0.852312 0.775406 0.632326
O O12 0.804423 0.678250 0.558766
O O13 0.844174 0.788940 0.517247
O O14 0.000000 0.723274 0.566034
O O15 0.704736 0.277947 0.750000
O O16 0.814846 0.223833 0.833942
O O17 0.885963 0.846650 0.250000
O O18 0.000000 0.825659 0.156193
#
# Coordination Sequence:
#
# PCOD9471469 Si02
#       7
#    16  16  16  16  16  16  16
#     4  10  20  35  58  82 110 152 193 232 281 340
#     4  10  22  38  58  85 117 151 198 248 292 341
#     4  10  21  39  62  86 115 155 197 240 295 355
#     4  11  22  36  58  85 116 148 183 231 292 353
#     4  10  19  36  60  86 115 147 186 235 287 351
#     4  10  21  39  53  83 115 150 186 233 284 343
#     4   9  17  31  55  86 114 142 183 236 285 331
#
# _framework density 18.980543999999998
#
# number of rings (size 3 to 8) (size 9 to 14) (size 15 to 20)
#    0.000    2.000    2.857    0.857    0.000    6.571 
#    0.000    2.143    0.000    0.000    0.000    0.000 
#    0.000    0.000    0.000    0.000    0.000    0.000 
#
# Total GULP energy -311938.970069 kJ/mol
# GULP energy per Si atom -5570.338751 kJ/mol
# Density = 1.893734 g / cm^3
# Si number density = 18.980544 Si / 1000 Ang^3
#
#
#
# Elastic Constant Matrix: (Units=GPa)
#
#
# Indices 1 2 3 4 5 6 
#
# 1 62.5906 12.6362 39.1023 0.0000 0.0000 0.0000
# 2 12.6362 27.2739 15.6832 0.0000 0.0000 0.0000
# 3 39.1023 15.6832 95.4086 0.0000 0.0000 0.0000
# 4 0.0000 0.0000 0.0000 30.1679 0.0000 0.0000
# 5 0.0000 0.0000 0.0000 0.0000 25.1030 0.0000
# 6 0.0000 0.0000 0.0000 0.0000 0.0000 15.9335
#
#
#
# Elastic Compliance Matrix: (Units=1/GPa)
#
#
# Indices 1 2 3 4 5 6 
#
# 1 0.022220 -0.005586 -0.008188 0.000000 0.000000 0.000000
# 2 -0.005586 0.041897 -0.004598 0.000000 0.000000 0.000000
# 3 -0.008188 -0.004598 0.014593 0.000000 0.000000 0.000000
# 4 0.000000 0.000000 0.000000 0.033148 0.000000 0.000000
# 5 0.000000 0.000000 0.000000 0.000000 0.039836 0.000000
# 6 0.000000 0.000000 0.000000 0.000000 0.000000 0.062761
#
#
# Mechanical properties :
#
#
# Convention : Reuss Voigt Hill
#
# Bulk Modulus (GPa) = 23.82898 35.56849 29.69874
# Shear Modulus (GPa) = 18.85457 22.09764 20.47610
#
# Velocity S-wave (km/s) = 3.15519 3.41578 3.28806
# Velocity P-wave (km/s) = 5.08481 5.85976 5.48599
#
# Compressibility (1/GPa) = 0.04196570
#
# Stress axis : x y z
#
# Youngs Moduli (GPa) = 45.00405 23.86807 68.52623
#
# Poissons Ratio (x) = 0.13333 0.56113
# Poissons Ratio (y) = 0.25140 0.31505
# Poissons Ratio (z) = 0.36852 0.10973
#
# Static dielectric constant tensor:
#      x y z
#    x 1.644530 0.000000 0.000000 
#    y 0.000000 1.656950 0.000000 
#    z 0.000000 0.000000 1.730770 
# 
# From -- ./inp_files/61804.got.cif
#   From: 2010.05.17/outbox.cif.g08.bks.cpg/sg63_31_cif.got.tgz:61804.got - 2010.06.03 15:47:04.
