data_PCOD9471836
_publ_section_title
;
Structure prediction by ZEFSAII (Michael W. Deem and Ramdas Pophale) SiO2 
 PCOD9471836
Probable space group: C M C M
;
_chemical_formula_sum "Si O2"
_cell_formula_units_Z 100
_cell_length_a 33.131608
_cell_length_b 13.862288
_cell_length_c 9.545594
_cell_angle_alpha 90.000000
_cell_angle_beta 90.000000
_cell_angle_gamma 90.000000
_cell_volume 4384.099381
_symmetry_space_group_name_H-M "C M C M"
_symmetry_group_IT_number 63
_symmetry_cell_setting 'orthorhombic'
loop_
_space_group_symop_operation_xyz
x,y,z
-x,-y,1/2+z
x,-y,-z
-x,y,1/2-z
-x,-y,-z
x,y,1/2-z
-x,y,z
x,-y,1/2+z
1/2+x,1/2+y,z
1/2-x,1/2-y,1/2+z
1/2+x,1/2-y,-z
1/2-x,1/2+y,1/2-z
1/2-x,1/2-y,-z
1/2+x,1/2+y,1/2-z
1/2-x,1/2+y,z
1/2+x,1/2-y,1/2+z
loop_
_atom_site_type_symbol
_atom_site_label
_atom_site_fract_x
_atom_site_fract_y
_atom_site_fract_z
Si Si1 0.453299 0.146846 0.914362
Si Si2 0.793789 0.368417 0.089758
Si Si3 0.716031 0.634287 0.408163
Si Si4 0.569331 0.629196 0.400299
Si Si5 0.359349 0.363700 0.094189
Si Si6 0.627375 0.868633 0.588247
Si Si7 0.500000 0.500000 0.000000
O O1 0.447046 0.119174 0.750000
O O2 0.500000 0.121211 0.953055
O O3 0.449281 0.263568 0.919935
O O4 0.416271 0.113219 0.014324
O O5 0.791636 0.404527 0.250000
O O6 0.788769 0.251461 0.098647
O O7 0.756548 0.393758 0.989477
O O8 0.835830 0.396314 0.015048
O O9 0.716335 0.597756 0.250000
O O10 0.677643 0.606649 0.498780
O O11 0.591039 0.631060 0.250000
O O12 0.599521 0.606461 0.523897
O O13 0.534457 0.553220 0.406813
O O14 0.353873 0.399782 0.250000
O O15 0.364567 0.247006 0.098296
O O16 0.628699 0.904931 0.750000
#
# Coordination Sequence:
#
# PCOD9471836 Si02
#       7
#    16  16  16  16  16  16   4
#     4   9  16  28  42  52  64  86 114 142 174 215
#     4   9  15  22  33  50  70  91 111 130 152 185
#     4   9  15  23  36  52  70  90 108 127 153 188
#     4  10  20  33  45  56  69  85 107 138 178 222
#     4   9  17  28  40  54  69  86 106 130 160 201
#     4   9  16  24  34  50  70  88 108 135 165 196
#     4  12  22  32  48  62  70  84 112 150 190 232
#
# _framework density 22.809702999999999
#
# number of rings (size 3 to 8) (size 9 to 14) (size 15 to 20)
#    0.000    2.720    0.800    2.160    0.000    9.280 
#    0.000    0.000    0.000    0.000    0.000    0.000 
#    0.000    0.000    0.000    0.000    0.000    0.000 
#
# Total GULP energy -278696.357008 kJ/mol
# GULP energy per Si atom -5573.927140 kJ/mol
# Density = 2.275779 g / cm^3
# Si number density = 22.809703 Si / 1000 Ang^3
#
#
#
# Elastic Constant Matrix: (Units=GPa)
#
#
# Indices 1 2 3 4 5 6 
#
# 1 208.5264 -4.1960 132.8616 0.0000 0.0000 0.0000
# 2 -4.1960 64.6514 17.4590 0.0000 0.0000 0.0000
# 3 132.8616 17.4590 224.7414 0.0000 0.0000 0.0000
# 4 0.0000 0.0000 0.0000 -0.2377 0.0000 0.0000
# 5 0.0000 0.0000 0.0000 0.0000 6.8460 0.0000
# 6 0.0000 0.0000 0.0000 0.0000 0.0000 -21.9446
#
#
#
# Elastic Compliance Matrix: (Units=1/GPa)
#
#
# Indices 1 2 3 4 5 6 
#
# 1 0.007896 0.001811 -0.004808 0.000000 0.000000 0.000000
# 2 0.001811 0.016214 -0.002330 0.000000 0.000000 0.000000
# 3 -0.004808 -0.002330 0.007473 0.000000 0.000000 0.000000
# 4 0.000000 0.000000 0.000000 -4.207690 0.000000 0.000000
# 5 0.000000 0.000000 0.000000 0.000000 0.146071 0.000000
# 6 0.000000 0.000000 0.000000 0.000000 0.000000 -0.045569
#
#
# Mechanical properties :
#
#
# Convention : Reuss Voigt Hill
#
# Bulk Modulus (GPa) = 47.78311 87.79649 67.78980
# Shear Modulus (GPa) = -1.23214 20.38571 9.57679
#
# Velocity S-wave (km/s) = -0.73577 2.99277 2.05126
# Velocity P-wave (km/s) = 4.50247 7.10751 5.94933
#
# Compressibility (1/GPa) = 0.02092790
#
# Stress axis : x y z
#
# Youngs Moduli (GPa) = 126.65224 61.67369 133.81183
#
# Poissons Ratio (x) = -0.11169 0.64342
# Poissons Ratio (y) = -0.22936 0.31181
# Poissons Ratio (z) = 0.60899 0.14371
#
# Static dielectric constant tensor:
#      x y z
#    x 1.790960 0.000000 0.000000 
#    y 0.000000 1.910420 0.000000 
#    z 0.000000 0.000000 1.825670 
# 
# From -- ./inp_files/14842.got.cif
#   From: 2010.05.17/outbox.cif.g08.bks.cpg/sg63_8_cif.got.tgz:14842.got - 2010.06.03 15:47:04.
