data_PCOD9471764
_publ_section_title
;
Structure prediction by ZEFSAII (Michael W. Deem and Ramdas Pophale) SiO2 
 PCOD9471764
Probable space group: C M C M
;
_chemical_formula_sum "Si O2"
_cell_formula_units_Z 80
_cell_length_a 16.118910
_cell_length_b 18.731789
_cell_length_c 14.122289
_cell_angle_alpha 90.000000
_cell_angle_beta 90.000000
_cell_angle_gamma 90.000000
_cell_volume 4264.027748
_symmetry_space_group_name_H-M "C M C M"
_symmetry_group_IT_number 63
_symmetry_cell_setting 'orthorhombic'
loop_
_space_group_symop_operation_xyz
x,y,z
-x,-y,1/2+z
x,-y,-z
-x,y,1/2-z
-x,-y,-z
x,y,1/2-z
-x,y,z
x,-y,1/2+z
1/2+x,1/2+y,z
1/2-x,1/2-y,1/2+z
1/2+x,1/2-y,-z
1/2-x,1/2+y,1/2-z
1/2-x,1/2-y,-z
1/2+x,1/2+y,1/2-z
1/2-x,1/2+y,z
1/2+x,1/2-y,1/2+z
loop_
_atom_site_type_symbol
_atom_site_label
_atom_site_fract_x
_atom_site_fract_y
_atom_site_fract_z
Si Si1 0.382208 0.967650 0.856863
Si Si2 0.588085 0.885702 0.044406
Si Si3 0.095209 0.086154 0.863866
Si Si4 0.269461 0.668349 0.524046
Si Si5 0.190177 0.941735 0.858710
O O1 0.406510 0.950818 0.750000
O O2 0.282678 0.974094 0.859038
O O3 0.415005 0.042593 0.893805
O O4 0.407706 0.909289 0.934125
O O5 0.500000 0.846169 0.060036
O O6 0.679218 0.855395 0.062812
O O7 0.096219 0.089519 0.750000
O O8 0.157864 0.146052 0.903571
O O9 0.000000 0.094969 0.896535
O O10 0.129774 0.006567 0.888096
O O11 0.250000 0.750000 0.500000
O O12 0.299564 0.623919 0.430902
O O13 0.170339 0.920338 0.750000
#
# Coordination Sequence:
#
# PCOD9471764 Si02
#       5
#    16  16  16  16  16
#     4   9  16  30  53  78 105 135 170 221 276 323
#     4  10  20  32  48  76 109 139 180 224 266 330
#     4  10  21  39  65  91 113 147 201 258 300 342
#     4  11  23  37  55  81 119 160 192 233 297 357
#     4   9  18  35  58  84 111 145 194 245 291 342
#
# _framework density 18.761603999999998
#
# number of rings (size 3 to 8) (size 9 to 14) (size 15 to 20)
#    0.000    2.200    2.000    1.800    0.000    4.800 
#    0.000    0.000    0.000    0.000    0.000    2.800 
#    0.000    0.000    0.000    0.000    0.000    0.000 
#
# Total GULP energy -222683.437175 kJ/mol
# GULP energy per Si atom -5567.085929 kJ/mol
# Density = 1.871890 g / cm^3
# Si number density = 18.761604 Si / 1000 Ang^3
#
#
#
# Elastic Constant Matrix: (Units=GPa)
#
#
# Indices 1 2 3 4 5 6 
#
# 1 170.3689 44.9760 22.3490 0.0000 0.0000 0.0000
# 2 44.9760 84.3864 13.9733 0.0000 0.0000 0.0000
# 3 22.3490 13.9733 65.5862 0.0000 0.0000 0.0000
# 4 0.0000 0.0000 0.0000 13.5707 0.0000 0.0000
# 5 0.0000 0.0000 0.0000 0.0000 59.1323 0.0000
# 6 0.0000 0.0000 0.0000 0.0000 0.0000 1.2399
#
#
#
# Elastic Compliance Matrix: (Units=1/GPa)
#
#
# Indices 1 2 3 4 5 6 
#
# 1 0.006998 -0.003457 -0.001648 0.000000 0.000000 0.000000
# 2 -0.003457 0.013991 -0.001803 0.000000 0.000000 0.000000
# 3 -0.001648 -0.001803 0.016193 0.000000 0.000000 0.000000
# 4 0.000000 0.000000 0.000000 0.073688 0.000000 0.000000
# 5 0.000000 0.000000 0.000000 0.000000 0.016911 0.000000
# 6 0.000000 0.000000 0.000000 0.000000 0.000000 0.806532
#
#
# Mechanical properties :
#
#
# Convention : Reuss Voigt Hill
#
# Bulk Modulus (GPa) = 42.79671 53.65978 48.22824
# Shear Modulus (GPa) = 5.23057 30.72481 17.97769
#
# Velocity S-wave (km/s) = 1.67152 4.05117 3.09887
# Velocity P-wave (km/s) = 5.15612 7.10954 6.21012
#
# Compressibility (1/GPa) = 0.02336628
#
# Stress axis : x y z
#
# Youngs Moduli (GPa) = 142.88822 71.47284 61.75567
#
# Poissons Ratio (x) = 0.24709 0.10179
# Poissons Ratio (y) = 0.49398 0.11134
# Poissons Ratio (z) = 0.23551 0.12885
#
# Static dielectric constant tensor:
#      x y z
#    x 1.975940 0.000000 0.000000 
#    y 0.000000 1.636190 0.000000 
#    z 0.000000 0.000000 1.680280 
# 
# From -- ./inp_files/31646.got.cif
#   From: 2010.05.17/outbox.cif.g08.bks.cpg/sg63_16_cif.got.tgz:31646.got - 2010.06.03 15:47:04.
