data_PCOD9471392
_publ_section_title
;
Structure prediction by ZEFSAII (Michael W. Deem and Ramdas Pophale) SiO2 
 PCOD9471392
Probable space group: C M C M
;
_chemical_formula_sum "Si O2"
_cell_formula_units_Z 60
_cell_length_a 20.036160
_cell_length_b 16.619679
_cell_length_c 7.473466
_cell_angle_alpha 90.000000
_cell_angle_beta 90.000000
_cell_angle_gamma 90.000000
_cell_volume 2488.623430
_symmetry_space_group_name_H-M "C M C M"
_symmetry_group_IT_number 63
_symmetry_cell_setting 'orthorhombic'
loop_
_space_group_symop_operation_xyz
x,y,z
-x,-y,1/2+z
x,-y,-z
-x,y,1/2-z
-x,-y,-z
x,y,1/2-z
-x,y,z
x,-y,1/2+z
1/2+x,1/2+y,z
1/2-x,1/2-y,1/2+z
1/2+x,1/2-y,-z
1/2-x,1/2+y,1/2-z
1/2-x,1/2-y,-z
1/2+x,1/2+y,1/2-z
1/2-x,1/2+y,z
1/2+x,1/2-y,1/2+z
loop_
_atom_site_type_symbol
_atom_site_label
_atom_site_fract_x
_atom_site_fract_y
_atom_site_fract_z
Si Si1 0.500000 0.932147 0.750000
Si Si2 0.500000 0.594055 0.463911
Si Si3 0.626233 0.304914 0.967597
Si Si4 0.894891 0.380460 0.454357
Si Si5 0.745429 0.412173 0.962520
O O1 0.441790 0.924050 0.594094
O O2 0.500000 0.500000 0.500000
O O3 0.500000 0.604944 0.250000
O O4 0.433682 0.638223 0.530880
O O5 0.628291 0.307323 0.750000
O O6 0.610242 0.213251 0.013064
O O7 0.696512 0.341823 0.028995
O O8 0.920661 0.385423 0.250000
O O9 0.818658 0.409735 0.454905
O O10 0.753542 0.403237 0.750000
O O11 0.714555 0.500000 0.000000
#
# Coordination Sequence:
#
# PCOD9471392 Si02
#       5
#     4   8  16  16  16
#     4  12  24  44  68 100 130 164 222 272 338 398
#     4  10  19  36  55  89 132 173 217 259 322 391
#     4   9  20  38  65  93 133 180 218 266 328 391
#     4  11  23  44  70  98 133 173 221 281 338 392
#     4  11  22  41  65  97 136 177 226 276 331 399
#
# _framework density 24.109715999999999
#
# number of rings (size 3 to 8) (size 9 to 14) (size 15 to 20)
#    0.000    1.600    1.333    3.600    0.000    2.133 
#    9.600    0.667    0.000    0.000    0.000    0.000 
#    0.000    0.000    0.000    0.000    0.000    0.000 
#
# Total GULP energy -167564.497163 kJ/mol
# GULP energy per Si atom -5585.483239 kJ/mol
# Density = 2.405484 g / cm^3
# Si number density = 24.109716 Si / 1000 Ang^3
#
#
#
# Elastic Constant Matrix: (Units=GPa)
#
#
# Indices 1 2 3 4 5 6 
#
# 1 142.5467 29.9460 43.6458 0.0000 0.0000 0.0000
# 2 29.9460 132.1591 21.1334 0.0000 0.0000 0.0000
# 3 43.6458 21.1334 142.0162 0.0000 0.0000 0.0000
# 4 0.0000 0.0000 0.0000 17.3732 0.0000 0.0000
# 5 0.0000 0.0000 0.0000 0.0000 168.2160 0.0000
# 6 0.0000 0.0000 0.0000 0.0000 0.0000 40.1536
#
#
#
# Elastic Compliance Matrix: (Units=1/GPa)
#
#
# Indices 1 2 3 4 5 6 
#
# 1 0.008008 -0.001456 -0.002245 0.000000 0.000000 0.000000
# 2 -0.001456 0.008016 -0.000745 0.000000 0.000000 0.000000
# 3 -0.002245 -0.000745 0.007842 0.000000 0.000000 0.000000
# 4 0.000000 0.000000 0.000000 0.057560 0.000000 0.000000
# 5 0.000000 0.000000 0.000000 0.000000 0.005945 0.000000
# 6 0.000000 0.000000 0.000000 0.000000 0.000000 0.024904
#
#
# Mechanical properties :
#
#
# Convention : Reuss Voigt Hill
#
# Bulk Modulus (GPa) = 66.77878 67.35247 67.06563
# Shear Modulus (GPa) = 39.63282 66.61503 53.12392
#
# Velocity S-wave (km/s) = 4.05884 5.26212 4.69916
# Velocity P-wave (km/s) = 7.05150 8.05707 7.57100
#
# Compressibility (1/GPa) = 0.01497482
#
# Stress axis : x y z
#
# Youngs Moduli (GPa) = 124.87027 124.75546 127.51520
#
# Poissons Ratio (x) = 0.18160 0.28622
# Poissons Ratio (y) = 0.18177 0.09505
# Poissons Ratio (z) = 0.28028 0.09300
#
# Static dielectric constant tensor:
#      x y z
#    x 1.863880 0.000000 0.000000 
#    y 0.000000 1.942730 0.000000 
#    z 0.000000 0.000000 1.889010 
# 
# From -- ./inp_files/7550.got.cif
#   From: 2010.05.17/outbox.cif.g08.bks.cpg/sg63_4_cif.got.tgz:7550.got - 2010.06.03 15:47:04.
