data_PCOD9471466
_publ_section_title
;
Structure prediction by ZEFSAII (Michael W. Deem and Ramdas Pophale) SiO2 
 PCOD9471466
Probable space group: C M C M
;
_chemical_formula_sum "Si O2"
_cell_formula_units_Z 72
_cell_length_a 26.288476
_cell_length_b 17.627144
_cell_length_c 8.477720
_cell_angle_alpha 90.000000
_cell_angle_beta 90.000000
_cell_angle_gamma 90.000000
_cell_volume 3928.497046
_symmetry_space_group_name_H-M "C M C M"
_symmetry_group_IT_number 63
_symmetry_cell_setting 'orthorhombic'
loop_
_space_group_symop_operation_xyz
x,y,z
-x,-y,1/2+z
x,-y,-z
-x,y,1/2-z
-x,-y,-z
x,y,1/2-z
-x,y,z
x,-y,1/2+z
1/2+x,1/2+y,z
1/2-x,1/2-y,1/2+z
1/2+x,1/2-y,-z
1/2-x,1/2+y,1/2-z
1/2-x,1/2-y,-z
1/2+x,1/2+y,1/2-z
1/2-x,1/2+y,z
1/2+x,1/2-y,1/2+z
loop_
_atom_site_type_symbol
_atom_site_label
_atom_site_fract_x
_atom_site_fract_y
_atom_site_fract_z
Si Si1 0.500000 0.412997 0.938552
Si Si2 0.660551 0.922187 0.560875
Si Si3 0.806951 0.740521 0.937067
Si Si4 0.554480 0.132297 0.058567
Si Si5 0.411438 0.697865 0.560600
O O1 0.500000 0.413998 0.750000
O O2 0.500000 0.500000 0.000000
O O3 0.550722 0.367025 0.995476
O O4 0.663981 0.918063 0.750000
O O5 0.681499 0.845598 0.487340
O O6 0.601637 0.917820 0.508504
O O7 0.684096 0.000000 0.500000
O O8 0.807946 0.749476 0.750000
O O9 0.750000 0.750000 0.000000
O O10 0.852371 0.794165 0.005802
O O11 0.553794 0.131132 0.250000
O O12 0.500000 0.107484 0.997388
O O13 0.564805 0.220065 0.015074
O O14 0.411770 0.692304 0.750000
#
# Coordination Sequence:
#
# PCOD9471466 Si02
#       5
#     8  16  16  16  16
#     4  12  24  38  58  88 123 162 203 250 306 366
#     4  10  20  34  53  79 113 150 188 232 284 333
#     4  11  22  39  62  88 115 150 198 245 294 358
#     4   8  14  27  50  77 106 145 184 219 265 322
#     4  10  19  36  60  85 116 153 193 242 296 350
#
# _framework density 18.327621000000001
#
# number of rings (size 3 to 8) (size 9 to 14) (size 15 to 20)
#    0.000    2.000    1.111    5.667    0.000    0.444 
#    0.000    1.111    0.000    0.000    0.000    0.000 
#    0.000    0.000    0.000    0.000    0.000    0.000 
#
# Total GULP energy -200622.640363 kJ/mol
# GULP energy per Si atom -5572.851121 kJ/mol
# Density = 1.828591 g / cm^3
# Si number density = 18.327621 Si / 1000 Ang^3
#
#
#
# Elastic Constant Matrix: (Units=GPa)
#
#
# Indices 1 2 3 4 5 6 
#
# 1 148.5208 59.3933 45.1582 0.0000 0.0000 0.0000
# 2 59.3933 120.9009 38.8066 0.0000 0.0000 0.0000
# 3 45.1582 38.8066 103.9487 0.0000 0.0000 0.0000
# 4 0.0000 0.0000 0.0000 24.5507 0.0000 0.0000
# 5 0.0000 0.0000 0.0000 0.0000 28.4567 0.0000
# 6 0.0000 0.0000 0.0000 0.0000 0.0000 11.6699
#
#
#
# Elastic Compliance Matrix: (Units=1/GPa)
#
#
# Indices 1 2 3 4 5 6 
#
# 1 0.008936 -0.003572 -0.002549 0.000000 0.000000 0.000000
# 2 -0.003572 0.010825 -0.002489 0.000000 0.000000 0.000000
# 3 -0.002549 -0.002489 0.011657 0.000000 0.000000 0.000000
# 4 0.000000 0.000000 0.000000 0.040732 0.000000 0.000000
# 5 0.000000 0.000000 0.000000 0.000000 0.035141 0.000000
# 6 0.000000 0.000000 0.000000 0.000000 0.000000 0.085690
#
#
# Mechanical properties :
#
#
# Convention : Reuss Voigt Hill
#
# Bulk Modulus (GPa) = 70.43318 73.34294 71.88806
# Shear Modulus (GPa) = 23.26287 28.26962 25.76624
#
# Velocity S-wave (km/s) = 3.56656 3.93168 3.75356
# Velocity P-wave (km/s) = 7.44808 7.79201 7.62199
#
# Compressibility (1/GPa) = 0.01419785
#
# Stress axis : x y z
#
# Youngs Moduli (GPa) = 111.90120 92.37809 85.78714
#
# Poissons Ratio (x) = 0.32997 0.21865
# Poissons Ratio (y) = 0.39971 0.21357
# Poissons Ratio (z) = 0.28521 0.22997
#
# Static dielectric constant tensor:
#      x y z
#    x 1.593880 0.000000 0.000000 
#    y 0.000000 1.610680 0.000000 
#    z 0.000000 0.000000 1.628910 
# 
# From -- ./inp_files/11718.got.cif
#   From: 2010.05.17/outbox.cif.g08.bks.cpg/sg63_6_cif.got.tgz:11718.got - 2010.06.03 15:47:04.
