data_PCOD9471048
_publ_section_title
;
Structure prediction by ZEFSAII (Michael W. Deem and Ramdas Pophale) SiO2 
 PCOD9471048
Probable space group: C M C M
;
_chemical_formula_sum "Si O2"
_cell_formula_units_Z 104
_cell_length_a 28.396062
_cell_length_b 23.328484
_cell_length_c 8.600305
_cell_angle_alpha 90.000000
_cell_angle_beta 90.000000
_cell_angle_gamma 90.000000
_cell_volume 5697.160914
_symmetry_space_group_name_H-M "C M C M"
_symmetry_group_IT_number 63
_symmetry_cell_setting 'orthorhombic'
loop_
_space_group_symop_operation_xyz
x,y,z
-x,-y,1/2+z
x,-y,-z
-x,y,1/2-z
-x,-y,-z
x,y,1/2-z
-x,y,z
x,-y,1/2+z
1/2+x,1/2+y,z
1/2-x,1/2-y,1/2+z
1/2+x,1/2-y,-z
1/2-x,1/2+y,1/2-z
1/2-x,1/2-y,-z
1/2+x,1/2+y,1/2-z
1/2-x,1/2+y,z
1/2+x,1/2-y,1/2+z
loop_
_atom_site_type_symbol
_atom_site_label
_atom_site_fract_x
_atom_site_fract_y
_atom_site_fract_z
Si Si1 0.684243 0.140720 0.433552
Si Si2 0.353936 0.622445 0.062917
Si Si3 0.265393 0.561705 0.935468
Si Si4 0.500000 0.935501 0.064115
Si Si5 0.601788 0.064788 0.937643
Si Si6 0.697190 0.259589 0.935430
Si Si7 0.554412 0.435598 0.063326
O O1 0.690373 0.147577 0.250000
O O2 0.731352 0.111755 0.502217
O O3 0.642601 0.098201 0.477211
O O4 0.672542 0.201349 0.511034
O O5 0.353819 0.620572 0.250000
O O6 0.331351 0.683796 0.012808
O O7 0.317484 0.575487 0.997333
O O8 0.405941 0.607105 0.002638
O O9 0.264375 0.560975 0.750000
O O10 0.249511 0.500000 0.000000
O O11 0.500000 0.939845 0.250000
O O12 0.550275 0.909490 0.021116
O O13 0.500000 0.000000 0.000000
O O14 0.608111 0.065597 0.750000
O O15 0.602428 0.000000 0.000000
O O16 0.700623 0.262676 0.750000
O O17 0.750000 0.250000 0.000000
O O18 0.557755 0.436618 0.250000
O O19 0.500000 0.420849 0.021138
O O20 0.563357 0.500000 0.000000
#
# Coordination Sequence:
#
# PCOD9471048 Si02
#       7
#    16  16  16   8  16  16  16
#     4  12  24  38  56  81 113 149 191 236 284 339
#     4  11  23  39  61  88 118 152 195 240 290 350
#     4  12  24  38  57  82 117 153 189 233 285 342
#     4   8  16  30  52  78 106 140 178 222 269 330
#     4  10  19  34  55  82 113 146 185 229 284 340
#     4  11  23  40  62  85 112 150 194 238 282 337
#     4  10  21  38  62  92 125 160 198 243 297 355
#
# _framework density 18.254707
#
# number of rings (size 3 to 8) (size 9 to 14) (size 15 to 20)
#    0.000    1.231    1.538    5.538    0.000    3.385 
#    0.000    0.000    1.692    0.000    0.000    0.000 
#    0.000    0.000    0.000    0.000    0.000    0.000 
#
# Total GULP energy -290374.453072 kJ/mol
# GULP energy per Si atom -5584.124098 kJ/mol
# Density = 1.821316 g / cm^3
# Si number density = 18.254707 Si / 1000 Ang^3
#
#
#
# Elastic Constant Matrix: (Units=GPa)
#
#
# Indices 1 2 3 4 5 6 
#
# 1 123.1246 42.3774 34.1768 0.0000 0.0000 0.0000
# 2 42.3774 97.2850 27.3295 0.0000 0.0000 0.0000
# 3 34.1768 27.3295 77.1202 0.0000 0.0000 0.0000
# 4 0.0000 0.0000 0.0000 28.6964 0.0000 0.0000
# 5 0.0000 0.0000 0.0000 0.0000 22.3041 0.0000
# 6 0.0000 0.0000 0.0000 0.0000 0.0000 16.9278
#
#
#
# Elastic Compliance Matrix: (Units=1/GPa)
#
#
# Indices 1 2 3 4 5 6 
#
# 1 0.010254 -0.003543 -0.003289 0.000000 0.000000 0.000000
# 2 -0.003543 0.012640 -0.002909 0.000000 0.000000 0.000000
# 3 -0.003289 -0.002909 0.015455 0.000000 0.000000 0.000000
# 4 0.000000 0.000000 0.000000 0.034848 0.000000 0.000000
# 5 0.000000 0.000000 0.000000 0.000000 0.044835 0.000000
# 6 0.000000 0.000000 0.000000 0.000000 0.000000 0.059074
#
#
# Mechanical properties :
#
#
# Convention : Reuss Voigt Hill
#
# Bulk Modulus (GPa) = 53.00130 56.14413 54.57271
# Shear Modulus (GPa) = 24.64560 26.49541 25.57050
#
# Velocity S-wave (km/s) = 3.67835 3.81390 3.74674
# Velocity P-wave (km/s) = 6.86569 7.08641 6.97692
#
# Compressibility (1/GPa) = 0.01886746
#
# Stress axis : x y z
#
# Youngs Moduli (GPa) = 97.52172 79.11658 64.70341
#
# Poissons Ratio (x) = 0.28030 0.21279
# Poissons Ratio (y) = 0.34550 0.18823
# Poissons Ratio (z) = 0.32072 0.23016
#
# Static dielectric constant tensor:
#      x y z
#    x 1.666200 0.000000 0.000000 
#    y 0.000000 1.590600 0.000000 
#    z 0.000000 0.000000 1.591490 
# 
# From -- ./inp_files/12609.got.cif
#   From: 2010.05.17/outbox.cif.g08.bks.cpg/sg63_7_cif.got.tgz:12609.got - 2010.06.03 15:47:04.
