data_PCOD9471798
_publ_section_title
;
Structure prediction by ZEFSAII (Michael W. Deem and Ramdas Pophale) SiO2 
 PCOD9471798
Probable space group: C M C M
;
_chemical_formula_sum "Si O2"
_cell_formula_units_Z 48
_cell_length_a 7.452916
_cell_length_b 38.869978
_cell_length_c 7.903968
_cell_angle_alpha 90.000000
_cell_angle_beta 90.000000
_cell_angle_gamma 90.000000
_cell_volume 2289.737488
_symmetry_space_group_name_H-M "C M C M"
_symmetry_group_IT_number 63
_symmetry_cell_setting 'orthorhombic'
loop_
_space_group_symop_operation_xyz
x,y,z
-x,-y,1/2+z
x,-y,-z
-x,y,1/2-z
-x,-y,-z
x,y,1/2-z
-x,y,z
x,-y,1/2+z
1/2+x,1/2+y,z
1/2-x,1/2-y,1/2+z
1/2+x,1/2-y,-z
1/2-x,1/2+y,1/2-z
1/2-x,1/2-y,-z
1/2+x,1/2+y,1/2-z
1/2-x,1/2+y,z
1/2+x,1/2-y,1/2+z
loop_
_atom_site_type_symbol
_atom_site_label
_atom_site_fract_x
_atom_site_fract_y
_atom_site_fract_z
Si Si1 0.215047 0.788880 0.939939
Si Si2 0.719011 0.961658 0.942007
Si Si3 0.784965 0.585223 0.750000
Si Si4 0.285626 0.665934 0.750000
O O1 0.285574 0.794040 0.750000
O O2 0.000000 0.793020 0.931929
O O3 0.250000 0.750000 0.000000
O O4 0.284449 0.815117 0.081798
O O5 0.777843 0.954879 0.750000
O O6 0.500000 0.961248 0.940656
O O7 0.780349 0.934260 0.081520
O O8 0.771434 0.000000 0.000000
O O9 0.746116 0.625456 0.750000
O O10 0.000000 0.581249 0.750000
O O11 0.500000 0.671279 0.750000
#
# Coordination Sequence:
#
# PCOD9471798 Si02
#       4
#    16  16   8   8
#     4  10  20  35  57  81 103 134 176 216 258 310
#     4   9  15  26  47  75 103 130 165 213 262 302
#     4  10  20  32  50  78 105 132 171 215 256 301
#     4  10  22  38  52  74 111 144 167 205 264 315
#
# _framework density 20.963101000000002
#
# number of rings (size 3 to 8) (size 9 to 14) (size 15 to 20)
#    0.000    2.333    3.333    0.000    0.000    2.667 
#    0.000    0.000    0.000    1.000    0.000    0.000 
#    0.000    0.000    0.000    0.000    0.000    0.000 
#
# Total GULP energy -134059.678149 kJ/mol
# GULP energy per Si atom -5585.819923 kJ/mol
# Density = 2.091539 g / cm^3
# Si number density = 20.963101 Si / 1000 Ang^3
#
#
#
# Elastic Constant Matrix: (Units=GPa)
#
#
# Indices 1 2 3 4 5 6 
#
# 1 63.5929 -6.7840 12.7443 0.0000 0.0000 0.0000
# 2 -6.7840 198.1480 144.8654 0.0000 0.0000 0.0000
# 3 12.7443 144.8654 282.8724 0.0000 0.0000 0.0000
# 4 0.0000 0.0000 0.0000 39.8843 0.0000 0.0000
# 5 0.0000 0.0000 0.0000 0.0000 -2.5891 0.0000
# 6 0.0000 0.0000 0.0000 0.0000 0.0000 14.1271
#
#
#
# Elastic Compliance Matrix: (Units=1/GPa)
#
#
# Indices 1 2 3 4 5 6 
#
# 1 0.016237 0.001743 -0.001624 0.000000 0.000000 0.000000
# 2 0.001743 0.008254 -0.004306 0.000000 0.000000 0.000000
# 3 -0.001624 -0.004306 0.005813 0.000000 0.000000 0.000000
# 4 0.000000 0.000000 0.000000 0.025073 0.000000 0.000000
# 5 0.000000 0.000000 0.000000 0.000000 -0.386237 0.000000
# 6 0.000000 0.000000 0.000000 0.000000 0.000000 0.070786
#
#
# Mechanical properties :
#
#
# Convention : Reuss Voigt Hill
#
# Bulk Modulus (GPa) = 45.59770 94.02941 69.81356
# Shear Modulus (GPa) = -20.45904 36.53697 8.03896
#
# Velocity S-wave (km/s) = -3.12742 4.17936 1.96039
# Velocity P-wave (km/s) = 2.95933 8.26084 6.20480
#
# Compressibility (1/GPa) = 0.02193093
#
# Stress axis : x y z
#
# Youngs Moduli (GPa) = 61.58949 121.14770 172.01493
#
# Poissons Ratio (x) = -0.21122 0.27942
# Poissons Ratio (y) = -0.10738 0.74066
# Poissons Ratio (z) = 0.10004 0.52164
#
# Static dielectric constant tensor:
#      x y z
#    x 1.817110 0.000000 0.000000 
#    y 0.000000 1.681910 0.000000 
#    z 0.000000 0.000000 1.759240 
# 
# From -- ./inp_files/2010.got.cif
#   From: 2010.05.17/outbox.cif.g08.bks.cpg/sg63_2_cif.got.tgz:2010.got - 2010.06.03 15:47:04.
