data_PCOD9471932
_publ_section_title
;
Structure prediction by ZEFSAII (Michael W. Deem and Ramdas Pophale) SiO2 
 PCOD9471932
Probable space group: C M C M
;
_chemical_formula_sum "Si O2"
_cell_formula_units_Z 80
_cell_length_a 9.253746
_cell_length_b 27.274786
_cell_length_c 18.600722
_cell_angle_alpha 90.000000
_cell_angle_beta 90.000000
_cell_angle_gamma 90.000000
_cell_volume 4694.709547
_symmetry_space_group_name_H-M "C M C M"
_symmetry_group_IT_number 63
_symmetry_cell_setting 'orthorhombic'
loop_
_space_group_symop_operation_xyz
x,y,z
-x,-y,1/2+z
x,-y,-z
-x,y,1/2-z
-x,-y,-z
x,y,1/2-z
-x,y,z
x,-y,1/2+z
1/2+x,1/2+y,z
1/2-x,1/2-y,1/2+z
1/2+x,1/2-y,-z
1/2-x,1/2+y,1/2-z
1/2-x,1/2-y,-z
1/2+x,1/2+y,1/2-z
1/2-x,1/2+y,z
1/2+x,1/2-y,1/2+z
loop_
_atom_site_type_symbol
_atom_site_label
_atom_site_fract_x
_atom_site_fract_y
_atom_site_fract_z
Si Si1 0.171216 0.158401 0.833227
Si Si2 0.673478 0.548854 0.333733
Si Si3 0.670626 0.554397 0.907709
Si Si4 0.671629 0.796387 0.465660
Si Si5 0.671238 0.900601 0.959304
O O1 0.209369 0.164995 0.750000
O O2 0.192455 0.101752 0.856868
O O3 0.262568 0.191175 0.887718
O O4 0.000000 0.168770 0.842053
O O5 0.713209 0.551774 0.250000
O O6 0.500000 0.554928 0.339141
O O7 0.708486 0.495139 0.366011
O O8 0.753414 0.587602 0.384116
O O9 0.500000 0.552292 0.926300
O O10 0.760045 0.564176 0.979849
O O11 0.500000 0.788645 0.461477
O O12 0.750000 0.750000 0.500000
O O13 0.698023 0.845225 0.513431
O O14 0.500000 0.908328 0.955079
#
# Coordination Sequence:
#
# PCOD9471932 Si02
#       5
#    16  16  16  16  16
#     4   9  17  31  53  80 107 133 163 204 254 302
#     4  10  20  33  50  74 104 138 175 209 240 283
#     4   9  17  31  52  76 103 136 171 205 242 289
#     4  10  21  37  56  76  99 130 169 212 257 306
#     4  10  21  35  51  74 102 131 166 208 253 301
#
# _framework density 17.040458999999998
#
# number of rings (size 3 to 8) (size 9 to 14) (size 15 to 20)
#    0.000    2.400    0.000    2.400    0.000    8.800 
#    0.000    1.000    0.000    4.800    0.000    0.000 
#    0.000    0.000    0.000    0.000    0.000    0.000 
#
# Total GULP energy -223263.054951 kJ/mol
# GULP energy per Si atom -5581.576374 kJ/mol
# Density = 1.700167 g / cm^3
# Si number density = 17.040459 Si / 1000 Ang^3
#
#
#
# Elastic Constant Matrix: (Units=GPa)
#
#
# Indices 1 2 3 4 5 6 
#
# 1 62.7833 59.1944 80.6520 0.0000 0.0000 0.0000
# 2 59.1944 72.5040 73.3703 0.0000 0.0000 0.0000
# 3 80.6520 73.3703 165.4296 0.0000 0.0000 0.0000
# 4 0.0000 0.0000 0.0000 20.0224 0.0000 0.0000
# 5 0.0000 0.0000 0.0000 0.0000 23.6552 0.0000
# 6 0.0000 0.0000 0.0000 0.0000 0.0000 26.3575
#
#
#
# Elastic Compliance Matrix: (Units=1/GPa)
#
#
# Indices 1 2 3 4 5 6 
#
# 1 0.102743 -0.060222 -0.023381 0.000000 0.000000 0.000000
# 2 -0.060222 0.060321 0.002607 0.000000 0.000000 0.000000
# 3 -0.023381 0.002607 0.016288 0.000000 0.000000 0.000000
# 4 0.000000 0.000000 0.000000 0.049944 0.000000 0.000000
# 5 0.000000 0.000000 0.000000 0.000000 0.042274 0.000000
# 6 0.000000 0.000000 0.000000 0.000000 0.000000 0.037940
#
#
# Mechanical properties :
#
#
# Convention : Reuss Voigt Hill
#
# Bulk Modulus (GPa) = 57.60548 80.79449 69.19998
# Shear Modulus (GPa) = 10.47583 19.84036 15.15810
#
# Velocity S-wave (km/s) = 2.48213 3.41590 2.98574
# Velocity P-wave (km/s) = 6.48792 7.94192 7.25146
#
# Compressibility (1/GPa) = 0.01735946
#
# Stress axis : x y z
#
# Youngs Moduli (GPa) = 9.73304 16.57786 61.39565
#
# Poissons Ratio (x) = 0.99835 1.43550
# Poissons Ratio (y) = 0.58614 -0.16003
# Poissons Ratio (z) = 0.22757 -0.04321
#
# Static dielectric constant tensor:
#      x y z
#    x 1.564620 0.000000 0.000000 
#    y 0.000000 1.563410 0.000000 
#    z 0.000000 0.000000 1.556580 
# 
# From -- ./inp_files/40414.got.cif
#   From: 2010.05.17/outbox.cif.g08.bks.cpg/sg63_21_cif.got.tgz:40414.got - 2010.06.03 15:47:04.
