data_PCOD9471689
_publ_section_title
;
Structure prediction by ZEFSAII (Michael W. Deem and Ramdas Pophale) SiO2 
 PCOD9471689
Probable space group: C M C M
;
_chemical_formula_sum "Si O2"
_cell_formula_units_Z 88
_cell_length_a 18.470771
_cell_length_b 30.159976
_cell_length_c 7.483637
_cell_angle_alpha 90.000000
_cell_angle_beta 90.000000
_cell_angle_gamma 90.000000
_cell_volume 4168.969608
_symmetry_space_group_name_H-M "C M C M"
_symmetry_group_IT_number 63
_symmetry_cell_setting 'orthorhombic'
loop_
_space_group_symop_operation_xyz
x,y,z
-x,-y,1/2+z
x,-y,-z
-x,y,1/2-z
-x,-y,-z
x,y,1/2-z
-x,y,z
x,-y,1/2+z
1/2+x,1/2+y,z
1/2-x,1/2-y,1/2+z
1/2+x,1/2-y,-z
1/2-x,1/2+y,1/2-z
1/2-x,1/2-y,-z
1/2+x,1/2+y,1/2-z
1/2-x,1/2+y,z
1/2+x,1/2-y,1/2+z
loop_
_atom_site_type_symbol
_atom_site_label
_atom_site_fract_x
_atom_site_fract_y
_atom_site_fract_z
Si Si1 0.000000 0.947989 0.464135
Si Si2 0.911880 0.712422 0.543673
Si Si3 0.354957 0.401913 0.462324
Si Si4 0.083297 0.191211 0.034497
Si Si5 0.709503 0.052151 0.964128
Si Si6 0.416843 0.115358 0.530740
O O1 0.927193 0.925346 0.535733
O O2 0.000000 0.941406 0.250000
O O3 0.000000 0.000000 0.500000
O O4 0.887314 0.712380 0.750000
O O5 0.891997 0.760384 0.466206
O O6 0.891713 0.664410 0.468523
O O7 0.000000 0.712552 0.544332
O O8 0.354215 0.410123 0.250000
O O9 0.365586 0.349585 0.488035
O O10 0.281691 0.423597 0.534023
O O11 0.080117 0.194161 0.250000
O O12 0.000000 0.182479 0.973284
O O13 0.709145 0.057406 0.750000
O O14 0.637917 0.077461 0.029040
O O15 0.710318 0.000000 0.000000
O O16 0.417461 0.116748 0.750000
O O17 0.500000 0.108053 0.475898
#
# Coordination Sequence:
#
# PCOD9471689 Si02
#       6
#     8  16  16  16  16  16
#     4  10  20  32  46  62  84 120 162 200 235 272
#     4   7  11  22  43  71  98 121 151 192 232 273
#     4  10  20  33  46  65  96 130 161 194 238 287
#     4   9  16  27  47  74  97 122 160 200 234 271
#     4  10  21  35  51  71  95 125 160 199 243 286
#     4   8  14  28  51  75  97 123 156 193 235 286
#
# _framework density 21.108332999999998
#
# number of rings (size 3 to 8) (size 9 to 14) (size 15 to 20)
#    0.000    3.091    0.909    2.727    0.000    1.818 
#    0.000    0.909    0.000    1.091    0.000    2.545 
#    0.000    0.000    0.000    0.000    0.000    0.000 
#
# Total GULP energy -245349.194419 kJ/mol
# GULP energy per Si atom -5576.118055 kJ/mol
# Density = 2.106029 g / cm^3
# Si number density = 21.108333 Si / 1000 Ang^3
#
#
#
# Elastic Constant Matrix: (Units=GPa)
#
#
# Indices 1 2 3 4 5 6 
#
# 1 128.7550 114.3845 9.0426 0.0000 0.0000 0.0000
# 2 114.3845 198.0398 -2.4085 0.0000 0.0000 0.0000
# 3 9.0426 -2.4085 55.9363 0.0000 0.0000 0.0000
# 4 0.0000 0.0000 0.0000 -79.8531 0.0000 0.0000
# 5 0.0000 0.0000 0.0000 0.0000 -70.7564 0.0000
# 6 0.0000 0.0000 0.0000 0.0000 0.0000 19.5203
#
#
#
# Elastic Compliance Matrix: (Units=1/GPa)
#
#
# Indices 1 2 3 4 5 6 
#
# 1 0.016463 -0.009546 -0.003073 0.000000 0.000000 0.000000
# 2 -0.009546 0.010588 0.001999 0.000000 0.000000 0.000000
# 3 -0.003073 0.001999 0.018460 0.000000 0.000000 0.000000
# 4 0.000000 0.000000 0.000000 -0.012523 0.000000 0.000000
# 5 0.000000 0.000000 0.000000 0.000000 -0.014133 0.000000
# 6 0.000000 0.000000 0.000000 0.000000 0.000000 0.051229
#
#
# Mechanical properties :
#
#
# Convention : Reuss Voigt Hill
#
# Bulk Modulus (GPa) = 41.20002 69.41868 55.30935
# Shear Modulus (GPa) = 50.29485 -8.77034 20.76226
#
# Velocity S-wave (km/s) = 4.88659 -2.04057 3.13965
# Velocity P-wave (km/s) = 7.16931 5.23511 6.27716
#
# Compressibility (1/GPa) = 0.02427184
#
# Stress axis : x y z
#
# Youngs Moduli (GPa) = 60.74118 94.45028 54.17039
#
# Poissons Ratio (x) = 0.90165 0.16644
# Poissons Ratio (y) = 0.57985 -0.10829
# Poissons Ratio (z) = 0.18663 -0.18882
#
# Static dielectric constant tensor:
#      x y z
#    x 1.742710 0.000000 0.000000 
#    y 0.000000 1.765430 0.000000 
#    z 0.000000 0.000000 1.802730 
# 
# From -- ./inp_files/6813.got.cif
#   From: 2010.05.17/outbox.cif.g08.bks.cpg/sg63_4_cif.got.tgz:6813.got - 2010.06.03 15:47:04.
