data_PCOD9471698
_publ_section_title
;
Structure prediction by ZEFSAII (Michael W. Deem and Ramdas Pophale) SiO2 
 PCOD9471698
Probable space group: C M C M
;
_chemical_formula_sum "Si O2"
_cell_formula_units_Z 96
_cell_length_a 24.179494
_cell_length_b 25.089984
_cell_length_c 8.621679
_cell_angle_alpha 90.000000
_cell_angle_beta 90.000000
_cell_angle_gamma 90.000000
_cell_volume 5230.454661
_symmetry_space_group_name_H-M "C M C M"
_symmetry_group_IT_number 63
_symmetry_cell_setting 'orthorhombic'
loop_
_space_group_symop_operation_xyz
x,y,z
-x,-y,1/2+z
x,-y,-z
-x,y,1/2-z
-x,-y,-z
x,y,1/2-z
-x,y,z
x,-y,1/2+z
1/2+x,1/2+y,z
1/2-x,1/2-y,1/2+z
1/2+x,1/2-y,-z
1/2-x,1/2+y,1/2-z
1/2-x,1/2-y,-z
1/2+x,1/2+y,1/2-z
1/2-x,1/2+y,z
1/2+x,1/2-y,1/2+z
loop_
_atom_site_type_symbol
_atom_site_label
_atom_site_fract_x
_atom_site_fract_y
_atom_site_fract_z
Si Si1 0.855050 0.942094 0.935932
Si Si2 0.139304 0.359538 0.430977
Si Si3 0.434079 0.943949 0.572762
Si Si4 0.563199 0.234308 0.937611
Si Si5 0.436587 0.646978 0.564553
Si Si6 0.273044 0.058457 0.064743
O O1 0.857441 0.942796 0.750000
O O2 0.790922 0.933309 0.983183
O O3 0.894061 0.895984 0.999903
O O4 0.871778 0.000000 0.000000
O O5 0.152341 0.353476 0.250000
O O6 0.088127 0.399072 0.459824
O O7 0.113230 0.304051 0.491976
O O8 0.189353 0.392158 0.509274
O O9 0.413339 0.937569 0.750000
O O10 0.500000 0.942508 0.578577
O O11 0.417253 0.000000 0.500000
O O12 0.563306 0.232361 0.750000
O O13 0.500000 0.218677 0.987937
O O14 0.572499 0.294442 0.993558
O O15 0.431835 0.650282 0.750000
O O16 0.500000 0.631561 0.526156
O O17 0.275326 0.055492 0.250000
O O18 0.289958 0.000000 0.000000
#
# Coordination Sequence:
#
# PCOD9471698 Si02
#       6
#    16  16  16  16  16  16
#     4  10  21  38  61  86 113 145 179 218 265 319
#     4  11  21  33  52  76 103 139 183 227 272 323
#     4  10  20  32  46  66  95 131 172 223 279 328
#     4   9  19  36  56  78 107 144 184 226 272 321
#     4  10  21  37  59  87 116 144 175 215 265 321
#     4  10  21  37  56  79 108 143 184 228 274 322
#
# _framework density 18.354044999999999
#
# number of rings (size 3 to 8) (size 9 to 14) (size 15 to 20)
#    0.000    2.000    0.000    3.500    0.000    6.333 
#    0.000    2.500    0.000    0.000    0.000    0.000 
#    0.000    0.000    0.000    0.000    0.000    0.000 
#
# Total GULP energy -267757.694116 kJ/mol
# GULP energy per Si atom -5578.285294 kJ/mol
# Density = 1.831227 g / cm^3
# Si number density = 18.354045 Si / 1000 Ang^3
#
#
#
# Elastic Constant Matrix: (Units=GPa)
#
#
# Indices 1 2 3 4 5 6 
#
# 1 107.3226 79.9578 23.6441 0.0000 0.0000 0.0000
# 2 79.9578 118.6471 18.9481 0.0000 0.0000 0.0000
# 3 23.6441 18.9481 26.8249 0.0000 0.0000 0.0000
# 4 0.0000 0.0000 0.0000 28.8635 0.0000 0.0000
# 5 0.0000 0.0000 0.0000 0.0000 9.6337 0.0000
# 6 0.0000 0.0000 0.0000 0.0000 0.0000 38.5822
#
#
#
# Elastic Compliance Matrix: (Units=1/GPa)
#
#
# Indices 1 2 3 4 5 6 
#
# 1 0.020632 -0.012398 -0.009428 0.000000 0.000000 0.000000
# 2 -0.012398 0.016951 -0.001045 0.000000 0.000000 0.000000
# 3 -0.009428 -0.001045 0.046327 0.000000 0.000000 0.000000
# 4 0.000000 0.000000 0.000000 0.034646 0.000000 0.000000
# 5 0.000000 0.000000 0.000000 0.000000 0.103802 0.000000
# 6 0.000000 0.000000 0.000000 0.000000 0.000000 0.025919
#
#
# Mechanical properties :
#
#
# Convention : Reuss Voigt Hill
#
# Bulk Modulus (GPa) = 26.20062 55.32162 40.76112
# Shear Modulus (GPa) = 16.30041 24.09884 20.19963
#
# Velocity S-wave (km/s) = 2.98335 3.62746 3.32106
# Velocity P-wave (km/s) = 5.11598 6.91024 6.07967
#
# Compressibility (1/GPa) = 0.03816703
#
# Stress axis : x y z
#
# Youngs Moduli (GPa) = 48.46878 58.99447 21.58584
#
# Poissons Ratio (x) = 0.73144 0.20350
# Poissons Ratio (y) = 0.60094 0.02256
# Poissons Ratio (z) = 0.45694 0.06165
#
# Static dielectric constant tensor:
#      x y z
#    x 1.652410 0.000000 0.000000 
#    y 0.000000 1.587940 0.000000 
#    z 0.000000 0.000000 1.631150 
# 
# From -- ./inp_files/10476.got.cif
#   From: 2010.05.17/outbox.cif.g08.bks.cpg/sg63_6_cif.got.tgz:10476.got - 2010.06.03 15:47:04.
