data_PCOD9471580
_publ_section_title
;
Structure prediction by ZEFSAII (Michael W. Deem and Ramdas Pophale) SiO2 
 PCOD9471580
Probable space group: C M C M
;
_chemical_formula_sum "Si O2"
_cell_formula_units_Z 72
_cell_length_a 7.619708
_cell_length_b 17.328725
_cell_length_c 22.601392
_cell_angle_alpha 90.000000
_cell_angle_beta 90.000000
_cell_angle_gamma 90.000000
_cell_volume 2984.283833
_symmetry_space_group_name_H-M "C M C M"
_symmetry_group_IT_number 63
_symmetry_cell_setting 'orthorhombic'
loop_
_space_group_symop_operation_xyz
x,y,z
-x,-y,1/2+z
x,-y,-z
-x,y,1/2-z
-x,-y,-z
x,y,1/2-z
-x,y,z
x,-y,1/2+z
1/2+x,1/2+y,z
1/2-x,1/2-y,1/2+z
1/2+x,1/2-y,-z
1/2-x,1/2+y,1/2-z
1/2-x,1/2-y,-z
1/2+x,1/2+y,1/2-z
1/2-x,1/2+y,z
1/2+x,1/2-y,1/2+z
loop_
_atom_site_type_symbol
_atom_site_label
_atom_site_fract_x
_atom_site_fract_y
_atom_site_fract_z
Si Si1 0.703859 0.599693 0.840742
Si Si2 0.288765 0.422109 0.815289
Si Si3 0.292948 0.415511 0.481781
Si Si4 0.500000 0.790817 0.358708
Si Si5 0.810477 0.307566 0.583701
O O1 0.500000 0.616229 0.826919
O O2 0.742828 0.513321 0.818265
O O3 0.727787 0.593172 0.912019
O O4 0.844109 0.662641 0.822546
O O5 0.240253 0.392681 0.750000
O O6 0.500000 0.410544 0.822216
O O7 0.198711 0.376698 0.868082
O O8 0.224243 0.500000 0.500000
O O9 0.500000 0.414616 0.496412
O O10 0.209906 0.347884 0.520231
O O11 0.652750 0.746369 0.397582
O O12 0.000000 0.267801 0.586571
#
# Coordination Sequence:
#
# PCOD9471580 Si02
#       5
#    16  16  16   8  16
#     4  10  23  42  67  99 137 176 223 272 337 403
#     4  10  21  44  75 102 128 168 225 282 328 395
#     4  10  19  38  67  96 136 177 221 277 332 395
#     4  12  26  46  63  98 144 180 213 280 342 394
#     4  12  25  42  67  98 138 179 226 270 333 402
#
# _framework density 24.126393
#
# number of rings (size 3 to 8) (size 9 to 14) (size 15 to 20)
#    0.000    1.333    4.444    0.667    3.111    1.778 
#    0.000    2.222    0.000    2.667    0.000    0.000 
#    0.000    0.000    0.000    0.000    0.000    0.000 
#
# Total GULP energy -200565.264429 kJ/mol
# GULP energy per Si atom -5571.257345 kJ/mol
# Density = 2.407148 g / cm^3
# Si number density = 24.126393 Si / 1000 Ang^3
#
#
#
# Elastic Constant Matrix: (Units=GPa)
#
#
# Indices 1 2 3 4 5 6 
#
# 1 135.8761 31.6672 34.0314 0.0000 0.0000 0.0000
# 2 31.6672 57.8951 12.6191 0.0000 0.0000 0.0000
# 3 34.0314 12.6191 82.2402 0.0000 0.0000 0.0000
# 4 0.0000 0.0000 0.0000 -38.1968 0.0000 0.0000
# 5 0.0000 0.0000 0.0000 0.0000 -386.5225 0.0000
# 6 0.0000 0.0000 0.0000 0.0000 0.0000 21.3801
#
#
#
# Elastic Compliance Matrix: (Units=1/GPa)
#
#
# Indices 1 2 3 4 5 6 
#
# 1 0.009149 -0.004324 -0.003123 0.000000 0.000000 0.000000
# 2 -0.004324 0.019914 -0.001266 0.000000 0.000000 0.000000
# 3 -0.003123 -0.001266 0.013646 0.000000 0.000000 0.000000
# 4 0.000000 0.000000 0.000000 -0.026180 0.000000 0.000000
# 5 0.000000 0.000000 0.000000 0.000000 -0.002587 0.000000
# 6 0.000000 0.000000 0.000000 0.000000 0.000000 0.046772
#
#
# Mechanical properties :
#
#
# Convention : Reuss Voigt Hill
#
# Bulk Modulus (GPa) = 39.55167 48.07187 43.81177
# Shear Modulus (GPa) = 57.75827 -67.48824 -4.86499
#
# Velocity S-wave (km/s) = 4.89815 -5.29467 -1.42156
# Velocity P-wave (km/s) = 6.95832 4.17250 3.93754
#
# Compressibility (1/GPa) = 0.02528338
#
# Stress axis : x y z
#
# Youngs Moduli (GPa) = 109.29599 50.21670 73.28164
#
# Poissons Ratio (x) = 0.21713 0.22883
# Poissons Ratio (y) = 0.47259 0.09280
# Poissons Ratio (z) = 0.34129 0.06359
#
# Static dielectric constant tensor:
#      x y z
#    x 1.896070 0.000000 0.000000 
#    y 0.000000 1.948780 0.000000 
#    z 0.000000 0.000000 2.023510 
# 
# From -- ./inp_files/59309.got.cif
#   From: 2010.05.17/outbox.cif.g08.bks.cpg/sg63_30_cif.got.tgz:59309.got - 2010.06.03 15:47:04.
