data_PCOD9471768
_publ_section_title
;
Structure prediction by ZEFSAII (Michael W. Deem and Ramdas Pophale) SiO2 
 PCOD9471768
Probable space group: C M C M
;
_chemical_formula_sum "Si O2"
_cell_formula_units_Z 96
_cell_length_a 25.721786
_cell_length_b 25.707711
_cell_length_c 8.821329
_cell_angle_alpha 90.000000
_cell_angle_beta 90.000000
_cell_angle_gamma 90.000000
_cell_volume 5833.088284
_symmetry_space_group_name_H-M "C M C M"
_symmetry_group_IT_number 63
_symmetry_cell_setting 'orthorhombic'
loop_
_space_group_symop_operation_xyz
x,y,z
-x,-y,1/2+z
x,-y,-z
-x,y,1/2-z
-x,-y,-z
x,y,1/2-z
-x,y,z
x,-y,1/2+z
1/2+x,1/2+y,z
1/2-x,1/2-y,1/2+z
1/2+x,1/2-y,-z
1/2-x,1/2+y,1/2-z
1/2-x,1/2-y,-z
1/2+x,1/2+y,1/2-z
1/2-x,1/2+y,z
1/2+x,1/2-y,1/2+z
loop_
_atom_site_type_symbol
_atom_site_label
_atom_site_fract_x
_atom_site_fract_y
_atom_site_fract_z
Si Si1 0.257761 0.445690 0.430065
Si Si2 0.169562 0.251319 0.068659
Si Si3 0.750595 0.334118 0.931392
Si Si4 0.441811 0.252331 0.074302
Si Si5 0.559145 0.377100 0.418053
Si Si6 0.870905 0.950558 0.574550
O O1 0.236186 0.500000 0.500000
O O2 0.252419 0.447284 0.250000
O O3 0.239100 0.390215 0.494441
O O4 0.318044 0.445041 0.480782
O O5 0.174339 0.256416 0.250000
O O6 0.195547 0.194821 0.028011
O O7 0.205661 0.293780 0.986578
O O8 0.110104 0.260099 0.018702
O O9 0.751165 0.340014 0.750000
O O10 0.436051 0.235214 0.250000
O O11 0.500000 0.235647 0.021333
O O12 0.442364 0.315066 0.076116
O O13 0.578955 0.392411 0.250000
O O14 0.500000 0.395792 0.432218
O O15 0.594437 0.400513 0.547423
O O16 0.858995 0.958756 0.750000
O O17 0.899236 0.000000 0.500000
#
# Coordination Sequence:
#
# PCOD9471768 Si02
#       6
#    16  16  16  16  16  16
#     4  11  21  34  51  70  94 123 157 195 237 286
#     4  10  20  32  49  74 101 131 165 202 245 291
#     4  10  20  34  51  73 101 131 164 202 245 293
#     4   9  18  32  49  68  92 124 158 193 237 287
#     4   9  18  32  47  62  82 111 149 192 237 282
#     4  11  21  32  45  61  82 111 149 191 236 282
#
# _framework density 16.457833999999998
#
# number of rings (size 3 to 8) (size 9 to 14) (size 15 to 20)
#    0.000    2.000    0.000    7.000    0.000    6.333 
#    0.000    1.667    0.000    0.000    0.000    0.000 
#    0.000    0.667    0.000    2.500    0.000    3.833 
#
# Total GULP energy -267496.868659 kJ/mol
# GULP energy per Si atom -5572.851430 kJ/mol
# Density = 1.642037 g / cm^3
# Si number density = 16.457834 Si / 1000 Ang^3
#
#
#
# Elastic Constant Matrix: (Units=GPa)
#
#
# Indices 1 2 3 4 5 6 
#
# 1 62.5009 16.1834 23.6166 0.0000 0.0000 0.0000
# 2 16.1834 84.4667 39.7061 0.0000 0.0000 0.0000
# 3 23.6166 39.7061 93.5036 0.0000 0.0000 0.0000
# 4 0.0000 0.0000 0.0000 26.5966 0.0000 0.0000
# 5 0.0000 0.0000 0.0000 0.0000 21.5661 0.0000
# 6 0.0000 0.0000 0.0000 0.0000 0.0000 15.5347
#
#
#
# Elastic Compliance Matrix: (Units=1/GPa)
#
#
# Indices 1 2 3 4 5 6 
#
# 1 0.017865 -0.001626 -0.003822 0.000000 0.000000 0.000000
# 2 -0.001626 0.014940 -0.005933 0.000000 0.000000 0.000000
# 3 -0.003822 -0.005933 0.014180 0.000000 0.000000 0.000000
# 4 0.000000 0.000000 0.000000 0.037599 0.000000 0.000000
# 5 0.000000 0.000000 0.000000 0.000000 0.046369 0.000000
# 6 0.000000 0.000000 0.000000 0.000000 0.000000 0.064372
#
#
# Mechanical properties :
#
#
# Convention : Reuss Voigt Hill
#
# Bulk Modulus (GPa) = 41.28541 44.38704 42.83623
# Shear Modulus (GPa) = 22.10818 23.47048 22.78933
#
# Velocity S-wave (km/s) = 3.66911 3.78047 3.72521
# Velocity P-wave (km/s) = 6.56429 6.78857 6.67737
#
# Compressibility (1/GPa) = 0.02422163
#
# Stress axis : x y z
#
# Youngs Moduli (GPa) = 55.97569 66.93550 70.52385
#
# Poissons Ratio (x) = 0.10886 0.26951
# Poissons Ratio (y) = 0.09104 0.41844
# Poissons Ratio (z) = 0.21391 0.39715
#
# Static dielectric constant tensor:
#      x y z
#    x 1.562160 0.000000 0.000000 
#    y 0.000000 1.611660 0.000000 
#    z 0.000000 0.000000 1.602460 
# 
# From -- ./inp_files/10403.got.cif
#   From: 2010.05.17/outbox.cif.g08.bks.cpg/sg63_6_cif.got.tgz:10403.got - 2010.06.03 15:47:04.
