data_PCOD9471042
_publ_section_title
;
Structure prediction by ZEFSAII (Michael W. Deem and Ramdas Pophale) SiO2 
 PCOD9471042
Probable space group: C M C M
;
_chemical_formula_sum "Si O2"
_cell_formula_units_Z 116
_cell_length_a 7.901536
_cell_length_b 24.711031
_cell_length_c 31.077482
_cell_angle_alpha 90.000000
_cell_angle_beta 90.000000
_cell_angle_gamma 90.000000
_cell_volume 6068.036888
_symmetry_space_group_name_H-M "C M C M"
_symmetry_group_IT_number 63
_symmetry_cell_setting 'orthorhombic'
loop_
_space_group_symop_operation_xyz
x,y,z
-x,-y,1/2+z
x,-y,-z
-x,y,1/2-z
-x,-y,-z
x,y,1/2-z
-x,y,z
x,-y,1/2+z
1/2+x,1/2+y,z
1/2-x,1/2-y,1/2+z
1/2+x,1/2-y,-z
1/2-x,1/2+y,1/2-z
1/2-x,1/2-y,-z
1/2+x,1/2+y,1/2-z
1/2-x,1/2+y,z
1/2+x,1/2-y,1/2+z
loop_
_atom_site_type_symbol
_atom_site_label
_atom_site_fract_x
_atom_site_fract_y
_atom_site_fract_z
Si Si1 0.194775 0.741781 0.685985
Si Si2 0.696637 0.656128 0.873947
Si Si3 0.798105 0.852949 0.856277
Si Si4 0.000000 0.213333 0.750000
Si Si5 0.294810 0.075055 0.701504
Si Si6 0.298224 0.696519 0.444707
Si Si7 0.297299 0.049430 0.297575
Si Si8 0.701563 0.818466 0.037636
O O1 0.198759 0.708394 0.641623
O O2 0.239184 0.803988 0.676652
O O3 0.347047 0.717157 0.713519
O O4 0.000000 0.737873 0.702194
O O5 0.500000 0.669062 0.874288
O O6 0.731005 0.610832 0.837846
O O7 0.748973 0.643379 0.922686
O O8 0.729467 0.835026 0.902991
O O9 0.744612 0.909049 0.835099
O O10 0.000000 0.855051 0.859964
O O11 0.238973 0.092717 0.750000
O O12 0.500000 0.077925 0.701409
O O13 0.240787 0.012577 0.696047
O O14 0.500000 0.701455 0.438854
O O15 0.230345 0.757850 0.450848
O O16 0.266568 0.667482 0.490229
O O17 0.235005 0.067605 0.250000
O O18 0.500000 0.046944 0.295235
O O19 0.500000 0.815776 0.035083
#
# Coordination Sequence:
#
# PCOD9471042 Si02
#       8
#    16  16  16   4  16  16  16  16
#     4  11  24  40  55  82 120 157 196 238 285 349
#     4  12  23  36  56  84 115 151 194 238 286 348
#     4  10  21  36  56  81 116 153 187 233 292 342
#     4  12  26  40  52  82 116 164 202 228 296 344
#     4   9  20  39  59  80 107 149 193 241 296 337
#     4   9  18  34  53  79 112 146 186 229 281 349
#     4   9  20  37  58  81 109 146 195 243 286 337
#     4  10  19  34  55  80 111 149 186 230 288 343
#
# _framework density 19.116561000000001
#
# number of rings (size 3 to 8) (size 9 to 14) (size 15 to 20)
#    0.000    1.931    2.069    2.690    2.897    2.207 
#    0.000    1.379    0.000    0.828    0.000    5.793 
#    0.000    0.000    0.000    0.000    0.000    0.000 
#
# Total GULP energy -323013.640191 kJ/mol
# GULP energy per Si atom -5569.200693 kJ/mol
# Density = 1.907305 g / cm^3
# Si number density = 19.116561 Si / 1000 Ang^3
#
#
#
# Elastic Constant Matrix: (Units=GPa)
#
#
# Indices 1 2 3 4 5 6 
#
# 1 54.5597 1.0645 12.7673 0.0000 0.0000 0.0000
# 2 1.0645 66.8881 36.4360 0.0000 0.0000 0.0000
# 3 12.7673 36.4360 116.3718 0.0000 0.0000 0.0000
# 4 0.0000 0.0000 0.0000 25.6487 0.0000 0.0000
# 5 0.0000 0.0000 0.0000 0.0000 38.6557 0.0000
# 6 0.0000 0.0000 0.0000 0.0000 0.0000 19.3517
#
#
#
# Elastic Compliance Matrix: (Units=1/GPa)
#
#
# Indices 1 2 3 4 5 6 
#
# 1 0.018867 0.000997 -0.002382 0.000000 0.000000 0.000000
# 2 0.000997 0.018077 -0.005769 0.000000 0.000000 0.000000
# 3 -0.002382 -0.005769 0.010661 0.000000 0.000000 0.000000
# 4 0.000000 0.000000 0.000000 0.038988 0.000000 0.000000
# 5 0.000000 0.000000 0.000000 0.000000 0.025869 0.000000
# 6 0.000000 0.000000 0.000000 0.000000 0.000000 0.051675
#
#
# Mechanical properties :
#
#
# Convention : Reuss Voigt Hill
#
# Bulk Modulus (GPa) = 30.03338 37.59503 33.81420
# Shear Modulus (GPa) = 26.37900 29.23466 27.80683
#
# Velocity S-wave (km/s) = 3.71873 3.91485 3.81805
# Velocity P-wave (km/s) = 5.84666 6.33590 6.09619
#
# Compressibility (1/GPa) = 0.03329629
#
# Stress axis : x y z
#
# Youngs Moduli (GPa) = 53.00391 55.31817 93.80067
#
# Poissons Ratio (x) = -0.05517 0.22345
# Poissons Ratio (y) = -0.05286 0.54117
# Poissons Ratio (z) = 0.12626 0.31915
#
# Static dielectric constant tensor:
#      x y z
#    x 1.679130 0.000000 0.000000 
#    y 0.000000 1.678610 0.000000 
#    z 0.000000 0.000000 1.809780 
# 
# From -- ./inp_files/72062.got.cif
#   From: 2010.05.17/outbox.cif.g08.bks.cpg/sg63_37_cif.got.tgz:72062.got - 2010.06.03 15:47:04.
