data_PCOD9471040
_publ_section_title
;
Structure prediction by ZEFSAII (Michael W. Deem and Ramdas Pophale) SiO2 
 PCOD9471040
Probable space group: C M C M
;
_chemical_formula_sum "Si O2"
_cell_formula_units_Z 96
_cell_length_a 8.521203
_cell_length_b 24.399077
_cell_length_c 26.736228
_cell_angle_alpha 90.000000
_cell_angle_beta 90.000000
_cell_angle_gamma 90.000000
_cell_volume 5558.715478
_symmetry_space_group_name_H-M "C M C M"
_symmetry_group_IT_number 63
_symmetry_cell_setting 'orthorhombic'
loop_
_space_group_symop_operation_xyz
x,y,z
-x,-y,1/2+z
x,-y,-z
-x,y,1/2-z
-x,-y,-z
x,y,1/2-z
-x,y,z
x,-y,1/2+z
1/2+x,1/2+y,z
1/2-x,1/2-y,1/2+z
1/2+x,1/2-y,-z
1/2-x,1/2+y,1/2-z
1/2-x,1/2-y,-z
1/2+x,1/2+y,1/2-z
1/2-x,1/2+y,z
1/2+x,1/2-y,1/2+z
loop_
_atom_site_type_symbol
_atom_site_label
_atom_site_fract_x
_atom_site_fract_y
_atom_site_fract_z
Si Si1 0.312963 0.477915 0.054887
Si Si2 0.811523 0.243362 0.621570
Si Si3 0.811752 0.323358 0.535654
Si Si4 0.686446 0.079044 0.388247
Si Si5 0.188196 0.643316 0.928040
Si Si6 0.811816 0.163224 0.192049
O O1 0.500000 0.471581 0.051938
O O2 0.268664 0.522887 0.096462
O O3 0.239038 0.419721 0.069421
O O4 0.257791 0.500000 0.000000
O O5 0.751320 0.275660 0.571778
O O6 0.753454 0.181292 0.616293
O O7 0.750674 0.280728 0.666894
O O8 0.000000 0.244865 0.622082
O O9 0.783829 0.379420 0.565631
O O10 0.748824 0.330233 0.480110
O O11 0.000000 0.316147 0.532020
O O12 0.500000 0.070846 0.384090
O O13 0.746748 0.112096 0.340024
O O14 0.000000 0.645866 0.927483
O O15 0.765488 0.159736 0.250000
O O16 0.000000 0.162974 0.188633
#
# Coordination Sequence:
#
# PCOD9471040 Si02
#       6
#    16  16  16  16  16  16
#     4  11  22  34  50  76 110 150 189 224 263 315
#     4  10  20  34  51  77 108 139 179 222 269 321
#     4   8  16  29  47  72 103 140 176 215 257 306
#     4  10  19  34  55  80 108 141 183 226 269 316
#     4  11  20  32  50  73 107 149 186 219 262 313
#     4  10  21  38  60  84 108 136 174 223 277 328
#
# _framework density 17.270178000000001
#
# number of rings (size 3 to 8) (size 9 to 14) (size 15 to 20)
#    0.000    2.000    1.667    4.000    0.000    2.000 
#    0.000    1.667    0.000    1.000    0.000    0.000 
#    0.000    0.000    0.000    0.000    0.000    0.000 
#
# Total GULP energy -267753.857166 kJ/mol
# GULP energy per Si atom -5578.205358 kJ/mol
# Density = 1.723087 g / cm^3
# Si number density = 17.270178 Si / 1000 Ang^3
#
#
#
# Elastic Constant Matrix: (Units=GPa)
#
#
# Indices 1 2 3 4 5 6 
#
# 1 30.1686 4.4509 20.5026 0.0000 0.0000 0.0000
# 2 4.4509 65.4651 39.1464 0.0000 0.0000 0.0000
# 3 20.5026 39.1464 94.6965 0.0000 0.0000 0.0000
# 4 0.0000 0.0000 0.0000 7.6447 0.0000 0.0000
# 5 0.0000 0.0000 0.0000 0.0000 20.7285 0.0000
# 6 0.0000 0.0000 0.0000 0.0000 0.0000 29.2544
#
#
#
# Elastic Compliance Matrix: (Units=1/GPa)
#
#
# Indices 1 2 3 4 5 6 
#
# 1 0.039369 0.003215 -0.009853 0.000000 0.000000 0.000000
# 2 0.003215 0.020554 -0.009193 0.000000 0.000000 0.000000
# 3 -0.009853 -0.009193 0.016493 0.000000 0.000000 0.000000
# 4 0.000000 0.000000 0.000000 0.130810 0.000000 0.000000
# 5 0.000000 0.000000 0.000000 0.000000 0.048243 0.000000
# 6 0.000000 0.000000 0.000000 0.000000 0.000000 0.034183
#
#
# Mechanical properties :
#
#
# Convention : Reuss Voigt Hill
#
# Bulk Modulus (GPa) = 22.34390 35.39223 28.86806
# Shear Modulus (GPa) = 14.87074 19.94086 17.40580
#
# Velocity S-wave (km/s) = 2.93757 3.40169 3.17811
# Velocity P-wave (km/s) = 4.94689 5.99720 5.49719
#
# Compressibility (1/GPa) = 0.04475495
#
# Stress axis : x y z
#
# Youngs Moduli (GPa) = 25.40091 48.65289 60.63024
#
# Poissons Ratio (x) = -0.15642 0.59737
# Poissons Ratio (y) = -0.08166 0.55736
# Poissons Ratio (z) = 0.25027 0.44725
#
# Static dielectric constant tensor:
#      x y z
#    x 1.578900 0.000000 0.000000 
#    y 0.000000 1.597170 0.000000 
#    z 0.000000 0.000000 1.581510 
# 
# From -- ./inp_files/59854.got.cif
#   From: 2010.05.17/outbox.cif.g08.bks.cpg/sg63_30_cif.got.tgz:59854.got - 2010.06.03 15:47:04.
