data_PCOD9471207
_publ_section_title
;
Structure prediction by ZEFSAII (Michael W. Deem and Ramdas Pophale) SiO2 
 PCOD9471207
Probable space group: C M C M
;
_chemical_formula_sum "Si O2"
_cell_formula_units_Z 64
_cell_length_a 5.478679
_cell_length_b 17.431232
_cell_length_c 26.915212
_cell_angle_alpha 90.000000
_cell_angle_beta 90.000000
_cell_angle_gamma 90.000000
_cell_volume 2570.406102
_symmetry_space_group_name_H-M "C M C M"
_symmetry_group_IT_number 63
_symmetry_cell_setting 'orthorhombic'
loop_
_space_group_symop_operation_xyz
x,y,z
-x,-y,1/2+z
x,-y,-z
-x,y,1/2-z
-x,-y,-z
x,y,1/2-z
-x,y,z
x,-y,1/2+z
1/2+x,1/2+y,z
1/2-x,1/2-y,1/2+z
1/2+x,1/2-y,-z
1/2-x,1/2+y,1/2-z
1/2-x,1/2-y,-z
1/2+x,1/2+y,1/2-z
1/2-x,1/2+y,z
1/2+x,1/2-y,1/2+z
loop_
_atom_site_type_symbol
_atom_site_label
_atom_site_fract_x
_atom_site_fract_y
_atom_site_fract_z
Si Si1 0.500000 0.777795 0.846161
Si Si2 0.000000 0.834345 0.950502
Si Si3 0.000000 0.593285 0.913438
Si Si4 0.000000 0.410555 0.579026
Si Si5 0.500000 0.935599 0.306930
Si Si6 0.000000 0.966622 0.806586
Si Si7 0.000000 0.797233 0.659268
Si Si8 0.500000 0.669740 0.942069
O O1 0.500000 0.863843 0.868900
O O2 0.750506 0.767946 0.817793
O O3 0.500000 0.726108 0.895345
O O4 0.248940 0.883621 0.947057
O O5 0.000000 0.782530 0.900667
O O6 0.000000 0.792423 0.003443
O O7 0.000000 0.501078 0.914942
O O8 0.748135 0.621312 0.937283
O O9 0.000000 0.617999 0.855215
O O10 0.500000 0.906448 0.250000
O O11 0.752980 0.984002 0.312728
O O12 0.000000 0.938296 0.750000
O O13 0.000000 0.890169 0.838850
#
# Coordination Sequence:
#
# PCOD9471207 Si02
#       8
#     8   8   8   8   8   8   8   8
#     4  10  22  39  59  82 113 157 196 236 285 341
#     4  10  21  36  57  85 117 156 198 240 288 344
#     4  12  24  40  60  87 120 152 193 249 298 345
#     4  10  21  37  60  83 112 150 194 243 296 340
#     4  10  20  36  60  87 116 151 192 237 291 354
#     4  10  19  34  61  95 120 143 187 248 301 345
#     4  10  19  35  60  83 116 152 192 241 293 345
#     4  12  26  39  57  85 122 161 202 239 282 344
#
# _framework density 24.898790000000002
#
# number of rings (size 3 to 8) (size 9 to 14) (size 15 to 20)
#    0.000    1.500    0.000    6.750    0.000    7.000 
#    0.000    0.000    0.000    4.500    0.000    0.000 
#    0.000    0.000    0.000    0.000    0.000    0.000 
#
# Total GULP energy -179015.410901 kJ/mol
# GULP energy per Si atom -5594.231591 kJ/mol
# Density = 2.484212 g / cm^3
# Si number density = 24.898790 Si / 1000 Ang^3
#
#
#
# Elastic Constant Matrix: (Units=GPa)
#
#
# Indices 1 2 3 4 5 6 
#
# 1 283.6204 47.5210 34.4506 0.0000 0.0000 0.0000
# 2 47.5210 67.1551 -14.2508 0.0000 0.0000 0.0000
# 3 34.4506 -14.2508 80.2292 0.0000 0.0000 0.0000
# 4 0.0000 0.0000 0.0000 8.8514 0.0000 0.0000
# 5 0.0000 0.0000 0.0000 0.0000 -160.9092 0.0000
# 6 0.0000 0.0000 0.0000 0.0000 0.0000 40.0822
#
#
#
# Elastic Compliance Matrix: (Units=1/GPa)
#
#
# Indices 1 2 3 4 5 6 
#
# 1 0.004458 -0.003701 -0.002572 0.000000 0.000000 0.000000
# 2 -0.003701 0.018546 0.004883 0.000000 0.000000 0.000000
# 3 -0.002572 0.004883 0.014436 0.000000 0.000000 0.000000
# 4 0.000000 0.000000 0.000000 0.112977 0.000000 0.000000
# 5 0.000000 0.000000 0.000000 0.000000 -0.006215 0.000000
# 6 0.000000 0.000000 0.000000 0.000000 0.000000 0.024949
#
#
# Mechanical properties :
#
#
# Convention : Reuss Voigt Hill
#
# Bulk Modulus (GPa) = 28.85003 62.93849 45.89426
# Shear Modulus (GPa) = 27.25055 1.82381 14.53718
#
# Velocity S-wave (km/s) = 3.31184 0.85678 2.41892
# Velocity P-wave (km/s) = 5.12215 5.12946 5.12581
#
# Compressibility (1/GPa) = 0.03466201
#
# Stress axis : x y z
#
# Youngs Moduli (GPa) = 224.30352 53.92066 69.27142
#
# Poissons Ratio (x) = 0.19953 0.17814
# Poissons Ratio (y) = 0.83004 -0.33827
# Poissons Ratio (z) = 0.57684 -0.26331
#
# Static dielectric constant tensor:
#      x y z
#    x 2.035660 0.000000 0.000000 
#    y 0.000000 1.966970 0.000000 
#    z 0.000000 0.000000 1.985260 
# 
# From -- ./inp_files/71208.got.cif
#   From: 2010.05.17/outbox.cif.g08.bks.cpg/sg63_36_cif.got.tgz:71208.got - 2010.06.03 15:47:04.
