data_PCOD9471842
_publ_section_title
;
Structure prediction by ZEFSAII (Michael W. Deem and Ramdas Pophale) SiO2 
 PCOD9471842
Probable space group: C M C M
;
_chemical_formula_sum "Si O2"
_cell_formula_units_Z 80
_cell_length_a 19.917716
_cell_length_b 27.146830
_cell_length_c 7.783108
_cell_angle_alpha 90.000000
_cell_angle_beta 90.000000
_cell_angle_gamma 90.000000
_cell_volume 4208.348679
_symmetry_space_group_name_H-M "C M C M"
_symmetry_group_IT_number 63
_symmetry_cell_setting 'orthorhombic'
loop_
_space_group_symop_operation_xyz
x,y,z
-x,-y,1/2+z
x,-y,-z
-x,y,1/2-z
-x,-y,-z
x,y,1/2-z
-x,y,z
x,-y,1/2+z
1/2+x,1/2+y,z
1/2-x,1/2-y,1/2+z
1/2+x,1/2-y,-z
1/2-x,1/2+y,1/2-z
1/2-x,1/2-y,-z
1/2+x,1/2+y,1/2-z
1/2-x,1/2+y,z
1/2+x,1/2-y,1/2+z
loop_
_atom_site_type_symbol
_atom_site_label
_atom_site_fract_x
_atom_site_fract_y
_atom_site_fract_z
Si Si1 0.922316 0.642521 0.461020
Si Si2 0.423799 0.643412 0.956174
Si Si3 0.173750 0.444892 0.543161
Si Si4 0.581724 0.749845 0.948918
Si Si5 0.826280 0.945217 0.546078
O O1 0.921607 0.643794 0.250000
O O2 0.874790 0.598354 0.519093
O O3 0.899394 0.696872 0.522631
O O4 0.000000 0.634884 0.510838
O O5 0.428051 0.649017 0.750000
O O6 0.500000 0.634260 0.019274
O O7 0.399016 0.696761 0.024921
O O8 0.375084 0.598258 0.990549
O O9 0.150065 0.500000 0.500000
O O10 0.175756 0.441181 0.750000
O O11 0.250204 0.439873 0.476126
O O12 0.604310 0.750388 0.750000
O O13 0.500000 0.749515 0.948252
O O14 0.821712 0.942903 0.750000
O O15 0.850892 0.000000 0.500000
#
# Coordination Sequence:
#
# PCOD9471842 Si02
#       5
#    16  16  16  16  16
#     4   8  13  24  45  70  92 116 149 185 217 254
#     4   9  17  30  49  71  91 112 144 185 223 261
#     4   9  18  31  46  65  90 120 152 185 221 261
#     4   7  11  22  42  67  91 114 142 177 216 258
#     4  10  20  33  47  63  88 121 152 182 220 266
#
# _framework density 19.009831999999999
#
# number of rings (size 3 to 8) (size 9 to 14) (size 15 to 20)
#    0.000    3.400    0.000    3.000    0.000    2.000 
#    0.000    1.000    0.000    1.200    0.000    2.800 
#    0.000    0.000    0.000    0.000    0.000    0.000 
#
# Total GULP energy -222705.592847 kJ/mol
# GULP energy per Si atom -5567.639821 kJ/mol
# Density = 1.896656 g / cm^3
# Si number density = 19.009832 Si / 1000 Ang^3
#
#
#
# Elastic Constant Matrix: (Units=GPa)
#
#
# Indices 1 2 3 4 5 6 
#
# 1 65.9710 103.1064 5.1674 0.0000 0.0000 0.0000
# 2 103.1064 244.7936 7.5148 0.0000 0.0000 0.0000
# 3 5.1674 7.5148 26.1503 0.0000 0.0000 0.0000
# 4 0.0000 0.0000 0.0000 11.2847 0.0000 0.0000
# 5 0.0000 0.0000 0.0000 0.0000 3.0651 0.0000
# 6 0.0000 0.0000 0.0000 0.0000 0.0000 -39.0522
#
#
#
# Elastic Compliance Matrix: (Units=1/GPa)
#
#
# Indices 1 2 3 4 5 6 
#
# 1 0.044666 -0.018707 -0.003450 0.000000 0.000000 0.000000
# 2 -0.018707 0.011957 0.000261 0.000000 0.000000 0.000000
# 3 -0.003450 0.000261 0.038847 0.000000 0.000000 0.000000
# 4 0.000000 0.000000 0.000000 0.088615 0.000000 0.000000
# 5 0.000000 0.000000 0.000000 0.000000 0.326249 0.000000
# 6 0.000000 0.000000 0.000000 0.000000 0.000000 -0.025607
#
#
# Mechanical properties :
#
#
# Convention : Reuss Voigt Hill
#
# Bulk Modulus (GPa) = 19.35125 63.16580 41.25852
# Shear Modulus (GPa) = 9.16175 9.80128 9.48151
#
# Velocity S-wave (km/s) = 2.19771 2.27312 2.23574
# Velocity P-wave (km/s) = 4.07941 6.33952 5.33063
#
# Compressibility (1/GPa) = 0.05167626
#
# Stress axis : x y z
#
# Youngs Moduli (GPa) = 22.38821 83.63583 25.74183
#
# Poissons Ratio (x) = 1.56461 0.08882
# Poissons Ratio (y) = 0.41883 -0.00671
# Poissons Ratio (z) = 0.07724 -0.02180
#
# Static dielectric constant tensor:
#      x y z
#    x 1.648420 0.000000 0.000000 
#    y 0.000000 1.792910 0.000000 
#    z 0.000000 0.000000 1.699530 
# 
# From -- ./inp_files/6368.got.cif
#   From: 2010.05.17/outbox.cif.g08.bks.cpg/sg63_4_cif.got.tgz:6368.got - 2010.06.03 15:47:04.
