data_PCOD9471691
_publ_section_title
;
Structure prediction by ZEFSAII (Michael W. Deem and Ramdas Pophale) SiO2 
 PCOD9471691
Probable space group: C M C M
;
_chemical_formula_sum "Si O2"
_cell_formula_units_Z 88
_cell_length_a 28.410403
_cell_length_b 17.694946
_cell_length_c 7.462681
_cell_angle_alpha 90.000000
_cell_angle_beta 90.000000
_cell_angle_gamma 90.000000
_cell_volume 3751.643074
_symmetry_space_group_name_H-M "C M C M"
_symmetry_group_IT_number 63
_symmetry_cell_setting 'orthorhombic'
loop_
_space_group_symop_operation_xyz
x,y,z
-x,-y,1/2+z
x,-y,-z
-x,y,1/2-z
-x,-y,-z
x,y,1/2-z
-x,y,z
x,-y,1/2+z
1/2+x,1/2+y,z
1/2-x,1/2-y,1/2+z
1/2+x,1/2-y,-z
1/2-x,1/2+y,1/2-z
1/2-x,1/2-y,-z
1/2+x,1/2+y,1/2-z
1/2-x,1/2+y,z
1/2+x,1/2-y,1/2+z
loop_
_atom_site_type_symbol
_atom_site_label
_atom_site_fract_x
_atom_site_fract_y
_atom_site_fract_z
Si Si1 0.344713 0.888444 0.044990
Si Si2 0.552406 0.863485 0.032236
Si Si3 0.080987 0.192457 0.033230
Si Si4 0.000000 0.087005 0.036546
Si Si5 0.744572 0.418292 0.465454
Si Si6 0.682682 0.720068 0.953377
O O1 0.347901 0.914893 0.250000
O O2 0.397510 0.898483 0.968152
O O3 0.297784 0.922159 0.959341
O O4 0.330255 0.799185 0.047213
O O5 0.552476 0.869616 0.250000
O O6 0.500000 0.888921 0.971693
O O7 0.559301 0.774688 0.989078
O O8 0.085672 0.191141 0.250000
O O9 0.954120 0.128909 0.968597
O O10 0.132024 0.180745 0.953008
O O11 0.000000 0.099617 0.250000
O O12 0.000000 0.000000 0.000000
O O13 0.721468 0.500000 0.500000
O O14 0.746835 0.409679 0.250000
O O15 0.718785 0.341759 0.529998
O O16 0.697060 0.738565 0.750000
#
# Coordination Sequence:
#
# PCOD9471691 Si02
#       6
#    16  16  16   8  16  16
#     4   9  18  33  54  78 102 131 170 210 252 303
#     4   8  12  23  48  75  94 115 152 200 241 285
#     4   9  17  31  49  68  93 126 167 205 244 295
#     4  10  20  32  46  64  92 132 171 208 249 298
#     4  10  22  37  52  73 101 136 174 211 253 308
#     4  10  20  33  51  76 103 129 166 213 259 302
#
# _framework density 23.456389000000001
#
# number of rings (size 3 to 8) (size 9 to 14) (size 15 to 20)
#    0.000    2.727    0.909    2.182    0.000    3.636 
#    0.000    3.636    0.000    0.545    0.000    0.000 
#    0.000    0.000    0.000    0.000    0.000    0.000 
#
# Total GULP energy -245374.916017 kJ/mol
# GULP energy per Si atom -5576.702637 kJ/mol
# Density = 2.340300 g / cm^3
# Si number density = 23.456389 Si / 1000 Ang^3
#
#
#
# Elastic Constant Matrix: (Units=GPa)
#
#
# Indices 1 2 3 4 5 6 
#
# 1 148.9475 22.7905 3.5260 0.0000 0.0000 0.0000
# 2 22.7905 56.9600 -3.5476 0.0000 0.0000 0.0000
# 3 3.5260 -3.5476 75.4109 0.0000 0.0000 0.0000
# 4 0.0000 0.0000 0.0000 1.2963 0.0000 0.0000
# 5 0.0000 0.0000 0.0000 0.0000 9.4692 0.0000
# 6 0.0000 0.0000 0.0000 0.0000 0.0000 8.1756
#
#
#
# Elastic Compliance Matrix: (Units=1/GPa)
#
#
# Indices 1 2 3 4 5 6 
#
# 1 0.007168 -0.002897 -0.000471 0.000000 0.000000 0.000000
# 2 -0.002897 0.018779 0.001019 0.000000 0.000000 0.000000
# 3 -0.000471 0.001019 0.013331 0.000000 0.000000 0.000000
# 4 0.000000 0.000000 0.000000 0.771418 0.000000 0.000000
# 5 0.000000 0.000000 0.000000 0.000000 0.105606 0.000000
# 6 0.000000 0.000000 0.000000 0.000000 0.000000 0.122315
#
#
# Mechanical properties :
#
#
# Convention : Reuss Voigt Hill
#
# Bulk Modulus (GPa) = 28.92028 36.31734 32.61881
# Shear Modulus (GPa) = 4.74005 21.02487 12.88246
#
# Velocity S-wave (km/s) = 1.42309 2.99714 2.34606
# Velocity P-wave (km/s) = 3.88026 5.24344 4.61249
#
# Compressibility (1/GPa) = 0.03457781
#
# Stress axis : x y z
#
# Youngs Moduli (GPa) = 139.50347 53.25107 75.01499
#
# Poissons Ratio (x) = 0.15429 0.03537
# Poissons Ratio (y) = 0.40421 -0.07643
# Poissons Ratio (z) = 0.06577 -0.05426
#
# Static dielectric constant tensor:
#      x y z
#    x 1.921040 0.000000 0.000000 
#    y 0.000000 1.863160 0.000000 
#    z 0.000000 0.000000 1.971850 
# 
# From -- ./inp_files/14171.got.cif
#   From: 2010.05.17/outbox.cif.g08.bks.cpg/sg63_8_cif.got.tgz:14171.got - 2010.06.03 15:47:04.
