data_PCOD9471563
_publ_section_title
;
Structure prediction by ZEFSAII (Michael W. Deem and Ramdas Pophale) SiO2 
 PCOD9471563
Probable space group: C M C M
;
_chemical_formula_sum "Si O2"
_cell_formula_units_Z 88
_cell_length_a 18.839914
_cell_length_b 29.252076
_cell_length_c 8.599035
_cell_angle_alpha 90.000000
_cell_angle_beta 90.000000
_cell_angle_gamma 90.000000
_cell_volume 4738.984909
_symmetry_space_group_name_H-M "C M C M"
_symmetry_group_IT_number 63
_symmetry_cell_setting 'orthorhombic'
loop_
_space_group_symop_operation_xyz
x,y,z
-x,-y,1/2+z
x,-y,-z
-x,y,1/2-z
-x,-y,-z
x,y,1/2-z
-x,y,z
x,-y,1/2+z
1/2+x,1/2+y,z
1/2-x,1/2-y,1/2+z
1/2+x,1/2-y,-z
1/2-x,1/2+y,1/2-z
1/2-x,1/2-y,-z
1/2+x,1/2+y,1/2-z
1/2-x,1/2+y,z
1/2+x,1/2-y,1/2+z
loop_
_atom_site_type_symbol
_atom_site_label
_atom_site_fract_x
_atom_site_fract_y
_atom_site_fract_z
Si Si1 0.791528 0.614593 0.560134
Si Si2 0.312440 0.218567 0.934787
Si Si3 0.368452 0.389517 0.438419
Si Si4 0.000000 0.948427 0.564428
Si Si5 0.420688 0.051248 0.937930
Si Si6 0.416196 0.711623 0.565898
O O1 0.792126 0.614706 0.750000
O O2 0.804963 0.666663 0.507922
O O3 0.712292 0.598764 0.514995
O O4 0.855900 0.582633 0.507296
O O5 0.306173 0.217093 0.750000
O O6 0.250000 0.250000 0.000000
O O7 0.383744 0.244704 0.981886
O O8 0.373821 0.391508 0.250000
O O9 0.430002 0.421358 0.506365
O O10 0.382095 0.336611 0.484443
O O11 0.000000 0.949582 0.750000
O O12 0.000000 0.000000 0.500000
O O13 0.418788 0.050274 0.750000
O O14 0.500000 0.067613 0.983644
O O15 0.412466 0.000000 0.000000
O O16 0.401565 0.716341 0.750000
O O17 0.500000 0.708050 0.543110
#
# Coordination Sequence:
#
# PCOD9471563 Si02
#       6
#    16  16  16   8  16  16
#     4   9  19  35  58  84 113 150 189 231 282 339
#     4  11  21  35  55  82 115 151 191 232 280 334
#     4  10  19  38  61  80 109 151 192 234 292 346
#     4  12  26  42  60  86 116 148 194 244 297 348
#     4   9  18  35  58  82 109 142 179 223 278 335
#     4  10  20  36  57  80 111 153 193 233 289 343
#
# _framework density 18.569378
#
# number of rings (size 3 to 8) (size 9 to 14) (size 15 to 20)
#    0.000    2.000    2.727    1.364    0.000    2.545 
#    0.000    6.364    0.000    2.182    0.000    0.000 
#    0.000    0.000    0.000    0.000    0.000    0.000 
#
# Total GULP energy -245560.134558 kJ/mol
# GULP energy per Si atom -5580.912149 kJ/mol
# Density = 1.852711 g / cm^3
# Si number density = 18.569378 Si / 1000 Ang^3
#
#
#
# Elastic Constant Matrix: (Units=GPa)
#
#
# Indices 1 2 3 4 5 6 
#
# 1 151.5643 99.9070 40.4779 0.0000 0.0000 0.0000
# 2 99.9070 115.2525 23.1639 0.0000 0.0000 0.0000
# 3 40.4779 23.1639 22.6730 0.0000 0.0000 0.0000
# 4 0.0000 0.0000 0.0000 28.1188 0.0000 0.0000
# 5 0.0000 0.0000 0.0000 0.0000 23.3678 0.0000
# 6 0.0000 0.0000 0.0000 0.0000 0.0000 37.2648
#
#
#
# Elastic Compliance Matrix: (Units=1/GPa)
#
#
# Indices 1 2 3 4 5 6 
#
# 1 0.023886 -0.015270 -0.027042 0.000000 0.000000 0.000000
# 2 -0.015270 0.020681 0.006133 0.000000 0.000000 0.000000
# 3 -0.027042 0.006133 0.086117 0.000000 0.000000 0.000000
# 4 0.000000 0.000000 0.000000 0.035563 0.000000 0.000000
# 5 0.000000 0.000000 0.000000 0.000000 0.042794 0.000000
# 6 0.000000 0.000000 0.000000 0.000000 0.000000 0.026835
#
#
# Mechanical properties :
#
#
# Convention : Reuss Voigt Hill
#
# Bulk Modulus (GPa) = 17.14516 68.50973 42.82744
# Shear Modulus (GPa) = 15.25898 26.14633 20.70265
#
# Velocity S-wave (km/s) = 2.86969 3.75645 3.34261
# Velocity P-wave (km/s) = 4.49814 7.46917 6.16530
#
# Compressibility (1/GPa) = 0.05832550
#
# Stress axis : x y z
#
# Youngs Moduli (GPa) = 41.86608 48.35327 11.61213
#
# Poissons Ratio (x) = 0.73837 0.31401
# Poissons Ratio (y) = 0.63931 -0.07122
# Poissons Ratio (z) = 1.13214 -0.29656
#
# Static dielectric constant tensor:
#      x y z
#    x 1.662220 0.000000 0.000000 
#    y 0.000000 1.623420 0.000000 
#    z 0.000000 0.000000 1.637610 
# 
# From -- ./inp_files/6873.got.cif
#   From: 2010.05.17/outbox.cif.g08.bks.cpg/sg63_4_cif.got.tgz:6873.got - 2010.06.03 15:47:04.
