data_PCOD9471237
_publ_section_title
;
Structure prediction by ZEFSAII (Michael W. Deem and Ramdas Pophale) SiO2 
 PCOD9471237
Probable space group: C M C M
;
_chemical_formula_sum "Si O2"
_cell_formula_units_Z 96
_cell_length_a 19.219065
_cell_length_b 10.281249
_cell_length_c 29.180218
_cell_angle_alpha 90.000000
_cell_angle_beta 90.000000
_cell_angle_gamma 90.000000
_cell_volume 5765.894146
_symmetry_space_group_name_H-M "C M C M"
_symmetry_group_IT_number 63
_symmetry_cell_setting 'orthorhombic'
loop_
_space_group_symop_operation_xyz
x,y,z
-x,-y,1/2+z
x,-y,-z
-x,y,1/2-z
-x,-y,-z
x,y,1/2-z
-x,y,z
x,-y,1/2+z
1/2+x,1/2+y,z
1/2-x,1/2-y,1/2+z
1/2+x,1/2-y,-z
1/2-x,1/2+y,1/2-z
1/2-x,1/2-y,-z
1/2+x,1/2+y,1/2-z
1/2-x,1/2+y,z
1/2+x,1/2-y,1/2+z
loop_
_atom_site_type_symbol
_atom_site_label
_atom_site_fract_x
_atom_site_fract_y
_atom_site_fract_z
Si Si1 0.314093 0.973147 0.303582
Si Si2 0.188456 0.223436 0.696187
Si Si3 0.081134 0.470080 0.384242
Si Si4 0.827271 0.622953 0.966697
Si Si5 0.419058 0.719271 0.615985
Si Si6 0.165180 0.127419 0.530270
O O1 0.332077 0.958191 0.250000
O O2 0.251999 0.873355 0.314122
O O3 0.379351 0.948483 0.336388
O O4 0.291923 0.124210 0.310438
O O5 0.170167 0.207385 0.750000
O O6 0.124949 0.195610 0.662064
O O7 0.122896 0.394910 0.423559
O O8 0.085976 0.625409 0.393896
O O9 0.000000 0.435262 0.382717
O O10 0.745722 0.625901 0.953052
O O11 0.836530 0.500000 0.000000
O O12 0.842379 0.750419 0.996332
O O13 0.500000 0.687019 0.621565
O O14 0.384544 0.644480 0.573586
O O15 0.152611 0.000000 0.500000
#
# Coordination Sequence:
#
# PCOD9471237 Si02
#       6
#    16  16  16  16  16  16
#     4   9  18  34  56  80 105 134 171 214 257 303
#     4   9  18  34  57  81 103 133 173 214 256 303
#     4  10  20  33  53  79 105 137 174 212 256 308
#     4  10  19  35  55  76 100 134 177 214 254 300
#     4  10  20  34  52  77 109 139 169 211 259 307
#     4  10  21  35  54  77 103 136 174 219 260 301
#
# _framework density 16.649629000000001
#
# number of rings (size 3 to 8) (size 9 to 14) (size 15 to 20)
#    0.000    2.333    1.667    1.000    0.000    2.000 
#    3.000    3.333    0.000    0.000    0.000    4.667 
#    0.000    0.000    0.000    0.000    0.000    0.000 
#
# Total GULP energy -267715.552894 kJ/mol
# GULP energy per Si atom -5577.407352 kJ/mol
# Density = 1.661173 g / cm^3
# Si number density = 16.649629 Si / 1000 Ang^3
#
#
#
# Elastic Constant Matrix: (Units=GPa)
#
#
# Indices 1 2 3 4 5 6 
#
# 1 147.7165 65.9895 102.6513 0.0000 0.0000 0.0000
# 2 65.9895 87.2302 55.1440 0.0000 0.0000 0.0000
# 3 102.6513 55.1440 101.1264 0.0000 0.0000 0.0000
# 4 0.0000 0.0000 0.0000 17.6073 0.0000 0.0000
# 5 0.0000 0.0000 0.0000 0.0000 3.8535 0.0000
# 6 0.0000 0.0000 0.0000 0.0000 0.0000 7.4626
#
#
#
# Elastic Compliance Matrix: (Units=1/GPa)
#
#
# Indices 1 2 3 4 5 6 
#
# 1 0.023945 -0.004195 -0.022018 0.000000 0.000000 0.000000
# 2 -0.004195 0.018230 -0.005682 0.000000 0.000000 0.000000
# 3 -0.022018 -0.005682 0.035338 0.000000 0.000000 0.000000
# 4 0.000000 0.000000 0.000000 0.056795 0.000000 0.000000
# 5 0.000000 0.000000 0.000000 0.000000 0.259505 0.000000
# 6 0.000000 0.000000 0.000000 0.000000 0.000000 0.134002
#
#
# Mechanical properties :
#
#
# Convention : Reuss Voigt Hill
#
# Bulk Modulus (GPa) = 72.88300 87.07142 79.97721
# Shear Modulus (GPa) = 8.38676 13.27056 10.82866
#
# Velocity S-wave (km/s) = 2.24681 2.82627 2.55303
# Velocity P-wave (km/s) = 7.11340 7.94105 7.53859
#
# Compressibility (1/GPa) = 0.01372062
#
# Stress axis : x y z
#
# Youngs Moduli (GPa) = 41.76293 54.85590 28.29851
#
# Poissons Ratio (x) = 0.23011 0.62308
# Poissons Ratio (y) = 0.17519 0.16080
# Poissons Ratio (z) = 0.91955 0.31171
#
# Static dielectric constant tensor:
#      x y z
#    x 1.536050 0.000000 0.000000 
#    y 0.000000 1.557490 0.000000 
#    z 0.000000 0.000000 1.547370 
# 
# From -- ./inp_files/63698.got.cif
#   From: 2010.05.17/outbox.cif.g08.bks.cpg/sg63_32_cif.got.tgz:63698.got - 2010.06.03 15:47:04.
