data_PCOD9471897
_publ_section_title
;
Structure prediction by ZEFSAII (Michael W. Deem and Ramdas Pophale) SiO2 
 PCOD9471897
Probable space group: C M C M
;
_chemical_formula_sum "Si O2"
_cell_formula_units_Z 96
_cell_length_a 19.773504
_cell_length_b 32.014877
_cell_length_c 9.055207
_cell_angle_alpha 90.000000
_cell_angle_beta 90.000000
_cell_angle_gamma 90.000000
_cell_volume 5732.365273
_symmetry_space_group_name_H-M "C M C M"
_symmetry_group_IT_number 63
_symmetry_cell_setting 'orthorhombic'
loop_
_space_group_symop_operation_xyz
x,y,z
-x,-y,1/2+z
x,-y,-z
-x,y,1/2-z
-x,-y,-z
x,y,1/2-z
-x,y,z
x,-y,1/2+z
1/2+x,1/2+y,z
1/2-x,1/2-y,1/2+z
1/2+x,1/2-y,-z
1/2-x,1/2+y,1/2-z
1/2-x,1/2-y,-z
1/2+x,1/2+y,1/2-z
1/2-x,1/2+y,z
1/2+x,1/2-y,1/2+z
loop_
_atom_site_type_symbol
_atom_site_label
_atom_site_fract_x
_atom_site_fract_y
_atom_site_fract_z
Si Si1 0.577443 0.632609 0.430310
Si Si2 0.919565 0.629911 0.073729
Si Si3 0.326764 0.199948 0.926317
Si Si4 0.917714 0.542678 0.920710
Si Si5 0.417547 0.541578 0.419761
Si Si6 0.681020 0.295926 0.572635
O O1 0.576531 0.630770 0.250000
O O2 0.500000 0.639091 0.477801
O O3 0.602063 0.586900 0.481799
O O4 0.625808 0.670119 0.472771
O O5 0.910142 0.629003 0.250000
O O6 0.000000 0.635401 0.044193
O O7 0.876996 0.667340 0.002476
O O8 0.898492 0.585212 0.004687
O O9 0.327582 0.193851 0.750000
O O10 0.343606 0.248684 0.957291
O O11 0.251159 0.195390 0.990227
O O12 0.896227 0.543739 0.750000
O O13 0.000000 0.541724 0.922285
O O14 0.894836 0.500000 0.000000
O O15 0.393984 0.500000 0.500000
O O16 0.396501 0.539255 0.250000
O O17 0.500000 0.541752 0.422672
O O18 0.692111 0.298914 0.750000
#
# Coordination Sequence:
#
# PCOD9471897 Si02
#       6
#    16  16  16  16  16  16
#     4   8  14  26  46  71  94 118 153 194 231 271
#     4  10  20  33  50  73 100 129 162 201 244 289
#     4  10  20  33  50  71  95 124 159 200 244 292
#     4   9  16  27  45  70 100 131 162 196 236 284
#     4   8  13  22  38  61  89 118 147 180 219 265
#     4   9  18  33  52  70  91 124 163 199 238 290
#
# _framework density 16.747014
#
# number of rings (size 3 to 8) (size 9 to 14) (size 15 to 20)
#    0.000    3.000    0.000    2.500    0.000    4.333 
#    0.000    2.500    0.000    2.500    0.000    4.667 
#    0.000    0.000    0.000    0.000    0.000    0.000 
#
# Total GULP energy -267334.825816 kJ/mol
# GULP energy per Si atom -5569.475538 kJ/mol
# Density = 1.670890 g / cm^3
# Si number density = 16.747014 Si / 1000 Ang^3
#
#
#
# Elastic Constant Matrix: (Units=GPa)
#
#
# Indices 1 2 3 4 5 6 
#
# 1 48.8789 84.9078 39.6738 0.0000 0.0000 0.0000
# 2 84.9078 200.2548 79.9035 0.0000 0.0000 0.0000
# 3 39.6738 79.9035 73.6641 0.0000 0.0000 0.0000
# 4 0.0000 0.0000 0.0000 30.2817 0.0000 0.0000
# 5 0.0000 0.0000 0.0000 0.0000 17.8963 0.0000
# 6 0.0000 0.0000 0.0000 0.0000 0.0000 -10.3386
#
#
#
# Elastic Compliance Matrix: (Units=1/GPa)
#
#
# Indices 1 2 3 4 5 6 
#
# 1 0.082820 -0.030532 -0.011486 0.000000 0.000000 0.000000
# 2 -0.030532 0.020060 -0.005315 0.000000 0.000000 0.000000
# 3 -0.011486 -0.005315 0.025527 0.000000 0.000000 0.000000
# 4 0.000000 0.000000 0.000000 0.033023 0.000000 0.000000
# 5 0.000000 0.000000 0.000000 0.000000 0.055877 0.000000
# 6 0.000000 0.000000 0.000000 0.000000 0.000000 -0.096724
#
#
# Mechanical properties :
#
#
# Convention : Reuss Voigt Hill
#
# Bulk Modulus (GPa) = 29.63940 81.30754 55.47347
# Shear Modulus (GPa) = 22.07533 15.45539 18.76536
#
# Velocity S-wave (km/s) = 3.63459 3.04118 3.35105
# Velocity P-wave (km/s) = 5.94562 7.80945 6.94039
#
# Compressibility (1/GPa) = 0.03373887
#
# Stress axis : x y z
#
# Youngs Moduli (GPa) = 12.07442 49.85021 39.17437
#
# Poissons Ratio (x) = 1.52204 0.44997
# Poissons Ratio (y) = 0.36866 0.20822
# Poissons Ratio (z) = 0.13869 0.26497
#
# Static dielectric constant tensor:
#      x y z
#    x 1.536090 0.000000 0.000000 
#    y 0.000000 1.576430 0.000000 
#    z 0.000000 0.000000 1.571340 
# 
# From -- ./inp_files/8508.got.cif
#   From: 2010.05.17/outbox.cif.g08.bks.cpg/sg63_5_cif.got.tgz:8508.got - 2010.06.03 15:47:04.
