data_PCOD9471550
_publ_section_title
;
Structure prediction by ZEFSAII (Michael W. Deem and Ramdas Pophale) SiO2 
 PCOD9471550
Probable space group: C M C M
;
_chemical_formula_sum "Si O2"
_cell_formula_units_Z 56
_cell_length_a 8.951018
_cell_length_b 18.340210
_cell_length_c 13.925316
_cell_angle_alpha 90.000000
_cell_angle_beta 90.000000
_cell_angle_gamma 90.000000
_cell_volume 2286.029307
_symmetry_space_group_name_H-M "C M C M"
_symmetry_group_IT_number 63
_symmetry_cell_setting 'orthorhombic'
loop_
_space_group_symop_operation_xyz
x,y,z
-x,-y,1/2+z
x,-y,-z
-x,y,1/2-z
-x,-y,-z
x,y,1/2-z
-x,y,z
x,-y,1/2+z
1/2+x,1/2+y,z
1/2-x,1/2-y,1/2+z
1/2+x,1/2-y,-z
1/2-x,1/2+y,1/2-z
1/2-x,1/2-y,-z
1/2+x,1/2+y,1/2-z
1/2-x,1/2+y,z
1/2+x,1/2-y,1/2+z
loop_
_atom_site_type_symbol
_atom_site_label
_atom_site_fract_x
_atom_site_fract_y
_atom_site_fract_z
Si Si1 0.500000 0.717925 0.037386
Si Si2 0.832904 0.260634 0.750000
Si Si3 0.000000 0.262481 0.250000
Si Si4 0.000000 0.390242 0.461707
Si Si5 0.000000 0.447396 0.250000
Si Si6 0.254810 0.373717 0.913894
Si Si7 0.336113 0.481232 0.750000
O O1 0.500000 0.714360 0.154047
O O2 0.500000 0.802799 0.020649
O O3 0.355205 0.672509 0.011622
O O4 0.678705 0.212475 0.750000
O O5 0.820909 0.314682 0.658098
O O6 0.000000 0.226746 0.750000
O O7 0.000000 0.402584 0.349134
O O8 0.140814 0.417138 0.520272
O O9 0.164580 0.486337 0.250000
O O10 0.335086 0.430252 0.844297
O O11 0.500000 0.521226 0.750000
#
# Coordination Sequence:
#
# PCOD9471550 Si02
#       7
#     8   8   4   8   4  16   8
#     4  10  19  37  64 101 133 172 208 271 339 402
#     4   9  15  29  53  90 123 147 204 265 311 369
#     4   8  17  28  52  82 124 166 207 236 314 370
#     4  12  24  42  62  96 151 174 213 266 339 428
#     4  12  31  46  64  94 138 196 221 272 350 376
#     4  10  20  37  69 102 124 168 224 275 334 387
#     4  11  23  48  75  98 128 164 240 294 317 394
#
# _framework density 24.496624000000001
#
# number of rings (size 3 to 8) (size 9 to 14) (size 15 to 20)
#    0.000    1.714    2.857    3.000    4.000    2.286 
#    2.571    1.429    0.000    1.714    0.000    0.000 
#    0.000    0.000    0.000    0.000    0.000    0.000 
#
# Total GULP energy -156023.491147 kJ/mol
# GULP energy per Si atom -5572.267541 kJ/mol
# Density = 2.444087 g / cm^3
# Si number density = 24.496624 Si / 1000 Ang^3
#
#
#
# Elastic Constant Matrix: (Units=GPa)
#
#
# Indices 1 2 3 4 5 6 
#
# 1 225.1513 51.5128 40.6223 0.0000 0.0000 0.0000
# 2 51.5128 70.4414 16.9816 0.0000 0.0000 0.0000
# 3 40.6223 16.9816 113.1855 0.0000 0.0000 0.0000
# 4 0.0000 0.0000 0.0000 6.0920 0.0000 0.0000
# 5 0.0000 0.0000 0.0000 0.0000 6.0397 0.0000
# 6 0.0000 0.0000 0.0000 0.0000 0.0000 4.5667
#
#
#
# Elastic Compliance Matrix: (Units=1/GPa)
#
#
# Indices 1 2 3 4 5 6 
#
# 1 0.005550 -0.003713 -0.001435 0.000000 0.000000 0.000000
# 2 -0.003713 0.017212 -0.001250 0.000000 0.000000 0.000000
# 3 -0.001435 -0.001250 0.009538 0.000000 0.000000 0.000000
# 4 0.000000 0.000000 0.000000 0.164150 0.000000 0.000000
# 5 0.000000 0.000000 0.000000 0.000000 0.165571 0.000000
# 6 0.000000 0.000000 0.000000 0.000000 0.000000 0.218975
#
#
# Mechanical properties :
#
#
# Convention : Reuss Voigt Hill
#
# Bulk Modulus (GPa) = 51.26881 69.66798 60.46839
# Shear Modulus (GPa) = 8.32927 23.31711 15.82319
#
# Velocity S-wave (km/s) = 1.84596 3.08855 2.54428
# Velocity P-wave (km/s) = 5.05151 6.42032 5.77660
#
# Compressibility (1/GPa) = 0.01950504
#
# Stress axis : x y z
#
# Youngs Moduli (GPa) = 180.18907 58.09743 104.84875
#
# Poissons Ratio (x) = 0.21569 0.15044
# Poissons Ratio (y) = 0.66896 0.13106
# Poissons Ratio (z) = 0.25853 0.07262
#
# Static dielectric constant tensor:
#      x y z
#    x 2.205770 0.000000 0.000000 
#    y 0.000000 1.936870 0.000000 
#    z 0.000000 0.000000 1.916390 
# 
# From -- ./inp_files/27323.got.cif
#   From: 2010.05.17/outbox.cif.g08.bks.cpg/sg63_14_cif.got.tgz:27323.got - 2010.06.03 15:47:04.
