data_PCOD9471898
_publ_section_title
;
Structure prediction by ZEFSAII (Michael W. Deem and Ramdas Pophale) SiO2 
 PCOD9471898
Probable space group: C M C M
;
_chemical_formula_sum "Si O2"
_cell_formula_units_Z 80
_cell_length_a 9.941729
_cell_length_b 26.191244
_cell_length_c 14.904917
_cell_angle_alpha 90.000000
_cell_angle_beta 90.000000
_cell_angle_gamma 90.000000
_cell_volume 3881.035445
_symmetry_space_group_name_H-M "C M C M"
_symmetry_group_IT_number 63
_symmetry_cell_setting 'orthorhombic'
loop_
_space_group_symop_operation_xyz
x,y,z
-x,-y,1/2+z
x,-y,-z
-x,y,1/2-z
-x,-y,-z
x,y,1/2-z
-x,y,z
x,-y,1/2+z
1/2+x,1/2+y,z
1/2-x,1/2-y,1/2+z
1/2+x,1/2-y,-z
1/2-x,1/2+y,1/2-z
1/2-x,1/2-y,-z
1/2+x,1/2+y,1/2-z
1/2-x,1/2+y,z
1/2+x,1/2-y,1/2+z
loop_
_atom_site_type_symbol
_atom_site_label
_atom_site_fract_x
_atom_site_fract_y
_atom_site_fract_z
Si Si1 0.651179 0.904678 0.856868
Si Si2 0.153142 0.289444 0.888430
Si Si3 0.153577 0.108766 0.641533
Si Si4 0.847208 0.701227 0.601611
Si Si5 0.152489 0.992226 0.640388
O O1 0.641529 0.912984 0.750000
O O2 0.500000 0.906931 0.895299
O O3 0.701063 0.846862 0.868413
O O4 0.746742 0.948921 0.892793
O O5 0.256027 0.246242 0.857019
O O6 0.000000 0.283234 0.853380
O O7 0.143348 0.286472 0.995989
O O8 0.152418 0.110065 0.750000
O O9 0.263826 0.149019 0.610453
O O10 0.000000 0.121297 0.611797
O O11 0.184803 0.050431 0.614594
O O12 0.000000 0.697792 0.636470
O O13 0.153397 0.991382 0.750000
O O14 0.000000 0.980934 0.612084
#
# Coordination Sequence:
#
# PCOD9471898 Si02
#       5
#    16  16  16  16  16
#     4   9  17  30  50  73  94 121 158 195 232 279
#     4   9  19  35  50  67  97 132 161 193 240 293
#     4   9  18  33  52  72  96 127 159 193 238 289
#     4  10  20  33  50  71  95 126 163 202 240 279
#     4   8  15  29  48  70  96 124 153 189 236 284
#
# _framework density 20.613054999999999
#
# number of rings (size 3 to 8) (size 9 to 14) (size 15 to 20)
#    0.000    3.000    0.000    1.800    0.000    3.600 
#    0.000    5.000    0.000    6.000    0.000    0.000 
#    0.000    0.000    0.000    0.000    0.000    0.000 
#
# Total GULP energy -223132.272930 kJ/mol
# GULP energy per Si atom -5578.306823 kJ/mol
# Density = 2.056614 g / cm^3
# Si number density = 20.613055 Si / 1000 Ang^3
#
#
#
# Elastic Constant Matrix: (Units=GPa)
#
#
# Indices 1 2 3 4 5 6 
#
# 1 143.0157 129.5609 1.7109 0.0000 0.0000 0.0000
# 2 129.5609 168.0300 -11.5681 0.0000 0.0000 0.0000
# 3 1.7109 -11.5681 41.1134 0.0000 0.0000 0.0000
# 4 0.0000 0.0000 0.0000 24.0955 0.0000 0.0000
# 5 0.0000 0.0000 0.0000 0.0000 5.7299 0.0000
# 6 0.0000 0.0000 0.0000 0.0000 0.0000 31.6107
#
#
#
# Elastic Compliance Matrix: (Units=1/GPa)
#
#
# Indices 1 2 3 4 5 6 
#
# 1 0.024805 -0.019577 -0.006541 0.000000 0.000000 0.000000
# 2 -0.019577 0.021519 0.006870 0.000000 0.000000 0.000000
# 3 -0.006541 0.006870 0.026528 0.000000 0.000000 0.000000
# 4 0.000000 0.000000 0.000000 0.041502 0.000000 0.000000
# 5 0.000000 0.000000 0.000000 0.000000 0.174524 0.000000
# 6 0.000000 0.000000 0.000000 0.000000 0.000000 0.031635
#
#
# Mechanical properties :
#
#
# Convention : Reuss Voigt Hill
#
# Bulk Modulus (GPa) = 29.10624 65.72961 47.41793
# Shear Modulus (GPa) = 13.49671 27.78423 20.64047
#
# Velocity S-wave (km/s) = 2.56161 3.67535 3.16781
# Velocity P-wave (km/s) = 4.78541 7.06877 6.03604
#
# Compressibility (1/GPa) = 0.03435690
#
# Stress axis : x y z
#
# Youngs Moduli (GPa) = 40.31371 46.47042 37.69599
#
# Poissons Ratio (x) = 0.90974 0.24655
# Poissons Ratio (y) = 0.78921 -0.25895
# Poissons Ratio (z) = 0.26368 -0.31923
#
# Static dielectric constant tensor:
#      x y z
#    x 1.741830 0.000000 0.000000 
#    y 0.000000 1.711290 0.000000 
#    z 0.000000 0.000000 1.779880 
# 
# From -- ./inp_files/40446.got.cif
#   From: 2010.05.17/outbox.cif.g08.bks.cpg/sg63_21_cif.got.tgz:40446.got - 2010.06.03 15:47:04.
