data_PCOD9471013
_publ_section_title
;
Structure prediction by ZEFSAII (Michael W. Deem and Ramdas Pophale) SiO2 
 PCOD9471013
Probable space group: C M C M
;
_chemical_formula_sum "Si O2"
_cell_formula_units_Z 112
_cell_length_a 25.049518
_cell_length_b 11.638773
_cell_length_c 21.075105
_cell_angle_alpha 90.000000
_cell_angle_beta 90.000000
_cell_angle_gamma 90.000000
_cell_volume 6144.355265
_symmetry_space_group_name_H-M "C M C M"
_symmetry_group_IT_number 63
_symmetry_cell_setting 'orthorhombic'
loop_
_space_group_symop_operation_xyz
x,y,z
-x,-y,1/2+z
x,-y,-z
-x,y,1/2-z
-x,-y,-z
x,y,1/2-z
-x,y,z
x,-y,1/2+z
1/2+x,1/2+y,z
1/2-x,1/2-y,1/2+z
1/2+x,1/2-y,-z
1/2-x,1/2+y,1/2-z
1/2-x,1/2-y,-z
1/2+x,1/2+y,1/2-z
1/2-x,1/2+y,z
1/2+x,1/2-y,1/2+z
loop_
_atom_site_type_symbol
_atom_site_label
_atom_site_fract_x
_atom_site_fract_y
_atom_site_fract_z
Si Si1 0.228110 0.173083 0.820148
Si Si2 0.364593 0.848566 0.824040
Si Si3 0.938867 0.879412 0.673677
Si Si4 0.938568 0.861920 0.326843
Si Si5 0.845441 0.480419 0.068311
Si Si6 0.279346 0.517696 0.427807
Si Si7 0.834782 0.757231 0.627949
O O1 0.215678 0.123092 0.750000
O O2 0.193980 0.289870 0.825554
O O3 0.290598 0.203891 0.824535
O O4 0.213473 0.086627 0.877317
O O5 0.375803 0.877388 0.750000
O O6 0.402074 0.743596 0.846503
O O7 0.370227 0.955126 0.871184
O O8 0.940370 0.882293 0.750000
O O9 0.892173 0.793812 0.654106
O O10 0.000000 0.854198 0.652522
O O11 0.924159 0.009327 0.651582
O O12 0.935207 0.863760 0.250000
O O13 0.000000 0.842084 0.344126
O O14 0.784830 0.529229 0.066726
O O15 0.842339 0.344736 0.078218
O O16 0.871297 0.500000 0.000000
O O17 0.298976 0.500000 0.500000
O O18 0.306838 0.630914 0.400987
#
# Coordination Sequence:
#
# PCOD9471013 Si02
#       7
#    16  16  16  16  16  16  16
#     4  10  21  33  53  84 115 146 185 233 284 331
#     4  10  19  34  54  81 114 144 181 233 280 329
#     4   9  18  34  57  86 115 142 180 231 286 339
#     4   8  15  30  55  83 109 140 179 226 278 330
#     4  10  23  37  54  78 114 154 191 227 274 341
#     4  10  22  36  56  81 111 151 192 232 275 341
#     4  11  21  36  55  80 111 152 185 230 282 340
#
# _framework density 18.228113
#
# number of rings (size 3 to 8) (size 9 to 14) (size 15 to 20)
#    0.000    2.286    1.429    2.143    2.000    6.857 
#    0.000    0.714    0.000    3.857    0.000    0.000 
#    0.000    0.000    0.000    0.000    0.000    0.000 
#
# Total GULP energy -311981.259764 kJ/mol
# GULP energy per Si atom -5571.093924 kJ/mol
# Density = 1.818662 g / cm^3
# Si number density = 18.228113 Si / 1000 Ang^3
#
#
#
# Elastic Constant Matrix: (Units=GPa)
#
#
# Indices 1 2 3 4 5 6 
#
# 1 64.4432 28.3089 3.7855 0.0000 0.0000 0.0000
# 2 28.3089 79.9212 42.4106 0.0000 0.0000 0.0000
# 3 3.7855 42.4106 100.1288 0.0000 0.0000 0.0000
# 4 0.0000 0.0000 0.0000 14.8924 0.0000 0.0000
# 5 0.0000 0.0000 0.0000 0.0000 1.5897 0.0000
# 6 0.0000 0.0000 0.0000 0.0000 0.0000 27.4405
#
#
#
# Elastic Compliance Matrix: (Units=1/GPa)
#
#
# Indices 1 2 3 4 5 6 
#
# 1 0.018943 -0.008165 0.002742 0.000000 0.000000 0.000000
# 2 -0.008165 0.019659 -0.008018 0.000000 0.000000 0.000000
# 3 0.002742 -0.008018 0.013280 0.000000 0.000000 0.000000
# 4 0.000000 0.000000 0.000000 0.067149 0.000000 0.000000
# 5 0.000000 0.000000 0.000000 0.000000 0.629055 0.000000
# 6 0.000000 0.000000 0.000000 0.000000 0.000000 0.036443
#
#
# Mechanical properties :
#
#
# Convention : Reuss Voigt Hill
#
# Bulk Modulus (GPa) = 39.99979 43.72259 41.86119
# Shear Modulus (GPa) = 6.09946 20.11704 13.10825
#
# Velocity S-wave (km/s) = 1.83124 3.32569 2.68456
# Velocity P-wave (km/s) = 5.14421 6.22779 5.71176
#
# Compressibility (1/GPa) = 0.02500013
#
# Stress axis : x y z
#
# Youngs Moduli (GPa) = 52.78925 50.86623 75.30300
#
# Poissons Ratio (x) = 0.41533 -0.20650
# Poissons Ratio (y) = 0.43103 0.60380
# Poissons Ratio (z) = -0.14476 0.40786
#
# Static dielectric constant tensor:
#      x y z
#    x 1.644970 0.000000 0.000000 
#    y 0.000000 1.626740 0.000000 
#    z 0.000000 0.000000 1.651920 
# 
# From -- ./inp_files/57602.got.cif
#   From: 2010.05.17/outbox.cif.g08.bks.cpg/sg63_29_cif.got.tgz:57602.got - 2010.06.03 15:47:04.
