data_PCOD9471066
_publ_section_title
;
Structure prediction by ZEFSAII (Michael W. Deem and Ramdas Pophale) SiO2 
 PCOD9471066
Probable space group: C M C M
;
_chemical_formula_sum "Si O2"
_cell_formula_units_Z 88
_cell_length_a 11.440735
_cell_length_b 14.547213
_cell_length_c 27.209613
_cell_angle_alpha 90.000000
_cell_angle_beta 90.000000
_cell_angle_gamma 90.000000
_cell_volume 4528.517902
_symmetry_space_group_name_H-M "C M C M"
_symmetry_group_IT_number 63
_symmetry_cell_setting 'orthorhombic'
loop_
_space_group_symop_operation_xyz
x,y,z
-x,-y,1/2+z
x,-y,-z
-x,y,1/2-z
-x,-y,-z
x,y,1/2-z
-x,y,z
x,-y,1/2+z
1/2+x,1/2+y,z
1/2-x,1/2-y,1/2+z
1/2+x,1/2-y,-z
1/2-x,1/2+y,1/2-z
1/2-x,1/2-y,-z
1/2+x,1/2+y,1/2-z
1/2-x,1/2+y,z
1/2+x,1/2-y,1/2+z
loop_
_atom_site_type_symbol
_atom_site_label
_atom_site_fract_x
_atom_site_fract_y
_atom_site_fract_z
Si Si1 0.500000 0.228764 0.944224
Si Si2 0.000000 0.685187 0.055134
Si Si3 0.000000 0.515471 0.584677
Si Si4 0.262661 0.927913 0.124996
Si Si5 0.360351 0.563168 0.194836
Si Si6 0.741938 0.734282 0.558759
Si Si7 0.863457 0.728585 0.691846
O O1 0.500000 0.118025 0.937756
O O2 0.625625 0.263038 0.924276
O O3 0.500000 0.238447 0.003061
O O4 0.874483 0.714396 0.077822
O O5 0.000000 0.574697 0.050961
O O6 0.881274 0.515641 0.615722
O O7 0.229015 0.872514 0.075358
O O8 0.290530 0.845398 0.162401
O O9 0.174076 0.995020 0.151621
O O10 0.318978 0.534846 0.250000
O O11 0.500000 0.568718 0.197383
O O12 0.319800 0.667346 0.185350
O O13 0.750000 0.750000 0.500000
O O14 0.859954 0.709815 0.750000
O O15 0.000000 0.721419 0.676440
#
# Coordination Sequence:
#
# PCOD9471066 Si02
#       7
#     8   8   8  16  16  16  16
#     4   8  17  38  56  76 106 151 197 228 276 331
#     4  10  19  34  56  79 113 147 186 236 289 328
#     4  10  21  32  51  85 107 143 184 232 278 339
#     4  11  20  34  56  82 114 140 189 230 279 338
#     4   9  20  37  56  79 108 143 185 231 286 345
#     4   9  20  35  56  82 116 154 190 233 280 341
#     4   9  18  35  57  79 104 143 186 227 276 332
#
# _framework density 19.432407000000001
#
# number of rings (size 3 to 8) (size 9 to 14) (size 15 to 20)
#    0.000    2.545    0.909    1.909    3.818    0.000 
#    0.000    0.000    0.000    0.000    0.000   14.000 
#    0.000    0.000    0.000    0.000    0.000    0.000 
#
# Total GULP energy -244947.465742 kJ/mol
# GULP energy per Si atom -5566.987858 kJ/mol
# Density = 1.938818 g / cm^3
# Si number density = 19.432407 Si / 1000 Ang^3
#
#
#
# Elastic Constant Matrix: (Units=GPa)
#
#
# Indices 1 2 3 4 5 6 
#
# 1 107.0503 27.4004 11.2432 0.0000 0.0000 0.0000
# 2 27.4004 58.7898 22.3635 0.0000 0.0000 0.0000
# 3 11.2432 22.3635 59.1469 0.0000 0.0000 0.0000
# 4 0.0000 0.0000 0.0000 30.1039 0.0000 0.0000
# 5 0.0000 0.0000 0.0000 0.0000 26.1087 0.0000
# 6 0.0000 0.0000 0.0000 0.0000 0.0000 14.5040
#
#
#
# Elastic Compliance Matrix: (Units=1/GPa)
#
#
# Indices 1 2 3 4 5 6 
#
# 1 0.010608 -0.004879 -0.000172 0.000000 0.000000 0.000000
# 2 -0.004879 0.022111 -0.007433 0.000000 0.000000 0.000000
# 3 -0.000172 -0.007433 0.019750 0.000000 0.000000 0.000000
# 4 0.000000 0.000000 0.000000 0.033218 0.000000 0.000000
# 5 0.000000 0.000000 0.000000 0.000000 0.038301 0.000000
# 6 0.000000 0.000000 0.000000 0.000000 0.000000 0.068947
#
#
# Mechanical properties :
#
#
# Convention : Reuss Voigt Hill
#
# Bulk Modulus (GPa) = 36.36041 38.55568 37.45805
# Shear Modulus (GPa) = 22.01962 25.07530 23.54746
#
# Velocity S-wave (km/s) = 3.36987 3.59609 3.48481
# Velocity P-wave (km/s) = 5.82178 6.09315 5.95901
#
# Compressibility (1/GPa) = 0.02750244
#
# Stress axis : x y z
#
# Youngs Moduli (GPa) = 94.26644 45.22620 50.63271
#
# Poissons Ratio (x) = 0.22065 0.00870
# Poissons Ratio (y) = 0.45991 0.37634
# Poissons Ratio (z) = 0.01620 0.33616
#
# Static dielectric constant tensor:
#      x y z
#    x 1.722010 0.000000 0.000000 
#    y 0.000000 1.657810 0.000000 
#    z 0.000000 0.000000 1.747810 
# 
# From -- ./inp_files/72763.got.cif
#   From: 2010.05.17/outbox.cif.g08.bks.cpg/sg63_37_cif.got.tgz:72763.got - 2010.06.03 15:47:04.
