data_PCOD9471694
_publ_section_title
;
Structure prediction by ZEFSAII (Michael W. Deem and Ramdas Pophale) SiO2 
 PCOD9471694
Probable space group: C M C M
;
_chemical_formula_sum "Si O2"
_cell_formula_units_Z 80
_cell_length_a 17.729588
_cell_length_b 26.577485
_cell_length_c 9.667667
_cell_angle_alpha 90.000000
_cell_angle_beta 90.000000
_cell_angle_gamma 90.000000
_cell_volume 4555.480670
_symmetry_space_group_name_H-M "C M C M"
_symmetry_group_IT_number 63
_symmetry_cell_setting 'orthorhombic'
loop_
_space_group_symop_operation_xyz
x,y,z
-x,-y,1/2+z
x,-y,-z
-x,y,1/2-z
-x,-y,-z
x,y,1/2-z
-x,y,z
x,-y,1/2+z
1/2+x,1/2+y,z
1/2-x,1/2-y,1/2+z
1/2+x,1/2-y,-z
1/2-x,1/2+y,1/2-z
1/2-x,1/2-y,-z
1/2+x,1/2+y,1/2-z
1/2-x,1/2+y,z
1/2+x,1/2-y,1/2+z
loop_
_atom_site_type_symbol
_atom_site_label
_atom_site_fract_x
_atom_site_fract_y
_atom_site_fract_z
Si Si1 0.874390 0.159957 0.583434
Si Si2 0.803143 0.657593 0.582543
Si Si3 0.415472 0.755739 0.087221
Si Si4 0.195840 0.546950 0.909833
Si Si5 0.879912 0.047117 0.590896
O O1 0.883351 0.164723 0.750000
O O2 0.784997 0.164066 0.550262
O O3 0.911861 0.204924 0.500621
O O4 0.901438 0.103591 0.545354
O O5 0.807977 0.656224 0.750000
O O6 0.854749 0.703552 0.535527
O O7 0.827767 0.601905 0.535704
O O8 0.400372 0.744986 0.250000
O O9 0.500000 0.777097 0.078385
O O10 0.172947 0.541404 0.750000
O O11 0.287857 0.547412 0.910879
O O12 0.170259 0.500000 0.000000
O O13 0.903161 0.040571 0.750000
O O14 0.905305 0.000000 0.500000
#
# Coordination Sequence:
#
# PCOD9471694 Si02
#       5
#    16  16  16  16  16
#     4   9  17  30  48  68  90 117 148 182 221 263
#     4   8  15  29  47  66  90 119 149 181 218 262
#     4  10  20  32  46  65  89 118 152 187 222 262
#     4   8  13  23  40  62  88 114 140 174 215 257
#     4   8  14  24  40  64  90 113 138 172 216 261
#
# _framework density 17.561264000000001
#
# number of rings (size 3 to 8) (size 9 to 14) (size 15 to 20)
#    0.000    3.400    0.000    3.000    0.000    1.200 
#    0.000    4.000    0.000    1.200    0.000    0.000 
#    0.000    0.000    0.000    0.000    0.000    0.000 
#
# Total GULP energy -222729.718013 kJ/mol
# GULP energy per Si atom -5568.242950 kJ/mol
# Density = 1.752129 g / cm^3
# Si number density = 17.561264 Si / 1000 Ang^3
#
#
#
# Elastic Constant Matrix: (Units=GPa)
#
#
# Indices 1 2 3 4 5 6 
#
# 1 40.5236 40.5243 17.6339 0.0000 0.0000 0.0000
# 2 40.5243 138.3370 46.3477 0.0000 0.0000 0.0000
# 3 17.6339 46.3477 33.0252 0.0000 0.0000 0.0000
# 4 0.0000 0.0000 0.0000 33.0231 0.0000 0.0000
# 5 0.0000 0.0000 0.0000 0.0000 8.3607 0.0000
# 6 0.0000 0.0000 0.0000 0.0000 0.0000 -12.1593
#
#
#
# Elastic Compliance Matrix: (Units=1/GPa)
#
#
# Indices 1 2 3 4 5 6 
#
# 1 0.036086 -0.007768 -0.008367 0.000000 0.000000 0.000000
# 2 -0.007768 0.015316 -0.017347 0.000000 0.000000 0.000000
# 3 -0.008367 -0.017347 0.059092 0.000000 0.000000 0.000000
# 4 0.000000 0.000000 0.000000 0.030282 0.000000 0.000000
# 5 0.000000 0.000000 0.000000 0.000000 0.119608 0.000000
# 6 0.000000 0.000000 0.000000 0.000000 0.000000 -0.082242
#
#
# Mechanical properties :
#
#
# Convention : Reuss Voigt Hill
#
# Bulk Modulus (GPa) = 22.97217 46.76642 34.86930
# Shear Modulus (GPa) = 19.25925 13.00355 16.13140
#
# Velocity S-wave (km/s) = 3.31522 2.72411 3.03409
# Velocity P-wave (km/s) = 5.26914 6.04835 5.67214
#
# Compressibility (1/GPa) = 0.04353092
#
# Stress axis : x y z
#
# Youngs Moduli (GPa) = 27.71184 65.29089 16.92263
#
# Poissons Ratio (x) = 0.50716 0.14159
# Poissons Ratio (y) = 0.21526 0.29356
# Poissons Ratio (z) = 0.23186 1.13261
#
# Static dielectric constant tensor:
#      x y z
#    x 1.605220 0.000000 0.000000 
#    y 0.000000 1.610290 0.000000 
#    z 0.000000 0.000000 1.580080 
# 
# From -- ./inp_files/6346.got.cif
#   From: 2010.05.17/outbox.cif.g08.bks.cpg/sg63_4_cif.got.tgz:6346.got - 2010.06.03 15:47:04.
