data_PCOD9471311
_publ_section_title
;
Structure prediction by ZEFSAII (Michael W. Deem and Ramdas Pophale) SiO2 
 PCOD9471311
Probable space group: C M C M
;
_chemical_formula_sum "Si O2"
_cell_formula_units_Z 56
_cell_length_a 13.914202
_cell_length_b 19.219014
_cell_length_c 9.079176
_cell_angle_alpha 90.000000
_cell_angle_beta 90.000000
_cell_angle_gamma 90.000000
_cell_volume 2427.928215
_symmetry_space_group_name_H-M "C M C M"
_symmetry_group_IT_number 63
_symmetry_cell_setting 'orthorhombic'
loop_
_space_group_symop_operation_xyz
x,y,z
-x,-y,1/2+z
x,-y,-z
-x,y,1/2-z
-x,-y,-z
x,y,1/2-z
-x,y,z
x,-y,1/2+z
1/2+x,1/2+y,z
1/2-x,1/2-y,1/2+z
1/2+x,1/2-y,-z
1/2-x,1/2+y,1/2-z
1/2-x,1/2-y,-z
1/2+x,1/2+y,1/2-z
1/2-x,1/2+y,z
1/2+x,1/2-y,1/2+z
loop_
_atom_site_type_symbol
_atom_site_label
_atom_site_fract_x
_atom_site_fract_y
_atom_site_fract_z
Si Si1 0.387252 0.843455 0.442874
Si Si2 0.614664 0.370937 0.250000
Si Si3 0.616657 0.314628 0.914420
Si Si4 0.889851 0.598835 0.250000
Si Si5 0.786014 0.544746 0.750000
O O1 0.500000 0.849617 0.405253
O O2 0.354650 0.766475 0.403744
O O3 0.377811 0.851290 0.614306
O O4 0.332241 0.910145 0.381285
O O5 0.500000 0.375650 0.250000
O O6 0.641531 0.339155 0.415327
O O7 0.672541 0.443482 0.250000
O O8 0.646211 0.345458 0.750000
O O9 0.500000 0.318036 0.914273
O O10 0.821000 0.533140 0.250000
O O11 0.000000 0.570821 0.250000
#
# Coordination Sequence:
#
# PCOD9471311 Si02
#       5
#    16   8  16   8   8
#     4  10  19  35  58  87 119 149 187 234 296 368
#     4  10  23  40  57  83 118 160 207 249 292 339
#     4   9  17  35  61  85 116 155 193 240 297 355
#     4  10  21  36  59  87 122 158 185 233 300 365
#     4  12  22  34  54  84 118 160 196 240 288 348
#
# _framework density 23.064931000000001
#
# number of rings (size 3 to 8) (size 9 to 14) (size 15 to 20)
#    0.000    2.000    1.429    3.000    0.000    6.857 
#    2.571    0.000    0.000    3.429    0.000    0.000 
#    0.000    6.857    0.000    0.000    0.000    0.000 
#
# Total GULP energy -155884.207450 kJ/mol
# GULP energy per Si atom -5567.293123 kJ/mol
# Density = 2.301243 g / cm^3
# Si number density = 23.064931 Si / 1000 Ang^3
#
#
#
# Elastic Constant Matrix: (Units=GPa)
#
#
# Indices 1 2 3 4 5 6 
#
# 1 63.0250 25.8609 23.6670 0.0000 0.0000 0.0000
# 2 25.8609 60.3457 34.0614 0.0000 0.0000 0.0000
# 3 23.6670 34.0614 241.6798 0.0000 0.0000 0.0000
# 4 0.0000 0.0000 0.0000 54.4405 0.0000 0.0000
# 5 0.0000 0.0000 0.0000 0.0000 6.2621 0.0000
# 6 0.0000 0.0000 0.0000 0.0000 0.0000 25.5939
#
#
#
# Elastic Compliance Matrix: (Units=1/GPa)
#
#
# Indices 1 2 3 4 5 6 
#
# 1 0.019390 -0.007863 -0.000791 0.000000 0.000000 0.000000
# 2 -0.007863 0.021192 -0.002217 0.000000 0.000000 0.000000
# 3 -0.000791 -0.002217 0.004528 0.000000 0.000000 0.000000
# 4 0.000000 0.000000 0.000000 0.018369 0.000000 0.000000
# 5 0.000000 0.000000 0.000000 0.000000 0.159692 0.000000
# 6 0.000000 0.000000 0.000000 0.000000 0.000000 0.039072
#
#
# Mechanical properties :
#
#
# Convention : Reuss Voigt Hill
#
# Bulk Modulus (GPa) = 42.79245 59.13656 50.96450
# Shear Modulus (GPa) = 17.13659 36.02335 26.57997
#
# Velocity S-wave (km/s) = 2.72871 3.95628 3.39838
# Velocity P-wave (km/s) = 5.34052 6.82381 6.12721
#
# Compressibility (1/GPa) = 0.02336861
#
# Stress axis : x y z
#
# Youngs Moduli (GPa) = 51.57261 47.18723 220.87044
#
# Poissons Ratio (x) = 0.37105 0.17462
# Poissons Ratio (y) = 0.40553 0.48961
# Poissons Ratio (z) = 0.04077 0.10460
#
# Static dielectric constant tensor:
#      x y z
#    x 1.899960 0.000000 0.000000 
#    y 0.000000 1.746810 0.000000 
#    z 0.000000 0.000000 1.893010 
# 
# From -- ./inp_files/4035.got.cif
#   From: 2010.05.17/outbox.cif.g08.bks.cpg/sg63_3_cif.got.tgz:4035.got - 2010.06.03 15:47:04.
