data_PCOD9471029
_publ_section_title
;
Structure prediction by ZEFSAII (Michael W. Deem and Ramdas Pophale) SiO2 
 PCOD9471029
Probable space group: C M C M
;
_chemical_formula_sum "Si O2"
_cell_formula_units_Z 96
_cell_length_a 8.016486
_cell_length_b 29.964793
_cell_length_c 21.140529
_cell_angle_alpha 90.000000
_cell_angle_beta 90.000000
_cell_angle_gamma 90.000000
_cell_volume 5078.216016
_symmetry_space_group_name_H-M "C M C M"
_symmetry_group_IT_number 63
_symmetry_cell_setting 'orthorhombic'
loop_
_space_group_symop_operation_xyz
x,y,z
-x,-y,1/2+z
x,-y,-z
-x,y,1/2-z
-x,-y,-z
x,y,1/2-z
-x,y,z
x,-y,1/2+z
1/2+x,1/2+y,z
1/2-x,1/2-y,1/2+z
1/2+x,1/2-y,-z
1/2-x,1/2+y,1/2-z
1/2-x,1/2-y,-z
1/2+x,1/2+y,1/2-z
1/2-x,1/2+y,z
1/2+x,1/2-y,1/2+z
loop_
_atom_site_type_symbol
_atom_site_label
_atom_site_fract_x
_atom_site_fract_y
_atom_site_fract_z
Si Si1 0.199411 0.220462 0.320211
Si Si2 0.699247 0.873870 0.874587
Si Si3 0.703961 0.874580 0.021263
Si Si4 0.701702 0.777831 0.437916
Si Si5 0.700958 0.971419 0.060558
Si Si6 0.800638 0.030380 0.320909
O O1 0.267307 0.229078 0.250000
O O2 0.230156 0.169324 0.339647
O O3 0.265610 0.252457 0.375659
O O4 0.000000 0.227040 0.318004
O O5 0.500000 0.869748 0.875022
O O6 0.756415 0.874601 0.947720
O O7 0.745101 0.920168 0.841514
O O8 0.500000 0.874554 0.021529
O O9 0.759631 0.828775 0.053860
O O10 0.759899 0.920465 0.053722
O O11 0.500000 0.778551 0.435261
O O12 0.750000 0.750000 0.500000
O O13 0.500000 0.970679 0.056298
O O14 0.745188 0.995774 0.125452
O O15 0.761895 0.000000 0.000000
O O16 0.737688 0.020384 0.250000
O O17 0.000000 0.030006 0.319411
#
# Coordination Sequence:
#
# PCOD9471029 Si02
#       6
#    16  16  16  16  16  16
#     4  10  21  35  51  77 113 147 179 221 274 328
#     4  11  20  34  57  83 111 142 179 226 275 325
#     4   9  18  33  54  82 111 135 174 231 276 315
#     4  10  19  34  55  78 108 144 181 221 266 317
#     4  10  19  36  59  82 109 142 182 229 274 321
#     4  11  24  39  54  79 116 150 181 222 273 330
#
# _framework density 18.904275999999999
#
# number of rings (size 3 to 8) (size 9 to 14) (size 15 to 20)
#    0.000    1.833    3.333    1.500    0.000    4.000 
#    0.000    1.667    0.000    3.000    0.000    0.000 
#    0.000    0.000    0.000    0.000    0.000    0.000 
#
# Total GULP energy -268039.800360 kJ/mol
# GULP energy per Si atom -5584.162507 kJ/mol
# Density = 1.886125 g / cm^3
# Si number density = 18.904276 Si / 1000 Ang^3
#
#
#
# Elastic Constant Matrix: (Units=GPa)
#
#
# Indices 1 2 3 4 5 6 
#
# 1 12.1870 0.3239 5.1027 0.0000 0.0000 0.0000
# 2 0.3239 130.6914 99.8348 0.0000 0.0000 0.0000
# 3 5.1027 99.8348 191.2294 0.0000 0.0000 0.0000
# 4 0.0000 0.0000 0.0000 25.8237 0.0000 0.0000
# 5 0.0000 0.0000 0.0000 0.0000 21.8134 0.0000
# 6 0.0000 0.0000 0.0000 0.0000 0.0000 8.6788
#
#
#
# Elastic Compliance Matrix: (Units=1/GPa)
#
#
# Indices 1 2 3 4 5 6 
#
# 1 0.083464 0.002486 -0.003525 0.000000 0.000000 0.000000
# 2 0.002486 0.012801 -0.006750 0.000000 0.000000 0.000000
# 3 -0.003525 -0.006750 0.008847 0.000000 0.000000 0.000000
# 4 0.000000 0.000000 0.000000 0.038724 0.000000 0.000000
# 5 0.000000 0.000000 0.000000 0.000000 0.045843 0.000000
# 6 0.000000 0.000000 0.000000 0.000000 0.000000 0.115224
#
#
# Mechanical properties :
#
#
# Convention : Reuss Voigt Hill
#
# Bulk Modulus (GPa) = 11.16875 60.51451 35.84163
# Shear Modulus (GPa) = 14.27241 26.51959 20.39600
#
# Velocity S-wave (km/s) = 2.75068 3.74951 3.28824
# Velocity P-wave (km/s) = 4.00115 7.12921 5.78078
#
# Compressibility (1/GPa) = 0.08953551
#
# Stress axis : x y z
#
# Youngs Moduli (GPa) = 11.98118 78.11643 113.03141
#
# Poissons Ratio (x) = -0.19418 0.39842
# Poissons Ratio (y) = -0.02978 0.76291
# Poissons Ratio (z) = 0.04223 0.52725
#
# Static dielectric constant tensor:
#      x y z
#    x 1.681950 0.000000 0.000000 
#    y 0.000000 1.708330 0.000000 
#    z 0.000000 0.000000 1.653140 
# 
# From -- ./inp_files/51380.got.cif
#   From: 2010.05.17/outbox.cif.g08.bks.cpg/sg63_26_cif.got.tgz:51380.got - 2010.06.03 15:47:04.
