data_PCOD9471014
_publ_section_title
;
Structure prediction by ZEFSAII (Michael W. Deem and Ramdas Pophale) SiO2 
 PCOD9471014
Probable space group: C M C M
;
_chemical_formula_sum "Si O2"
_cell_formula_units_Z 68
_cell_length_a 9.801613
_cell_length_b 17.553728
_cell_length_c 21.920394
_cell_angle_alpha 90.000000
_cell_angle_beta 90.000000
_cell_angle_gamma 90.000000
_cell_volume 3771.510070
_symmetry_space_group_name_H-M "C M C M"
_symmetry_group_IT_number 63
_symmetry_cell_setting 'orthorhombic'
loop_
_space_group_symop_operation_xyz
x,y,z
-x,-y,1/2+z
x,-y,-z
-x,y,1/2-z
-x,-y,-z
x,y,1/2-z
-x,y,z
x,-y,1/2+z
1/2+x,1/2+y,z
1/2-x,1/2-y,1/2+z
1/2+x,1/2-y,-z
1/2-x,1/2+y,1/2-z
1/2-x,1/2-y,-z
1/2+x,1/2+y,1/2-z
1/2-x,1/2+y,z
1/2+x,1/2-y,1/2+z
loop_
_atom_site_type_symbol
_atom_site_label
_atom_site_fract_x
_atom_site_fract_y
_atom_site_fract_z
Si Si1 0.231527 0.463467 0.938764
Si Si2 0.781942 0.612910 0.640062
Si Si3 0.500000 0.200617 0.559560
Si Si4 0.000000 0.350161 0.581062
Si Si5 0.000000 0.402676 0.250000
Si Si6 0.000000 0.127361 0.020056
Si Si7 0.500000 0.319261 0.122406
O O1 0.251153 0.533163 0.893006
O O2 0.132001 0.401952 0.908952
O O3 0.368021 0.421449 0.961316
O O4 0.166932 0.500000 0.000000
O O5 0.880742 0.599627 0.696659
O O6 0.638024 0.652232 0.653540
O O7 0.867194 0.666882 0.593302
O O8 0.500000 0.172200 0.490260
O O9 0.500000 0.292109 0.555704
O O10 0.000000 0.271811 0.617308
O O11 0.000000 0.147458 0.947773
#
# Coordination Sequence:
#
# PCOD9471014 Si02
#       7
#    16  16   8   8   4   8   8
#     4  12  20  33  56  90 124 157 181 231 293 361
#     4  11  22  39  61  80 115 154 204 233 287 339
#     4  10  19  34  54  82 123 162 177 219 286 355
#     4  11  20  31  53  89 125 149 181 222 288 358
#     4  10  26  44  60  80 104 158 212 258 264 330
#     4  11  21  33  54  94 135 146 174 229 307 367
#     4  11  21  35  58  91 121 151 181 241 293 357
#
# _framework density 18.029913000000001
#
# number of rings (size 3 to 8) (size 9 to 14) (size 15 to 20)
#    0.000    0.941    4.706    4.235    0.000    4.235 
#    0.000    0.000    0.000   22.588    0.000    0.000 
#    0.000    0.000    0.000    0.000    0.000    0.000 
#
# Total GULP energy -189434.789890 kJ/mol
# GULP energy per Si atom -5571.611467 kJ/mol
# Density = 1.798888 g / cm^3
# Si number density = 18.029913 Si / 1000 Ang^3
#
#
#
# Elastic Constant Matrix: (Units=GPa)
#
#
# Indices 1 2 3 4 5 6 
#
# 1 112.0193 43.3305 -20.0871 0.0000 0.0000 0.0000
# 2 43.3305 129.9273 14.3070 0.0000 0.0000 0.0000
# 3 -20.0871 14.3070 20.8488 0.0000 0.0000 0.0000
# 4 0.0000 0.0000 0.0000 -0.9162 0.0000 0.0000
# 5 0.0000 0.0000 0.0000 0.0000 18.3655 0.0000
# 6 0.0000 0.0000 0.0000 0.0000 0.0000 24.2271
#
#
#
# Elastic Compliance Matrix: (Units=1/GPa)
#
#
# Indices 1 2 3 4 5 6 
#
# 1 0.015266 -0.007259 0.019689 0.000000 0.000000 0.000000
# 2 -0.007259 0.011778 -0.015076 0.000000 0.000000 0.000000
# 3 0.019689 -0.015076 0.077280 0.000000 0.000000 0.000000
# 4 0.000000 0.000000 0.000000 -1.091459 0.000000 0.000000
# 5 0.000000 0.000000 0.000000 0.000000 0.054450 0.000000
# 6 0.000000 0.000000 0.000000 0.000000 0.000000 0.041276
#
#
# Mechanical properties :
#
#
# Convention : Reuss Voigt Hill
#
# Bulk Modulus (GPa) = 10.09783 37.54402 23.82093
# Shear Modulus (GPa) = -5.86093 23.35159 8.74533
#
# Velocity S-wave (km/s) = -1.80492 3.60274 2.20476
# Velocity P-wave (km/s) = 1.12655 6.17856 4.44093
#
# Compressibility (1/GPa) = 0.09903115
#
# Stress axis : x y z
#
# Youngs Moduli (GPa) = 65.50678 84.90687 12.94001
#
# Poissons Ratio (x) = 0.61635 -0.25478
# Poissons Ratio (y) = 0.47552 0.19508
# Poissons Ratio (z) = -1.28978 1.28005
#
# Static dielectric constant tensor:
#      x y z
#    x 1.631010 0.000000 0.000000 
#    y 0.000000 1.622460 0.000000 
#    z 0.000000 0.000000 1.576540 
# 
# From -- ./inp_files/50540.got.cif
#   From: 2010.05.17/outbox.cif.g08.bks.cpg/sg63_26_cif.got.tgz:50540.got - 2010.06.03 15:47:04.
