data_PCOD9471055
_publ_section_title
;
Structure prediction by ZEFSAII (Michael W. Deem and Ramdas Pophale) SiO2 
 PCOD9471055
Probable space group: C M C M
;
_chemical_formula_sum "Si O2"
_cell_formula_units_Z 112
_cell_length_a 14.380345
_cell_length_b 12.955852
_cell_length_c 28.547185
_cell_angle_alpha 90.000000
_cell_angle_beta 90.000000
_cell_angle_gamma 90.000000
_cell_volume 5318.615233
_symmetry_space_group_name_H-M "C M C M"
_symmetry_group_IT_number 63
_symmetry_cell_setting 'orthorhombic'
loop_
_space_group_symop_operation_xyz
x,y,z
-x,-y,1/2+z
x,-y,-z
-x,y,1/2-z
-x,-y,-z
x,y,1/2-z
-x,y,z
x,-y,1/2+z
1/2+x,1/2+y,z
1/2-x,1/2-y,1/2+z
1/2+x,1/2-y,-z
1/2-x,1/2+y,1/2-z
1/2-x,1/2-y,-z
1/2+x,1/2+y,1/2-z
1/2-x,1/2+y,z
1/2+x,1/2-y,1/2+z
loop_
_atom_site_type_symbol
_atom_site_label
_atom_site_fract_x
_atom_site_fract_y
_atom_site_fract_z
Si Si1 0.291638 0.483871 0.077349
Si Si2 0.396521 0.725171 0.595239
Si Si3 0.362631 0.664232 0.800547
Si Si4 0.856863 0.292387 0.198363
Si Si5 0.222481 0.192442 0.452675
Si Si6 0.393496 0.562403 0.166883
Si Si7 0.895700 0.362303 0.095598
O O1 0.360283 0.385812 0.076135
O O2 0.300647 0.573641 0.039530
O O3 0.322155 0.543205 0.124799
O O4 0.187125 0.440275 0.081864
O O5 0.500000 0.749671 0.578236
O O6 0.398756 0.714168 0.651556
O O7 0.315166 0.801461 0.579447
O O8 0.394425 0.704808 0.750000
O O9 0.252161 0.681133 0.802754
O O10 0.385258 0.542454 0.803303
O O11 0.891945 0.323348 0.250000
O O12 0.871910 0.169467 0.192457
O O13 0.896141 0.345612 0.151741
O O14 0.250000 0.250000 0.500000
O O15 0.139952 0.255136 0.427493
O O16 0.500000 0.568354 0.149355
O O17 0.000000 0.389338 0.080245
#
# Coordination Sequence:
#
# PCOD9471055 Si02
#       7
#    16  16  16  16  16  16  16
#     4  10  20  40  60  86 118 152 189 243 298 354
#     4  10  21  38  60  89 119 152 195 242 295 355
#     4  10  19  34  55  85 123 159 190 234 292 348
#     4  11  21  35  57  90 125 158 199 246 290 344
#     4  11  24  43  64  86 117 155 199 254 309 363
#     4  11  20  34  59  89 119 156 199 240 288 345
#     4  11  23  40  62  89 120 159 201 244 301 362
#
# _framework density 21.058114
#
# number of rings (size 3 to 8) (size 9 to 14) (size 15 to 20)
#    0.000    1.429    5.714    2.571    0.000    6.857 
#    0.000    1.429    0.000    0.000    0.000    2.000 
#    0.000    0.000    0.000    0.000    0.000    0.000 
#
# Total GULP energy -312612.505231 kJ/mol
# GULP energy per Si atom -5582.366165 kJ/mol
# Density = 2.101018 g / cm^3
# Si number density = 21.058114 Si / 1000 Ang^3
#
#
#
# Elastic Constant Matrix: (Units=GPa)
#
#
# Indices 1 2 3 4 5 6 
#
# 1 154.1420 16.3740 3.9608 0.0000 0.0000 0.0000
# 2 16.3740 61.0106 14.7203 0.0000 0.0000 0.0000
# 3 3.9608 14.7203 62.3163 0.0000 0.0000 0.0000
# 4 0.0000 0.0000 0.0000 26.7949 0.0000 0.0000
# 5 0.0000 0.0000 0.0000 0.0000 -7.3924 0.0000
# 6 0.0000 0.0000 0.0000 0.0000 0.0000 -5.5270
#
#
#
# Elastic Compliance Matrix: (Units=1/GPa)
#
#
# Indices 1 2 3 4 5 6 
#
# 1 0.006678 -0.001792 -0.000001 0.000000 0.000000 0.000000
# 2 -0.001792 0.017862 -0.004105 0.000000 0.000000 0.000000
# 3 -0.000001 -0.004105 0.017017 0.000000 0.000000 0.000000
# 4 0.000000 0.000000 0.000000 0.037321 0.000000 0.000000
# 5 0.000000 0.000000 0.000000 0.000000 -0.135274 0.000000
# 6 0.000000 0.000000 0.000000 0.000000 0.000000 -0.180931
#
#
# Mechanical properties :
#
#
# Convention : Reuss Voigt Hill
#
# Bulk Modulus (GPa) = 33.60228 38.61989 36.11109
# Shear Modulus (GPa) = -23.19001 18.93602 -2.12699
#
# Velocity S-wave (km/s) = -3.32209 3.00196 -1.00611
# Velocity P-wave (km/s) = 1.12983 5.51318 3.97943
#
# Compressibility (1/GPa) = 0.02975988
#
# Stress axis : x y z
#
# Youngs Moduli (GPa) = 149.74757 55.98457 58.76461
#
# Poissons Ratio (x) = 0.10032 0.00007
# Poissons Ratio (y) = 0.26834 0.24126
# Poissons Ratio (z) = 0.00017 0.22984
#
# Static dielectric constant tensor:
#      x y z
#    x 1.810030 0.000000 0.000000 
#    y 0.000000 1.761970 0.000000 
#    z 0.000000 0.000000 1.817830 
# 
# From -- ./inp_files/73527.got.cif
#   From: 2010.05.17/outbox.cif.g08.bks.cpg/sg63_37_cif.got.tgz:73527.got - 2010.06.03 15:47:04.
