data_PCOD9471092
_publ_section_title
;
Structure prediction by ZEFSAII (Michael W. Deem and Ramdas Pophale) SiO2 
 PCOD9471092
Probable space group: C M C M
;
_chemical_formula_sum "Si O2"
_cell_formula_units_Z 80
_cell_length_a 12.749052
_cell_length_b 16.579371
_cell_length_c 18.113800
_cell_angle_alpha 90.000000
_cell_angle_beta 90.000000
_cell_angle_gamma 90.000000
_cell_volume 3828.736784
_symmetry_space_group_name_H-M "C M C M"
_symmetry_group_IT_number 63
_symmetry_cell_setting 'orthorhombic'
loop_
_space_group_symop_operation_xyz
x,y,z
-x,-y,1/2+z
x,-y,-z
-x,y,1/2-z
-x,-y,-z
x,y,1/2-z
-x,y,z
x,-y,1/2+z
1/2+x,1/2+y,z
1/2-x,1/2-y,1/2+z
1/2+x,1/2-y,-z
1/2-x,1/2+y,1/2-z
1/2-x,1/2-y,-z
1/2+x,1/2+y,1/2-z
1/2-x,1/2+y,z
1/2+x,1/2-y,1/2+z
loop_
_atom_site_type_symbol
_atom_site_label
_atom_site_fract_x
_atom_site_fract_y
_atom_site_fract_z
Si Si1 0.118576 0.112543 0.026800
Si Si2 0.730937 0.853140 0.335024
Si Si3 0.879558 0.010544 0.330809
Si Si4 0.160510 0.413253 0.477533
Si Si5 0.619031 0.241028 0.070418
O O1 0.212724 0.078515 0.978723
O O2 0.000000 0.088973 0.005862
O O3 0.138038 0.078960 0.108013
O O4 0.125839 0.206419 0.005582
O O5 0.699360 0.835180 0.250000
O O6 0.804750 0.933035 0.330860
O O7 0.641845 0.878014 0.395535
O O8 0.799174 0.780415 0.372168
O O9 0.869861 0.048644 0.250000
O O10 0.000000 0.982029 0.339863
O O11 0.117148 0.500000 0.500000
O O12 0.136440 0.349258 0.541917
O O13 0.500000 0.249988 0.098910
#
# Coordination Sequence:
#
# PCOD9471092 Si02
#       5
#    16  16  16  16  16
#     4   9  17  31  51  77 109 141 175 222 279 342
#     4  10  19  34  56  83 115 143 179 234 292 344
#     4   9  16  26  46  79 113 141 168 209 277 349
#     4  11  21  37  56  79 112 147 192 236 280 340
#     4  10  22  37  55  78 107 150 199 237 274 322
#
# _framework density 20.89462
#
# number of rings (size 3 to 8) (size 9 to 14) (size 15 to 20)
#    0.000    2.200    2.000    3.000    0.000    2.800 
#    0.000    5.000    0.000    1.800    0.000    0.000 
#    0.000    0.000    0.000    0.000    0.000    0.000 
#
# Total GULP energy -222683.580354 kJ/mol
# GULP energy per Si atom -5567.089509 kJ/mol
# Density = 2.084706 g / cm^3
# Si number density = 20.894620 Si / 1000 Ang^3
#
#
#
# Elastic Constant Matrix: (Units=GPa)
#
#
# Indices 1 2 3 4 5 6 
#
# 1 43.7758 -0.7232 8.3017 0.0000 0.0000 0.0000
# 2 -0.7232 120.4454 35.1359 0.0000 0.0000 0.0000
# 3 8.3017 35.1359 157.6747 0.0000 0.0000 0.0000
# 4 0.0000 0.0000 0.0000 27.2577 0.0000 0.0000
# 5 0.0000 0.0000 0.0000 0.0000 8.1683 0.0000
# 6 0.0000 0.0000 0.0000 0.0000 0.0000 -2.2318
#
#
#
# Elastic Compliance Matrix: (Units=1/GPa)
#
#
# Indices 1 2 3 4 5 6 
#
# 1 0.023105 0.000528 -0.001334 0.000000 0.000000 0.000000
# 2 0.000528 0.008892 -0.002009 0.000000 0.000000 0.000000
# 3 -0.001334 -0.002009 0.006860 0.000000 0.000000 0.000000
# 4 0.000000 0.000000 0.000000 0.036687 0.000000 0.000000
# 5 0.000000 0.000000 0.000000 0.000000 0.122425 0.000000
# 6 0.000000 0.000000 0.000000 0.000000 0.000000 -0.448067
#
#
# Mechanical properties :
#
#
# Convention : Reuss Voigt Hill
#
# Bulk Modulus (GPa) = 30.09648 45.25828 37.67738
# Shear Modulus (GPa) = -21.42327 25.25092 1.91382
#
# Velocity S-wave (km/s) = -3.20551 3.48010 0.95809
# Velocity P-wave (km/s) = 0.85724 6.15268 4.39262
#
# Compressibility (1/GPa) = 0.03322648
#
# Stress axis : x y z
#
# Youngs Moduli (GPa) = 43.27987 112.46298 145.76941
#
# Poissons Ratio (x) = -0.05937 0.19448
# Poissons Ratio (y) = -0.02285 0.29288
# Poissons Ratio (z) = 0.05774 0.22596
#
# Static dielectric constant tensor:
#      x y z
#    x 1.825290 0.000000 0.000000 
#    y 0.000000 1.799220 0.000000 
#    z 0.000000 0.000000 1.809890 
# 
# From -- ./inp_files/45426.got.cif
#   From: 2010.05.17/outbox.cif.g08.bks.cpg/sg63_23_cif.got.tgz:45426.got - 2010.06.03 15:47:04.
