data_PCOD9471978
_publ_section_title
;
Structure prediction by ZEFSAII (Michael W. Deem and Ramdas Pophale) SiO2 
 PCOD9471978
Probable space group: C M C M
;
_chemical_formula_sum "Si O2"
_cell_formula_units_Z 96
_cell_length_a 21.095714
_cell_length_b 28.605029
_cell_length_c 7.628746
_cell_angle_alpha 90.000000
_cell_angle_beta 90.000000
_cell_angle_gamma 90.000000
_cell_volume 4603.517269
_symmetry_space_group_name_H-M "C M C M"
_symmetry_group_IT_number 63
_symmetry_cell_setting 'orthorhombic'
loop_
_space_group_symop_operation_xyz
x,y,z
-x,-y,1/2+z
x,-y,-z
-x,y,1/2-z
-x,-y,-z
x,y,1/2-z
-x,y,z
x,-y,1/2+z
1/2+x,1/2+y,z
1/2-x,1/2-y,1/2+z
1/2+x,1/2-y,-z
1/2-x,1/2+y,1/2-z
1/2-x,1/2-y,-z
1/2+x,1/2+y,1/2-z
1/2-x,1/2+y,z
1/2+x,1/2-y,1/2+z
loop_
_atom_site_type_symbol
_atom_site_label
_atom_site_fract_x
_atom_site_fract_y
_atom_site_fract_z
Si Si1 0.071620 0.790134 0.963741
Si Si2 0.184653 0.724090 0.960867
Si Si3 0.697702 0.446266 0.958102
Si Si4 0.316371 0.881597 0.041494
Si Si5 0.928408 0.446471 0.039178
Si Si6 0.428722 0.398133 0.963956
O O1 0.072408 0.789656 0.750000
O O2 0.125381 0.754750 0.026441
O O3 0.083564 0.844074 0.014857
O O4 0.000000 0.777582 0.017869
O O5 0.178520 0.722100 0.750000
O O6 0.186693 0.671034 0.029072
O O7 0.250000 0.750000 0.000000
O O8 0.695221 0.442102 0.750000
O O9 0.628676 0.430417 0.026985
O O10 0.712073 0.500000 0.000000
O O11 0.752400 0.411053 0.017618
O O12 0.326138 0.877582 0.250000
O O13 0.375644 0.911171 0.969938
O O14 0.930417 0.442066 0.250000
O O15 0.000000 0.438396 0.972843
O O16 0.910764 0.500000 0.000000
O O17 0.429390 0.399224 0.750000
O O18 0.500000 0.411081 0.021416
#
# Coordination Sequence:
#
# PCOD9471978 Si02
#       6
#    16  16  16  16  16  16
#     4   8  14  27  49  75 100 128 166 207 243 286
#     4  10  20  33  51  76 104 134 169 209 251 295
#     4  11  22  35  53  75 101 133 169 209 253 301
#     4  10  21  35  51  74 104 135 169 209 250 296
#     4   9  18  33  52  73  98 129 165 205 249 296
#     4   8  15  29  49  73 100 130 165 204 245 292
#
# _framework density 20.853619999999999
#
# number of rings (size 3 to 8) (size 9 to 14) (size 15 to 20)
#    0.000    2.667    0.000    3.000    0.000    5.000 
#    0.000    3.333    0.000    2.000    0.000    9.333 
#    0.000    0.000    0.000    0.000    0.000    0.000 
#
# Total GULP energy -267970.934128 kJ/mol
# GULP energy per Si atom -5582.727794 kJ/mol
# Density = 2.080616 g / cm^3
# Si number density = 20.853620 Si / 1000 Ang^3
#
#
#
# Elastic Constant Matrix: (Units=GPa)
#
#
# Indices 1 2 3 4 5 6 
#
# 1 76.6231 30.2364 -2.6588 0.0000 0.0000 0.0000
# 2 30.2364 63.4025 -1.7365 0.0000 0.0000 0.0000
# 3 -2.6588 -1.7365 41.6362 0.0000 0.0000 0.0000
# 4 0.0000 0.0000 0.0000 2.8373 0.0000 0.0000
# 5 0.0000 0.0000 0.0000 0.0000 15.0046 0.0000
# 6 0.0000 0.0000 0.0000 0.0000 0.0000 45.0330
#
#
#
# Elastic Compliance Matrix: (Units=1/GPa)
#
#
# Indices 1 2 3 4 5 6 
#
# 1 0.016097 -0.007657 0.000709 0.000000 0.000000 0.000000
# 2 -0.007657 0.019433 0.000322 0.000000 0.000000 0.000000
# 3 0.000709 0.000322 0.024076 0.000000 0.000000 0.000000
# 4 0.000000 0.000000 0.000000 0.352448 0.000000 0.000000
# 5 0.000000 0.000000 0.000000 0.000000 0.066646 0.000000
# 6 0.000000 0.000000 0.000000 0.000000 0.000000 0.022206
#
#
# Mechanical properties :
#
#
# Convention : Reuss Voigt Hill
#
# Bulk Modulus (GPa) = 21.57414 25.92710 23.75062
# Shear Modulus (GPa) = 9.44089 22.96302 16.20195
#
# Velocity S-wave (km/s) = 2.13003 3.32196 2.79038
# Velocity P-wave (km/s) = 4.05183 5.21285 4.66857
#
# Compressibility (1/GPa) = 0.04635179
#
# Stress axis : x y z
#
# Youngs Moduli (GPa) = 62.12292 51.45945 41.53472
#
# Poissons Ratio (x) = 0.39404 -0.02943
# Poissons Ratio (y) = 0.47569 -0.01335
# Poissons Ratio (z) = -0.04402 -0.01654
#
# Static dielectric constant tensor:
#      x y z
#    x 1.739540 0.000000 0.000000 
#    y 0.000000 1.877230 0.000000 
#    z 0.000000 0.000000 1.791730 
# 
# From -- ./inp_files/8536.got.cif
#   From: 2010.05.17/outbox.cif.g08.bks.cpg/sg63_5_cif.got.tgz:8536.got - 2010.06.03 15:47:04.
