data_PCOD9471603
_publ_section_title
;
Structure prediction by ZEFSAII (Michael W. Deem and Ramdas Pophale) SiO2 
 PCOD9471603
Probable space group: C M C M
;
_chemical_formula_sum "Si O2"
_cell_formula_units_Z 104
_cell_length_a 20.850364
_cell_length_b 32.378936
_cell_length_c 8.996208
_cell_angle_alpha 90.000000
_cell_angle_beta 90.000000
_cell_angle_gamma 90.000000
_cell_volume 6073.453387
_symmetry_space_group_name_H-M "C M C M"
_symmetry_group_IT_number 63
_symmetry_cell_setting 'orthorhombic'
loop_
_space_group_symop_operation_xyz
x,y,z
-x,-y,1/2+z
x,-y,-z
-x,y,1/2-z
-x,-y,-z
x,y,1/2-z
-x,y,z
x,-y,1/2+z
1/2+x,1/2+y,z
1/2-x,1/2-y,1/2+z
1/2+x,1/2-y,-z
1/2-x,1/2+y,1/2-z
1/2-x,1/2-y,-z
1/2+x,1/2+y,1/2-z
1/2-x,1/2+y,z
1/2+x,1/2-y,1/2+z
loop_
_atom_site_type_symbol
_atom_site_label
_atom_site_fract_x
_atom_site_fract_y
_atom_site_fract_z
Si Si1 0.500000 0.044681 0.428982
Si Si2 0.737407 0.542280 0.926809
Si Si3 0.926977 0.729252 0.070379
Si Si4 0.814201 0.332860 0.576892
Si Si5 0.426246 0.319461 0.927035
Si Si6 0.638137 0.073548 0.422752
Si Si7 0.189644 0.133463 0.571986
O O1 0.500000 0.042128 0.250000
O O2 0.565638 0.066776 0.472699
O O3 0.500000 0.000000 0.500000
O O4 0.734268 0.538591 0.750000
O O5 0.703240 0.585533 0.970892
O O6 0.712709 0.500000 0.000000
O O7 0.810573 0.549143 0.979727
O O8 0.924550 0.732723 0.250000
O O9 0.868509 0.699352 0.025384
O O10 0.000000 0.714600 0.033300
O O11 0.918406 0.773963 0.997278
O O12 0.798589 0.323700 0.750000
O O13 0.845666 0.378194 0.571414
O O14 0.748744 0.338166 0.485295
O O15 0.416579 0.317388 0.750000
O O16 0.500000 0.332201 0.955253
O O17 0.375142 0.349792 0.000243
O O18 0.644978 0.060213 0.250000
O O19 0.186984 0.135521 0.750000
#
# Coordination Sequence:
#
# PCOD9471603 Si02
#       7
#     8  16  16  16  16  16  16
#     4  10  20  30  42  62  90 126 170 216 260 304
#     4  10  20  34  53  76 101 130 166 207 252 303
#     4   9  18  32  52  77 105 140 180 219 258 305
#     4   9  18  32  51  75 103 136 176 218 261 303
#     4  10  21  37  57  80 105 134 168 207 254 309
#     4   9  18  31  47  68  96 132 171 215 260 302
#     4  10  21  36  55  79 106 135 170 211 255 306
#
# _framework density 17.123701000000001
#
# number of rings (size 3 to 8) (size 9 to 14) (size 15 to 20)
#    0.000    2.462    0.000    1.846    1.077    5.846 
#    0.000    0.000    0.000    0.462    0.000    0.000 
#    0.000    0.000    0.000    0.000    0.000    0.000 
#
# Total GULP energy -289956.185748 kJ/mol
# GULP energy per Si atom -5576.080495 kJ/mol
# Density = 1.708473 g / cm^3
# Si number density = 17.123701 Si / 1000 Ang^3
#
#
#
# Elastic Constant Matrix: (Units=GPa)
#
#
# Indices 1 2 3 4 5 6 
#
# 1 122.1567 72.4112 50.5529 0.0000 0.0000 0.0000
# 2 72.4112 83.3762 41.1137 0.0000 0.0000 0.0000
# 3 50.5529 41.1137 40.0731 0.0000 0.0000 0.0000
# 4 0.0000 0.0000 0.0000 26.2292 0.0000 0.0000
# 5 0.0000 0.0000 0.0000 0.0000 20.1686 0.0000
# 6 0.0000 0.0000 0.0000 0.0000 0.0000 16.8341
#
#
#
# Elastic Compliance Matrix: (Units=1/GPa)
#
#
# Indices 1 2 3 4 5 6 
#
# 1 0.020774 -0.010361 -0.015577 0.000000 0.000000 0.000000
# 2 -0.010361 0.029442 -0.017136 0.000000 0.000000 0.000000
# 3 -0.015577 -0.017136 0.062187 0.000000 0.000000 0.000000
# 4 0.000000 0.000000 0.000000 0.038125 0.000000 0.000000
# 5 0.000000 0.000000 0.000000 0.000000 0.049582 0.000000
# 6 0.000000 0.000000 0.000000 0.000000 0.000000 0.059403
#
#
# Mechanical properties :
#
#
# Convention : Reuss Voigt Hill
#
# Bulk Modulus (GPa) = 38.08894 63.75129 50.92011
# Shear Modulus (GPa) = 14.10778 18.08159 16.09469
#
# Velocity S-wave (km/s) = 2.87344 3.25305 3.06912
# Velocity P-wave (km/s) = 5.77066 7.17080 6.50849
#
# Compressibility (1/GPa) = 0.02625434
#
# Stress axis : x y z
#
# Youngs Moduli (GPa) = 48.13637 33.96469 16.08063
#
# Poissons Ratio (x) = 0.35191 0.25049
# Poissons Ratio (y) = 0.49874 0.27556
# Poissons Ratio (z) = 0.74983 0.58203
#
# Static dielectric constant tensor:
#      x y z
#    x 1.610520 0.000000 0.000000 
#    y 0.000000 1.569010 0.000000 
#    z 0.000000 0.000000 1.577740 
# 
# From -- ./inp_files/9084.got.cif
#   From: 2010.05.17/outbox.cif.g08.bks.cpg/sg63_5_cif.got.tgz:9084.got - 2010.06.03 15:47:04.
