data_PCOD9471419
_publ_section_title
;
Structure prediction by ZEFSAII (Michael W. Deem and Ramdas Pophale) SiO2 
 PCOD9471419
Probable space group: C M C M
;
_chemical_formula_sum "Si O2"
_cell_formula_units_Z 88
_cell_length_a 19.187955
_cell_length_b 9.158322
_cell_length_c 23.084155
_cell_angle_alpha 90.000000
_cell_angle_beta 90.000000
_cell_angle_gamma 90.000000
_cell_volume 4056.566333
_symmetry_space_group_name_H-M "C M C M"
_symmetry_group_IT_number 63
_symmetry_cell_setting 'orthorhombic'
loop_
_space_group_symop_operation_xyz
x,y,z
-x,-y,1/2+z
x,-y,-z
-x,y,1/2-z
-x,-y,-z
x,y,1/2-z
-x,y,z
x,-y,1/2+z
1/2+x,1/2+y,z
1/2-x,1/2-y,1/2+z
1/2+x,1/2-y,-z
1/2-x,1/2+y,1/2-z
1/2-x,1/2-y,-z
1/2+x,1/2+y,1/2-z
1/2-x,1/2+y,z
1/2+x,1/2-y,1/2+z
loop_
_atom_site_type_symbol
_atom_site_label
_atom_site_fract_x
_atom_site_fract_y
_atom_site_fract_z
Si Si1 0.843419 0.552275 0.818759
Si Si2 0.647630 0.426639 0.941205
Si Si3 0.000000 0.652365 0.679989
Si Si4 0.500000 0.835671 0.523505
Si Si5 0.254842 0.806701 0.628527
Si Si6 0.000000 0.891031 0.916475
Si Si7 0.151209 0.664595 0.478995
O O1 0.841205 0.570571 0.750000
O O2 0.925315 0.576702 0.835951
O O3 0.791010 0.675725 0.845142
O O4 0.813006 0.392555 0.834682
O O5 0.697935 0.431308 0.887541
O O6 0.570874 0.478923 0.924908
O O7 0.671999 0.500000 0.000000
O O8 0.645309 0.258488 0.962449
O O9 0.000000 0.802189 0.643187
O O10 0.000000 0.672305 0.750000
O O11 0.500000 0.723374 0.469781
O O12 0.575636 0.822154 0.551788
O O13 0.500000 0.000000 0.500000
O O14 0.292294 0.778022 0.566531
O O15 0.164302 0.500000 0.500000
#
# Coordination Sequence:
#
# PCOD9471419 Si02
#       7
#    16  16   8   8  16   8  16
#     4  11  25  43  65  91 117 157 211 263 311 358
#     4  11  21  35  54  88 127 159 195 241 300 368
#     4  10  22  43  67  87 112 160 222 258 290 366
#     4   8  18  29  51  80 120 153 193 241 277 351
#     4  12  22  37  63  89 126 161 197 257 310 366
#     4  10  19  36  58  81 115 161 206 237 294 347
#     4  10  20  34  54  87 122 165 204 235 292 370
#
# _framework density 21.693225000000002
#
# number of rings (size 3 to 8) (size 9 to 14) (size 15 to 20)
#    0.000    1.455    1.818    4.091    5.091    0.000 
#    0.000    0.000    0.000    2.182    0.000    7.636 
#    0.000    0.000    0.000    0.000    0.000    0.000 
#
# Total GULP energy -245387.468610 kJ/mol
# GULP energy per Si atom -5576.987923 kJ/mol
# Density = 2.164385 g / cm^3
# Si number density = 21.693225 Si / 1000 Ang^3
#
#
#
# Elastic Constant Matrix: (Units=GPa)
#
#
# Indices 1 2 3 4 5 6 
#
# 1 184.8223 23.9746 33.3882 0.0000 0.0000 0.0000
# 2 23.9746 62.7374 10.3948 0.0000 0.0000 0.0000
# 3 33.3882 10.3948 61.9151 0.0000 0.0000 0.0000
# 4 0.0000 0.0000 0.0000 28.0125 0.0000 0.0000
# 5 0.0000 0.0000 0.0000 0.0000 29.6550 0.0000
# 6 0.0000 0.0000 0.0000 0.0000 0.0000 19.2680
#
#
#
# Elastic Compliance Matrix: (Units=1/GPa)
#
#
# Indices 1 2 3 4 5 6 
#
# 1 0.006200 -0.001867 -0.003030 0.000000 0.000000 0.000000
# 2 -0.001867 0.016958 -0.001840 0.000000 0.000000 0.000000
# 3 -0.003030 -0.001840 0.018094 0.000000 0.000000 0.000000
# 4 0.000000 0.000000 0.000000 0.035698 0.000000 0.000000
# 5 0.000000 0.000000 0.000000 0.000000 0.033721 0.000000
# 6 0.000000 0.000000 0.000000 0.000000 0.000000 0.051900
#
#
# Mechanical properties :
#
#
# Convention : Reuss Voigt Hill
#
# Bulk Modulus (GPa) = 36.00054 49.44333 42.72194
# Shear Modulus (GPa) = 26.98253 31.50158 29.24205
#
# Velocity S-wave (km/s) = 3.53061 3.81483 3.67547
# Velocity P-wave (km/s) = 5.76642 6.49965 6.14398
#
# Compressibility (1/GPa) = 0.02777736
#
# Stress axis : x y z
#
# Youngs Moduli (GPa) = 161.28515 58.96949 55.26684
#
# Poissons Ratio (x) = 0.11012 0.16746
# Poissons Ratio (y) = 0.30117 0.10169
# Poissons Ratio (z) = 0.48869 0.10851
#
# Static dielectric constant tensor:
#      x y z
#    x 1.971800 0.000000 0.000000 
#    y 0.000000 1.866000 0.000000 
#    z 0.000000 0.000000 1.783540 
# 
# From -- ./inp_files/64469.got.cif
#   From: 2010.05.17/outbox.cif.g08.bks.cpg/sg63_33_cif.got.tgz:64469.got - 2010.06.03 15:47:04.
