data_PCOD9471376
_publ_section_title
;
Structure prediction by ZEFSAII (Michael W. Deem and Ramdas Pophale) SiO2 
 PCOD9471376
Probable space group: C M C M
;
_chemical_formula_sum "Si O2"
_cell_formula_units_Z 96
_cell_length_a 14.740152
_cell_length_b 13.729904
_cell_length_c 23.030431
_cell_angle_alpha 90.000000
_cell_angle_beta 90.000000
_cell_angle_gamma 90.000000
_cell_volume 4660.918706
_symmetry_space_group_name_H-M "C M C M"
_symmetry_group_IT_number 63
_symmetry_cell_setting 'orthorhombic'
loop_
_space_group_symop_operation_xyz
x,y,z
-x,-y,1/2+z
x,-y,-z
-x,y,1/2-z
-x,-y,-z
x,y,1/2-z
-x,y,z
x,-y,1/2+z
1/2+x,1/2+y,z
1/2-x,1/2-y,1/2+z
1/2+x,1/2-y,-z
1/2-x,1/2+y,1/2-z
1/2-x,1/2-y,-z
1/2+x,1/2+y,1/2-z
1/2-x,1/2+y,z
1/2+x,1/2-y,1/2+z
loop_
_atom_site_type_symbol
_atom_site_label
_atom_site_fract_x
_atom_site_fract_y
_atom_site_fract_z
Si Si1 0.104387 0.318676 0.580024
Si Si2 0.603693 0.318620 0.840971
Si Si3 0.292246 0.735611 0.812540
Si Si4 0.107350 0.721880 0.957193
Si Si5 0.194452 0.484585 0.436497
Si Si6 0.298957 0.490372 0.184838
O O1 0.164847 0.292679 0.634559
O O2 0.136212 0.258508 0.523225
O O3 0.117373 0.431719 0.563027
O O4 0.000000 0.297265 0.592619
O O5 0.500000 0.289875 0.827611
O O6 0.683240 0.250234 0.815665
O O7 0.617122 0.307011 0.910504
O O8 0.623561 0.427822 0.820065
O O9 0.322241 0.774291 0.750000
O O10 0.322357 0.623634 0.816273
O O11 0.157740 0.625278 0.935299
O O12 0.000000 0.699057 0.960616
O O13 0.241843 0.500000 0.500000
O O14 0.244634 0.502792 0.375516
O O15 0.256618 0.505023 0.250000
#
# Coordination Sequence:
#
# PCOD9471376 Si02
#       6
#    16  16  16  16  16  16
#     4  10  21  37  62  94 129 164 203 261 324 383
#     4  11  23  41  67  93 124 166 215 264 315 377
#     4  11  24  41  62  89 124 166 215 262 314 383
#     4   9  19  37  62  96 126 158 211 266 316 379
#     4  10  19  35  63  94 124 164 207 256 317 380
#     4  11  24  41  60  90 128 163 206 264 322 376
#
# _framework density 20.596796999999999
#
# number of rings (size 3 to 8) (size 9 to 14) (size 15 to 20)
#    0.000    1.667    3.333    1.000    0.000    6.333 
#    0.000    1.667    0.000    5.000    0.000    0.000 
#    0.000    0.000    0.000    0.000    0.000    0.000 
#
# Total GULP energy -267495.330007 kJ/mol
# GULP energy per Si atom -5572.819375 kJ/mol
# Density = 2.054992 g / cm^3
# Si number density = 20.596797 Si / 1000 Ang^3
#
#
#
# Elastic Constant Matrix: (Units=GPa)
#
#
# Indices 1 2 3 4 5 6 
#
# 1 53.3068 11.4382 50.0450 0.0000 0.0000 0.0000
# 2 11.4382 91.0988 28.3470 0.0000 0.0000 0.0000
# 3 50.0450 28.3470 193.1211 0.0000 0.0000 0.0000
# 4 0.0000 0.0000 0.0000 214.0533 0.0000 0.0000
# 5 0.0000 0.0000 0.0000 0.0000 -0.2337 0.0000
# 6 0.0000 0.0000 0.0000 0.0000 0.0000 15.9113
#
#
#
# Elastic Compliance Matrix: (Units=1/GPa)
#
#
# Indices 1 2 3 4 5 6 
#
# 1 0.024909 -0.001173 -0.006283 0.000000 0.000000 0.000000
# 2 -0.001173 0.011558 -0.001393 0.000000 0.000000 0.000000
# 3 -0.006283 -0.001393 0.007011 0.000000 0.000000 0.000000
# 4 0.000000 0.000000 0.000000 0.004672 0.000000 0.000000
# 5 0.000000 0.000000 0.000000 0.000000 -4.278312 0.000000
# 6 0.000000 0.000000 0.000000 0.000000 0.000000 0.062849
#
#
# Mechanical properties :
#
#
# Convention : Reuss Voigt Hill
#
# Bulk Modulus (GPa) = 38.78738 57.46525 48.12632
# Shear Modulus (GPa) = -1.20743 62.45927 30.62592
#
# Velocity S-wave (km/s) = -0.76648 5.51277 3.86025
# Velocity P-wave (km/s) = 4.25315 8.27535 6.57916
#
# Compressibility (1/GPa) = 0.02578158
#
# Stress axis : x y z
#
# Youngs Moduli (GPa) = 40.14558 86.52276 142.64041
#
# Poissons Ratio (x) = 0.10145 0.89619
# Poissons Ratio (y) = 0.04707 0.19864
# Poissons Ratio (z) = 0.25223 0.12049
#
# Static dielectric constant tensor:
#      x y z
#    x 1.728380 0.000000 0.000000 
#    y 0.000000 1.725920 0.000000 
#    z 0.000000 0.000000 0.381940 
# 
# From -- ./inp_files/54158.got.cif
#   From: 2010.05.17/outbox.cif.g08.bks.cpg/sg63_28_cif.got.tgz:54158.got - 2010.06.03 15:47:04.
