data_PCOD9471501
_publ_section_title
;
Structure prediction by ZEFSAII (Michael W. Deem and Ramdas Pophale) SiO2 
 PCOD9471501
Probable space group: C M C M
;
_chemical_formula_sum "Si O2"
_cell_formula_units_Z 104
_cell_length_a 8.134490
_cell_length_b 28.169352
_cell_length_c 22.561225
_cell_angle_alpha 90.000000
_cell_angle_beta 90.000000
_cell_angle_gamma 90.000000
_cell_volume 5169.753823
_symmetry_space_group_name_H-M "C M C M"
_symmetry_group_IT_number 63
_symmetry_cell_setting 'orthorhombic'
loop_
_space_group_symop_operation_xyz
x,y,z
-x,-y,1/2+z
x,-y,-z
-x,y,1/2-z
-x,-y,-z
x,y,1/2-z
-x,y,z
x,-y,1/2+z
1/2+x,1/2+y,z
1/2-x,1/2-y,1/2+z
1/2+x,1/2-y,-z
1/2-x,1/2+y,1/2-z
1/2-x,1/2-y,-z
1/2+x,1/2+y,1/2-z
1/2-x,1/2+y,z
1/2+x,1/2-y,1/2+z
loop_
_atom_site_type_symbol
_atom_site_label
_atom_site_fract_x
_atom_site_fract_y
_atom_site_fract_z
Si Si1 0.305521 0.630172 0.924959
Si Si2 0.698817 0.933415 0.183357
Si Si3 0.707638 0.623286 0.250000
Si Si4 0.305840 0.041567 0.159036
Si Si5 0.692227 0.178387 0.137793
Si Si6 0.803508 0.903900 0.551325
Si Si7 0.308728 0.763313 0.066082
O O1 0.500000 0.639072 0.931630
O O2 0.271411 0.600270 0.866434
O O3 0.218731 0.681022 0.924203
O O4 0.251691 0.600801 0.983251
O O5 0.746402 0.919542 0.250000
O O6 0.500000 0.931855 0.179276
O O7 0.747225 0.988294 0.172925
O O8 0.716231 0.581187 0.198585
O O9 0.713977 0.663499 0.302786
O O10 0.500000 0.046135 0.173585
O O11 0.277161 0.054996 0.090705
O O12 0.500000 0.167849 0.149832
O O13 0.752505 0.144767 0.084250
O O14 0.715190 0.231484 0.114461
O O15 0.000000 0.909479 0.554247
O O16 0.500000 0.751218 0.070757
O O17 0.250000 0.750000 0.000000
#
# Coordination Sequence:
#
# PCOD9471501 Si02
#       7
#    16  16   8  16  16  16  16
#     4  11  24  42  63  87 123 163 205 255 306 365
#     4  10  22  41  65  90 120 161 210 260 306 360
#     4  10  19  36  63  94 123 158 201 246 299 364
#     4  10  19  36  63  91 123 160 203 250 304 367
#     4  11  21  36  62  92 125 161 200 247 304 365
#     4  10  21  36  57  89 125 159 199 251 304 357
#     4  12  24  41  65  91 120 157 202 252 308 367
#
# _framework density 20.117011000000002
#
# number of rings (size 3 to 8) (size 9 to 14) (size 15 to 20)
#    0.000    1.385    2.308    5.077    0.000    3.385 
#    1.385   12.692    0.000    0.000    0.000    0.000 
#    0.000    0.000    0.000    0.000    0.000    0.000 
#
# Total GULP energy -289629.474284 kJ/mol
# GULP energy per Si atom -5569.797582 kJ/mol
# Density = 2.007122 g / cm^3
# Si number density = 20.117011 Si / 1000 Ang^3
#
#
#
# Elastic Constant Matrix: (Units=GPa)
#
#
# Indices 1 2 3 4 5 6 
#
# 1 33.6983 -0.0716 2.8336 0.0000 0.0000 0.0000
# 2 -0.0716 74.2584 54.5721 0.0000 0.0000 0.0000
# 3 2.8336 54.5721 147.3905 0.0000 0.0000 0.0000
# 4 0.0000 0.0000 0.0000 35.0068 0.0000 0.0000
# 5 0.0000 0.0000 0.0000 0.0000 -583.2696 0.0000
# 6 0.0000 0.0000 0.0000 0.0000 0.0000 21.4939
#
#
#
# Elastic Compliance Matrix: (Units=1/GPa)
#
#
# Indices 1 2 3 4 5 6 
#
# 1 0.029744 0.000617 -0.000800 0.000000 0.000000 0.000000
# 2 0.000617 0.018513 -0.006866 0.000000 0.000000 0.000000
# 3 -0.000800 -0.006866 0.009342 0.000000 0.000000 0.000000
# 4 0.000000 0.000000 0.000000 0.028566 0.000000 0.000000
# 5 0.000000 0.000000 0.000000 0.000000 -0.001714 0.000000
# 6 0.000000 0.000000 0.000000 0.000000 0.000000 0.046525
#
#
# Mechanical properties :
#
#
# Convention : Reuss Voigt Hill
#
# Bulk Modulus (GPa) = 22.98879 41.11282 32.05081
# Shear Modulus (GPa) = 31.33318 -92.15292 -30.40987
#
# Velocity S-wave (km/s) = 3.95086 -6.77554 -3.89221
# Velocity P-wave (km/s) = 5.68020 6.38195 2.05726
#
# Compressibility (1/GPa) = 0.04349946
#
# Stress axis : x y z
#
# Youngs Moduli (GPa) = 33.62063 54.01550 107.03864
#
# Poissons Ratio (x) = -0.03331 0.08565
# Poissons Ratio (y) = -0.02073 0.73498
# Poissons Ratio (z) = 0.02690 0.37090
#
# Static dielectric constant tensor:
#      x y z
#    x 1.741580 0.000000 0.000000 
#    y 0.000000 1.689310 0.000000 
#    z 0.000000 0.000000 1.691850 
# 
# From -- ./inp_files/51475.got.cif
#   From: 2010.05.17/outbox.cif.g08.bks.cpg/sg63_26_cif.got.tgz:51475.got - 2010.06.03 15:47:04.
