data_PCOD9471531
_publ_section_title
;
Structure prediction by ZEFSAII (Michael W. Deem and Ramdas Pophale) SiO2 
 PCOD9471531
Probable space group: C M C M
;
_chemical_formula_sum "Si O2"
_cell_formula_units_Z 104
_cell_length_a 17.478501
_cell_length_b 14.821266
_cell_length_c 20.886815
_cell_angle_alpha 90.000000
_cell_angle_beta 90.000000
_cell_angle_gamma 90.000000
_cell_volume 5410.802793
_symmetry_space_group_name_H-M "C M C M"
_symmetry_group_IT_number 63
_symmetry_cell_setting 'orthorhombic'
loop_
_space_group_symop_operation_xyz
x,y,z
-x,-y,1/2+z
x,-y,-z
-x,y,1/2-z
-x,-y,-z
x,y,1/2-z
-x,y,z
x,-y,1/2+z
1/2+x,1/2+y,z
1/2-x,1/2-y,1/2+z
1/2+x,1/2-y,-z
1/2-x,1/2+y,1/2-z
1/2-x,1/2-y,-z
1/2+x,1/2+y,1/2-z
1/2-x,1/2+y,z
1/2+x,1/2-y,1/2+z
loop_
_atom_site_type_symbol
_atom_site_label
_atom_site_fract_x
_atom_site_fract_y
_atom_site_fract_z
Si Si1 0.864307 0.597888 0.986093
Si Si2 0.883958 0.190652 0.250000
Si Si3 0.812822 0.695606 0.865100
Si Si4 0.197664 0.868910 0.542823
Si Si5 0.915585 0.776386 0.448349
Si Si6 0.588072 0.462147 0.639522
Si Si7 0.357102 0.340816 0.177457
O O1 0.853885 0.623712 0.911482
O O2 0.897526 0.500000 0.000000
O O3 0.779855 0.600097 0.018628
O O4 0.909401 0.678961 0.019433
O O5 0.862221 0.264483 0.193028
O O6 0.901871 0.113946 0.194061
O O7 0.793413 0.780093 0.912379
O O8 0.733276 0.657956 0.837834
O O9 0.147184 0.838236 0.482671
O O10 0.148865 0.939655 0.583850
O O11 0.896379 0.775394 0.373728
O O12 0.000000 0.814074 0.458851
O O13 0.500000 0.458980 0.617104
O O14 0.607378 0.560404 0.667017
O O15 0.368349 0.311155 0.250000
#
# Coordination Sequence:
#
# PCOD9471531 Si02
#       7
#    16   8  16  16  16  16  16
#     4  11  21  39  65  88 118 151 202 258 305 340
#     4  10  21  36  58  82 121 154 206 238 287 354
#     4  10  19  37  60  86 113 158 198 247 294 347
#     4  10  20  38  63  88 117 154 197 250 302 353
#     4  11  23  39  59  86 119 158 199 244 298 361
#     4  11  23  37  57  90 127 160 193 241 302 363
#     4  12  22  37  58  83 125 164 200 231 291 363
#
# _framework density 19.220807000000001
#
# number of rings (size 3 to 8) (size 9 to 14) (size 15 to 20)
#    0.000    1.231    4.615    3.000    0.000    1.231 
#    0.000    2.308    1.692    0.000    0.000    0.000 
#    0.000    0.000    0.000    0.000    0.000    0.000 
#
# Total GULP energy -289479.931121 kJ/mol
# GULP energy per Si atom -5566.921752 kJ/mol
# Density = 1.917706 g / cm^3
# Si number density = 19.220807 Si / 1000 Ang^3
#
#
#
# Elastic Constant Matrix: (Units=GPa)
#
#
# Indices 1 2 3 4 5 6 
#
# 1 60.0713 -1.0857 17.0957 0.0000 0.0000 0.0000
# 2 -1.0857 40.4295 6.7769 0.0000 0.0000 0.0000
# 3 17.0957 6.7769 116.4161 0.0000 0.0000 0.0000
# 4 0.0000 0.0000 0.0000 24.1995 0.0000 0.0000
# 5 0.0000 0.0000 0.0000 0.0000 -1.7692 0.0000
# 6 0.0000 0.0000 0.0000 0.0000 0.0000 -11.4969
#
#
#
# Elastic Compliance Matrix: (Units=1/GPa)
#
#
# Indices 1 2 3 4 5 6 
#
# 1 0.017406 0.000905 -0.002609 0.000000 0.000000 0.000000
# 2 0.000905 0.025025 -0.001590 0.000000 0.000000 0.000000
# 3 -0.002609 -0.001590 0.009066 0.000000 0.000000 0.000000
# 4 0.000000 0.000000 0.000000 0.041323 0.000000 0.000000
# 5 0.000000 0.000000 0.000000 0.000000 -0.565240 0.000000
# 6 0.000000 0.000000 0.000000 0.000000 0.000000 -0.086980
#
#
# Mechanical properties :
#
#
# Convention : Reuss Voigt Hill
#
# Bulk Modulus (GPa) = 22.26725 29.16564 25.71645
# Shear Modulus (GPa) = -9.29639 15.12869 2.91615
#
# Velocity S-wave (km/s) = -2.20162 2.80857 1.23308
# Velocity P-wave (km/s) = 2.26876 5.07192 3.92885
#
# Compressibility (1/GPa) = 0.04490900
#
# Stress axis : x y z
#
# Youngs Moduli (GPa) = 57.45265 39.95978 110.30828
#
# Poissons Ratio (x) = -0.03615 0.28776
# Poissons Ratio (y) = -0.05198 0.17535
# Poissons Ratio (z) = 0.14988 0.06352
#
# Static dielectric constant tensor:
#      x y z
#    x 1.668530 0.000000 0.000000 
#    y 0.000000 1.670110 0.000000 
#    z 0.000000 0.000000 1.671160 
# 
# From -- ./inp_files/55607.got.cif
#   From: 2010.05.17/outbox.cif.g08.bks.cpg/sg63_28_cif.got.tgz:55607.got - 2010.06.03 15:47:04.
