data_PCOD9471663
_publ_section_title
;
Structure prediction by ZEFSAII (Michael W. Deem and Ramdas Pophale) SiO2 
 PCOD9471663
Probable space group: C M C M
;
_chemical_formula_sum "Si O2"
_cell_formula_units_Z 112
_cell_length_a 28.439043
_cell_length_b 12.493949
_cell_length_c 15.565015
_cell_angle_alpha 90.000000
_cell_angle_beta 90.000000
_cell_angle_gamma 90.000000
_cell_volume 5530.498136
_symmetry_space_group_name_H-M "C M C M"
_symmetry_group_IT_number 63
_symmetry_cell_setting 'orthorhombic'
loop_
_space_group_symop_operation_xyz
x,y,z
-x,-y,1/2+z
x,-y,-z
-x,y,1/2-z
-x,-y,-z
x,y,1/2-z
-x,y,z
x,-y,1/2+z
1/2+x,1/2+y,z
1/2-x,1/2-y,1/2+z
1/2+x,1/2-y,-z
1/2-x,1/2+y,1/2-z
1/2-x,1/2-y,-z
1/2+x,1/2+y,1/2-z
1/2-x,1/2+y,z
1/2+x,1/2-y,1/2+z
loop_
_atom_site_type_symbol
_atom_site_label
_atom_site_fract_x
_atom_site_fract_y
_atom_site_fract_z
Si Si1 0.804748 0.945054 0.148900
Si Si2 0.056612 0.176314 0.654905
Si Si3 0.868142 0.596844 0.931048
Si Si4 0.895943 0.039141 0.402286
Si Si5 0.294924 0.963464 0.653057
Si Si6 0.556181 0.750806 0.036776
Si Si7 0.802895 0.258966 0.964559
O O1 0.803725 0.914595 0.250000
O O2 0.817813 0.846719 0.086897
O O3 0.843477 0.037519 0.136118
O O4 0.752844 0.980994 0.120636
O O5 0.072022 0.218033 0.750000
O O6 0.069695 0.237271 0.565666
O O7 0.000000 0.173756 0.654974
O O8 0.075951 0.055570 0.645598
O O9 0.838490 0.544405 0.854825
O O10 0.920242 0.642762 0.924928
O O11 0.867703 0.500000 0.000000
O O12 0.838379 0.700478 0.962503
O O13 0.923614 0.149923 0.409839
O O14 0.891891 0.000000 0.500000
O O15 0.285511 0.933838 0.750000
O O16 0.303700 0.856904 0.601198
O O17 0.500000 0.751081 0.040878
O O18 0.750000 0.250000 0.000000
#
# Coordination Sequence:
#
# PCOD9471663 Si02
#       7
#    16  16  16  16  16  16  16
#     4  11  23  36  56  87 120 159 203 244 300 366
#     4   9  17  32  54  82 117 152 190 246 311 370
#     4  10  22  40  60  86 113 159 206 253 303 353
#     4  10  20  31  53  82 118 155 195 245 303 366
#     4  10  23  40  57  84 121 159 199 247 303 359
#     4  10  21  38  60  89 119 157 208 259 310 365
#     4  11  21  36  62  85 118 156 201 247 294 366
#
# _framework density 20.251339999999999
#
# number of rings (size 3 to 8) (size 9 to 14) (size 15 to 20)
#    0.000    1.857    1.429    3.000    4.000    2.000 
#    0.000    4.286    0.000    2.143    0.000    0.000 
#    0.000    0.000    0.000    0.000    0.000    0.000 
#
# Total GULP energy -312440.547502 kJ/mol
# GULP energy per Si atom -5579.295491 kJ/mol
# Density = 2.020525 g / cm^3
# Si number density = 20.251340 Si / 1000 Ang^3
#
#
#
# Elastic Constant Matrix: (Units=GPa)
#
#
# Indices 1 2 3 4 5 6 
#
# 1 88.7316 34.3381 10.3914 0.0000 0.0000 0.0000
# 2 34.3381 53.6979 11.1504 0.0000 0.0000 0.0000
# 3 10.3914 11.1504 36.8589 0.0000 0.0000 0.0000
# 4 0.0000 0.0000 0.0000 6.4350 0.0000 0.0000
# 5 0.0000 0.0000 0.0000 0.0000 20.8338 0.0000
# 6 0.0000 0.0000 0.0000 0.0000 0.0000 26.5359
#
#
#
# Elastic Compliance Matrix: (Units=1/GPa)
#
#
# Indices 1 2 3 4 5 6 
#
# 1 0.015045 -0.009326 -0.001420 0.000000 0.000000 0.000000
# 2 -0.009326 0.025652 -0.005131 0.000000 0.000000 0.000000
# 3 -0.001420 -0.005131 0.029083 0.000000 0.000000 0.000000
# 4 0.000000 0.000000 0.000000 0.155401 0.000000 0.000000
# 5 0.000000 0.000000 0.000000 0.000000 0.047999 0.000000
# 6 0.000000 0.000000 0.000000 0.000000 0.000000 0.037685
#
#
# Mechanical properties :
#
#
# Convention : Reuss Voigt Hill
#
# Bulk Modulus (GPa) = 26.29798 32.33870 29.31834
# Shear Modulus (GPa) = 14.07283 18.98817 16.53050
#
# Velocity S-wave (km/s) = 2.63897 3.06539 2.86014
# Velocity P-wave (km/s) = 4.72224 5.34155 5.04141
#
# Compressibility (1/GPa) = 0.03802573
#
# Stress axis : x y z
#
# Youngs Moduli (GPa) = 66.46561 38.98353 34.38425
#
# Poissons Ratio (x) = 0.36356 0.04884
# Poissons Ratio (y) = 0.61987 0.17642
# Poissons Ratio (z) = 0.09441 0.20002
#
# Static dielectric constant tensor:
#      x y z
#    x 1.784510 0.000000 0.000000 
#    y 0.000000 1.703790 0.000000 
#    z 0.000000 0.000000 1.756860 
# 
# From -- ./inp_files/38593.got.cif
#   From: 2010.05.17/outbox.cif.g08.bks.cpg/sg63_20_cif.got.tgz:38593.got - 2010.06.03 15:47:04.
