data_PCOD9471215
_publ_section_title
;
Structure prediction by ZEFSAII (Michael W. Deem and Ramdas Pophale) SiO2 
 PCOD9471215
Probable space group: C M C M
;
_chemical_formula_sum "Si O2"
_cell_formula_units_Z 96
_cell_length_a 17.836192
_cell_length_b 14.977052
_cell_length_c 22.011967
_cell_angle_alpha 90.000000
_cell_angle_beta 90.000000
_cell_angle_gamma 90.000000
_cell_volume 5880.135439
_symmetry_space_group_name_H-M "C M C M"
_symmetry_group_IT_number 63
_symmetry_cell_setting 'orthorhombic'
loop_
_space_group_symop_operation_xyz
x,y,z
-x,-y,1/2+z
x,-y,-z
-x,y,1/2-z
-x,-y,-z
x,y,1/2-z
-x,y,z
x,-y,1/2+z
1/2+x,1/2+y,z
1/2-x,1/2-y,1/2+z
1/2+x,1/2-y,-z
1/2-x,1/2+y,1/2-z
1/2-x,1/2-y,-z
1/2+x,1/2+y,1/2-z
1/2-x,1/2+y,z
1/2+x,1/2-y,1/2+z
loop_
_atom_site_type_symbol
_atom_site_label
_atom_site_fract_x
_atom_site_fract_y
_atom_site_fract_z
Si Si1 0.168127 0.441835 0.126315
Si Si2 0.346658 0.871088 0.821077
Si Si3 0.759923 0.500000 0.000000
Si Si4 0.500000 0.922226 0.402724
Si Si5 0.000000 0.753269 0.987854
Si Si6 0.000000 0.373127 0.897448
Si Si7 0.259632 0.723757 0.605745
Si Si8 0.659568 0.671064 0.488360
O O1 0.183047 0.529241 0.165844
O O2 0.188399 0.467611 0.055924
O O3 0.222126 0.359090 0.139923
O O4 0.080109 0.417957 0.131558
O O5 0.356766 0.855854 0.750000
O O6 0.425712 0.866379 0.856595
O O7 0.290897 0.799579 0.850749
O O8 0.704789 0.420763 0.978649
O O9 0.500000 0.835474 0.445650
O O10 0.500000 0.026123 0.426429
O O11 0.000000 0.705606 0.053623
O O12 0.927885 0.815407 0.978453
O O13 0.324454 0.694077 0.558901
O O14 0.197944 0.760232 0.558237
#
# Coordination Sequence:
#
# PCOD9471215 Si02
#       8
#    16  16   8   8   8   8  16  16
#     4  10  21  33  54  80 111 135 181 219 270 320
#     4  11  22  37  55  77 108 147 182 220 265 319
#     4  10  20  34  52  78 110 140 170 236 272 308
#     4  10  21  27  50  83 109 141 160 213 277 331
#     4  12  19  32  53  82 110 140 175 214 276 341
#     4  10  22  34  49  79 113 138 178 215 268 327
#     4  10  19  35  51  79 109 140 175 225 269 317
#     4  10  20  32  53  78 110 137 176 221 273 323
#
# _framework density 16.326155
#
# number of rings (size 3 to 8) (size 9 to 14) (size 15 to 20)
#    0.000    1.667    5.000    0.500    4.667    1.000 
#    0.000    0.000    0.000    0.000    0.000    0.583 
#    0.000    0.000    0.000    0.000    0.000    0.000 
#
# Total GULP energy -267441.155056 kJ/mol
# GULP energy per Si atom -5571.690730 kJ/mol
# Density = 1.628900 g / cm^3
# Si number density = 16.326155 Si / 1000 Ang^3
#
#
#
# Elastic Constant Matrix: (Units=GPa)
#
#
# Indices 1 2 3 4 5 6 
#
# 1 97.2405 34.0434 9.0545 0.0000 0.0000 0.0000
# 2 34.0434 76.8297 17.2433 0.0000 0.0000 0.0000
# 3 9.0545 17.2433 40.2761 0.0000 0.0000 0.0000
# 4 0.0000 0.0000 0.0000 13.2861 0.0000 0.0000
# 5 0.0000 0.0000 0.0000 0.0000 6.9585 0.0000
# 6 0.0000 0.0000 0.0000 0.0000 0.0000 20.6815
#
#
#
# Elastic Compliance Matrix: (Units=1/GPa)
#
#
# Indices 1 2 3 4 5 6 
#
# 1 0.012180 -0.005291 -0.000473 0.000000 0.000000 0.000000
# 2 -0.005291 0.016698 -0.005959 0.000000 0.000000 0.000000
# 3 -0.000473 -0.005959 0.027486 0.000000 0.000000 0.000000
# 4 0.000000 0.000000 0.000000 0.075267 0.000000 0.000000
# 5 0.000000 0.000000 0.000000 0.000000 0.143709 0.000000
# 6 0.000000 0.000000 0.000000 0.000000 0.000000 0.048352
#
#
# Mechanical properties :
#
#
# Convention : Reuss Voigt Hill
#
# Bulk Modulus (GPa) = 30.37883 37.22543 33.80213
# Shear Modulus (GPa) = 13.96215 18.45222 16.20718
#
# Velocity S-wave (km/s) = 2.92755 3.36553 3.15415
# Velocity P-wave (km/s) = 5.48409 6.16060 5.83216
#
# Compressibility (1/GPa) = 0.03291766
#
# Stress axis : x y z
#
# Youngs Moduli (GPa) = 82.10085 59.88857 36.38176
#
# Poissons Ratio (x) = 0.31686 0.01721
# Poissons Ratio (y) = 0.43439 0.21681
# Poissons Ratio (z) = 0.03884 0.35689
#
# Static dielectric constant tensor:
#      x y z
#    x 1.541990 0.000000 0.000000 
#    y 0.000000 1.570870 0.000000 
#    z 0.000000 0.000000 1.529780 
# 
# From -- ./inp_files/54295.got.cif
#   From: 2010.05.17/outbox.cif.g08.bks.cpg/sg63_28_cif.got.tgz:54295.got - 2010.06.03 15:47:04.
