data_PCOD9471081
_publ_section_title
;
Structure prediction by ZEFSAII (Michael W. Deem and Ramdas Pophale) SiO2 
 PCOD9471081
Probable space group: C M C M
;
_chemical_formula_sum "Si O2"
_cell_formula_units_Z 72
_cell_length_a 16.340528
_cell_length_b 9.071295
_cell_length_c 24.414999
_cell_angle_alpha 90.000000
_cell_angle_beta 90.000000
_cell_angle_gamma 90.000000
_cell_volume 3619.029197
_symmetry_space_group_name_H-M "C M C M"
_symmetry_group_IT_number 63
_symmetry_cell_setting 'orthorhombic'
loop_
_space_group_symop_operation_xyz
x,y,z
-x,-y,1/2+z
x,-y,-z
-x,y,1/2-z
-x,-y,-z
x,y,1/2-z
-x,y,z
x,-y,1/2+z
1/2+x,1/2+y,z
1/2-x,1/2-y,1/2+z
1/2+x,1/2-y,-z
1/2-x,1/2+y,1/2-z
1/2-x,1/2-y,-z
1/2+x,1/2+y,1/2-z
1/2-x,1/2+y,z
1/2+x,1/2-y,1/2+z
loop_
_atom_site_type_symbol
_atom_site_label
_atom_site_fract_x
_atom_site_fract_y
_atom_site_fract_z
Si Si1 0.000000 0.671566 0.485625
Si Si2 0.821984 0.897636 0.686999
Si Si3 0.000000 0.934029 0.816235
Si Si4 0.827746 0.224485 0.852953
Si Si5 0.333653 0.330449 0.017921
Si Si6 0.000000 0.266581 0.856843
O O1 0.000000 0.500000 0.500000
O O2 0.083923 0.751167 0.504460
O O3 0.000000 0.685062 0.419672
O O4 0.808505 0.856270 0.750000
O O5 0.818094 0.074115 0.680806
O O6 0.914797 0.854869 0.671097
O O7 0.751846 0.823565 0.651996
O O8 0.000000 0.088682 0.848527
O O9 0.000000 0.964287 0.750000
O O10 0.838511 0.179058 0.916172
O O11 0.910806 0.307794 0.833765
O O12 0.332208 0.500000 0.000000
O O13 0.250000 0.250000 0.000000
#
# Coordination Sequence:
#
# PCOD9471081 Si02
#       6
#     8  16   8  16  16   8
#     4  10  21  37  58  84 116 150 191 239 291 345
#     4  10  19  34  56  82 109 141 178 224 279 337
#     4   8  16  32  56  81 108 142 183 226 276 338
#     4  10  20  36  56  80 109 142 183 230 276 333
#     4  11  22  38  59  84 114 153 197 241 287 339
#     4   8  18  35  54  75 106 144 181 219 271 333
#
# _framework density 19.894838
#
# number of rings (size 3 to 8) (size 9 to 14) (size 15 to 20)
#    0.000    2.222    0.000    3.000    0.000    2.667 
#    0.000    4.444    0.000    0.000    0.000    0.000 
#    0.000    0.000    0.000    0.000    0.000    0.000 
#
# Total GULP energy -200757.976291 kJ/mol
# GULP energy per Si atom -5576.610453 kJ/mol
# Density = 1.984956 g / cm^3
# Si number density = 19.894838 Si / 1000 Ang^3
#
#
#
# Elastic Constant Matrix: (Units=GPa)
#
#
# Indices 1 2 3 4 5 6 
#
# 1 210.5335 83.3214 28.5967 0.0000 0.0000 0.0000
# 2 83.3214 93.2665 16.2976 0.0000 0.0000 0.0000
# 3 28.5967 16.2976 43.2673 0.0000 0.0000 0.0000
# 4 0.0000 0.0000 0.0000 27.9702 0.0000 0.0000
# 5 0.0000 0.0000 0.0000 0.0000 24.3651 0.0000
# 6 0.0000 0.0000 0.0000 0.0000 0.0000 34.0358
#
#
#
# Elastic Compliance Matrix: (Units=1/GPa)
#
#
# Indices 1 2 3 4 5 6 
#
# 1 0.007621 -0.006346 -0.002647 0.000000 0.000000 0.000000
# 2 -0.006346 0.016761 -0.002120 0.000000 0.000000 0.000000
# 3 -0.002647 -0.002120 0.025660 0.000000 0.000000 0.000000
# 4 0.000000 0.000000 0.000000 0.035752 0.000000 0.000000
# 5 0.000000 0.000000 0.000000 0.000000 0.041042 0.000000
# 6 0.000000 0.000000 0.000000 0.000000 0.000000 0.029381
#
#
# Mechanical properties :
#
#
# Convention : Reuss Voigt Hill
#
# Bulk Modulus (GPa) = 35.94746 67.05539 51.50143
# Shear Modulus (GPa) = 26.63639 31.86434 29.25037
#
# Velocity S-wave (km/s) = 3.66301 4.00639 3.83854
# Velocity P-wave (km/s) = 5.99985 7.42830 6.75196
#
# Compressibility (1/GPa) = 0.02781838
#
# Stress axis : x y z
#
# Youngs Moduli (GPa) = 131.22203 59.66127 38.97164
#
# Poissons Ratio (x) = 0.37859 0.10314
# Poissons Ratio (y) = 0.83268 0.08260
# Poissons Ratio (z) = 0.34728 0.12645
#
# Static dielectric constant tensor:
#      x y z
#    x 1.773860 0.000000 0.000000 
#    y 0.000000 1.642980 0.000000 
#    z 0.000000 0.000000 1.725040 
# 
# From -- ./inp_files/69073.got.cif
#   From: 2010.05.17/outbox.cif.g08.bks.cpg/sg63_35_cif.got.tgz:69073.got - 2010.06.03 15:47:04.
