data_PCOD9471139
_publ_section_title
;
Structure prediction by ZEFSAII (Michael W. Deem and Ramdas Pophale) SiO2 
 PCOD9471139
Probable space group: C M C M
;
_chemical_formula_sum "Si O2"
_cell_formula_units_Z 80
_cell_length_a 15.917907
_cell_length_b 29.860556
_cell_length_c 8.709937
_cell_angle_alpha 90.000000
_cell_angle_beta 90.000000
_cell_angle_gamma 90.000000
_cell_volume 4139.985945
_symmetry_space_group_name_H-M "C M C M"
_symmetry_group_IT_number 63
_symmetry_cell_setting 'orthorhombic'
loop_
_space_group_symop_operation_xyz
x,y,z
-x,-y,1/2+z
x,-y,-z
-x,y,1/2-z
-x,-y,-z
x,y,1/2-z
-x,y,z
x,-y,1/2+z
1/2+x,1/2+y,z
1/2-x,1/2-y,1/2+z
1/2+x,1/2-y,-z
1/2-x,1/2+y,1/2-z
1/2-x,1/2-y,-z
1/2+x,1/2+y,1/2-z
1/2-x,1/2+y,z
1/2+x,1/2-y,1/2+z
loop_
_atom_site_type_symbol
_atom_site_label
_atom_site_fract_x
_atom_site_fract_y
_atom_site_fract_z
Si Si1 0.092257 0.356897 0.562673
Si Si2 0.351423 0.452353 0.566776
Si Si3 0.651268 0.046821 0.066986
Si Si4 0.753595 0.200175 0.065338
Si Si5 0.405261 0.358236 0.066406
O O1 0.093859 0.357401 0.750000
O O2 0.107089 0.408044 0.511279
O O3 0.170043 0.326550 0.513863
O O4 0.000000 0.341029 0.514741
O O5 0.380696 0.500000 0.500000
O O6 0.363009 0.451554 0.750000
O O7 0.251100 0.449071 0.534221
O O8 0.393146 0.409007 0.492207
O O9 0.641898 0.044888 0.250000
O O10 0.620394 0.000000 0.000000
O O11 0.754361 0.201285 0.250000
O O12 0.750000 0.250000 0.000000
O O13 0.834722 0.173021 0.008175
O O14 0.395624 0.357389 0.250000
O O15 0.500000 0.343356 0.028042
#
# Coordination Sequence:
#
# PCOD9471139 Si02
#       5
#    16  16  16  16  16
#     4   9  18  35  59  85 116 153 192 233 284 351
#     4  10  19  34  57  87 121 160 202 245 297 356
#     4   9  17  31  52  82 115 152 193 230 278 338
#     4  11  23  42  65  90 118 154 197 246 307 363
#     4  11  24  41  62  89 120 158 204 252 304 360
#
# _framework density 19.323736
#
# number of rings (size 3 to 8) (size 9 to 14) (size 15 to 20)
#    0.000    2.000    2.000    1.800    0.000    4.000 
#    0.000    2.000    0.000    4.200    0.000    0.000 
#    0.000    0.000    0.000    0.000    0.000    0.000 
#
# Total GULP energy -223409.641205 kJ/mol
# GULP energy per Si atom -5585.241030 kJ/mol
# Density = 1.927975 g / cm^3
# Si number density = 19.323736 Si / 1000 Ang^3
#
#
#
# Elastic Constant Matrix: (Units=GPa)
#
#
# Indices 1 2 3 4 5 6 
#
# 1 147.9162 94.1947 50.6338 0.0000 0.0000 0.0000
# 2 94.1947 158.3857 32.1005 0.0000 0.0000 0.0000
# 3 50.6338 32.1005 28.8739 0.0000 0.0000 0.0000
# 4 0.0000 0.0000 0.0000 37.4454 0.0000 0.0000
# 5 0.0000 0.0000 0.0000 0.0000 19.4643 0.0000
# 6 0.0000 0.0000 0.0000 0.0000 0.0000 -4.7775
#
#
#
# Elastic Compliance Matrix: (Units=1/GPa)
#
#
# Indices 1 2 3 4 5 6 
#
# 1 0.021090 -0.006515 -0.029741 0.000000 0.000000 0.000000
# 2 -0.006515 0.010163 0.000126 0.000000 0.000000 0.000000
# 3 -0.029741 0.000126 0.086647 0.000000 0.000000 0.000000
# 4 0.000000 0.000000 0.000000 0.026706 0.000000 0.000000
# 5 0.000000 0.000000 0.000000 0.000000 0.051376 0.000000
# 6 0.000000 0.000000 0.000000 0.000000 0.000000 -0.209316
#
#
# Mechanical properties :
#
#
# Convention : Reuss Voigt Hill
#
# Bulk Modulus (GPa) = 21.91019 76.55928 49.23474
# Shear Modulus (GPa) = 67.44093 20.97623 44.20858
#
# Velocity S-wave (km/s) = 5.91408 3.29829 4.78827
# Velocity P-wave (km/s) = 7.61566 7.36276 7.49028
#
# Compressibility (1/GPa) = 0.04564087
#
# Stress axis : x y z
#
# Youngs Moduli (GPa) = 47.41544 98.39969 11.54105
#
# Poissons Ratio (x) = 0.64107 0.34324
# Poissons Ratio (y) = 0.30891 -0.00146
# Poissons Ratio (z) = 1.41019 -0.01244
#
# Static dielectric constant tensor:
#      x y z
#    x 1.696500 0.000000 0.000000 
#    y 0.000000 1.644200 0.000000 
#    z 0.000000 0.000000 1.653820 
# 
# From -- ./inp_files/6390.got.cif
#   From: 2010.05.17/outbox.cif.g08.bks.cpg/sg63_4_cif.got.tgz:6390.got - 2010.06.03 15:47:04.
