data_PCOD9471123
_publ_section_title
;
Structure prediction by ZEFSAII (Michael W. Deem and Ramdas Pophale) SiO2 
 PCOD9471123
Probable space group: C M C M
;
_chemical_formula_sum "Si O2"
_cell_formula_units_Z 96
_cell_length_a 12.352217
_cell_length_b 28.547058
_cell_length_c 14.025620
_cell_angle_alpha 90.000000
_cell_angle_beta 90.000000
_cell_angle_gamma 90.000000
_cell_volume 4945.706482
_symmetry_space_group_name_H-M "C M C M"
_symmetry_group_IT_number 63
_symmetry_cell_setting 'orthorhombic'
loop_
_space_group_symop_operation_xyz
x,y,z
-x,-y,1/2+z
x,-y,-z
-x,y,1/2-z
-x,-y,-z
x,y,1/2-z
-x,y,z
x,-y,1/2+z
1/2+x,1/2+y,z
1/2-x,1/2-y,1/2+z
1/2+x,1/2-y,-z
1/2-x,1/2+y,1/2-z
1/2-x,1/2-y,-z
1/2+x,1/2+y,1/2-z
1/2-x,1/2+y,z
1/2+x,1/2-y,1/2+z
loop_
_atom_site_type_symbol
_atom_site_label
_atom_site_fract_x
_atom_site_fract_y
_atom_site_fract_z
Si Si1 0.125564 0.809310 0.865875
Si Si2 0.500000 0.418815 0.366152
Si Si3 0.000000 0.027687 0.133690
Si Si4 0.266382 0.616360 0.864728
Si Si5 0.374038 0.205118 0.866130
Si Si6 0.622934 0.944300 0.005454
Si Si7 0.792643 0.090405 0.135677
O O1 0.129006 0.808970 0.750000
O O2 0.160249 0.757425 0.897277
O O3 0.186490 0.856092 0.895290
O O4 0.000000 0.814750 0.892787
O O5 0.500000 0.420077 0.250000
O O6 0.500000 0.473406 0.397894
O O7 0.609686 0.392285 0.394854
O O8 0.107382 0.056702 0.105940
O O9 0.000000 0.026974 0.250000
O O10 0.263729 0.614946 0.750000
O O11 0.208324 0.664530 0.895766
O O12 0.194572 0.574742 0.907698
O O13 0.374929 0.205072 0.750000
O O14 0.500000 0.197000 0.895065
O O15 0.500000 0.927430 0.014196
O O16 0.682678 0.926245 0.911477
O O17 0.622961 0.000000 0.000000
O O18 0.788316 0.088869 0.250000
#
# Coordination Sequence:
#
# PCOD9471123 Si02
#       7
#    16   8   8  16  16  16  16
#     4   8  13  26  51  84 112 136 174 224 269 320
#     4   9  18  31  51  79 110 141 177 214 267 330
#     4   9  16  29  53  83 106 137 179 218 263 322
#     4  10  20  37  58  79 108 144 180 227 277 324
#     4   8  14  26  51  82 107 137 180 223 266 313
#     4  11  25  40  54  77 107 142 189 233 269 322
#     4  10  19  34  57  82 113 144 175 220 275 329
#
# _framework density 19.410777
#
# number of rings (size 3 to 8) (size 9 to 14) (size 15 to 20)
#    0.000    2.667    0.833    2.500    0.000    4.000 
#    0.000    4.167    1.833    0.000    0.000    0.000 
#    0.000    0.000    0.000    0.000    0.000    0.000 
#
# Total GULP energy -267857.840169 kJ/mol
# GULP energy per Si atom -5580.371670 kJ/mol
# Density = 1.936660 g / cm^3
# Si number density = 19.410777 Si / 1000 Ang^3
#
#
#
# Elastic Constant Matrix: (Units=GPa)
#
#
# Indices 1 2 3 4 5 6 
#
# 1 155.4165 81.6123 26.1663 0.0000 0.0000 0.0000
# 2 81.6123 145.5485 21.3267 0.0000 0.0000 0.0000
# 3 26.1663 21.3267 50.5494 0.0000 0.0000 0.0000
# 4 0.0000 0.0000 0.0000 14.0515 0.0000 0.0000
# 5 0.0000 0.0000 0.0000 0.0000 13.4669 0.0000
# 6 0.0000 0.0000 0.0000 0.0000 0.0000 148.1448
#
#
#
# Elastic Compliance Matrix: (Units=1/GPa)
#
#
# Indices 1 2 3 4 5 6 
#
# 1 0.009488 -0.004904 -0.002842 0.000000 0.000000 0.000000
# 2 -0.004904 0.009858 -0.001621 0.000000 0.000000 0.000000
# 3 -0.002842 -0.001621 0.021938 0.000000 0.000000 0.000000
# 4 0.000000 0.000000 0.000000 0.071167 0.000000 0.000000
# 5 0.000000 0.000000 0.000000 0.000000 0.074256 0.000000
# 6 0.000000 0.000000 0.000000 0.000000 0.000000 0.006750
#
#
# Mechanical properties :
#
#
# Convention : Reuss Voigt Hill
#
# Bulk Modulus (GPa) = 44.34618 67.74722 56.04670
# Shear Modulus (GPa) = 22.75769 49.95992 36.35880
#
# Velocity S-wave (km/s) = 3.42778 5.07879 4.33266
# Velocity P-wave (km/s) = 6.20983 8.32885 7.34615
#
# Compressibility (1/GPa) = 0.02254986
#
# Stress axis : x y z
#
# Youngs Moduli (GPa) = 105.39814 101.44510 45.58353
#
# Poissons Ratio (x) = 0.49744 0.12957
# Poissons Ratio (y) = 0.51682 0.07387
# Poissons Ratio (z) = 0.29959 0.16440
#
# Static dielectric constant tensor:
#      x y z
#    x 1.648550 0.000000 0.000000 
#    y 0.000000 1.687970 0.000000 
#    z 0.000000 0.000000 1.694890 
# 
# From -- ./inp_files/30330.got.cif
#   From: 2010.05.17/outbox.cif.g08.bks.cpg/sg63_16_cif.got.tgz:30330.got - 2010.06.03 15:47:04.
