data_PCOD9471500
_publ_section_title
;
Structure prediction by ZEFSAII (Michael W. Deem and Ramdas Pophale) SiO2 
 PCOD9471500
Probable space group: C M C M
;
_chemical_formula_sum "Si O2"
_cell_formula_units_Z 112
_cell_length_a 13.883312
_cell_length_b 13.868913
_cell_length_c 25.356896
_cell_angle_alpha 90.000000
_cell_angle_beta 90.000000
_cell_angle_gamma 90.000000
_cell_volume 4882.380213
_symmetry_space_group_name_H-M "C M C M"
_symmetry_group_IT_number 63
_symmetry_cell_setting 'orthorhombic'
loop_
_space_group_symop_operation_xyz
x,y,z
-x,-y,1/2+z
x,-y,-z
-x,y,1/2-z
-x,-y,-z
x,y,1/2-z
-x,y,z
x,-y,1/2+z
1/2+x,1/2+y,z
1/2-x,1/2-y,1/2+z
1/2+x,1/2-y,-z
1/2-x,1/2+y,1/2-z
1/2-x,1/2-y,-z
1/2+x,1/2+y,1/2-z
1/2-x,1/2+y,z
1/2+x,1/2-y,1/2+z
loop_
_atom_site_type_symbol
_atom_site_label
_atom_site_fract_x
_atom_site_fract_y
_atom_site_fract_z
Si Si1 0.394703 0.479967 0.193557
Si Si2 0.679105 0.234907 0.691990
Si Si3 0.784190 0.609669 0.493262
Si Si4 0.102986 0.757604 0.170843
Si Si5 0.390215 0.712581 0.954972
Si Si6 0.113426 0.515228 0.813053
Si Si7 0.225773 0.901817 0.625858
O O1 0.346748 0.505846 0.250000
O O2 0.500000 0.524711 0.193145
O O3 0.406350 0.366802 0.190635
O O4 0.336961 0.507470 0.142538
O O5 0.635781 0.251104 0.750000
O O6 0.792664 0.261597 0.694603
O O7 0.657582 0.123566 0.678296
O O8 0.658599 0.314699 0.648344
O O9 0.818994 0.500000 0.500000
O O10 0.697401 0.639393 0.532510
O O11 0.864891 0.693097 0.490483
O O12 0.739641 0.613402 0.434969
O O13 0.113050 0.759255 0.107160
O O14 0.000000 0.708920 0.184627
O O15 0.500000 0.678720 0.965101
O O16 0.121827 0.495927 0.750000
O O17 0.171845 0.435785 0.847032
O O18 0.000000 0.518475 0.826384
#
# Coordination Sequence:
#
# PCOD9471500 Si02
#       7
#    16  16  16  16  16  16  16
#     4  10  20  34  56  88 124 161 202 251 309 376
#     4  11  22  37  62  93 126 166 207 251 308 375
#     4  11  25  42  67  93 125 166 215 270 323 380
#     4  10  19  36  63  89 119 157 200 252 313 372
#     4  10  23  45  67  93 127 163 210 270 326 380
#     4  10  23  42  63  92 133 176 213 254 311 382
#     4  12  23  39  63  91 125 166 214 262 317 372
#
# _framework density 22.939630999999999
#
# number of rings (size 3 to 8) (size 9 to 14) (size 15 to 20)
#    0.000    1.429    2.857    2.571    0.000    3.714 
#    0.000    2.857    0.000    0.000    0.000    0.000 
#    0.000    0.000    0.000    0.000    0.000    0.000 
#
# Total GULP energy -312049.944453 kJ/mol
# GULP energy per Si atom -5572.320437 kJ/mol
# Density = 2.288742 g / cm^3
# Si number density = 22.939631 Si / 1000 Ang^3
#
#
#
# Elastic Constant Matrix: (Units=GPa)
#
#
# Indices 1 2 3 4 5 6 
#
# 1 82.4026 -4.7542 9.8541 0.0000 0.0000 0.0000
# 2 -4.7542 86.0732 11.5532 0.0000 0.0000 0.0000
# 3 9.8541 11.5532 81.5215 0.0000 0.0000 0.0000
# 4 0.0000 0.0000 0.0000 25.1936 0.0000 0.0000
# 5 0.0000 0.0000 0.0000 0.0000 7.1492 0.0000
# 6 0.0000 0.0000 0.0000 0.0000 0.0000 19.0124
#
#
#
# Elastic Compliance Matrix: (Units=1/GPa)
#
#
# Indices 1 2 3 4 5 6 
#
# 1 0.012382 0.000902 -0.001625 0.000000 0.000000 0.000000
# 2 0.000902 0.011909 -0.001797 0.000000 0.000000 0.000000
# 3 -0.001625 -0.001797 0.012718 0.000000 0.000000 0.000000
# 4 0.000000 0.000000 0.000000 0.039693 0.000000 0.000000
# 5 0.000000 0.000000 0.000000 0.000000 0.139875 0.000000
# 6 0.000000 0.000000 0.000000 0.000000 0.000000 0.052597
#
#
# Mechanical properties :
#
#
# Convention : Reuss Voigt Hill
#
# Bulk Modulus (GPa) = 31.27942 31.47818 31.37880
# Shear Modulus (GPa) = 17.55190 25.82730 21.68960
#
# Velocity S-wave (km/s) = 2.76911 3.35906 3.07825
# Velocity P-wave (km/s) = 4.88765 5.36622 5.13251
#
# Compressibility (1/GPa) = 0.03196990
#
# Stress axis : x y z
#
# Youngs Moduli (GPa) = 80.76336 83.97002 78.63047
#
# Poissons Ratio (x) = -0.07574 0.12774
# Poissons Ratio (y) = -0.07284 0.14128
# Poissons Ratio (z) = 0.13120 0.15087
#
# Static dielectric constant tensor:
#      x y z
#    x 1.950160 0.000000 0.000000 
#    y 0.000000 1.976430 0.000000 
#    z 0.000000 0.000000 2.020590 
# 
# From -- ./inp_files/62983.got.cif
#   From: 2010.05.17/outbox.cif.g08.bks.cpg/sg63_32_cif.got.tgz:62983.got - 2010.06.03 15:47:04.
