data_PCOD9471670
_publ_section_title
;
Structure prediction by ZEFSAII (Michael W. Deem and Ramdas Pophale) SiO2 
 PCOD9471670
Probable space group: C M C M
;
_chemical_formula_sum "Si O2"
_cell_formula_units_Z 72
_cell_length_a 23.064000
_cell_length_b 23.903900
_cell_length_c 9.466723
_cell_angle_alpha 90.000000
_cell_angle_beta 90.000000
_cell_angle_gamma 90.000000
_cell_volume 5219.189461
_symmetry_space_group_name_H-M "C M C M"
_symmetry_group_IT_number 63
_symmetry_cell_setting 'orthorhombic'
loop_
_space_group_symop_operation_xyz
x,y,z
-x,-y,1/2+z
x,-y,-z
-x,y,1/2-z
-x,-y,-z
x,y,1/2-z
-x,y,z
x,-y,1/2+z
1/2+x,1/2+y,z
1/2-x,1/2-y,1/2+z
1/2+x,1/2-y,-z
1/2-x,1/2+y,1/2-z
1/2-x,1/2-y,-z
1/2+x,1/2+y,1/2-z
1/2-x,1/2+y,z
1/2+x,1/2-y,1/2+z
loop_
_atom_site_type_symbol
_atom_site_label
_atom_site_fract_x
_atom_site_fract_y
_atom_site_fract_z
Si Si1 0.104834 0.859045 0.916818
Si Si2 0.215045 0.169678 0.587185
Si Si3 0.066614 0.730446 0.916906
Si Si4 0.323820 0.800708 0.587148
Si Si5 0.000000 0.058230 0.080645
O O1 0.118823 0.863867 0.750000
O O2 0.077423 0.797092 0.936300
O O3 0.056715 0.904845 0.953855
O O4 0.162770 0.861889 0.009175
O O5 0.221955 0.152856 0.750000
O O6 0.274674 0.166855 0.500357
O O7 0.196250 0.235364 0.586529
O O8 0.075720 0.719257 0.750000
O O9 0.000000 0.717693 0.952681
O O10 0.114340 0.698919 0.009642
O O11 0.326838 0.818537 0.750000
O O12 0.000000 0.049734 0.250000
O O13 0.000000 0.000000 0.000000
#
# Coordination Sequence:
#
# PCOD9471670 Si02
#       5
#    16  16  16  16   8
#     4   9  16  28  42  54  69  93 123 155 195 236
#     4   9  16  25  37  53  70  90 118 152 187 223
#     4   9  15  24  38  53  71  97 127 156 187 224
#     4   9  16  24  34  51  73  95 118 149 185 220
#     4  10  20  32  44  58  76  98 126 162 204 244
#
# _framework density 13.795247
#
# number of rings (size 3 to 8) (size 9 to 14) (size 15 to 20)
#    0.000    2.889    1.111    1.333    0.000    6.667 
#    0.000    0.000    0.000    0.000    0.000    0.000 
#    0.000    0.000    0.000    0.000    0.000    1.111 
#
# Total GULP energy -200475.596972 kJ/mol
# GULP energy per Si atom -5568.766583 kJ/mol
# Density = 1.376385 g / cm^3
# Si number density = 13.795247 Si / 1000 Ang^3
#
#
#
# Elastic Constant Matrix: (Units=GPa)
#
#
# Indices 1 2 3 4 5 6 
#
# 1 153.7383 33.9312 99.8913 0.0000 0.0000 0.0000
# 2 33.9312 28.6749 29.4832 0.0000 0.0000 0.0000
# 3 99.8913 29.4832 103.9826 0.0000 0.0000 0.0000
# 4 0.0000 0.0000 0.0000 13.4149 0.0000 0.0000
# 5 0.0000 0.0000 0.0000 0.0000 28.1474 0.0000
# 6 0.0000 0.0000 0.0000 0.0000 0.0000 7.9344
#
#
#
# Elastic Compliance Matrix: (Units=1/GPa)
#
#
# Indices 1 2 3 4 5 6 
#
# 1 0.017784 -0.004909 -0.015693 0.000000 0.000000 0.000000
# 2 -0.004909 0.050579 -0.009625 0.000000 0.000000 0.000000
# 3 -0.015693 -0.009625 0.027421 0.000000 0.000000 0.000000
# 4 0.000000 0.000000 0.000000 0.074544 0.000000 0.000000
# 5 0.000000 0.000000 0.000000 0.000000 0.035527 0.000000
# 6 0.000000 0.000000 0.000000 0.000000 0.000000 0.126033
#
#
# Mechanical properties :
#
#
# Convention : Reuss Voigt Hill
#
# Bulk Modulus (GPa) = 28.30388 68.11190 48.20789
# Shear Modulus (GPa) = 12.37257 18.10536 15.23897
#
# Velocity S-wave (km/s) = 2.99803 3.62668 3.32724
# Velocity P-wave (km/s) = 5.70490 8.18644 7.05562
#
# Compressibility (1/GPa) = 0.03533085
#
# Stress axis : x y z
#
# Youngs Moduli (GPa) = 56.22922 19.77096 36.46810
#
# Poissons Ratio (x) = 0.09706 0.57228
# Poissons Ratio (y) = 0.27605 0.35101
# Poissons Ratio (z) = 0.88238 0.19030
#
# Static dielectric constant tensor:
#      x y z
#    x 1.453030 0.000000 0.000000 
#    y 0.000000 1.407770 0.000000 
#    z 0.000000 0.000000 1.461780 
# 
# From -- ./inp_files/8001.got.cif
#   From: 2010.05.17/outbox.cif.g08.bks.cpg/sg63_5_cif.got.tgz:8001.got - 2010.06.03 15:47:04.
