data_PCOD9471398
_publ_section_title
;
Structure prediction by ZEFSAII (Michael W. Deem and Ramdas Pophale) SiO2 
 PCOD9471398
Probable space group: C M C M
;
_chemical_formula_sum "Si O2"
_cell_formula_units_Z 72
_cell_length_a 19.319475
_cell_length_b 15.202141
_cell_length_c 14.251349
_cell_angle_alpha 90.000000
_cell_angle_beta 90.000000
_cell_angle_gamma 90.000000
_cell_volume 4185.583905
_symmetry_space_group_name_H-M "C M C M"
_symmetry_group_IT_number 63
_symmetry_cell_setting 'orthorhombic'
loop_
_space_group_symop_operation_xyz
x,y,z
-x,-y,1/2+z
x,-y,-z
-x,y,1/2-z
-x,-y,-z
x,y,1/2-z
-x,y,z
x,-y,1/2+z
1/2+x,1/2+y,z
1/2-x,1/2-y,1/2+z
1/2+x,1/2-y,-z
1/2-x,1/2+y,1/2-z
1/2-x,1/2-y,-z
1/2+x,1/2+y,1/2-z
1/2-x,1/2+y,z
1/2+x,1/2-y,1/2+z
loop_
_atom_site_type_symbol
_atom_site_label
_atom_site_fract_x
_atom_site_fract_y
_atom_site_fract_z
Si Si1 0.918677 0.921208 0.427590
Si Si2 0.323604 0.998212 0.250000
Si Si3 0.679273 0.601606 0.750000
Si Si4 0.081776 0.721638 0.451344
Si Si5 0.920518 0.430053 0.416134
Si Si6 0.346166 0.198476 0.250000
O O1 0.867405 0.923209 0.339778
O O2 0.907921 0.824556 0.472206
O O3 0.000000 0.924971 0.398112
O O4 0.906396 0.000000 0.500000
O O5 0.251031 0.948791 0.250000
O O6 0.369820 0.968327 0.338377
O O7 0.310794 0.103220 0.250000
O O8 0.692381 0.707318 0.750000
O O9 0.107379 0.658821 0.534560
O O10 0.111024 0.701559 0.347715
O O11 0.000000 0.704169 0.445911
O O12 0.923967 0.500000 0.500000
O O13 0.000000 0.417356 0.381090
#
# Coordination Sequence:
#
# PCOD9471398 Si02
#       6
#    16   8   8  16  16   8
#     4   9  18  37  62  85 107 138 183 231 272 315
#     4  12  23  37  54  78 114 148 180 218 273 329
#     4  10  23  39  54  82 110 144 184 224 267 321
#     4   9  17  32  57  85 109 134 176 228 273 316
#     4  10  20  34  55  83 110 140 177 222 273 323
#     4  10  19  36  56  78 103 144 186 222 262 314
#
# _framework density 17.201902
#
# number of rings (size 3 to 8) (size 9 to 14) (size 15 to 20)
#    0.000    2.222    2.222    1.000    0.000    4.444 
#    4.000    2.222    0.000    5.333    0.000    0.000 
#    0.000    0.000    0.000    0.000    0.000    0.000 
#
# Total GULP energy -200578.314574 kJ/mol
# GULP energy per Si atom -5571.619849 kJ/mol
# Density = 1.716275 g / cm^3
# Si number density = 17.201902 Si / 1000 Ang^3
#
#
#
# Elastic Constant Matrix: (Units=GPa)
#
#
# Indices 1 2 3 4 5 6 
#
# 1 76.6635 64.8001 47.3001 0.0000 0.0000 0.0000
# 2 64.8001 150.7543 64.4539 0.0000 0.0000 0.0000
# 3 47.3001 64.4539 79.2478 0.0000 0.0000 0.0000
# 4 0.0000 0.0000 0.0000 32.6529 0.0000 0.0000
# 5 0.0000 0.0000 0.0000 0.0000 -33.1544 0.0000
# 6 0.0000 0.0000 0.0000 0.0000 0.0000 22.1110
#
#
#
# Elastic Compliance Matrix: (Units=1/GPa)
#
#
# Indices 1 2 3 4 5 6 
#
# 1 0.024165 -0.006471 -0.009161 0.000000 0.000000 0.000000
# 2 -0.006471 0.011902 -0.005818 0.000000 0.000000 0.000000
# 3 -0.009161 -0.005818 0.022818 0.000000 0.000000 0.000000
# 4 0.000000 0.000000 0.000000 0.030625 0.000000 0.000000
# 5 0.000000 0.000000 0.000000 0.000000 -0.030162 0.000000
# 6 0.000000 0.000000 0.000000 0.000000 0.000000 0.045226
#
#
# Mechanical properties :
#
#
# Convention : Reuss Voigt Hill
#
# Bulk Modulus (GPa) = 62.55145 73.30819 67.92982
# Shear Modulus (GPa) = 32.72175 12.99601 22.85888
#
# Velocity S-wave (km/s) = 4.36617 2.75161 3.64930
# Velocity P-wave (km/s) = 7.86511 7.26664 7.57179
#
# Compressibility (1/GPa) = 0.01598684
#
# Stress axis : x y z
#
# Youngs Moduli (GPa) = 41.38161 84.01835 43.82419
#
# Poissons Ratio (x) = 0.54365 0.40146
# Poissons Ratio (y) = 0.26776 0.25498
# Poissons Ratio (z) = 0.37909 0.48884
#
# Static dielectric constant tensor:
#      x y z
#    x 1.563650 0.000000 0.000000 
#    y 0.000000 1.613370 0.000000 
#    z 0.000000 0.000000 1.574670 
# 
# From -- ./inp_files/33695.got.cif
#   From: 2010.05.17/outbox.cif.g08.bks.cpg/sg63_17_cif.got.tgz:33695.got - 2010.06.03 15:47:04.
