data_PCOD9471590
_publ_section_title
;
Structure prediction by ZEFSAII (Michael W. Deem and Ramdas Pophale) SiO2 
 PCOD9471590
Probable space group: C M C M
;
_chemical_formula_sum "Si O2"
_cell_formula_units_Z 88
_cell_length_a 26.056691
_cell_length_b 13.421250
_cell_length_c 11.214557
_cell_angle_alpha 90.000000
_cell_angle_beta 90.000000
_cell_angle_gamma 90.000000
_cell_volume 3921.880455
_symmetry_space_group_name_H-M "C M C M"
_symmetry_group_IT_number 63
_symmetry_cell_setting 'orthorhombic'
loop_
_space_group_symop_operation_xyz
x,y,z
-x,-y,1/2+z
x,-y,-z
-x,y,1/2-z
-x,-y,-z
x,y,1/2-z
-x,y,z
x,-y,1/2+z
1/2+x,1/2+y,z
1/2-x,1/2-y,1/2+z
1/2+x,1/2-y,-z
1/2-x,1/2+y,1/2-z
1/2-x,1/2-y,-z
1/2+x,1/2+y,1/2-z
1/2-x,1/2+y,z
1/2+x,1/2-y,1/2+z
loop_
_atom_site_type_symbol
_atom_site_label
_atom_site_fract_x
_atom_site_fract_y
_atom_site_fract_z
Si Si1 0.942297 0.130750 0.385628
Si Si2 0.555598 0.169293 0.002628
Si Si3 0.711990 0.123014 0.750000
Si Si4 0.671718 0.414394 0.250000
Si Si5 0.912048 0.262384 0.750000
Si Si6 0.183013 0.613197 0.250000
Si Si7 0.172303 0.384951 0.496482
Si Si8 0.140320 0.000000 0.500000
O O1 0.932100 0.098747 0.250000
O O2 0.942913 0.249270 0.398240
O O3 0.898044 0.090106 0.469513
O O4 0.000000 0.096642 0.417246
O O5 0.500000 0.117100 0.997367
O O6 0.557226 0.230723 0.127515
O O7 0.610245 0.115289 0.996928
O O8 0.772512 0.133748 0.750000
O O9 0.689760 0.164289 0.626342
O O10 0.697059 0.003824 0.750000
O O11 0.626444 0.331752 0.250000
O O12 0.668638 0.475116 0.375560
O O13 0.877973 0.364285 0.750000
O O14 0.196069 0.657654 0.380287
O O15 0.189171 0.500000 0.500000
#
# Coordination Sequence:
#
# PCOD9471590 Si02
#       8
#    16  16   8   8   8   8  16   8
#     4  10  21  37  56  83 120 157 192 236 302 358
#     4  10  20  35  60  89 121 157 192 241 300 362
#     4  10  22  40  59  86 113 161 198 249 304 354
#     4  12  26  39  64  85 122 153 212 255 309 343
#     4  10  19  40  58  88 118 153 199 247 296 365
#     4   8  18  37  62  77 113 155 197 239 297 354
#     4   9  19  37  59  84 118 154 197 244 294 359
#     4  12  23  42  58  88 116 154 201 262 288 360
#
# _framework density 22.438216000000001
#
# number of rings (size 3 to 8) (size 9 to 14) (size 15 to 20)
#    0.000    2.000    2.727    0.545    5.091    0.364 
#    0.000    5.455    0.000    3.273    0.000    0.000 
#    0.000    0.000    0.000    0.000    0.000    0.000 
#
# Total GULP energy -245004.469319 kJ/mol
# GULP energy per Si atom -5568.283394 kJ/mol
# Density = 2.238715 g / cm^3
# Si number density = 22.438216 Si / 1000 Ang^3
#
#
#
# Elastic Constant Matrix: (Units=GPa)
#
#
# Indices 1 2 3 4 5 6 
#
# 1 72.7132 7.6237 53.9782 0.0000 0.0000 0.0000
# 2 7.6237 36.5634 6.6503 0.0000 0.0000 0.0000
# 3 53.9782 6.6503 186.8447 0.0000 0.0000 0.0000
# 4 0.0000 0.0000 0.0000 19.6625 0.0000 0.0000
# 5 0.0000 0.0000 0.0000 0.0000 -0.6711 0.0000
# 6 0.0000 0.0000 0.0000 0.0000 0.0000 18.7585
#
#
#
# Elastic Compliance Matrix: (Units=1/GPa)
#
#
# Indices 1 2 3 4 5 6 
#
# 1 0.017786 -0.002792 -0.005039 0.000000 0.000000 0.000000
# 2 -0.002792 0.027966 -0.000189 0.000000 0.000000 0.000000
# 3 -0.005039 -0.000189 0.006814 0.000000 0.000000 0.000000
# 4 0.000000 0.000000 0.000000 0.050858 0.000000 0.000000
# 5 0.000000 0.000000 0.000000 0.000000 -1.490113 0.000000
# 6 0.000000 0.000000 0.000000 0.000000 0.000000 0.053309
#
#
# Mechanical properties :
#
#
# Convention : Reuss Voigt Hill
#
# Bulk Modulus (GPa) = 27.37674 48.06953 37.72313
# Shear Modulus (GPa) = -3.83094 22.74125 9.45516
#
# Velocity S-wave (km/s) = -1.30806 3.18701 2.05500
# Velocity P-wave (km/s) = 3.15374 5.91712 4.74122
#
# Compressibility (1/GPa) = 0.03652736
#
# Stress axis : x y z
#
# Youngs Moduli (GPa) = 56.22405 35.75736 146.74681
#
# Poissons Ratio (x) = 0.09983 0.73944
# Poissons Ratio (y) = 0.15698 0.02771
# Poissons Ratio (z) = 0.28331 0.00675
#
# Static dielectric constant tensor:
#      x y z
#    x 1.821330 0.000000 0.000000 
#    y 0.000000 1.844240 0.000000 
#    z 0.000000 0.000000 1.922810 
# 
# From -- ./inp_files/23819.got.cif
#   From: 2010.05.17/outbox.cif.g08.bks.cpg/sg63_12_cif.got.tgz:23819.got - 2010.06.03 15:47:04.
