data_PCOD9471300
_publ_section_title
;
Structure prediction by ZEFSAII (Michael W. Deem and Ramdas Pophale) SiO2 
 PCOD9471300
Probable space group: C M C M
;
_chemical_formula_sum "Si O2"
_cell_formula_units_Z 96
_cell_length_a 14.011460
_cell_length_b 20.719406
_cell_length_c 18.439138
_cell_angle_alpha 90.000000
_cell_angle_beta 90.000000
_cell_angle_gamma 90.000000
_cell_volume 5353.050081
_symmetry_space_group_name_H-M "C M C M"
_symmetry_group_IT_number 63
_symmetry_cell_setting 'orthorhombic'
loop_
_space_group_symop_operation_xyz
x,y,z
-x,-y,1/2+z
x,-y,-z
-x,y,1/2-z
-x,-y,-z
x,y,1/2-z
-x,y,z
x,-y,1/2+z
1/2+x,1/2+y,z
1/2-x,1/2-y,1/2+z
1/2+x,1/2-y,-z
1/2-x,1/2+y,1/2-z
1/2-x,1/2-y,-z
1/2+x,1/2+y,1/2-z
1/2-x,1/2+y,z
1/2+x,1/2-y,1/2+z
loop_
_atom_site_type_symbol
_atom_site_label
_atom_site_fract_x
_atom_site_fract_y
_atom_site_fract_z
Si Si1 0.261562 0.985559 0.165930
Si Si2 0.390032 0.909992 0.612523
Si Si3 0.110429 0.595666 0.942098
Si Si4 0.108931 0.263632 0.835382
Si Si5 0.266787 0.309787 0.446160
Si Si6 0.386532 0.560475 0.554673
O O1 0.263270 0.967901 0.250000
O O2 0.303154 0.057669 0.155973
O O3 0.337962 0.949472 0.115177
O O4 0.161745 0.965455 0.129048
O O5 0.500000 0.930118 0.632586
O O6 0.377415 0.923414 0.526736
O O7 0.385923 0.833654 0.627076
O O8 0.161709 0.663587 0.932374
O O9 0.000000 0.597616 0.927643
O O10 0.127030 0.270368 0.750000
O O11 0.180908 0.216439 0.875178
O O12 0.000000 0.239969 0.844744
O O13 0.250000 0.250000 0.500000
O O14 0.329231 0.373944 0.468752
O O15 0.371951 0.500000 0.500000
O O16 0.500000 0.572926 0.560214
#
# Coordination Sequence:
#
# PCOD9471300 Si02
#       6
#    16  16  16  16  16  16
#     4  11  22  35  56  86 120 156 193 242 299 355
#     4  10  19  35  58  84 116 155 197 243 300 360
#     4  10  21  36  55  81 115 152 197 243 291 355
#     4  10  21  36  57  88 120 150 193 252 309 356
#     4  11  21  36  61  88 116 154 199 249 299 358
#     4  10  23  42  63  87 118 158 202 244 293 357
#
# _framework density 17.933700999999999
#
# number of rings (size 3 to 8) (size 9 to 14) (size 15 to 20)
#    0.000    1.667    1.667    4.000    0.000    7.000 
#    0.000    0.000    0.000    0.000    0.000    0.000 
#    0.000    0.000    0.000    0.000    0.000    0.000 
#
# Total GULP energy -267530.112883 kJ/mol
# GULP energy per Si atom -5573.544018 kJ/mol
# Density = 1.789288 g / cm^3
# Si number density = 17.933701 Si / 1000 Ang^3
#
#
#
# Elastic Constant Matrix: (Units=GPa)
#
#
# Indices 1 2 3 4 5 6 
#
# 1 60.7169 9.2957 33.6787 0.0000 0.0000 0.0000
# 2 9.2957 60.9518 20.2133 0.0000 0.0000 0.0000
# 3 33.6787 20.2133 107.0257 0.0000 0.0000 0.0000
# 4 0.0000 0.0000 0.0000 17.9498 0.0000 0.0000
# 5 0.0000 0.0000 0.0000 0.0000 19.9652 0.0000
# 6 0.0000 0.0000 0.0000 0.0000 0.0000 26.0040
#
#
#
# Elastic Compliance Matrix: (Units=1/GPa)
#
#
# Indices 1 2 3 4 5 6 
#
# 1 0.020013 -0.001028 -0.006103 0.000000 0.000000 0.000000
# 2 -0.001028 0.017555 -0.002992 0.000000 0.000000 0.000000
# 3 -0.006103 -0.002992 0.011829 0.000000 0.000000 0.000000
# 4 0.000000 0.000000 0.000000 0.055711 0.000000 0.000000
# 5 0.000000 0.000000 0.000000 0.000000 0.050087 0.000000
# 6 0.000000 0.000000 0.000000 0.000000 0.000000 0.038456
#
#
# Mechanical properties :
#
#
# Convention : Reuss Voigt Hill
#
# Bulk Modulus (GPa) = 34.30493 39.45221 36.87857
# Shear Modulus (GPa) = 22.35984 23.81757 23.08871
#
# Velocity S-wave (km/s) = 3.53484 3.64825 3.59200
# Velocity P-wave (km/s) = 5.98585 6.30817 6.14912
#
# Compressibility (1/GPa) = 0.02915033
#
# Stress axis : x y z
#
# Youngs Moduli (GPa) = 49.96811 56.96234 84.53608
#
# Poissons Ratio (x) = 0.05856 0.51596
# Poissons Ratio (y) = 0.05137 0.25294
# Poissons Ratio (z) = 0.30498 0.17044
#
# Static dielectric constant tensor:
#      x y z
#    x 1.635680 0.000000 0.000000 
#    y 0.000000 1.723630 0.000000 
#    z 0.000000 0.000000 1.604050 
# 
# From -- ./inp_files/31879.got.cif
#   From: 2010.05.17/outbox.cif.g08.bks.cpg/sg63_16_cif.got.tgz:31879.got - 2010.06.03 15:47:04.
