data_PCOD9471451
_publ_section_title
;
Structure prediction by ZEFSAII (Michael W. Deem and Ramdas Pophale) SiO2 
 PCOD9471451
Probable space group: C M C M
;
_chemical_formula_sum "Si O2"
_cell_formula_units_Z 56
_cell_length_a 15.981873
_cell_length_b 9.592410
_cell_length_c 15.241963
_cell_angle_alpha 90.000000
_cell_angle_beta 90.000000
_cell_angle_gamma 90.000000
_cell_volume 2336.664236
_symmetry_space_group_name_H-M "C M C M"
_symmetry_group_IT_number 63
_symmetry_cell_setting 'orthorhombic'
loop_
_space_group_symop_operation_xyz
x,y,z
-x,-y,1/2+z
x,-y,-z
-x,y,1/2-z
-x,-y,-z
x,y,1/2-z
-x,y,z
x,-y,1/2+z
1/2+x,1/2+y,z
1/2-x,1/2-y,1/2+z
1/2+x,1/2-y,-z
1/2-x,1/2+y,1/2-z
1/2-x,1/2-y,-z
1/2+x,1/2+y,1/2-z
1/2-x,1/2+y,z
1/2+x,1/2-y,1/2+z
loop_
_atom_site_type_symbol
_atom_site_label
_atom_site_fract_x
_atom_site_fract_y
_atom_site_fract_z
Si Si1 0.407574 0.310171 0.037094
Si Si2 0.852588 0.500000 0.000000
Si Si3 0.248173 0.387948 0.151098
Si Si4 0.593522 0.324207 0.844949
O O1 0.500000 0.334834 0.074703
O O2 0.332194 0.335785 0.104090
O O3 0.401469 0.145416 0.008714
O O4 0.400531 0.388453 0.942217
O O5 0.793329 0.497447 0.085231
O O6 0.260985 0.437427 0.250000
O O7 0.175202 0.272036 0.156955
O O8 0.592737 0.399763 0.750000
O O9 0.500000 0.255673 0.846614
#
# Coordination Sequence:
#
# PCOD9471451 Si02
#       4
#    16   8  16  16
#     4  10  20  35  57  85 117 149 183 229 285 341
#     4  10  19  36  59  86 110 146 195 242 277 326
#     4  10  21  36  54  80 117 154 188 233 288 340
#     4   8  14  27  49  76 105 138 176 218 265 319
#
# _framework density 23.965789000000001
#
# number of rings (size 3 to 8) (size 9 to 14) (size 15 to 20)
#    0.000    2.571    0.000    3.857    0.000    2.857 
#    0.000    2.143    0.000    5.143    0.000    4.000 
#    0.000    0.000    0.000    0.000    0.000    0.000 
#
# Total GULP energy -156102.119694 kJ/mol
# GULP energy per Si atom -5575.075703 kJ/mol
# Density = 2.391124 g / cm^3
# Si number density = 23.965789 Si / 1000 Ang^3
#
#
#
# Elastic Constant Matrix: (Units=GPa)
#
#
# Indices 1 2 3 4 5 6 
#
# 1 226.3468 44.6669 73.5082 0.0000 0.0000 0.0000
# 2 44.6669 56.3714 22.5517 0.0000 0.0000 0.0000
# 3 73.5082 22.5517 235.4566 0.0000 0.0000 0.0000
# 4 0.0000 0.0000 0.0000 25.5806 0.0000 0.0000
# 5 0.0000 0.0000 0.0000 0.0000 24.4502 0.0000
# 6 0.0000 0.0000 0.0000 0.0000 0.0000 34.4373
#
#
#
# Elastic Compliance Matrix: (Units=1/GPa)
#
#
# Indices 1 2 3 4 5 6 
#
# 1 0.005641 -0.003915 -0.001386 0.000000 0.000000 0.000000
# 2 -0.003915 0.021164 -0.000805 0.000000 0.000000 0.000000
# 3 -0.001386 -0.000805 0.004757 0.000000 0.000000 0.000000
# 4 0.000000 0.000000 0.000000 0.039092 0.000000 0.000000
# 5 0.000000 0.000000 0.000000 0.000000 0.040899 0.000000
# 6 0.000000 0.000000 0.000000 0.000000 0.000000 0.029038
#
#
# Mechanical properties :
#
#
# Convention : Reuss Voigt Hill
#
# Bulk Modulus (GPa) = 51.68093 88.84761 70.26427
# Shear Modulus (GPa) = 31.39669 42.05682 36.72675
#
# Velocity S-wave (km/s) = 3.62341 4.19366 3.91892
# Velocity P-wave (km/s) = 6.25433 7.78474 7.06112
#
# Compressibility (1/GPa) = 0.01934950
#
# Stress axis : x y z
#
# Youngs Moduli (GPa) = 177.28275 47.25102 210.22296
#
# Poissons Ratio (x) = 0.18499 0.29137
# Poissons Ratio (y) = 0.69407 0.16918
# Poissons Ratio (z) = 0.24572 0.03803
#
# Static dielectric constant tensor:
#      x y z
#    x 1.871800 0.000000 0.000000 
#    y 0.000000 2.005800 0.000000 
#    z 0.000000 0.000000 1.913810 
# 
# From -- ./inp_files/30818.got.cif
#   From: 2010.05.17/outbox.cif.g08.bks.cpg/sg63_16_cif.got.tgz:30818.got - 2010.06.03 15:47:04.
