data_PCOD9471294
_publ_section_title
;
Structure prediction by ZEFSAII (Michael W. Deem and Ramdas Pophale) SiO2 
 PCOD9471294
Probable space group: C M C M
;
_chemical_formula_sum "Si O2"
_cell_formula_units_Z 80
_cell_length_a 20.461865
_cell_length_b 24.260423
_cell_length_c 7.609029
_cell_angle_alpha 90.000000
_cell_angle_beta 90.000000
_cell_angle_gamma 90.000000
_cell_volume 3777.224720
_symmetry_space_group_name_H-M "C M C M"
_symmetry_group_IT_number 63
_symmetry_cell_setting 'orthorhombic'
loop_
_space_group_symop_operation_xyz
x,y,z
-x,-y,1/2+z
x,-y,-z
-x,y,1/2-z
-x,-y,-z
x,y,1/2-z
-x,y,z
x,-y,1/2+z
1/2+x,1/2+y,z
1/2-x,1/2-y,1/2+z
1/2+x,1/2-y,-z
1/2-x,1/2+y,1/2-z
1/2-x,1/2-y,-z
1/2+x,1/2+y,1/2-z
1/2-x,1/2+y,z
1/2+x,1/2-y,1/2+z
loop_
_atom_site_type_symbol
_atom_site_label
_atom_site_fract_x
_atom_site_fract_y
_atom_site_fract_z
Si Si1 0.828752 0.565522 0.041388
Si Si2 0.826560 0.756566 0.960274
Si Si3 0.574769 0.838740 0.459825
Si Si4 0.305423 0.621727 0.034534
Si Si5 0.568154 0.436146 0.960180
O O1 0.825204 0.568523 0.250000
O O2 0.764754 0.599019 0.971941
O O3 0.829331 0.500000 0.000000
O O4 0.891686 0.601632 0.987941
O O5 0.834293 0.755632 0.750000
O O6 0.875173 0.708901 0.029148
O O7 0.833951 0.819154 0.022249
O O8 0.750000 0.750000 0.000000
O O9 0.570980 0.830945 0.250000
O O10 0.500000 0.835433 0.527719
O O11 0.301190 0.623410 0.250000
O O12 0.362150 0.581796 0.972441
O O13 0.569446 0.427169 0.750000
O O14 0.500000 0.409932 0.025871
O O15 0.563937 0.500000 0.000000
#
# Coordination Sequence:
#
# PCOD9471294 Si02
#       5
#    16  16  16  16  16
#     4  11  22  37  58  83 113 149 190 235 282 335
#     4  10  19  35  58  82 110 142 179 222 271 325
#     4  10  22  39  59  85 115 147 186 232 281 334
#     4   9  18  32  53  81 110 140 180 224 269 323
#     4   9  17  30  48  71 103 141 177 216 262 311
#
# _framework density 21.179570999999999
#
# number of rings (size 3 to 8) (size 9 to 14) (size 15 to 20)
#    0.000    2.200    2.000    1.200    0.000    1.600 
#    0.000    6.000    0.000    0.000    0.000    2.800 
#    0.000    0.000    0.000    0.000    0.000    0.000 
#
# Total GULP energy -222721.447093 kJ/mol
# GULP energy per Si atom -5568.036177 kJ/mol
# Density = 2.113137 g / cm^3
# Si number density = 21.179571 Si / 1000 Ang^3
#
#
#
# Elastic Constant Matrix: (Units=GPa)
#
#
# Indices 1 2 3 4 5 6 
#
# 1 180.2920 79.7299 6.8327 0.0000 0.0000 0.0000
# 2 79.7299 134.4143 0.1546 0.0000 0.0000 0.0000
# 3 6.8327 0.1546 47.3242 0.0000 0.0000 0.0000
# 4 0.0000 0.0000 0.0000 1.9454 0.0000 0.0000
# 5 0.0000 0.0000 0.0000 0.0000 44.5602 0.0000
# 6 0.0000 0.0000 0.0000 0.0000 0.0000 34.6777
#
#
#
# Elastic Compliance Matrix: (Units=1/GPa)
#
#
# Indices 1 2 3 4 5 6 
#
# 1 0.007574 -0.004491 -0.001079 0.000000 0.000000 0.000000
# 2 -0.004491 0.010103 0.000615 0.000000 0.000000 0.000000
# 3 -0.001079 0.000615 0.021285 0.000000 0.000000 0.000000
# 4 0.000000 0.000000 0.000000 0.514041 0.000000 0.000000
# 5 0.000000 0.000000 0.000000 0.000000 0.022442 0.000000
# 6 0.000000 0.000000 0.000000 0.000000 0.000000 0.028837
#
#
# Mechanical properties :
#
#
# Convention : Reuss Voigt Hill
#
# Bulk Modulus (GPa) = 34.42094 59.49611 46.95853
# Shear Modulus (GPa) = 8.01444 34.59088 21.30266
#
# Velocity S-wave (km/s) = 1.94737 4.04569 3.17489
# Velocity P-wave (km/s) = 4.61991 7.06936 5.97157
#
# Compressibility (1/GPa) = 0.02905208
#
# Stress axis : x y z
#
# Youngs Moduli (GPa) = 132.03877 98.98094 46.98238
#
# Poissons Ratio (x) = 0.44454 0.05068
# Poissons Ratio (y) = 0.59300 -0.02891
# Poissons Ratio (z) = 0.14244 -0.06092
#
# Static dielectric constant tensor:
#      x y z
#    x 1.960250 0.000000 0.000000 
#    y 0.000000 2.364280 0.000000 
#    z 0.000000 0.000000 1.830860 
# 
# From -- ./inp_files/6436.got.cif
#   From: 2010.05.17/outbox.cif.g08.bks.cpg/sg63_4_cif.got.tgz:6436.got - 2010.06.03 15:47:04.
