data_PCOD9471031
_publ_section_title
;
Structure prediction by ZEFSAII (Michael W. Deem and Ramdas Pophale) SiO2 
 PCOD9471031
Probable space group: C M C M
;
_chemical_formula_sum "Si O2"
_cell_formula_units_Z 96
_cell_length_a 7.554238
_cell_length_b 25.284880
_cell_length_c 24.866129
_cell_angle_alpha 90.000000
_cell_angle_beta 90.000000
_cell_angle_gamma 90.000000
_cell_volume 4749.629601
_symmetry_space_group_name_H-M "C M C M"
_symmetry_group_IT_number 63
_symmetry_cell_setting 'orthorhombic'
loop_
_space_group_symop_operation_xyz
x,y,z
-x,-y,1/2+z
x,-y,-z
-x,y,1/2-z
-x,-y,-z
x,y,1/2-z
-x,y,z
x,-y,1/2+z
1/2+x,1/2+y,z
1/2-x,1/2-y,1/2+z
1/2+x,1/2-y,-z
1/2-x,1/2+y,1/2-z
1/2-x,1/2-y,-z
1/2+x,1/2+y,1/2-z
1/2-x,1/2+y,z
1/2+x,1/2-y,1/2+z
loop_
_atom_site_type_symbol
_atom_site_label
_atom_site_fract_x
_atom_site_fract_y
_atom_site_fract_z
Si Si1 0.216496 0.103447 0.250000
Si Si2 0.213726 0.974647 0.056331
Si Si3 0.286548 0.435270 0.865383
Si Si4 0.289968 0.829737 0.932648
Si Si5 0.704034 0.770281 0.137729
Si Si6 0.710670 0.148679 0.552301
Si Si7 0.717712 0.273364 0.750000
O O1 0.276584 0.075696 0.304932
O O2 0.270355 0.165009 0.250000
O O3 0.000000 0.102996 0.250000
O O4 0.263874 0.913601 0.059914
O O5 0.000000 0.976816 0.055714
O O6 0.276647 0.011698 0.105091
O O7 0.276001 0.000000 0.000000
O O8 0.500000 0.437777 0.863037
O O9 0.240955 0.385138 0.902569
O O10 0.500000 0.819947 0.934146
O O11 0.207368 0.782524 0.898470
O O12 0.220400 0.834067 0.993611
O O13 0.500000 0.785114 0.148385
O O14 0.784609 0.816587 0.101257
O O15 0.780250 0.755123 0.195708
O O16 0.500000 0.158823 0.550414
O O17 0.500000 0.273957 0.750000
#
# Coordination Sequence:
#
# PCOD9471031 Si02
#       7
#     8  16  16  16  16  16   8
#     4   9  16  30  55  80 100 132 174 216 259 302
#     4  10  20  34  55  79 102 134 175 218 258 303
#     4  10  19  34  55  79 104 134 175 216 256 309
#     4  11  21  32  50  80 110 137 167 212 268 310
#     4  10  20  36  55  77 104 138 179 216 256 312
#     4  10  22  36  52  76 109 144 173 210 261 314
#     4   9  16  30  57  80  96 132 180 218 251 302
#
# _framework density 20.212101000000001
#
# number of rings (size 3 to 8) (size 9 to 14) (size 15 to 20)
#    0.000    2.000    3.333    1.000    0.000    2.333 
#    0.000    2.500    0.000    0.000    0.000    0.000 
#    0.000    0.000    0.000    0.000    0.000    0.000 
#
# Total GULP energy -268096.089712 kJ/mol
# GULP energy per Si atom -5585.335202 kJ/mol
# Density = 2.016610 g / cm^3
# Si number density = 20.212101 Si / 1000 Ang^3
#
#
#
# Elastic Constant Matrix: (Units=GPa)
#
#
# Indices 1 2 3 4 5 6 
#
# 1 49.2516 -12.1980 8.6678 0.0000 0.0000 0.0000
# 2 -12.1980 109.4427 94.3174 0.0000 0.0000 0.0000
# 3 8.6678 94.3174 216.9793 0.0000 0.0000 0.0000
# 4 0.0000 0.0000 0.0000 33.6913 0.0000 0.0000
# 5 0.0000 0.0000 0.0000 0.0000 -3.4914 0.0000
# 6 0.0000 0.0000 0.0000 0.0000 0.0000 13.1020
#
#
#
# Elastic Compliance Matrix: (Units=1/GPa)
#
#
# Indices 1 2 3 4 5 6 
#
# 1 0.022133 0.005163 -0.003128 0.000000 0.000000 0.000000
# 2 0.005163 0.015815 -0.007081 0.000000 0.000000 0.000000
# 3 -0.003128 -0.007081 0.007812 0.000000 0.000000 0.000000
# 4 0.000000 0.000000 0.000000 0.029681 0.000000 0.000000
# 5 0.000000 0.000000 0.000000 0.000000 -0.286420 0.000000
# 6 0.000000 0.000000 0.000000 0.000000 0.000000 0.076324
#
#
# Mechanical properties :
#
#
# Convention : Reuss Voigt Hill
#
# Bulk Modulus (GPa) = 28.03699 61.91644 44.97671
# Shear Modulus (GPa) = -44.37593 27.65281 -8.36156
#
# Velocity S-wave (km/s) = -4.69071 3.70284 -2.03615
# Velocity P-wave (km/s) = 3.92881 6.99866 4.09546
#
# Compressibility (1/GPa) = 0.03566717
#
# Stress axis : x y z
#
# Youngs Moduli (GPa) = 45.18107 63.23222 128.01557
#
# Poissons Ratio (x) = -0.32646 0.40048
# Poissons Ratio (y) = -0.23327 0.90643
# Poissons Ratio (z) = 0.14134 0.44773
#
# Static dielectric constant tensor:
#      x y z
#    x 1.760000 0.000000 0.000000 
#    y 0.000000 1.667710 0.000000 
#    z 0.000000 0.000000 1.724960 
# 
# From -- ./inp_files/60091.got.cif
#   From: 2010.05.17/outbox.cif.g08.bks.cpg/sg63_31_cif.got.tgz:60091.got - 2010.06.03 15:47:04.
