data_PCOD9471622
_publ_section_title
;
Structure prediction by ZEFSAII (Michael W. Deem and Ramdas Pophale) SiO2 
 PCOD9471622
Probable space group: C M C M
;
_chemical_formula_sum "Si O2"
_cell_formula_units_Z 96
_cell_length_a 24.627094
_cell_length_b 14.316827
_cell_length_c 14.379715
_cell_angle_alpha 90.000000
_cell_angle_beta 90.000000
_cell_angle_gamma 90.000000
_cell_volume 5070.026435
_symmetry_space_group_name_H-M "C M C M"
_symmetry_group_IT_number 63
_symmetry_cell_setting 'orthorhombic'
loop_
_space_group_symop_operation_xyz
x,y,z
-x,-y,1/2+z
x,-y,-z
-x,y,1/2-z
-x,-y,-z
x,y,1/2-z
-x,y,z
x,-y,1/2+z
1/2+x,1/2+y,z
1/2-x,1/2-y,1/2+z
1/2+x,1/2-y,-z
1/2-x,1/2+y,1/2-z
1/2-x,1/2-y,-z
1/2+x,1/2+y,1/2-z
1/2-x,1/2+y,z
1/2+x,1/2-y,1/2+z
loop_
_atom_site_type_symbol
_atom_site_label
_atom_site_fract_x
_atom_site_fract_y
_atom_site_fract_z
Si Si1 0.777790 0.338640 0.363546
Si Si2 0.560549 0.466106 0.605248
Si Si3 0.664091 0.345439 0.862225
Si Si4 0.439393 0.325664 0.355596
Si Si5 0.668203 0.765968 0.636145
Si Si6 0.727590 0.951259 0.636269
O O1 0.779322 0.340064 0.250000
O O2 0.820294 0.259038 0.394384
O O3 0.718105 0.301292 0.390372
O O4 0.785201 0.444410 0.396165
O O5 0.557641 0.500000 0.500000
O O6 0.500000 0.437119 0.635907
O O7 0.605987 0.387971 0.614034
O O8 0.575221 0.564809 0.652143
O O9 0.666723 0.343244 0.750000
O O10 0.712755 0.414744 0.892752
O O11 0.444024 0.290165 0.250000
O O12 0.500000 0.319029 0.398535
O O13 0.389319 0.271027 0.400031
O O14 0.666782 0.762874 0.750000
O O15 0.685145 0.870637 0.609641
O O16 0.728140 0.953350 0.750000
#
# Coordination Sequence:
#
# PCOD9471622 Si02
#       6
#    16  16  16  16  16  16
#     4   8  13  21  36  60  85 107 132 161 196 237
#     4  10  20  31  42  58  81 108 134 163 206 252
#     4   9  16  26  43  64  82 105 138 170 197 232
#     4   9  16  26  42  62  80 101 133 170 202 234
#     4   8  13  21  36  60  86 108 131 163 201 236
#     4   8  13  22  39  63  88 111 134 163 200 240
#
# _framework density 18.934812000000001
#
# number of rings (size 3 to 8) (size 9 to 14) (size 15 to 20)
#    0.000    3.333    0.000    3.500    0.000    3.667 
#    0.000    0.000    0.000   10.000    0.000    4.667 
#    0.000    4.000    0.000    0.000    0.000    0.000 
#
# Total GULP energy -267577.265700 kJ/mol
# GULP energy per Si atom -5574.526369 kJ/mol
# Density = 1.889172 g / cm^3
# Si number density = 18.934812 Si / 1000 Ang^3
#
#
#
# Elastic Constant Matrix: (Units=GPa)
#
#
# Indices 1 2 3 4 5 6 
#
# 1 159.4896 113.5692 4.6772 0.0000 0.0000 0.0000
# 2 113.5692 178.5236 10.2523 0.0000 0.0000 0.0000
# 3 4.6772 10.2523 40.0681 0.0000 0.0000 0.0000
# 4 0.0000 0.0000 0.0000 9.7861 0.0000 0.0000
# 5 0.0000 0.0000 0.0000 0.0000 4.6062 0.0000
# 6 0.0000 0.0000 0.0000 0.0000 0.0000 27.0570
#
#
#
# Elastic Compliance Matrix: (Units=1/GPa)
#
#
# Indices 1 2 3 4 5 6 
#
# 1 0.011474 -0.007330 0.000536 0.000000 0.000000 0.000000
# 2 -0.007330 0.010368 -0.001797 0.000000 0.000000 0.000000
# 3 0.000536 -0.001797 0.025355 0.000000 0.000000 0.000000
# 4 0.000000 0.000000 0.000000 0.102185 0.000000 0.000000
# 5 0.000000 0.000000 0.000000 0.000000 0.217097 0.000000
# 6 0.000000 0.000000 0.000000 0.000000 0.000000 0.036959
#
#
# Mechanical properties :
#
#
# Convention : Reuss Voigt Hill
#
# Bulk Modulus (GPa) = 33.31735 70.56430 51.94083
# Shear Modulus (GPa) = 11.61104 24.92871 18.26988
#
# Velocity S-wave (km/s) = 2.47900 3.63237 3.10963
# Velocity P-wave (km/s) = 5.08212 7.41215 6.35484
#
# Compressibility (1/GPa) = 0.03001439
#
# Stress axis : x y z
#
# Youngs Moduli (GPa) = 87.15547 96.45358 39.44032
#
# Poissons Ratio (x) = 0.70700 -0.02115
# Poissons Ratio (y) = 0.63884 0.07088
# Poissons Ratio (z) = -0.04673 0.17334
#
# Static dielectric constant tensor:
#      x y z
#    x 1.670390 0.000000 0.000000 
#    y 0.000000 1.649790 0.000000 
#    z 0.000000 0.000000 1.637820 
# 
# From -- ./inp_files/56708.got.cif
#   From: 2010.05.17/outbox.cif.g08.bks.cpg/sg63_29_cif.got.tgz:56708.got - 2010.06.03 15:47:04.
