data_PCOD9471005
_publ_section_title
;
Structure prediction by ZEFSAII (Michael W. Deem and Ramdas Pophale) SiO2 
 PCOD9471005
Probable space group: C M C M
;
_chemical_formula_sum "Si O2"
_cell_formula_units_Z 88
_cell_length_a 23.178655
_cell_length_b 16.316169
_cell_length_c 13.839750
_cell_angle_alpha 90.000000
_cell_angle_beta 90.000000
_cell_angle_gamma 90.000000
_cell_volume 5234.011487
_symmetry_space_group_name_H-M "C M C M"
_symmetry_group_IT_number 63
_symmetry_cell_setting 'orthorhombic'
loop_
_space_group_symop_operation_xyz
x,y,z
-x,-y,1/2+z
x,-y,-z
-x,y,1/2-z
-x,-y,-z
x,y,1/2-z
-x,y,z
x,-y,1/2+z
1/2+x,1/2+y,z
1/2-x,1/2-y,1/2+z
1/2+x,1/2-y,-z
1/2-x,1/2+y,1/2-z
1/2-x,1/2-y,-z
1/2+x,1/2+y,1/2-z
1/2-x,1/2+y,z
1/2+x,1/2-y,1/2+z
loop_
_atom_site_type_symbol
_atom_site_label
_atom_site_fract_x
_atom_site_fract_y
_atom_site_fract_z
Si Si1 0.837948 0.500000 0.500000
Si Si2 0.432537 0.297876 0.637359
Si Si3 0.278966 0.309058 0.136315
Si Si4 0.763627 0.382939 0.862890
Si Si5 0.350206 0.594999 0.024346
Si Si6 0.854422 0.637545 0.862322
O O1 0.798632 0.446660 0.572367
O O2 0.871301 0.564815 0.565945
O O3 0.424814 0.323097 0.750000
O O4 0.500000 0.280795 0.622972
O O5 0.408398 0.364869 0.563601
O O6 0.393546 0.217190 0.622834
O O7 0.291707 0.321848 0.250000
O O8 0.280518 0.211555 0.116733
O O9 0.213034 0.339526 0.120283
O O10 0.322024 0.357316 0.066556
O O11 0.772785 0.398754 0.750000
O O12 0.696950 0.393140 0.890848
O O13 0.356121 0.500000 0.000000
O O14 0.859326 0.613132 0.750000
#
# Coordination Sequence:
#
# PCOD9471005 Si02
#       6
#     8  16  16  16  16  16
#     4  12  20  30  49  82 113 140 160 214 268 328
#     4  10  22  40  59  75  97 139 188 226 258 300
#     4  10  20  34  53  79 112 145 175 206 259 325
#     4  11  20  31  48  76 113 145 171 205 257 320
#     4  12  21  33  54  81 111 137 169 218 271 318
#     4  10  19  34  54  77 108 141 176 216 257 311
#
# _framework density 16.813108
#
# number of rings (size 3 to 8) (size 9 to 14) (size 15 to 20)
#    0.000    1.273    4.545    2.727    0.000    3.273 
#    0.000    0.455    0.000    0.545    0.000    0.000 
#    0.000    0.000    0.000    0.000    0.000    0.000 
#
# Total GULP energy -245756.977310 kJ/mol
# GULP energy per Si atom -5585.385848 kJ/mol
# Density = 1.677484 g / cm^3
# Si number density = 16.813108 Si / 1000 Ang^3
#
#
#
# Elastic Constant Matrix: (Units=GPa)
#
#
# Indices 1 2 3 4 5 6 
#
# 1 59.7519 29.6108 33.2241 0.0000 0.0000 0.0000
# 2 29.6108 109.6598 71.5211 0.0000 0.0000 0.0000
# 3 33.2241 71.5211 107.2162 0.0000 0.0000 0.0000
# 4 0.0000 0.0000 0.0000 31.5300 0.0000 0.0000
# 5 0.0000 0.0000 0.0000 0.0000 17.9704 0.0000
# 6 0.0000 0.0000 0.0000 0.0000 0.0000 2.3889
#
#
#
# Elastic Compliance Matrix: (Units=1/GPa)
#
#
# Indices 1 2 3 4 5 6 
#
# 1 0.020593 -0.002476 -0.004730 0.000000 0.000000 0.000000
# 2 -0.002476 0.016440 -0.010199 0.000000 0.000000 0.000000
# 3 -0.004730 -0.010199 0.017596 0.000000 0.000000 0.000000
# 4 0.000000 0.000000 0.000000 0.031716 0.000000 0.000000
# 5 0.000000 0.000000 0.000000 0.000000 0.055647 0.000000
# 6 0.000000 0.000000 0.000000 0.000000 0.000000 0.418607
#
#
# Mechanical properties :
#
#
# Convention : Reuss Voigt Hill
#
# Bulk Modulus (GPa) = 50.45644 60.59332 55.52488
# Shear Modulus (GPa) = 8.30545 19.86265 14.08405
#
# Velocity S-wave (km/s) = 2.22499 3.44085 2.89741
# Velocity P-wave (km/s) = 6.05608 7.20441 6.65506
#
# Compressibility (1/GPa) = 0.01981907
#
# Stress axis : x y z
#
# Youngs Moduli (GPa) = 48.56102 60.82835 56.83014
#
# Poissons Ratio (x) = 0.15059 0.26879
# Poissons Ratio (y) = 0.12022 0.57963
# Poissons Ratio (z) = 0.22968 0.62041
#
# Static dielectric constant tensor:
#      x y z
#    x 1.539950 0.000000 0.000000 
#    y 0.000000 1.578490 0.000000 
#    z 0.000000 0.000000 1.585700 
# 
# From -- ./inp_files/35235.got.cif
#   From: 2010.05.17/outbox.cif.g08.bks.cpg/sg63_18_cif.got.tgz:35235.got - 2010.06.03 15:47:04.
