data_PCOD9471395
_publ_section_title
;
Structure prediction by ZEFSAII (Michael W. Deem and Ramdas Pophale) SiO2 
 PCOD9471395
Probable space group: C M C M
;
_chemical_formula_sum "Si O2"
_cell_formula_units_Z 52
_cell_length_a 16.301385
_cell_length_b 30.350821
_cell_length_c 5.262383
_cell_angle_alpha 90.000000
_cell_angle_beta 90.000000
_cell_angle_gamma 90.000000
_cell_volume 2603.618814
_symmetry_space_group_name_H-M "C M C M"
_symmetry_group_IT_number 63
_symmetry_cell_setting 'orthorhombic'
loop_
_space_group_symop_operation_xyz
x,y,z
-x,-y,1/2+z
x,-y,-z
-x,y,1/2-z
-x,-y,-z
x,y,1/2-z
-x,y,z
x,-y,1/2+z
1/2+x,1/2+y,z
1/2-x,1/2-y,1/2+z
1/2+x,1/2-y,-z
1/2-x,1/2+y,1/2-z
1/2-x,1/2-y,-z
1/2+x,1/2+y,1/2-z
1/2-x,1/2+y,z
1/2+x,1/2-y,1/2+z
loop_
_atom_site_type_symbol
_atom_site_label
_atom_site_fract_x
_atom_site_fract_y
_atom_site_fract_z
Si Si1 0.406971 0.800668 0.750000
Si Si2 0.500000 0.969525 0.250000
Si Si3 0.092642 0.239726 0.250000
Si Si4 0.309943 0.393837 0.250000
Si Si5 0.675085 0.030562 0.750000
Si Si6 0.725007 0.337710 0.750000
Si Si7 0.403667 0.476394 0.250000
O O1 0.500000 0.821244 0.750000
O O2 0.402402 0.770150 0.499678
O O3 0.323403 0.829261 0.750000
O O4 0.413741 0.945447 0.250000
O O5 0.500000 0.000000 0.500000
O O6 0.168561 0.206059 0.250000
O O7 0.000000 0.219111 0.250000
O O8 0.242246 0.432169 0.250000
O O9 0.299358 0.364755 0.499407
O O10 0.390617 0.424176 0.250000
O O11 0.679573 0.000000 0.500000
O O12 0.368580 0.500000 0.500000
O O13 0.500000 0.485466 0.250000
#
# Coordination Sequence:
#
# PCOD9471395 Si02
#       7
#     8   4   8   8   8   8   8
#     4  10  21  41  64  86 112 153 197 231 276 344
#     4   8  16  30  52  74  92 126 182 238 266 302
#     4  10  21  39  66  87 110 151 194 234 280 343
#     4  12  24  36  55  86 120 153 184 234 299 341
#     4  10  19  36  56  75 103 144 195 231 267 325
#     4  12  24  38  56  90 124 148 187 235 300 342
#     4  10  21  39  61  83 111 156 206 244 283 340
#
# _framework density 19.972203
#
# number of rings (size 3 to 8) (size 9 to 14) (size 15 to 20)
#    0.000    1.538    0.000    5.538    0.000    1.231 
#    2.769    0.000    0.000    0.000    0.000    0.000 
#    0.000    0.000    0.000    0.000    0.000    0.000 
#
# Total GULP energy -145083.360118 kJ/mol
# GULP energy per Si atom -5580.129235 kJ/mol
# Density = 1.992675 g / cm^3
# Si number density = 19.972203 Si / 1000 Ang^3
#
#
#
# Elastic Constant Matrix: (Units=GPa)
#
#
# Indices 1 2 3 4 5 6 
#
# 1 71.6255 3.5574 18.6926 0.0000 0.0000 0.0000
# 2 3.5574 43.6420 46.3984 0.0000 0.0000 0.0000
# 3 18.6926 46.3984 196.8597 0.0000 0.0000 0.0000
# 4 0.0000 0.0000 0.0000 41.0469 0.0000 0.0000
# 5 0.0000 0.0000 0.0000 0.0000 27.3033 0.0000
# 6 0.0000 0.0000 0.0000 0.0000 0.0000 7.6401
#
#
#
# Elastic Compliance Matrix: (Units=1/GPa)
#
#
# Indices 1 2 3 4 5 6 
#
# 1 0.014321 0.000371 -0.001447 0.000000 0.000000 0.000000
# 2 0.000371 0.030585 -0.007244 0.000000 0.000000 0.000000
# 3 -0.001447 -0.007244 0.006925 0.000000 0.000000 0.000000
# 4 0.000000 0.000000 0.000000 0.024362 0.000000 0.000000
# 5 0.000000 0.000000 0.000000 0.000000 0.036626 0.000000
# 6 0.000000 0.000000 0.000000 0.000000 0.000000 0.130888
#
#
# Mechanical properties :
#
#
# Convention : Reuss Voigt Hill
#
# Bulk Modulus (GPa) = 28.41675 49.93600 39.17638
# Shear Modulus (GPa) = 18.37722 31.42999 24.90360
#
# Velocity S-wave (km/s) = 3.03667 3.97128 3.53500
# Velocity P-wave (km/s) = 5.15308 6.78860 6.02658
#
# Compressibility (1/GPa) = 0.03519051
#
# Stress axis : x y z
#
# Youngs Moduli (GPa) = 69.82855 32.69593 144.41419
#
# Poissons Ratio (x) = -0.01214 0.20902
# Poissons Ratio (y) = -0.02594 1.04612
# Poissons Ratio (z) = 0.10107 0.23685
#
# Static dielectric constant tensor:
#      x y z
#    x 1.778480 0.000000 0.000000 
#    y 0.000000 1.665710 0.000000 
#    z 0.000000 0.000000 1.672600 
# 
# From -- ./inp_files/794.got.cif
#   From: 2010.05.17/outbox.cif.g08.bks.cpg/sg63_1_cif.got.tgz:794.got - 2010.06.03 15:47:04.
