data_PCOD9471159
_publ_section_title
;
Structure prediction by ZEFSAII (Michael W. Deem and Ramdas Pophale) SiO2 
 PCOD9471159
Probable space group: C M C M
;
_chemical_formula_sum "Si O2"
_cell_formula_units_Z 112
_cell_length_a 16.671625
_cell_length_b 22.399508
_cell_length_c 14.668762
_cell_angle_alpha 90.000000
_cell_angle_beta 90.000000
_cell_angle_gamma 90.000000
_cell_volume 5477.846704
_symmetry_space_group_name_H-M "C M C M"
_symmetry_group_IT_number 63
_symmetry_cell_setting 'orthorhombic'
loop_
_space_group_symop_operation_xyz
x,y,z
-x,-y,1/2+z
x,-y,-z
-x,y,1/2-z
-x,-y,-z
x,y,1/2-z
-x,y,z
x,-y,1/2+z
1/2+x,1/2+y,z
1/2-x,1/2-y,1/2+z
1/2+x,1/2-y,-z
1/2-x,1/2+y,1/2-z
1/2-x,1/2-y,-z
1/2+x,1/2+y,1/2-z
1/2-x,1/2+y,z
1/2+x,1/2-y,1/2+z
loop_
_atom_site_type_symbol
_atom_site_label
_atom_site_fract_x
_atom_site_fract_y
_atom_site_fract_z
Si Si1 0.909228 0.594539 0.457617
Si Si2 0.773520 0.214660 0.853152
Si Si3 0.380762 0.283654 0.646975
Si Si4 0.239281 0.531334 0.356772
Si Si5 0.088618 0.076678 0.140612
Si Si6 0.167872 0.402874 0.145953
Si Si7 0.414004 0.765996 0.539912
O O1 0.835583 0.560614 0.409858
O O2 0.896693 0.589562 0.566465
O O3 0.901788 0.664973 0.435564
O O4 0.000000 0.574927 0.432757
O O5 0.804496 0.209413 0.750000
O O6 0.714405 0.271579 0.856882
O O7 0.719797 0.156588 0.871885
O O8 0.843804 0.225008 0.923086
O O9 0.405599 0.268052 0.750000
O O10 0.403078 0.351903 0.629047
O O11 0.415165 0.242003 0.568751
O O12 0.235129 0.550389 0.250000
O O13 0.327773 0.548357 0.393305
O O14 0.225238 0.460494 0.359398
O O15 0.087437 0.065516 0.250000
O O16 0.000000 0.058228 0.105134
O O17 0.136631 0.399172 0.250000
O O18 0.500000 0.746774 0.577085
#
# Coordination Sequence:
#
# PCOD9471159 Si02
#       7
#    16  16  16  16  16  16  16
#     4  11  24  40  61  89 119 157 203 250 300 351
#     4  10  21  38  60  84 114 155 198 240 291 354
#     4  10  19  34  58  85 115 152 193 240 293 348
#     4  10  22  40  62  88 119 158 200 245 300 352
#     4   9  18  33  56  87 117 147 189 240 293 350
#     4  10  22  41  62  84 114 156 202 247 295 350
#     4  11  23  36  56  87 121 156 192 240 300 358
#
# _framework density 20.445989999999998
#
# number of rings (size 3 to 8) (size 9 to 14) (size 15 to 20)
#    0.000    1.857    1.429    2.143    2.000    4.571 
#    0.000    5.000    0.000    4.286    0.000    0.000 
#    0.000    0.000    0.000    0.000    0.000    0.000 
#
# Total GULP energy -312521.624736 kJ/mol
# GULP energy per Si atom -5580.743299 kJ/mol
# Density = 2.039945 g / cm^3
# Si number density = 20.445990 Si / 1000 Ang^3
#
#
#
# Elastic Constant Matrix: (Units=GPa)
#
#
# Indices 1 2 3 4 5 6 
#
# 1 141.5847 27.0115 54.2446 0.0000 0.0000 0.0000
# 2 27.0115 32.5405 17.4692 0.0000 0.0000 0.0000
# 3 54.2446 17.4692 57.3640 0.0000 0.0000 0.0000
# 4 0.0000 0.0000 0.0000 24.5094 0.0000 0.0000
# 5 0.0000 0.0000 0.0000 0.0000 -2.4749 0.0000
# 6 0.0000 0.0000 0.0000 0.0000 0.0000 -0.1011
#
#
#
# Elastic Compliance Matrix: (Units=1/GPa)
#
#
# Indices 1 2 3 4 5 6 
#
# 1 0.011595 -0.004469 -0.009603 0.000000 0.000000 0.000000
# 2 -0.004469 0.038460 -0.007486 0.000000 0.000000 0.000000
# 3 -0.009603 -0.007486 0.028793 0.000000 0.000000 0.000000
# 4 0.000000 0.000000 0.000000 0.040801 0.000000 0.000000
# 5 0.000000 0.000000 0.000000 0.000000 -0.404049 0.000000
# 6 0.000000 0.000000 0.000000 0.000000 0.000000 -9.890078
#
#
# Mechanical properties :
#
#
# Convention : Reuss Voigt Hill
#
# Bulk Modulus (GPa) = 27.98711 47.65999 37.82355
# Shear Modulus (GPa) = -0.49410 13.23758 6.37174
#
# Velocity S-wave (km/s) = -0.49212 2.54725 1.76724
# Velocity P-wave (km/s) = 3.65993 5.65792 4.76483
#
# Compressibility (1/GPa) = 0.03573073
#
# Stress axis : x y z
#
# Youngs Moduli (GPa) = 86.24561 26.00126 34.73029
#
# Poissons Ratio (x) = 0.11621 0.33352
# Poissons Ratio (y) = 0.38545 0.25999
# Poissons Ratio (z) = 0.82824 0.19465
#
# Static dielectric constant tensor:
#      x y z
#    x 1.765470 0.000000 0.000000 
#    y 0.000000 1.709250 0.000000 
#    z 0.000000 0.000000 1.748790 
# 
# From -- ./inp_files/32343.got.cif
#   From: 2010.05.17/outbox.cif.g08.bks.cpg/sg63_17_cif.got.tgz:32343.got - 2010.06.03 15:47:04.
