data_PCOD9471035
_publ_section_title
;
Structure prediction by ZEFSAII (Michael W. Deem and Ramdas Pophale) SiO2 
 PCOD9471035
Probable space group: C M C M
;
_chemical_formula_sum "Si O2"
_cell_formula_units_Z 96
_cell_length_a 7.441301
_cell_length_b 25.261538
_cell_length_c 22.566499
_cell_angle_alpha 90.000000
_cell_angle_beta 90.000000
_cell_angle_gamma 90.000000
_cell_volume 4242.021326
_symmetry_space_group_name_H-M "C M C M"
_symmetry_group_IT_number 63
_symmetry_cell_setting 'orthorhombic'
loop_
_space_group_symop_operation_xyz
x,y,z
-x,-y,1/2+z
x,-y,-z
-x,y,1/2-z
-x,-y,-z
x,y,1/2-z
-x,y,z
x,-y,1/2+z
1/2+x,1/2+y,z
1/2-x,1/2-y,1/2+z
1/2+x,1/2-y,-z
1/2-x,1/2+y,1/2-z
1/2-x,1/2-y,-z
1/2+x,1/2+y,1/2-z
1/2-x,1/2+y,z
1/2+x,1/2-y,1/2+z
loop_
_atom_site_type_symbol
_atom_site_label
_atom_site_fract_x
_atom_site_fract_y
_atom_site_fract_z
Si Si1 0.282380 0.826538 0.849060
Si Si2 0.708828 0.556021 0.184735
Si Si3 0.204129 0.123512 0.904834
Si Si4 0.220281 0.992865 0.431030
Si Si5 0.781542 0.789992 0.315385
Si Si6 0.286667 0.811094 0.516150
O O1 0.500000 0.827582 0.845695
O O2 0.218445 0.880440 0.819932
O O3 0.220893 0.770473 0.822790
O O4 0.227596 0.824217 0.917711
O O5 0.785280 0.540621 0.250000
O O6 0.500000 0.539918 0.186043
O O7 0.779569 0.532661 0.121874
O O8 0.281688 0.065309 0.910238
O O9 0.287719 0.168436 0.863239
O O10 0.000000 0.115675 0.883101
O O11 0.200229 0.149882 0.969238
O O12 0.000000 0.994675 0.433168
O O13 0.277608 0.000000 0.500000
O O14 0.739422 0.809171 0.250000
O O15 0.000000 0.787306 0.321974
O O16 0.500000 0.818808 0.513195
O O17 0.250000 0.750000 0.500000
#
# Coordination Sequence:
#
# PCOD9471035 Si02
#       6
#    16  16  16  16  16  16
#     4  10  20  35  54  77 107 143 182 222 269 331
#     4  10  21  36  55  83 114 145 188 237 281 327
#     4  10  19  34  55  79 107 141 181 222 272 325
#     4   9  18  33  54  78 107 144 182 223 274 328
#     4   9  17  30  49  74 103 135 174 217 261 318
#     4  11  21  34  54  81 111 141 177 223 274 331
#
# _framework density 22.63072
#
# number of rings (size 3 to 8) (size 9 to 14) (size 15 to 20)
#    0.000    2.167    1.667    2.000    0.000    4.333 
#    0.000    4.167    0.000    3.500    0.000    0.000 
#    0.000    0.000    0.000    0.000    0.000    0.000 
#
# Total GULP energy -267976.108456 kJ/mol
# GULP energy per Si atom -5582.835593 kJ/mol
# Density = 2.257921 g / cm^3
# Si number density = 22.630720 Si / 1000 Ang^3
#
#
#
# Elastic Constant Matrix: (Units=GPa)
#
#
# Indices 1 2 3 4 5 6 
#
# 1 69.4765 -2.4415 7.2443 0.0000 0.0000 0.0000
# 2 -2.4415 132.3742 61.2664 0.0000 0.0000 0.0000
# 3 7.2443 61.2664 169.8327 0.0000 0.0000 0.0000
# 4 0.0000 0.0000 0.0000 10.6788 0.0000 0.0000
# 5 0.0000 0.0000 0.0000 0.0000 2.4985 0.0000
# 6 0.0000 0.0000 0.0000 0.0000 0.0000 3.3035
#
#
#
# Elastic Compliance Matrix: (Units=1/GPa)
#
#
# Indices 1 2 3 4 5 6 
#
# 1 0.014506 0.000665 -0.000859 0.000000 0.000000 0.000000
# 2 0.000665 0.009099 -0.003311 0.000000 0.000000 0.000000
# 3 -0.000859 -0.003311 0.007119 0.000000 0.000000 0.000000
# 4 0.000000 0.000000 0.000000 0.093643 0.000000 0.000000
# 5 0.000000 0.000000 0.000000 0.000000 0.400238 0.000000
# 6 0.000000 0.000000 0.000000 0.000000 0.000000 0.302707
#
#
# Mechanical properties :
#
#
# Convention : Reuss Voigt Hill
#
# Bulk Modulus (GPa) = 42.16674 55.98021 49.07348
# Shear Modulus (GPa) = 5.93665 23.67045 14.80355
#
# Velocity S-wave (km/s) = 1.62141 3.23761 2.56038
# Velocity P-wave (km/s) = 4.70938 6.22626 5.52017
#
# Compressibility (1/GPa) = 0.02371537
#
# Stress axis : x y z
#
# Youngs Moduli (GPa) = 68.93580 109.90317 140.46685
#
# Poissons Ratio (x) = -0.07308 0.12061
# Poissons Ratio (y) = -0.04584 0.46505
# Poissons Ratio (z) = 0.05919 0.36386
#
# Static dielectric constant tensor:
#      x y z
#    x 1.691150 0.000000 0.000000 
#    y 0.000000 1.804390 0.000000 
#    z 0.000000 0.000000 1.844190 
# 
# From -- ./inp_files/51418.got.cif
#   From: 2010.05.17/outbox.cif.g08.bks.cpg/sg63_26_cif.got.tgz:51418.got - 2010.06.03 15:47:04.
