data_PCOD9471510
_publ_section_title
;
Structure prediction by ZEFSAII (Michael W. Deem and Ramdas Pophale) SiO2 
 PCOD9471510
Probable space group: C M C M
;
_chemical_formula_sum "Si O2"
_cell_formula_units_Z 72
_cell_length_a 16.581266
_cell_length_b 23.491914
_cell_length_c 10.368459
_cell_angle_alpha 90.000000
_cell_angle_beta 90.000000
_cell_angle_gamma 90.000000
_cell_volume 4038.780989
_symmetry_space_group_name_H-M "C M C M"
_symmetry_group_IT_number 63
_symmetry_cell_setting 'orthorhombic'
loop_
_space_group_symop_operation_xyz
x,y,z
-x,-y,1/2+z
x,-y,-z
-x,y,1/2-z
-x,-y,-z
x,y,1/2-z
-x,y,z
x,-y,1/2+z
1/2+x,1/2+y,z
1/2-x,1/2-y,1/2+z
1/2+x,1/2-y,-z
1/2-x,1/2+y,1/2-z
1/2-x,1/2-y,-z
1/2+x,1/2+y,1/2-z
1/2-x,1/2+y,z
1/2+x,1/2-y,1/2+z
loop_
_atom_site_type_symbol
_atom_site_label
_atom_site_fract_x
_atom_site_fract_y
_atom_site_fract_z
Si Si1 0.404136 0.564687 0.750000
Si Si2 0.094650 0.236351 0.595737
Si Si3 0.348366 0.135208 0.402855
Si Si4 0.500000 0.947964 0.901321
Si Si5 0.825860 0.875478 0.003228
Si Si6 0.094825 0.071599 0.250000
O O1 0.500000 0.578786 0.750000
O O2 0.361698 0.590948 0.624933
O O3 0.395852 0.496629 0.750000
O O4 0.104064 0.226978 0.750000
O O5 0.121165 0.300907 0.568974
O O6 0.147039 0.189894 0.521454
O O7 0.000000 0.229036 0.565567
O O8 0.326705 0.133553 0.250000
O O9 0.421337 0.091331 0.421882
O O10 0.270098 0.121028 0.486474
O O11 0.500000 0.965835 0.750000
O O12 0.500000 0.000000 0.000000
O O13 0.865289 0.901922 0.876152
O O14 0.000000 0.084252 0.250000
#
# Coordination Sequence:
#
# PCOD9471510 Si02
#       6
#     8  16  16   8  16   8
#     4  11  24  42  61  89 123 169 212 249 306 375
#     4  10  19  36  65  91 122 160 208 254 309 373
#     4  10  21  41  63  94 125 162 207 258 312 372
#     4  10  22  44  70  92 126 172 211 255 310 372
#     4  12  22  39  63  94 122 159 216 255 308 370
#     4  11  24  40  59  85 131 165 198 259 312 365
#
# _framework density 17.827159999999999
#
# number of rings (size 3 to 8) (size 9 to 14) (size 15 to 20)
#    0.000    1.333    3.333    3.333    0.000    3.556 
#    2.000    0.000    0.000    0.000    0.000    0.000 
#    0.000    0.000    0.000    0.000    0.000    0.000 
#
# Total GULP energy -201178.010114 kJ/mol
# GULP energy per Si atom -5588.278059 kJ/mol
# Density = 1.778658 g / cm^3
# Si number density = 17.827160 Si / 1000 Ang^3
#
#
#
# Elastic Constant Matrix: (Units=GPa)
#
#
# Indices 1 2 3 4 5 6 
#
# 1 154.6404 69.0112 72.4245 0.0000 0.0000 0.0000
# 2 69.0112 118.0774 68.1657 0.0000 0.0000 0.0000
# 3 72.4245 68.1657 119.4240 0.0000 0.0000 0.0000
# 4 0.0000 0.0000 0.0000 29.8106 0.0000 0.0000
# 5 0.0000 0.0000 0.0000 0.0000 33.8598 0.0000
# 6 0.0000 0.0000 0.0000 0.0000 0.0000 -9.7341
#
#
#
# Elastic Compliance Matrix: (Units=1/GPa)
#
#
# Indices 1 2 3 4 5 6 
#
# 1 0.009896 -0.003459 -0.004027 0.000000 0.000000 0.000000
# 2 -0.003459 0.013840 -0.005802 0.000000 0.000000 0.000000
# 3 -0.004027 -0.005802 0.014128 0.000000 0.000000 0.000000
# 4 0.000000 0.000000 0.000000 0.033545 0.000000 0.000000
# 5 0.000000 0.000000 0.000000 0.000000 0.029534 0.000000
# 6 0.000000 0.000000 0.000000 0.000000 0.000000 -0.102731
#
#
# Mechanical properties :
#
#
# Convention : Reuss Voigt Hill
#
# Bulk Modulus (GPa) = 88.59438 90.14942 89.37190
# Shear Modulus (GPa) = 175.12578 22.95661 99.04120
#
# Velocity S-wave (km/s) = 9.92213 3.59239 7.46170
# Velocity P-wave (km/s) = 13.45619 8.23926 11.15694
#
# Compressibility (1/GPa) = 0.01128740
#
# Stress axis : x y z
#
# Youngs Moduli (GPa) = 101.04637 72.25307 70.78345
#
# Poissons Ratio (x) = 0.24993 0.28506
# Poissons Ratio (y) = 0.34953 0.41069
# Poissons Ratio (z) = 0.40694 0.41922
#
# Static dielectric constant tensor:
#      x y z
#    x 1.590910 0.000000 0.000000 
#    y 0.000000 1.595580 0.000000 
#    z 0.000000 0.000000 1.593640 
# 
# From -- ./inp_files/6181.got.cif
#   From: 2010.05.17/outbox.cif.g08.bks.cpg/sg63_4_cif.got.tgz:6181.got - 2010.06.03 15:47:04.
