data_PCOD9471150
_publ_section_title
;
Structure prediction by ZEFSAII (Michael W. Deem and Ramdas Pophale) SiO2 
 PCOD9471150
Probable space group: C M C M
;
_chemical_formula_sum "Si O2"
_cell_formula_units_Z 64
_cell_length_a 8.733097
_cell_length_b 18.790824
_cell_length_c 21.491396
_cell_angle_alpha 90.000000
_cell_angle_beta 90.000000
_cell_angle_gamma 90.000000
_cell_volume 3526.782973
_symmetry_space_group_name_H-M "C M C M"
_symmetry_group_IT_number 63
_symmetry_cell_setting 'orthorhombic'
loop_
_space_group_symop_operation_xyz
x,y,z
-x,-y,1/2+z
x,-y,-z
-x,y,1/2-z
-x,-y,-z
x,y,1/2-z
-x,y,z
x,-y,1/2+z
1/2+x,1/2+y,z
1/2-x,1/2-y,1/2+z
1/2+x,1/2-y,-z
1/2-x,1/2+y,1/2-z
1/2-x,1/2-y,-z
1/2+x,1/2+y,1/2-z
1/2-x,1/2+y,z
1/2+x,1/2-y,1/2+z
loop_
_atom_site_type_symbol
_atom_site_label
_atom_site_fract_x
_atom_site_fract_y
_atom_site_fract_z
Si Si1 0.314853 0.580466 0.114519
Si Si2 0.176532 0.915009 0.250000
Si Si3 0.316986 0.922122 0.119458
Si Si4 0.816378 0.328960 0.501037
Si Si5 0.176783 0.911804 0.750000
O O1 0.500000 0.580513 0.115044
O O2 0.258032 0.499304 0.107836
O O3 0.258119 0.608027 0.182559
O O4 0.252323 0.627532 0.058740
O O5 0.258368 0.893936 0.186065
O O6 0.000000 0.892474 0.250000
O O7 0.178060 0.001743 0.250000
O O8 0.500000 0.930871 0.121814
O O9 0.277583 0.870039 0.062884
O O10 0.750000 0.250000 0.500000
O O11 0.000000 0.327077 0.506224
O O12 0.000000 0.888012 0.750000
#
# Coordination Sequence:
#
# PCOD9471150 Si02
#       5
#    16   8  16  16   8
#     4  10  19  34  58  84 110 142 180 222 268 321
#     4   9  17  31  54  83 110 137 175 221 267 319
#     4  10  20  35  56  82 111 142 178 222 270 321
#     4  11  24  39  54  76 108 145 185 227 272 323
#     4   7  14  29  50  79 108 133 167 211 259 311
#
# _framework density 18.146850000000001
#
# number of rings (size 3 to 8) (size 9 to 14) (size 15 to 20)
#    0.000    2.250    0.000    4.875    0.000    7.000 
#    0.000    3.125    0.000    3.000    0.000    0.000 
#    0.000    0.000    0.000    0.000    0.000    0.000 
#
# Total GULP energy -178513.648304 kJ/mol
# GULP energy per Si atom -5578.551509 kJ/mol
# Density = 1.810555 g / cm^3
# Si number density = 18.146850 Si / 1000 Ang^3
#
#
#
# Elastic Constant Matrix: (Units=GPa)
#
#
# Indices 1 2 3 4 5 6 
#
# 1 65.7698 43.2442 75.2452 0.0000 0.0000 0.0000
# 2 43.2442 88.5918 95.2115 0.0000 0.0000 0.0000
# 3 75.2452 95.2115 226.0441 0.0000 0.0000 0.0000
# 4 0.0000 0.0000 0.0000 -6.9457 0.0000 0.0000
# 5 0.0000 0.0000 0.0000 0.0000 34.7069 0.0000
# 6 0.0000 0.0000 0.0000 0.0000 0.0000 25.6671
#
#
#
# Elastic Compliance Matrix: (Units=1/GPa)
#
#
# Indices 1 2 3 4 5 6 
#
# 1 0.026336 -0.006273 -0.006124 0.000000 0.000000 0.000000
# 2 -0.006273 0.022118 -0.007228 0.000000 0.000000 0.000000
# 3 -0.006124 -0.007228 0.009507 0.000000 0.000000 0.000000
# 4 0.000000 0.000000 0.000000 -0.143975 0.000000 0.000000
# 5 0.000000 0.000000 0.000000 0.000000 0.028813 0.000000
# 6 0.000000 0.000000 0.000000 0.000000 0.000000 0.038960
#
#
# Mechanical properties :
#
#
# Convention : Reuss Voigt Hill
#
# Bulk Modulus (GPa) = 53.44838 89.75639 71.60239
# Shear Modulus (GPa) = 183.50300 21.79931 102.65115
#
# Velocity S-wave (km/s) = 10.06681 3.46970 7.52926
# Velocity P-wave (km/s) = 12.83114 8.10063 10.72983
#
# Compressibility (1/GPa) = 0.01870964
#
# Stress axis : x y z
#
# Youngs Moduli (GPa) = 37.97083 45.21193 105.18533
#
# Poissons Ratio (x) = 0.28364 0.64418
# Poissons Ratio (y) = 0.23821 0.76028
# Poissons Ratio (z) = 0.23254 0.32679
#
# Static dielectric constant tensor:
#      x y z
#    x 1.619560 0.000000 0.000000 
#    y 0.000000 1.578680 0.000000 
#    z 0.000000 0.000000 1.650220 
# 
# From -- ./inp_files/50371.got.cif
#   From: 2010.05.17/outbox.cif.g08.bks.cpg/sg63_26_cif.got.tgz:50371.got - 2010.06.03 15:47:04.
