data_PCOD9471001
_publ_section_title
;
Structure prediction by ZEFSAII (Michael W. Deem and Ramdas Pophale) SiO2 
 PCOD9471001
Probable space group: C M C M
;
_chemical_formula_sum "Si O2"
_cell_formula_units_Z 88
_cell_length_a 12.879096
_cell_length_b 27.241651
_cell_length_c 15.554378
_cell_angle_alpha 90.000000
_cell_angle_beta 90.000000
_cell_angle_gamma 90.000000
_cell_volume 5457.219899
_symmetry_space_group_name_H-M "C M C M"
_symmetry_group_IT_number 63
_symmetry_cell_setting 'orthorhombic'
loop_
_space_group_symop_operation_xyz
x,y,z
-x,-y,1/2+z
x,-y,-z
-x,y,1/2-z
-x,-y,-z
x,y,1/2-z
-x,y,z
x,-y,1/2+z
1/2+x,1/2+y,z
1/2-x,1/2-y,1/2+z
1/2+x,1/2-y,-z
1/2-x,1/2+y,1/2-z
1/2-x,1/2-y,-z
1/2+x,1/2+y,1/2-z
1/2-x,1/2+y,z
1/2+x,1/2-y,1/2+z
loop_
_atom_site_type_symbol
_atom_site_label
_atom_site_fract_x
_atom_site_fract_y
_atom_site_fract_z
Si Si1 0.251758 0.002190 0.250000
Si Si2 0.123638 0.903233 0.250000
Si Si3 0.124226 0.272441 0.148379
Si Si4 0.876540 0.165763 0.420837
Si Si5 0.876868 0.467532 0.085342
Si Si6 0.750006 0.366789 0.413514
Si Si7 0.622147 0.601356 0.250000
O O1 0.195070 0.054159 0.250000
O O2 0.165489 0.959106 0.250000
O O3 0.322406 0.993802 0.166095
O O4 0.172318 0.878210 0.334623
O O5 0.000000 0.901015 0.250000
O O6 0.147128 0.267285 0.250000
O O7 0.152538 0.222005 0.100338
O O8 0.182562 0.319366 0.111261
O O9 0.000000 0.278839 0.140425
O O10 0.812999 0.144173 0.499991
O O11 0.859746 0.134050 0.334676
O O12 0.000000 0.164523 0.439398
O O13 0.823171 0.414421 0.076174
O O14 0.000000 0.462026 0.100086
O O15 0.861268 0.500000 0.000000
O O16 0.500000 0.587076 0.250000
#
# Coordination Sequence:
#
# PCOD9471001 Si02
#       7
#     8   8  16  16  16  16   8
#     4  10  20  34  54  76 100 136 172 210 258 310
#     4  10  21  34  48  73 107 134 168 211 255 305
#     4  10  19  34  54  79 106 134 174 220 261 306
#     4  10  20  34  54  78 106 137 173 215 262 313
#     4  10  21  36  53  77 106 135 173 218 259 304
#     4  11  20  34  54  78 103 141 176 210 261 311
#     4  10  19  34  54  77 103 136 174 215 261 311
#
# _framework density 16.125426000000001
#
# number of rings (size 3 to 8) (size 9 to 14) (size 15 to 20)
#    0.000    1.818    1.818    3.273    0.000    0.000 
#    0.000    0.000    0.000    8.727    0.000    2.545 
#    0.000    0.000    0.000    0.000    0.000    0.000 
#
# Total GULP energy -245634.555333 kJ/mol
# GULP energy per Si atom -5582.603530 kJ/mol
# Density = 1.608872 g / cm^3
# Si number density = 16.125426 Si / 1000 Ang^3
#
#
#
# Elastic Constant Matrix: (Units=GPa)
#
#
# Indices 1 2 3 4 5 6 
#
# 1 109.8064 87.9110 78.6228 0.0000 0.0000 0.0000
# 2 87.9110 142.6806 72.7185 0.0000 0.0000 0.0000
# 3 78.6228 72.7185 127.3805 0.0000 0.0000 0.0000
# 4 0.0000 0.0000 0.0000 25.4623 0.0000 0.0000
# 5 0.0000 0.0000 0.0000 0.0000 26.3394 0.0000
# 6 0.0000 0.0000 0.0000 0.0000 0.0000 27.5141
#
#
#
# Elastic Compliance Matrix: (Units=1/GPa)
#
#
# Indices 1 2 3 4 5 6 
#
# 1 0.023267 -0.009896 -0.008712 0.000000 0.000000 0.000000
# 2 -0.009896 0.014093 -0.001938 0.000000 0.000000 0.000000
# 3 -0.008712 -0.001938 0.014334 0.000000 0.000000 0.000000
# 4 0.000000 0.000000 0.000000 0.039274 0.000000 0.000000
# 5 0.000000 0.000000 0.000000 0.000000 0.037966 0.000000
# 6 0.000000 0.000000 0.000000 0.000000 0.000000 0.036345
#
#
# Mechanical properties :
#
#
# Convention : Reuss Voigt Hill
#
# Bulk Modulus (GPa) = 94.30523 95.37468 94.83996
# Shear Modulus (GPa) = 23.82031 25.23752 24.52891
#
# Velocity S-wave (km/s) = 3.84759 3.96040 3.90440
# Velocity P-wave (km/s) = 8.85143 8.95471 8.90322
#
# Compressibility (1/GPa) = 0.01060387
#
# Stress axis : x y z
#
# Youngs Moduli (GPa) = 42.97850 70.95550 69.76446
#
# Poissons Ratio (x) = 0.70216 0.60779
# Poissons Ratio (y) = 0.42531 0.13518
# Poissons Ratio (z) = 0.37443 0.13748
#
# Static dielectric constant tensor:
#      x y z
#    x 1.510270 0.000000 0.000000 
#    y 0.000000 1.515590 0.000000 
#    z 0.000000 0.000000 1.517470 
# 
# From -- ./inp_files/30151.got.cif
#   From: 2010.05.17/outbox.cif.g08.bks.cpg/sg63_16_cif.got.tgz:30151.got - 2010.06.03 15:47:04.
