data_PCOD9471114
_publ_section_title
;
Structure prediction by ZEFSAII (Michael W. Deem and Ramdas Pophale) SiO2 
 PCOD9471114
Probable space group: C M C M
;
_chemical_formula_sum "Si O2"
_cell_formula_units_Z 96
_cell_length_a 8.675251
_cell_length_b 21.196495
_cell_length_c 28.939007
_cell_angle_alpha 90.000000
_cell_angle_beta 90.000000
_cell_angle_gamma 90.000000
_cell_volume 5321.446826
_symmetry_space_group_name_H-M "C M C M"
_symmetry_group_IT_number 63
_symmetry_cell_setting 'orthorhombic'
loop_
_space_group_symop_operation_xyz
x,y,z
-x,-y,1/2+z
x,-y,-z
-x,y,1/2-z
-x,-y,-z
x,y,1/2-z
-x,y,z
x,-y,1/2+z
1/2+x,1/2+y,z
1/2-x,1/2-y,1/2+z
1/2+x,1/2-y,-z
1/2-x,1/2+y,1/2-z
1/2-x,1/2-y,-z
1/2+x,1/2+y,1/2-z
1/2-x,1/2+y,z
1/2+x,1/2-y,1/2+z
loop_
_atom_site_type_symbol
_atom_site_label
_atom_site_fract_x
_atom_site_fract_y
_atom_site_fract_z
Si Si1 0.815667 0.678886 0.447442
Si Si2 0.184411 0.319352 0.446981
Si Si3 0.188171 0.999958 0.196635
Si Si4 0.184518 0.874513 0.642721
Si Si5 0.185864 0.746192 0.196060
Si Si6 0.813834 0.125949 0.856922
O O1 0.773347 0.662851 0.500351
O O2 0.753110 0.749565 0.438274
O O3 0.748535 0.632732 0.408974
O O4 0.000000 0.680468 0.443695
O O5 0.247618 0.365932 0.408141
O O6 0.000000 0.315423 0.444118
O O7 0.239229 0.000515 0.250000
O O8 0.237007 0.062497 0.169207
O O9 0.000000 0.999794 0.197363
O O10 0.236592 0.936840 0.169817
O O11 0.240673 0.813328 0.670719
O O12 0.000000 0.874727 0.641124
O O13 0.227155 0.747070 0.250000
O O14 0.231726 0.811564 0.171686
O O15 0.000000 0.741216 0.192506
O O16 0.000000 0.125171 0.859432
#
# Coordination Sequence:
#
# PCOD9471114 Si02
#       6
#    16  16  16  16  16  16
#     4  10  20  35  55  80 111 146 181 220 274 336
#     4  10  20  34  55  83 112 141 177 226 279 327
#     4   9  19  36  56  79 110 149 188 224 268 322
#     4  11  21  34  55  82 111 144 184 231 276 317
#     4  10  20  33  52  79 108 139 180 228 276 328
#     4  10  19  34  57  81 108 145 185 224 270 325
#
# _framework density 18.040206000000001
#
# number of rings (size 3 to 8) (size 9 to 14) (size 15 to 20)
#    0.000    2.000    1.667    2.500    0.000    5.000 
#    0.000    2.500    0.000    8.500    0.000    0.000 
#    0.000    0.000    0.000    0.000    0.000    0.000 
#
# Total GULP energy -268007.911030 kJ/mol
# GULP energy per Si atom -5583.498146 kJ/mol
# Density = 1.799915 g / cm^3
# Si number density = 18.040206 Si / 1000 Ang^3
#
#
#
# Elastic Constant Matrix: (Units=GPa)
#
#
# Indices 1 2 3 4 5 6 
#
# 1 20.0185 30.3422 36.9686 0.0000 0.0000 0.0000
# 2 30.3422 149.6898 99.1374 0.0000 0.0000 0.0000
# 3 36.9686 99.1374 180.6812 0.0000 0.0000 0.0000
# 4 0.0000 0.0000 0.0000 34.4669 0.0000 0.0000
# 5 0.0000 0.0000 0.0000 0.0000 29.9290 0.0000
# 6 0.0000 0.0000 0.0000 0.0000 0.0000 20.3710
#
#
#
# Elastic Compliance Matrix: (Units=1/GPa)
#
#
# Indices 1 2 3 4 5 6 
#
# 1 0.087774 -0.009264 -0.012876 0.000000 0.000000 0.000000
# 2 -0.009264 0.011472 -0.004399 0.000000 0.000000 0.000000
# 3 -0.012876 -0.004399 0.010583 0.000000 0.000000 0.000000
# 4 0.000000 0.000000 0.000000 0.029013 0.000000 0.000000
# 5 0.000000 0.000000 0.000000 0.000000 0.033412 0.000000
# 6 0.000000 0.000000 0.000000 0.000000 0.000000 0.049089
#
#
# Mechanical properties :
#
#
# Convention : Reuss Voigt Hill
#
# Bulk Modulus (GPa) = 17.62105 75.92065 46.77085
# Shear Modulus (GPa) = 17.04515 29.21612 23.13063
#
# Velocity S-wave (km/s) = 3.07716 4.02867 3.58463
# Velocity P-wave (km/s) = 4.73435 7.98847 6.56619
#
# Compressibility (1/GPa) = 0.05675030
#
# Stress axis : x y z
#
# Youngs Moduli (GPa) = 11.39288 87.17181 94.49382
#
# Poissons Ratio (x) = 0.80758 1.21671
# Poissons Ratio (y) = 0.10555 0.41566
# Poissons Ratio (z) = 0.14670 0.38345
#
# Static dielectric constant tensor:
#      x y z
#    x 1.616520 0.000000 0.000000 
#    y 0.000000 1.587930 0.000000 
#    z 0.000000 0.000000 1.626120 
# 
# From -- ./inp_files/66907.got.cif
#   From: 2010.05.17/outbox.cif.g08.bks.cpg/sg63_34_cif.got.tgz:66907.got - 2010.06.03 15:47:04.
