data_PCOD9471865
_publ_section_title
;
Structure prediction by ZEFSAII (Michael W. Deem and Ramdas Pophale) SiO2 
 PCOD9471865
Probable space group: C M C M
;
_chemical_formula_sum "Si O2"
_cell_formula_units_Z 80
_cell_length_a 18.651408
_cell_length_b 26.888889
_cell_length_c 9.381094
_cell_angle_alpha 90.000000
_cell_angle_beta 90.000000
_cell_angle_gamma 90.000000
_cell_volume 4704.765356
_symmetry_space_group_name_H-M "C M C M"
_symmetry_group_IT_number 63
_symmetry_cell_setting 'orthorhombic'
loop_
_space_group_symop_operation_xyz
x,y,z
-x,-y,1/2+z
x,-y,-z
-x,y,1/2-z
-x,-y,-z
x,y,1/2-z
-x,y,z
x,-y,1/2+z
1/2+x,1/2+y,z
1/2-x,1/2-y,1/2+z
1/2+x,1/2-y,-z
1/2-x,1/2+y,1/2-z
1/2-x,1/2-y,-z
1/2+x,1/2+y,1/2-z
1/2-x,1/2+y,z
1/2+x,1/2-y,1/2+z
loop_
_atom_site_type_symbol
_atom_site_label
_atom_site_fract_x
_atom_site_fract_y
_atom_site_fract_z
Si Si1 0.417648 0.843143 0.923661
Si Si2 0.087354 0.951052 0.585681
Si Si3 0.915177 0.851246 0.080325
Si Si4 0.087513 0.451874 0.585613
Si Si5 0.325406 0.252341 0.078153
O O1 0.418635 0.845056 0.750000
O O2 0.500000 0.836616 0.969892
O O3 0.390477 0.897521 0.970971
O O4 0.370783 0.796212 0.965162
O O5 0.110778 0.952064 0.750000
O O6 0.107676 0.899989 0.506977
O O7 0.000000 0.952019 0.585297
O O8 0.111317 0.000000 0.500000
O O9 0.908123 0.860840 0.250000
O O10 0.869375 0.802508 0.044213
O O11 0.000000 0.842006 0.053250
O O12 0.111843 0.500000 0.500000
O O13 0.109246 0.456500 0.750000
O O14 0.000000 0.451098 0.582849
O O15 0.316512 0.251044 0.250000
O O16 0.250000 0.250000 0.000000
#
# Coordination Sequence:
#
# PCOD9471865 Si02
#       5
#    16  16  16  16  16
#     4   8  14  27  48  70  90 118 157 192 221 264
#     4   9  16  26  43  69  99 126 151 185 231 280
#     4   9  17  30  49  71  93 120 157 198 236 277
#     4   8  13  22  39  64  91 115 141 177 220 263
#     4  10  20  33  49  68  92 122 156 195 238 282
#
# _framework density 17.004035999999999
#
# number of rings (size 3 to 8) (size 9 to 14) (size 15 to 20)
#    0.000    3.200    0.000    2.400    0.000    5.600 
#    0.000    1.000    0.000    4.200    0.000    5.600 
#    0.000    0.000    0.000    0.000    0.000    0.000 
#
# Total GULP energy -222756.890443 kJ/mol
# GULP energy per Si atom -5568.922261 kJ/mol
# Density = 1.696533 g / cm^3
# Si number density = 17.004036 Si / 1000 Ang^3
#
#
#
# Elastic Constant Matrix: (Units=GPa)
#
#
# Indices 1 2 3 4 5 6 
#
# 1 51.5351 70.9063 32.8209 0.0000 0.0000 0.0000
# 2 70.9063 221.3728 82.5921 0.0000 0.0000 0.0000
# 3 32.8209 82.5921 57.2534 0.0000 0.0000 0.0000
# 4 0.0000 0.0000 0.0000 29.0639 0.0000 0.0000
# 5 0.0000 0.0000 0.0000 0.0000 19.5656 0.0000
# 6 0.0000 0.0000 0.0000 0.0000 0.0000 -3.2359
#
#
#
# Elastic Compliance Matrix: (Units=1/GPa)
#
#
# Indices 1 2 3 4 5 6 
#
# 1 0.036643 -0.008445 -0.008823 0.000000 0.000000 0.000000
# 2 -0.008445 0.011728 -0.012078 0.000000 0.000000 0.000000
# 3 -0.008823 -0.012078 0.039948 0.000000 0.000000 0.000000
# 4 0.000000 0.000000 0.000000 0.034407 0.000000 0.000000
# 5 0.000000 0.000000 0.000000 0.000000 0.051110 0.000000
# 6 0.000000 0.000000 0.000000 0.000000 0.000000 -0.309036
#
#
# Mechanical properties :
#
#
# Convention : Reuss Voigt Hill
#
# Bulk Modulus (GPa) = 33.75385 78.08886 55.92135
# Shear Modulus (GPa) = -75.03804 18.66820 -28.18492
#
# Velocity S-wave (km/s) = -6.65021 3.31701 -4.07571
# Velocity P-wave (km/s) = 6.25088 7.79060 3.28785
#
# Compressibility (1/GPa) = 0.02962625
#
# Stress axis : x y z
#
# Youngs Moduli (GPa) = 27.29066 85.26388 25.03284
#
# Poissons Ratio (x) = 0.72003 0.22088
# Poissons Ratio (y) = 0.23046 0.30234
# Poissons Ratio (z) = 0.24080 1.02981
#
# Static dielectric constant tensor:
#      x y z
#    x 1.544450 0.000000 0.000000 
#    y 0.000000 1.585340 0.000000 
#    z 0.000000 0.000000 1.570100 
# 
# From -- ./inp_files/6381.got.cif
#   From: 2010.05.17/outbox.cif.g08.bks.cpg/sg63_4_cif.got.tgz:6381.got - 2010.06.03 15:47:04.
