data_PCOD9471806
_publ_section_title
;
Structure prediction by ZEFSAII (Michael W. Deem and Ramdas Pophale) SiO2 
 PCOD9471806
Probable space group: C M C M
;
_chemical_formula_sum "Si O2"
_cell_formula_units_Z 104
_cell_length_a 9.436831
_cell_length_b 27.281271
_cell_length_c 21.933161
_cell_angle_alpha 90.000000
_cell_angle_beta 90.000000
_cell_angle_gamma 90.000000
_cell_volume 5646.664749
_symmetry_space_group_name_H-M "C M C M"
_symmetry_group_IT_number 63
_symmetry_cell_setting 'orthorhombic'
loop_
_space_group_symop_operation_xyz
x,y,z
-x,-y,1/2+z
x,-y,-z
-x,y,1/2-z
-x,-y,-z
x,y,1/2-z
-x,y,z
x,-y,1/2+z
1/2+x,1/2+y,z
1/2-x,1/2-y,1/2+z
1/2+x,1/2-y,-z
1/2-x,1/2+y,1/2-z
1/2-x,1/2-y,-z
1/2+x,1/2+y,1/2-z
1/2-x,1/2+y,z
1/2+x,1/2-y,1/2+z
loop_
_atom_site_type_symbol
_atom_site_label
_atom_site_fract_x
_atom_site_fract_y
_atom_site_fract_z
Si Si1 0.834765 0.956942 0.321350
Si Si2 0.333502 0.321988 0.477434
Si Si3 0.670059 0.343201 0.677586
Si Si4 0.333366 0.556145 0.117965
Si Si5 0.267788 0.000000 0.500000
Si Si6 0.332697 0.776410 0.908080
Si Si7 0.658624 0.908906 0.077929
O O1 0.829966 0.948389 0.250000
O O2 0.734279 0.921278 0.358698
O O3 0.000000 0.952040 0.341982
O O4 0.787373 0.012411 0.337044
O O5 0.500000 0.328426 0.491588
O O6 0.321319 0.281281 0.423879
O O7 0.249719 0.302003 0.535913
O O8 0.259416 0.371530 0.457051
O O9 0.691310 0.351261 0.750000
O O10 0.500000 0.336442 0.668132
O O11 0.722906 0.390782 0.638526
O O12 0.755634 0.296659 0.651928
O O13 0.500000 0.561538 0.126926
O O14 0.310756 0.534062 0.050341
O O15 0.346564 0.040083 0.540741
O O16 0.500000 0.788654 0.908161
O O17 0.500000 0.889328 0.084332
#
# Coordination Sequence:
#
# PCOD9471806 Si02
#       7
#    16  16  16  16   8  16  16
#     4   9  18  34  54  74 100 137 179 218 257 307
#     4  10  21  38  59  82 107 138 178 222 272 330
#     4  10  20  34  54  81 114 152 191 230 274 329
#     4   9  17  30  51  79 109 142 182 225 266 314
#     4  10  20  32  50  80 115 148 179 218 273 328
#     4  10  21  37  58  82 108 138 174 223 278 328
#     4  11  22  35  53  78 110 142 174 216 264 316
#
# _framework density 18.417952
#
# number of rings (size 3 to 8) (size 9 to 14) (size 15 to 20)
#    0.000    2.154    0.000    3.231    0.000    7.385 
#    0.000    3.846    0.000    4.615    0.000    0.000 
#    0.000    0.000    0.000    0.000    0.000    0.000 
#
# Total GULP energy -289792.634100 kJ/mol
# GULP energy per Si atom -5572.935271 kJ/mol
# Density = 1.837603 g / cm^3
# Si number density = 18.417952 Si / 1000 Ang^3
#
#
#
# Elastic Constant Matrix: (Units=GPa)
#
#
# Indices 1 2 3 4 5 6 
#
# 1 83.2255 43.5953 21.0080 0.0000 0.0000 0.0000
# 2 43.5953 72.0941 27.1255 0.0000 0.0000 0.0000
# 3 21.0080 27.1255 64.1760 0.0000 0.0000 0.0000
# 4 0.0000 0.0000 0.0000 23.1103 0.0000 0.0000
# 5 0.0000 0.0000 0.0000 0.0000 18.7677 0.0000
# 6 0.0000 0.0000 0.0000 0.0000 0.0000 19.7369
#
#
#
# Elastic Compliance Matrix: (Units=1/GPa)
#
#
# Indices 1 2 3 4 5 6 
#
# 1 0.017708 -0.010140 -0.001511 0.000000 0.000000 0.000000
# 2 -0.010140 0.022300 -0.006106 0.000000 0.000000 0.000000
# 3 -0.001511 -0.006106 0.018658 0.000000 0.000000 0.000000
# 4 0.000000 0.000000 0.000000 0.043271 0.000000 0.000000
# 5 0.000000 0.000000 0.000000 0.000000 0.053283 0.000000
# 6 0.000000 0.000000 0.000000 0.000000 0.000000 0.050667
#
#
# Mechanical properties :
#
#
# Convention : Reuss Voigt Hill
#
# Bulk Modulus (GPa) = 43.19322 44.77259 43.98291
# Shear Modulus (GPa) = 20.07086 20.84077 20.45581
#
# Velocity S-wave (km/s) = 3.30471 3.36750 3.33625
# Velocity P-wave (km/s) = 6.16961 6.28347 6.22680
#
# Compressibility (1/GPa) = 0.02315178
#
# Stress axis : x y z
#
# Youngs Moduli (GPa) = 56.47056 44.84362 53.59701
#
# Poissons Ratio (x) = 0.45470 0.08099
# Poissons Ratio (y) = 0.57259 0.32728
# Poissons Ratio (z) = 0.08533 0.27383
#
# Static dielectric constant tensor:
#      x y z
#    x 1.629000 0.000000 0.000000 
#    y 0.000000 1.659900 0.000000 
#    z 0.000000 0.000000 1.642650 
# 
# From -- ./inp_files/51498.got.cif
#   From: 2010.05.17/outbox.cif.g08.bks.cpg/sg63_26_cif.got.tgz:51498.got - 2010.06.03 15:47:04.
