data_PCOD9471931
_publ_section_title
;
Structure prediction by ZEFSAII (Michael W. Deem and Ramdas Pophale) SiO2 
 PCOD9471931
Probable space group: C M C M
;
_chemical_formula_sum "Si O2"
_cell_formula_units_Z 80
_cell_length_a 19.102147
_cell_length_b 27.520649
_cell_length_c 8.791557
_cell_angle_alpha 90.000000
_cell_angle_beta 90.000000
_cell_angle_gamma 90.000000
_cell_volume 4621.752134
_symmetry_space_group_name_H-M "C M C M"
_symmetry_group_IT_number 63
_symmetry_cell_setting 'orthorhombic'
loop_
_space_group_symop_operation_xyz
x,y,z
-x,-y,1/2+z
x,-y,-z
-x,y,1/2-z
-x,-y,-z
x,y,1/2-z
-x,y,z
x,-y,1/2+z
1/2+x,1/2+y,z
1/2-x,1/2-y,1/2+z
1/2+x,1/2-y,-z
1/2-x,1/2+y,1/2-z
1/2-x,1/2-y,-z
1/2+x,1/2+y,1/2-z
1/2-x,1/2+y,z
1/2+x,1/2-y,1/2+z
loop_
_atom_site_type_symbol
_atom_site_label
_atom_site_fract_x
_atom_site_fract_y
_atom_site_fract_z
Si Si1 0.784917 0.901034 0.431799
Si Si2 0.920166 0.352534 0.433768
Si Si3 0.351013 0.948187 0.931621
Si Si4 0.079790 0.053949 0.068353
Si Si5 0.216529 0.701981 0.931617
O O1 0.780957 0.907845 0.250000
O O2 0.727326 0.935608 0.510058
O O3 0.861310 0.913107 0.493051
O O4 0.762214 0.845909 0.467292
O O5 0.914633 0.357761 0.250000
O O6 0.898169 0.403840 0.506876
O O7 0.862338 0.312619 0.481158
O O8 0.000000 0.339992 0.471629
O O9 0.352546 0.949752 0.750000
O O10 0.372621 0.000000 0.000000
O O11 0.089316 0.052044 0.250000
O O12 0.000000 0.070048 0.036938
O O13 0.087522 0.000000 0.000000
O O14 0.215218 0.707524 0.750000
O O15 0.250000 0.750000 0.000000
#
# Coordination Sequence:
#
# PCOD9471931 Si02
#       5
#    16  16  16  16  16
#     4  10  20  35  53  74 102 135 173 215 259 305
#     4   9  19  37  57  77 104 136 171 212 257 304
#     4  11  21  33  51  76 106 139 175 211 250 300
#     4  10  20  33  50  74 104 138 174 212 257 307
#     4   9  19  35  56  79 101 130 167 210 260 308
#
# _framework density 17.309452
#
# number of rings (size 3 to 8) (size 9 to 14) (size 15 to 20)
#    0.000    2.200    0.000    4.800    0.000    6.000 
#    0.000    1.000    0.000    3.600    0.000    0.000 
#    0.000    0.000    0.000    0.000    0.000    0.000 
#
# Total GULP energy -223243.571212 kJ/mol
# GULP energy per Si atom -5581.089280 kJ/mol
# Density = 1.727006 g / cm^3
# Si number density = 17.309452 Si / 1000 Ang^3
#
#
#
# Elastic Constant Matrix: (Units=GPa)
#
#
# Indices 1 2 3 4 5 6 
#
# 1 156.3353 72.5911 51.6632 0.0000 0.0000 0.0000
# 2 72.5911 105.2261 38.6526 0.0000 0.0000 0.0000
# 3 51.6632 38.6526 55.1147 0.0000 0.0000 0.0000
# 4 0.0000 0.0000 0.0000 33.2941 0.0000 0.0000
# 5 0.0000 0.0000 0.0000 0.0000 28.5249 0.0000
# 6 0.0000 0.0000 0.0000 0.0000 0.0000 10.4532
#
#
#
# Elastic Compliance Matrix: (Units=1/GPa)
#
#
# Indices 1 2 3 4 5 6 
#
# 1 0.010991 -0.005116 -0.006715 0.000000 0.000000 0.000000
# 2 -0.005116 0.015182 -0.005852 0.000000 0.000000 0.000000
# 3 -0.006715 -0.005852 0.028543 0.000000 0.000000 0.000000
# 4 0.000000 0.000000 0.000000 0.030035 0.000000 0.000000
# 5 0.000000 0.000000 0.000000 0.000000 0.035057 0.000000
# 6 0.000000 0.000000 0.000000 0.000000 0.000000 0.095665
#
#
# Mechanical properties :
#
#
# Convention : Reuss Voigt Hill
#
# Bulk Modulus (GPa) = 51.67914 71.38776 61.53345
# Shear Modulus (GPa) = 19.43347 24.70571 22.06959
#
# Velocity S-wave (km/s) = 3.35432 3.78206 3.57459
# Velocity P-wave (km/s) = 6.70245 7.77197 7.25694
#
# Compressibility (1/GPa) = 0.01935017
#
# Stress axis : x y z
#
# Youngs Moduli (GPa) = 90.98463 65.86746 35.03532
#
# Poissons Ratio (x) = 0.33695 0.23526
# Poissons Ratio (y) = 0.46543 0.20503
# Poissons Ratio (z) = 0.61096 0.38547
#
# Static dielectric constant tensor:
#      x y z
#    x 1.601190 0.000000 0.000000 
#    y 0.000000 1.561920 0.000000 
#    z 0.000000 0.000000 1.579420 
# 
# From -- ./inp_files/6433.got.cif
#   From: 2010.05.17/outbox.cif.g08.bks.cpg/sg63_4_cif.got.tgz:6433.got - 2010.06.03 15:47:04.
