data_PCOD9471100
_publ_section_title
;
Structure prediction by ZEFSAII (Michael W. Deem and Ramdas Pophale) SiO2 
 PCOD9471100
Probable space group: C M C M
;
_chemical_formula_sum "Si O2"
_cell_formula_units_Z 72
_cell_length_a 23.859572
_cell_length_b 15.728730
_cell_length_c 9.573317
_cell_angle_alpha 90.000000
_cell_angle_beta 90.000000
_cell_angle_gamma 90.000000
_cell_volume 3592.681736
_symmetry_space_group_name_H-M "C M C M"
_symmetry_group_IT_number 63
_symmetry_cell_setting 'orthorhombic'
loop_
_space_group_symop_operation_xyz
x,y,z
-x,-y,1/2+z
x,-y,-z
-x,y,1/2-z
-x,-y,-z
x,y,1/2-z
-x,y,z
x,-y,1/2+z
1/2+x,1/2+y,z
1/2-x,1/2-y,1/2+z
1/2+x,1/2-y,-z
1/2-x,1/2+y,1/2-z
1/2-x,1/2-y,-z
1/2+x,1/2+y,1/2-z
1/2-x,1/2+y,z
1/2+x,1/2-y,1/2+z
loop_
_atom_site_type_symbol
_atom_site_label
_atom_site_fract_x
_atom_site_fract_y
_atom_site_fract_z
Si Si1 0.296619 0.888952 0.250000
Si Si2 0.561325 0.874128 0.543387
Si Si3 0.628915 0.500000 0.500000
Si Si4 0.343842 0.000000 0.000000
Si Si5 0.589775 0.200140 0.750000
Si Si6 0.561921 0.279897 0.250000
Si Si7 0.933965 0.098713 0.250000
Si Si8 0.327822 0.393325 0.250000
O O1 0.343360 0.815532 0.250000
O O2 0.233751 0.853508 0.250000
O O3 0.308710 0.947479 0.113722
O O4 0.500000 0.910834 0.577484
O O5 0.612880 0.935489 0.576392
O O6 0.566035 0.849235 0.382661
O O7 0.565163 0.784353 0.620985
O O8 0.592395 0.442574 0.608411
O O9 0.666479 0.553266 0.607487
O O10 0.575926 0.299709 0.750000
O O11 0.500000 0.322460 0.250000
O O12 0.615579 0.338511 0.250000
O O13 0.000000 0.081938 0.250000
#
# Coordination Sequence:
#
# PCOD9471100 Si02
#       8
#     8  16   8   8   8   8   8   8
#     4  10  22  39  58  81 112 153 192 232 276 324
#     4  10  19  34  56  86 118 152 183 225 283 336
#     4  10  24  38  60  86 106 144 192 230 288 340
#     4  10  20  36  58  86 117 148 191 232 268 332
#     4  10  21  35  55  83 116 151 190 226 273 336
#     4  10  22  37  57  83 114 145 183 230 285 340
#     4  11  21  39  60  86 118 145 179 233 286 340
#     4  11  22  42  60  81 112 148 190 239 282 332
#
# _framework density 20.04074
#
# number of rings (size 3 to 8) (size 9 to 14) (size 15 to 20)
#    0.000    1.778    0.000    4.333    0.000    4.444 
#    0.000   17.778    0.000    0.000    0.000    0.000 
#    0.000    0.000    0.000    0.000    0.000    0.000 
#
# Total GULP energy -200924.440669 kJ/mol
# GULP energy per Si atom -5581.234463 kJ/mol
# Density = 1.999513 g / cm^3
# Si number density = 20.040740 Si / 1000 Ang^3
#
#
#
# Elastic Constant Matrix: (Units=GPa)
#
#
# Indices 1 2 3 4 5 6 
#
# 1 146.8419 17.1692 13.3851 0.0000 0.0000 0.0000
# 2 17.1692 36.9387 -0.9875 0.0000 0.0000 0.0000
# 3 13.3851 -0.9875 112.4931 0.0000 0.0000 0.0000
# 4 0.0000 0.0000 0.0000 18.9111 0.0000 0.0000
# 5 0.0000 0.0000 0.0000 0.0000 13.8994 0.0000
# 6 0.0000 0.0000 0.0000 0.0000 0.0000 24.2659
#
#
#
# Elastic Compliance Matrix: (Units=1/GPa)
#
#
# Indices 1 2 3 4 5 6 
#
# 1 0.007291 -0.003413 -0.000897 0.000000 0.000000 0.000000
# 2 -0.003413 0.028676 0.000658 0.000000 0.000000 0.000000
# 3 -0.000897 0.000658 0.009002 0.000000 0.000000 0.000000
# 4 0.000000 0.000000 0.000000 0.052879 0.000000 0.000000
# 5 0.000000 0.000000 0.000000 0.000000 0.071946 0.000000
# 6 0.000000 0.000000 0.000000 0.000000 0.000000 0.041210
#
#
# Mechanical properties :
#
#
# Convention : Reuss Voigt Hill
#
# Bulk Modulus (GPa) = 26.55078 39.48971 33.02025
# Shear Modulus (GPa) = 21.65790 29.19575 25.42682
#
# Velocity S-wave (km/s) = 3.29096 3.82097 3.56583
# Velocity P-wave (km/s) = 5.26476 6.26210 5.78496
#
# Compressibility (1/GPa) = 0.03766367
#
# Stress axis : x y z
#
# Youngs Moduli (GPa) = 137.15742 34.87266 111.08646
#
# Poissons Ratio (x) = 0.11901 0.09970
# Poissons Ratio (y) = 0.46809 -0.07307
# Poissons Ratio (z) = 0.12310 -0.02294
#
# Static dielectric constant tensor:
#      x y z
#    x 1.715740 0.000000 0.000000 
#    y 0.000000 1.706570 0.000000 
#    z 0.000000 0.000000 1.683180 
# 
# From -- ./inp_files/11835.got.cif
#   From: 2010.05.17/outbox.cif.g08.bks.cpg/sg63_6_cif.got.tgz:11835.got - 2010.06.03 15:47:04.
