data_PCOD9471224
_publ_section_title
;
Structure prediction by ZEFSAII (Michael W. Deem and Ramdas Pophale) SiO2 
 PCOD9471224
Probable space group: C M C M
;
_chemical_formula_sum "Si O2"
_cell_formula_units_Z 116
_cell_length_a 28.045947
_cell_length_b 29.332681
_cell_length_c 7.937839
_cell_angle_alpha 90.000000
_cell_angle_beta 90.000000
_cell_angle_gamma 90.000000
_cell_volume 6530.164990
_symmetry_space_group_name_H-M "C M C M"
_symmetry_group_IT_number 63
_symmetry_cell_setting 'orthorhombic'
loop_
_space_group_symop_operation_xyz
x,y,z
-x,-y,1/2+z
x,-y,-z
-x,y,1/2-z
-x,-y,-z
x,y,1/2-z
-x,y,z
x,-y,1/2+z
1/2+x,1/2+y,z
1/2-x,1/2-y,1/2+z
1/2+x,1/2-y,-z
1/2-x,1/2+y,1/2-z
1/2-x,1/2-y,-z
1/2+x,1/2+y,1/2-z
1/2-x,1/2+y,z
1/2+x,1/2-y,1/2+z
loop_
_atom_site_type_symbol
_atom_site_label
_atom_site_fract_x
_atom_site_fract_y
_atom_site_fract_z
Si Si1 0.681124 0.948346 0.055959
Si Si2 0.053894 0.296219 0.951228
Si Si3 0.763036 0.301229 0.046871
Si Si4 0.211968 0.950504 0.944442
Si Si5 0.925848 0.190204 0.953621
Si Si6 0.173750 0.859690 0.049037
Si Si7 0.000000 0.834000 0.750000
Si Si8 0.643997 0.853593 0.452589
O O1 0.668330 0.947973 0.250000
O O2 0.654521 0.904480 0.978302
O O3 0.738109 0.940620 0.038351
O O4 0.671328 0.000000 0.000000
O O5 0.051437 0.299947 0.750000
O O6 0.070786 0.244529 0.986994
O O7 0.000000 0.301942 0.019393
O O8 0.092674 0.332457 0.010639
O O9 0.763296 0.303603 0.250000
O O10 0.720605 0.333712 0.984239
O O11 0.814014 0.319736 0.985063
O O12 0.750000 0.250000 0.000000
O O13 0.225240 0.953327 0.750000
O O14 0.174879 0.910214 0.974212
O O15 0.194072 0.000000 0.000000
O O16 0.937951 0.183762 0.750000
O O17 0.873187 0.170004 0.979301
O O18 0.959180 0.168293 0.096846
O O19 0.178517 0.865014 0.250000
O O20 0.648911 0.855316 0.250000
#
# Coordination Sequence:
#
# PCOD9471224 Si02
#       8
#    16  16  16  16  16  16   4  16
#     4  10  19  35  54  77 108 144 183 227 279 335
#     4  10  21  38  56  77 109 143 187 237 285 333
#     4  10  20  35  49  72 111 151 179 217 268 330
#     4  11  21  33  54  81 112 147 187 228 275 339
#     4  10  22  38  58  86 116 152 193 241 292 332
#     4  10  20  37  56  77 117 151 181 229 281 333
#     4  12  22  36  64  82 118 148 198 248 278 342
#     4  10  21  34  53  78 107 142 182 227 279 333
#
# _framework density 17.763715999999999
#
# number of rings (size 3 to 8) (size 9 to 14) (size 15 to 20)
#    0.000    1.793    2.069    3.517    1.931    3.586 
#    0.000    0.000    0.000    0.414    0.000    0.483 
#    0.000    0.000    0.000    0.000    0.000    0.000 
#
# Total GULP energy -322872.770212 kJ/mol
# GULP energy per Si atom -5566.771900 kJ/mol
# Density = 1.772329 g / cm^3
# Si number density = 17.763716 Si / 1000 Ang^3
#
#
#
# Elastic Constant Matrix: (Units=GPa)
#
#
# Indices 1 2 3 4 5 6 
#
# 1 112.5907 75.4668 22.3098 0.0000 0.0000 0.0000
# 2 75.4668 127.0547 15.8010 0.0000 0.0000 0.0000
# 3 22.3098 15.8010 29.2627 0.0000 0.0000 0.0000
# 4 0.0000 0.0000 0.0000 23.1169 0.0000 0.0000
# 5 0.0000 0.0000 0.0000 0.0000 23.1079 0.0000
# 6 0.0000 0.0000 0.0000 0.0000 0.0000 11.8487
#
#
#
# Elastic Compliance Matrix: (Units=1/GPa)
#
#
# Indices 1 2 3 4 5 6 
#
# 1 0.016222 -0.008680 -0.007680 0.000000 0.000000 0.000000
# 2 -0.008680 0.013082 -0.000446 0.000000 0.000000 0.000000
# 3 -0.007680 -0.000446 0.040270 0.000000 0.000000 0.000000
# 4 0.000000 0.000000 0.000000 0.043258 0.000000 0.000000
# 5 0.000000 0.000000 0.000000 0.000000 0.043275 0.000000
# 6 0.000000 0.000000 0.000000 0.000000 0.000000 0.084398
#
#
# Mechanical properties :
#
#
# Convention : Reuss Voigt Hill
#
# Bulk Modulus (GPa) = 27.80877 55.11816 41.46346
# Shear Modulus (GPa) = 17.47618 21.97007 19.72312
#
# Velocity S-wave (km/s) = 3.13998 3.52062 3.33574
# Velocity P-wave (km/s) = 5.36980 6.90089 6.18292
#
# Compressibility (1/GPa) = 0.03595988
#
# Stress axis : x y z
#
# Youngs Moduli (GPa) = 61.64631 76.44229 24.83266
#
# Poissons Ratio (x) = 0.66352 0.19072
# Poissons Ratio (y) = 0.53509 0.01108
# Poissons Ratio (z) = 0.47347 0.03411
#
# Static dielectric constant tensor:
#      x y z
#    x 1.600080 0.000000 0.000000 
#    y 0.000000 1.628450 0.000000 
#    z 0.000000 0.000000 1.650810 
# 
# From -- ./inp_files/13364.got.cif
#   From: 2010.05.17/outbox.cif.g08.bks.cpg/sg63_7_cif.got.tgz:13364.got - 2010.06.03 15:47:04.
