data_PCOD9471260
_publ_section_title
;
Structure prediction by ZEFSAII (Michael W. Deem and Ramdas Pophale) SiO2 
 PCOD9471260
Probable space group: C M C M
;
_chemical_formula_sum "Si O2"
_cell_formula_units_Z 104
_cell_length_a 21.336521
_cell_length_b 14.935753
_cell_length_c 16.828576
_cell_angle_alpha 90.000000
_cell_angle_beta 90.000000
_cell_angle_gamma 90.000000
_cell_volume 5362.880241
_symmetry_space_group_name_H-M "C M C M"
_symmetry_group_IT_number 63
_symmetry_cell_setting 'orthorhombic'
loop_
_space_group_symop_operation_xyz
x,y,z
-x,-y,1/2+z
x,-y,-z
-x,y,1/2-z
-x,-y,-z
x,y,1/2-z
-x,y,z
x,-y,1/2+z
1/2+x,1/2+y,z
1/2-x,1/2-y,1/2+z
1/2+x,1/2-y,-z
1/2-x,1/2+y,1/2-z
1/2-x,1/2-y,-z
1/2+x,1/2+y,1/2-z
1/2-x,1/2+y,z
1/2+x,1/2-y,1/2+z
loop_
_atom_site_type_symbol
_atom_site_label
_atom_site_fract_x
_atom_site_fract_y
_atom_site_fract_z
Si Si1 0.885652 0.023068 0.655768
Si Si2 0.500000 0.380366 0.649024
Si Si3 0.286316 0.624012 0.346028
Si Si4 0.926062 0.793541 0.420035
Si Si5 0.926156 0.439702 0.154295
Si Si6 0.394196 0.746159 0.398512
Si Si7 0.858368 0.377281 0.654059
O O1 0.882846 0.043059 0.750000
O O2 0.894969 0.114314 0.608435
O O3 0.824110 0.966486 0.632861
O O4 0.945030 0.957988 0.642908
O O5 0.444798 0.303701 0.656791
O O6 0.288655 0.631199 0.250000
O O7 0.326157 0.705576 0.381578
O O8 0.214260 0.623237 0.370981
O O9 0.917375 0.781756 0.514066
O O10 0.894333 0.708678 0.378752
O O11 0.000000 0.797346 0.401646
O O12 0.919281 0.431201 0.250000
O O13 0.897801 0.351657 0.114300
O O14 0.892193 0.531001 0.129149
O O15 0.000000 0.444723 0.136167
O O16 0.860147 0.374086 0.750000
#
# Coordination Sequence:
#
# PCOD9471260 Si02
#       7
#    16   8  16  16  16  16  16
#     4  10  21  36  60  88 116 154 202 249 299 354
#     4  10  19  35  56  83 119 150 186 246 291 347
#     4   9  21  41  62  88 117 154 203 254 302 353
#     4  12  24  38  59  90 129 165 194 242 302 370
#     4  10  20  37  62  88 112 150 203 255 298 346
#     4  11  22  38  59  91 124 155 196 245 307 360
#     4  10  23  42  62  84 118 160 205 252 296 353
#
# _framework density 19.392565000000001
#
# number of rings (size 3 to 8) (size 9 to 14) (size 15 to 20)
#    0.000    1.692    2.308    1.615    0.000    8.923 
#    0.000    6.154    0.000    0.000    0.000    0.000 
#    0.000    0.000    0.000    0.000    0.000    0.000 
#
# Total GULP energy -289517.748145 kJ/mol
# GULP energy per Si atom -5567.649003 kJ/mol
# Density = 1.934843 g / cm^3
# Si number density = 19.392565 Si / 1000 Ang^3
#
#
#
# Elastic Constant Matrix: (Units=GPa)
#
#
# Indices 1 2 3 4 5 6 
#
# 1 113.7926 61.8201 25.8818 0.0000 0.0000 0.0000
# 2 61.8201 125.2492 22.5134 0.0000 0.0000 0.0000
# 3 25.8818 22.5134 19.4919 0.0000 0.0000 0.0000
# 4 0.0000 0.0000 0.0000 -18.9639 0.0000 0.0000
# 5 0.0000 0.0000 0.0000 0.0000 36.6923 0.0000
# 6 0.0000 0.0000 0.0000 0.0000 0.0000 -35.8280
#
#
#
# Elastic Compliance Matrix: (Units=1/GPa)
#
#
# Indices 1 2 3 4 5 6 
#
# 1 0.014460 -0.004652 -0.013828 0.000000 0.000000 0.000000
# 2 -0.004652 0.011572 -0.007190 0.000000 0.000000 0.000000
# 3 -0.013828 -0.007190 0.077969 0.000000 0.000000 0.000000
# 4 0.000000 0.000000 0.000000 -0.052732 0.000000 0.000000
# 5 0.000000 0.000000 0.000000 0.000000 0.027254 0.000000
# 6 0.000000 0.000000 0.000000 0.000000 0.000000 -0.027911
#
#
# Mechanical properties :
#
#
# Convention : Reuss Voigt Hill
#
# Bulk Modulus (GPa) = 18.98874 53.21824 36.10349
# Shear Modulus (GPa) = 41.83952 6.26796 24.05374
#
# Velocity S-wave (km/s) = 4.64993 1.79977 3.52569
# Velocity P-wave (km/s) = 6.21628 5.64102 5.93562
#
# Compressibility (1/GPa) = 0.05266280
#
# Stress axis : x y z
#
# Youngs Moduli (GPa) = 69.15581 86.41271 12.82569
#
# Poissons Ratio (x) = 0.40196 0.17735
# Poissons Ratio (y) = 0.32169 0.09221
# Poissons Ratio (z) = 0.95627 0.62128
#
# Static dielectric constant tensor:
#      x y z
#    x 1.650590 0.000000 0.000000 
#    y 0.000000 1.650440 0.000000 
#    z 0.000000 0.000000 1.734000 
# 
# From -- ./inp_files/47128.got.cif
#   From: 2010.05.17/outbox.cif.g08.bks.cpg/sg63_24_cif.got.tgz:47128.got - 2010.06.03 15:47:04.
