data_PCOD9471719
_publ_section_title
;
Structure prediction by ZEFSAII (Michael W. Deem and Ramdas Pophale) SiO2 
 PCOD9471719
Probable space group: C M C M
;
_chemical_formula_sum "Si O2"
_cell_formula_units_Z 112
_cell_length_a 15.098362
_cell_length_b 16.768771
_cell_length_c 25.056125
_cell_angle_alpha 90.000000
_cell_angle_beta 90.000000
_cell_angle_gamma 90.000000
_cell_volume 6343.734154
_symmetry_space_group_name_H-M "C M C M"
_symmetry_group_IT_number 63
_symmetry_cell_setting 'orthorhombic'
loop_
_space_group_symop_operation_xyz
x,y,z
-x,-y,1/2+z
x,-y,-z
-x,y,1/2-z
-x,-y,-z
x,y,1/2-z
-x,y,z
x,-y,1/2+z
1/2+x,1/2+y,z
1/2-x,1/2-y,1/2+z
1/2+x,1/2-y,-z
1/2-x,1/2+y,1/2-z
1/2-x,1/2-y,-z
1/2+x,1/2+y,1/2-z
1/2-x,1/2+y,z
1/2+x,1/2-y,1/2+z
loop_
_atom_site_type_symbol
_atom_site_label
_atom_site_fract_x
_atom_site_fract_y
_atom_site_fract_z
Si Si1 0.395916 0.527432 0.892328
Si Si2 0.896761 0.841044 0.913807
Si Si3 0.714857 0.625774 0.686415
Si Si4 0.101623 0.394522 0.811086
Si Si5 0.093861 0.585830 0.812996
Si Si6 0.896845 0.816488 0.460431
Si Si7 0.787555 0.720559 0.377485
O O1 0.500000 0.533357 0.880191
O O2 0.379454 0.436339 0.908693
O O3 0.340860 0.556454 0.841410
O O4 0.377488 0.594383 0.937608
O O5 0.817081 0.796210 0.883487
O O6 0.000000 0.826805 0.896854
O O7 0.889882 0.817779 0.975995
O O8 0.711910 0.619043 0.750000
O O9 0.815456 0.619181 0.665273
O O10 0.685911 0.711924 0.665784
O O11 0.129666 0.375668 0.750000
O O12 0.099569 0.490197 0.815473
O O13 0.164810 0.357890 0.855294
O O14 0.000000 0.366342 0.817790
O O15 0.092168 0.606558 0.750000
O O16 0.000000 0.611881 0.837045
O O17 0.831352 0.754508 0.431683
O O18 0.000000 0.798646 0.446404
#
# Coordination Sequence:
#
# PCOD9471719 Si02
#       7
#    16  16  16  16  16  16  16
#     4   9  18  33  53  74  94 123 164 204 244 289
#     4  10  20  34  51  71  98 131 165 202 243 289
#     4  10  20  32  47  69  97 127 157 193 237 285
#     4   9  17  30  49  71  93 119 154 198 244 285
#     4   8  15  29  47  63  82 116 160 196 224 263
#     4   9  18  33  52  73  96 124 162 207 250 290
#     4  11  20  30  47  73 102 129 157 193 243 300
#
# _framework density 17.655215999999999
#
# number of rings (size 3 to 8) (size 9 to 14) (size 15 to 20)
#    0.000    2.571    0.000    3.429    0.000    3.143 
#    0.000    0.714    0.000    3.000    0.000    0.000 
#    0.000   20.571    0.000    0.000    0.000    0.000 
#
# Total GULP energy -311881.635059 kJ/mol
# GULP energy per Si atom -5569.314912 kJ/mol
# Density = 1.761503 g / cm^3
# Si number density = 17.655216 Si / 1000 Ang^3
#
#
#
# Elastic Constant Matrix: (Units=GPa)
#
#
# Indices 1 2 3 4 5 6 
#
# 1 50.1085 8.9206 14.1289 0.0000 0.0000 0.0000
# 2 8.9206 21.9348 -0.5063 0.0000 0.0000 0.0000
# 3 14.1289 -0.5063 40.6300 0.0000 0.0000 0.0000
# 4 0.0000 0.0000 0.0000 12.2581 0.0000 0.0000
# 5 0.0000 0.0000 0.0000 0.0000 25.3189 0.0000
# 6 0.0000 0.0000 0.0000 0.0000 0.0000 25.3869
#
#
#
# Elastic Compliance Matrix: (Units=1/GPa)
#
#
# Indices 1 2 3 4 5 6 
#
# 1 0.024142 -0.010015 -0.008520 0.000000 0.000000 0.000000
# 2 -0.010015 0.049757 0.004103 0.000000 0.000000 0.000000
# 3 -0.008520 0.004103 0.027626 0.000000 0.000000 0.000000
# 4 0.000000 0.000000 0.000000 0.081579 0.000000 0.000000
# 5 0.000000 0.000000 0.000000 0.000000 0.039496 0.000000
# 6 0.000000 0.000000 0.000000 0.000000 0.000000 0.039390
#
#
# Mechanical properties :
#
#
# Convention : Reuss Voigt Hill
#
# Bulk Modulus (GPa) = 13.76252 17.52883 15.64568
# Shear Modulus (GPa) = 15.86920 18.60146 17.23533
#
# Velocity S-wave (km/s) = 3.00132 3.24944 3.12784
# Velocity P-wave (km/s) = 4.45226 4.90188 4.68247
#
# Compressibility (1/GPa) = 0.07266109
#
# Stress axis : x y z
#
# Youngs Moduli (GPa) = 41.42169 20.09753 36.19739
#
# Poissons Ratio (x) = 0.20127 0.30840
# Poissons Ratio (y) = 0.41483 -0.14850
# Poissons Ratio (z) = 0.35291 -0.08245
#
# Static dielectric constant tensor:
#      x y z
#    x 1.637930 0.000000 0.000000 
#    y 0.000000 1.595960 0.000000 
#    z 0.000000 0.000000 1.584630 
# 
# From -- ./inp_files/62955.got.cif
#   From: 2010.05.17/outbox.cif.g08.bks.cpg/sg63_32_cif.got.tgz:62955.got - 2010.06.03 15:47:04.
