data_PCOD9471772
_publ_section_title
;
Structure prediction by ZEFSAII (Michael W. Deem and Ramdas Pophale) SiO2 
 PCOD9471772
Probable space group: C M C M
;
_chemical_formula_sum "Si O2"
_cell_formula_units_Z 96
_cell_length_a 8.829143
_cell_length_b 23.302495
_cell_length_c 27.604867
_cell_angle_alpha 90.000000
_cell_angle_beta 90.000000
_cell_angle_gamma 90.000000
_cell_volume 5679.454615
_symmetry_space_group_name_H-M "C M C M"
_symmetry_group_IT_number 63
_symmetry_cell_setting 'orthorhombic'
loop_
_space_group_symop_operation_xyz
x,y,z
-x,-y,1/2+z
x,-y,-z
-x,y,1/2-z
-x,-y,-z
x,y,1/2-z
-x,y,z
x,-y,1/2+z
1/2+x,1/2+y,z
1/2-x,1/2-y,1/2+z
1/2+x,1/2-y,-z
1/2-x,1/2+y,1/2-z
1/2-x,1/2-y,-z
1/2+x,1/2+y,1/2-z
1/2-x,1/2+y,z
1/2+x,1/2-y,1/2+z
loop_
_atom_site_type_symbol
_atom_site_label
_atom_site_fract_x
_atom_site_fract_y
_atom_site_fract_z
Si Si1 0.174906 0.094469 0.878469
Si Si2 0.172142 0.404103 0.876346
Si Si3 0.816824 0.497555 0.306442
Si Si4 0.332975 0.013505 0.555350
Si Si5 0.680642 0.319322 0.950425
Si Si6 0.319229 0.815394 0.446146
O O1 0.200276 0.051697 0.923703
O O2 0.253933 0.151401 0.899482
O O3 0.000000 0.104625 0.867748
O O4 0.251504 0.057380 0.835372
O O5 0.232610 0.441584 0.830740
O O6 0.164079 0.454252 0.916222
O O7 0.263815 0.354524 0.903494
O O8 0.000000 0.384415 0.865619
O O9 0.777973 0.495246 0.250000
O O10 0.000000 0.496200 0.311634
O O11 0.500000 0.041412 0.563561
O O12 0.315927 0.000000 0.500000
O O13 0.500000 0.324826 0.955217
O O14 0.720275 0.252127 0.943803
O O15 0.755292 0.337709 0.001897
O O16 0.500000 0.820450 0.447190
#
# Coordination Sequence:
#
# PCOD9471772 Si02
#       6
#    16  16  16  16  16  16
#     4  11  21  31  48  74 100 126 161 206 250 290
#     4   9  17  29  48  73  99 128 161 198 243 296
#     4   9  19  37  58  76  96 127 164 200 247 306
#     4   9  17  29  45  66  95 131 164 193 234 291
#     4  10  20  32  49  74 102 134 171 207 243 284
#     4  10  20  34  50  69 100 140 175 204 239 289
#
# _framework density 16.903030999999999
#
# number of rings (size 3 to 8) (size 9 to 14) (size 15 to 20)
#    0.000    2.333    0.000    4.500    0.000    6.667 
#    0.000    0.000    0.000    1.000    0.000    4.667 
#    0.000    0.000    0.000    0.000    0.000    0.000 
#
# Total GULP energy -267319.936464 kJ/mol
# GULP energy per Si atom -5569.165343 kJ/mol
# Density = 1.686456 g / cm^3
# Si number density = 16.903031 Si / 1000 Ang^3
#
#
#
# Elastic Constant Matrix: (Units=GPa)
#
#
# Indices 1 2 3 4 5 6 
#
# 1 48.1246 24.7692 31.0956 0.0000 0.0000 0.0000
# 2 24.7692 76.0045 45.6922 0.0000 0.0000 0.0000
# 3 31.0956 45.6922 123.7648 0.0000 0.0000 0.0000
# 4 0.0000 0.0000 0.0000 24.1795 0.0000 0.0000
# 5 0.0000 0.0000 0.0000 0.0000 14.5215 0.0000
# 6 0.0000 0.0000 0.0000 0.0000 0.0000 34.6131
#
#
#
# Elastic Compliance Matrix: (Units=1/GPa)
#
#
# Indices 1 2 3 4 5 6 
#
# 1 0.026791 -0.006021 -0.004509 0.000000 0.000000 0.000000
# 2 -0.006021 0.018263 -0.005230 0.000000 0.000000 0.000000
# 3 -0.004509 -0.005230 0.011143 0.000000 0.000000 0.000000
# 4 0.000000 0.000000 0.000000 0.041357 0.000000 0.000000
# 5 0.000000 0.000000 0.000000 0.000000 0.068863 0.000000
# 6 0.000000 0.000000 0.000000 0.000000 0.000000 0.028891
#
#
# Mechanical properties :
#
#
# Convention : Reuss Voigt Hill
#
# Bulk Modulus (GPa) = 40.51876 50.11199 45.31537
# Shear Modulus (GPa) = 21.27170 24.41862 22.84516
#
# Velocity S-wave (km/s) = 3.55132 3.80495 3.68032
# Velocity P-wave (km/s) = 6.39055 7.00105 6.70275
#
# Compressibility (1/GPa) = 0.02467993
#
# Stress axis : x y z
#
# Youngs Moduli (GPa) = 37.32554 54.75474 89.73930
#
# Poissons Ratio (x) = 0.32966 0.40459
# Poissons Ratio (y) = 0.22472 0.46932
# Poissons Ratio (z) = 0.16828 0.28636
#
# Static dielectric constant tensor:
#      x y z
#    x 1.604980 0.000000 0.000000 
#    y 0.000000 1.664710 0.000000 
#    z 0.000000 0.000000 1.870010 
# 
# From -- ./inp_files/67250.got.cif
#   From: 2010.05.17/outbox.cif.g08.bks.cpg/sg63_34_cif.got.tgz:67250.got - 2010.06.03 15:47:04.
