data_PCOD9471072
_publ_section_title
;
Structure prediction by ZEFSAII (Michael W. Deem and Ramdas Pophale) SiO2 
 PCOD9471072
Probable space group: C M C M
;
_chemical_formula_sum "Si O2"
_cell_formula_units_Z 80
_cell_length_a 7.578747
_cell_length_b 25.760076
_cell_length_c 18.487726
_cell_angle_alpha 90.000000
_cell_angle_beta 90.000000
_cell_angle_gamma 90.000000
_cell_volume 3609.342084
_symmetry_space_group_name_H-M "C M C M"
_symmetry_group_IT_number 63
_symmetry_cell_setting 'orthorhombic'
loop_
_space_group_symop_operation_xyz
x,y,z
-x,-y,1/2+z
x,-y,-z
-x,y,1/2-z
-x,-y,-z
x,y,1/2-z
-x,y,z
x,-y,1/2+z
1/2+x,1/2+y,z
1/2-x,1/2-y,1/2+z
1/2+x,1/2-y,-z
1/2-x,1/2+y,1/2-z
1/2-x,1/2-y,-z
1/2+x,1/2+y,1/2-z
1/2-x,1/2+y,z
1/2+x,1/2-y,1/2+z
loop_
_atom_site_type_symbol
_atom_site_label
_atom_site_fract_x
_atom_site_fract_y
_atom_site_fract_z
Si Si1 0.711964 0.773644 0.421136
Si Si2 0.213981 0.508946 0.830974
Si Si3 0.792773 0.084385 0.063135
Si Si4 0.203027 0.389726 0.404449
Si Si5 0.284221 0.323831 0.831791
O O1 0.500000 0.776365 0.416260
O O2 0.750000 0.750000 0.500000
O O3 0.781906 0.831967 0.410140
O O4 0.772920 0.731882 0.362175
O O5 0.271110 0.493949 0.750000
O O6 0.270382 0.467879 0.891318
O O7 0.279802 0.566352 0.852246
O O8 0.000000 0.509664 0.831764
O O9 0.725826 0.131463 0.113230
O O10 0.000000 0.092653 0.049767
O O11 0.705097 0.086272 0.985018
O O12 0.000000 0.382911 0.381163
O O13 0.226035 0.333279 0.750000
O O14 0.500000 0.324761 0.831821
#
# Coordination Sequence:
#
# PCOD9471072 Si02
#       5
#    16  16  16  16  16
#     4  10  19  34  56  80 108 142 179 223 270 321
#     4  10  22  39  56  78 111 147 183 227 278 328
#     4  11  21  35  57  83 111 145 185 229 274 327
#     4  10  21  36  57  82 109 144 186 229 274 331
#     4   9  18  32  52  80 110 139 176 223 272 320
#
# _framework density 22.164704
#
# number of rings (size 3 to 8) (size 9 to 14) (size 15 to 20)
#    0.000    2.000    2.000    1.800    0.000    5.200 
#    0.000    4.000    0.000    1.800    0.000    2.800 
#    0.000    0.000    0.000    0.000    0.000    0.000 
#
# Total GULP energy -223525.126855 kJ/mol
# GULP energy per Si atom -5588.128171 kJ/mol
# Density = 2.211426 g / cm^3
# Si number density = 22.164704 Si / 1000 Ang^3
#
#
#
# Elastic Constant Matrix: (Units=GPa)
#
#
# Indices 1 2 3 4 5 6 
#
# 1 55.1635 -2.7151 -9.2921 0.0000 0.0000 0.0000
# 2 -2.7151 112.4695 -15.6458 0.0000 0.0000 0.0000
# 3 -9.2921 -15.6458 30.6798 0.0000 0.0000 0.0000
# 4 0.0000 0.0000 0.0000 14.4051 0.0000 0.0000
# 5 0.0000 0.0000 0.0000 0.0000 6.8007 0.0000
# 6 0.0000 0.0000 0.0000 0.0000 0.0000 13.5040
#
#
#
# Elastic Compliance Matrix: (Units=1/GPa)
#
#
# Indices 1 2 3 4 5 6 
#
# 1 0.019299 0.001377 0.006547 0.000000 0.000000 0.000000
# 2 0.001377 0.009668 0.005348 0.000000 0.000000 0.000000
# 3 0.006547 0.005348 0.037305 0.000000 0.000000 0.000000
# 4 0.000000 0.000000 0.000000 0.069420 0.000000 0.000000
# 5 0.000000 0.000000 0.000000 0.000000 0.147044 0.000000
# 6 0.000000 0.000000 0.000000 0.000000 0.000000 0.074052
#
#
# Mechanical properties :
#
#
# Convention : Reuss Voigt Hill
#
# Bulk Modulus (GPa) = 10.77421 15.88964 13.33192
# Shear Modulus (GPa) = 13.84338 22.00635 17.92486
#
# Velocity S-wave (km/s) = 2.50185 3.15438 2.84687
# Velocity P-wave (km/s) = 3.63555 4.52231 4.10295
#
# Compressibility (1/GPa) = 0.09281424
#
# Stress axis : x y z
#
# Youngs Moduli (GPa) = 51.81742 103.42928 26.80625
#
# Poissons Ratio (x) = -0.14239 -0.17550
# Poissons Ratio (y) = -0.07133 -0.14335
# Poissons Ratio (z) = -0.33925 -0.55309
#
# Static dielectric constant tensor:
#      x y z
#    x 1.725100 0.000000 0.000000 
#    y 0.000000 1.823400 0.000000 
#    z 0.000000 0.000000 1.764300 
# 
# From -- ./inp_files/40443.got.cif
#   From: 2010.05.17/outbox.cif.g08.bks.cpg/sg63_21_cif.got.tgz:40443.got - 2010.06.03 15:47:04.
