data_PCOD9471282
_publ_section_title
;
Structure prediction by ZEFSAII (Michael W. Deem and Ramdas Pophale) SiO2 
 PCOD9471282
Probable space group: C M C M
;
_chemical_formula_sum "Si O2"
_cell_formula_units_Z 60
_cell_length_a 7.834816
_cell_length_b 27.923606
_cell_length_c 15.024886
_cell_angle_alpha 90.000000
_cell_angle_beta 90.000000
_cell_angle_gamma 90.000000
_cell_volume 3287.089193
_symmetry_space_group_name_H-M "C M C M"
_symmetry_group_IT_number 63
_symmetry_cell_setting 'orthorhombic'
loop_
_space_group_symop_operation_xyz
x,y,z
-x,-y,1/2+z
x,-y,-z
-x,y,1/2-z
-x,-y,-z
x,y,1/2-z
-x,y,z
x,-y,1/2+z
1/2+x,1/2+y,z
1/2-x,1/2-y,1/2+z
1/2+x,1/2-y,-z
1/2-x,1/2+y,1/2-z
1/2-x,1/2-y,-z
1/2+x,1/2+y,1/2-z
1/2-x,1/2+y,z
1/2+x,1/2-y,1/2+z
loop_
_atom_site_type_symbol
_atom_site_label
_atom_site_fract_x
_atom_site_fract_y
_atom_site_fract_z
Si Si1 0.000000 0.333181 0.349707
Si Si2 0.199528 0.067290 0.250000
Si Si3 0.000000 0.508741 0.750000
Si Si4 0.698058 0.401117 0.948164
Si Si5 0.500000 0.065092 0.560980
Si Si6 0.197074 0.799212 0.046339
O O1 0.000000 0.380215 0.408215
O O2 0.829132 0.305194 0.373538
O O3 0.000000 0.349132 0.250000
O O4 0.330489 0.023574 0.250000
O O5 0.228335 0.095788 0.157808
O O6 0.000000 0.052281 0.250000
O O7 0.000000 0.536024 0.846203
O O8 0.500000 0.414712 0.965470
O O9 0.717041 0.346319 0.983221
O O10 0.830350 0.436364 0.999211
O O11 0.000000 0.797548 0.073532
O O12 0.250000 0.750000 0.000000
#
# Coordination Sequence:
#
# PCOD9471282 Si02
#       6
#     8   8   4  16   8  16
#     4  10  20  37  57  79 117 150 189 240 283 334
#     4  10  22  40  58  85 117 147 189 238 292 352
#     4  12  24  38  60  88 112 148 202 246 292 350
#     4   9  20  38  59  82 117 156 187 234 293 346
#     4  10  21  38  60  83 112 153 194 242 295 337
#     4  10  19  35  57  84 114 152 190 230 281 342
#
# _framework density 18.253232000000001
#
# number of rings (size 3 to 8) (size 9 to 14) (size 15 to 20)
#    0.000    2.133    2.000    0.800    0.000    3.733 
#    2.400    2.667    0.000    0.000    0.000    0.000 
#    0.000    0.000    0.000    0.000    0.000    0.000 
#
# Total GULP energy -167061.961738 kJ/mol
# GULP energy per Si atom -5568.732058 kJ/mol
# Density = 1.821169 g / cm^3
# Si number density = 18.253232 Si / 1000 Ang^3
#
#
#
# Elastic Constant Matrix: (Units=GPa)
#
#
# Indices 1 2 3 4 5 6 
#
# 1 140.3014 40.1330 67.7190 0.0000 0.0000 0.0000
# 2 40.1330 33.6786 4.8847 0.0000 0.0000 0.0000
# 3 67.7190 4.8847 98.2478 0.0000 0.0000 0.0000
# 4 0.0000 0.0000 0.0000 25.8579 0.0000 0.0000
# 5 0.0000 0.0000 0.0000 0.0000 27.8138 0.0000
# 6 0.0000 0.0000 0.0000 0.0000 0.0000 23.0249
#
#
#
# Elastic Compliance Matrix: (Units=1/GPa)
#
#
# Indices 1 2 3 4 5 6 
#
# 1 0.018798 -0.020671 -0.011929 0.000000 0.000000 0.000000
# 2 -0.020671 0.052638 0.011631 0.000000 0.000000 0.000000
# 3 -0.011929 0.011631 0.017823 0.000000 0.000000 0.000000
# 4 0.000000 0.000000 0.000000 0.038673 0.000000 0.000000
# 5 0.000000 0.000000 0.000000 0.000000 0.035953 0.000000
# 6 0.000000 0.000000 0.000000 0.000000 0.000000 0.043431
#
#
# Mechanical properties :
#
#
# Convention : Reuss Voigt Hill
#
# Bulk Modulus (GPa) = 21.13283 55.30012 38.21647
# Shear Modulus (GPa) = 18.86594 25.97206 22.41900
#
# Velocity S-wave (km/s) = 3.21840 3.77619 3.50840
# Velocity P-wave (km/s) = 5.04118 7.02671 6.11507
#
# Compressibility (1/GPa) = 0.04731974
#
# Stress axis : x y z
#
# Youngs Moduli (GPa) = 53.19660 18.99780 56.10860
#
# Poissons Ratio (x) = 0.39270 0.66934
# Poissons Ratio (y) = 1.09961 -0.65257
# Poissons Ratio (z) = 0.63460 -0.22095
#
# Static dielectric constant tensor:
#      x y z
#    x 1.648350 0.000000 0.000000 
#    y 0.000000 1.531990 0.000000 
#    z 0.000000 0.000000 1.637180 
# 
# From -- ./inp_files/16159.got.cif
#   From: 2010.05.17/outbox.cif.g08.bks.cpg/sg63_9_cif.got.tgz:16159.got - 2010.06.03 15:47:04.
