data_PCOD9471659
_publ_section_title
;
Structure prediction by ZEFSAII (Michael W. Deem and Ramdas Pophale) SiO2 
 PCOD9471659
Probable space group: C M C M
;
_chemical_formula_sum "Si O2"
_cell_formula_units_Z 84
_cell_length_a 20.875856
_cell_length_b 17.181567
_cell_length_c 14.408578
_cell_angle_alpha 90.000000
_cell_angle_beta 90.000000
_cell_angle_gamma 90.000000
_cell_volume 5168.067583
_symmetry_space_group_name_H-M "C M C M"
_symmetry_group_IT_number 63
_symmetry_cell_setting 'orthorhombic'
loop_
_space_group_symop_operation_xyz
x,y,z
-x,-y,1/2+z
x,-y,-z
-x,y,1/2-z
-x,-y,-z
x,y,1/2-z
-x,y,z
x,-y,1/2+z
1/2+x,1/2+y,z
1/2-x,1/2-y,1/2+z
1/2+x,1/2-y,-z
1/2-x,1/2+y,1/2-z
1/2-x,1/2-y,-z
1/2+x,1/2+y,1/2-z
1/2-x,1/2+y,z
1/2+x,1/2-y,1/2+z
loop_
_atom_site_type_symbol
_atom_site_label
_atom_site_fract_x
_atom_site_fract_y
_atom_site_fract_z
Si Si1 0.854272 0.809404 0.250000
Si Si2 0.181213 0.009195 0.750000
Si Si3 0.000000 0.138973 0.750000
Si Si4 0.576061 0.380239 0.750000
Si Si5 0.617224 0.666692 0.451021
Si Si6 0.188590 0.277515 0.938643
Si Si7 0.500000 0.416384 0.047614
Si Si8 0.256114 0.565802 0.071216
O O1 0.832196 0.899452 0.250000
O O2 0.932685 0.812296 0.250000
O O3 0.825748 0.767989 0.342429
O O4 0.114185 0.961840 0.750000
O O5 0.221066 0.979165 0.662345
O O6 0.000000 0.086488 0.657954
O O7 0.500000 0.390057 0.750000
O O8 0.598098 0.336113 0.656754
O O9 0.631916 0.751483 0.492315
O O10 0.561790 0.628207 0.510687
O O11 0.679735 0.611584 0.462447
O O12 0.203170 0.367189 0.916150
O O13 0.250000 0.250000 0.000000
O O14 0.500000 0.500000 0.000000
O O15 0.235397 0.500000 0.000000
#
# Coordination Sequence:
#
# PCOD9471659 Si02
#       8
#     8   8   4   8  16  16   8  16
#     4  12  23  37  57  86 120 153 193 233 295 368
#     4  10  21  31  50  78 110 144 186 223 273 333
#     4  12  28  36  56  90 120 166 194 230 292 364
#     4  10  20  31  50  76 115 151 190 218 270 342
#     4  10  20  34  51  80 112 153 187 236 283 348
#     4  10  21  37  54  75 112 151 192 242 291 334
#     4  12  24  34  54  80 120 154 202 234 284 358
#     4  10  20  36  54  77 105 146 190 239 282 330
#
# _framework density 16.253658000000001
#
# number of rings (size 3 to 8) (size 9 to 14) (size 15 to 20)
#    0.000    1.524    2.857    3.429    6.000    2.286 
#    0.000    0.952    0.000    0.000    0.000    2.667 
#    2.857    0.000    0.000    0.000    0.000    0.000 
#
# Total GULP energy -234188.899018 kJ/mol
# GULP energy per Si atom -5575.926167 kJ/mol
# Density = 1.621666 g / cm^3
# Si number density = 16.253658 Si / 1000 Ang^3
#
#
#
# Elastic Constant Matrix: (Units=GPa)
#
#
# Indices 1 2 3 4 5 6 
#
# 1 79.6211 66.5136 50.3988 0.0000 0.0000 0.0000
# 2 66.5136 120.7333 65.3634 0.0000 0.0000 0.0000
# 3 50.3988 65.3634 144.5492 0.0000 0.0000 0.0000
# 4 0.0000 0.0000 0.0000 26.3338 0.0000 0.0000
# 5 0.0000 0.0000 0.0000 0.0000 20.8860 0.0000
# 6 0.0000 0.0000 0.0000 0.0000 0.0000 24.7563
#
#
#
# Elastic Compliance Matrix: (Units=1/GPa)
#
#
# Indices 1 2 3 4 5 6 
#
# 1 0.024342 -0.011673 -0.003209 0.000000 0.000000 0.000000
# 2 -0.011673 0.016566 -0.003421 0.000000 0.000000 0.000000
# 3 -0.003209 -0.003421 0.009584 0.000000 0.000000 0.000000
# 4 0.000000 0.000000 0.000000 0.037974 0.000000 0.000000
# 5 0.000000 0.000000 0.000000 0.000000 0.047879 0.000000
# 6 0.000000 0.000000 0.000000 0.000000 0.000000 0.040394
#
#
# Mechanical properties :
#
#
# Convention : Reuss Voigt Hill
#
# Bulk Modulus (GPa) = 72.01500 78.82837 75.42168
# Shear Modulus (GPa) = 22.93873 25.23708 24.08791
#
# Velocity S-wave (km/s) = 3.76080 3.94471 3.85385
# Velocity P-wave (km/s) = 7.95370 8.32777 8.14288
#
# Compressibility (1/GPa) = 0.01388600
#
# Stress axis : x y z
#
# Youngs Moduli (GPa) = 41.08109 60.36595 104.34472
#
# Poissons Ratio (x) = 0.70467 0.33481
# Poissons Ratio (y) = 0.47955 0.35694
# Poissons Ratio (z) = 0.13181 0.20650
#
# Static dielectric constant tensor:
#      x y z
#    x 1.539020 0.000000 0.000000 
#    y 0.000000 1.553250 0.000000 
#    z 0.000000 0.000000 1.708950 
# 
# From -- ./inp_files/35285.got.cif
#   From: 2010.05.17/outbox.cif.g08.bks.cpg/sg63_18_cif.got.tgz:35285.got - 2010.06.03 15:47:04.
